
 OpenBabel03252505443D

 40 42  0  0  1  0  0  0  0  0999 V2000
   37.6090   31.1100   40.4720 C   0  0  0  0  0  0  0  0  0  0  0  0
   36.9070   32.1570   39.9310 C   0  0  0  0  0  0  0  0  0  0  0  0
   37.4900   33.3830   39.6720 C   0  0  0  0  0  0  0  0  0  0  0  0
   38.7950   33.5360   39.9710 N   0  0  0  0  0  0  0  0  0  0  0  0
   39.4940   32.5030   40.5080 C   0  0  0  0  0  0  0  0  0  0  0  0
   38.9310   31.3030   40.7620 N   0  0  0  0  0  0  0  0  0  0  0  0
   35.8610   32.0030   39.7020 H   0  0  0  0  0  0  0  0  0  0  0  0
   36.9550   34.2220   39.2450 H   0  0  0  0  0  0  0  0  0  0  0  0
   36.6380   28.9990   39.6110 C   0  0  1  0  0  0  0  0  0  0  0  0
   35.4600   29.6740   40.4000 C   0  0  0  0  0  0  0  0  0  0  0  0
   36.9340   29.7900   40.7700 C   0  0  2  0  0  0  0  0  0  0  0  0
   36.7550   29.4370   38.5770 H   0  0  0  0  0  0  0  0  0  0  0  0
   35.0390   30.5880   39.9550 H   0  0  0  0  0  0  0  0  0  0  0  0
   34.8180   29.0090   40.9850 H   0  0  0  0  0  0  0  0  0  0  0  0
   37.1250   29.4630   41.7920 H   0  0  0  0  0  0  0  0  0  0  0  0
   36.5740   27.5240   39.6000 C   0  0  0  0  0  0  0  0  0  0  0  0
   36.0550   26.9050   38.4500 C   0  0  0  0  0  0  0  0  0  0  0  0
   35.9890   25.5120   38.4180 C   0  0  0  0  0  0  0  0  0  0  0  0
   36.4320   24.8270   39.5010 N   0  0  0  0  0  0  0  0  0  0  0  0
   36.9190   25.4490   40.5770 C   0  0  0  0  0  0  0  0  0  0  0  0
   36.9730   26.7820   40.5860 N   0  0  0  0  0  0  0  0  0  0  0  0
   35.7150   27.4870   37.6120 H   0  0  0  0  0  0  0  0  0  0  0  0
   35.5910   25.0290   37.5380 H   0  0  0  0  0  0  0  0  0  0  0  0
   37.3600   24.5200   41.6720 C   0  0  0  0  0  0  0  0  0  0  0  0
   37.3590   23.2000   41.2500 F   0  0  0  0  0  0  0  0  0  0  0  0
   36.4160   24.5890   42.7250 F   0  0  0  0  0  0  0  0  0  0  0  0
   38.5530   24.9420   42.1910 F   0  0  0  0  0  0  0  0  0  0  0  0
   40.9420   32.6110   40.8730 C   0  0  0  0  0  0  0  0  0  0  0  0
   41.3020   31.5890   40.9650 H   0  0  0  0  0  0  0  0  0  0  0  0
   41.0440   33.1430   41.8430 H   0  0  0  0  0  0  0  0  0  0  0  0
   41.6770   33.4240   39.8410 C   0  0  0  0  0  0  0  0  0  0  0  0
   40.8860   33.8820   39.1880 H   0  0  0  0  0  0  0  0  0  0  0  0
   42.2330   34.2610   40.2860 H   0  0  0  0  0  0  0  0  0  0  0  0
   42.4870   32.6970   39.0050 O   0  0  0  0  0  0  0  0  0  0  0  0
   42.5230   31.5810   36.6060 O   0  0  0  0  0  0  0  0  0  0  0  0
   42.0510   32.7780   37.3780 P   0  0  0  0  0  0  0  0  0  0  0  0
   42.6230   34.1610   36.6220 O   0  0  0  0  0  0  0  0  0  0  0  0
   41.9010   34.7290   36.2640 H   0  0  0  0  0  0  0  0  0  0  0  0
   40.3610   32.8040   37.3260 O   0  0  0  0  0  0  0  0  0  0  0  0
   40.0440   32.2730   36.5710 H   0  0  0  0  0  0  0  0  0  0  0  0
  1  6  1  0  0  0  0
  1 11  1  0  0  0  0
  2  1  2  0  0  0  0
  3  2  1  0  0  0  0
  3  4  2  0  0  0  0
  4  5  1  0  0  0  0
  5  6  2  0  0  0  0
  5 28  1  0  0  0  0
  7  2  1  0  0  0  0
  8  3  1  0  0  0  0
  9 12  1  6  0  0  0
  9 10  1  0  0  0  0
  9 11  1  0  0  0  0
 10 11  1  0  0  0  0
 10 14  1  0  0  0  0
 11 15  1  1  0  0  0
 13 10  1  0  0  0  0
 16  9  1  0  0  0  0
 16 21  1  0  0  0  0
 17 16  2  0  0  0  0
 18 17  1  0  0  0  0
 18 19  2  0  0  0  0
 19 20  1  0  0  0  0
 20 21  2  0  0  0  0
 20 24  1  0  0  0  0
 22 17  1  0  0  0  0
 23 18  1  0  0  0  0
 24 27  1  0  0  0  0
 24 26  1  0  0  0  0
 25 24  1  0  0  0  0
 28 29  1  0  0  0  0
 28 30  1  0  0  0  0
 31 33  1  0  0  0  0
 31 28  1  0  0  0  0
 32 31  1  0  0  0  0
 34 31  1  0  0  0  0
 35 36  2  0  0  0  0
 36 34  1  0  0  0  0
 37 36  1  0  0  0  0
 38 37  1  0  0  0  0
 39 36  1  0  0  0  0
 40 39  1  0  0  0  0
M  END
>  <minimizedAffinity>
-6.03452206

$$$$

 OpenBabel03252505443D

 40 42  0  0  1  0  0  0  0  0999 V2000
   37.6320   30.8790   40.8130 C   0  0  0  0  0  0  0  0  0  0  0  0
   36.8930   31.8250   40.1490 C   0  0  0  0  0  0  0  0  0  0  0  0
   37.4420   33.0100   39.6970 C   0  0  0  0  0  0  0  0  0  0  0  0
   38.7520   33.2270   39.9290 N   0  0  0  0  0  0  0  0  0  0  0  0
   39.4890   32.2940   40.5860 C   0  0  0  0  0  0  0  0  0  0  0  0
   38.9580   31.1340   41.0280 N   0  0  0  0  0  0  0  0  0  0  0  0
   35.8440   31.6220   39.9790 H   0  0  0  0  0  0  0  0  0  0  0  0
   36.8770   33.7690   39.1720 H   0  0  0  0  0  0  0  0  0  0  0  0
   36.9740   28.5320   40.3690 C   0  0  1  0  0  0  0  0  0  0  0  0
   35.6280   29.2470   40.7480 C   0  0  0  0  0  0  0  0  0  0  0  0
   36.9950   29.6060   41.3190 C   0  0  2  0  0  0  0  0  0  0  0  0
   37.2590   28.7180   39.2920 H   0  0  0  0  0  0  0  0  0  0  0  0
   35.2440   29.9770   40.0190 H   0  0  0  0  0  0  0  0  0  0  0  0
   34.9280   28.6780   41.3660 H   0  0  0  0  0  0  0  0  0  0  0  0
   37.0070   29.5560   42.4080 H   0  0  0  0  0  0  0  0  0  0  0  0
   37.0030   27.1000   40.7250 C   0  0  0  0  0  0  0  0  0  0  0  0
   37.5650   26.7500   41.9640 C   0  0  0  0  0  0  0  0  0  0  0  0
   37.5990   25.4020   42.3220 C   0  0  0  0  0  0  0  0  0  0  0  0
   37.0850   24.4980   41.4530 N   0  0  0  0  0  0  0  0  0  0  0  0
   36.5570   24.8670   40.2830 C   0  0  0  0  0  0  0  0  0  0  0  0
   36.5360   26.1610   39.9610 N   0  0  0  0  0  0  0  0  0  0  0  0
   37.9630   27.5000   42.6250 H   0  0  0  0  0  0  0  0  0  0  0  0
   38.0310   25.1250   43.2730 H   0  0  0  0  0  0  0  0  0  0  0  0
   36.0370   23.7240   39.4590 C   0  0  0  0  0  0  0  0  0  0  0  0
   34.9330   23.1310   40.0520 F   0  0  0  0  0  0  0  0  0  0  0  0
   37.0330   22.7180   39.4090 F   0  0  0  0  0  0  0  0  0  0  0  0
   35.8310   24.1310   38.1710 F   0  0  0  0  0  0  0  0  0  0  0  0
   40.9440   32.4770   40.8850 C   0  0  0  0  0  0  0  0  0  0  0  0
   41.3580   31.4760   40.9750 H   0  0  0  0  0  0  0  0  0  0  0  0
   41.0620   33.0300   41.8410 H   0  0  0  0  0  0  0  0  0  0  0  0
   41.5920   33.3070   39.8090 C   0  0  0  0  0  0  0  0  0  0  0  0
   40.7560   33.6630   39.1470 H   0  0  0  0  0  0  0  0  0  0  0  0
   42.0740   34.2100   40.2100 H   0  0  0  0  0  0  0  0  0  0  0  0
   42.4570   32.6220   38.9940 O   0  0  0  0  0  0  0  0  0  0  0  0
   42.6590   31.5800   36.5690 O   0  0  0  0  0  0  0  0  0  0  0  0
   42.0900   32.7260   37.3520 P   0  0  0  0  0  0  0  0  0  0  0  0
   42.6180   34.1600   36.6590 O   0  0  0  0  0  0  0  0  0  0  0  0
   41.8830   34.6980   36.2850 H   0  0  0  0  0  0  0  0  0  0  0  0
   40.4050   32.6640   37.2240 O   0  0  0  0  0  0  0  0  0  0  0  0
   40.1510   32.1390   36.4400 H   0  0  0  0  0  0  0  0  0  0  0  0
  1  6  1  0  0  0  0
  1 11  1  0  0  0  0
  2  1  2  0  0  0  0
  3  4  2  0  0  0  0
  3  2  1  0  0  0  0
  4  5  1  0  0  0  0
  5 28  1  0  0  0  0
  5  6  2  0  0  0  0
  7  2  1  0  0  0  0
  8  3  1  0  0  0  0
  9 12  1  6  0  0  0
  9 16  1  0  0  0  0
  9 10  1  0  0  0  0
  9 11  1  0  0  0  0
 10 11  1  0  0  0  0
 10 14  1  0  0  0  0
 11 15  1  1  0  0  0
 13 10  1  0  0  0  0
 16 17  1  0  0  0  0
 17 18  2  0  0  0  0
 17 22  1  0  0  0  0
 18 23  1  0  0  0  0
 19 18  1  0  0  0  0
 20 19  2  0  0  0  0
 21 20  1  0  0  0  0
 21 16  2  0  0  0  0
 24 25  1  0  0  0  0
 24 20  1  0  0  0  0
 26 24  1  0  0  0  0
 27 24  1  0  0  0  0
 28 29  1  0  0  0  0
 28 30  1  0  0  0  0
 31 33  1  0  0  0  0
 31 28  1  0  0  0  0
 32 31  1  0  0  0  0
 34 31  1  0  0  0  0
 35 36  2  0  0  0  0
 36 34  1  0  0  0  0
 37 36  1  0  0  0  0
 38 37  1  0  0  0  0
 39 36  1  0  0  0  0
 40 39  1  0  0  0  0
M  END
>  <minimizedAffinity>
-5.84663248

$$$$

 OpenBabel03252505443D

 40 42  0  0  1  0  0  0  0  0999 V2000
   36.6960   27.3190   40.0550 C   0  0  0  0  0  0  0  0  0  0  0  0
   36.8560   26.0770   40.6150 C   0  0  0  0  0  0  0  0  0  0  0  0
   37.6050   25.8710   41.7590 C   0  0  0  0  0  0  0  0  0  0  0  0
   38.1920   26.9430   42.3280 N   0  0  0  0  0  0  0  0  0  0  0  0
   38.0380   28.1740   41.7780 C   0  0  0  0  0  0  0  0  0  0  0  0
   37.3070   28.3810   40.6620 N   0  0  0  0  0  0  0  0  0  0  0  0
   36.3730   25.2370   40.1340 H   0  0  0  0  0  0  0  0  0  0  0  0
   37.7440   24.9010   42.2170 H   0  0  0  0  0  0  0  0  0  0  0  0
   36.2970   28.6270   37.9900 C   0  0  1  0  0  0  0  0  0  0  0  0
   34.9260   28.6800   38.7530 C   0  0  0  0  0  0  0  0  0  0  0  0
   35.8950   27.5050   38.7870 C   0  0  2  0  0  0  0  0  0  0  0  0
   37.0330   29.3810   38.3960 H   0  0  0  0  0  0  0  0  0  0  0  0
   34.9100   29.2710   39.6810 H   0  0  0  0  0  0  0  0  0  0  0  0
   34.0210   28.6040   38.1420 H   0  0  0  0  0  0  0  0  0  0  0  0
   35.4210   26.5750   38.4710 H   0  0  0  0  0  0  0  0  0  0  0  0
   36.1590   28.7010   36.5210 C   0  0  0  0  0  0  0  0  0  0  0  0
   35.8650   27.5100   35.8360 C   0  0  0  0  0  0  0  0  0  0  0  0
   35.7270   27.5590   34.4480 C   0  0  0  0  0  0  0  0  0  0  0  0
   35.8830   28.7570   33.8330 N   0  0  0  0  0  0  0  0  0  0  0  0
   36.1620   29.8690   34.5170 C   0  0  0  0  0  0  0  0  0  0  0  0
   36.2900   29.7990   35.8440 N   0  0  0  0  0  0  0  0  0  0  0  0
   35.7490   26.5800   36.3640 H   0  0  0  0  0  0  0  0  0  0  0  0
   35.5010   26.6480   33.9140 H   0  0  0  0  0  0  0  0  0  0  0  0
   36.2950   31.0960   33.6610 C   0  0  0  0  0  0  0  0  0  0  0  0
   37.0550   30.8460   32.5290 F   0  0  0  0  0  0  0  0  0  0  0  0
   37.0070   32.0780   34.3930 F   0  0  0  0  0  0  0  0  0  0  0  0
   35.0600   31.6230   33.4040 F   0  0  0  0  0  0  0  0  0  0  0  0
   38.6720   29.4020   42.3530 C   0  0  0  0  0  0  0  0  0  0  0  0
   39.4970   29.0500   42.9680 H   0  0  0  0  0  0  0  0  0  0  0  0
   37.9320   29.9460   42.9790 H   0  0  0  0  0  0  0  0  0  0  0  0
   39.0910   30.3340   41.2490 C   0  0  0  0  0  0  0  0  0  0  0  0
   40.2110   30.4070   41.3130 H   0  0  0  0  0  0  0  0  0  0  0  0
   38.8650   29.9300   40.2510 H   0  0  0  0  0  0  0  0  0  0  0  0
   38.6190   31.6170   41.3660 O   0  0  0  0  0  0  0  0  0  0  0  0
   37.6260   31.4550   38.9180 O   0  0  0  0  0  0  0  0  0  0  0  0
   37.3730   31.9950   40.2950 P   0  0  0  0  0  0  0  0  0  0  0  0
   37.0970   33.6460   40.1780 O   0  0  0  0  0  0  0  0  0  0  0  0
   36.1860   33.9020   40.4500 H   0  0  0  0  0  0  0  0  0  0  0  0
   35.9720   31.2640   40.8970 O   0  0  0  0  0  0  0  0  0  0  0  0
   35.4380   30.9140   40.1600 H   0  0  0  0  0  0  0  0  0  0  0  0
  1  2  2  0  0  0  0
  1  6  1  0  0  0  0
  2  3  1  0  0  0  0
  3  8  1  0  0  0  0
  3  4  2  0  0  0  0
  5  4  1  0  0  0  0
  5 28  1  0  0  0  0
  6  5  2  0  0  0  0
  7  2  1  0  0  0  0
  9 12  1  1  0  0  0
  9 10  1  0  0  0  0
  9 11  1  0  0  0  0
 10 11  1  0  0  0  0
 10 13  1  0  0  0  0
 11 15  1  6  0  0  0
 11  1  1  0  0  0  0
 14 10  1  0  0  0  0
 16  9  1  0  0  0  0
 17 22  1  0  0  0  0
 17 16  2  0  0  0  0
 18 17  1  0  0  0  0
 19 18  2  0  0  0  0
 19 20  1  0  0  0  0
 20 21  2  0  0  0  0
 21 16  1  0  0  0  0
 23 18  1  0  0  0  0
 24 26  1  0  0  0  0
 24 20  1  0  0  0  0
 25 24  1  0  0  0  0
 27 24  1  0  0  0  0
 28 29  1  0  0  0  0
 28 30  1  0  0  0  0
 31 32  1  0  0  0  0
 31 34  1  0  0  0  0
 31 28  1  0  0  0  0
 33 31  1  0  0  0  0
 35 36  2  0  0  0  0
 36 39  1  0  0  0  0
 36 34  1  0  0  0  0
 37 36  1  0  0  0  0
 37 38  1  0  0  0  0
 40 39  1  0  0  0  0
M  END
>  <minimizedAffinity>
-5.76832533

$$$$

 OpenBabel03252505443D

 40 42  0  0  1  0  0  0  0  0999 V2000
   37.7500   30.4800   40.7500 C   0  0  0  0  0  0  0  0  0  0  0  0
   38.8170   31.2960   41.0300 C   0  0  0  0  0  0  0  0  0  0  0  0
   39.6320   31.0990   42.1290 C   0  0  0  0  0  0  0  0  0  0  0  0
   39.3500   30.0630   42.9440 N   0  0  0  0  0  0  0  0  0  0  0  0
   38.2950   29.2530   42.6730 C   0  0  0  0  0  0  0  0  0  0  0  0
   37.4970   29.4390   41.6010 N   0  0  0  0  0  0  0  0  0  0  0  0
   39.0160   32.1180   40.3560 H   0  0  0  0  0  0  0  0  0  0  0  0
   40.4780   31.7300   42.3670 H   0  0  0  0  0  0  0  0  0  0  0  0
   37.4990   30.5460   38.2870 C   0  0  1  0  0  0  0  0  0  0  0  0
   37.1440   32.0030   38.7520 C   0  0  0  0  0  0  0  0  0  0  0  0
   36.8610   30.7400   39.5560 C   0  0  2  0  0  0  0  0  0  0  0  0
   38.6150   30.3850   38.2280 H   0  0  0  0  0  0  0  0  0  0  0  0
   37.9780   32.6040   39.1440 H   0  0  0  0  0  0  0  0  0  0  0  0
   36.3170   32.4960   38.2310 H   0  0  0  0  0  0  0  0  0  0  0  0
   35.8060   30.6480   39.8130 H   0  0  0  0  0  0  0  0  0  0  0  0
   36.7990   30.1320   37.0540 C   0  0  0  0  0  0  0  0  0  0  0  0
   35.9210   29.0380   37.1430 C   0  0  0  0  0  0  0  0  0  0  0  0
   35.2470   28.6330   35.9910 C   0  0  0  0  0  0  0  0  0  0  0  0
   35.4750   29.3180   34.8430 N   0  0  0  0  0  0  0  0  0  0  0  0
   36.3160   30.3540   34.7960 C   0  0  0  0  0  0  0  0  0  0  0  0
   36.9510   30.7240   35.9100 N   0  0  0  0  0  0  0  0  0  0  0  0
   35.7690   28.5220   38.0740 H   0  0  0  0  0  0  0  0  0  0  0  0
   34.5710   27.7920   36.0500 H   0  0  0  0  0  0  0  0  0  0  0  0
   36.4340   30.9850   33.4390 C   0  0  0  0  0  0  0  0  0  0  0  0
   37.3890   31.9890   33.4250 F   0  0  0  0  0  0  0  0  0  0  0  0
   35.2050   31.6190   33.1320 F   0  0  0  0  0  0  0  0  0  0  0  0
   36.6210   30.0200   32.4890 F   0  0  0  0  0  0  0  0  0  0  0  0
   37.9230   28.0940   43.5440 C   0  0  0  0  0  0  0  0  0  0  0  0
   36.8380   28.1150   43.6200 H   0  0  0  0  0  0  0  0  0  0  0  0
   38.3810   28.2180   44.5480 H   0  0  0  0  0  0  0  0  0  0  0  0
   38.4650   26.8150   42.9630 C   0  0  0  0  0  0  0  0  0  0  0  0
   37.6680   26.0390   43.1240 H   0  0  0  0  0  0  0  0  0  0  0  0
   38.6160   26.8810   41.8750 H   0  0  0  0  0  0  0  0  0  0  0  0
   39.5940   26.3360   43.5770 O   0  0  0  0  0  0  0  0  0  0  0  0
   40.1900   25.0790   41.3250 O   0  0  0  0  0  0  0  0  0  0  0  0
   40.2740   24.9910   42.8210 P   0  0  0  0  0  0  0  0  0  0  0  0
   39.5730   23.5480   43.3110 O   0  0  0  0  0  0  0  0  0  0  0  0
   40.2170   22.9340   43.7350 H   0  0  0  0  0  0  0  0  0  0  0  0
   41.9090   24.9610   43.2540 O   0  0  0  0  0  0  0  0  0  0  0  0
   42.4490   24.6790   42.4910 H   0  0  0  0  0  0  0  0  0  0  0  0
  1  2  2  0  0  0  0
  1  6  1  0  0  0  0
  2  3  1  0  0  0  0
  3  8  1  0  0  0  0
  3  4  2  0  0  0  0
  5  4  1  0  0  0  0
  5 28  1  0  0  0  0
  6  5  2  0  0  0  0
  7  2  1  0  0  0  0
  9 12  1  1  0  0  0
  9 10  1  0  0  0  0
  9 11  1  0  0  0  0
 10 13  1  0  0  0  0
 10 11  1  0  0  0  0
 11 15  1  1  0  0  0
 11  1  1  0  0  0  0
 14 10  1  0  0  0  0
 16 17  1  0  0  0  0
 16  9  1  0  0  0  0
 17 22  1  0  0  0  0
 18 23  1  0  0  0  0
 18 17  2  0  0  0  0
 19 18  1  0  0  0  0
 20 19  2  0  0  0  0
 20 21  1  0  0  0  0
 21 16  2  0  0  0  0
 24 20  1  0  0  0  0
 25 24  1  0  0  0  0
 26 24  1  0  0  0  0
 27 24  1  0  0  0  0
 28 29  1  0  0  0  0
 28 30  1  0  0  0  0
 31 32  1  0  0  0  0
 31 28  1  0  0  0  0
 31 34  1  0  0  0  0
 33 31  1  0  0  0  0
 35 36  2  0  0  0  0
 36 39  1  0  0  0  0
 36 37  1  0  0  0  0
 36 34  1  0  0  0  0
 37 38  1  0  0  0  0
 40 39  1  0  0  0  0
M  END
>  <minimizedAffinity>
-5.74332476

$$$$

 OpenBabel03252505443D

 40 42  0  0  1  0  0  0  0  0999 V2000
   33.8640   28.0300   36.8270 C   0  0  0  0  0  0  0  0  0  0  0  0
   33.3110   26.8030   36.5610 C   0  0  0  0  0  0  0  0  0  0  0  0
   32.1570   26.6580   35.8130 C   0  0  0  0  0  0  0  0  0  0  0  0
   31.5690   27.7740   35.3390 N   0  0  0  0  0  0  0  0  0  0  0  0
   32.1120   28.9910   35.6000 C   0  0  0  0  0  0  0  0  0  0  0  0
   33.2390   29.1390   36.3290 N   0  0  0  0  0  0  0  0  0  0  0  0
   33.8060   25.9270   36.9560 H   0  0  0  0  0  0  0  0  0  0  0  0
   31.7050   25.7000   35.5910 H   0  0  0  0  0  0  0  0  0  0  0  0
   35.1360   29.3100   38.5240 C   0  0  1  0  0  0  0  0  0  0  0  0
   36.0970   29.2500   37.2840 C   0  0  0  0  0  0  0  0  0  0  0  0
   35.1100   28.1560   37.6730 C   0  0  2  0  0  0  0  0  0  0  0  0
   34.3560   30.1190   38.4120 H   0  0  0  0  0  0  0  0  0  0  0  0
   35.7890   29.8340   36.4030 H   0  0  0  0  0  0  0  0  0  0  0  0
   37.1610   29.1040   37.4940 H   0  0  0  0  0  0  0  0  0  0  0  0
   35.6020   27.1930   37.8110 H   0  0  0  0  0  0  0  0  0  0  0  0
   35.8450   29.3790   39.8180 C   0  0  0  0  0  0  0  0  0  0  0  0
   36.3570   30.6270   40.2110 C   0  0  0  0  0  0  0  0  0  0  0  0
   37.0270   30.7150   41.4320 C   0  0  0  0  0  0  0  0  0  0  0  0
   37.1470   29.5880   42.1760 N   0  0  0  0  0  0  0  0  0  0  0  0
   36.6470   28.4180   41.7710 C   0  0  0  0  0  0  0  0  0  0  0  0
   36.0100   28.3570   40.6000 N   0  0  0  0  0  0  0  0  0  0  0  0
   36.2390   31.4970   39.5900 H   0  0  0  0  0  0  0  0  0  0  0  0
   37.4250   31.6700   41.7420 H   0  0  0  0  0  0  0  0  0  0  0  0
   36.8790   27.2880   42.7320 C   0  0  0  0  0  0  0  0  0  0  0  0
   36.8180   26.0580   42.0950 F   0  0  0  0  0  0  0  0  0  0  0  0
   35.8260   27.2830   43.6800 F   0  0  0  0  0  0  0  0  0  0  0  0
   38.0330   27.5000   43.4340 F   0  0  0  0  0  0  0  0  0  0  0  0
   31.5030   30.2690   35.1130 C   0  0  0  0  0  0  0  0  0  0  0  0
   30.8280   29.9890   34.3080 H   0  0  0  0  0  0  0  0  0  0  0  0
   32.3000   30.9410   34.7300 H   0  0  0  0  0  0  0  0  0  0  0  0
   30.8260   30.9850   36.2510 C   0  0  0  0  0  0  0  0  0  0  0  0
   31.5640   30.9880   37.0980 H   0  0  0  0  0  0  0  0  0  0  0  0
   30.6190   32.0400   36.0180 H   0  0  0  0  0  0  0  0  0  0  0  0
   29.6970   30.3690   36.7310 O   0  0  0  0  0  0  0  0  0  0  0  0
   31.0740   29.8950   38.9410 O   0  0  0  0  0  0  0  0  0  0  0  0
   29.6950   30.1360   38.4010 P   0  0  0  0  0  0  0  0  0  0  0  0
   28.7060   28.8680   38.8770 O   0  0  0  0  0  0  0  0  0  0  0  0
   27.9810   29.1530   39.4800 H   0  0  0  0  0  0  0  0  0  0  0  0
   29.1020   31.5610   39.0920 O   0  0  0  0  0  0  0  0  0  0  0  0
   29.5910   31.7590   39.9140 H   0  0  0  0  0  0  0  0  0  0  0  0
  1 11  1  0  0  0  0
  2  1  1  0  0  0  0
  2  7  1  0  0  0  0
  3  2  2  0  0  0  0
  4  5  2  0  0  0  0
  4  3  1  0  0  0  0
  5  6  1  0  0  0  0
  6  1  2  0  0  0  0
  8  3  1  0  0  0  0
  9 12  1  6  0  0  0
  9 16  1  0  0  0  0
 10 14  1  0  0  0  0
 10 11  1  0  0  0  0
 10  9  1  0  0  0  0
 11 15  1  1  0  0  0
 11  9  1  0  0  0  0
 13 10  1  0  0  0  0
 16 17  2  0  0  0  0
 16 21  1  0  0  0  0
 17 18  1  0  0  0  0
 18 23  1  0  0  0  0
 18 19  2  0  0  0  0
 20 19  1  0  0  0  0
 20 24  1  0  0  0  0
 21 20  2  0  0  0  0
 22 17  1  0  0  0  0
 24 27  1  0  0  0  0
 24 26  1  0  0  0  0
 25 24  1  0  0  0  0
 28  5  1  0  0  0  0
 28 31  1  0  0  0  0
 29 28  1  0  0  0  0
 30 28  1  0  0  0  0
 31 34  1  0  0  0  0
 31 32  1  0  0  0  0
 33 31  1  0  0  0  0
 34 36  1  0  0  0  0
 36 37  1  0  0  0  0
 36 35  2  0  0  0  0
 36 39  1  0  0  0  0
 37 38  1  0  0  0  0
 39 40  1  0  0  0  0
M  END
>  <minimizedAffinity>
-5.72805929

$$$$

 OpenBabel03252505443D

 40 42  0  0  1  0  0  0  0  0999 V2000
   36.7640   28.3550   41.0950 C   0  0  0  0  0  0  0  0  0  0  0  0
   36.5850   27.4990   42.1510 C   0  0  0  0  0  0  0  0  0  0  0  0
   37.2900   27.6230   43.3330 C   0  0  0  0  0  0  0  0  0  0  0  0
   38.1840   28.6270   43.4310 N   0  0  0  0  0  0  0  0  0  0  0  0
   38.3670   29.4770   42.3880 C   0  0  0  0  0  0  0  0  0  0  0  0
   37.6800   29.3620   41.2320 N   0  0  0  0  0  0  0  0  0  0  0  0
   35.8600   26.7030   42.0420 H   0  0  0  0  0  0  0  0  0  0  0  0
   37.1640   26.9590   44.1780 H   0  0  0  0  0  0  0  0  0  0  0  0
   36.2750   29.1640   38.8050 C   0  0  1  0  0  0  0  0  0  0  0  0
   34.8800   29.1730   39.5250 C   0  0  0  0  0  0  0  0  0  0  0  0
   35.9970   28.1750   39.8050 C   0  0  2  0  0  0  0  0  0  0  0  0
   36.8850   30.0790   39.0620 H   0  0  0  0  0  0  0  0  0  0  0  0
   34.7470   29.9260   40.3160 H   0  0  0  0  0  0  0  0  0  0  0  0
   34.0190   28.8510   38.9310 H   0  0  0  0  0  0  0  0  0  0  0  0
   35.6660   27.1440   39.6760 H   0  0  0  0  0  0  0  0  0  0  0  0
   36.1880   28.9280   37.3500 C   0  0  0  0  0  0  0  0  0  0  0  0
   35.9760   27.6080   36.9180 C   0  0  0  0  0  0  0  0  0  0  0  0
   35.8860   27.3640   35.5470 C   0  0  0  0  0  0  0  0  0  0  0  0
   36.0080   28.4180   34.7020 N   0  0  0  0  0  0  0  0  0  0  0  0
   36.2080   29.6600   35.1490 C   0  0  0  0  0  0  0  0  0  0  0  0
   36.2910   29.8700   36.4640 N   0  0  0  0  0  0  0  0  0  0  0  0
   35.8840   26.8000   37.6230 H   0  0  0  0  0  0  0  0  0  0  0  0
   35.7240   26.3520   35.2060 H   0  0  0  0  0  0  0  0  0  0  0  0
   36.3140   30.6900   34.0620 C   0  0  0  0  0  0  0  0  0  0  0  0
   36.8770   31.8680   34.5300 F   0  0  0  0  0  0  0  0  0  0  0  0
   35.0070   31.0310   33.6380 F   0  0  0  0  0  0  0  0  0  0  0  0
   36.9500   30.1590   32.9740 F   0  0  0  0  0  0  0  0  0  0  0  0
   39.3510   30.6040   42.4280 C   0  0  0  0  0  0  0  0  0  0  0  0
   40.2620   30.1890   42.8520 H   0  0  0  0  0  0  0  0  0  0  0  0
   38.9610   31.4180   43.0770 H   0  0  0  0  0  0  0  0  0  0  0  0
   39.5310   31.1820   41.0500 C   0  0  0  0  0  0  0  0  0  0  0  0
   40.6370   31.1630   40.8480 H   0  0  0  0  0  0  0  0  0  0  0  0
   39.0650   30.5620   40.2710 H   0  0  0  0  0  0  0  0  0  0  0  0
   39.1430   32.4920   40.9180 O   0  0  0  0  0  0  0  0  0  0  0  0
   37.5010   34.1560   39.6760 O   0  0  0  0  0  0  0  0  0  0  0  0
   37.7520   32.7100   39.9910 P   0  0  0  0  0  0  0  0  0  0  0  0
   36.3800   32.0780   40.7200 O   0  0  0  0  0  0  0  0  0  0  0  0
   35.9510   31.3720   40.1820 H   0  0  0  0  0  0  0  0  0  0  0  0
   38.0040   31.8910   38.5320 O   0  0  0  0  0  0  0  0  0  0  0  0
   37.6250   32.4050   37.7940 H   0  0  0  0  0  0  0  0  0  0  0  0
  1  6  2  0  0  0  0
  1  2  1  0  0  0  0
  2  3  2  0  0  0  0
  3  4  1  0  0  0  0
  3  8  1  0  0  0  0
  5 28  1  0  0  0  0
  5  4  2  0  0  0  0
  6  5  1  0  0  0  0
  7  2  1  0  0  0  0
  9 12  1  1  0  0  0
  9 10  1  0  0  0  0
  9 11  1  0  0  0  0
 10 11  1  0  0  0  0
 10 13  1  0  0  0  0
 11 15  1  6  0  0  0
 11  1  1  0  0  0  0
 14 10  1  0  0  0  0
 16  9  1  0  0  0  0
 17 16  1  0  0  0  0
 17 22  1  0  0  0  0
 18 17  2  0  0  0  0
 19 20  2  0  0  0  0
 19 18  1  0  0  0  0
 20 21  1  0  0  0  0
 21 16  2  0  0  0  0
 23 18  1  0  0  0  0
 24 25  1  0  0  0  0
 24 20  1  0  0  0  0
 26 24  1  0  0  0  0
 27 24  1  0  0  0  0
 28 29  1  0  0  0  0
 28 30  1  0  0  0  0
 31 28  1  0  0  0  0
 32 31  1  0  0  0  0
 33 31  1  0  0  0  0
 34 31  1  0  0  0  0
 35 36  2  0  0  0  0
 36 37  1  0  0  0  0
 36 34  1  0  0  0  0
 38 37  1  0  0  0  0
 39 36  1  0  0  0  0
 40 39  1  0  0  0  0
M  END
>  <minimizedAffinity>
-5.63838387

$$$$

 OpenBabel03252505443D

 40 42  0  0  1  0  0  0  0  0999 V2000
   37.6710   30.4480   40.7710 C   0  0  0  0  0  0  0  0  0  0  0  0
   38.8360   31.1220   41.0330 C   0  0  0  0  0  0  0  0  0  0  0  0
   39.6000   30.8710   42.1580 C   0  0  0  0  0  0  0  0  0  0  0  0
   39.1660   29.9270   43.0160 N   0  0  0  0  0  0  0  0  0  0  0  0
   38.0120   29.2580   42.7620 C   0  0  0  0  0  0  0  0  0  0  0  0
   37.2640   29.4980   41.6650 N   0  0  0  0  0  0  0  0  0  0  0  0
   39.1580   31.8740   40.3250 H   0  0  0  0  0  0  0  0  0  0  0  0
   40.5220   31.3910   42.3840 H   0  0  0  0  0  0  0  0  0  0  0  0
   37.4720   30.4330   38.3020 C   0  0  1  0  0  0  0  0  0  0  0  0
   37.3050   31.9440   38.6950 C   0  0  0  0  0  0  0  0  0  0  0  0
   36.8440   30.7680   39.5470 C   0  0  2  0  0  0  0  0  0  0  0  0
   38.5580   30.1250   38.2750 H   0  0  0  0  0  0  0  0  0  0  0  0
   38.2050   32.4480   39.0800 H   0  0  0  0  0  0  0  0  0  0  0  0
   36.5600   32.5170   38.1340 H   0  0  0  0  0  0  0  0  0  0  0  0
   35.7820   30.8270   39.7840 H   0  0  0  0  0  0  0  0  0  0  0  0
   36.7450   30.0580   37.0730 C   0  0  0  0  0  0  0  0  0  0  0  0
   35.8330   28.9920   37.1590 C   0  0  0  0  0  0  0  0  0  0  0  0
   35.1320   28.6240   36.0100 C   0  0  0  0  0  0  0  0  0  0  0  0
   35.3680   29.3170   34.8690 N   0  0  0  0  0  0  0  0  0  0  0  0
   36.2420   30.3250   34.8240 C   0  0  0  0  0  0  0  0  0  0  0  0
   36.9010   30.6600   35.9350 N   0  0  0  0  0  0  0  0  0  0  0  0
   35.6750   28.4690   38.0850 H   0  0  0  0  0  0  0  0  0  0  0  0
   34.4290   27.8050   36.0670 H   0  0  0  0  0  0  0  0  0  0  0  0
   36.3630   30.9700   33.4740 C   0  0  0  0  0  0  0  0  0  0  0  0
   36.7900   30.0650   32.5140 F   0  0  0  0  0  0  0  0  0  0  0  0
   37.3700   31.9640   33.5400 F   0  0  0  0  0  0  0  0  0  0  0  0
   35.2000   31.6160   33.1580 F   0  0  0  0  0  0  0  0  0  0  0  0
   37.4700   28.2070   43.6800 C   0  0  0  0  0  0  0  0  0  0  0  0
   36.9150   28.7400   44.4480 H   0  0  0  0  0  0  0  0  0  0  0  0
   38.3090   27.6400   44.1360 H   0  0  0  0  0  0  0  0  0  0  0  0
   36.6380   27.2220   42.9030 C   0  0  0  0  0  0  0  0  0  0  0  0
   35.7930   26.9260   43.5830 H   0  0  0  0  0  0  0  0  0  0  0  0
   36.1750   27.6740   42.0140 H   0  0  0  0  0  0  0  0  0  0  0  0
   37.2830   26.0580   42.5700 O   0  0  0  0  0  0  0  0  0  0  0  0
   36.4470   24.4710   40.6230 O   0  0  0  0  0  0  0  0  0  0  0  0
   37.2560   25.6990   40.9230 P   0  0  0  0  0  0  0  0  0  0  0  0
   38.7910   25.4980   40.2770 O   0  0  0  0  0  0  0  0  0  0  0  0
   38.9940   26.1440   39.5610 H   0  0  0  0  0  0  0  0  0  0  0  0
   36.5220   27.0120   40.1490 O   0  0  0  0  0  0  0  0  0  0  0  0
   35.9520   26.6940   39.4240 H   0  0  0  0  0  0  0  0  0  0  0  0
  1  2  2  0  0  0  0
  1  6  1  0  0  0  0
  2  3  1  0  0  0  0
  3  8  1  0  0  0  0
  3  4  2  0  0  0  0
  5  4  1  0  0  0  0
  5 28  1  0  0  0  0
  6  5  2  0  0  0  0
  7  2  1  0  0  0  0
  9 12  1  1  0  0  0
  9 10  1  0  0  0  0
  9 11  1  0  0  0  0
 10 13  1  0  0  0  0
 10 11  1  0  0  0  0
 11 15  1  1  0  0  0
 11  1  1  0  0  0  0
 14 10  1  0  0  0  0
 16 17  1  0  0  0  0
 16  9  1  0  0  0  0
 17 22  1  0  0  0  0
 18 23  1  0  0  0  0
 18 17  2  0  0  0  0
 19 18  1  0  0  0  0
 20 19  2  0  0  0  0
 20 21  1  0  0  0  0
 21 16  2  0  0  0  0
 24 26  1  0  0  0  0
 24 20  1  0  0  0  0
 25 24  1  0  0  0  0
 27 24  1  0  0  0  0
 28 30  1  0  0  0  0
 28 29  1  0  0  0  0
 31 32  1  0  0  0  0
 31 28  1  0  0  0  0
 33 31  1  0  0  0  0
 34 31  1  0  0  0  0
 35 36  2  0  0  0  0
 36 34  1  0  0  0  0
 37 36  1  0  0  0  0
 38 37  1  0  0  0  0
 39 36  1  0  0  0  0
 40 39  1  0  0  0  0
M  END
>  <minimizedAffinity>
-5.35847235

$$$$

 OpenBabel03252505443D

 40 42  0  0  1  0  0  0  0  0999 V2000
   34.9950   28.6660   36.4660 C   0  0  0  0  0  0  0  0  0  0  0  0
   36.1130   29.3380   36.0440 C   0  0  0  0  0  0  0  0  0  0  0  0
   37.3560   29.1420   36.6160 C   0  0  0  0  0  0  0  0  0  0  0  0
   37.4510   28.2550   37.6270 N   0  0  0  0  0  0  0  0  0  0  0  0
   36.3470   27.5870   38.0500 C   0  0  0  0  0  0  0  0  0  0  0  0
   35.1320   27.7740   37.4930 N   0  0  0  0  0  0  0  0  0  0  0  0
   36.0050   30.0440   35.2310 H   0  0  0  0  0  0  0  0  0  0  0  0
   38.2500   29.6610   36.2980 H   0  0  0  0  0  0  0  0  0  0  0  0
   32.6370   29.3680   36.7570 C   0  0  1  0  0  0  0  0  0  0  0  0
   32.5390   27.9240   36.1480 C   0  0  0  0  0  0  0  0  0  0  0  0
   33.6450   28.9260   35.8380 C   0  0  2  0  0  0  0  0  0  0  0  0
   32.8290   29.3420   37.8700 H   0  0  0  0  0  0  0  0  0  0  0  0
   32.8570   27.0980   36.8030 H   0  0  0  0  0  0  0  0  0  0  0  0
   31.7520   27.7570   35.4070 H   0  0  0  0  0  0  0  0  0  0  0  0
   33.7300   29.1220   34.7690 H   0  0  0  0  0  0  0  0  0  0  0  0
   31.5020   30.2400   36.3960 C   0  0  0  0  0  0  0  0  0  0  0  0
   30.5190   30.4640   37.3750 C   0  0  0  0  0  0  0  0  0  0  0  0
   29.4390   31.2880   37.0560 C   0  0  0  0  0  0  0  0  0  0  0  0
   29.3960   31.8310   35.8150 N   0  0  0  0  0  0  0  0  0  0  0  0
   30.3490   31.5960   34.9090 C   0  0  0  0  0  0  0  0  0  0  0  0
   31.3720   30.8050   35.2360 N   0  0  0  0  0  0  0  0  0  0  0  0
   30.5920   30.0130   38.3490 H   0  0  0  0  0  0  0  0  0  0  0  0
   28.6790   31.4640   37.8030 H   0  0  0  0  0  0  0  0  0  0  0  0
   30.1270   32.2880   33.5950 C   0  0  0  0  0  0  0  0  0  0  0  0
   30.1180   31.3880   32.5410 F   0  0  0  0  0  0  0  0  0  0  0  0
   31.2220   33.1530   33.3530 F   0  0  0  0  0  0  0  0  0  0  0  0
   29.0140   33.0800   33.6650 F   0  0  0  0  0  0  0  0  0  0  0  0
   36.3820   26.5980   39.1730 C   0  0  0  0  0  0  0  0  0  0  0  0
   37.0990   25.8360   38.8760 H   0  0  0  0  0  0  0  0  0  0  0  0
   35.3750   26.1470   39.3050 H   0  0  0  0  0  0  0  0  0  0  0  0
   36.7320   27.2920   40.4620 C   0  0  0  0  0  0  0  0  0  0  0  0
   36.6350   26.5140   41.2680 H   0  0  0  0  0  0  0  0  0  0  0  0
   37.7770   27.6320   40.4850 H   0  0  0  0  0  0  0  0  0  0  0  0
   35.8860   28.3130   40.8160 O   0  0  0  0  0  0  0  0  0  0  0  0
   37.3940   29.5670   42.5930 O   0  0  0  0  0  0  0  0  0  0  0  0
   36.6710   29.7280   41.2880 P   0  0  0  0  0  0  0  0  0  0  0  0
   35.6290   31.0370   41.4130 O   0  0  0  0  0  0  0  0  0  0  0  0
   35.8660   31.7750   40.8040 H   0  0  0  0  0  0  0  0  0  0  0  0
   37.8160   30.0740   40.0920 O   0  0  0  0  0  0  0  0  0  0  0  0
   38.6310   30.4200   40.5040 H   0  0  0  0  0  0  0  0  0  0  0  0
  1  6  1  0  0  0  0
  2  1  2  0  0  0  0
  2  3  1  0  0  0  0
  3  4  2  0  0  0  0
  4  5  1  0  0  0  0
  5 28  1  0  0  0  0
  6  5  2  0  0  0  0
  7  2  1  0  0  0  0
  8  3  1  0  0  0  0
  9 12  1  1  0  0  0
 10  9  1  0  0  0  0
 10 13  1  0  0  0  0
 11 15  1  6  0  0  0
 11 10  1  0  0  0  0
 11  1  1  0  0  0  0
 11  9  1  0  0  0  0
 14 10  1  0  0  0  0
 16  9  1  0  0  0  0
 16 17  1  0  0  0  0
 17 22  1  0  0  0  0
 18 17  2  0  0  0  0
 18 23  1  0  0  0  0
 19 18  1  0  0  0  0
 20 21  1  0  0  0  0
 20 19  2  0  0  0  0
 21 16  2  0  0  0  0
 24 27  1  0  0  0  0
 24 20  1  0  0  0  0
 25 24  1  0  0  0  0
 26 24  1  0  0  0  0
 28 30  1  0  0  0  0
 28 31  1  0  0  0  0
 29 28  1  0  0  0  0
 31 33  1  0  0  0  0
 31 34  1  0  0  0  0
 31 32  1  0  0  0  0
 34 36  1  0  0  0  0
 36 37  1  0  0  0  0
 36 35  2  0  0  0  0
 38 37  1  0  0  0  0
 39 40  1  0  0  0  0
 39 36  1  0  0  0  0
M  END
>  <minimizedAffinity>
-5.3417387

$$$$

 OpenBabel03252505443D

 40 42  0  0  1  0  0  0  0  0999 V2000
   39.8360   30.7460   41.9420 C   0  0  0  0  0  0  0  0  0  0  0  0
   41.1440   31.1420   41.8260 C   0  0  0  0  0  0  0  0  0  0  0  0
   41.5110   32.3010   41.1680 C   0  0  0  0  0  0  0  0  0  0  0  0
   40.5330   33.0550   40.6270 N   0  0  0  0  0  0  0  0  0  0  0  0
   39.2370   32.6680   40.7380 C   0  0  0  0  0  0  0  0  0  0  0  0
   38.8720   31.5380   41.3800 N   0  0  0  0  0  0  0  0  0  0  0  0
   41.9050   30.5150   42.2700 H   0  0  0  0  0  0  0  0  0  0  0  0
   42.5360   32.6320   41.0650 H   0  0  0  0  0  0  0  0  0  0  0  0
   38.7580   28.5190   41.8250 C   0  0  1  0  0  0  0  0  0  0  0  0
   37.9990   29.2560   42.9850 C   0  0  0  0  0  0  0  0  0  0  0  0
   39.4700   29.4570   42.6420 C   0  0  2  0  0  0  0  0  0  0  0  0
   38.3710   28.8250   40.8090 H   0  0  0  0  0  0  0  0  0  0  0  0
   37.3530   30.0950   42.6860 H   0  0  0  0  0  0  0  0  0  0  0  0
   37.7370   28.6530   43.8600 H   0  0  0  0  0  0  0  0  0  0  0  0
   40.1190   29.2670   43.4970 H   0  0  0  0  0  0  0  0  0  0  0  0
   38.8150   27.0530   41.9930 C   0  0  0  0  0  0  0  0  0  0  0  0
   39.7770   26.5380   42.8780 C   0  0  0  0  0  0  0  0  0  0  0  0
   39.8450   25.1550   43.0550 C   0  0  0  0  0  0  0  0  0  0  0  0
   38.9750   24.3800   42.3620 N   0  0  0  0  0  0  0  0  0  0  0  0
   38.0730   24.9050   41.5290 C   0  0  0  0  0  0  0  0  0  0  0  0
   38.0260   26.2290   41.3760 N   0  0  0  0  0  0  0  0  0  0  0  0
   40.4490   27.1890   43.4090 H   0  0  0  0  0  0  0  0  0  0  0  0
   40.5830   24.7510   43.7320 H   0  0  0  0  0  0  0  0  0  0  0  0
   37.1980   23.8870   40.8560 C   0  0  0  0  0  0  0  0  0  0  0  0
   35.9290   23.8580   41.4130 F   0  0  0  0  0  0  0  0  0  0  0  0
   37.7470   22.6010   41.0850 F   0  0  0  0  0  0  0  0  0  0  0  0
   37.2110   24.0800   39.5020 F   0  0  0  0  0  0  0  0  0  0  0  0
   38.1060   33.4530   40.1510 C   0  0  0  0  0  0  0  0  0  0  0  0
   38.5590   34.1460   39.4470 H   0  0  0  0  0  0  0  0  0  0  0  0
   37.5810   34.0110   40.9560 H   0  0  0  0  0  0  0  0  0  0  0  0
   37.1010   32.5230   39.5260 C   0  0  0  0  0  0  0  0  0  0  0  0
   37.1780   31.5560   40.0940 H   0  0  0  0  0  0  0  0  0  0  0  0
   36.0670   32.8760   39.6550 H   0  0  0  0  0  0  0  0  0  0  0  0
   37.3420   32.2130   38.2110 O   0  0  0  0  0  0  0  0  0  0  0  0
   36.3250   29.7780   38.4250 O   0  0  0  0  0  0  0  0  0  0  0  0
   37.4960   30.5610   37.9080 P   0  0  0  0  0  0  0  0  0  0  0  0
   38.9000   29.9120   38.5570 O   0  0  0  0  0  0  0  0  0  0  0  0
   39.4940   29.5230   37.8730 H   0  0  0  0  0  0  0  0  0  0  0  0
   37.5520   30.3760   36.2280 O   0  0  0  0  0  0  0  0  0  0  0  0
   37.0580   29.5750   35.9670 H   0  0  0  0  0  0  0  0  0  0  0  0
  1 11  1  0  0  0  0
  2  1  1  0  0  0  0
  2  7  1  0  0  0  0
  3  2  2  0  0  0  0
  4  5  2  0  0  0  0
  4  3  1  0  0  0  0
  5  6  1  0  0  0  0
  6  1  2  0  0  0  0
  8  3  1  0  0  0  0
  9 12  1  6  0  0  0
  9 16  1  0  0  0  0
  9 11  1  0  0  0  0
  9 10  1  0  0  0  0
 10 14  1  0  0  0  0
 11 10  1  0  0  0  0
 11 15  1  1  0  0  0
 13 10  1  0  0  0  0
 16 17  1  0  0  0  0
 17 18  2  0  0  0  0
 17 22  1  0  0  0  0
 18 23  1  0  0  0  0
 19 18  1  0  0  0  0
 20 19  2  0  0  0  0
 21 20  1  0  0  0  0
 21 16  2  0  0  0  0
 24 26  1  0  0  0  0
 24 25  1  0  0  0  0
 24 20  1  0  0  0  0
 27 24  1  0  0  0  0
 28  5  1  0  0  0  0
 28 30  1  0  0  0  0
 29 28  1  0  0  0  0
 31 33  1  0  0  0  0
 31 32  1  0  0  0  0
 31 28  1  0  0  0  0
 34 31  1  0  0  0  0
 36 34  1  0  0  0  0
 36 35  2  0  0  0  0
 36 37  1  0  0  0  0
 38 37  1  0  0  0  0
 39 36  1  0  0  0  0
 40 39  1  0  0  0  0
M  END
>  <minimizedAffinity>
-5.27087688

$$$$
