
 OpenBabel03252502313D

 19 19  0  0  0  0  0  0  0  0999 V2000
   47.8100   34.7730   42.4110 C   0  0  0  0  0  0  0  0  0  0  0  0
   48.0410   33.5400   43.0500 C   0  0  0  0  0  0  0  0  0  0  0  0
   47.0780   33.0970   43.9760 C   0  0  0  0  0  0  0  0  0  0  0  0
   45.9890   33.8840   44.1950 N   0  0  0  0  0  0  0  0  0  0  0  0
   45.8090   35.0500   43.5660 C   0  0  0  0  0  0  0  0  0  0  0  0
   46.7120   35.4920   42.6800 N   0  0  0  0  0  0  0  0  0  0  0  0
   48.9180   32.9330   42.8560 H   0  0  0  0  0  0  0  0  0  0  0  0
   48.8380   35.2290   41.4330 C   0  0  0  0  0  0  0  0  0  0  0  0
   48.4310   35.1340   40.1460 F   0  0  0  0  0  0  0  0  0  0  0  0
   49.2100   36.5380   41.7610 F   0  0  0  0  0  0  0  0  0  0  0  0
   50.0130   34.4780   41.6380 F   0  0  0  0  0  0  0  0  0  0  0  0
   44.6050   35.8930   43.8250 C   0  0  0  0  0  0  0  0  0  0  0  0
   43.5970   35.6080   42.9300 F   0  0  0  0  0  0  0  0  0  0  0  0
   44.9270   37.2460   43.8030 F   0  0  0  0  0  0  0  0  0  0  0  0
   44.1030   35.6680   45.0980 F   0  0  0  0  0  0  0  0  0  0  0  0
   47.2350   31.8240   44.6910 C   0  0  0  0  0  0  0  0  0  0  0  0
   46.0290   31.1390   44.5720 F   0  0  0  0  0  0  0  0  0  0  0  0
   47.4070   32.0210   46.0640 F   0  0  0  0  0  0  0  0  0  0  0  0
   48.2830   31.0890   44.2070 F   0  0  0  0  0  0  0  0  0  0  0  0
  1  6  2  0  0  0  0
  1  2  1  0  0  0  0
  2  3  2  0  0  0  0
  3  4  1  0  0  0  0
  3 16  1  0  0  0  0
  5 12  1  0  0  0  0
  5  4  2  0  0  0  0
  6  5  1  0  0  0  0
  7  2  1  0  0  0  0
  8 11  1  0  0  0  0
  8 10  1  0  0  0  0
  8  1  1  0  0  0  0
  9  8  1  0  0  0  0
 12 15  1  0  0  0  0
 13 12  1  0  0  0  0
 14 12  1  0  0  0  0
 16 18  1  0  0  0  0
 17 16  1  0  0  0  0
 19 16  1  0  0  0  0
M  END
>  <minimizedAffinity>
-5.36269045

>  <minimizedRMSD>
0.590679407

$$$$
