
 OpenBabel03252505013D

 27 28  0  0  1  0  0  0  0  0999 V2000
   46.7940   32.5910   45.6740 C   0  0  2  0  0  0  0  0  0  0  0  0
   47.2520   31.7160   44.5680 C   0  0  0  0  0  0  0  0  0  0  0  0
   46.4290   30.4830   44.3830 C   0  0  0  0  0  0  0  0  0  0  0  0
   46.5410   29.7470   45.7070 C   0  0  0  0  0  0  0  0  0  0  0  0
   45.8480   30.4950   46.7880 C   0  0  0  0  0  0  0  0  0  0  0  0
   45.9910   31.9930   46.7400 C   0  0  0  0  0  0  0  0  0  0  0  0
   47.7220   33.0360   46.1550 H   0  0  0  0  0  0  0  0  0  0  0  0
   47.3550   32.2800   43.6180 H   0  0  0  0  0  0  0  0  0  0  0  0
   48.2860   31.3540   44.7900 H   0  0  0  0  0  0  0  0  0  0  0  0
   46.9200   29.8570   43.6160 H   0  0  0  0  0  0  0  0  0  0  0  0
   45.3570   30.6600   44.1880 H   0  0  0  0  0  0  0  0  0  0  0  0
   45.9520   28.8220   45.5740 H   0  0  0  0  0  0  0  0  0  0  0  0
   47.5850   29.5060   45.9120 H   0  0  0  0  0  0  0  0  0  0  0  0
   45.2750   30.0180   47.5450 H   0  0  0  0  0  0  0  0  0  0  0  0
   44.5690   35.5090   45.2290 C   0  0  0  0  0  0  0  0  0  0  0  0
   44.8350   35.9100   43.9020 C   0  0  0  0  0  0  0  0  0  0  0  0
   45.7820   35.1540   43.1840 C   0  0  0  0  0  0  0  0  0  0  0  0
   46.3860   34.0970   43.7870 N   0  0  0  0  0  0  0  0  0  0  0  0
   46.1060   33.7440   45.0560 C   0  0  0  0  0  0  0  0  0  0  0  0
   45.2060   34.4520   45.7550 N   0  0  0  0  0  0  0  0  0  0  0  0
   43.8380   36.1170   45.7360 H   0  0  0  0  0  0  0  0  0  0  0  0
   44.3580   36.7510   43.4160 H   0  0  0  0  0  0  0  0  0  0  0  0
   46.0440   35.3850   42.1790 H   0  0  0  0  0  0  0  0  0  0  0  0
   45.2200   32.5750   47.8640 C   0  0  0  0  0  0  0  0  0  0  0  0
   46.0810   32.8360   48.9420 F   0  0  0  0  0  0  0  0  0  0  0  0
   44.4800   33.6730   47.5780 F   0  0  0  0  0  0  0  0  0  0  0  0
   44.3200   31.6540   48.4090 F   0  0  0  0  0  0  0  0  0  0  0  0
  1  7  1  1  0  0  0
  1  6  1  0  0  0  0
  2  9  1  0  0  0  0
  2  1  1  0  0  0  0
  3  2  1  0  0  0  0
  3  4  1  0  0  0  0
  4 13  1  0  0  0  0
  4  5  1  0  0  0  0
  5 14  1  0  0  0  0
  6  5  2  0  0  0  0
  6 24  1  0  0  0  0
  8  2  1  0  0  0  0
 10  3  1  0  0  0  0
 11  3  1  0  0  0  0
 12  4  1  0  0  0  0
 15 21  1  0  0  0  0
 15 20  1  0  0  0  0
 16 15  2  0  0  0  0
 17 18  2  0  0  0  0
 17 16  1  0  0  0  0
 18 19  1  0  0  0  0
 19  1  1  0  0  0  0
 19 20  2  0  0  0  0
 22 16  1  0  0  0  0
 23 17  1  0  0  0  0
 24 27  1  0  0  0  0
 24 25  1  0  0  0  0
 26 24  1  0  0  0  0
M  END
>  <minimizedAffinity>
-5.06842947

>  <minimizedRMSD>
1.43442798

$$$$
