
 OpenBabel03252509183D

 36 38  0  0  1  0  0  0  0  0999 V2000
   48.5310   29.0750   46.4680 C   0  0  1  0  0  0  0  0  0  0  0  0
   49.5990   29.5500   47.3930 C   0  0  0  0  0  0  0  0  0  0  0  0
   49.5960   28.9050   48.7440 C   0  0  0  0  0  0  0  0  0  0  0  0
   49.3710   27.4130   48.6780 C   0  0  0  0  0  0  0  0  0  0  0  0
   48.2520   27.0340   47.7460 C   0  0  0  0  0  0  0  0  0  0  0  0
   47.4940   28.2940   47.3020 C   0  0  2  0  0  0  0  0  0  0  0  0
   48.9590   28.3070   45.7950 H   0  0  0  0  0  0  0  0  0  0  0  0
   49.4170   30.6520   47.5590 H   0  0  0  0  0  0  0  0  0  0  0  0
   50.6070   29.5180   46.9100 H   0  0  0  0  0  0  0  0  0  0  0  0
   48.8730   29.3790   49.4340 H   0  0  0  0  0  0  0  0  0  0  0  0
   50.6130   29.0410   49.1890 H   0  0  0  0  0  0  0  0  0  0  0  0
   50.3040   26.8990   48.3270 H   0  0  0  0  0  0  0  0  0  0  0  0
   49.2060   27.0610   49.7150 H   0  0  0  0  0  0  0  0  0  0  0  0
   47.5480   26.3630   48.2870 H   0  0  0  0  0  0  0  0  0  0  0  0
   48.6070   26.5270   46.8470 H   0  0  0  0  0  0  0  0  0  0  0  0
   47.1220   28.8670   48.1510 H   0  0  0  0  0  0  0  0  0  0  0  0
   46.7140   32.4020   44.9210 C   0  0  0  0  0  0  0  0  0  0  0  0
   47.2040   31.5490   43.9170 C   0  0  0  0  0  0  0  0  0  0  0  0
   47.8190   30.4100   44.3060 C   0  0  0  0  0  0  0  0  0  0  0  0
   47.9540   30.1120   45.6760 C   0  0  0  0  0  0  0  0  0  0  0  0
   47.1520   31.5410   46.4690 S   0  0  0  0  0  0  0  0  0  0  0  0
   47.1040   31.7730   42.8660 H   0  0  0  0  0  0  0  0  0  0  0  0
   48.2570   29.6350   43.6960 H   0  0  0  0  0  0  0  0  0  0  0  0
   45.3530   35.5300   43.4340 C   0  0  0  0  0  0  0  0  0  0  0  0
   44.5950   36.0070   44.5330 C   0  0  0  0  0  0  0  0  0  0  0  0
   44.5830   35.2410   45.7280 C   0  0  0  0  0  0  0  0  0  0  0  0
   45.3150   34.0890   45.7240 N   0  0  0  0  0  0  0  0  0  0  0  0
   46.0220   33.6690   44.6590 C   0  0  0  0  0  0  0  0  0  0  0  0
   46.0330   34.3950   43.5270 N   0  0  0  0  0  0  0  0  0  0  0  0
   45.3820   36.0920   42.5080 H   0  0  0  0  0  0  0  0  0  0  0  0
   44.0420   36.9210   44.4730 H   0  0  0  0  0  0  0  0  0  0  0  0
   44.0210   35.5600   46.5960 H   0  0  0  0  0  0  0  0  0  0  0  0
   46.3750   27.8030   46.3960 C   0  0  0  0  0  0  0  0  0  0  0  0
   46.8530   27.4870   45.1390 F   0  0  0  0  0  0  0  0  0  0  0  0
   45.7490   26.7270   46.9830 F   0  0  0  0  0  0  0  0  0  0  0  0
   45.4710   28.8230   46.2750 F   0  0  0  0  0  0  0  0  0  0  0  0
  1  7  1  6  0  0  0
  1  6  1  0  0  0  0
  1  2  1  0  0  0  0
  2  8  1  0  0  0  0
  2  3  1  0  0  0  0
  3 11  1  0  0  0  0
  3 10  1  0  0  0  0
  4  3  1  0  0  0  0
  4 13  1  0  0  0  0
  5 14  1  0  0  0  0
  5  4  1  0  0  0  0
  6  5  1  0  0  0  0
  6 16  1  1  0  0  0
  9  2  1  0  0  0  0
 12  4  1  0  0  0  0
 15  5  1  0  0  0  0
 17 21  1  0  0  0  0
 18 19  1  0  0  0  0
 18 17  2  0  0  0  0
 19 20  2  0  0  0  0
 20  1  1  0  0  0  0
 20 21  1  0  0  0  0
 22 18  1  0  0  0  0
 23 19  1  0  0  0  0
 24 29  2  0  0  0  0
 24 25  1  0  0  0  0
 25 26  2  0  0  0  0
 26 32  1  0  0  0  0
 27 26  1  0  0  0  0
 28 17  1  0  0  0  0
 28 27  2  0  0  0  0
 29 28  1  0  0  0  0
 30 24  1  0  0  0  0
 31 25  1  0  0  0  0
 33 35  1  0  0  0  0
 33  6  1  0  0  0  0
 34 33  1  0  0  0  0
 36 33  1  0  0  0  0
M  END
>  <minimizedAffinity>
-4.09318256

>  <minimizedRMSD>
4.0572319

$$$$
