
     RDKit          3D

 43 45  0  0  0  0  0  0  0  0999 V2000
   45.6894   33.6875   40.6612 C   0  0  0  0  0  0  0  0  0  0  0  0
   46.1740   33.3399   39.4194 C   0  0  0  0  0  0  0  0  0  0  0  0
   47.4113   33.6966   38.9391 C   0  0  0  0  0  0  0  0  0  0  0  0
   48.1991   34.4655   39.8063 C   0  0  0  0  0  0  0  0  0  0  0  0
   47.7649   34.8353   41.0471 C   0  0  0  0  0  0  0  0  0  0  0  0
   46.5283   34.4577   41.4811 C   0  0  0  0  0  0  0  0  0  0  0  0
   46.1776   34.8826   42.7815 N   0  0  0  0  0  0  0  0  0  0  0  0
   45.3198   35.9973   43.0662 C   0  0  0  0  0  0  0  0  0  0  0  0
   44.7574   35.9099   44.4682 C   0  0  0  0  0  0  0  0  0  0  0  0
   44.4182   34.5914   44.8753 N   0  0  0  0  0  0  0  0  0  0  0  0
   45.4594   33.6448   44.7672 C   0  0  0  0  0  0  0  0  0  0  0  0
   46.6345   34.2526   44.0300 C   0  0  0  0  0  0  0  0  0  0  0  0
   44.3692   33.3092   41.1632 C   0  0  0  0  0  0  0  0  0  0  0  0
   43.3970   33.0285   40.0356 C   0  0  0  0  0  0  0  0  0  0  0  0
   40.7925   35.6942   39.4316 C   0  0  0  0  0  0  0  0  0  0  0  0
   41.9414   34.8836   39.2616 C   0  0  0  0  0  0  0  0  0  0  0  0
   42.2032   33.8910   40.1971 C   0  0  0  0  0  0  0  0  0  0  0  0
   41.3257   33.7552   41.2380 N   0  0  0  0  0  0  0  0  0  0  0  0
   40.2506   34.5276   41.3808 C   0  0  0  0  0  0  0  0  0  0  0  0
   39.9795   35.4967   40.4826 N   0  0  0  0  0  0  0  0  0  0  0  0
   45.6353   32.7427   38.7006 H   0  0  0  0  0  0  0  0  0  0  0  0
   47.8177   33.4452   37.9834 H   0  0  0  0  0  0  0  0  0  0  0  0
   49.1980   34.7808   39.4775 H   0  0  0  0  0  0  0  0  0  0  0  0
   48.4418   35.4342   41.6591 H   0  0  0  0  0  0  0  0  0  0  0  0
   44.5892   36.2677   42.3067 H   0  0  0  0  0  0  0  0  0  0  0  0
   46.0148   36.8906   43.0957 H   0  0  0  0  0  0  0  0  0  0  0  0
   43.8463   36.5322   44.4961 H   0  0  0  0  0  0  0  0  0  0  0  0
   45.4922   36.3001   45.2085 H   0  0  0  0  0  0  0  0  0  0  0  0
   43.7923   34.5689   45.6680 H   0  0  0  0  0  0  0  0  0  0  0  0
   45.8213   33.3593   45.7785 H   0  0  0  0  0  0  0  0  0  0  0  0
   45.1525   32.7102   44.2685 H   0  0  0  0  0  0  0  0  0  0  0  0
   47.1369   35.0210   44.6637 H   0  0  0  0  0  0  0  0  0  0  0  0
   47.3172   33.4161   43.7518 H   0  0  0  0  0  0  0  0  0  0  0  0
   43.9259   34.0021   41.8748 H   0  0  0  0  0  0  0  0  0  0  0  0
   44.5265   32.3522   41.7419 H   0  0  0  0  0  0  0  0  0  0  0  0
   42.9952   31.9749   40.1261 H   0  0  0  0  0  0  0  0  0  0  0  0
   43.7781   33.1777   39.0383 H   0  0  0  0  0  0  0  0  0  0  0  0
   40.6029   36.4720   38.6827 H   0  0  0  0  0  0  0  0  0  0  0  0
   42.5973   35.0332   38.4257 H   0  0  0  0  0  0  0  0  0  0  0  0
   39.3787   34.2650   42.5694 C   0  0  0  0  0  0  0  0  0  0  0  0
   38.4454   33.2561   42.3139 F   0  0  0  0  0  0  0  0  0  0  0  0
   38.6356   35.3838   42.9103 F   0  0  0  0  0  0  0  0  0  0  0  0
   40.0990   33.8397   43.6699 F   0  0  0  0  0  0  0  0  0  0  0  0
  1 13  1  0
  1  6  1  0
  2  1  2  0
  3  2  1  0
  3  4  2  0
  4  5  1  0
  5  6  2  0
  6  7  1  0
  7  8  1  0
  7 12  1  0
  8  9  1  0
  9 10  1  0
 11 10  1  0
 12 11  1  0
 14 17  1  0
 14 13  1  0
 15 20  2  0
 16 15  1  0
 16 17  2  0
 17 18  1  0
 18 19  2  0
 20 19  1  0
  2 21  1  0
  3 22  1  0
  4 23  1  0
  5 24  1  0
  8 25  1  0
  8 26  1  0
  9 27  1  0
  9 28  1  0
 10 29  1  0
 11 30  1  0
 11 31  1  0
 12 32  1  0
 12 33  1  0
 13 34  1  0
 13 35  1  0
 14 36  1  0
 14 37  1  0
 15 38  1  0
 16 39  1  0
 40 41  1  0
 40 42  1  0
 40 43  1  0
 19 40  1  0
M  ISO  8  21  14  22  14  23  14  24  14  25  13  26  13  27  13  28  13
M  ISO  8  29   5  30  13  31  13  32  13  33  13  34   8  35   8  36   8
M  ISO  3  37   8  38  14  39  14
M  END
>  <DihAtoms>  (1) 
17,18,39,40

>  <DihDeg>  (1) 
34.65288296535441

$$$$
