
 OpenBabel03252508383D

 36 38  0  0  0  0  0  0  0  0999 V2000
   45.1420   33.9480   40.7000 C   0  0  0  0  0  0  0  0  0  0  0  0
   44.0940   33.6380   39.8780 C   0  0  0  0  0  0  0  0  0  0  0  0
   44.4000   33.1430   38.6440 C   0  0  0  0  0  0  0  0  0  0  0  0
   45.6730   32.9430   38.1850 C   0  0  0  0  0  0  0  0  0  0  0  0
   46.7090   33.2630   39.0320 C   0  0  0  0  0  0  0  0  0  0  0  0
   46.4680   33.7690   40.2990 C   0  0  0  0  0  0  0  0  0  0  0  0
   43.5790   32.8930   37.9810 H   0  0  0  0  0  0  0  0  0  0  0  0
   45.8720   32.5500   37.2030 H   0  0  0  0  0  0  0  0  0  0  0  0
   47.7240   33.1120   38.6880 H   0  0  0  0  0  0  0  0  0  0  0  0
   40.8110   35.2550   40.7990 C   0  0  0  0  0  0  0  0  0  0  0  0
   42.1120   35.0960   40.2710 C   0  0  0  0  0  0  0  0  0  0  0  0
   42.7600   33.8620   40.3970 C   0  0  0  0  0  0  0  0  0  0  0  0
   42.0530   32.8880   41.0390 N   0  0  0  0  0  0  0  0  0  0  0  0
   40.8270   33.0650   41.5280 C   0  0  0  0  0  0  0  0  0  0  0  0
   40.2090   34.2370   41.4100 N   0  0  0  0  0  0  0  0  0  0  0  0
   40.2170   36.5360   40.6330 N   0  0  0  0  0  0  0  0  0  0  0  0
   42.6520   35.8800   39.7670 H   0  0  0  0  0  0  0  0  0  0  0  0
   40.3580   32.2190   42.0200 H   0  0  0  0  0  0  0  0  0  0  0  0
   40.8310   37.3720   40.7880 H   0  0  0  0  0  0  0  0  0  0  0  0
   39.2020   36.5010   40.3680 H   0  0  0  0  0  0  0  0  0  0  0  0
   47.6220   34.0780   41.1150 C   0  0  0  0  0  0  0  0  0  0  0  0
   48.1250   35.3600   40.9620 C   0  0  0  0  0  0  0  0  0  0  0  0
   49.2280   35.8510   41.6590 C   0  0  0  0  0  0  0  0  0  0  0  0
   49.8410   34.9950   42.5480 C   0  0  0  0  0  0  0  0  0  0  0  0
   49.3550   33.7160   42.7140 C   0  0  0  0  0  0  0  0  0  0  0  0
   48.2480   33.2470   42.0050 C   0  0  0  0  0  0  0  0  0  0  0  0
   47.6780   36.0850   40.2680 H   0  0  0  0  0  0  0  0  0  0  0  0
   49.5830   36.8580   41.5060 H   0  0  0  0  0  0  0  0  0  0  0  0
   50.6960   35.2890   43.1270 H   0  0  0  0  0  0  0  0  0  0  0  0
   49.8000   32.9960   43.4050 H   0  0  0  0  0  0  0  0  0  0  0  0
   47.7310   31.8660   42.1700 C   0  0  0  0  0  0  0  0  0  0  0  0
   47.9020   31.1700   40.9950 F   0  0  0  0  0  0  0  0  0  0  0  0
   46.4680   31.8140   42.6870 F   0  0  0  0  0  0  0  0  0  0  0  0
   48.5690   31.2350   43.0970 F   0  0  0  0  0  0  0  0  0  0  0  0
   44.7430   34.8960   43.1070 N   0  0  0  0  0  0  0  0  0  0  0  0
   44.9190   34.4820   42.0270 C   0  0  0  0  0  0  0  0  0  0  0  0
  1 36  1  0  0  0  0
  2 12  1  0  0  0  0
  2  1  2  0  0  0  0
  3  2  1  0  0  0  0
  4  3  2  0  0  0  0
  4  5  1  0  0  0  0
  5  6  2  0  0  0  0
  6  1  1  0  0  0  0
  6 21  1  0  0  0  0
  7  3  1  0  0  0  0
  8  4  1  0  0  0  0
  9  5  1  0  0  0  0
 10 15  1  0  0  0  0
 11 12  1  0  0  0  0
 11 10  2  0  0  0  0
 12 13  2  0  0  0  0
 13 14  1  0  0  0  0
 14 18  1  0  0  0  0
 15 14  2  0  0  0  0
 16 19  1  0  0  0  0
 16 10  1  0  0  0  0
 17 11  1  0  0  0  0
 20 16  1  0  0  0  0
 21 26  1  0  0  0  0
 22 21  2  0  0  0  0
 22 23  1  0  0  0  0
 23 24  2  0  0  0  0
 24 25  1  0  0  0  0
 24 29  1  0  0  0  0
 25 30  1  0  0  0  0
 26 31  1  0  0  0  0
 26 25  2  0  0  0  0
 27 22  1  0  0  0  0
 28 23  1  0  0  0  0
 31 33  1  0  0  0  0
 31 34  1  0  0  0  0
 32 31  1  0  0  0  0
 36 35  3  0  0  0  0
M  END
>  <minimizedAffinity>
-5.98202085

>  <minimizedRMSD>
0.311287791

$$$$
