
     RDKit          3D

 36 38  0  0  0  0  0  0  0  0999 V2000
   45.8061   33.2258   46.3558 C   0  0  0  0  0  0  0  0  0  0  0  0
   45.1994   33.1400   47.6199 C   0  0  0  0  0  0  0  0  0  0  0  0
   45.7724   32.3290   48.5375 C   0  0  0  0  0  0  0  0  0  0  0  0
   46.9359   31.6049   48.2133 C   0  0  0  0  0  0  0  0  0  0  0  0
   47.2419   32.1076   46.4900 S   0  0  0  0  0  0  0  0  0  0  0  0
   44.3120   35.9112   44.2574 C   0  0  0  0  0  0  0  0  0  0  0  0
   44.4962   35.3400   42.9720 C   0  0  0  0  0  0  0  0  0  0  0  0
   45.1196   34.0686   42.8815 C   0  0  0  0  0  0  0  0  0  0  0  0
   45.4985   33.4868   44.0567 N   0  0  0  0  0  0  0  0  0  0  0  0
   45.3059   34.0621   45.2589 C   0  0  0  0  0  0  0  0  0  0  0  0
   44.7150   35.2674   45.3443 N   0  0  0  0  0  0  0  0  0  0  0  0
   47.7967   30.6677   48.8566 C   0  0  1  0  0  0  0  0  0  0  0  0
   48.1669   29.5057   47.9991 C   0  0  0  0  0  0  0  0  0  0  0  0
   49.5858   29.0486   48.1330 C   0  0  0  0  0  0  0  0  0  0  0  0
   50.0527   29.0071   49.5686 C   0  0  0  0  0  0  0  0  0  0  0  0
   49.6633   30.2371   50.3442 C   0  0  0  0  0  0  0  0  0  0  0  0
   49.1007   31.3004   49.3873 C   0  0  2  0  0  0  0  0  0  0  0  0
   44.3074   33.6910   47.8752 H   0  0  0  0  0  0  0  0  0  0  0  0
   45.4631   32.1299   49.5520 H   0  0  0  0  0  0  0  0  0  0  0  0
   43.8391   36.8810   44.3594 H   0  0  0  0  0  0  0  0  0  0  0  0
   44.1763   35.8477   42.0860 H   0  0  0  0  0  0  0  0  0  0  0  0
   45.2837   33.5891   41.9258 H   0  0  0  0  0  0  0  0  0  0  0  0
   47.2982   30.2905   49.7699 H   0  0  0  0  0  0  0  0  0  0  0  0
   48.0335   29.8378   46.9285 H   0  0  0  0  0  0  0  0  0  0  0  0
   47.4391   28.6642   48.1075 H   0  0  0  0  0  0  0  0  0  0  0  0
   50.2799   29.6495   47.5137 H   0  0  0  0  0  0  0  0  0  0  0  0
   49.6423   27.9955   47.7627 H   0  0  0  0  0  0  0  0  0  0  0  0
   49.6147   28.1158   50.0887 H   0  0  0  0  0  0  0  0  0  0  0  0
   51.1473   28.8380   49.5533 H   0  0  0  0  0  0  0  0  0  0  0  0
   50.5678   30.6471   50.8443 H   0  0  0  0  0  0  0  0  0  0  0  0
   48.9004   30.0344   51.0976 H   0  0  0  0  0  0  0  0  0  0  0  0
   49.8030   31.5429   48.5904 H   0  0  0  0  0  0  0  0  0  0  0  0
   48.7690   32.5020   50.2566 C   0  0  0  0  0  0  0  0  0  0  0  0
   49.8603   32.8894   51.0106 F   0  0  0  0  0  0  0  0  0  0  0  0
   48.3148   33.5300   49.4626 F   0  0  0  0  0  0  0  0  0  0  0  0
   47.7627   32.1271   51.1054 F   0  0  0  0  0  0  0  0  0  0  0  0
  1  5  1  0
  1  2  2  0
  2  3  1  0
  4  3  2  0
  4 12  1  0
  5  4  1  0
  6 11  2  0
  7  6  1  0
  8  7  2  0
  8  9  1  0
  9 10  2  0
 10 11  1  0
 10  1  1  0
 12 17  1  0
 13 14  1  0
 13 12  1  0
 14 15  1  0
 15 16  1  0
 17 16  1  0
  2 18  1  0
  3 19  1  0
  6 20  1  0
  7 21  1  0
  8 22  1  0
 12 23  1  1
 13 24  1  0
 13 25  1  0
 14 26  1  0
 14 27  1  0
 15 28  1  0
 15 29  1  0
 16 30  1  0
 16 31  1  0
 17 32  1  6
 33 34  1  0
 33 35  1  0
 33 36  1  0
 17 33  1  0
M  ISO  8  18  14  19  14  20  14  21  14  22  14  23  13  24  13  25  13
M  ISO  7  26  13  27  13  28  13  29  13  30  13  31  13  32  13
M  END
>  <DihAtoms>  (1) 
11,16,32,33

>  <DihDeg>  (1) 
-59.99959946887849

$$$$
