
 OpenBabel03242523193D

 32 34  0  0  0  0  0  0  0  0999 V2000
   47.3810   32.8100   44.0170 C   0  0  0  0  0  0  0  0  0  0  0  0
   48.2380   33.3100   43.1140 C   0  0  0  0  0  0  0  0  0  0  0  0
   49.0770   32.3820   42.5390 C   0  0  0  0  0  0  0  0  0  0  0  0
   48.9690   31.0370   42.9360 N   0  0  0  0  0  0  0  0  0  0  0  0
   48.1040   30.6210   43.8320 C   0  0  0  0  0  0  0  0  0  0  0  0
   47.2490   31.5190   44.4260 N   0  0  0  0  0  0  0  0  0  0  0  0
   49.8300   32.5760   41.7960 H   0  0  0  0  0  0  0  0  0  0  0  0
   48.1360   29.5550   44.0390 H   0  0  0  0  0  0  0  0  0  0  0  0
   48.4230   34.6850   42.7990 C   0  0  0  0  0  0  0  0  0  0  0  0
   49.4540   35.2690   42.1330 C   0  0  0  0  0  0  0  0  0  0  0  0
   48.2260   35.0990   41.2770 C   0  0  0  0  0  0  0  0  0  0  0  0
   47.9530   35.3720   43.5250 H   0  0  0  0  0  0  0  0  0  0  0  0
   49.7940   36.3290   42.1440 H   0  0  0  0  0  0  0  0  0  0  0  0
   50.3530   34.6410   41.8450 H   0  0  0  0  0  0  0  0  0  0  0  0
   48.2330   34.2390   40.6110 H   0  0  0  0  0  0  0  0  0  0  0  0
   47.5290   35.9370   41.1340 H   0  0  0  0  0  0  0  0  0  0  0  0
   46.3140   33.5440   44.7100 C   0  0  0  0  0  0  0  0  0  0  0  0
   45.7410   33.9280   45.6960 O   0  0  0  0  0  0  0  0  0  0  0  0
   44.5430   31.7610   42.9230 Cl  0  0  0  0  0  0  0  0  0  0  0  0
   44.5690   33.5130   42.7800 C   0  0  0  0  0  0  0  0  0  0  0  0
   45.4290   34.1780   43.6820 C   0  0  0  0  0  0  0  0  0  0  0  0
   45.3790   35.5500   43.4960 C   0  0  0  0  0  0  0  0  0  0  0  0
   44.6650   36.2710   42.6210 C   0  0  0  0  0  0  0  0  0  0  0  0
   43.8570   35.5540   41.7810 C   0  0  0  0  0  0  0  0  0  0  0  0
   43.8010   34.2080   41.8480 C   0  0  0  0  0  0  0  0  0  0  0  0
   45.9720   36.2260   44.1500 H   0  0  0  0  0  0  0  0  0  0  0  0
   44.6570   37.3380   42.5090 H   0  0  0  0  0  0  0  0  0  0  0  0
   43.2150   35.9670   41.0180 H   0  0  0  0  0  0  0  0  0  0  0  0
   42.9530   33.3020   40.9840 C   0  0  0  0  0  0  0  0  0  0  0  0
   43.7670   32.5290   40.2130 F   0  0  0  0  0  0  0  0  0  0  0  0
   42.2230   34.1090   40.1010 F   0  0  0  0  0  0  0  0  0  0  0  0
   42.0410   32.6020   41.7250 F   0  0  0  0  0  0  0  0  0  0  0  0
  1  6  1  0  0  0  0
  1 17  1  0  0  0  0
  2  1  2  0  0  0  0
  3  4  2  0  0  0  0
  3  2  1  0  0  0  0
  4  5  1  0  0  0  0
  5  8  1  0  0  0  0
  5  6  2  0  0  0  0
  7  3  1  0  0  0  0
  9  2  1  0  0  0  0
  9 12  1  0  0  0  0
 10 13  1  0  0  0  0
 10  9  1  0  0  0  0
 11 10  1  0  0  0  0
 11  9  1  0  0  0  0
 14 10  1  0  0  0  0
 15 11  1  0  0  0  0
 16 11  1  0  0  0  0
 17 18  2  0  0  0  0
 20 19  1  0  0  0  0
 20 21  1  0  0  0  0
 21 17  1  0  0  0  0
 22 21  2  0  0  0  0
 22 26  1  0  0  0  0
 23 22  1  0  0  0  0
 24 25  1  0  0  0  0
 24 23  2  0  0  0  0
 25 20  2  0  0  0  0
 27 23  1  0  0  0  0
 28 24  1  0  0  0  0
 29 32  1  0  0  0  0
 29 25  1  0  0  0  0
 30 29  1  0  0  0  0
 31 29  1  0  0  0  0
M  END
>  <minimizedAffinity>
-5.2282114

>  <minimizedRMSD>
0.384607136

$$$$
