
 OpenBabel03252508363D

 26 27  0  0  0  0  0  0  0  0999 V2000
   45.3990   34.3770   41.3650 C   0  0  0  0  0  0  0  0  0  0  0  0
   44.4620   33.8970   40.4750 C   0  0  0  0  0  0  0  0  0  0  0  0
   44.9330   33.3270   39.3170 C   0  0  0  0  0  0  0  0  0  0  0  0
   46.2840   33.2220   39.0250 C   0  0  0  0  0  0  0  0  0  0  0  0
   47.1830   33.7140   39.9410 C   0  0  0  0  0  0  0  0  0  0  0  0
   46.7480   34.2960   41.1200 C   0  0  0  0  0  0  0  0  0  0  0  0
   44.1830   32.9560   38.6320 H   0  0  0  0  0  0  0  0  0  0  0  0
   46.5950   32.7610   38.0950 H   0  0  0  0  0  0  0  0  0  0  0  0
   48.2380   33.6250   39.7000 H   0  0  0  0  0  0  0  0  0  0  0  0
   41.0650   35.3860   41.1300 C   0  0  0  0  0  0  0  0  0  0  0  0
   42.4130   35.2790   40.7830 C   0  0  0  0  0  0  0  0  0  0  0  0
   43.0570   34.0340   40.8320 C   0  0  0  0  0  0  0  0  0  0  0  0
   42.3040   32.9860   41.2250 N   0  0  0  0  0  0  0  0  0  0  0  0
   41.0100   33.1040   41.5550 C   0  0  0  0  0  0  0  0  0  0  0  0
   40.4000   34.2970   41.5060 N   0  0  0  0  0  0  0  0  0  0  0  0
   40.4500   36.6510   41.0700 N   0  0  0  0  0  0  0  0  0  0  0  0
   42.9640   36.1380   40.4790 H   0  0  0  0  0  0  0  0  0  0  0  0
   40.3790   32.2780   41.8750 H   0  0  0  0  0  0  0  0  0  0  0  0
   40.9080   37.4630   40.5970 H   0  0  0  0  0  0  0  0  0  0  0  0
   39.5100   36.8200   41.4980 H   0  0  0  0  0  0  0  0  0  0  0  0
   47.7180   34.8280   42.1120 C   0  0  0  0  0  0  0  0  0  0  0  0
   47.5990   34.2410   43.3540 F   0  0  0  0  0  0  0  0  0  0  0  0
   47.4660   36.1820   42.3150 F   0  0  0  0  0  0  0  0  0  0  0  0
   49.0030   34.6270   41.6110 F   0  0  0  0  0  0  0  0  0  0  0  0
   44.6410   35.4790   43.6180 N   0  0  0  0  0  0  0  0  0  0  0  0
   44.9800   34.9870   42.5980 C   0  0  0  0  0  0  0  0  0  0  0  0
  1 26  1  0  0  0  0
  2 12  1  0  0  0  0
  2  1  2  0  0  0  0
  3  2  1  0  0  0  0
  4  3  2  0  0  0  0
  4  5  1  0  0  0  0
  5  6  2  0  0  0  0
  6  1  1  0  0  0  0
  6 21  1  0  0  0  0
  7  3  1  0  0  0  0
  8  4  1  0  0  0  0
  9  5  1  0  0  0  0
 10 15  1  0  0  0  0
 11 12  1  0  0  0  0
 11 10  2  0  0  0  0
 12 13  2  0  0  0  0
 13 14  1  0  0  0  0
 14 18  1  0  0  0  0
 15 14  2  0  0  0  0
 16 10  1  0  0  0  0
 16 20  1  0  0  0  0
 17 11  1  0  0  0  0
 19 16  1  0  0  0  0
 21 23  1  0  0  0  0
 21 22  1  0  0  0  0
 24 21  1  0  0  0  0
 26 25  3  0  0  0  0
M  END
>  <minimizedAffinity>
-4.84397507

>  <minimizedRMSD>
4.12634563

$$$$
