
 OpenBabel03252508333D

 27 28  0  0  1  0  0  0  0  0999 V2000
   37.6110   29.4970   39.7250 N   0  0  0  0  0  0  0  0  0  0  0  0
   38.1170   30.7840   39.4040 C   0  0  1  0  0  0  0  0  0  0  0  0
   38.3890   31.0290   37.9570 C   0  0  0  0  0  0  0  0  0  0  0  0
   38.6690   29.9450   37.1200 N   0  0  0  0  0  0  0  0  0  0  0  0
   38.1720   28.6870   37.4920 C   0  0  0  0  0  0  0  0  0  0  0  0
   37.1480   28.7790   38.5810 C   0  0  0  0  0  0  0  0  0  0  0  0
   39.0480   30.9830   39.9720 H   0  0  0  0  0  0  0  0  0  0  0  0
   37.4810   31.5540   37.5210 H   0  0  0  0  0  0  0  0  0  0  0  0
   39.2400   31.7550   37.8830 H   0  0  0  0  0  0  0  0  0  0  0  0
   38.4000   30.1540   36.1400 H   0  0  0  0  0  0  0  0  0  0  0  0
   39.0340   28.1180   37.9520 H   0  0  0  0  0  0  0  0  0  0  0  0
   37.8160   28.0410   36.6810 H   0  0  0  0  0  0  0  0  0  0  0  0
   36.6420   27.8180   38.7720 H   0  0  0  0  0  0  0  0  0  0  0  0
   36.3170   29.4160   38.1460 H   0  0  0  0  0  0  0  0  0  0  0  0
   36.6010   28.1390   41.3980 C   0  0  0  0  0  0  0  0  0  0  0  0
   37.5980   29.0830   41.0720 C   0  0  0  0  0  0  0  0  0  0  0  0
   38.4300   29.5400   42.0750 C   0  0  0  0  0  0  0  0  0  0  0  0
   38.2990   29.0990   43.3540 N   0  0  0  0  0  0  0  0  0  0  0  0
   37.3240   28.1820   43.6550 C   0  0  0  0  0  0  0  0  0  0  0  0
   36.4990   27.7160   42.6940 N   0  0  0  0  0  0  0  0  0  0  0  0
   35.8680   27.6660   40.7790 H   0  0  0  0  0  0  0  0  0  0  0  0
   39.1960   30.2330   41.8530 H   0  0  0  0  0  0  0  0  0  0  0  0
   37.2180   27.8280   44.6780 H   0  0  0  0  0  0  0  0  0  0  0  0
   37.1130   31.8920   39.7970 C   0  0  0  0  0  0  0  0  0  0  0  0
   36.8510   32.7770   38.8140 F   0  0  0  0  0  0  0  0  0  0  0  0
   37.6850   32.6420   40.8350 F   0  0  0  0  0  0  0  0  0  0  0  0
   35.9870   31.3190   40.3590 F   0  0  0  0  0  0  0  0  0  0  0  0
  1 16  1  0  0  0  0
  2  1  1  0  0  0  0
  2 24  1  0  0  0  0
  2  7  1  1  0  0  0
  3  2  1  0  0  0  0
  4  5  1  0  0  0  0
  4  3  1  0  0  0  0
  5 11  1  0  0  0  0
  5  6  1  0  0  0  0
  6 13  1  0  0  0  0
  6  1  1  0  0  0  0
  8  3  1  0  0  0  0
  9  3  1  0  0  0  0
 10  4  1  0  0  0  0
 12  5  1  0  0  0  0
 14  6  1  0  0  0  0
 15 20  1  0  0  0  0
 16 15  2  0  0  0  0
 16 17  1  0  0  0  0
 17 18  2  0  0  0  0
 18 19  1  0  0  0  0
 19 23  1  0  0  0  0
 20 19  2  0  0  0  0
 21 15  1  0  0  0  0
 22 17  1  0  0  0  0
 24 27  1  0  0  0  0
 24 26  1  0  0  0  0
 25 24  1  0  0  0  0
M  END
>  <minimizedAffinity>
-4.35493517

$$$$

 OpenBabel03252508333D

 27 28  0  0  1  0  0  0  0  0999 V2000
   38.3010   29.7780   40.9090 N   0  0  0  0  0  0  0  0  0  0  0  0
   37.0030   29.8310   41.4800 C   0  0  1  0  0  0  0  0  0  0  0  0
   36.1420   30.9640   41.0280 C   0  0  0  0  0  0  0  0  0  0  0  0
   36.7440   32.1370   40.5640 N   0  0  0  0  0  0  0  0  0  0  0  0
   38.0380   32.0410   40.0320 C   0  0  0  0  0  0  0  0  0  0  0  0
   38.4410   30.6230   39.7660 C   0  0  0  0  0  0  0  0  0  0  0  0
   37.0720   29.8660   42.5860 H   0  0  0  0  0  0  0  0  0  0  0  0
   35.4820   30.5790   40.1880 H   0  0  0  0  0  0  0  0  0  0  0  0
   35.4550   31.2350   41.8720 H   0  0  0  0  0  0  0  0  0  0  0  0
   36.1240   32.6320   39.8950 H   0  0  0  0  0  0  0  0  0  0  0  0
   38.7480   32.3980   40.8360 H   0  0  0  0  0  0  0  0  0  0  0  0
   38.2610   32.6750   39.1660 H   0  0  0  0  0  0  0  0  0  0  0  0
   39.3890   30.5480   39.2080 H   0  0  0  0  0  0  0  0  0  0  0  0
   37.6800   30.2410   39.0170 H   0  0  0  0  0  0  0  0  0  0  0  0
   40.0500   28.2040   40.5560 C   0  0  0  0  0  0  0  0  0  0  0  0
   39.2670   28.9280   41.4810 C   0  0  0  0  0  0  0  0  0  0  0  0
   39.4790   28.7230   42.8300 C   0  0  0  0  0  0  0  0  0  0  0  0
   40.4160   27.8440   43.2710 N   0  0  0  0  0  0  0  0  0  0  0  0
   41.1680   27.1470   42.3600 C   0  0  0  0  0  0  0  0  0  0  0  0
   40.9850   27.3290   41.0350 N   0  0  0  0  0  0  0  0  0  0  0  0
   40.0450   28.2170   39.4870 H   0  0  0  0  0  0  0  0  0  0  0  0
   38.9180   29.2670   43.5420 H   0  0  0  0  0  0  0  0  0  0  0  0
   41.9200   26.4420   42.7110 H   0  0  0  0  0  0  0  0  0  0  0  0
   36.1860   28.5660   41.1280 C   0  0  0  0  0  0  0  0  0  0  0  0
   36.5850   27.9460   39.9980 F   0  0  0  0  0  0  0  0  0  0  0  0
   34.8610   28.9610   40.8920 F   0  0  0  0  0  0  0  0  0  0  0  0
   36.1130   27.7390   42.2330 F   0  0  0  0  0  0  0  0  0  0  0  0
  1  2  1  0  0  0  0
  1 16  1  0  0  0  0
  2  7  1  1  0  0  0
  3  2  1  0  0  0  0
  3  9  1  0  0  0  0
  4  3  1  0  0  0  0
  5  4  1  0  0  0  0
  5 11  1  0  0  0  0
  6  5  1  0  0  0  0
  6  1  1  0  0  0  0
  8  3  1  0  0  0  0
 10  4  1  0  0  0  0
 12  5  1  0  0  0  0
 13  6  1  0  0  0  0
 14  6  1  0  0  0  0
 15 20  2  0  0  0  0
 15 16  1  0  0  0  0
 16 17  2  0  0  0  0
 17 18  1  0  0  0  0
 17 22  1  0  0  0  0
 19 23  1  0  0  0  0
 19 18  2  0  0  0  0
 20 19  1  0  0  0  0
 21 15  1  0  0  0  0
 24  2  1  0  0  0  0
 24 27  1  0  0  0  0
 25 24  1  0  0  0  0
 26 24  1  0  0  0  0
M  END
>  <minimizedAffinity>
-4.33492851

$$$$

 OpenBabel03252508333D

 27 28  0  0  1  0  0  0  0  0999 V2000
   38.3500   30.7080   41.1440 N   0  0  0  0  0  0  0  0  0  0  0  0
   37.1230   30.9520   40.4740 C   0  0  1  0  0  0  0  0  0  0  0  0
   36.9910   32.2940   39.8330 C   0  0  0  0  0  0  0  0  0  0  0  0
   37.7320   33.3680   40.3350 N   0  0  0  0  0  0  0  0  0  0  0  0
   38.9240   33.0780   41.0140 C   0  0  0  0  0  0  0  0  0  0  0  0
   39.3640   31.6590   40.8140 C   0  0  0  0  0  0  0  0  0  0  0  0
   36.2710   30.8130   41.1700 H   0  0  0  0  0  0  0  0  0  0  0  0
   37.2760   32.1810   38.7400 H   0  0  0  0  0  0  0  0  0  0  0  0
   35.9070   32.5800   39.8500 H   0  0  0  0  0  0  0  0  0  0  0  0
   37.9110   34.0720   39.5950 H   0  0  0  0  0  0  0  0  0  0  0  0
   38.6980   33.1580   42.1190 H   0  0  0  0  0  0  0  0  0  0  0  0
   39.7610   33.7670   40.8530 H   0  0  0  0  0  0  0  0  0  0  0  0
   40.3720   31.4660   41.2140 H   0  0  0  0  0  0  0  0  0  0  0  0
   39.5150   31.5570   39.6950 H   0  0  0  0  0  0  0  0  0  0  0  0
   39.6770   28.9040   41.9490 C   0  0  0  0  0  0  0  0  0  0  0  0
   38.4500   29.6000   42.0090 C   0  0  0  0  0  0  0  0  0  0  0  0
   37.4640   29.1320   42.8550 C   0  0  0  0  0  0  0  0  0  0  0  0
   37.6570   28.0240   43.6170 N   0  0  0  0  0  0  0  0  0  0  0  0
   38.8550   27.3580   43.5470 C   0  0  0  0  0  0  0  0  0  0  0  0
   39.8370   27.7940   42.7300 N   0  0  0  0  0  0  0  0  0  0  0  0
   40.5540   29.0990   41.3700 H   0  0  0  0  0  0  0  0  0  0  0  0
   36.5440   29.6470   42.9310 H   0  0  0  0  0  0  0  0  0  0  0  0
   39.0110   26.4700   44.1560 H   0  0  0  0  0  0  0  0  0  0  0  0
   36.9130   29.9510   39.3130 C   0  0  0  0  0  0  0  0  0  0  0  0
   38.0540   29.5300   38.7320 F   0  0  0  0  0  0  0  0  0  0  0  0
   36.1970   30.6090   38.3030 F   0  0  0  0  0  0  0  0  0  0  0  0
   36.0770   28.9310   39.7270 F   0  0  0  0  0  0  0  0  0  0  0  0
  1 16  1  0  0  0  0
  2  1  1  0  0  0  0
  2  7  1  1  0  0  0
  3  9  1  0  0  0  0
  3  4  1  0  0  0  0
  3  2  1  0  0  0  0
  4  5  1  0  0  0  0
  5 11  1  0  0  0  0
  6  5  1  0  0  0  0
  6  1  1  0  0  0  0
  6 13  1  0  0  0  0
  8  3  1  0  0  0  0
 10  4  1  0  0  0  0
 12  5  1  0  0  0  0
 14  6  1  0  0  0  0
 15 16  2  0  0  0  0
 15 20  1  0  0  0  0
 16 17  1  0  0  0  0
 17 22  1  0  0  0  0
 17 18  2  0  0  0  0
 19 18  1  0  0  0  0
 19 23  1  0  0  0  0
 20 19  2  0  0  0  0
 21 15  1  0  0  0  0
 24 27  1  0  0  0  0
 24  2  1  0  0  0  0
 25 24  1  0  0  0  0
 26 24  1  0  0  0  0
M  END
>  <minimizedAffinity>
-4.31959295

$$$$

 OpenBabel03252508333D

 27 28  0  0  1  0  0  0  0  0999 V2000
   38.8070   30.4330   41.0800 N   0  0  0  0  0  0  0  0  0  0  0  0
   38.0110   31.6030   40.9750 C   0  0  1  0  0  0  0  0  0  0  0  0
   38.7570   32.8750   40.7360 C   0  0  0  0  0  0  0  0  0  0  0  0
   40.0870   32.9760   41.1550 N   0  0  0  0  0  0  0  0  0  0  0  0
   40.8280   31.7900   41.2700 C   0  0  0  0  0  0  0  0  0  0  0  0
   40.1450   30.6270   40.6180 C   0  0  0  0  0  0  0  0  0  0  0  0
   37.3910   31.7280   41.8860 H   0  0  0  0  0  0  0  0  0  0  0  0
   38.7480   33.0730   39.6190 H   0  0  0  0  0  0  0  0  0  0  0  0
   38.1780   33.7090   41.2110 H   0  0  0  0  0  0  0  0  0  0  0  0
   40.6060   33.6610   40.5740 H   0  0  0  0  0  0  0  0  0  0  0  0
   40.8580   31.5300   42.3700 H   0  0  0  0  0  0  0  0  0  0  0  0
   41.8810   31.8380   40.9690 H   0  0  0  0  0  0  0  0  0  0  0  0
   40.7860   29.7310   40.5690 H   0  0  0  0  0  0  0  0  0  0  0  0
   40.0450   30.9220   39.5280 H   0  0  0  0  0  0  0  0  0  0  0  0
   37.9100   29.2800   42.9580 C   0  0  0  0  0  0  0  0  0  0  0  0
   38.2270   29.2520   41.5830 C   0  0  0  0  0  0  0  0  0  0  0  0
   37.9850   28.0940   40.8710 C   0  0  0  0  0  0  0  0  0  0  0  0
   37.4570   26.9960   41.4710 N   0  0  0  0  0  0  0  0  0  0  0  0
   37.1560   27.0370   42.8090 C   0  0  0  0  0  0  0  0  0  0  0  0
   37.3790   28.1570   43.5290 N   0  0  0  0  0  0  0  0  0  0  0  0
   38.0170   30.0650   43.6760 H   0  0  0  0  0  0  0  0  0  0  0  0
   38.1970   28.0540   39.8360 H   0  0  0  0  0  0  0  0  0  0  0  0
   36.7320   26.1590   43.2920 H   0  0  0  0  0  0  0  0  0  0  0  0
   37.0310   31.5060   39.7830 C   0  0  0  0  0  0  0  0  0  0  0  0
   37.5290   30.8630   38.7070 F   0  0  0  0  0  0  0  0  0  0  0  0
   36.7530   32.8100   39.3470 F   0  0  0  0  0  0  0  0  0  0  0  0
   35.8140   31.0180   40.2220 F   0  0  0  0  0  0  0  0  0  0  0  0
  1 16  1  0  0  0  0
  2  1  1  0  0  0  0
  2  7  1  1  0  0  0
  3  2  1  0  0  0  0
  3  4  1  0  0  0  0
  3  9  1  0  0  0  0
  4  5  1  0  0  0  0
  5 11  1  0  0  0  0
  6  1  1  0  0  0  0
  6  5  1  0  0  0  0
  8  3  1  0  0  0  0
 10  4  1  0  0  0  0
 12  5  1  0  0  0  0
 13  6  1  0  0  0  0
 14  6  1  0  0  0  0
 15 20  1  0  0  0  0
 15 21  1  0  0  0  0
 16 15  2  0  0  0  0
 17 18  2  0  0  0  0
 17 16  1  0  0  0  0
 18 19  1  0  0  0  0
 19 23  1  0  0  0  0
 19 20  2  0  0  0  0
 22 17  1  0  0  0  0
 24 27  1  0  0  0  0
 24  2  1  0  0  0  0
 25 24  1  0  0  0  0
 26 24  1  0  0  0  0
M  END
>  <minimizedAffinity>
-4.30747509

$$$$

 OpenBabel03252508333D

 27 28  0  0  1  0  0  0  0  0999 V2000
   38.8620   26.8690   42.3790 N   0  0  0  0  0  0  0  0  0  0  0  0
   38.6480   25.6210   41.7390 C   0  0  1  0  0  0  0  0  0  0  0  0
   39.3530   24.4530   42.3460 C   0  0  0  0  0  0  0  0  0  0  0  0
   40.5250   24.6660   43.0770 N   0  0  0  0  0  0  0  0  0  0  0  0
   40.7060   25.9250   43.6690 C   0  0  0  0  0  0  0  0  0  0  0  0
   39.4480   26.7380   43.6750 C   0  0  0  0  0  0  0  0  0  0  0  0
   38.9350   25.6840   40.6700 H   0  0  0  0  0  0  0  0  0  0  0  0
   38.6210   23.9350   43.0430 H   0  0  0  0  0  0  0  0  0  0  0  0
   39.5810   23.7220   41.5270 H   0  0  0  0  0  0  0  0  0  0  0  0
   40.6610   23.9200   43.7850 H   0  0  0  0  0  0  0  0  0  0  0  0
   41.4190   26.4980   43.0050 H   0  0  0  0  0  0  0  0  0  0  0  0
   41.1780   25.9380   44.6580 H   0  0  0  0  0  0  0  0  0  0  0  0
   39.5400   27.6600   44.2720 H   0  0  0  0  0  0  0  0  0  0  0  0
   38.7080   26.1240   44.2760 H   0  0  0  0  0  0  0  0  0  0  0  0
   37.7060   28.9460   42.4920 C   0  0  0  0  0  0  0  0  0  0  0  0
   38.4770   28.0520   41.7180 C   0  0  0  0  0  0  0  0  0  0  0  0
   38.7520   28.3820   40.4050 C   0  0  0  0  0  0  0  0  0  0  0  0
   38.2940   29.5370   39.8580 N   0  0  0  0  0  0  0  0  0  0  0  0
   37.5440   30.3950   40.6220 C   0  0  0  0  0  0  0  0  0  0  0  0
   37.2610   30.1000   41.9090 N   0  0  0  0  0  0  0  0  0  0  0  0
   37.3870   28.8800   43.5100 H   0  0  0  0  0  0  0  0  0  0  0  0
   39.3440   27.7380   39.8110 H   0  0  0  0  0  0  0  0  0  0  0  0
   37.1760   31.3210   40.1860 H   0  0  0  0  0  0  0  0  0  0  0  0
   37.1530   25.2250   41.7720 C   0  0  0  0  0  0  0  0  0  0  0  0
   36.9310   23.8960   41.7140 F   0  0  0  0  0  0  0  0  0  0  0  0
   36.5410   25.7600   40.6290 F   0  0  0  0  0  0  0  0  0  0  0  0
   36.5300   25.8580   42.8310 F   0  0  0  0  0  0  0  0  0  0  0  0
  1  6  1  0  0  0  0
  2  7  1  6  0  0  0
  2 24  1  0  0  0  0
  2  3  1  0  0  0  0
  2  1  1  0  0  0  0
  3  8  1  0  0  0  0
  3  4  1  0  0  0  0
  4  5  1  0  0  0  0
  4 10  1  0  0  0  0
  5  6  1  0  0  0  0
  5 12  1  0  0  0  0
  6 13  1  0  0  0  0
  6 14  1  0  0  0  0
  9  3  1  0  0  0  0
 11  5  1  0  0  0  0
 15 21  1  0  0  0  0
 16  1  1  0  0  0  0
 16 15  2  0  0  0  0
 17 16  1  0  0  0  0
 18 17  2  0  0  0  0
 18 19  1  0  0  0  0
 19 20  2  0  0  0  0
 20 15  1  0  0  0  0
 22 17  1  0  0  0  0
 23 19  1  0  0  0  0
 24 27  1  0  0  0  0
 25 24  1  0  0  0  0
 26 24  1  0  0  0  0
M  END
>  <minimizedAffinity>
-4.29052734

$$$$

 OpenBabel03252508333D

 27 28  0  0  1  0  0  0  0  0999 V2000
   38.1870   28.3380   40.9710 N   0  0  0  0  0  0  0  0  0  0  0  0
   37.1200   27.6360   41.5880 C   0  0  1  0  0  0  0  0  0  0  0  0
   37.1510   26.1510   41.4410 C   0  0  0  0  0  0  0  0  0  0  0  0
   37.8120   25.5860   40.3450 N   0  0  0  0  0  0  0  0  0  0  0  0
   38.8430   26.3280   39.7510 C   0  0  0  0  0  0  0  0  0  0  0  0
   39.2720   27.4870   40.5970 C   0  0  0  0  0  0  0  0  0  0  0  0
   36.1470   28.0040   41.2040 H   0  0  0  0  0  0  0  0  0  0  0  0
   37.6370   25.7240   42.3730 H   0  0  0  0  0  0  0  0  0  0  0  0
   36.0920   25.7810   41.4370 H   0  0  0  0  0  0  0  0  0  0  0  0
   38.1490   24.6310   40.5690 H   0  0  0  0  0  0  0  0  0  0  0  0
   38.4110   26.7960   38.8160 H   0  0  0  0  0  0  0  0  0  0  0  0
   39.7140   25.7640   39.3990 H   0  0  0  0  0  0  0  0  0  0  0  0
   40.1790   27.9810   40.2130 H   0  0  0  0  0  0  0  0  0  0  0  0
   39.6330   27.0210   41.5660 H   0  0  0  0  0  0  0  0  0  0  0  0
   39.2500   30.4600   41.1580 C   0  0  0  0  0  0  0  0  0  0  0  0
   38.0880   29.7350   40.8130 C   0  0  0  0  0  0  0  0  0  0  0  0
   36.9710   30.4330   40.3980 C   0  0  0  0  0  0  0  0  0  0  0  0
   36.9770   31.7890   40.3220 N   0  0  0  0  0  0  0  0  0  0  0  0
   38.1130   32.4800   40.6620 C   0  0  0  0  0  0  0  0  0  0  0  0
   39.2190   31.8240   41.0680 N   0  0  0  0  0  0  0  0  0  0  0  0
   40.2040   30.1160   41.4960 H   0  0  0  0  0  0  0  0  0  0  0  0
   36.0960   29.9120   40.1170 H   0  0  0  0  0  0  0  0  0  0  0  0
   38.1190   33.5660   40.6010 H   0  0  0  0  0  0  0  0  0  0  0  0
   37.1090   27.8680   43.1170 C   0  0  0  0  0  0  0  0  0  0  0  0
   37.2580   29.1580   43.4820 F   0  0  0  0  0  0  0  0  0  0  0  0
   38.2100   27.1920   43.6620 F   0  0  0  0  0  0  0  0  0  0  0  0
   36.0060   27.2450   43.6720 F   0  0  0  0  0  0  0  0  0  0  0  0
  1  2  1  0  0  0  0
  2  7  1  6  0  0  0
  2 24  1  0  0  0  0
  3  2  1  0  0  0  0
  3  8  1  0  0  0  0
  4 10  1  0  0  0  0
  4  3  1  0  0  0  0
  5  4  1  0  0  0  0
  5  6  1  0  0  0  0
  6  1  1  0  0  0  0
  6 14  1  0  0  0  0
  9  3  1  0  0  0  0
 11  5  1  0  0  0  0
 12  5  1  0  0  0  0
 13  6  1  0  0  0  0
 15 21  1  0  0  0  0
 16  1  1  0  0  0  0
 16 15  2  0  0  0  0
 17 16  1  0  0  0  0
 18 17  2  0  0  0  0
 18 19  1  0  0  0  0
 19 20  2  0  0  0  0
 20 15  1  0  0  0  0
 22 17  1  0  0  0  0
 23 19  1  0  0  0  0
 24 25  1  0  0  0  0
 24 26  1  0  0  0  0
 24 27  1  0  0  0  0
M  END
>  <minimizedAffinity>
-4.24925661

$$$$

 OpenBabel03252508333D

 27 28  0  0  1  0  0  0  0  0999 V2000
   38.3090   29.8890   41.4480 N   0  0  0  0  0  0  0  0  0  0  0  0
   37.2530   29.1720   40.8290 C   0  0  1  0  0  0  0  0  0  0  0  0
   36.6920   28.0360   41.6170 C   0  0  0  0  0  0  0  0  0  0  0  0
   37.4950   27.4020   42.5700 N   0  0  0  0  0  0  0  0  0  0  0  0
   38.5440   28.1410   43.1360 C   0  0  0  0  0  0  0  0  0  0  0  0
   38.4310   29.6060   42.8430 C   0  0  0  0  0  0  0  0  0  0  0  0
   37.5800   28.7840   39.8430 H   0  0  0  0  0  0  0  0  0  0  0  0
   35.7730   28.4180   42.1650 H   0  0  0  0  0  0  0  0  0  0  0  0
   36.3290   27.2580   40.8950 H   0  0  0  0  0  0  0  0  0  0  0  0
   36.9160   26.9800   43.3210 H   0  0  0  0  0  0  0  0  0  0  0  0
   39.4920   27.8140   42.6160 H   0  0  0  0  0  0  0  0  0  0  0  0
   38.7420   27.9750   44.2020 H   0  0  0  0  0  0  0  0  0  0  0  0
   39.1590   30.2100   43.4090 H   0  0  0  0  0  0  0  0  0  0  0  0
   37.4410   29.9180   43.2990 H   0  0  0  0  0  0  0  0  0  0  0  0
   39.2590   32.0610   41.2360 C   0  0  0  0  0  0  0  0  0  0  0  0
   39.0800   30.7790   40.6740 C   0  0  0  0  0  0  0  0  0  0  0  0
   39.6270   30.5180   39.4330 C   0  0  0  0  0  0  0  0  0  0  0  0
   40.3210   31.4690   38.7560 N   0  0  0  0  0  0  0  0  0  0  0  0
   40.4850   32.7120   39.3150 C   0  0  0  0  0  0  0  0  0  0  0  0
   39.9640   32.9930   40.5270 N   0  0  0  0  0  0  0  0  0  0  0  0
   38.9230   32.4590   42.1700 H   0  0  0  0  0  0  0  0  0  0  0  0
   39.5230   29.5600   39.0000 H   0  0  0  0  0  0  0  0  0  0  0  0
   41.0410   33.4750   38.7740 H   0  0  0  0  0  0  0  0  0  0  0  0
   36.0360   30.0890   40.5620 C   0  0  0  0  0  0  0  0  0  0  0  0
   35.8980   31.0980   41.4460 F   0  0  0  0  0  0  0  0  0  0  0  0
   34.8760   29.3130   40.6910 F   0  0  0  0  0  0  0  0  0  0  0  0
   36.0420   30.4920   39.2390 F   0  0  0  0  0  0  0  0  0  0  0  0
  1  6  1  0  0  0  0
  2  7  1  6  0  0  0
  2  1  1  0  0  0  0
  2  3  1  0  0  0  0
  3  8  1  0  0  0  0
  3  4  1  0  0  0  0
  4  5  1  0  0  0  0
  4 10  1  0  0  0  0
  5 12  1  0  0  0  0
  6  5  1  0  0  0  0
  6 14  1  0  0  0  0
  6 13  1  0  0  0  0
  9  3  1  0  0  0  0
 11  5  1  0  0  0  0
 15 21  1  0  0  0  0
 16 15  1  0  0  0  0
 16  1  1  0  0  0  0
 17 16  2  0  0  0  0
 18 19  2  0  0  0  0
 18 17  1  0  0  0  0
 19 20  1  0  0  0  0
 20 15  2  0  0  0  0
 22 17  1  0  0  0  0
 23 19  1  0  0  0  0
 24 26  1  0  0  0  0
 24  2  1  0  0  0  0
 24 25  1  0  0  0  0
 27 24  1  0  0  0  0
M  END
>  <minimizedAffinity>
-4.23254395

$$$$

 OpenBabel03252508333D

 27 28  0  0  1  0  0  0  0  0999 V2000
   38.2230   29.8510   41.5580 N   0  0  0  0  0  0  0  0  0  0  0  0
   37.2220   29.1610   40.8260 C   0  0  1  0  0  0  0  0  0  0  0  0
   36.6030   27.9920   41.5180 C   0  0  0  0  0  0  0  0  0  0  0  0
   37.3310   27.3180   42.5030 N   0  0  0  0  0  0  0  0  0  0  0  0
   38.3290   28.0320   43.1820 C   0  0  0  0  0  0  0  0  0  0  0  0
   38.2360   29.5080   42.9450 C   0  0  0  0  0  0  0  0  0  0  0  0
   37.6270   28.8160   39.8530 H   0  0  0  0  0  0  0  0  0  0  0  0
   35.6440   28.3510   42.0070 H   0  0  0  0  0  0  0  0  0  0  0  0
   36.3020   27.2470   40.7360 H   0  0  0  0  0  0  0  0  0  0  0  0
   36.6950   26.8640   43.1870 H   0  0  0  0  0  0  0  0  0  0  0  0
   39.3170   27.7260   42.7250 H   0  0  0  0  0  0  0  0  0  0  0  0
   38.4430   27.8200   44.2520 H   0  0  0  0  0  0  0  0  0  0  0  0
   38.9150   30.0870   43.5920 H   0  0  0  0  0  0  0  0  0  0  0  0
   37.2110   29.8000   43.3330 H   0  0  0  0  0  0  0  0  0  0  0  0
   39.7270   30.2590   39.7590 C   0  0  0  0  0  0  0  0  0  0  0  0
   39.0510   30.7720   40.8860 C   0  0  0  0  0  0  0  0  0  0  0  0
   39.2770   32.0850   41.2520 C   0  0  0  0  0  0  0  0  0  0  0  0
   40.1320   32.8740   40.5510 N   0  0  0  0  0  0  0  0  0  0  0  0
   40.7820   32.3600   39.4580 C   0  0  0  0  0  0  0  0  0  0  0  0
   40.5790   31.0820   39.0760 N   0  0  0  0  0  0  0  0  0  0  0  0
   39.6910   29.2860   39.3150 H   0  0  0  0  0  0  0  0  0  0  0  0
   38.7690   32.4980   42.0820 H   0  0  0  0  0  0  0  0  0  0  0  0
   41.4670   32.9910   38.8950 H   0  0  0  0  0  0  0  0  0  0  0  0
   36.0280   30.0900   40.5030 C   0  0  0  0  0  0  0  0  0  0  0  0
   36.1600   30.7820   39.3530 F   0  0  0  0  0  0  0  0  0  0  0  0
   35.9480   31.0550   41.5170 F   0  0  0  0  0  0  0  0  0  0  0  0
   34.8470   29.3780   40.6040 F   0  0  0  0  0  0  0  0  0  0  0  0
  1  6  1  0  0  0  0
  2  7  1  6  0  0  0
  2  3  1  0  0  0  0
  2  1  1  0  0  0  0
  3  8  1  0  0  0  0
  3  4  1  0  0  0  0
  4  5  1  0  0  0  0
  4 10  1  0  0  0  0
  5 12  1  0  0  0  0
  6  5  1  0  0  0  0
  6 14  1  0  0  0  0
  6 13  1  0  0  0  0
  9  3  1  0  0  0  0
 11  5  1  0  0  0  0
 15 16  1  0  0  0  0
 16 17  2  0  0  0  0
 16  1  1  0  0  0  0
 17 22  1  0  0  0  0
 18 17  1  0  0  0  0
 19 18  2  0  0  0  0
 20 19  1  0  0  0  0
 20 15  2  0  0  0  0
 21 15  1  0  0  0  0
 23 19  1  0  0  0  0
 24 27  1  0  0  0  0
 24  2  1  0  0  0  0
 24 26  1  0  0  0  0
 25 24  1  0  0  0  0
M  END
>  <minimizedAffinity>
-4.21681452

$$$$

 OpenBabel03252508333D

 27 28  0  0  1  0  0  0  0  0999 V2000
   37.2320   28.1830   41.1970 N   0  0  0  0  0  0  0  0  0  0  0  0
   38.1710   29.2360   41.3520 C   0  0  1  0  0  0  0  0  0  0  0  0
   37.6450   30.6120   41.1140 C   0  0  0  0  0  0  0  0  0  0  0  0
   36.5400   30.7860   40.2750 N   0  0  0  0  0  0  0  0  0  0  0  0
   35.6540   29.7090   40.1300 C   0  0  0  0  0  0  0  0  0  0  0  0
   35.8800   28.6430   41.1570 C   0  0  0  0  0  0  0  0  0  0  0  0
   39.0420   29.0740   40.6860 H   0  0  0  0  0  0  0  0  0  0  0  0
   37.3640   31.0520   42.1220 H   0  0  0  0  0  0  0  0  0  0  0  0
   38.4860   31.2400   40.7170 H   0  0  0  0  0  0  0  0  0  0  0  0
   36.0140   31.6440   40.5290 H   0  0  0  0  0  0  0  0  0  0  0  0
   35.8980   29.2160   39.1420 H   0  0  0  0  0  0  0  0  0  0  0  0
   34.5880   29.9560   40.0590 H   0  0  0  0  0  0  0  0  0  0  0  0
   35.0950   27.8700   41.1480 H   0  0  0  0  0  0  0  0  0  0  0  0
   35.7120   29.1580   42.1530 H   0  0  0  0  0  0  0  0  0  0  0  0
   37.1700   25.9790   42.0930 C   0  0  0  0  0  0  0  0  0  0  0  0
   37.6980   26.8550   41.1200 C   0  0  0  0  0  0  0  0  0  0  0  0
   38.6270   26.3660   40.2240 C   0  0  0  0  0  0  0  0  0  0  0  0
   39.0350   25.0710   40.2690 N   0  0  0  0  0  0  0  0  0  0  0  0
   38.5140   24.2320   41.2210 C   0  0  0  0  0  0  0  0  0  0  0  0
   37.6030   24.6820   42.1080 N   0  0  0  0  0  0  0  0  0  0  0  0
   36.4520   26.1560   42.8650 H   0  0  0  0  0  0  0  0  0  0  0  0
   39.0230   26.9980   39.4750 H   0  0  0  0  0  0  0  0  0  0  0  0
   38.8400   23.1940   41.2590 H   0  0  0  0  0  0  0  0  0  0  0  0
   38.7220   29.2830   42.7970 C   0  0  0  0  0  0  0  0  0  0  0  0
   39.6310   28.3260   43.0740 F   0  0  0  0  0  0  0  0  0  0  0  0
   37.6520   29.0510   43.6730 F   0  0  0  0  0  0  0  0  0  0  0  0
   39.1430   30.5660   43.0900 F   0  0  0  0  0  0  0  0  0  0  0  0
  1  2  1  0  0  0  0
  2  7  1  6  0  0  0
  2 24  1  0  0  0  0
  3  2  1  0  0  0  0
  3  8  1  0  0  0  0
  4 10  1  0  0  0  0
  4  3  1  0  0  0  0
  5  4  1  0  0  0  0
  5  6  1  0  0  0  0
  6  1  1  0  0  0  0
  6 14  1  0  0  0  0
  9  3  1  0  0  0  0
 11  5  1  0  0  0  0
 12  5  1  0  0  0  0
 13  6  1  0  0  0  0
 15 20  1  0  0  0  0
 15 21  1  0  0  0  0
 16  1  1  0  0  0  0
 16 15  2  0  0  0  0
 17 18  2  0  0  0  0
 17 16  1  0  0  0  0
 18 19  1  0  0  0  0
 19 23  1  0  0  0  0
 19 20  2  0  0  0  0
 22 17  1  0  0  0  0
 24 25  1  0  0  0  0
 24 27  1  0  0  0  0
 24 26  1  0  0  0  0
M  END
>  <minimizedAffinity>
-4.16121721

$$$$
