
 OpenBabel03242516393D

 15 15  0  0  0  0  0  0  0  0999 V2000
   36.7970   30.0750   41.4740 C   0  0  0  0  0  0  0  0  0  0  0  0
   36.4890   28.7420   41.8340 C   0  0  0  0  0  0  0  0  0  0  0  0
   37.5590   27.8630   42.0670 C   0  0  0  0  0  0  0  0  0  0  0  0
   38.8270   28.3340   41.9340 N   0  0  0  0  0  0  0  0  0  0  0  0
   39.0750   29.6140   41.5870 C   0  0  0  0  0  0  0  0  0  0  0  0
   38.0650   30.4670   41.3620 N   0  0  0  0  0  0  0  0  0  0  0  0
   35.7330   30.9810   41.2350 N   0  0  0  0  0  0  0  0  0  0  0  0
   35.4490   28.4340   41.9220 H   0  0  0  0  0  0  0  0  0  0  0  0
   40.1140   29.9160   41.5030 H   0  0  0  0  0  0  0  0  0  0  0  0
   35.9300   31.9120   40.8410 H   0  0  0  0  0  0  0  0  0  0  0  0
   34.7420   30.7540   41.4380 H   0  0  0  0  0  0  0  0  0  0  0  0
   37.2370   26.4640   42.4440 C   0  0  0  0  0  0  0  0  0  0  0  0
   38.4050   25.8860   42.9070 F   0  0  0  0  0  0  0  0  0  0  0  0
   36.2610   26.5230   43.4140 F   0  0  0  0  0  0  0  0  0  0  0  0
   36.7990   25.7500   41.3660 F   0  0  0  0  0  0  0  0  0  0  0  0
  1  2  1  0  0  0  0
  2  8  1  0  0  0  0
  2  3  2  0  0  0  0
  3 12  1  0  0  0  0
  4  3  1  0  0  0  0
  5  4  2  0  0  0  0
  6  1  2  0  0  0  0
  6  5  1  0  0  0  0
  7 11  1  0  0  0  0
  7  1  1  0  0  0  0
  9  5  1  0  0  0  0
 10  7  1  0  0  0  0
 12 13  1  0  0  0  0
 12 14  1  0  0  0  0
 15 12  1  0  0  0  0
M  END
>  <minimizedAffinity>
-4.1028409

$$$$

 OpenBabel03242516393D

 15 15  0  0  0  0  0  0  0  0999 V2000
   36.7920   30.0670   41.4840 C   0  0  0  0  0  0  0  0  0  0  0  0
   36.4970   28.7070   41.7390 C   0  0  0  0  0  0  0  0  0  0  0  0
   37.5740   27.8330   41.9590 C   0  0  0  0  0  0  0  0  0  0  0  0
   38.8360   28.3340   41.9170 N   0  0  0  0  0  0  0  0  0  0  0  0
   39.0730   29.6390   41.6690 C   0  0  0  0  0  0  0  0  0  0  0  0
   38.0560   30.4870   41.4570 N   0  0  0  0  0  0  0  0  0  0  0  0
   35.7220   30.9680   41.2580 N   0  0  0  0  0  0  0  0  0  0  0  0
   35.4610   28.3750   41.7570 H   0  0  0  0  0  0  0  0  0  0  0  0
   40.1080   29.9640   41.6520 H   0  0  0  0  0  0  0  0  0  0  0  0
   35.9170   31.9260   40.9380 H   0  0  0  0  0  0  0  0  0  0  0  0
   34.7280   30.7100   41.4010 H   0  0  0  0  0  0  0  0  0  0  0  0
   37.2640   26.4060   42.2260 C   0  0  0  0  0  0  0  0  0  0  0  0
   36.3480   26.3730   43.2610 F   0  0  0  0  0  0  0  0  0  0  0  0
   36.7570   25.8780   41.0600 F   0  0  0  0  0  0  0  0  0  0  0  0
   38.3810   25.7230   42.6160 F   0  0  0  0  0  0  0  0  0  0  0  0
  1  2  1  0  0  0  0
  2  8  1  0  0  0  0
  2  3  2  0  0  0  0
  3 12  1  0  0  0  0
  4  3  1  0  0  0  0
  5  4  2  0  0  0  0
  6  1  2  0  0  0  0
  6  5  1  0  0  0  0
  7 11  1  0  0  0  0
  7  1  1  0  0  0  0
  9  5  1  0  0  0  0
 10  7  1  0  0  0  0
 12 15  1  0  0  0  0
 12 13  1  0  0  0  0
 14 12  1  0  0  0  0
M  END
>  <minimizedAffinity>
-4.0750823

$$$$

 OpenBabel03242516393D

 15 15  0  0  0  0  0  0  0  0999 V2000
   38.4910   24.4410   42.1830 C   0  0  0  0  0  0  0  0  0  0  0  0
   37.5770   25.5210   42.1800 C   0  0  0  0  0  0  0  0  0  0  0  0
   37.9070   26.6610   42.9310 C   0  0  0  0  0  0  0  0  0  0  0  0
   39.0790   26.6680   43.6180 N   0  0  0  0  0  0  0  0  0  0  0  0
   39.9220   25.6140   43.5940 C   0  0  0  0  0  0  0  0  0  0  0  0
   39.6220   24.5190   42.8820 N   0  0  0  0  0  0  0  0  0  0  0  0
   38.1790   23.2800   41.4320 N   0  0  0  0  0  0  0  0  0  0  0  0
   36.6550   25.4460   41.6060 H   0  0  0  0  0  0  0  0  0  0  0  0
   40.8390   25.6960   44.1680 H   0  0  0  0  0  0  0  0  0  0  0  0
   38.7590   22.4350   41.5290 H   0  0  0  0  0  0  0  0  0  0  0  0
   37.3790   23.2320   40.7750 H   0  0  0  0  0  0  0  0  0  0  0  0
   36.9480   27.7940   42.9290 C   0  0  0  0  0  0  0  0  0  0  0  0
   36.6170   28.0460   41.6100 F   0  0  0  0  0  0  0  0  0  0  0  0
   35.8600   27.4040   43.6770 F   0  0  0  0  0  0  0  0  0  0  0  0
   37.5140   28.9200   43.4550 F   0  0  0  0  0  0  0  0  0  0  0  0
  1  6  1  0  0  0  0
  2  1  2  0  0  0  0
  2  3  1  0  0  0  0
  3  4  2  0  0  0  0
  5  4  1  0  0  0  0
  5  9  1  0  0  0  0
  6  5  2  0  0  0  0
  7 10  1  0  0  0  0
  7  1  1  0  0  0  0
  8  2  1  0  0  0  0
 11  7  1  0  0  0  0
 12  3  1  0  0  0  0
 12 15  1  0  0  0  0
 12 14  1  0  0  0  0
 13 12  1  0  0  0  0
M  END
>  <minimizedAffinity>
-4.06767702

$$$$

 OpenBabel03242516393D

 15 15  0  0  0  0  0  0  0  0999 V2000
   37.3190   32.0440   40.4920 C   0  0  0  0  0  0  0  0  0  0  0  0
   36.4420   30.9340   40.5120 C   0  0  0  0  0  0  0  0  0  0  0  0
   36.9250   29.7280   41.0450 C   0  0  0  0  0  0  0  0  0  0  0  0
   38.2010   29.6880   41.5110 N   0  0  0  0  0  0  0  0  0  0  0  0
   39.0040   30.7720   41.4710 C   0  0  0  0  0  0  0  0  0  0  0  0
   38.5580   31.9320   40.9660 N   0  0  0  0  0  0  0  0  0  0  0  0
   36.8540   33.2720   39.9590 N   0  0  0  0  0  0  0  0  0  0  0  0
   35.4320   31.0370   40.1220 H   0  0  0  0  0  0  0  0  0  0  0  0
   40.0100   30.6630   41.8630 H   0  0  0  0  0  0  0  0  0  0  0  0
   37.5120   34.0490   39.8100 H   0  0  0  0  0  0  0  0  0  0  0  0
   35.8620   33.4370   39.7040 H   0  0  0  0  0  0  0  0  0  0  0  0
   36.0060   28.5620   41.0670 C   0  0  0  0  0  0  0  0  0  0  0  0
   34.7440   29.0310   40.7490 F   0  0  0  0  0  0  0  0  0  0  0  0
   36.4780   27.6590   40.1410 F   0  0  0  0  0  0  0  0  0  0  0  0
   35.9560   27.9950   42.3080 F   0  0  0  0  0  0  0  0  0  0  0  0
  1  2  2  0  0  0  0
  1  6  1  0  0  0  0
  2  3  1  0  0  0  0
  3 12  1  0  0  0  0
  3  4  2  0  0  0  0
  5  4  1  0  0  0  0
  5  9  1  0  0  0  0
  6  5  2  0  0  0  0
  7  1  1  0  0  0  0
  8  2  1  0  0  0  0
 10  7  1  0  0  0  0
 11  7  1  0  0  0  0
 12 15  1  0  0  0  0
 13 12  1  0  0  0  0
 14 12  1  0  0  0  0
M  END
>  <minimizedAffinity>
-4.01965189

$$$$

 OpenBabel03242516393D

 15 15  0  0  0  0  0  0  0  0999 V2000
   36.4120   30.5500   40.6580 C   0  0  0  0  0  0  0  0  0  0  0  0
   36.7620   29.8150   41.8150 C   0  0  0  0  0  0  0  0  0  0  0  0
   36.6620   28.4150   41.7570 C   0  0  0  0  0  0  0  0  0  0  0  0
   36.2370   27.8420   40.6010 N   0  0  0  0  0  0  0  0  0  0  0  0
   35.9120   28.5830   39.5200 C   0  0  0  0  0  0  0  0  0  0  0  0
   36.0020   29.9200   39.5590 N   0  0  0  0  0  0  0  0  0  0  0  0
   36.5040   31.9640   40.6930 N   0  0  0  0  0  0  0  0  0  0  0  0
   37.0940   30.3400   42.7080 H   0  0  0  0  0  0  0  0  0  0  0  0
   35.5820   28.0520   38.6320 H   0  0  0  0  0  0  0  0  0  0  0  0
   36.1270   32.5220   39.9150 H   0  0  0  0  0  0  0  0  0  0  0  0
   36.9410   32.4810   41.4780 H   0  0  0  0  0  0  0  0  0  0  0  0
   37.0290   27.6430   42.9710 C   0  0  0  0  0  0  0  0  0  0  0  0
   37.9440   28.4020   43.6770 F   0  0  0  0  0  0  0  0  0  0  0  0
   35.8680   27.4290   43.6790 F   0  0  0  0  0  0  0  0  0  0  0  0
   37.6160   26.4550   42.6410 F   0  0  0  0  0  0  0  0  0  0  0  0
  1  7  1  0  0  0  0
  1  2  1  0  0  0  0
  2  8  1  0  0  0  0
  3  2  2  0  0  0  0
  3 12  1  0  0  0  0
  4  3  1  0  0  0  0
  5  6  1  0  0  0  0
  5  4  2  0  0  0  0
  6  1  2  0  0  0  0
  7 11  1  0  0  0  0
  9  5  1  0  0  0  0
 10  7  1  0  0  0  0
 12 13  1  0  0  0  0
 12 14  1  0  0  0  0
 15 12  1  0  0  0  0
M  END
>  <minimizedAffinity>
-4.01723957

$$$$

 OpenBabel03242516393D

 15 15  0  0  0  0  0  0  0  0999 V2000
   37.5710   31.5460   36.8580 C   0  0  0  0  0  0  0  0  0  0  0  0
   37.6040   31.9630   38.2090 C   0  0  0  0  0  0  0  0  0  0  0  0
   37.0550   31.1030   39.1740 C   0  0  0  0  0  0  0  0  0  0  0  0
   36.5240   29.9220   38.7640 N   0  0  0  0  0  0  0  0  0  0  0  0
   36.5130   29.5630   37.4630 C   0  0  0  0  0  0  0  0  0  0  0  0
   37.0330   30.3730   36.5290 N   0  0  0  0  0  0  0  0  0  0  0  0
   38.1190   32.3970   35.8660 N   0  0  0  0  0  0  0  0  0  0  0  0
   38.0450   32.9240   38.4660 H   0  0  0  0  0  0  0  0  0  0  0  0
   36.0720   28.6040   37.2140 H   0  0  0  0  0  0  0  0  0  0  0  0
   37.9840   32.1770   34.8700 H   0  0  0  0  0  0  0  0  0  0  0  0
   38.6610   33.2510   36.0930 H   0  0  0  0  0  0  0  0  0  0  0  0
   37.0890   31.5410   40.5920 C   0  0  0  0  0  0  0  0  0  0  0  0
   38.1520   30.8930   41.1950 F   0  0  0  0  0  0  0  0  0  0  0  0
   37.2430   32.9100   40.5880 F   0  0  0  0  0  0  0  0  0  0  0  0
   35.9420   31.1900   41.2450 F   0  0  0  0  0  0  0  0  0  0  0  0
  1  2  1  0  0  0  0
  2  8  1  0  0  0  0
  2  3  2  0  0  0  0
  3 12  1  0  0  0  0
  4  3  1  0  0  0  0
  5  4  2  0  0  0  0
  6  1  2  0  0  0  0
  6  5  1  0  0  0  0
  7 11  1  0  0  0  0
  7  1  1  0  0  0  0
  9  5  1  0  0  0  0
 10  7  1  0  0  0  0
 12 13  1  0  0  0  0
 12 15  1  0  0  0  0
 14 12  1  0  0  0  0
M  END
>  <minimizedAffinity>
-3.79238081

$$$$

 OpenBabel03242516393D

 15 15  0  0  0  0  0  0  0  0999 V2000
   37.7360   27.9810   43.0350 C   0  0  0  0  0  0  0  0  0  0  0  0
   37.1760   26.8910   42.3280 C   0  0  0  0  0  0  0  0  0  0  0  0
   37.9380   25.7160   42.2260 C   0  0  0  0  0  0  0  0  0  0  0  0
   39.1650   25.6860   42.8070 N   0  0  0  0  0  0  0  0  0  0  0  0
   39.6610   26.7500   43.4730 C   0  0  0  0  0  0  0  0  0  0  0  0
   38.9470   27.8790   43.5800 N   0  0  0  0  0  0  0  0  0  0  0  0
   36.9850   29.1780   43.1520 N   0  0  0  0  0  0  0  0  0  0  0  0
   36.1860   26.9860   41.8860 H   0  0  0  0  0  0  0  0  0  0  0  0
   40.6490   26.6480   43.9110 H   0  0  0  0  0  0  0  0  0  0  0  0
   37.4250   30.0230   43.5410 H   0  0  0  0  0  0  0  0  0  0  0  0
   35.9930   29.2520   42.8590 H   0  0  0  0  0  0  0  0  0  0  0  0
   37.3510   24.5720   41.4830 C   0  0  0  0  0  0  0  0  0  0  0  0
   38.2510   23.5250   41.5660 F   0  0  0  0  0  0  0  0  0  0  0  0
   36.1470   24.2770   42.0820 F   0  0  0  0  0  0  0  0  0  0  0  0
   37.1690   24.8810   40.1650 F   0  0  0  0  0  0  0  0  0  0  0  0
  1  7  1  0  0  0  0
  1  6  1  0  0  0  0
  2  1  2  0  0  0  0
  3  2  1  0  0  0  0
  3  4  2  0  0  0  0
  4  5  1  0  0  0  0
  5  6  2  0  0  0  0
  5  9  1  0  0  0  0
  7 10  1  0  0  0  0
  8  2  1  0  0  0  0
 11  7  1  0  0  0  0
 12 13  1  0  0  0  0
 12 14  1  0  0  0  0
 12  3  1  0  0  0  0
 15 12  1  0  0  0  0
M  END
>  <minimizedAffinity>
-3.78931022

$$$$

 OpenBabel03242516393D

 15 15  0  0  0  0  0  0  0  0999 V2000
   36.6970   30.3260   41.2090 C   0  0  0  0  0  0  0  0  0  0  0  0
   37.0110   31.5560   40.5850 C   0  0  0  0  0  0  0  0  0  0  0  0
   38.2950   32.0860   40.7910 C   0  0  0  0  0  0  0  0  0  0  0  0
   39.1640   31.3970   41.5740 N   0  0  0  0  0  0  0  0  0  0  0  0
   38.8220   30.2260   42.1520 C   0  0  0  0  0  0  0  0  0  0  0  0
   37.6010   29.7050   41.9650 N   0  0  0  0  0  0  0  0  0  0  0  0
   35.4080   29.7710   41.0150 N   0  0  0  0  0  0  0  0  0  0  0  0
   36.2640   32.0550   39.9700 H   0  0  0  0  0  0  0  0  0  0  0  0
   39.5720   29.7330   42.7630 H   0  0  0  0  0  0  0  0  0  0  0  0
   35.1130   28.9520   41.5660 H   0  0  0  0  0  0  0  0  0  0  0  0
   34.7260   30.1520   40.3330 H   0  0  0  0  0  0  0  0  0  0  0  0
   38.6240   33.3780   40.1360 C   0  0  0  0  0  0  0  0  0  0  0  0
   39.3440   33.0840   38.9920 F   0  0  0  0  0  0  0  0  0  0  0  0
   37.4310   34.0050   39.8580 F   0  0  0  0  0  0  0  0  0  0  0  0
   39.3990   34.1580   40.9460 F   0  0  0  0  0  0  0  0  0  0  0  0
  1  6  1  0  0  0  0
  2  3  1  0  0  0  0
  2  1  2  0  0  0  0
  3  4  2  0  0  0  0
  4  5  1  0  0  0  0
  5  9  1  0  0  0  0
  6  5  2  0  0  0  0
  7  1  1  0  0  0  0
  7 10  1  0  0  0  0
  8  2  1  0  0  0  0
 11  7  1  0  0  0  0
 12  3  1  0  0  0  0
 12 15  1  0  0  0  0
 13 12  1  0  0  0  0
 14 12  1  0  0  0  0
M  END
>  <minimizedAffinity>
-3.78729415

$$$$

 OpenBabel03242516393D

 15 15  0  0  0  0  0  0  0  0999 V2000
   38.4000   24.6860   41.7070 C   0  0  0  0  0  0  0  0  0  0  0  0
   37.4400   25.5670   42.2580 C   0  0  0  0  0  0  0  0  0  0  0  0
   37.6990   26.9450   42.1870 C   0  0  0  0  0  0  0  0  0  0  0  0
   38.8500   27.3600   41.5980 N   0  0  0  0  0  0  0  0  0  0  0  0
   39.7400   26.4840   41.0850 C   0  0  0  0  0  0  0  0  0  0  0  0
   39.5080   25.1650   41.1440 N   0  0  0  0  0  0  0  0  0  0  0  0
   38.1600   23.2900   41.7660 N   0  0  0  0  0  0  0  0  0  0  0  0
   36.5380   25.1640   42.7150 H   0  0  0  0  0  0  0  0  0  0  0  0
   40.6360   26.8920   40.6300 H   0  0  0  0  0  0  0  0  0  0  0  0
   38.9020   22.6300   41.4960 H   0  0  0  0  0  0  0  0  0  0  0  0
   37.2560   22.8860   42.0730 H   0  0  0  0  0  0  0  0  0  0  0  0
   36.6910   27.8700   42.7660 C   0  0  0  0  0  0  0  0  0  0  0  0
   35.9480   27.1460   43.6800 F   0  0  0  0  0  0  0  0  0  0  0  0
   37.3840   28.9040   43.3550 F   0  0  0  0  0  0  0  0  0  0  0  0
   35.8480   28.3460   41.8030 F   0  0  0  0  0  0  0  0  0  0  0  0
  1  7  1  0  0  0  0
  1  2  1  0  0  0  0
  2  8  1  0  0  0  0
  3  2  2  0  0  0  0
  3 12  1  0  0  0  0
  4  3  1  0  0  0  0
  5  6  1  0  0  0  0
  5  4  2  0  0  0  0
  6  1  2  0  0  0  0
  7 11  1  0  0  0  0
  9  5  1  0  0  0  0
 10  7  1  0  0  0  0
 12 14  1  0  0  0  0
 12 13  1  0  0  0  0
 15 12  1  0  0  0  0
M  END
>  <minimizedAffinity>
-3.74887729

$$$$
