
 OpenBabel03252502433D

 26 27  0  0  1  0  0  0  0  0999 V2000
   46.5290   34.7420   41.2850 C   0  0  0  0  0  0  0  0  0  0  0  0
   45.9760   34.6770   40.3250 H   0  0  0  0  0  0  0  0  0  0  0  0
   46.4280   35.7490   41.7410 H   0  0  0  0  0  0  0  0  0  0  0  0
   47.9920   34.4810   41.0920 C   0  0  1  0  0  0  0  0  0  0  0  0
   48.9320   35.6100   41.3750 C   0  0  0  0  0  0  0  0  0  0  0  0
   48.8370   34.4610   42.2960 C   0  0  2  0  0  0  0  0  0  0  0  0
   48.1700   33.8200   40.2030 H   0  0  0  0  0  0  0  0  0  0  0  0
   49.7660   35.6750   40.6420 H   0  0  0  0  0  0  0  0  0  0  0  0
   48.5780   36.6330   41.6060 H   0  0  0  0  0  0  0  0  0  0  0  0
   48.5790   34.3870   43.3260 H   0  0  0  0  0  0  0  0  0  0  0  0
   50.0040   33.4690   42.1190 C   0  0  0  0  0  0  0  0  0  0  0  0
   49.7530   32.3630   42.9380 F   0  0  0  0  0  0  0  0  0  0  0  0
   50.0540   32.9570   40.8390 F   0  0  0  0  0  0  0  0  0  0  0  0
   51.2210   34.0310   42.3660 F   0  0  0  0  0  0  0  0  0  0  0  0
   46.0180   33.6160   42.1480 C   0  0  0  0  0  0  0  0  0  0  0  0
   46.9400   33.1510   42.6260 H   0  0  0  0  0  0  0  0  0  0  0  0
   45.3630   32.9170   41.6530 H   0  0  0  0  0  0  0  0  0  0  0  0
   44.4400   35.9280   44.6340 C   0  0  0  0  0  0  0  0  0  0  0  0
   44.8680   35.3930   43.4050 C   0  0  0  0  0  0  0  0  0  0  0  0
   45.4970   34.1800   43.4290 C   0  0  0  0  0  0  0  0  0  0  0  0
   45.6800   33.5390   44.6170 N   0  0  0  0  0  0  0  0  0  0  0  0
   45.2690   34.0550   45.7640 C   0  0  0  0  0  0  0  0  0  0  0  0
   44.6500   35.2460   45.7870 N   0  0  0  0  0  0  0  0  0  0  0  0
   43.9360   36.8650   44.7780 H   0  0  0  0  0  0  0  0  0  0  0  0
   44.5980   36.0700   42.6170 H   0  0  0  0  0  0  0  0  0  0  0  0
   45.4820   33.4370   46.6350 H   0  0  0  0  0  0  0  0  0  0  0  0
  1  3  1  0  0  0  0
  1 15  1  0  0  0  0
  2  1  1  0  0  0  0
  4  7  1  6  0  0  0
  4  1  1  0  0  0  0
  4  5  1  0  0  0  0
  4  6  1  0  0  0  0
  5  9  1  0  0  0  0
  5  6  1  0  0  0  0
  6 10  1  1  0  0  0
  8  5  1  0  0  0  0
 11  6  1  0  0  0  0
 11 14  1  0  0  0  0
 11 12  1  0  0  0  0
 13 11  1  0  0  0  0
 15 16  1  0  0  0  0
 15 20  1  0  0  0  0
 17 15  1  0  0  0  0
 18 24  1  0  0  0  0
 18 23  1  0  0  0  0
 19 20  1  0  0  0  0
 19 18  2  0  0  0  0
 20 21  2  0  0  0  0
 21 22  1  0  0  0  0
 22 23  2  0  0  0  0
 22 26  1  0  0  0  0
 25 19  1  0  0  0  0
M  END
>  <minimizedAffinity>
-4.68129444

>  <minimizedRMSD>
1.1406635

$$$$
