
 OpenBabel03242521213D

 31 33  0  0  0  0  0  0  0  0999 V2000
   45.6440   34.0420   44.9430 C   0  0  0  0  0  0  0  0  0  0  0  0
   44.8570   35.1440   45.0940 C   0  0  0  0  0  0  0  0  0  0  0  0
   44.5190   35.9960   44.0600 C   0  0  0  0  0  0  0  0  0  0  0  0
   45.0280   35.6640   42.8490 N   0  0  0  0  0  0  0  0  0  0  0  0
   45.8030   34.5780   42.7020 C   0  0  0  0  0  0  0  0  0  0  0  0
   46.1340   33.7420   43.7170 N   0  0  0  0  0  0  0  0  0  0  0  0
   44.4550   35.4020   46.0650 H   0  0  0  0  0  0  0  0  0  0  0  0
   43.9040   36.8630   44.1640 H   0  0  0  0  0  0  0  0  0  0  0  0
   46.3430   34.2440   41.3590 C   0  0  0  0  0  0  0  0  0  0  0  0
   45.5710   33.5040   40.4840 C   0  0  0  0  0  0  0  0  0  0  0  0
   45.9720   33.1400   39.2180 C   0  0  0  0  0  0  0  0  0  0  0  0
   47.2490   33.5580   38.8160 C   0  0  0  0  0  0  0  0  0  0  0  0
   48.0080   34.2880   39.6840 C   0  0  0  0  0  0  0  0  0  0  0  0
   47.5900   34.6430   40.9440 C   0  0  0  0  0  0  0  0  0  0  0  0
   44.5880   33.1960   40.8200 H   0  0  0  0  0  0  0  0  0  0  0  0
   45.3160   32.5580   38.5790 H   0  0  0  0  0  0  0  0  0  0  0  0
   47.5840   33.2820   37.8260 H   0  0  0  0  0  0  0  0  0  0  0  0
   48.9870   34.5920   39.3380 H   0  0  0  0  0  0  0  0  0  0  0  0
   48.4350   35.4390   41.8710 C   0  0  0  0  0  0  0  0  0  0  0  0
   47.6080   36.4110   42.4470 F   0  0  0  0  0  0  0  0  0  0  0  0
   48.9850   34.7210   42.8880 F   0  0  0  0  0  0  0  0  0  0  0  0
   49.3690   36.1430   41.1160 F   0  0  0  0  0  0  0  0  0  0  0  0
   47.3330   31.5170   46.9940 C   0  0  0  0  0  0  0  0  0  0  0  0
   46.5940   31.5470   48.1710 C   0  0  0  0  0  0  0  0  0  0  0  0
   45.5260   32.4220   48.2670 C   0  0  0  0  0  0  0  0  0  0  0  0
   45.2410   33.2270   47.1930 N   0  0  0  0  0  0  0  0  0  0  0  0
   45.9720   33.1770   46.0660 C   0  0  0  0  0  0  0  0  0  0  0  0
   47.0020   32.3350   45.9690 N   0  0  0  0  0  0  0  0  0  0  0  0
   48.1570   30.8170   46.9670 H   0  0  0  0  0  0  0  0  0  0  0  0
   46.7430   30.9640   49.0480 H   0  0  0  0  0  0  0  0  0  0  0  0
   44.8370   32.5980   49.0820 H   0  0  0  0  0  0  0  0  0  0  0  0
  1  2  1  0  0  0  0
  1 27  1  0  0  0  0
  2  7  1  0  0  0  0
  3  8  1  0  0  0  0
  3  2  2  0  0  0  0
  4  3  1  0  0  0  0
  5  4  2  0  0  0  0
  5  6  1  0  0  0  0
  6  1  2  0  0  0  0
  9  5  1  0  0  0  0
 10 15  1  0  0  0  0
 10  9  2  0  0  0  0
 11 10  1  0  0  0  0
 12 11  2  0  0  0  0
 12 13  1  0  0  0  0
 13 14  2  0  0  0  0
 14  9  1  0  0  0  0
 14 19  1  0  0  0  0
 16 11  1  0  0  0  0
 17 12  1  0  0  0  0
 18 13  1  0  0  0  0
 19 20  1  0  0  0  0
 19 21  1  0  0  0  0
 22 19  1  0  0  0  0
 23 24  1  0  0  0  0
 24 25  2  0  0  0  0
 24 30  1  0  0  0  0
 25 31  1  0  0  0  0
 26 25  1  0  0  0  0
 27 26  2  0  0  0  0
 28 27  1  0  0  0  0
 28 23  2  0  0  0  0
 29 23  1  0  0  0  0
M  END
>  <minimizedAffinity>
-6.44527197

>  <minimizedRMSD>
1.49907517

$$$$
