REMARK  Name = 
REMARK  4 active torsions:
REMARK  status: ('A' for Active; 'I' for Inactive)
REMARK    1  A    between atoms: C_1  and  C_21
REMARK    2  A    between atoms: C_2  and  C_9
REMARK    3  A    between atoms: C_6  and  C_14
REMARK    4  A    between atoms: C_19  and  C_33
REMARK                            x       y       z     vdW  Elec       q    Type
REMARK                         _______ _______ _______ _____ _____    ______ ____
ROOT
ATOM      1  C   UNL     1      45.124  33.940  40.698  0.00  0.00    +0.000 A 
ATOM      2  C   UNL     1      44.077  33.641  39.870  0.00  0.00    +0.000 A 
ATOM      3  C   UNL     1      44.385  33.159  38.631  0.00  0.00    +0.000 A 
ATOM      4  C   UNL     1      45.659  32.961  38.174  0.00  0.00    +0.000 A 
ATOM      5  C   UNL     1      46.694  33.270  39.027  0.00  0.00    +0.000 A 
ATOM      6  C   UNL     1      46.450  33.763  40.298  0.00  0.00    +0.000 A 
ATOM      7  H   UNL     1      43.566  32.917  37.964  0.00  0.00    +0.000 HD
ATOM      8  H   UNL     1      45.860  32.578  37.188  0.00  0.00    +0.000 HD
ATOM      9  H   UNL     1      47.709  33.120  38.684  0.00  0.00    +0.000 HD
ENDROOT
BRANCH   2  12
ATOM     10  C   UNL     1      40.794  35.254  40.797  0.00  0.00    +0.000 A 
ATOM     11  C   UNL     1      42.096  35.098  40.271  0.00  0.00    +0.000 A 
ATOM     12  C   UNL     1      42.742  33.862  40.388  0.00  0.00    +0.000 A 
ATOM     13  N   UNL     1      42.033  32.884  41.020  0.00  0.00    +0.000 NA
ATOM     14  C   UNL     1      40.806  33.058  41.507  0.00  0.00    +0.000 A 
ATOM     15  N   UNL     1      40.189  34.232  41.398  0.00  0.00    +0.000 NA
ATOM     16  N   UNL     1      40.202  36.538  40.641  0.00  0.00    +0.000 N 
ATOM     17  H   UNL     1      42.638  35.886  39.775  0.00  0.00    +0.000 HD
ATOM     18  H   UNL     1      40.335  32.209  41.991  0.00  0.00    +0.000 HD
ATOM     19  H   UNL     1      40.817  37.371  40.804  0.00  0.00    +0.000 HD
ATOM     20  H   UNL     1      39.188  36.506  40.373  0.00  0.00    +0.000 HD
ENDBRANCH   2  12
BRANCH   6  21
ATOM     21  C   UNL     1      47.603  34.061  41.121  0.00  0.00    +0.000 A 
ATOM     22  C   UNL     1      48.130  35.331  40.957  0.00  0.00    +0.000 A 
ATOM     23  C   UNL     1      49.236  35.811  41.657  0.00  0.00    +0.000 A 
ATOM     24  C   UNL     1      49.826  34.955  42.562  0.00  0.00    +0.000 A 
ATOM     25  C   UNL     1      49.315  33.687  42.739  0.00  0.00    +0.000 A 
ATOM     26  C   UNL     1      48.206  33.229  42.026  0.00  0.00    +0.000 A 
ATOM     27  H   UNL     1      47.702  36.056  40.250  0.00  0.00    +0.000 HD
ATOM     28  H   UNL     1      49.611  36.809  41.495  0.00  0.00    +0.000 HD
ATOM     29  H   UNL     1      50.681  35.240  43.145  0.00  0.00    +0.000 HD
ATOM     30  H   UNL     1      49.741  32.967  43.442  0.00  0.00    +0.000 HD
BRANCH  26  31
ATOM     31  C   UNL     1      47.663  31.860  42.203  0.00  0.00    +0.000 C 
ATOM     32  F   UNL     1      47.713  31.189  41.002  0.00  0.00    +0.000 F 
ATOM     33  F   UNL     1      46.446  31.831  42.823  0.00  0.00    +0.000 F 
ATOM     34  F   UNL     1      48.555  31.182  43.042  0.00  0.00    +0.000 F 
ENDBRANCH  26  31
ENDBRANCH   6  21
BRANCH   1  36
ATOM     35  N   UNL     1      44.720  34.863  43.114  0.00  0.00    +0.000 NA
ATOM     36  C   UNL     1      44.898  34.461  42.030  0.00  0.00    +0.000 C 
ENDBRANCH   1  36
TORSDOF 4
