
 OpenBabel03252504493D

 19 19  0  0  0  0  0  0  0  0999 V2000
   45.5350   34.8340   44.0010 C   0  0  0  0  0  0  0  0  0  0  0  0
   46.5920   34.4140   43.2010 C   0  0  0  0  0  0  0  0  0  0  0  0
   47.4030   33.3960   43.7020 C   0  0  0  0  0  0  0  0  0  0  0  0
   47.1250   32.8700   44.9270 N   0  0  0  0  0  0  0  0  0  0  0  0
   46.0830   33.3090   45.6740 C   0  0  0  0  0  0  0  0  0  0  0  0
   45.2870   34.2920   45.2100 N   0  0  0  0  0  0  0  0  0  0  0  0
   44.8930   35.6260   43.6300 H   0  0  0  0  0  0  0  0  0  0  0  0
   48.2350   33.0370   43.1190 H   0  0  0  0  0  0  0  0  0  0  0  0
   45.8020   32.7160   47.0100 C   0  0  0  0  0  0  0  0  0  0  0  0
   45.4670   31.3780   46.8460 F   0  0  0  0  0  0  0  0  0  0  0  0
   46.9390   32.7720   47.7900 F   0  0  0  0  0  0  0  0  0  0  0  0
   44.7640   33.4050   47.6400 F   0  0  0  0  0  0  0  0  0  0  0  0
   46.7960   35.0360   41.9170 C   0  0  0  0  0  0  0  0  0  0  0  0
   46.1880   35.9370   41.8010 H   0  0  0  0  0  0  0  0  0  0  0  0
   46.4660   34.3150   41.1110 H   0  0  0  0  0  0  0  0  0  0  0  0
   48.2770   35.3120   41.7280 C   0  0  0  0  0  0  0  0  0  0  0  0
   48.5080   36.3940   41.8670 H   0  0  0  0  0  0  0  0  0  0  0  0
   48.6400   34.9990   40.7230 H   0  0  0  0  0  0  0  0  0  0  0  0
   48.8840   34.7540   42.4870 H   0  0  0  0  0  0  0  0  0  0  0  0
  1  6  1  0  0  0  0
  2  3  1  0  0  0  0
  2  1  2  0  0  0  0
  3  4  2  0  0  0  0
  4  5  1  0  0  0  0
  5  9  1  0  0  0  0
  6  5  2  0  0  0  0
  7  1  1  0  0  0  0
  8  3  1  0  0  0  0
  9 12  1  0  0  0  0
  9 11  1  0  0  0  0
 10  9  1  0  0  0  0
 13  2  1  0  0  0  0
 14 13  1  0  0  0  0
 15 13  1  0  0  0  0
 16 17  1  0  0  0  0
 16 13  1  0  0  0  0
 16 19  1  0  0  0  0
 18 16  1  0  0  0  0
M  END
>  <minimizedAffinity>
-4.08582354

>  <minimizedRMSD>
1.54148638

$$$$
