
 OpenBabel03242518213D

 34 36  0  0  0  0  0  0  0  0999 V2000
   44.9670   34.7660   43.7590 C   0  0  0  0  0  0  0  0  0  0  0  0
   45.2320   36.0910   43.4900 C   0  0  0  0  0  0  0  0  0  0  0  0
   44.3700   36.5010   42.4960 C   0  0  0  0  0  0  0  0  0  0  0  0
   43.6090   35.3910   42.1990 C   0  0  0  0  0  0  0  0  0  0  0  0
   43.9980   34.4310   42.9540 O   0  0  0  0  0  0  0  0  0  0  0  0
   46.0030   36.6670   44.0080 H   0  0  0  0  0  0  0  0  0  0  0  0
   44.3560   37.5140   42.0810 H   0  0  0  0  0  0  0  0  0  0  0  0
   42.5540   35.3580   41.1930 C   0  0  0  0  0  0  0  0  0  0  0  0
   42.8350   34.9780   39.8990 C   0  0  0  0  0  0  0  0  0  0  0  0
   41.8800   34.9220   38.8880 C   0  0  0  0  0  0  0  0  0  0  0  0
   40.5990   35.2890   39.3080 C   0  0  0  0  0  0  0  0  0  0  0  0
   40.2960   35.6690   40.5810 C   0  0  0  0  0  0  0  0  0  0  0  0
   41.2870   35.6930   41.4960 N   0  0  0  0  0  0  0  0  0  0  0  0
   43.8640   34.7060   39.6540 H   0  0  0  0  0  0  0  0  0  0  0  0
   42.1230   34.6240   37.8930 H   0  0  0  0  0  0  0  0  0  0  0  0
   39.7920   35.2740   38.5820 H   0  0  0  0  0  0  0  0  0  0  0  0
   39.3040   35.9530   40.9020 H   0  0  0  0  0  0  0  0  0  0  0  0
   45.6890   33.9450   44.7800 C   0  0  0  0  0  0  0  0  0  0  0  0
   44.9760   33.2760   45.2720 H   0  0  0  0  0  0  0  0  0  0  0  0
   46.0680   34.6270   45.5840 H   0  0  0  0  0  0  0  0  0  0  0  0
   47.8890   31.1680   43.8700 C   0  0  0  0  0  0  0  0  0  0  0  0
   48.8550   31.7550   43.0550 C   0  0  0  0  0  0  0  0  0  0  0  0
   48.7350   33.1060   42.8300 C   0  0  0  0  0  0  0  0  0  0  0  0
   47.7100   33.8000   43.3920 N   0  0  0  0  0  0  0  0  0  0  0  0
   46.8070   33.1860   44.1680 C   0  0  0  0  0  0  0  0  0  0  0  0
   46.8900   31.8580   44.4150 N   0  0  0  0  0  0  0  0  0  0  0  0
   47.9360   30.1190   44.0770 H   0  0  0  0  0  0  0  0  0  0  0  0
   49.7750   33.7210   41.9560 C   0  0  0  0  0  0  0  0  0  0  0  0
   49.7570   33.0470   40.7300 F   0  0  0  0  0  0  0  0  0  0  0  0
   49.4490   35.0240   41.6540 F   0  0  0  0  0  0  0  0  0  0  0  0
   51.0460   33.6000   42.4570 F   0  0  0  0  0  0  0  0  0  0  0  0
   49.8650   30.9270   42.5340 N   0  0  0  0  0  0  0  0  0  0  0  0
   50.7200   30.5960   43.0090 H   0  0  0  0  0  0  0  0  0  0  0  0
   49.6590   30.6520   41.5360 H   0  0  0  0  0  0  0  0  0  0  0  0
  1 18  1  0  0  0  0
  2  1  2  0  0  0  0
  2  6  1  0  0  0  0
  3  2  1  0  0  0  0
  4  3  2  0  0  0  0
  4  5  1  0  0  0  0
  5  1  1  0  0  0  0
  7  3  1  0  0  0  0
  8 13  1  0  0  0  0
  8  4  1  0  0  0  0
  9  8  2  0  0  0  0
 10 11  2  0  0  0  0
 10  9  1  0  0  0  0
 11 12  1  0  0  0  0
 12 17  1  0  0  0  0
 12 13  2  0  0  0  0
 14  9  1  0  0  0  0
 15 10  1  0  0  0  0
 16 11  1  0  0  0  0
 18 19  1  0  0  0  0
 18 20  1  0  0  0  0
 21 27  1  0  0  0  0
 21 26  1  0  0  0  0
 22 21  2  0  0  0  0
 23 22  1  0  0  0  0
 23 24  2  0  0  0  0
 24 25  1  0  0  0  0
 25 26  2  0  0  0  0
 25 18  1  0  0  0  0
 28 31  1  0  0  0  0
 28 23  1  0  0  0  0
 29 28  1  0  0  0  0
 30 28  1  0  0  0  0
 32 33  1  0  0  0  0
 32 22  1  0  0  0  0
 34 32  1  0  0  0  0
M  END
>  <minimizedAffinity>
-5.49651575

>  <minimizedRMSD>
1.71296096

$$$$
