
 OpenBabel03252505463D

 23 24  0  0  1  0  0  0  0  0999 V2000
   46.5100   33.1230   45.6020 C   0  0  0  0  0  0  0  0  0  0  0  0
   47.2540   32.4930   44.5630 C   0  0  0  0  0  0  0  0  0  0  0  0
   47.1140   32.9010   43.2420 C   0  0  0  0  0  0  0  0  0  0  0  0
   46.2320   33.9220   43.0250 N   0  0  0  0  0  0  0  0  0  0  0  0
   45.5410   34.4970   44.0320 C   0  0  0  0  0  0  0  0  0  0  0  0
   45.6780   34.1060   45.2910 N   0  0  0  0  0  0  0  0  0  0  0  0
   47.9390   31.6830   44.8160 H   0  0  0  0  0  0  0  0  0  0  0  0
   47.6800   32.4210   42.4590 H   0  0  0  0  0  0  0  0  0  0  0  0
   46.6870   32.6420   46.9820 C   0  0  1  0  0  0  0  0  0  0  0  0
   45.8940   31.3210   47.2400 C   0  0  1  0  0  0  0  0  0  0  0  0
   47.3860   31.4460   47.3360 C   0  0  0  0  0  0  0  0  0  0  0  0
   46.5090   33.4360   47.7370 H   0  0  0  0  0  0  0  0  0  0  0  0
   45.4510   30.8110   46.3820 H   0  0  0  0  0  0  0  0  0  0  0  0
   47.8530   31.2960   48.3100 H   0  0  0  0  0  0  0  0  0  0  0  0
   47.9350   30.9130   46.5060 H   0  0  0  0  0  0  0  0  0  0  0  0
   45.1750   31.3010   48.5680 C   0  0  0  0  0  0  0  0  0  0  0  0
   45.8880   31.9400   49.5570 F   0  0  0  0  0  0  0  0  0  0  0  0
   43.9590   31.9870   48.4180 F   0  0  0  0  0  0  0  0  0  0  0  0
   44.8440   30.0150   48.9280 F   0  0  0  0  0  0  0  0  0  0  0  0
   44.6270   35.5890   43.6270 C   0  0  0  0  0  0  0  0  0  0  0  0
   43.8910   35.9470   44.7290 F   0  0  0  0  0  0  0  0  0  0  0  0
   43.7750   35.1440   42.6420 F   0  0  0  0  0  0  0  0  0  0  0  0
   45.3100   36.7190   43.2020 F   0  0  0  0  0  0  0  0  0  0  0  0
  1  9  1  0  0  0  0
  2  7  1  0  0  0  0
  2  1  2  0  0  0  0
  3  2  1  0  0  0  0
  4  3  2  0  0  0  0
  4  5  1  0  0  0  0
  5  6  2  0  0  0  0
  6  1  1  0  0  0  0
  8  3  1  0  0  0  0
  9 10  1  0  0  0  0
  9 11  1  0  0  0  0
  9 12  1  1  0  0  0
 10 13  1  6  0  0  0
 10 11  1  0  0  0  0
 10 16  1  0  0  0  0
 11 14  1  0  0  0  0
 15 11  1  0  0  0  0
 16 19  1  0  0  0  0
 16 17  1  0  0  0  0
 18 16  1  0  0  0  0
 20  5  1  0  0  0  0
 20 21  1  0  0  0  0
 22 20  1  0  0  0  0
 23 20  1  0  0  0  0
M  END
>  <minimizedAffinity>
-5.16113853

>  <minimizedRMSD>
5.52368546

$$$$
