
 OpenBabel03252509183D

 36 38  0  0  1  0  0  0  0  0999 V2000
   38.6140   26.7400   41.3560 C   0  0  1  0  0  0  0  0  0  0  0  0
   39.5280   25.5750   41.1900 C   0  0  0  0  0  0  0  0  0  0  0  0
   39.1900   24.3820   42.0290 C   0  0  0  0  0  0  0  0  0  0  0  0
   37.7090   24.0840   42.0500 C   0  0  0  0  0  0  0  0  0  0  0  0
   36.8710   25.3160   42.2580 C   0  0  0  0  0  0  0  0  0  0  0  0
   37.7720   26.5050   42.6280 C   0  0  2  0  0  0  0  0  0  0  0  0
   37.8660   26.7250   40.5400 H   0  0  0  0  0  0  0  0  0  0  0  0
   40.5540   25.9180   41.5140 H   0  0  0  0  0  0  0  0  0  0  0  0
   39.6670   25.3090   40.1120 H   0  0  0  0  0  0  0  0  0  0  0  0
   39.5860   24.4680   43.0590 H   0  0  0  0  0  0  0  0  0  0  0  0
   39.6750   23.4880   41.5630 H   0  0  0  0  0  0  0  0  0  0  0  0
   37.3990   23.6120   41.0820 H   0  0  0  0  0  0  0  0  0  0  0  0
   37.5410   23.3140   42.8270 H   0  0  0  0  0  0  0  0  0  0  0  0
   36.1610   25.1300   43.0940 H   0  0  0  0  0  0  0  0  0  0  0  0
   36.3050   25.5950   41.3660 H   0  0  0  0  0  0  0  0  0  0  0  0
   38.3860   26.2940   43.5030 H   0  0  0  0  0  0  0  0  0  0  0  0
   40.0790   30.5000   40.6610 C   0  0  0  0  0  0  0  0  0  0  0  0
   40.6160   29.9280   41.8270 C   0  0  0  0  0  0  0  0  0  0  0  0
   40.2120   28.6810   42.1580 C   0  0  0  0  0  0  0  0  0  0  0  0
   39.2830   28.0000   41.3470 C   0  0  0  0  0  0  0  0  0  0  0  0
   38.9600   29.2070   40.0230 S   0  0  0  0  0  0  0  0  0  0  0  0
   41.3270   30.4440   42.4530 H   0  0  0  0  0  0  0  0  0  0  0  0
   40.5040   28.0760   43.0030 H   0  0  0  0  0  0  0  0  0  0  0  0
   40.5600   34.1610   40.2030 C   0  0  0  0  0  0  0  0  0  0  0  0
   41.2080   34.1610   38.9420 C   0  0  0  0  0  0  0  0  0  0  0  0
   41.4500   32.9150   38.3080 C   0  0  0  0  0  0  0  0  0  0  0  0
   41.0330   31.7980   38.9720 N   0  0  0  0  0  0  0  0  0  0  0  0
   40.4200   31.8390   40.1700 C   0  0  0  0  0  0  0  0  0  0  0  0
   40.1910   33.0210   40.7710 N   0  0  0  0  0  0  0  0  0  0  0  0
   40.3610   35.0970   40.7130 H   0  0  0  0  0  0  0  0  0  0  0  0
   41.5110   35.0740   38.4710 H   0  0  0  0  0  0  0  0  0  0  0  0
   41.9410   32.8590   37.3450 H   0  0  0  0  0  0  0  0  0  0  0  0
   36.8340   27.6810   42.8440 C   0  0  0  0  0  0  0  0  0  0  0  0
   37.4890   28.7380   43.4470 F   0  0  0  0  0  0  0  0  0  0  0  0
   36.2800   28.0520   41.6400 F   0  0  0  0  0  0  0  0  0  0  0  0
   35.8320   27.2570   43.6760 F   0  0  0  0  0  0  0  0  0  0  0  0
  1  7  1  6  0  0  0
  1  6  1  0  0  0  0
  2  1  1  0  0  0  0
  2  8  1  0  0  0  0
  2  3  1  0  0  0  0
  3  4  1  0  0  0  0
  3 10  1  0  0  0  0
  4  5  1  0  0  0  0
  4 13  1  0  0  0  0
  5  6  1  0  0  0  0
  5 14  1  0  0  0  0
  6 33  1  0  0  0  0
  6 16  1  1  0  0  0
  9  2  1  0  0  0  0
 11  3  1  0  0  0  0
 12  4  1  0  0  0  0
 15  5  1  0  0  0  0
 17 18  2  0  0  0  0
 18 19  1  0  0  0  0
 18 22  1  0  0  0  0
 19 23  1  0  0  0  0
 20  1  1  0  0  0  0
 20 19  2  0  0  0  0
 21 17  1  0  0  0  0
 21 20  1  0  0  0  0
 24 30  1  0  0  0  0
 24 29  1  0  0  0  0
 25 24  2  0  0  0  0
 26 25  1  0  0  0  0
 26 27  2  0  0  0  0
 27 28  1  0  0  0  0
 28 17  1  0  0  0  0
 28 29  2  0  0  0  0
 31 25  1  0  0  0  0
 32 26  1  0  0  0  0
 33 34  1  0  0  0  0
 33 36  1  0  0  0  0
 35 33  1  0  0  0  0
M  END
>  <minimizedAffinity>
-5.3794508

$$$$

 OpenBabel03252509183D

 36 38  0  0  1  0  0  0  0  0999 V2000
   37.0160   27.3010   41.0080 C   0  0  1  0  0  0  0  0  0  0  0  0
   36.5650   26.6950   39.7230 C   0  0  0  0  0  0  0  0  0  0  0  0
   36.9170   25.2510   39.5490 C   0  0  0  0  0  0  0  0  0  0  0  0
   36.6820   24.4380   40.8000 C   0  0  0  0  0  0  0  0  0  0  0  0
   37.2020   25.1150   42.0400 C   0  0  0  0  0  0  0  0  0  0  0  0
   38.0400   26.3430   41.6510 C   0  0  2  0  0  0  0  0  0  0  0  0
   36.1690   27.2960   41.7200 H   0  0  0  0  0  0  0  0  0  0  0  0
   37.0910   27.2590   38.8970 H   0  0  0  0  0  0  0  0  0  0  0  0
   35.4820   26.8940   39.5300 H   0  0  0  0  0  0  0  0  0  0  0  0
   37.9510   25.1120   39.1810 H   0  0  0  0  0  0  0  0  0  0  0  0
   36.2320   24.8240   38.7750 H   0  0  0  0  0  0  0  0  0  0  0  0
   35.5850   24.2550   40.9390 H   0  0  0  0  0  0  0  0  0  0  0  0
   37.1350   23.4410   40.6330 H   0  0  0  0  0  0  0  0  0  0  0  0
   37.8490   24.4000   42.5940 H   0  0  0  0  0  0  0  0  0  0  0  0
   36.4010   25.4560   42.6990 H   0  0  0  0  0  0  0  0  0  0  0  0
   38.8530   26.0830   40.9740 H   0  0  0  0  0  0  0  0  0  0  0  0
   38.9050   30.8090   40.0640 C   0  0  0  0  0  0  0  0  0  0  0  0
   37.8780   30.9960   41.0040 C   0  0  0  0  0  0  0  0  0  0  0  0
   37.1840   29.9050   41.4010 C   0  0  0  0  0  0  0  0  0  0  0  0
   37.4990   28.6370   40.8750 C   0  0  0  0  0  0  0  0  0  0  0  0
   38.8730   29.0130   39.7410 S   0  0  0  0  0  0  0  0  0  0  0  0
   37.6310   31.9650   41.4100 H   0  0  0  0  0  0  0  0  0  0  0  0
   36.3690   29.8410   42.1050 H   0  0  0  0  0  0  0  0  0  0  0  0
   41.1250   32.9860   38.0200 C   0  0  0  0  0  0  0  0  0  0  0  0
   41.2360   34.0990   38.8910 C   0  0  0  0  0  0  0  0  0  0  0  0
   40.5500   34.0550   40.1320 C   0  0  0  0  0  0  0  0  0  0  0  0
   39.8280   32.9280   40.3940 N   0  0  0  0  0  0  0  0  0  0  0  0
   39.7460   31.8900   39.5390 C   0  0  0  0  0  0  0  0  0  0  0  0
   40.3960   31.9320   38.3630 N   0  0  0  0  0  0  0  0  0  0  0  0
   41.6370   32.9900   37.0640 H   0  0  0  0  0  0  0  0  0  0  0  0
   41.8200   34.9570   38.6280 H   0  0  0  0  0  0  0  0  0  0  0  0
   40.6020   34.8780   40.8330 H   0  0  0  0  0  0  0  0  0  0  0  0
   38.5390   26.9320   42.9610 C   0  0  0  0  0  0  0  0  0  0  0  0
   39.5010   27.8990   42.7390 F   0  0  0  0  0  0  0  0  0  0  0  0
   37.4730   27.4350   43.6720 F   0  0  0  0  0  0  0  0  0  0  0  0
   39.1020   25.9120   43.6800 F   0  0  0  0  0  0  0  0  0  0  0  0
  1  6  1  0  0  0  0
  1  7  1  1  0  0  0
  2  1  1  0  0  0  0
  3  2  1  0  0  0  0
  3  4  1  0  0  0  0
  4 12  1  0  0  0  0
  4  5  1  0  0  0  0
  5 14  1  0  0  0  0
  5 15  1  0  0  0  0
  6 16  1  6  0  0  0
  6  5  1  0  0  0  0
  6 33  1  0  0  0  0
  8  2  1  0  0  0  0
  9  2  1  0  0  0  0
 10  3  1  0  0  0  0
 11  3  1  0  0  0  0
 13  4  1  0  0  0  0
 17 18  2  0  0  0  0
 18 19  1  0  0  0  0
 18 22  1  0  0  0  0
 19 23  1  0  0  0  0
 20  1  1  0  0  0  0
 20 19  2  0  0  0  0
 21 17  1  0  0  0  0
 21 20  1  0  0  0  0
 24 29  2  0  0  0  0
 24 25  1  0  0  0  0
 25 26  2  0  0  0  0
 26 27  1  0  0  0  0
 26 32  1  0  0  0  0
 28 17  1  0  0  0  0
 28 27  2  0  0  0  0
 29 28  1  0  0  0  0
 30 24  1  0  0  0  0
 31 25  1  0  0  0  0
 33 35  1  0  0  0  0
 33 36  1  0  0  0  0
 34 33  1  0  0  0  0
M  END
>  <minimizedAffinity>
-5.23228979

$$$$

 OpenBabel03252509183D

 36 38  0  0  1  0  0  0  0  0999 V2000
   37.7640   27.0240   42.3730 C   0  0  1  0  0  0  0  0  0  0  0  0
   37.8210   25.5410   42.2320 C   0  0  0  0  0  0  0  0  0  0  0  0
   39.1730   24.9380   42.4540 C   0  0  0  0  0  0  0  0  0  0  0  0
   39.8900   25.5340   43.6430 C   0  0  0  0  0  0  0  0  0  0  0  0
   39.8060   27.0370   43.6800 C   0  0  0  0  0  0  0  0  0  0  0  0
   39.2110   27.5580   42.3620 C   0  0  2  0  0  0  0  0  0  0  0  0
   37.4010   27.2710   43.3890 H   0  0  0  0  0  0  0  0  0  0  0  0
   37.5330   25.3050   41.1660 H   0  0  0  0  0  0  0  0  0  0  0  0
   37.0280   25.0380   42.8380 H   0  0  0  0  0  0  0  0  0  0  0  0
   39.8080   24.9880   41.5490 H   0  0  0  0  0  0  0  0  0  0  0  0
   39.0290   23.8560   42.6960 H   0  0  0  0  0  0  0  0  0  0  0  0
   39.4500   25.1390   44.5940 H   0  0  0  0  0  0  0  0  0  0  0  0
   40.9330   25.1630   43.6160 H   0  0  0  0  0  0  0  0  0  0  0  0
   40.8320   27.4500   43.7990 H   0  0  0  0  0  0  0  0  0  0  0  0
   39.1780   27.4020   44.4940 H   0  0  0  0  0  0  0  0  0  0  0  0
   39.7770   27.2170   41.4960 H   0  0  0  0  0  0  0  0  0  0  0  0
   35.7640   28.4000   39.0760 C   0  0  0  0  0  0  0  0  0  0  0  0
   35.2480   28.9310   40.2690 C   0  0  0  0  0  0  0  0  0  0  0  0
   35.8330   28.5550   41.4290 C   0  0  0  0  0  0  0  0  0  0  0  0
   36.9200   27.6590   41.4140 C   0  0  0  0  0  0  0  0  0  0  0  0
   37.1300   27.3280   39.6360 S   0  0  0  0  0  0  0  0  0  0  0  0
   34.4150   29.6170   40.2880 H   0  0  0  0  0  0  0  0  0  0  0  0
   35.5880   28.8490   42.4370 H   0  0  0  0  0  0  0  0  0  0  0  0
   35.3220   29.2850   35.4880 C   0  0  0  0  0  0  0  0  0  0  0  0
   33.9070   29.2420   35.4040 C   0  0  0  0  0  0  0  0  0  0  0  0
   33.1720   28.9130   36.5730 C   0  0  0  0  0  0  0  0  0  0  0  0
   33.8950   28.6620   37.7020 N   0  0  0  0  0  0  0  0  0  0  0  0
   35.2400   28.7130   37.7420 C   0  0  0  0  0  0  0  0  0  0  0  0
   35.9360   29.0240   36.6340 N   0  0  0  0  0  0  0  0  0  0  0  0
   35.9120   29.5330   34.6130 H   0  0  0  0  0  0  0  0  0  0  0  0
   33.3970   29.4500   34.4870 H   0  0  0  0  0  0  0  0  0  0  0  0
   32.0900   28.8670   36.5630 H   0  0  0  0  0  0  0  0  0  0  0  0
   39.1980   29.0730   42.4890 C   0  0  0  0  0  0  0  0  0  0  0  0
   38.9580   29.6740   41.2670 F   0  0  0  0  0  0  0  0  0  0  0  0
   38.2620   29.4460   43.4260 F   0  0  0  0  0  0  0  0  0  0  0  0
   40.4360   29.4580   42.9280 F   0  0  0  0  0  0  0  0  0  0  0  0
  1  7  1  1  0  0  0
  2  1  1  0  0  0  0
  2  3  1  0  0  0  0
  2  9  1  0  0  0  0
  3 11  1  0  0  0  0
  3  4  1  0  0  0  0
  4  5  1  0  0  0  0
  4 12  1  0  0  0  0
  5 14  1  0  0  0  0
  5 15  1  0  0  0  0
  6 16  1  6  0  0  0
  6  1  1  0  0  0  0
  6 33  1  0  0  0  0
  6  5  1  0  0  0  0
  8  2  1  0  0  0  0
 10  3  1  0  0  0  0
 13  4  1  0  0  0  0
 17 21  1  0  0  0  0
 17 18  2  0  0  0  0
 18 22  1  0  0  0  0
 18 19  1  0  0  0  0
 19 23  1  0  0  0  0
 20 19  2  0  0  0  0
 20  1  1  0  0  0  0
 21 20  1  0  0  0  0
 24 29  1  0  0  0  0
 25 24  2  0  0  0  0
 25 26  1  0  0  0  0
 26 27  2  0  0  0  0
 27 28  1  0  0  0  0
 28 17  1  0  0  0  0
 29 28  2  0  0  0  0
 30 24  1  0  0  0  0
 31 25  1  0  0  0  0
 32 26  1  0  0  0  0
 33 36  1  0  0  0  0
 33 35  1  0  0  0  0
 34 33  1  0  0  0  0
M  END
>  <minimizedAffinity>
-5.22838306

$$$$

 OpenBabel03252509183D

 36 38  0  0  1  0  0  0  0  0999 V2000
   36.5800   26.4730   40.2190 C   0  0  1  0  0  0  0  0  0  0  0  0
   36.5260   26.0980   38.7770 C   0  0  0  0  0  0  0  0  0  0  0  0
   37.3100   24.8750   38.4130 C   0  0  0  0  0  0  0  0  0  0  0  0
   37.1400   23.7540   39.4120 C   0  0  0  0  0  0  0  0  0  0  0  0
   37.2450   24.2250   40.8380 C   0  0  0  0  0  0  0  0  0  0  0  0
   37.7320   25.6820   40.8720 C   0  0  2  0  0  0  0  0  0  0  0  0
   35.6750   26.0820   40.7220 H   0  0  0  0  0  0  0  0  0  0  0  0
   36.9800   26.9570   38.2010 H   0  0  0  0  0  0  0  0  0  0  0  0
   35.4740   26.0540   38.4010 H   0  0  0  0  0  0  0  0  0  0  0  0
   38.3820   25.0970   38.2530 H   0  0  0  0  0  0  0  0  0  0  0  0
   36.9050   24.4860   37.4460 H   0  0  0  0  0  0  0  0  0  0  0  0
   36.1380   23.2700   39.2790 H   0  0  0  0  0  0  0  0  0  0  0  0
   37.8860   22.9760   39.1600 H   0  0  0  0  0  0  0  0  0  0  0  0
   37.9830   23.5870   41.3720 H   0  0  0  0  0  0  0  0  0  0  0  0
   36.2900   24.1830   41.3650 H   0  0  0  0  0  0  0  0  0  0  0  0
   38.6780   25.8070   40.3450 H   0  0  0  0  0  0  0  0  0  0  0  0
   37.4930   30.4600   40.4010 C   0  0  0  0  0  0  0  0  0  0  0  0
   36.2920   30.1590   41.0660 C   0  0  0  0  0  0  0  0  0  0  0  0
   35.8880   28.8690   41.0800 C   0  0  0  0  0  0  0  0  0  0  0  0
   36.6620   27.8790   40.4430 C   0  0  0  0  0  0  0  0  0  0  0  0
   38.0580   28.8400   39.7780 S   0  0  0  0  0  0  0  0  0  0  0  0
   35.6950   30.9130   41.5550 H   0  0  0  0  0  0  0  0  0  0  0  0
   35.0080   28.4400   41.5330 H   0  0  0  0  0  0  0  0  0  0  0  0
   38.0700   34.1090   39.9600 C   0  0  0  0  0  0  0  0  0  0  0  0
   39.4670   34.1610   40.1990 C   0  0  0  0  0  0  0  0  0  0  0  0
   40.1450   32.9510   40.5000 C   0  0  0  0  0  0  0  0  0  0  0  0
   39.3870   31.8170   40.5340 N   0  0  0  0  0  0  0  0  0  0  0  0
   38.0620   31.8080   40.3000 C   0  0  0  0  0  0  0  0  0  0  0  0
   37.4190   32.9550   40.0160 N   0  0  0  0  0  0  0  0  0  0  0  0
   37.5240   35.0160   39.7280 H   0  0  0  0  0  0  0  0  0  0  0  0
   40.0050   35.0850   40.1580 H   0  0  0  0  0  0  0  0  0  0  0  0
   41.2100   32.9360   40.6910 H   0  0  0  0  0  0  0  0  0  0  0  0
   37.8330   26.0470   42.3440 C   0  0  0  0  0  0  0  0  0  0  0  0
   38.5540   27.2130   42.5210 F   0  0  0  0  0  0  0  0  0  0  0  0
   36.5680   26.1520   42.8770 F   0  0  0  0  0  0  0  0  0  0  0  0
   38.4910   25.0260   42.9750 F   0  0  0  0  0  0  0  0  0  0  0  0
  1 20  1  0  0  0  0
  1  7  1  1  0  0  0
  1  6  1  0  0  0  0
  2  1  1  0  0  0  0
  3  2  1  0  0  0  0
  3  4  1  0  0  0  0
  4  5  1  0  0  0  0
  5  6  1  0  0  0  0
  5 15  1  0  0  0  0
  5 14  1  0  0  0  0
  6 16  1  6  0  0  0
  6 33  1  0  0  0  0
  8  2  1  0  0  0  0
  9  2  1  0  0  0  0
 10  3  1  0  0  0  0
 11  3  1  0  0  0  0
 12  4  1  0  0  0  0
 13  4  1  0  0  0  0
 17 18  2  0  0  0  0
 18 19  1  0  0  0  0
 18 22  1  0  0  0  0
 19 23  1  0  0  0  0
 20 19  2  0  0  0  0
 21 17  1  0  0  0  0
 21 20  1  0  0  0  0
 24 29  2  0  0  0  0
 24 25  1  0  0  0  0
 25 26  2  0  0  0  0
 26 27  1  0  0  0  0
 26 32  1  0  0  0  0
 28 17  1  0  0  0  0
 28 27  2  0  0  0  0
 29 28  1  0  0  0  0
 30 24  1  0  0  0  0
 31 25  1  0  0  0  0
 33 34  1  0  0  0  0
 33 35  1  0  0  0  0
 33 36  1  0  0  0  0
M  END
>  <minimizedAffinity>
-5.19943237

$$$$

 OpenBabel03252509183D

 36 38  0  0  1  0  0  0  0  0999 V2000
   38.0650   26.4030   41.9170 C   0  0  1  0  0  0  0  0  0  0  0  0
   36.9370   26.0990   40.9910 C   0  0  0  0  0  0  0  0  0  0  0  0
   37.0990   24.8480   40.1860 C   0  0  0  0  0  0  0  0  0  0  0  0
   37.6360   23.6950   41.0010 C   0  0  0  0  0  0  0  0  0  0  0  0
   38.7940   24.0900   41.8770 C   0  0  0  0  0  0  0  0  0  0  0  0
   39.2590   25.5100   41.5170 C   0  0  2  0  0  0  0  0  0  0  0  0
   37.7990   26.0460   42.9300 H   0  0  0  0  0  0  0  0  0  0  0  0
   36.8820   26.9540   40.2550 H   0  0  0  0  0  0  0  0  0  0  0  0
   35.9500   26.1400   41.5160 H   0  0  0  0  0  0  0  0  0  0  0  0
   37.7170   25.0090   39.2820 H   0  0  0  0  0  0  0  0  0  0  0  0
   36.0850   24.5300   39.8390 H   0  0  0  0  0  0  0  0  0  0  0  0
   36.8290   23.2820   41.6590 H   0  0  0  0  0  0  0  0  0  0  0  0
   37.8910   22.8830   40.2920 H   0  0  0  0  0  0  0  0  0  0  0  0
   39.6340   23.3830   41.7010 H   0  0  0  0  0  0  0  0  0  0  0  0
   38.5390   24.0850   42.9380 H   0  0  0  0  0  0  0  0  0  0  0  0
   39.5150   25.6010   40.4620 H   0  0  0  0  0  0  0  0  0  0  0  0
   39.0490   30.3280   41.2960 C   0  0  0  0  0  0  0  0  0  0  0  0
   38.8290   30.0440   42.6540 C   0  0  0  0  0  0  0  0  0  0  0  0
   38.5040   28.7740   42.9860 C   0  0  0  0  0  0  0  0  0  0  0  0
   38.3940   27.7890   41.9860 C   0  0  0  0  0  0  0  0  0  0  0  0
   38.7790   28.7230   40.4710 S   0  0  0  0  0  0  0  0  0  0  0  0
   38.9110   30.7950   43.4250 H   0  0  0  0  0  0  0  0  0  0  0  0
   38.3000   28.3610   43.9610 H   0  0  0  0  0  0  0  0  0  0  0  0
   39.2920   33.9650   40.5450 C   0  0  0  0  0  0  0  0  0  0  0  0
   40.3560   33.9440   39.6080 C   0  0  0  0  0  0  0  0  0  0  0  0
   40.9400   32.6940   39.2770 C   0  0  0  0  0  0  0  0  0  0  0  0
   40.4220   31.5930   39.8950 N   0  0  0  0  0  0  0  0  0  0  0  0
   39.4100   31.6530   40.7810 C   0  0  0  0  0  0  0  0  0  0  0  0
   38.8580   32.8390   41.0950 N   0  0  0  0  0  0  0  0  0  0  0  0
   38.8260   34.9040   40.8190 H   0  0  0  0  0  0  0  0  0  0  0  0
   40.7180   34.8450   39.1560 H   0  0  0  0  0  0  0  0  0  0  0  0
   41.7540   32.6230   38.5680 H   0  0  0  0  0  0  0  0  0  0  0  0
   40.4410   25.8000   42.4290 C   0  0  0  0  0  0  0  0  0  0  0  0
   41.2930   24.7140   42.5010 F   0  0  0  0  0  0  0  0  0  0  0  0
   41.0960   26.9260   41.9860 F   0  0  0  0  0  0  0  0  0  0  0  0
   39.9410   26.0460   43.6800 F   0  0  0  0  0  0  0  0  0  0  0  0
  1 20  1  0  0  0  0
  1  7  1  1  0  0  0
  2  9  1  0  0  0  0
  2  1  1  0  0  0  0
  3  2  1  0  0  0  0
  3  4  1  0  0  0  0
  4 12  1  0  0  0  0
  4  5  1  0  0  0  0
  5 15  1  0  0  0  0
  6 16  1  6  0  0  0
  6  5  1  0  0  0  0
  6  1  1  0  0  0  0
  6 33  1  0  0  0  0
  8  2  1  0  0  0  0
 10  3  1  0  0  0  0
 11  3  1  0  0  0  0
 13  4  1  0  0  0  0
 14  5  1  0  0  0  0
 17 18  2  0  0  0  0
 18 19  1  0  0  0  0
 18 22  1  0  0  0  0
 19 23  1  0  0  0  0
 20 19  2  0  0  0  0
 21 17  1  0  0  0  0
 21 20  1  0  0  0  0
 24 30  1  0  0  0  0
 24 29  1  0  0  0  0
 25 24  2  0  0  0  0
 26 25  1  0  0  0  0
 26 27  2  0  0  0  0
 27 28  1  0  0  0  0
 28 29  2  0  0  0  0
 28 17  1  0  0  0  0
 31 25  1  0  0  0  0
 32 26  1  0  0  0  0
 33 34  1  0  0  0  0
 33 36  1  0  0  0  0
 35 33  1  0  0  0  0
M  END
>  <minimizedAffinity>
-5.00596476

$$$$

 OpenBabel03252509183D

 36 38  0  0  1  0  0  0  0  0999 V2000
   38.9550   31.4780   41.2090 C   0  0  1  0  0  0  0  0  0  0  0  0
   40.4190   31.5010   41.4910 C   0  0  0  0  0  0  0  0  0  0  0  0
   41.2310   32.3360   40.5500 C   0  0  0  0  0  0  0  0  0  0  0  0
   40.5800   33.6630   40.2370 C   0  0  0  0  0  0  0  0  0  0  0  0
   39.1120   33.5330   39.9320 C   0  0  0  0  0  0  0  0  0  0  0  0
   38.7370   32.0500   39.7930 C   0  0  2  0  0  0  0  0  0  0  0  0
   38.4550   32.2130   41.8690 H   0  0  0  0  0  0  0  0  0  0  0  0
   40.7870   30.4390   41.3820 H   0  0  0  0  0  0  0  0  0  0  0  0
   40.6300   31.7450   42.5620 H   0  0  0  0  0  0  0  0  0  0  0  0
   41.4810   31.7940   39.6180 H   0  0  0  0  0  0  0  0  0  0  0  0
   42.1970   32.5820   41.0570 H   0  0  0  0  0  0  0  0  0  0  0  0
   40.6930   34.3600   41.1070 H   0  0  0  0  0  0  0  0  0  0  0  0
   41.1530   34.1210   39.4080 H   0  0  0  0  0  0  0  0  0  0  0  0
   38.8990   34.0490   38.9700 H   0  0  0  0  0  0  0  0  0  0  0  0
   38.4810   33.9620   40.7130 H   0  0  0  0  0  0  0  0  0  0  0  0
   39.3410   31.5450   39.0400 H   0  0  0  0  0  0  0  0  0  0  0  0
   37.8100   27.5480   41.2430 C   0  0  0  0  0  0  0  0  0  0  0  0
   37.0360   28.3330   42.1130 C   0  0  0  0  0  0  0  0  0  0  0  0
   37.3160   29.6540   42.1830 C   0  0  0  0  0  0  0  0  0  0  0  0
   38.3540   30.1990   41.4020 C   0  0  0  0  0  0  0  0  0  0  0  0
   38.9760   28.7420   40.5040 S   0  0  0  0  0  0  0  0  0  0  0  0
   36.2410   27.9220   42.7150 H   0  0  0  0  0  0  0  0  0  0  0  0
   36.8420   30.4160   42.7820 H   0  0  0  0  0  0  0  0  0  0  0  0
   36.6730   24.1590   40.2080 C   0  0  0  0  0  0  0  0  0  0  0  0
   37.5820   23.3640   40.9520 C   0  0  0  0  0  0  0  0  0  0  0  0
   38.5370   24.0200   41.7710 C   0  0  0  0  0  0  0  0  0  0  0  0
   38.5050   25.3840   41.7770 N   0  0  0  0  0  0  0  0  0  0  0  0
   37.6270   26.1040   41.0550 C   0  0  0  0  0  0  0  0  0  0  0  0
   36.7210   25.4820   40.2790 N   0  0  0  0  0  0  0  0  0  0  0  0
   35.9320   23.6880   39.5730 H   0  0  0  0  0  0  0  0  0  0  0  0
   37.5550   22.2950   40.9040 H   0  0  0  0  0  0  0  0  0  0  0  0
   39.2530   23.4610   42.3590 H   0  0  0  0  0  0  0  0  0  0  0  0
   37.2540   32.0300   39.4580 C   0  0  0  0  0  0  0  0  0  0  0  0
   36.8900   30.8310   38.8740 F   0  0  0  0  0  0  0  0  0  0  0  0
   36.5240   32.2780   40.5980 F   0  0  0  0  0  0  0  0  0  0  0  0
   37.0240   33.0390   38.5620 F   0  0  0  0  0  0  0  0  0  0  0  0
  1 20  1  0  0  0  0
  1  2  1  0  0  0  0
  1  7  1  1  0  0  0
  2  9  1  0  0  0  0
  3 11  1  0  0  0  0
  3  2  1  0  0  0  0
  4  3  1  0  0  0  0
  4 12  1  0  0  0  0
  5  4  1  0  0  0  0
  5 15  1  0  0  0  0
  6 16  1  6  0  0  0
  6  5  1  0  0  0  0
  6  1  1  0  0  0  0
  8  2  1  0  0  0  0
 10  3  1  0  0  0  0
 13  4  1  0  0  0  0
 14  5  1  0  0  0  0
 17 18  2  0  0  0  0
 18 19  1  0  0  0  0
 18 22  1  0  0  0  0
 19 23  1  0  0  0  0
 20 19  2  0  0  0  0
 21 17  1  0  0  0  0
 21 20  1  0  0  0  0
 24 29  2  0  0  0  0
 24 25  1  0  0  0  0
 25 26  2  0  0  0  0
 26 27  1  0  0  0  0
 26 32  1  0  0  0  0
 28 17  1  0  0  0  0
 28 27  2  0  0  0  0
 29 28  1  0  0  0  0
 30 24  1  0  0  0  0
 31 25  1  0  0  0  0
 33  6  1  0  0  0  0
 33 35  1  0  0  0  0
 34 33  1  0  0  0  0
 36 33  1  0  0  0  0
M  END
>  <minimizedAffinity>
-4.9672637

$$$$

 OpenBabel03252509183D

 36 38  0  0  1  0  0  0  0  0999 V2000
   37.3870   26.5930   40.2200 C   0  0  1  0  0  0  0  0  0  0  0  0
   38.0820   25.4200   39.6170 C   0  0  0  0  0  0  0  0  0  0  0  0
   38.4770   24.3520   40.5880 C   0  0  0  0  0  0  0  0  0  0  0  0
   37.3960   24.0530   41.5990 C   0  0  0  0  0  0  0  0  0  0  0  0
   36.7800   25.2980   42.1780 C   0  0  0  0  0  0  0  0  0  0  0  0
   37.5920   26.5300   41.7480 C   0  0  2  0  0  0  0  0  0  0  0  0
   36.2960   26.4630   40.0960 H   0  0  0  0  0  0  0  0  0  0  0  0
   39.0370   25.8100   39.1560 H   0  0  0  0  0  0  0  0  0  0  0  0
   37.5160   25.0090   38.7440 H   0  0  0  0  0  0  0  0  0  0  0  0
   39.4340   24.5800   41.0950 H   0  0  0  0  0  0  0  0  0  0  0  0
   38.6270   23.4050   40.0120 H   0  0  0  0  0  0  0  0  0  0  0  0
   36.5800   23.4510   41.1220 H   0  0  0  0  0  0  0  0  0  0  0  0
   37.8420   23.3960   42.3710 H   0  0  0  0  0  0  0  0  0  0  0  0
   36.7990   25.2250   43.2880 H   0  0  0  0  0  0  0  0  0  0  0  0
   35.7500   25.4490   41.8490 H   0  0  0  0  0  0  0  0  0  0  0  0
   38.6420   26.4440   42.0280 H   0  0  0  0  0  0  0  0  0  0  0  0
   39.2530   29.9280   38.7510 C   0  0  0  0  0  0  0  0  0  0  0  0
   37.8610   29.9770   38.5720 C   0  0  0  0  0  0  0  0  0  0  0  0
   37.1320   28.9310   39.0250 C   0  0  0  0  0  0  0  0  0  0  0  0
   37.7720   27.8430   39.6500 C   0  0  0  0  0  0  0  0  0  0  0  0
   39.5240   28.3330   39.5950 S   0  0  0  0  0  0  0  0  0  0  0  0
   37.3650   30.8070   38.0930 H   0  0  0  0  0  0  0  0  0  0  0  0
   36.0650   28.7820   38.9840 H   0  0  0  0  0  0  0  0  0  0  0  0
   41.0690   33.1270   38.1890 C   0  0  0  0  0  0  0  0  0  0  0  0
   42.0770   32.6770   37.2990 C   0  0  0  0  0  0  0  0  0  0  0  0
   42.0900   31.3060   36.9340 C   0  0  0  0  0  0  0  0  0  0  0  0
   41.1160   30.5180   37.4740 N   0  0  0  0  0  0  0  0  0  0  0  0
   40.1750   30.9840   38.3170 C   0  0  0  0  0  0  0  0  0  0  0  0
   40.1630   32.2830   38.6640 N   0  0  0  0  0  0  0  0  0  0  0  0
   41.0320   34.1690   38.4880 H   0  0  0  0  0  0  0  0  0  0  0  0
   42.8140   33.3470   36.9080 H   0  0  0  0  0  0  0  0  0  0  0  0
   42.8370   30.9110   36.2580 H   0  0  0  0  0  0  0  0  0  0  0  0
   36.9110   27.7210   42.4040 C   0  0  0  0  0  0  0  0  0  0  0  0
   36.4780   27.4080   43.6790 F   0  0  0  0  0  0  0  0  0  0  0  0
   37.7730   28.7930   42.4140 F   0  0  0  0  0  0  0  0  0  0  0  0
   35.8210   28.0410   41.6400 F   0  0  0  0  0  0  0  0  0  0  0  0
  1  7  1  6  0  0  0
  1  6  1  0  0  0  0
  2  1  1  0  0  0  0
  2  3  1  0  0  0  0
  3 10  1  0  0  0  0
  3  4  1  0  0  0  0
  4  5  1  0  0  0  0
  4 13  1  0  0  0  0
  5 14  1  0  0  0  0
  6 16  1  1  0  0  0
  6  5  1  0  0  0  0
  6 33  1  0  0  0  0
  8  2  1  0  0  0  0
  9  2  1  0  0  0  0
 11  3  1  0  0  0  0
 12  4  1  0  0  0  0
 15  5  1  0  0  0  0
 17 21  1  0  0  0  0
 18 17  2  0  0  0  0
 18 19  1  0  0  0  0
 19 20  2  0  0  0  0
 20  1  1  0  0  0  0
 21 20  1  0  0  0  0
 22 18  1  0  0  0  0
 23 19  1  0  0  0  0
 24 30  1  0  0  0  0
 24 29  1  0  0  0  0
 25 24  2  0  0  0  0
 26 25  1  0  0  0  0
 26 27  2  0  0  0  0
 27 28  1  0  0  0  0
 28 29  2  0  0  0  0
 28 17  1  0  0  0  0
 31 25  1  0  0  0  0
 32 26  1  0  0  0  0
 33 35  1  0  0  0  0
 33 34  1  0  0  0  0
 36 33  1  0  0  0  0
M  END
>  <minimizedAffinity>
-4.9456439

$$$$

 OpenBabel03252509183D

 36 38  0  0  1  0  0  0  0  0999 V2000
   37.9720   30.0820   39.0760 C   0  0  1  0  0  0  0  0  0  0  0  0
   37.7820   30.5020   40.4940 C   0  0  0  0  0  0  0  0  0  0  0  0
   36.3620   30.7540   40.8930 C   0  0  0  0  0  0  0  0  0  0  0  0
   35.4120   29.7060   40.3640 C   0  0  0  0  0  0  0  0  0  0  0  0
   35.6590   29.3740   38.9170 C   0  0  0  0  0  0  0  0  0  0  0  0
   36.6610   30.3720   38.3160 C   0  0  2  0  0  0  0  0  0  0  0  0
   38.0570   28.9790   39.0410 H   0  0  0  0  0  0  0  0  0  0  0  0
   38.3330   31.4800   40.6190 H   0  0  0  0  0  0  0  0  0  0  0  0
   38.3050   29.8120   41.2030 H   0  0  0  0  0  0  0  0  0  0  0  0
   36.0210   31.7690   40.6110 H   0  0  0  0  0  0  0  0  0  0  0  0
   36.3030   30.6850   42.0080 H   0  0  0  0  0  0  0  0  0  0  0  0
   35.5130   28.7610   40.9590 H   0  0  0  0  0  0  0  0  0  0  0  0
   34.3840   30.0710   40.5520 H   0  0  0  0  0  0  0  0  0  0  0  0
   34.6980   29.4530   38.3630 H   0  0  0  0  0  0  0  0  0  0  0  0
   36.0680   28.3710   38.7800 H   0  0  0  0  0  0  0  0  0  0  0  0
   36.3290   31.4030   38.4320 H   0  0  0  0  0  0  0  0  0  0  0  0
   41.5520   30.9530   37.2900 C   0  0  0  0  0  0  0  0  0  0  0  0
   40.7350   32.0880   37.4240 C   0  0  0  0  0  0  0  0  0  0  0  0
   39.5260   31.9270   38.0090 C   0  0  0  0  0  0  0  0  0  0  0  0
   39.1220   30.6540   38.4570 C   0  0  0  0  0  0  0  0  0  0  0  0
   40.5530   29.6140   38.0240 S   0  0  0  0  0  0  0  0  0  0  0  0
   41.0380   33.0660   37.0820 H   0  0  0  0  0  0  0  0  0  0  0  0
   38.7650   32.6660   38.2030 H   0  0  0  0  0  0  0  0  0  0  0  0
   44.5740   30.3490   35.2050 C   0  0  0  0  0  0  0  0  0  0  0  0
   45.4680   31.2710   35.8070 C   0  0  0  0  0  0  0  0  0  0  0  0
   44.9980   32.0540   36.8930 C   0  0  0  0  0  0  0  0  0  0  0  0
   43.7050   31.8540   37.2790 N   0  0  0  0  0  0  0  0  0  0  0  0
   42.8860   30.9680   36.6820 C   0  0  0  0  0  0  0  0  0  0  0  0
   43.3310   30.2260   35.6520 N   0  0  0  0  0  0  0  0  0  0  0  0
   44.9020   29.7360   34.3730 H   0  0  0  0  0  0  0  0  0  0  0  0
   46.4730   31.3810   35.4570 H   0  0  0  0  0  0  0  0  0  0  0  0
   45.6400   32.7720   37.3880 H   0  0  0  0  0  0  0  0  0  0  0  0
   36.8160   29.9710   36.8580 C   0  0  0  0  0  0  0  0  0  0  0  0
   37.2410   31.0380   36.0890 F   0  0  0  0  0  0  0  0  0  0  0  0
   37.6840   28.9070   36.7660 F   0  0  0  0  0  0  0  0  0  0  0  0
   35.5850   29.5730   36.4100 F   0  0  0  0  0  0  0  0  0  0  0  0
  1  7  1  1  0  0  0
  1  2  1  0  0  0  0
  2  8  1  0  0  0  0
  2  3  1  0  0  0  0
  2  9  1  0  0  0  0
  3 11  1  0  0  0  0
  4 13  1  0  0  0  0
  4  3  1  0  0  0  0
  4 12  1  0  0  0  0
  5  4  1  0  0  0  0
  6 16  1  1  0  0  0
  6  5  1  0  0  0  0
  6  1  1  0  0  0  0
 10  3  1  0  0  0  0
 14  5  1  0  0  0  0
 15  5  1  0  0  0  0
 17 18  2  0  0  0  0
 17 21  1  0  0  0  0
 18 19  1  0  0  0  0
 19 23  1  0  0  0  0
 19 20  2  0  0  0  0
 20  1  1  0  0  0  0
 21 20  1  0  0  0  0
 22 18  1  0  0  0  0
 24 29  2  0  0  0  0
 24 25  1  0  0  0  0
 25 26  2  0  0  0  0
 26 27  1  0  0  0  0
 26 32  1  0  0  0  0
 28 27  2  0  0  0  0
 28 17  1  0  0  0  0
 29 28  1  0  0  0  0
 30 24  1  0  0  0  0
 31 25  1  0  0  0  0
 33  6  1  0  0  0  0
 34 33  1  0  0  0  0
 35 33  1  0  0  0  0
 36 33  1  0  0  0  0
M  END
>  <minimizedAffinity>
-4.94508505

$$$$

 OpenBabel03252509183D

 36 38  0  0  1  0  0  0  0  0999 V2000
   38.0610   31.3770   39.7780 C   0  0  1  0  0  0  0  0  0  0  0  0
   37.3020   32.4560   39.0820 C   0  0  0  0  0  0  0  0  0  0  0  0
   37.4700   33.8240   39.6660 C   0  0  0  0  0  0  0  0  0  0  0  0
   38.9040   34.1310   40.0310 C   0  0  0  0  0  0  0  0  0  0  0  0
   39.5740   32.9970   40.7600 C   0  0  0  0  0  0  0  0  0  0  0  0
   38.5330   31.9320   41.1380 C   0  0  2  0  0  0  0  0  0  0  0  0
   39.0030   31.1940   39.2280 H   0  0  0  0  0  0  0  0  0  0  0  0
   36.2070   32.1950   39.1770 H   0  0  0  0  0  0  0  0  0  0  0  0
   37.4820   32.4410   37.9780 H   0  0  0  0  0  0  0  0  0  0  0  0
   36.8020   33.9960   40.5310 H   0  0  0  0  0  0  0  0  0  0  0  0
   37.1900   34.5680   38.8800 H   0  0  0  0  0  0  0  0  0  0  0  0
   39.4970   34.3470   39.1050 H   0  0  0  0  0  0  0  0  0  0  0  0
   38.9000   35.0730   40.6120 H   0  0  0  0  0  0  0  0  0  0  0  0
   40.0360   33.3940   41.6900 H   0  0  0  0  0  0  0  0  0  0  0  0
   40.3440   32.5090   40.1590 H   0  0  0  0  0  0  0  0  0  0  0  0
   37.7170   32.3510   41.7260 H   0  0  0  0  0  0  0  0  0  0  0  0
   36.6560   27.5320   39.7190 C   0  0  0  0  0  0  0  0  0  0  0  0
   35.7740   28.4090   40.3720 C   0  0  0  0  0  0  0  0  0  0  0  0
   36.1270   29.7120   40.4490 C   0  0  0  0  0  0  0  0  0  0  0  0
   37.3430   30.1500   39.8870 C   0  0  0  0  0  0  0  0  0  0  0  0
   38.0330   28.6120   39.2010 S   0  0  0  0  0  0  0  0  0  0  0  0
   34.8420   28.0800   40.8060 H   0  0  0  0  0  0  0  0  0  0  0  0
   35.5930   30.5320   40.9030 H   0  0  0  0  0  0  0  0  0  0  0  0
   35.7050   24.1520   38.4880 C   0  0  0  0  0  0  0  0  0  0  0  0
   36.1170   23.3690   39.5960 C   0  0  0  0  0  0  0  0  0  0  0  0
   36.6990   24.0300   40.7090 C   0  0  0  0  0  0  0  0  0  0  0  0
   36.8160   25.3870   40.6240 N   0  0  0  0  0  0  0  0  0  0  0  0
   36.4130   26.0950   39.5530 C   0  0  0  0  0  0  0  0  0  0  0  0
   35.8620   25.4680   38.4980 N   0  0  0  0  0  0  0  0  0  0  0  0
   35.2580   23.6770   37.6220 H   0  0  0  0  0  0  0  0  0  0  0  0
   35.9970   22.3060   39.6030 H   0  0  0  0  0  0  0  0  0  0  0  0
   37.0300   23.4790   41.5800 H   0  0  0  0  0  0  0  0  0  0  0  0
   39.3000   30.8560   41.8900 C   0  0  0  0  0  0  0  0  0  0  0  0
   38.4400   29.9720   42.5120 F   0  0  0  0  0  0  0  0  0  0  0  0
   40.1480   30.2070   41.0210 F   0  0  0  0  0  0  0  0  0  0  0  0
   40.0500   31.4830   42.8490 F   0  0  0  0  0  0  0  0  0  0  0  0
  1  7  1  6  0  0  0
  1 20  1  0  0  0  0
  1  6  1  0  0  0  0
  2  8  1  0  0  0  0
  2  3  1  0  0  0  0
  2  1  1  0  0  0  0
  3  4  1  0  0  0  0
  3 10  1  0  0  0  0
  4 13  1  0  0  0  0
  4  5  1  0  0  0  0
  5  6  1  0  0  0  0
  5 14  1  0  0  0  0
  6 16  1  1  0  0  0
  6 33  1  0  0  0  0
  9  2  1  0  0  0  0
 11  3  1  0  0  0  0
 12  4  1  0  0  0  0
 15  5  1  0  0  0  0
 17 18  2  0  0  0  0
 18 19  1  0  0  0  0
 18 22  1  0  0  0  0
 19 23  1  0  0  0  0
 20 19  2  0  0  0  0
 21 17  1  0  0  0  0
 21 20  1  0  0  0  0
 24 29  2  0  0  0  0
 24 25  1  0  0  0  0
 25 31  1  0  0  0  0
 25 26  2  0  0  0  0
 26 32  1  0  0  0  0
 27 26  1  0  0  0  0
 28 17  1  0  0  0  0
 28 27  2  0  0  0  0
 29 28  1  0  0  0  0
 30 24  1  0  0  0  0
 33 34  1  0  0  0  0
 33 36  1  0  0  0  0
 35 33  1  0  0  0  0
M  END
>  <minimizedAffinity>
-4.89772511

$$$$
