
 OpenBabel03252505233D

 35 37  0  0  1  0  0  0  0  0999 V2000
   40.0330   29.8320   40.1990 F   0  0  0  0  0  0  0  0  0  0  0  0
   38.8660   30.5040   40.2850 C   0  0  0  0  0  0  0  0  0  0  0  0
   38.7490   31.7280   39.6650 C   0  0  0  0  0  0  0  0  0  0  0  0
   37.5610   32.3940   39.7580 C   0  0  0  0  0  0  0  0  0  0  0  0
   36.5160   31.8250   40.4690 C   0  0  0  0  0  0  0  0  0  0  0  0
   36.6230   30.6140   41.0870 C   0  0  0  0  0  0  0  0  0  0  0  0
   37.8480   29.9390   40.9840 C   0  0  0  0  0  0  0  0  0  0  0  0
   37.5010   33.3540   39.2600 H   0  0  0  0  0  0  0  0  0  0  0  0
   35.6200   32.4470   40.4750 H   0  0  0  0  0  0  0  0  0  0  0  0
   35.7310   30.3200   41.5870 H   0  0  0  0  0  0  0  0  0  0  0  0
   37.8940   28.6800   41.6480 N   0  0  0  0  0  0  0  0  0  0  0  0
   38.9040   28.1250   42.5280 C   0  0  0  0  0  0  0  0  0  0  0  0
   38.0810   27.5740   43.6770 C   0  0  0  0  0  0  0  0  0  0  0  0
   36.6850   27.4330   43.1170 C   0  0  0  0  0  0  0  0  0  0  0  0
   36.9360   27.6050   41.6350 C   0  0  2  0  0  0  0  0  0  0  0  0
   39.4790   28.9940   42.9590 H   0  0  0  0  0  0  0  0  0  0  0  0
   39.5950   27.4240   42.0730 H   0  0  0  0  0  0  0  0  0  0  0  0
   38.4430   26.5280   43.8500 H   0  0  0  0  0  0  0  0  0  0  0  0
   38.1330   28.1910   44.5810 H   0  0  0  0  0  0  0  0  0  0  0  0
   36.2060   26.4780   43.3730 H   0  0  0  0  0  0  0  0  0  0  0  0
   36.0800   28.3080   43.4510 H   0  0  0  0  0  0  0  0  0  0  0  0
   35.9930   28.0020   41.2050 H   0  0  0  0  0  0  0  0  0  0  0  0
   37.3680   26.3470   40.9680 C   0  0  0  0  0  0  0  0  0  0  0  0
   38.4880   26.4970   40.1800 F   0  0  0  0  0  0  0  0  0  0  0  0
   37.4060   25.2660   41.8070 F   0  0  0  0  0  0  0  0  0  0  0  0
   36.3480   26.0380   40.0450 F   0  0  0  0  0  0  0  0  0  0  0  0
   41.3540   32.1780   37.1180 C   0  0  0  0  0  0  0  0  0  0  0  0
   42.0500   33.3350   37.5870 C   0  0  0  0  0  0  0  0  0  0  0  0
   41.5810   33.9260   38.7890 C   0  0  0  0  0  0  0  0  0  0  0  0
   40.5090   33.3610   39.4160 N   0  0  0  0  0  0  0  0  0  0  0  0
   39.8920   32.2710   38.9310 C   0  0  0  0  0  0  0  0  0  0  0  0
   40.3030   31.6780   37.7920 N   0  0  0  0  0  0  0  0  0  0  0  0
   41.6320   31.6640   36.2240 H   0  0  0  0  0  0  0  0  0  0  0  0
   42.8750   33.7030   37.0290 H   0  0  0  0  0  0  0  0  0  0  0  0
   42.0850   34.7920   39.1590 H   0  0  0  0  0  0  0  0  0  0  0  0
  1  2  1  0  0  0  0
  2  7  1  0  0  0  0
  3  4  1  0  0  0  0
  3  2  2  0  0  0  0
  4  5  2  0  0  0  0
  5  9  1  0  0  0  0
  5  6  1  0  0  0  0
  6 10  1  0  0  0  0
  7  6  2  0  0  0  0
  7 11  1  0  0  0  0
  8  4  1  0  0  0  0
 11 12  1  0  0  0  0
 12 16  1  0  0  0  0
 12 13  1  0  0  0  0
 13 18  1  0  0  0  0
 13 19  1  0  0  0  0
 14 20  1  0  0  0  0
 14 21  1  0  0  0  0
 14 13  1  0  0  0  0
 15 22  1  6  0  0  0
 15 11  1  0  0  0  0
 15 14  1  0  0  0  0
 17 12  1  0  0  0  0
 23 15  1  0  0  0  0
 23 25  1  0  0  0  0
 24 23  1  0  0  0  0
 26 23  1  0  0  0  0
 27 28  2  0  0  0  0
 27 32  1  0  0  0  0
 28 29  1  0  0  0  0
 29 35  1  0  0  0  0
 29 30  2  0  0  0  0
 31 30  1  0  0  0  0
 31  3  1  0  0  0  0
 32 31  2  0  0  0  0
 33 27  1  0  0  0  0
 34 28  1  0  0  0  0
M  END
>  <minimizedAffinity>
-5.48572063

$$$$

 OpenBabel03252505233D

 35 37  0  0  1  0  0  0  0  0999 V2000
   39.8660   29.4810   40.8080 F   0  0  0  0  0  0  0  0  0  0  0  0
   38.5190   29.5230   40.7410 C   0  0  0  0  0  0  0  0  0  0  0  0
   37.8990   30.7090   40.4200 C   0  0  0  0  0  0  0  0  0  0  0  0
   36.5360   30.7340   40.3530 C   0  0  0  0  0  0  0  0  0  0  0  0
   35.8210   29.5750   40.6080 C   0  0  0  0  0  0  0  0  0  0  0  0
   36.4260   28.3950   40.9280 C   0  0  0  0  0  0  0  0  0  0  0  0
   37.8260   28.3820   40.9940 C   0  0  0  0  0  0  0  0  0  0  0  0
   36.0780   31.6830   40.0980 H   0  0  0  0  0  0  0  0  0  0  0  0
   34.7420   29.7160   40.5260 H   0  0  0  0  0  0  0  0  0  0  0  0
   35.7350   27.6030   41.0930 H   0  0  0  0  0  0  0  0  0  0  0  0
   38.3970   27.1210   41.3290 N   0  0  0  0  0  0  0  0  0  0  0  0
   39.5040   26.4060   40.7250 C   0  0  0  0  0  0  0  0  0  0  0  0
   40.3180   25.9710   41.9290 C   0  0  0  0  0  0  0  0  0  0  0  0
   39.3590   26.0520   43.0920 C   0  0  0  0  0  0  0  0  0  0  0  0
   38.0330   26.2050   42.3790 C   0  0  2  0  0  0  0  0  0  0  0  0
   40.1390   27.1710   40.1940 H   0  0  0  0  0  0  0  0  0  0  0  0
   39.2360   25.6140   40.0350 H   0  0  0  0  0  0  0  0  0  0  0  0
   40.5290   24.8790   41.7880 H   0  0  0  0  0  0  0  0  0  0  0  0
   41.2320   26.5590   42.0680 H   0  0  0  0  0  0  0  0  0  0  0  0
   39.4020   25.1770   43.7560 H   0  0  0  0  0  0  0  0  0  0  0  0
   39.5480   27.0030   43.6410 H   0  0  0  0  0  0  0  0  0  0  0  0
   37.3650   26.7470   43.0810 H   0  0  0  0  0  0  0  0  0  0  0  0
   37.4520   24.9050   41.9460 C   0  0  0  0  0  0  0  0  0  0  0  0
   36.9340   24.9310   40.6700 F   0  0  0  0  0  0  0  0  0  0  0  0
   38.2560   23.8290   42.2100 F   0  0  0  0  0  0  0  0  0  0  0  0
   36.3200   24.7050   42.7630 F   0  0  0  0  0  0  0  0  0  0  0  0
   40.4260   32.9500   38.9820 C   0  0  0  0  0  0  0  0  0  0  0  0
   40.2210   34.1600   39.7160 C   0  0  0  0  0  0  0  0  0  0  0  0
   39.1960   34.1530   40.6970 C   0  0  0  0  0  0  0  0  0  0  0  0
   38.4790   33.0070   40.8800 N   0  0  0  0  0  0  0  0  0  0  0  0
   38.7150   31.8960   40.1620 C   0  0  0  0  0  0  0  0  0  0  0  0
   39.6770   31.8590   39.2190 N   0  0  0  0  0  0  0  0  0  0  0  0
   41.1730   32.8580   38.2240 H   0  0  0  0  0  0  0  0  0  0  0  0
   40.8310   35.0030   39.5020 H   0  0  0  0  0  0  0  0  0  0  0  0
   39.0240   35.0460   41.2570 H   0  0  0  0  0  0  0  0  0  0  0  0
  2  1  1  0  0  0  0
  2  7  1  0  0  0  0
  3  2  2  0  0  0  0
  4  3  1  0  0  0  0
  4  5  2  0  0  0  0
  5  6  1  0  0  0  0
  6  7  2  0  0  0  0
  6 10  1  0  0  0  0
  7 11  1  0  0  0  0
  8  4  1  0  0  0  0
  9  5  1  0  0  0  0
 11 15  1  0  0  0  0
 12 11  1  0  0  0  0
 12 13  1  0  0  0  0
 13 19  1  0  0  0  0
 13 14  1  0  0  0  0
 14 21  1  0  0  0  0
 14 20  1  0  0  0  0
 15 22  1  1  0  0  0
 15 14  1  0  0  0  0
 16 12  1  0  0  0  0
 17 12  1  0  0  0  0
 18 13  1  0  0  0  0
 23 25  1  0  0  0  0
 23 15  1  0  0  0  0
 23 26  1  0  0  0  0
 24 23  1  0  0  0  0
 27 32  2  0  0  0  0
 27 28  1  0  0  0  0
 28 29  2  0  0  0  0
 29 30  1  0  0  0  0
 29 35  1  0  0  0  0
 31  3  1  0  0  0  0
 31 30  2  0  0  0  0
 32 31  1  0  0  0  0
 33 27  1  0  0  0  0
 34 28  1  0  0  0  0
M  END
>  <minimizedAffinity>
-5.38809538

$$$$

 OpenBabel03252505233D

 35 37  0  0  1  0  0  0  0  0999 V2000
   37.5260   27.6380   39.5210 F   0  0  0  0  0  0  0  0  0  0  0  0
   37.6200   27.8700   40.8460 C   0  0  0  0  0  0  0  0  0  0  0  0
   37.7140   26.8030   41.7100 C   0  0  0  0  0  0  0  0  0  0  0  0
   37.8120   27.0550   43.0480 C   0  0  0  0  0  0  0  0  0  0  0  0
   37.8120   28.3670   43.4950 C   0  0  0  0  0  0  0  0  0  0  0  0
   37.7180   29.4310   42.6470 C   0  0  0  0  0  0  0  0  0  0  0  0
   37.6190   29.1590   41.2750 C   0  0  0  0  0  0  0  0  0  0  0  0
   37.8850   26.1930   43.7020 H   0  0  0  0  0  0  0  0  0  0  0  0
   37.8940   28.4440   44.5800 H   0  0  0  0  0  0  0  0  0  0  0  0
   37.7340   30.3680   43.1500 H   0  0  0  0  0  0  0  0  0  0  0  0
   37.5270   30.3120   40.4430 N   0  0  0  0  0  0  0  0  0  0  0  0
   36.7250   31.5100   40.5920 C   0  0  0  0  0  0  0  0  0  0  0  0
   37.7220   32.6180   40.3120 C   0  0  0  0  0  0  0  0  0  0  0  0
   38.8480   31.9420   39.5640 C   0  0  0  0  0  0  0  0  0  0  0  0
   38.2200   30.6090   39.2170 C   0  0  2  0  0  0  0  0  0  0  0  0
   36.4720   31.6030   41.6870 H   0  0  0  0  0  0  0  0  0  0  0  0
   35.8140   31.5450   40.0060 H   0  0  0  0  0  0  0  0  0  0  0  0
   37.2340   33.3000   39.5690 H   0  0  0  0  0  0  0  0  0  0  0  0
   38.0480   33.1450   41.2160 H   0  0  0  0  0  0  0  0  0  0  0  0
   39.1900   32.5080   38.6860 H   0  0  0  0  0  0  0  0  0  0  0  0
   39.6760   31.7390   40.2810 H   0  0  0  0  0  0  0  0  0  0  0  0
   39.0590   29.8890   39.1220 H   0  0  0  0  0  0  0  0  0  0  0  0
   37.3870   30.6620   37.9860 C   0  0  0  0  0  0  0  0  0  0  0  0
   36.1380   30.1010   38.1410 F   0  0  0  0  0  0  0  0  0  0  0  0
   37.3870   31.8860   37.3740 F   0  0  0  0  0  0  0  0  0  0  0  0
   38.0230   29.8090   37.0610 F   0  0  0  0  0  0  0  0  0  0  0  0
   38.8570   23.5080   40.5620 C   0  0  0  0  0  0  0  0  0  0  0  0
   37.6380   22.8840   40.1490 C   0  0  0  0  0  0  0  0  0  0  0  0
   36.4470   23.6430   40.2870 C   0  0  0  0  0  0  0  0  0  0  0  0
   36.5350   24.9040   40.7980 N   0  0  0  0  0  0  0  0  0  0  0  0
   37.7080   25.4430   41.1710 C   0  0  0  0  0  0  0  0  0  0  0  0
   38.8630   24.7580   41.0580 N   0  0  0  0  0  0  0  0  0  0  0  0
   39.8030   23.0180   40.4970 H   0  0  0  0  0  0  0  0  0  0  0  0
   37.6710   21.8960   39.7620 H   0  0  0  0  0  0  0  0  0  0  0  0
   35.5240   23.1970   39.9840 H   0  0  0  0  0  0  0  0  0  0  0  0
  1  2  1  0  0  0  0
  2  7  2  0  0  0  0
  2  3  1  0  0  0  0
  3  4  2  0  0  0  0
  4  5  1  0  0  0  0
  4  8  1  0  0  0  0
  5  9  1  0  0  0  0
  6 10  1  0  0  0  0
  6  5  2  0  0  0  0
  7  6  1  0  0  0  0
 11 12  1  0  0  0  0
 11  7  1  0  0  0  0
 12 16  1  0  0  0  0
 13 12  1  0  0  0  0
 13 19  1  0  0  0  0
 14 21  1  0  0  0  0
 14 13  1  0  0  0  0
 15 22  1  6  0  0  0
 15 14  1  0  0  0  0
 15 11  1  0  0  0  0
 17 12  1  0  0  0  0
 18 13  1  0  0  0  0
 20 14  1  0  0  0  0
 23 24  1  0  0  0  0
 23 15  1  0  0  0  0
 25 23  1  0  0  0  0
 26 23  1  0  0  0  0
 27 32  1  0  0  0  0
 28 29  1  0  0  0  0
 28 27  2  0  0  0  0
 29 30  2  0  0  0  0
 30 31  1  0  0  0  0
 31  3  1  0  0  0  0
 32 31  2  0  0  0  0
 33 27  1  0  0  0  0
 34 28  1  0  0  0  0
 35 29  1  0  0  0  0
M  END
>  <minimizedAffinity>
-5.33045673

$$$$

 OpenBabel03252505233D

 35 37  0  0  1  0  0  0  0  0999 V2000
   39.0750   29.7520   41.5360 F   0  0  0  0  0  0  0  0  0  0  0  0
   38.0010   29.6100   40.7340 C   0  0  0  0  0  0  0  0  0  0  0  0
   37.6500   30.6410   39.8920 C   0  0  0  0  0  0  0  0  0  0  0  0
   36.5620   30.4800   39.0830 C   0  0  0  0  0  0  0  0  0  0  0  0
   35.8460   29.2940   39.1330 C   0  0  0  0  0  0  0  0  0  0  0  0
   36.1850   28.2670   39.9650 C   0  0  0  0  0  0  0  0  0  0  0  0
   37.3050   28.4440   40.7900 C   0  0  0  0  0  0  0  0  0  0  0  0
   36.3120   31.3100   38.4330 H   0  0  0  0  0  0  0  0  0  0  0  0
   35.0000   29.2810   38.4460 H   0  0  0  0  0  0  0  0  0  0  0  0
   35.5360   27.4290   39.8790 H   0  0  0  0  0  0  0  0  0  0  0  0
   37.6080   27.3350   41.6310 N   0  0  0  0  0  0  0  0  0  0  0  0
   36.8040   26.6870   42.6490 C   0  0  0  0  0  0  0  0  0  0  0  0
   36.9840   25.2150   42.3300 C   0  0  0  0  0  0  0  0  0  0  0  0
   38.2370   25.1540   41.4890 C   0  0  0  0  0  0  0  0  0  0  0  0
   38.8070   26.5400   41.6970 C   0  0  2  0  0  0  0  0  0  0  0  0
   35.7260   26.9170   42.4110 H   0  0  0  0  0  0  0  0  0  0  0  0
   37.0180   26.9710   43.6730 H   0  0  0  0  0  0  0  0  0  0  0  0
   37.2450   24.7140   43.2970 H   0  0  0  0  0  0  0  0  0  0  0  0
   36.1070   24.7670   41.8490 H   0  0  0  0  0  0  0  0  0  0  0  0
   38.9230   24.3490   41.7860 H   0  0  0  0  0  0  0  0  0  0  0  0
   37.9400   25.0770   40.4180 H   0  0  0  0  0  0  0  0  0  0  0  0
   39.4090   26.7650   40.7910 H   0  0  0  0  0  0  0  0  0  0  0  0
   39.6080   26.6590   42.9440 C   0  0  0  0  0  0  0  0  0  0  0  0
   39.3210   27.7890   43.6790 F   0  0  0  0  0  0  0  0  0  0  0  0
   39.6590   25.5040   43.6770 F   0  0  0  0  0  0  0  0  0  0  0  0
   40.9380   26.8640   42.5220 F   0  0  0  0  0  0  0  0  0  0  0  0
   38.7910   34.0540   40.6170 C   0  0  0  0  0  0  0  0  0  0  0  0
   39.9940   34.1480   39.8510 C   0  0  0  0  0  0  0  0  0  0  0  0
   40.3710   33.0040   39.0990 C   0  0  0  0  0  0  0  0  0  0  0  0
   39.5720   31.9000   39.1520 N   0  0  0  0  0  0  0  0  0  0  0  0
   38.4490   31.8660   39.8900 C   0  0  0  0  0  0  0  0  0  0  0  0
   38.0550   32.9290   40.6190 N   0  0  0  0  0  0  0  0  0  0  0  0
   38.4260   34.8610   41.2140 H   0  0  0  0  0  0  0  0  0  0  0  0
   40.5510   35.0520   39.8730 H   0  0  0  0  0  0  0  0  0  0  0  0
   41.2660   33.0510   38.5190 H   0  0  0  0  0  0  0  0  0  0  0  0
  2  7  1  0  0  0  0
  2  1  1  0  0  0  0
  3  2  2  0  0  0  0
  4  5  2  0  0  0  0
  4  3  1  0  0  0  0
  5  6  1  0  0  0  0
  6  7  2  0  0  0  0
  7 11  1  0  0  0  0
  8  4  1  0  0  0  0
  9  5  1  0  0  0  0
 10  6  1  0  0  0  0
 11 15  1  0  0  0  0
 11 12  1  0  0  0  0
 12 17  1  0  0  0  0
 13 12  1  0  0  0  0
 13 18  1  0  0  0  0
 14 15  1  0  0  0  0
 14 20  1  0  0  0  0
 14 13  1  0  0  0  0
 15 22  1  6  0  0  0
 15 23  1  0  0  0  0
 16 12  1  0  0  0  0
 19 13  1  0  0  0  0
 21 14  1  0  0  0  0
 23 25  1  0  0  0  0
 23 24  1  0  0  0  0
 26 23  1  0  0  0  0
 27 32  1  0  0  0  0
 27 33  1  0  0  0  0
 28 34  1  0  0  0  0
 28 27  2  0  0  0  0
 29 30  2  0  0  0  0
 29 28  1  0  0  0  0
 30 31  1  0  0  0  0
 31  3  1  0  0  0  0
 31 32  2  0  0  0  0
 35 29  1  0  0  0  0
M  END
>  <minimizedAffinity>
-5.31015778

$$$$

 OpenBabel03252505233D

 35 37  0  0  1  0  0  0  0  0999 V2000
   37.3840   27.5150   38.8950 F   0  0  0  0  0  0  0  0  0  0  0  0
   37.1390   28.6280   39.6170 C   0  0  0  0  0  0  0  0  0  0  0  0
   36.4530   29.6700   39.0340 C   0  0  0  0  0  0  0  0  0  0  0  0
   36.2100   30.7880   39.7780 C   0  0  0  0  0  0  0  0  0  0  0  0
   36.6580   30.8430   41.0890 C   0  0  0  0  0  0  0  0  0  0  0  0
   37.3390   29.8170   41.6750 C   0  0  0  0  0  0  0  0  0  0  0  0
   37.5820   28.6740   40.9010 C   0  0  0  0  0  0  0  0  0  0  0  0
   35.6680   31.5900   39.2900 H   0  0  0  0  0  0  0  0  0  0  0  0
   36.4070   31.7830   41.5820 H   0  0  0  0  0  0  0  0  0  0  0  0
   37.6100   30.0190   42.6840 H   0  0  0  0  0  0  0  0  0  0  0  0
   38.2940   27.6380   41.5700 N   0  0  0  0  0  0  0  0  0  0  0  0
   39.6860   27.2450   41.4680 C   0  0  0  0  0  0  0  0  0  0  0  0
   40.1000   27.1000   42.9200 C   0  0  0  0  0  0  0  0  0  0  0  0
   38.8020   26.9480   43.6780 C   0  0  0  0  0  0  0  0  0  0  0  0
   37.8240   26.6940   42.5500 C   0  0  2  0  0  0  0  0  0  0  0  0
   40.2530   28.1390   41.0820 H   0  0  0  0  0  0  0  0  0  0  0  0
   39.8900   26.3860   40.8390 H   0  0  0  0  0  0  0  0  0  0  0  0
   40.6150   26.1090   43.0030 H   0  0  0  0  0  0  0  0  0  0  0  0
   40.7240   27.9280   43.2770 H   0  0  0  0  0  0  0  0  0  0  0  0
   38.8260   26.1450   44.4270 H   0  0  0  0  0  0  0  0  0  0  0  0
   38.5370   27.9320   44.1270 H   0  0  0  0  0  0  0  0  0  0  0  0
   36.8370   27.0500   42.9120 H   0  0  0  0  0  0  0  0  0  0  0  0
   37.7840   25.2690   42.1250 C   0  0  0  0  0  0  0  0  0  0  0  0
   37.7970   25.1020   40.7580 F   0  0  0  0  0  0  0  0  0  0  0  0
   38.6630   24.4680   42.8020 F   0  0  0  0  0  0  0  0  0  0  0  0
   36.5120   24.7960   42.5080 F   0  0  0  0  0  0  0  0  0  0  0  0
   36.4430   29.7330   35.3630 C   0  0  0  0  0  0  0  0  0  0  0  0
   35.1200   29.2900   35.0490 C   0  0  0  0  0  0  0  0  0  0  0  0
   34.2670   28.9810   36.1410 C   0  0  0  0  0  0  0  0  0  0  0  0
   34.7550   29.1240   37.4070 N   0  0  0  0  0  0  0  0  0  0  0  0
   36.0090   29.5450   37.6450 C   0  0  0  0  0  0  0  0  0  0  0  0
   36.8520   29.8490   36.6390 N   0  0  0  0  0  0  0  0  0  0  0  0
   37.1560   29.9880   34.6100 H   0  0  0  0  0  0  0  0  0  0  0  0
   34.8310   29.2100   34.0300 H   0  0  0  0  0  0  0  0  0  0  0  0
   33.2750   28.6480   35.9310 H   0  0  0  0  0  0  0  0  0  0  0  0
  1  2  1  0  0  0  0
  2  7  1  0  0  0  0
  3  2  2  0  0  0  0
  3  4  1  0  0  0  0
  4  5  2  0  0  0  0
  5  9  1  0  0  0  0
  5  6  1  0  0  0  0
  6 10  1  0  0  0  0
  7 11  1  0  0  0  0
  7  6  2  0  0  0  0
  8  4  1  0  0  0  0
 11 15  1  0  0  0  0
 12 11  1  0  0  0  0
 12 13  1  0  0  0  0
 13 18  1  0  0  0  0
 13 19  1  0  0  0  0
 13 14  1  0  0  0  0
 14 21  1  0  0  0  0
 14 20  1  0  0  0  0
 15 22  1  1  0  0  0
 15 14  1  0  0  0  0
 16 12  1  0  0  0  0
 17 12  1  0  0  0  0
 23 26  1  0  0  0  0
 23 15  1  0  0  0  0
 23 25  1  0  0  0  0
 24 23  1  0  0  0  0
 27 32  1  0  0  0  0
 28 27  2  0  0  0  0
 28 29  1  0  0  0  0
 29 30  2  0  0  0  0
 30 31  1  0  0  0  0
 31  3  1  0  0  0  0
 32 31  2  0  0  0  0
 33 27  1  0  0  0  0
 34 28  1  0  0  0  0
 35 29  1  0  0  0  0
M  END
>  <minimizedAffinity>
-5.289114

$$$$

 OpenBabel03252505233D

 35 37  0  0  1  0  0  0  0  0999 V2000
   40.4110   30.3920   39.6500 F   0  0  0  0  0  0  0  0  0  0  0  0
   39.3220   31.1820   39.7420 C   0  0  0  0  0  0  0  0  0  0  0  0
   39.4380   32.5240   39.4520 C   0  0  0  0  0  0  0  0  0  0  0  0
   38.3250   33.3090   39.5460 C   0  0  0  0  0  0  0  0  0  0  0  0
   37.1210   32.7390   39.9280 C   0  0  0  0  0  0  0  0  0  0  0  0
   36.9960   31.4120   40.2180 C   0  0  0  0  0  0  0  0  0  0  0  0
   38.1450   30.6160   40.1170 C   0  0  0  0  0  0  0  0  0  0  0  0
   38.4500   34.3590   39.3120 H   0  0  0  0  0  0  0  0  0  0  0  0
   36.3050   33.4620   39.9690 H   0  0  0  0  0  0  0  0  0  0  0  0
   36.0060   31.1370   40.4930 H   0  0  0  0  0  0  0  0  0  0  0  0
   37.9490   29.2400   40.4290 N   0  0  0  0  0  0  0  0  0  0  0  0
   37.5070   28.1450   39.5880 C   0  0  0  0  0  0  0  0  0  0  0  0
   38.5010   27.0470   39.9190 C   0  0  0  0  0  0  0  0  0  0  0  0
   39.0940   27.4530   41.2470 C   0  0  0  0  0  0  0  0  0  0  0  0
   38.1460   28.5510   41.6780 C   0  0  2  0  0  0  0  0  0  0  0  0
   37.7280   28.4390   38.5220 H   0  0  0  0  0  0  0  0  0  0  0  0
   36.4620   27.8690   39.6800 H   0  0  0  0  0  0  0  0  0  0  0  0
   37.8960   26.1280   40.1280 H   0  0  0  0  0  0  0  0  0  0  0  0
   39.2470   26.8890   39.1330 H   0  0  0  0  0  0  0  0  0  0  0  0
   39.1620   26.6250   41.9660 H   0  0  0  0  0  0  0  0  0  0  0  0
   40.0850   27.9290   41.0610 H   0  0  0  0  0  0  0  0  0  0  0  0
   38.7300   29.2210   42.3420 H   0  0  0  0  0  0  0  0  0  0  0  0
   36.9210   28.0330   42.3440 C   0  0  0  0  0  0  0  0  0  0  0  0
   36.8380   28.3630   43.6790 F   0  0  0  0  0  0  0  0  0  0  0  0
   35.7730   28.2550   41.6330 F   0  0  0  0  0  0  0  0  0  0  0  0
   37.0600   26.6300   42.3540 F   0  0  0  0  0  0  0  0  0  0  0  0
   42.7450   34.1090   39.6110 C   0  0  0  0  0  0  0  0  0  0  0  0
   43.1820   34.0510   38.2500 C   0  0  0  0  0  0  0  0  0  0  0  0
   42.2980   33.4540   37.3140 C   0  0  0  0  0  0  0  0  0  0  0  0
   41.1010   32.9780   37.7620 N   0  0  0  0  0  0  0  0  0  0  0  0
   40.7400   33.0590   39.0540 C   0  0  0  0  0  0  0  0  0  0  0  0
   41.5480   33.6170   39.9770 N   0  0  0  0  0  0  0  0  0  0  0  0
   43.3400   34.5390   40.3860 H   0  0  0  0  0  0  0  0  0  0  0  0
   44.1340   34.4490   37.9970 H   0  0  0  0  0  0  0  0  0  0  0  0
   42.6030   33.3990   36.2920 H   0  0  0  0  0  0  0  0  0  0  0  0
  1  2  1  0  0  0  0
  2  7  1  0  0  0  0
  3  4  1  0  0  0  0
  3  2  2  0  0  0  0
  4  5  2  0  0  0  0
  5  9  1  0  0  0  0
  5  6  1  0  0  0  0
  6 10  1  0  0  0  0
  7  6  2  0  0  0  0
  7 11  1  0  0  0  0
  8  4  1  0  0  0  0
 11 15  1  0  0  0  0
 12 17  1  0  0  0  0
 12 13  1  0  0  0  0
 12 11  1  0  0  0  0
 13 18  1  0  0  0  0
 13 14  1  0  0  0  0
 14 15  1  0  0  0  0
 14 20  1  0  0  0  0
 15 22  1  1  0  0  0
 15 23  1  0  0  0  0
 16 12  1  0  0  0  0
 19 13  1  0  0  0  0
 21 14  1  0  0  0  0
 23 26  1  0  0  0  0
 23 24  1  0  0  0  0
 25 23  1  0  0  0  0
 27 32  1  0  0  0  0
 27 33  1  0  0  0  0
 28 27  2  0  0  0  0
 29 30  2  0  0  0  0
 29 28  1  0  0  0  0
 30 31  1  0  0  0  0
 31  3  1  0  0  0  0
 31 32  2  0  0  0  0
 34 28  1  0  0  0  0
 35 29  1  0  0  0  0
M  END
>  <minimizedAffinity>
-5.28406811

$$$$

 OpenBabel03252505233D

 35 37  0  0  1  0  0  0  0  0999 V2000
   38.1130   27.6080   39.5010 F   0  0  0  0  0  0  0  0  0  0  0  0
   37.9970   27.9490   40.8010 C   0  0  0  0  0  0  0  0  0  0  0  0
   37.8140   26.9600   41.7410 C   0  0  0  0  0  0  0  0  0  0  0  0
   37.7030   27.3210   43.0530 C   0  0  0  0  0  0  0  0  0  0  0  0
   37.7750   28.6610   43.3980 C   0  0  0  0  0  0  0  0  0  0  0  0
   37.9550   29.6480   42.4740 C   0  0  0  0  0  0  0  0  0  0  0  0
   38.0690   29.2650   41.1300 C   0  0  0  0  0  0  0  0  0  0  0  0
   37.5600   26.5190   43.7670 H   0  0  0  0  0  0  0  0  0  0  0  0
   37.6720   28.8270   44.4710 H   0  0  0  0  0  0  0  0  0  0  0  0
   37.9900   30.6210   42.9040 H   0  0  0  0  0  0  0  0  0  0  0  0
   38.2580   30.3410   40.2160 N   0  0  0  0  0  0  0  0  0  0  0  0
   38.8200   30.3430   38.8790 C   0  0  0  0  0  0  0  0  0  0  0  0
   37.8190   31.1720   38.0970 C   0  0  0  0  0  0  0  0  0  0  0  0
   37.0640   31.9540   39.1460 C   0  0  0  0  0  0  0  0  0  0  0  0
   37.9310   31.7350   40.3670 C   0  0  2  0  0  0  0  0  0  0  0  0
   38.7200   29.2940   38.4780 H   0  0  0  0  0  0  0  0  0  0  0  0
   39.8520   30.6650   38.8010 H   0  0  0  0  0  0  0  0  0  0  0  0
   38.4150   31.9300   37.5280 H   0  0  0  0  0  0  0  0  0  0  0  0
   37.1740   30.5710   37.4470 H   0  0  0  0  0  0  0  0  0  0  0  0
   36.9300   33.0140   38.8880 H   0  0  0  0  0  0  0  0  0  0  0  0
   36.0920   31.4440   39.3360 H   0  0  0  0  0  0  0  0  0  0  0  0
   37.2570   31.8280   41.2440 H   0  0  0  0  0  0  0  0  0  0  0  0
   39.0800   32.6760   40.4420 C   0  0  0  0  0  0  0  0  0  0  0  0
   40.2260   32.1070   40.9520 F   0  0  0  0  0  0  0  0  0  0  0  0
   39.2680   33.4050   39.2990 F   0  0  0  0  0  0  0  0  0  0  0  0
   38.7220   33.6340   41.4130 F   0  0  0  0  0  0  0  0  0  0  0  0
   38.7720   23.4920   41.0110 C   0  0  0  0  0  0  0  0  0  0  0  0
   37.5650   22.9430   40.4760 C   0  0  0  0  0  0  0  0  0  0  0  0
   36.4460   23.8110   40.3870 C   0  0  0  0  0  0  0  0  0  0  0  0
   36.5880   25.1000   40.8120 N   0  0  0  0  0  0  0  0  0  0  0  0
   37.7480   25.5640   41.3070 C   0  0  0  0  0  0  0  0  0  0  0  0
   38.8350   24.7740   41.4100 N   0  0  0  0  0  0  0  0  0  0  0  0
   39.6660   22.9170   41.1180 H   0  0  0  0  0  0  0  0  0  0  0  0
   37.5520   21.9250   40.1710 H   0  0  0  0  0  0  0  0  0  0  0  0
   35.5340   23.4230   39.9900 H   0  0  0  0  0  0  0  0  0  0  0  0
  1  2  1  0  0  0  0
  2  7  2  0  0  0  0
  2  3  1  0  0  0  0
  3  4  2  0  0  0  0
  4  5  1  0  0  0  0
  4  8  1  0  0  0  0
  5  9  1  0  0  0  0
  6 10  1  0  0  0  0
  6  5  2  0  0  0  0
  7  6  1  0  0  0  0
 11 15  1  0  0  0  0
 11  7  1  0  0  0  0
 12 11  1  0  0  0  0
 13 12  1  0  0  0  0
 13 14  1  0  0  0  0
 14 21  1  0  0  0  0
 14 15  1  0  0  0  0
 15 23  1  0  0  0  0
 15 22  1  1  0  0  0
 16 12  1  0  0  0  0
 17 12  1  0  0  0  0
 18 13  1  0  0  0  0
 19 13  1  0  0  0  0
 20 14  1  0  0  0  0
 23 24  1  0  0  0  0
 23 26  1  0  0  0  0
 25 23  1  0  0  0  0
 27 33  1  0  0  0  0
 27 32  1  0  0  0  0
 28 27  2  0  0  0  0
 29 28  1  0  0  0  0
 29 30  2  0  0  0  0
 30 31  1  0  0  0  0
 31 32  2  0  0  0  0
 31  3  1  0  0  0  0
 34 28  1  0  0  0  0
 35 29  1  0  0  0  0
M  END
>  <minimizedAffinity>
-5.27506542

$$$$

 OpenBabel03252505233D

 35 37  0  0  1  0  0  0  0  0999 V2000
   39.1590   28.0900   41.2810 F   0  0  0  0  0  0  0  0  0  0  0  0
   38.0070   28.7610   41.0780 C   0  0  0  0  0  0  0  0  0  0  0  0
   36.8470   28.0520   40.8540 C   0  0  0  0  0  0  0  0  0  0  0  0
   35.6890   28.7450   40.6540 C   0  0  0  0  0  0  0  0  0  0  0  0
   35.7120   30.1310   40.6800 C   0  0  0  0  0  0  0  0  0  0  0  0
   36.8550   30.8420   40.9000 C   0  0  0  0  0  0  0  0  0  0  0  0
   38.0390   30.1190   41.1050 C   0  0  0  0  0  0  0  0  0  0  0  0
   34.7950   28.1590   40.4800 H   0  0  0  0  0  0  0  0  0  0  0  0
   34.7300   30.5740   40.5070 H   0  0  0  0  0  0  0  0  0  0  0  0
   36.7000   31.8940   40.8900 H   0  0  0  0  0  0  0  0  0  0  0  0
   39.1960   30.9180   41.3320 N   0  0  0  0  0  0  0  0  0  0  0  0
   39.9230   31.1820   42.5590 C   0  0  0  0  0  0  0  0  0  0  0  0
   41.3670   30.9840   42.1400 C   0  0  0  0  0  0  0  0  0  0  0  0
   41.3530   31.1070   40.6350 C   0  0  0  0  0  0  0  0  0  0  0  0
   39.9740   31.6830   40.3940 C   0  0  2  0  0  0  0  0  0  0  0  0
   39.6950   30.3340   43.2650 H   0  0  0  0  0  0  0  0  0  0  0  0
   39.7050   32.1270   43.0430 H   0  0  0  0  0  0  0  0  0  0  0  0
   41.9280   31.8800   42.5100 H   0  0  0  0  0  0  0  0  0  0  0  0
   41.7960   30.0420   42.5020 H   0  0  0  0  0  0  0  0  0  0  0  0
   42.1650   31.7330   40.2400 H   0  0  0  0  0  0  0  0  0  0  0  0
   41.3620   30.0820   40.1970 H   0  0  0  0  0  0  0  0  0  0  0  0
   39.6800   31.3620   39.3730 H   0  0  0  0  0  0  0  0  0  0  0  0
   39.9260   33.1620   40.5500 C   0  0  0  0  0  0  0  0  0  0  0  0
   38.8400   33.6050   41.2720 F   0  0  0  0  0  0  0  0  0  0  0  0
   41.1210   33.7140   40.9270 F   0  0  0  0  0  0  0  0  0  0  0  0
   39.6990   33.6720   39.2550 F   0  0  0  0  0  0  0  0  0  0  0  0
   36.8300   24.5810   39.6600 C   0  0  0  0  0  0  0  0  0  0  0  0
   36.9920   23.8360   40.8700 C   0  0  0  0  0  0  0  0  0  0  0  0
   37.1030   24.5790   42.0750 C   0  0  0  0  0  0  0  0  0  0  0  0
   37.0490   25.9400   42.0060 N   0  0  0  0  0  0  0  0  0  0  0  0
   36.8950   26.5900   40.8390 C   0  0  0  0  0  0  0  0  0  0  0  0
   36.7860   25.9240   39.6730 N   0  0  0  0  0  0  0  0  0  0  0  0
   36.7380   24.1110   38.7060 H   0  0  0  0  0  0  0  0  0  0  0  0
   37.0230   22.7750   40.8230 H   0  0  0  0  0  0  0  0  0  0  0  0
   37.2250   24.0440   42.9910 H   0  0  0  0  0  0  0  0  0  0  0  0
  2  7  1  0  0  0  0
  2  1  1  0  0  0  0
  3  2  2  0  0  0  0
  4  5  2  0  0  0  0
  4  3  1  0  0  0  0
  5  6  1  0  0  0  0
  6  7  2  0  0  0  0
  7 11  1  0  0  0  0
  8  4  1  0  0  0  0
  9  5  1  0  0  0  0
 10  6  1  0  0  0  0
 11 12  1  0  0  0  0
 12 17  1  0  0  0  0
 12 16  1  0  0  0  0
 13 19  1  0  0  0  0
 13 18  1  0  0  0  0
 13 12  1  0  0  0  0
 14 13  1  0  0  0  0
 15 22  1  6  0  0  0
 15 23  1  0  0  0  0
 15 14  1  0  0  0  0
 15 11  1  0  0  0  0
 20 14  1  0  0  0  0
 21 14  1  0  0  0  0
 23 25  1  0  0  0  0
 23 24  1  0  0  0  0
 26 23  1  0  0  0  0
 27 32  2  0  0  0  0
 27 28  1  0  0  0  0
 28 29  2  0  0  0  0
 29 35  1  0  0  0  0
 30 29  1  0  0  0  0
 31  3  1  0  0  0  0
 31 30  2  0  0  0  0
 32 31  1  0  0  0  0
 33 27  1  0  0  0  0
 34 28  1  0  0  0  0
M  END
>  <minimizedAffinity>
-5.21532345

$$$$

 OpenBabel03252505233D

 35 37  0  0  1  0  0  0  0  0999 V2000
   37.9160   28.6790   39.4410 F   0  0  0  0  0  0  0  0  0  0  0  0
   37.6800   28.4090   40.7410 C   0  0  0  0  0  0  0  0  0  0  0  0
   37.8190   29.4150   41.6720 C   0  0  0  0  0  0  0  0  0  0  0  0
   37.5730   29.1270   42.9830 C   0  0  0  0  0  0  0  0  0  0  0  0
   37.1930   27.8420   43.3380 C   0  0  0  0  0  0  0  0  0  0  0  0
   37.0540   26.8390   42.4240 C   0  0  0  0  0  0  0  0  0  0  0  0
   37.3090   27.1470   41.0800 C   0  0  0  0  0  0  0  0  0  0  0  0
   37.6910   29.9390   43.6900 H   0  0  0  0  0  0  0  0  0  0  0  0
   37.0260   27.7310   44.4100 H   0  0  0  0  0  0  0  0  0  0  0  0
   36.7560   25.9150   42.8600 H   0  0  0  0  0  0  0  0  0  0  0  0
   37.1420   26.0590   40.1760 N   0  0  0  0  0  0  0  0  0  0  0  0
   36.2250   25.9000   39.0650 C   0  0  0  0  0  0  0  0  0  0  0  0
   37.1240   25.3770   37.9610 C   0  0  0  0  0  0  0  0  0  0  0  0
   38.3380   24.8350   38.6770 C   0  0  0  0  0  0  0  0  0  0  0  0
   37.8550   24.8100   40.1110 C   0  0  2  0  0  0  0  0  0  0  0  0
   35.9200   26.9350   38.7390 H   0  0  0  0  0  0  0  0  0  0  0  0
   35.3400   25.3060   39.2630 H   0  0  0  0  0  0  0  0  0  0  0  0
   36.6050   24.4830   37.5290 H   0  0  0  0  0  0  0  0  0  0  0  0
   37.3610   26.1320   37.2020 H   0  0  0  0  0  0  0  0  0  0  0  0
   38.6620   23.8530   38.3060 H   0  0  0  0  0  0  0  0  0  0  0  0
   39.1520   25.5940   38.6180 H   0  0  0  0  0  0  0  0  0  0  0  0
   38.7610   24.9070   40.7440 H   0  0  0  0  0  0  0  0  0  0  0  0
   37.0720   23.5880   40.4400 C   0  0  0  0  0  0  0  0  0  0  0  0
   35.9420   23.8420   41.1850 F   0  0  0  0  0  0  0  0  0  0  0  0
   36.8710   22.7600   39.3690 F   0  0  0  0  0  0  0  0  0  0  0  0
   37.8880   22.8390   41.3130 F   0  0  0  0  0  0  0  0  0  0  0  0
   37.6820   32.8110   40.2870 C   0  0  0  0  0  0  0  0  0  0  0  0
   39.0370   33.2520   40.4100 C   0  0  0  0  0  0  0  0  0  0  0  0
   39.9620   32.3380   40.9790 C   0  0  0  0  0  0  0  0  0  0  0  0
   39.5090   31.1120   41.3680 N   0  0  0  0  0  0  0  0  0  0  0  0
   38.2220   30.7490   41.2280 C   0  0  0  0  0  0  0  0  0  0  0  0
   37.3100   31.5850   40.6940 N   0  0  0  0  0  0  0  0  0  0  0  0
   36.9140   33.4270   39.8710 H   0  0  0  0  0  0  0  0  0  0  0  0
   39.2940   34.2270   40.0780 H   0  0  0  0  0  0  0  0  0  0  0  0
   40.9790   32.6450   41.0820 H   0  0  0  0  0  0  0  0  0  0  0  0
  1  2  1  0  0  0  0
  2  7  2  0  0  0  0
  2  3  1  0  0  0  0
  3  4  2  0  0  0  0
  4  5  1  0  0  0  0
  4  8  1  0  0  0  0
  5  9  1  0  0  0  0
  6 10  1  0  0  0  0
  6  5  2  0  0  0  0
  7  6  1  0  0  0  0
 11  7  1  0  0  0  0
 12 17  1  0  0  0  0
 12 11  1  0  0  0  0
 13 14  1  0  0  0  0
 13 12  1  0  0  0  0
 14 15  1  0  0  0  0
 15 11  1  0  0  0  0
 15 23  1  0  0  0  0
 15 22  1  1  0  0  0
 16 12  1  0  0  0  0
 18 13  1  0  0  0  0
 19 13  1  0  0  0  0
 20 14  1  0  0  0  0
 21 14  1  0  0  0  0
 23 24  1  0  0  0  0
 23 26  1  0  0  0  0
 25 23  1  0  0  0  0
 27 28  2  0  0  0  0
 27 32  1  0  0  0  0
 28 29  1  0  0  0  0
 29 35  1  0  0  0  0
 29 30  2  0  0  0  0
 31 30  1  0  0  0  0
 31  3  1  0  0  0  0
 32 31  2  0  0  0  0
 33 27  1  0  0  0  0
 34 28  1  0  0  0  0
M  END
>  <minimizedAffinity>
-5.18959141

$$$$
