REMARK  Name = 
REMARK  4 active torsions:
REMARK  status: ('A' for Active; 'I' for Inactive)
REMARK    1  A    between atoms: C_3  and  C_7
REMARK    2  A    between atoms: C_7  and  C_8
REMARK    3  A    between atoms: C_8  and  C_9
REMARK    4  A    between atoms: C_11  and  C_23
REMARK                            x       y       z     vdW  Elec       q    Type
REMARK                         _______ _______ _______ _____ _____    ______ ____
ROOT
ATOM      1  C   UNL     1      47.344  35.050  41.587  0.00  0.00    +0.000 C 
ATOM      2  H   UNL     1      46.776  34.847  40.655  0.00  0.00    +0.000 HD
ATOM      3  H   UNL     1      47.102  36.053  41.997  0.00  0.00    +0.000 HD
ENDROOT
BRANCH   1   4
ATOM      4  C   UNL     1      48.822  35.006  41.348  0.00  0.00    +0.000 C 
ATOM      5  C   UNL     1      49.712  35.081  42.548  0.00  0.00    +0.000 C 
ATOM      6  C   UNL     1      49.545  33.812  41.813  0.00  0.00    +0.000 C 
ATOM      7  H   UNL     1      49.097  35.569  40.417  0.00  0.00    +0.000 HD
ATOM      8  H   UNL     1      50.613  35.711  42.383  0.00  0.00    +0.000 HD
ATOM      9  H   UNL     1      49.321  35.275  43.566  0.00  0.00    +0.000 HD
ATOM     10  H   UNL     1      49.188  32.854  42.109  0.00  0.00    +0.000 HD
BRANCH   6  11
ATOM     11  C   UNL     1      50.739  33.509  40.886  0.00  0.00    +0.000 C 
ATOM     12  F   UNL     1      51.170  32.206  41.157  0.00  0.00    +0.000 F 
ATOM     13  F   UNL     1      50.366  33.490  39.557  0.00  0.00    +0.000 F 
ATOM     14  F   UNL     1      51.744  34.422  41.000  0.00  0.00    +0.000 F 
ENDBRANCH   6  11
ENDBRANCH   1   4
BRANCH   1  15
ATOM     15  C   UNL     1      47.043  33.908  42.526  0.00  0.00    +0.000 C 
ATOM     16  H   UNL     1      47.950  33.821  43.206  0.00  0.00    +0.000 HD
ATOM     17  H   UNL     1      46.743  32.988  42.050  0.00  0.00    +0.000 HD
BRANCH  15  20
ATOM     18  C   UNL     1      44.603  35.994  44.452  0.00  0.00    +0.000 A 
ATOM     19  C   UNL     1      45.406  35.529  43.395  0.00  0.00    +0.000 A 
ATOM     20  C   UNL     1      46.134  34.392  43.607  0.00  0.00    +0.000 A 
ATOM     21  N   UNL     1      46.055  33.756  44.810  0.00  0.00    +0.000 NA
ATOM     22  C   UNL     1      45.293  34.206  45.793  0.00  0.00    +0.000 A 
ATOM     23  N   UNL     1      44.564  35.321  45.629  0.00  0.00    +0.000 NA
ATOM     24  H   UNL     1      43.979  36.868  44.440  0.00  0.00    +0.000 HD
ATOM     25  H   UNL     1      45.289  36.184  42.553  0.00  0.00    +0.000 HD
ATOM     26  H   UNL     1      45.326  33.601  46.698  0.00  0.00    +0.000 HD
ENDBRANCH  15  20
ENDBRANCH   1  15
TORSDOF 4
