
 OpenBabel03242518573D

 20 21  0  0  1  0  0  0  0  0999 V2000
   44.8320   34.5330   43.6530 C   0  0  1  0  0  0  0  0  0  0  0  0
   45.7120   35.6160   42.9810 C   0  0  0  0  0  0  0  0  0  0  0  0
   45.0200   34.5420   42.2200 C   0  0  2  0  0  0  0  0  0  0  0  0
   43.8730   34.9020   44.0790 H   0  0  0  0  0  0  0  0  0  0  0  0
   45.2440   36.6200   42.9460 H   0  0  0  0  0  0  0  0  0  0  0  0
   46.7930   35.5740   43.1630 H   0  0  0  0  0  0  0  0  0  0  0  0
   45.7430   33.8270   41.7330 H   0  0  0  0  0  0  0  0  0  0  0  0
   45.6160   33.6300   44.5500 C   0  0  0  0  0  0  0  0  0  0  0  0
   46.4360   32.6230   43.9490 C   0  0  0  0  0  0  0  0  0  0  0  0
   47.1670   31.8070   44.8060 C   0  0  0  0  0  0  0  0  0  0  0  0
   47.0620   32.0110   46.1680 N   0  0  0  0  0  0  0  0  0  0  0  0
   46.2630   32.9880   46.6720 C   0  0  0  0  0  0  0  0  0  0  0  0
   45.5440   33.7940   45.8910 N   0  0  0  0  0  0  0  0  0  0  0  0
   46.4280   32.5690   42.8800 H   0  0  0  0  0  0  0  0  0  0  0  0
   47.7810   31.0530   44.3680 H   0  0  0  0  0  0  0  0  0  0  0  0
   46.2670   33.0490   47.7630 H   0  0  0  0  0  0  0  0  0  0  0  0
   43.8730   34.8800   41.3110 C   0  0  0  0  0  0  0  0  0  0  0  0
   44.0980   34.4750   40.0070 F   0  0  0  0  0  0  0  0  0  0  0  0
   42.7050   34.2650   41.7410 F   0  0  0  0  0  0  0  0  0  0  0  0
   43.6830   36.2460   41.3770 F   0  0  0  0  0  0  0  0  0  0  0  0
  1  4  1  1  0  0  0
  1  8  1  0  0  0  0
  2  6  1  0  0  0  0
  2  1  1  0  0  0  0
  3  7  1  6  0  0  0
  3  2  1  0  0  0  0
  3  1  1  0  0  0  0
  5  2  1  0  0  0  0
  8 13  1  0  0  0  0
  9  8  2  0  0  0  0
  9 10  1  0  0  0  0
 10 11  2  0  0  0  0
 11 12  1  0  0  0  0
 12 16  1  0  0  0  0
 13 12  2  0  0  0  0
 14  9  1  0  0  0  0
 15 10  1  0  0  0  0
 17 20  1  0  0  0  0
 17 19  1  0  0  0  0
 17  3  1  0  0  0  0
 18 17  1  0  0  0  0
M  END
>  <minimizedAffinity>
-3.63889265

>  <minimizedRMSD>
1.33732808

$$$$
