
 OpenBabel03252508323D

 27 28  0  0  1  0  0  0  0  0999 V2000
   45.4850   34.3400   42.1390 N   0  0  0  0  0  0  0  0  0  0  0  0
   46.6850   33.9470   41.4930 C   0  0  1  0  0  0  0  0  0  0  0  0
   46.6100   33.8220   40.0070 C   0  0  0  0  0  0  0  0  0  0  0  0
   45.3770   33.5510   39.4050 N   0  0  0  0  0  0  0  0  0  0  0  0
   44.2160   33.9320   40.0940 C   0  0  0  0  0  0  0  0  0  0  0  0
   44.5080   34.8590   41.2350 C   0  0  0  0  0  0  0  0  0  0  0  0
   47.0460   32.9840   41.9060 H   0  0  0  0  0  0  0  0  0  0  0  0
   46.9840   34.7970   39.5610 H   0  0  0  0  0  0  0  0  0  0  0  0
   47.3350   33.0280   39.6890 H   0  0  0  0  0  0  0  0  0  0  0  0
   45.3490   33.9190   38.4360 H   0  0  0  0  0  0  0  0  0  0  0  0
   43.8010   32.9980   40.5780 H   0  0  0  0  0  0  0  0  0  0  0  0
   43.3890   34.3190   39.4860 H   0  0  0  0  0  0  0  0  0  0  0  0
   43.5950   35.2830   41.6820 H   0  0  0  0  0  0  0  0  0  0  0  0
   44.9960   35.7630   40.7560 H   0  0  0  0  0  0  0  0  0  0  0  0
   44.7360   35.2730   44.1960 C   0  0  0  0  0  0  0  0  0  0  0  0
   45.3850   34.2060   43.5380 C   0  0  0  0  0  0  0  0  0  0  0  0
   45.8870   33.1680   44.2970 C   0  0  0  0  0  0  0  0  0  0  0  0
   45.7680   33.1630   45.6510 N   0  0  0  0  0  0  0  0  0  0  0  0
   45.1360   34.2080   46.2760 C   0  0  0  0  0  0  0  0  0  0  0  0
   44.6330   35.2350   45.5590 N   0  0  0  0  0  0  0  0  0  0  0  0
   44.2840   36.1570   43.8000 H   0  0  0  0  0  0  0  0  0  0  0  0
   46.3600   32.3490   43.8270 H   0  0  0  0  0  0  0  0  0  0  0  0
   45.0390   34.2060   47.3600 H   0  0  0  0  0  0  0  0  0  0  0  0
   47.8120   34.9800   41.7320 C   0  0  0  0  0  0  0  0  0  0  0  0
   48.5690   35.2350   40.6450 F   0  0  0  0  0  0  0  0  0  0  0  0
   48.6890   34.4460   42.6860 F   0  0  0  0  0  0  0  0  0  0  0  0
   47.2860   36.1080   42.3340 F   0  0  0  0  0  0  0  0  0  0  0  0
  1 16  1  0  0  0  0
  2 24  1  0  0  0  0
  2  7  1  1  0  0  0
  2  1  1  0  0  0  0
  3  2  1  0  0  0  0
  4  3  1  0  0  0  0
  4  5  1  0  0  0  0
  5 11  1  0  0  0  0
  5  6  1  0  0  0  0
  6 13  1  0  0  0  0
  6  1  1  0  0  0  0
  8  3  1  0  0  0  0
  9  3  1  0  0  0  0
 10  4  1  0  0  0  0
 12  5  1  0  0  0  0
 14  6  1  0  0  0  0
 15 20  1  0  0  0  0
 16 15  2  0  0  0  0
 16 17  1  0  0  0  0
 17 18  2  0  0  0  0
 18 19  1  0  0  0  0
 19 23  1  0  0  0  0
 20 19  2  0  0  0  0
 21 15  1  0  0  0  0
 22 17  1  0  0  0  0
 24 27  1  0  0  0  0
 24 26  1  0  0  0  0
 25 24  1  0  0  0  0
M  END
>  <minimizedAffinity>
-4.52066612

>  <minimizedRMSD>
2.00370264

$$$$
