
 OpenBabel03252508323D

 27 28  0  0  1  0  0  0  0  0999 V2000
   45.4880   34.3330   42.1100 N   0  0  0  0  0  0  0  0  0  0  0  0
   46.6800   33.9110   41.4670 C   0  0  1  0  0  0  0  0  0  0  0  0
   46.6030   33.7790   39.9820 C   0  0  0  0  0  0  0  0  0  0  0  0
   45.3660   33.5290   39.3810 N   0  0  0  0  0  0  0  0  0  0  0  0
   44.2120   33.9400   40.0650 C   0  0  0  0  0  0  0  0  0  0  0  0
   44.5230   34.8670   41.2010 C   0  0  0  0  0  0  0  0  0  0  0  0
   47.0200   32.9430   41.8870 H   0  0  0  0  0  0  0  0  0  0  0  0
   46.9990   34.7420   39.5300 H   0  0  0  0  0  0  0  0  0  0  0  0
   47.3120   32.9670   39.6700 H   0  0  0  0  0  0  0  0  0  0  0  0
   45.3470   33.8930   38.4090 H   0  0  0  0  0  0  0  0  0  0  0  0
   43.7780   33.0180   40.5550 H   0  0  0  0  0  0  0  0  0  0  0  0
   43.3950   34.3400   39.4540 H   0  0  0  0  0  0  0  0  0  0  0  0
   43.6190   35.3140   41.6450 H   0  0  0  0  0  0  0  0  0  0  0  0
   45.0310   35.7580   40.7170 H   0  0  0  0  0  0  0  0  0  0  0  0
   44.7460   35.2900   44.1590 C   0  0  0  0  0  0  0  0  0  0  0  0
   45.3830   34.2110   43.5090 C   0  0  0  0  0  0  0  0  0  0  0  0
   45.8710   33.1720   44.2770 C   0  0  0  0  0  0  0  0  0  0  0  0
   45.7500   33.1780   45.6300 N   0  0  0  0  0  0  0  0  0  0  0  0
   45.1290   34.2350   46.2470 C   0  0  0  0  0  0  0  0  0  0  0  0
   44.6400   35.2630   45.5220 N   0  0  0  0  0  0  0  0  0  0  0  0
   44.3050   36.1770   43.7550 H   0  0  0  0  0  0  0  0  0  0  0  0
   46.3360   32.3440   43.8130 H   0  0  0  0  0  0  0  0  0  0  0  0
   45.0300   34.2420   47.3300 H   0  0  0  0  0  0  0  0  0  0  0  0
   47.8280   34.9210   41.7010 C   0  0  0  0  0  0  0  0  0  0  0  0
   47.4370   36.0820   42.2670 F   0  0  0  0  0  0  0  0  0  0  0  0
   48.3540   35.2710   40.4490 F   0  0  0  0  0  0  0  0  0  0  0  0
   48.8710   34.2950   42.3560 F   0  0  0  0  0  0  0  0  0  0  0  0
  1 16  1  0  0  0  0
  2 24  1  0  0  0  0
  2  7  1  1  0  0  0
  2  1  1  0  0  0  0
  3  2  1  0  0  0  0
  4  3  1  0  0  0  0
  4  5  1  0  0  0  0
  5 11  1  0  0  0  0
  5  6  1  0  0  0  0
  6 13  1  0  0  0  0
  6  1  1  0  0  0  0
  8  3  1  0  0  0  0
  9  3  1  0  0  0  0
 10  4  1  0  0  0  0
 12  5  1  0  0  0  0
 14  6  1  0  0  0  0
 15 20  1  0  0  0  0
 16 15  2  0  0  0  0
 16 17  1  0  0  0  0
 17 18  2  0  0  0  0
 18 19  1  0  0  0  0
 19 23  1  0  0  0  0
 20 19  2  0  0  0  0
 21 15  1  0  0  0  0
 22 17  1  0  0  0  0
 24 25  1  0  0  0  0
 24 27  1  0  0  0  0
 26 24  1  0  0  0  0
M  END
>  <minimizedAffinity>
-4.53794098

>  <minimizedRMSD>
2.00538015

$$$$
