
 OpenBabel03242512513D

 39 42  0  0  1  0  0  0  0  0999 V2000
   47.1940   34.3250   42.7060 N   0  0  0  0  0  0  0  0  0  0  0  0
   48.5370   33.7780   42.6080 C   0  0  0  0  0  0  0  0  0  0  0  0
   49.1280   34.8540   41.7240 C   0  0  0  0  0  0  0  0  0  0  0  0
   48.1120   34.8610   40.6030 C   0  0  0  0  0  0  0  0  0  0  0  0
   46.7970   34.7460   41.3340 C   0  0  1  0  0  0  0  0  0  0  0  0
   48.9650   33.7680   43.6120 H   0  0  0  0  0  0  0  0  0  0  0  0
   48.5490   32.8120   42.0690 H   0  0  0  0  0  0  0  0  0  0  0  0
   50.1030   34.4610   41.3640 H   0  0  0  0  0  0  0  0  0  0  0  0
   49.1700   35.8110   42.2440 H   0  0  0  0  0  0  0  0  0  0  0  0
   48.2740   33.8970   40.0520 H   0  0  0  0  0  0  0  0  0  0  0  0
   48.1900   35.7370   39.9400 H   0  0  0  0  0  0  0  0  0  0  0  0
   46.4380   35.7280   41.4600 H   0  0  0  0  0  0  0  0  0  0  0  0
   45.9440   33.6810   40.8360 C   0  0  0  0  0  0  0  0  0  0  0  0
   46.4550   32.4580   40.5370 N   0  0  0  0  0  0  0  0  0  0  0  0
   45.7350   31.4300   40.0620 C   0  0  0  0  0  0  0  0  0  0  0  0
   44.4230   31.6010   39.8640 N   0  0  0  0  0  0  0  0  0  0  0  0
   43.8750   32.7720   40.1380 C   0  0  0  0  0  0  0  0  0  0  0  0
   42.5150   32.8990   39.9240 C   0  0  0  0  0  0  0  0  0  0  0  0
   41.9310   34.1300   40.2170 C   0  0  0  0  0  0  0  0  0  0  0  0
   42.6210   35.2360   40.7090 C   0  0  0  0  0  0  0  0  0  0  0  0
   43.9740   35.0270   40.8960 C   0  0  0  0  0  0  0  0  0  0  0  0
   44.5950   33.8610   40.6320 C   0  0  0  0  0  0  0  0  0  0  0  0
   46.2410   30.4890   39.8540 H   0  0  0  0  0  0  0  0  0  0  0  0
   41.9160   32.0900   39.5440 H   0  0  0  0  0  0  0  0  0  0  0  0
   40.8530   34.1870   40.0320 H   0  0  0  0  0  0  0  0  0  0  0  0
   42.1000   36.1520   40.9110 H   0  0  0  0  0  0  0  0  0  0  0  0
   44.4810   35.8730   41.2470 H   0  0  0  0  0  0  0  0  0  0  0  0
   44.5770   35.5190   45.0760 C   0  0  0  0  0  0  0  0  0  0  0  0
   45.3680   35.4760   43.9360 C   0  0  0  0  0  0  0  0  0  0  0  0
   46.3290   34.4870   43.8130 C   0  0  0  0  0  0  0  0  0  0  0  0
   46.4490   33.5960   44.8330 N   0  0  0  0  0  0  0  0  0  0  0  0
   45.6720   33.6460   45.9430 C   0  0  0  0  0  0  0  0  0  0  0  0
   44.7310   34.6210   46.0530 N   0  0  0  0  0  0  0  0  0  0  0  0
   43.8400   36.3160   45.1180 H   0  0  0  0  0  0  0  0  0  0  0  0
   45.2540   36.2000   43.1810 H   0  0  0  0  0  0  0  0  0  0  0  0
   45.8110   32.6670   47.0520 C   0  0  0  0  0  0  0  0  0  0  0  0
   44.7490   32.8040   47.9500 F   0  0  0  0  0  0  0  0  0  0  0  0
   47.0400   32.7450   47.6830 F   0  0  0  0  0  0  0  0  0  0  0  0
   45.7150   31.3850   46.5680 F   0  0  0  0  0  0  0  0  0  0  0  0
  1 30  1  0  0  0  0
  2  1  1  0  0  0  0
  2  6  1  0  0  0  0
  3  9  1  0  0  0  0
  3  2  1  0  0  0  0
  4  5  1  0  0  0  0
  4  3  1  0  0  0  0
  5 12  1  1  0  0  0
  5  1  1  0  0  0  0
  7  2  1  0  0  0  0
  8  3  1  0  0  0  0
 10  4  1  0  0  0  0
 11  4  1  0  0  0  0
 13  5  1  0  0  0  0
 14 13  2  0  0  0  0
 15 14  1  0  0  0  0
 16 15  2  0  0  0  0
 16 17  1  0  0  0  0
 17 22  1  0  0  0  0
 18 17  2  0  0  0  0
 18 19  1  0  0  0  0
 19 20  2  0  0  0  0
 20 21  1  0  0  0  0
 20 26  1  0  0  0  0
 21 27  1  0  0  0  0
 22 13  1  0  0  0  0
 22 21  2  0  0  0  0
 23 15  1  0  0  0  0
 24 18  1  0  0  0  0
 25 19  1  0  0  0  0
 28 34  1  0  0  0  0
 28 33  1  0  0  0  0
 29 28  2  0  0  0  0
 30 29  1  0  0  0  0
 30 31  2  0  0  0  0
 31 32  1  0  0  0  0
 32 33  2  0  0  0  0
 32 36  1  0  0  0  0
 35 29  1  0  0  0  0
 36 38  1  0  0  0  0
 36 37  1  0  0  0  0
 39 36  1  0  0  0  0
M  END
>  <minimizedAffinity>
-6.46092558

>  <minimizedRMSD>
0.335808903

$$$$
