REMARK  Name = 
REMARK  3 active torsions:
REMARK  status: ('A' for Active; 'I' for Inactive)
REMARK    1  A    between atoms: C_1  and  C_11
REMARK    2  A    between atoms: C_5  and  C_13
REMARK    3  A    between atoms: C_18  and  C_28
REMARK                            x       y       z     vdW  Elec       q    Type
REMARK                         _______ _______ _______ _____ _____    ______ ____
ROOT
ATOM      1  C   UNL     1      45.975  33.572  45.560  0.00  0.00    +0.000 A 
ATOM      2  C   UNL     1      45.002  34.487  45.828  0.00  0.00    +0.000 A 
ATOM      3  C   UNL     1      44.624  35.487  44.953  0.00  0.00    +0.000 A 
ATOM      4  N   UNL     1      45.294  35.508  43.776  0.00  0.00    +0.000 NA
ATOM      5  C   UNL     1      46.252  34.606  43.513  0.00  0.00    +0.000 A 
ATOM      6  N   UNL     1      46.623  33.624  44.372  0.00  0.00    +0.000 NA
ATOM      7  H   UNL     1      44.472  34.463  46.771  0.00  0.00    +0.000 HD
ATOM      8  H   UNL     1      43.863  36.211  45.151  0.00  0.00    +0.000 HD
ENDROOT
BRANCH   5   9
ATOM      9  C   UNL     1      46.966  34.659  42.211  0.00  0.00    +0.000 A 
ATOM     10  C   UNL     1      46.472  33.941  41.139  0.00  0.00    +0.000 A 
ATOM     11  C   UNL     1      47.052  33.919  39.891  0.00  0.00    +0.000 A 
ATOM     12  C   UNL     1      48.218  34.681  39.723  0.00  0.00    +0.000 A 
ATOM     13  C   UNL     1      48.702  35.388  40.785  0.00  0.00    +0.000 A 
ATOM     14  C   UNL     1      48.108  35.398  42.024  0.00  0.00    +0.000 A 
ATOM     15  H   UNL     1      45.570  33.362  41.296  0.00  0.00    +0.000 HD
ATOM     16  H   UNL     1      46.613  33.334  39.090  0.00  0.00    +0.000 HD
ATOM     17  H   UNL     1      48.690  34.677  38.751  0.00  0.00    +0.000 HD
ATOM     18  H   UNL     1      49.603  35.964  40.617  0.00  0.00    +0.000 HD
BRANCH  14  19
ATOM     19  C   UNL     1      48.655  36.177  43.165  0.00  0.00    +0.000 C 
ATOM     20  F   UNL     1      49.264  35.261  44.032  0.00  0.00    +0.000 F 
ATOM     21  F   UNL     1      49.600  37.093  42.817  0.00  0.00    +0.000 F 
ATOM     22  F   UNL     1      47.590  36.716  43.879  0.00  0.00    +0.000 F 
ENDBRANCH  14  19
ENDBRANCH   5   9
BRANCH   1  27
ATOM     23  C   UNL     1      46.114  30.337  47.279  0.00  0.00    +0.000 A 
ATOM     24  C   UNL     1      47.011  30.587  48.310  0.00  0.00    +0.000 A 
ATOM     25  C   UNL     1      47.567  31.850  48.421  0.00  0.00    +0.000 A 
ATOM     26  N   UNL     1      47.208  32.806  47.504  0.00  0.00    +0.000 NA
ATOM     27  C   UNL     1      46.337  32.537  46.517  0.00  0.00    +0.000 A 
ATOM     28  N   UNL     1      45.799  31.322  46.406  0.00  0.00    +0.000 NA
ATOM     29  H   UNL     1      45.707  29.336  47.234  0.00  0.00    +0.000 HD
ATOM     30  H   UNL     1      47.346  29.911  49.060  0.00  0.00    +0.000 HD
ATOM     31  H   UNL     1      48.274  32.243  49.139  0.00  0.00    +0.000 HD
ENDBRANCH   1  27
TORSDOF 3
