
 OpenBabel03252502313D

 19 19  0  0  0  0  0  0  0  0999 V2000
   47.8050   34.7640   42.4120 C   0  0  0  0  0  0  0  0  0  0  0  0
   48.0340   33.5320   43.0530 C   0  0  0  0  0  0  0  0  0  0  0  0
   47.0710   33.0930   43.9810 C   0  0  0  0  0  0  0  0  0  0  0  0
   45.9840   33.8820   44.1990 N   0  0  0  0  0  0  0  0  0  0  0  0
   45.8060   35.0470   43.5690 C   0  0  0  0  0  0  0  0  0  0  0  0
   46.7090   35.4860   42.6820 N   0  0  0  0  0  0  0  0  0  0  0  0
   48.9100   32.9220   42.8590 H   0  0  0  0  0  0  0  0  0  0  0  0
   48.8330   35.2160   41.4330 C   0  0  0  0  0  0  0  0  0  0  0  0
   48.4240   35.1220   40.1460 F   0  0  0  0  0  0  0  0  0  0  0  0
   49.2100   36.5240   41.7590 F   0  0  0  0  0  0  0  0  0  0  0  0
   50.0060   34.4620   41.6360 F   0  0  0  0  0  0  0  0  0  0  0  0
   44.6040   35.8940   43.8280 C   0  0  0  0  0  0  0  0  0  0  0  0
   43.5940   35.6100   42.9340 F   0  0  0  0  0  0  0  0  0  0  0  0
   44.9300   37.2460   43.8030 F   0  0  0  0  0  0  0  0  0  0  0  0
   44.1030   35.6720   45.1020 F   0  0  0  0  0  0  0  0  0  0  0  0
   47.2250   31.8200   44.6970 C   0  0  0  0  0  0  0  0  0  0  0  0
   48.3030   31.1560   44.1210 F   0  0  0  0  0  0  0  0  0  0  0  0
   46.1280   30.9770   44.4940 F   0  0  0  0  0  0  0  0  0  0  0  0
   47.4050   32.0050   46.0410 F   0  0  0  0  0  0  0  0  0  0  0  0
  1  6  2  0  0  0  0
  1  2  1  0  0  0  0
  2  3  2  0  0  0  0
  3  4  1  0  0  0  0
  3 16  1  0  0  0  0
  5 12  1  0  0  0  0
  5  4  2  0  0  0  0
  6  5  1  0  0  0  0
  7  2  1  0  0  0  0
  8 11  1  0  0  0  0
  8 10  1  0  0  0  0
  8  1  1  0  0  0  0
  9  8  1  0  0  0  0
 12 15  1  0  0  0  0
 13 12  1  0  0  0  0
 14 12  1  0  0  0  0
 16 19  1  0  0  0  0
 17 16  1  0  0  0  0
 18 16  1  0  0  0  0
M  END
>  <minimizedAffinity>
-5.34852219

>  <minimizedRMSD>
0.458832204

$$$$
