
 OpenBabel03252506083D

 25 26  0  0  0  0  0  0  0  0999 V2000
   45.1340   33.3310   41.1430 F   0  0  0  0  0  0  0  0  0  0  0  0
   46.2960   33.9650   40.9810 C   0  0  0  0  0  0  0  0  0  0  0  0
   46.8020   34.7480   42.0060 C   0  0  0  0  0  0  0  0  0  0  0  0
   48.0010   35.4330   41.9050 C   0  0  0  0  0  0  0  0  0  0  0  0
   48.7560   35.3570   40.7450 C   0  0  0  0  0  0  0  0  0  0  0  0
   48.2160   34.5650   39.7440 C   0  0  0  0  0  0  0  0  0  0  0  0
   47.0330   33.8750   39.8160 C   0  0  0  0  0  0  0  0  0  0  0  0
   48.3470   36.0330   42.7440 H   0  0  0  0  0  0  0  0  0  0  0  0
   49.6970   35.8760   40.6260 H   0  0  0  0  0  0  0  0  0  0  0  0
   48.7810   34.4800   38.8180 H   0  0  0  0  0  0  0  0  0  0  0  0
   45.4790   33.9860   45.3630 C   0  0  0  0  0  0  0  0  0  0  0  0
   44.6550   35.1180   45.5970 C   0  0  0  0  0  0  0  0  0  0  0  0
   44.5620   36.1160   44.6150 C   0  0  0  0  0  0  0  0  0  0  0  0
   45.2850   35.9370   43.4700 N   0  0  0  0  0  0  0  0  0  0  0  0
   46.0510   34.8730   43.2670 C   0  0  0  0  0  0  0  0  0  0  0  0
   46.1390   33.9180   44.2070 N   0  0  0  0  0  0  0  0  0  0  0  0
   44.1210   35.1680   46.5350 H   0  0  0  0  0  0  0  0  0  0  0  0
   43.9420   36.9730   44.7850 H   0  0  0  0  0  0  0  0  0  0  0  0
   45.5740   32.9830   46.3450 N   0  0  0  0  0  0  0  0  0  0  0  0
   46.5870   32.7230   46.5120 H   0  0  0  0  0  0  0  0  0  0  0  0
   44.8310   32.4910   46.8970 H   0  0  0  0  0  0  0  0  0  0  0  0
   46.5390   33.0530   38.6910 C   0  0  0  0  0  0  0  0  0  0  0  0
   45.2290   33.4420   38.4320 F   0  0  0  0  0  0  0  0  0  0  0  0
   46.4880   31.7340   39.0790 F   0  0  0  0  0  0  0  0  0  0  0  0
   47.3570   33.2060   37.5930 F   0  0  0  0  0  0  0  0  0  0  0  0
  2  1  1  0  0  0  0
  2  3  1  0  0  0  0
  3 15  1  0  0  0  0
  4  3  2  0  0  0  0
  4  8  1  0  0  0  0
  5  4  1  0  0  0  0
  6  7  1  0  0  0  0
  6  5  2  0  0  0  0
  7  2  2  0  0  0  0
  9  5  1  0  0  0  0
 10  6  1  0  0  0  0
 11 12  1  0  0  0  0
 11 19  1  0  0  0  0
 12 17  1  0  0  0  0
 13 18  1  0  0  0  0
 13 12  2  0  0  0  0
 14 13  1  0  0  0  0
 15 14  2  0  0  0  0
 15 16  1  0  0  0  0
 16 11  2  0  0  0  0
 19 20  1  0  0  0  0
 19 21  1  0  0  0  0
 22 24  1  0  0  0  0
 22  7  1  0  0  0  0
 23 22  1  0  0  0  0
 25 22  1  0  0  0  0
M  END
>  <minimizedAffinity>
-5.67930126

>  <minimizedRMSD>
0.105394676

$$$$
