
 OpenBabel03252505453D

 20 21  0  0  1  0  0  0  0  0999 V2000
   45.2270   33.5680   43.7780 C   0  0  1  0  0  0  0  0  0  0  0  0
   45.8450   34.9590   43.4660 C   0  0  1  0  0  0  0  0  0  0  0  0
   45.7930   33.8400   42.4770 C   0  0  0  0  0  0  0  0  0  0  0  0
   44.1240   33.5760   43.9350 H   0  0  0  0  0  0  0  0  0  0  0  0
   46.7700   35.2380   43.9660 H   0  0  0  0  0  0  0  0  0  0  0  0
   46.8080   33.3890   42.2780 H   0  0  0  0  0  0  0  0  0  0  0  0
   45.2010   33.9340   41.5710 H   0  0  0  0  0  0  0  0  0  0  0  0
   45.9640   32.8550   44.8460 C   0  0  0  0  0  0  0  0  0  0  0  0
   46.6310   31.6320   44.5150 C   0  0  0  0  0  0  0  0  0  0  0  0
   47.3370   30.9510   45.5000 C   0  0  0  0  0  0  0  0  0  0  0  0
   47.3490   31.5110   46.7560 N   0  0  0  0  0  0  0  0  0  0  0  0
   46.7060   32.6730   47.0300 C   0  0  0  0  0  0  0  0  0  0  0  0
   46.0260   33.3270   46.0900 N   0  0  0  0  0  0  0  0  0  0  0  0
   46.5780   31.2500   43.5050 H   0  0  0  0  0  0  0  0  0  0  0  0
   47.8530   30.0270   45.2910 H   0  0  0  0  0  0  0  0  0  0  0  0
   46.8100   32.9780   48.0560 H   0  0  0  0  0  0  0  0  0  0  0  0
   44.8160   36.0470   43.2770 C   0  0  0  0  0  0  0  0  0  0  0  0
   45.4110   37.3030   43.2360 F   0  0  0  0  0  0  0  0  0  0  0  0
   44.2080   35.8520   42.0320 F   0  0  0  0  0  0  0  0  0  0  0  0
   43.8390   35.9640   44.2290 F   0  0  0  0  0  0  0  0  0  0  0  0
  1  4  1  1  0  0  0
  1  8  1  0  0  0  0
  2  1  1  0  0  0  0
  2  5  1  1  0  0  0
  3  2  1  0  0  0  0
  3  1  1  0  0  0  0
  6  3  1  0  0  0  0
  7  3  1  0  0  0  0
  8 13  1  0  0  0  0
  9  8  2  0  0  0  0
  9 10  1  0  0  0  0
 10 11  2  0  0  0  0
 11 12  1  0  0  0  0
 12 16  1  0  0  0  0
 13 12  2  0  0  0  0
 14  9  1  0  0  0  0
 15 10  1  0  0  0  0
 17  2  1  0  0  0  0
 17 20  1  0  0  0  0
 18 17  1  0  0  0  0
 19 17  1  0  0  0  0
M  END
>  <minimizedAffinity>
-3.82272506

>  <minimizedRMSD>
1.79559803

$$$$
