
 OpenBabel03252502313D

 19 19  0  0  0  0  0  0  0  0999 V2000
   47.8010   34.7660   42.4070 C   0  0  0  0  0  0  0  0  0  0  0  0
   48.0190   33.5210   43.0280 C   0  0  0  0  0  0  0  0  0  0  0  0
   47.0480   33.0750   43.9460 C   0  0  0  0  0  0  0  0  0  0  0  0
   45.9670   33.8700   44.1730 N   0  0  0  0  0  0  0  0  0  0  0  0
   45.8020   35.0470   43.5620 C   0  0  0  0  0  0  0  0  0  0  0  0
   46.7110   35.4920   42.6850 N   0  0  0  0  0  0  0  0  0  0  0  0
   48.8890   32.9070   42.8270 H   0  0  0  0  0  0  0  0  0  0  0  0
   48.8370   35.2250   41.4380 C   0  0  0  0  0  0  0  0  0  0  0  0
   48.4410   35.1290   40.1470 F   0  0  0  0  0  0  0  0  0  0  0  0
   49.2010   36.5360   41.7680 F   0  0  0  0  0  0  0  0  0  0  0  0
   50.0130   34.4790   41.6530 F   0  0  0  0  0  0  0  0  0  0  0  0
   44.6060   35.8990   43.8310 C   0  0  0  0  0  0  0  0  0  0  0  0
   43.5880   35.6210   42.9450 F   0  0  0  0  0  0  0  0  0  0  0  0
   44.9380   37.2500   43.8050 F   0  0  0  0  0  0  0  0  0  0  0  0
   44.1140   35.6780   45.1080 F   0  0  0  0  0  0  0  0  0  0  0  0
   47.1900   31.7890   44.6410 C   0  0  0  0  0  0  0  0  0  0  0  0
   47.4160   32.0750   45.9830 F   0  0  0  0  0  0  0  0  0  0  0  0
   48.3280   31.0970   44.2180 F   0  0  0  0  0  0  0  0  0  0  0  0
   46.0910   30.9910   44.4730 F   0  0  0  0  0  0  0  0  0  0  0  0
  1  6  2  0  0  0  0
  1  2  1  0  0  0  0
  2  3  2  0  0  0  0
  3  4  1  0  0  0  0
  3 16  1  0  0  0  0
  5 12  1  0  0  0  0
  5  4  2  0  0  0  0
  6  5  1  0  0  0  0
  7  2  1  0  0  0  0
  8 11  1  0  0  0  0
  8 10  1  0  0  0  0
  8  1  1  0  0  0  0
  9  8  1  0  0  0  0
 12 15  1  0  0  0  0
 13 12  1  0  0  0  0
 14 12  1  0  0  0  0
 16 17  1  0  0  0  0
 18 16  1  0  0  0  0
 19 16  1  0  0  0  0
M  END
>  <minimizedAffinity>
-5.33599281

>  <minimizedRMSD>
0.33879301

$$$$
