
     RDKit          3D

 36 38  0  0  0  0  0  0  0  0999 V2000
   45.1245   33.9401   40.6979 C   0  0  0  0  0  0  0  0  0  0  0  0
   44.0766   33.6406   39.8700 C   0  0  0  0  0  0  0  0  0  0  0  0
   44.3845   33.1590   38.6307 C   0  0  0  0  0  0  0  0  0  0  0  0
   45.6594   32.9611   38.1744 C   0  0  0  0  0  0  0  0  0  0  0  0
   46.6941   33.2701   39.0272 C   0  0  0  0  0  0  0  0  0  0  0  0
   46.4496   33.7626   40.2981 C   0  0  0  0  0  0  0  0  0  0  0  0
   40.7943   35.2539   40.7968 C   0  0  0  0  0  0  0  0  0  0  0  0
   42.0961   35.0981   40.2714 C   0  0  0  0  0  0  0  0  0  0  0  0
   42.7417   33.8618   40.3882 C   0  0  0  0  0  0  0  0  0  0  0  0
   42.0334   32.8836   41.0201 N   0  0  0  0  0  0  0  0  0  0  0  0
   40.8061   33.0580   41.5065 C   0  0  0  0  0  0  0  0  0  0  0  0
   40.1891   34.2316   41.3975 N   0  0  0  0  0  0  0  0  0  0  0  0
   40.2019   36.5378   40.6411 N   0  0  0  0  0  0  0  0  0  0  0  0
   47.6031   34.0609   41.1211 C   0  0  0  0  0  0  0  0  0  0  0  0
   48.1299   35.3307   40.9566 C   0  0  0  0  0  0  0  0  0  0  0  0
   49.2360   35.8109   41.6569 C   0  0  0  0  0  0  0  0  0  0  0  0
   49.8263   34.9553   42.5625 C   0  0  0  0  0  0  0  0  0  0  0  0
   49.3147   33.6873   42.7386 C   0  0  0  0  0  0  0  0  0  0  0  0
   48.2064   33.2291   42.0255 C   0  0  0  0  0  0  0  0  0  0  0  0
   44.7196   34.8634   43.1135 N   0  0  0  0  0  0  0  0  0  0  0  0
   44.8978   34.4612   42.0304 C   0  0  0  0  0  0  0  0  0  0  0  0
   43.5661   32.9175   37.9640 H   0  0  0  0  0  0  0  0  0  0  0  0
   45.8602   32.5784   37.1875 H   0  0  0  0  0  0  0  0  0  0  0  0
   47.7089   33.1200   38.6835 H   0  0  0  0  0  0  0  0  0  0  0  0
   42.6375   35.8865   39.7751 H   0  0  0  0  0  0  0  0  0  0  0  0
   40.3353   32.2093   41.9912 H   0  0  0  0  0  0  0  0  0  0  0  0
   40.8167   37.3712   40.8045 H   0  0  0  0  0  0  0  0  0  0  0  0
   39.1884   36.5062   40.3730 H   0  0  0  0  0  0  0  0  0  0  0  0
   47.7019   36.0563   40.2496 H   0  0  0  0  0  0  0  0  0  0  0  0
   49.6115   36.8086   41.4952 H   0  0  0  0  0  0  0  0  0  0  0  0
   50.6809   35.2404   43.1450 H   0  0  0  0  0  0  0  0  0  0  0  0
   49.7411   32.9674   43.4416 H   0  0  0  0  0  0  0  0  0  0  0  0
   47.6626   31.8604   42.2032 C   0  0  0  0  0  0  0  0  0  0  0  0
   47.7129   31.1885   41.0021 F   0  0  0  0  0  0  0  0  0  0  0  0
   46.4457   31.8314   42.8229 F   0  0  0  0  0  0  0  0  0  0  0  0
   48.5547   31.1824   43.0416 F   0  0  0  0  0  0  0  0  0  0  0  0
  1 21  1  0
  2  9  1  0
  2  1  2  0
  3  2  1  0
  4  3  2  0
  4  5  1  0
  5  6  2  0
  6  1  1  0
  6 14  1  0
  7 12  2  0
  8  9  2  0
  8  7  1  0
  9 10  1  0
 10 11  2  0
 12 11  1  0
 13  7  1  0
 14 19  1  0
 15 14  2  0
 15 16  1  0
 16 17  2  0
 17 18  1  0
 19 18  2  0
 21 20  3  0
  3 22  1  0
  4 23  1  0
  5 24  1  0
  8 25  1  0
 11 26  1  0
 13 27  1  0
 13 28  1  0
 15 29  1  0
 16 30  1  0
 17 31  1  0
 18 32  1  0
 33 34  1  0
 33 35  1  0
 33 36  1  0
 19 33  1  0
M  ISO  8  22  14  23  14  24  14  25  14  26  14  29  14  30  14  31  14
M  ISO  1  32  14
M  END
>  <DihAtoms>  (1) 
13,18,32,33

>  <DihDeg>  (1) 
59.32682130558019

$$$$
