
 OpenBabel03252503463D

 39 41  0  0  1  0  0  0  0  0999 V2000
   45.1800   34.8100   44.7190 C   0  0  0  0  0  0  0  0  0  0  0  0
   46.1080   34.5720   43.7190 C   0  0  0  0  0  0  0  0  0  0  0  0
   46.9500   33.4920   43.9040 C   0  0  0  0  0  0  0  0  0  0  0  0
   46.8770   32.6950   45.0080 N   0  0  0  0  0  0  0  0  0  0  0  0
   45.9500   32.9700   45.9610 C   0  0  0  0  0  0  0  0  0  0  0  0
   45.1070   34.0150   45.8260 N   0  0  0  0  0  0  0  0  0  0  0  0
   44.4980   35.6430   44.6230 H   0  0  0  0  0  0  0  0  0  0  0  0
   47.7710   33.1560   43.2960 H   0  0  0  0  0  0  0  0  0  0  0  0
   47.3240   31.7770   47.6600 C   0  0  2  0  0  0  0  0  0  0  0  0
   45.8940   32.1050   47.1360 C   0  0  1  0  0  0  0  0  0  0  0  0
   45.3900   32.6620   48.2610 O   0  0  0  0  0  0  0  0  0  0  0  0
   45.7090   31.8500   49.3120 C   0  0  0  0  0  0  0  0  0  0  0  0
   46.8890   31.0080   48.9170 C   0  0  2  0  0  0  0  0  0  0  0  0
   47.8620   31.1390   46.9430 H   0  0  0  0  0  0  0  0  0  0  0  0
   45.4080   31.1430   46.8760 H   0  0  0  0  0  0  0  0  0  0  0  0
   44.8520   31.2380   49.6750 H   0  0  0  0  0  0  0  0  0  0  0  0
   46.0040   32.4760   50.1790 H   0  0  0  0  0  0  0  0  0  0  0  0
   46.5000   30.0040   48.6200 H   0  0  0  0  0  0  0  0  0  0  0  0
   47.9350   32.9040   48.0730 O   0  0  0  0  0  0  0  0  0  0  0  0
   47.5940   33.7610   47.7210 H   0  0  0  0  0  0  0  0  0  0  0  0
   47.8690   30.9460   49.8720 O   0  0  0  0  0  0  0  0  0  0  0  0
   48.0440   29.9880   50.0660 H   0  0  0  0  0  0  0  0  0  0  0  0
   46.2090   35.3880   42.5330 C   0  0  0  0  0  0  0  0  0  0  0  0
   47.1600   35.9290   42.3800 H   0  0  0  0  0  0  0  0  0  0  0  0
   45.4790   36.2210   42.5890 H   0  0  0  0  0  0  0  0  0  0  0  0
   45.7740   34.6140   41.3370 C   0  0  0  0  0  0  0  0  0  0  0  0
   44.4490   34.2650   41.0890 C   0  0  0  0  0  0  0  0  0  0  0  0
   44.0590   33.5480   39.9950 C   0  0  0  0  0  0  0  0  0  0  0  0
   45.0450   33.1740   39.1300 C   0  0  0  0  0  0  0  0  0  0  0  0
   46.3550   33.5240   39.3810 C   0  0  0  0  0  0  0  0  0  0  0  0
   46.8240   34.2550   40.4740 C   0  0  0  0  0  0  0  0  0  0  0  0
   43.7840   34.6420   41.8820 H   0  0  0  0  0  0  0  0  0  0  0  0
   43.0130   33.3890   39.9890 H   0  0  0  0  0  0  0  0  0  0  0  0
   44.6900   32.6050   38.2760 H   0  0  0  0  0  0  0  0  0  0  0  0
   46.9810   33.1240   38.5680 H   0  0  0  0  0  0  0  0  0  0  0  0
   48.2630   34.3990   40.4650 C   0  0  0  0  0  0  0  0  0  0  0  0
   48.7170   35.7260   40.2920 F   0  0  0  0  0  0  0  0  0  0  0  0
   49.1160   33.7490   41.2150 F   0  0  0  0  0  0  0  0  0  0  0  0
   48.6550   33.9260   39.1310 F   0  0  0  0  0  0  0  0  0  0  0  0
  1  6  1  0  0  0  0
  2  3  1  0  0  0  0
  2  1  2  0  0  0  0
  3  4  2  0  0  0  0
  4  5  1  0  0  0  0
  5 10  1  0  0  0  0
  6  5  2  0  0  0  0
  7  1  1  0  0  0  0
  8  3  1  0  0  0  0
  9 14  1  6  0  0  0
  9 19  1  0  0  0  0
  9 13  1  0  0  0  0
 10 15  1  6  0  0  0
 10  9  1  0  0  0  0
 10 11  1  0  0  0  0
 11 12  1  0  0  0  0
 12 16  1  0  0  0  0
 12 17  1  0  0  0  0
 13 18  1  6  0  0  0
 13 12  1  0  0  0  0
 13 21  1  0  0  0  0
 20 19  1  0  0  0  0
 21 22  1  0  0  0  0
 23 25  1  0  0  0  0
 23  2  1  0  0  0  0
 24 23  1  0  0  0  0
 26 23  1  0  0  0  0
 27 26  1  0  0  0  0
 27 32  1  0  0  0  0
 28 27  2  0  0  0  0
 29 30  2  0  0  0  0
 29 28  1  0  0  0  0
 30 31  1  0  0  0  0
 31 26  2  0  0  0  0
 33 28  1  0  0  0  0
 34 29  1  0  0  0  0
 35 30  1  0  0  0  0
 36 31  1  0  0  0  0
 36 38  1  0  0  0  0
 37 36  1  0  0  0  0
 39 36  1  0  0  0  0
M  END
>  <minimizedAffinity>
-6.94730139

>  <minimizedRMSD>
1.32470655

$$$$
