
 OpenBabel03252503403D

 16 16  0  0  0  0  0  0  0  0999 V2000
   44.5880   35.5180   44.9880 C   0  0  0  0  0  0  0  0  0  0  0  0
   45.2780   35.3850   43.7870 C   0  0  0  0  0  0  0  0  0  0  0  0
   46.1930   34.3500   43.6610 C   0  0  0  0  0  0  0  0  0  0  0  0
   46.3680   33.5120   44.7240 N   0  0  0  0  0  0  0  0  0  0  0  0
   45.6790   33.6750   45.8670 C   0  0  0  0  0  0  0  0  0  0  0  0
   44.7840   34.6700   46.0260 N   0  0  0  0  0  0  0  0  0  0  0  0
   43.8610   36.3010   45.1610 H   0  0  0  0  0  0  0  0  0  0  0  0
   46.6930   34.2940   42.7210 H   0  0  0  0  0  0  0  0  0  0  0  0
   44.9370   36.4050   42.7600 C   0  0  0  0  0  0  0  0  0  0  0  0
   43.8530   36.3280   42.4590 H   0  0  0  0  0  0  0  0  0  0  0  0
   45.1860   37.4350   43.0920 H   0  0  0  0  0  0  0  0  0  0  0  0
   45.5010   36.1750   41.8310 H   0  0  0  0  0  0  0  0  0  0  0  0
   45.9270   32.7150   46.9880 C   0  0  0  0  0  0  0  0  0  0  0  0
   45.6780   31.4140   46.6440 F   0  0  0  0  0  0  0  0  0  0  0  0
   47.2290   32.8460   47.4880 F   0  0  0  0  0  0  0  0  0  0  0  0
   45.1000   33.0150   48.0730 F   0  0  0  0  0  0  0  0  0  0  0  0
  1  7  1  0  0  0  0
  1  6  1  0  0  0  0
  2  1  2  0  0  0  0
  3  2  1  0  0  0  0
  3  4  2  0  0  0  0
  4  5  1  0  0  0  0
  5  6  2  0  0  0  0
  5 13  1  0  0  0  0
  8  3  1  0  0  0  0
  9 11  1  0  0  0  0
  9  2  1  0  0  0  0
 10  9  1  0  0  0  0
 12  9  1  0  0  0  0
 13 15  1  0  0  0  0
 13 16  1  0  0  0  0
 14 13  1  0  0  0  0
M  END
>  <minimizedAffinity>
-3.9958365

>  <minimizedRMSD>
1.11964941

$$$$
