
 OpenBabel03242516583D

 23 24  0  0  0  0  0  0  0  0999 V2000
   38.7830   28.3480   42.0660 C   0  0  0  0  0  0  0  0  0  0  0  0
   40.0740   28.7300   42.3160 C   0  0  0  0  0  0  0  0  0  0  0  0
   40.9090   27.9930   43.1170 C   0  0  0  0  0  0  0  0  0  0  0  0
   40.3960   26.8330   43.6740 C   0  0  0  0  0  0  0  0  0  0  0  0
   39.1120   26.3920   43.4650 C   0  0  0  0  0  0  0  0  0  0  0  0
   38.3240   27.1980   42.6370 C   0  0  0  0  0  0  0  0  0  0  0  0
   40.4860   29.6410   41.8820 H   0  0  0  0  0  0  0  0  0  0  0  0
   41.9340   28.2780   43.3270 H   0  0  0  0  0  0  0  0  0  0  0  0
   41.0370   26.2370   44.3100 H   0  0  0  0  0  0  0  0  0  0  0  0
   38.6980   25.4890   43.8940 H   0  0  0  0  0  0  0  0  0  0  0  0
   37.2540   30.0700   39.0770 C   0  0  0  0  0  0  0  0  0  0  0  0
   38.0860   29.1870   39.8050 C   0  0  0  0  0  0  0  0  0  0  0  0
   37.9860   29.2050   41.2020 C   0  0  0  0  0  0  0  0  0  0  0  0
   37.1070   30.0580   41.7590 N   0  0  0  0  0  0  0  0  0  0  0  0
   36.3180   30.8960   41.0540 C   0  0  0  0  0  0  0  0  0  0  0  0
   36.3980   30.8970   39.6890 N   0  0  0  0  0  0  0  0  0  0  0  0
   37.4050   29.9810   38.0030 H   0  0  0  0  0  0  0  0  0  0  0  0
   38.7870   28.5080   39.3420 H   0  0  0  0  0  0  0  0  0  0  0  0
   35.6350   31.5540   41.5700 H   0  0  0  0  0  0  0  0  0  0  0  0
   36.9180   26.8020   42.3530 C   0  0  0  0  0  0  0  0  0  0  0  0
   36.0240   27.5640   43.0920 F   0  0  0  0  0  0  0  0  0  0  0  0
   36.7570   25.4810   42.7440 F   0  0  0  0  0  0  0  0  0  0  0  0
   36.6600   26.8770   41.0020 F   0  0  0  0  0  0  0  0  0  0  0  0
  1  2  2  0  0  0  0
  1  6  1  0  0  0  0
  2  3  1  0  0  0  0
  3  8  1  0  0  0  0
  3  4  2  0  0  0  0
  4  9  1  0  0  0  0
  5  4  1  0  0  0  0
  5 10  1  0  0  0  0
  6  5  2  0  0  0  0
  7  2  1  0  0  0  0
 11 16  2  0  0  0  0
 11 12  1  0  0  0  0
 12 13  2  0  0  0  0
 13 14  1  0  0  0  0
 13  1  1  0  0  0  0
 15 19  1  0  0  0  0
 15 14  2  0  0  0  0
 16 15  1  0  0  0  0
 17 11  1  0  0  0  0
 18 12  1  0  0  0  0
 20  6  1  0  0  0  0
 20 22  1  0  0  0  0
 20 21  1  0  0  0  0
 23 20  1  0  0  0  0
M  END
>  <minimizedAffinity>
-4.85192013

$$$$

 OpenBabel03242516583D

 23 24  0  0  0  0  0  0  0  0999 V2000
   36.6850   30.7170   39.4700 C   0  0  0  0  0  0  0  0  0  0  0  0
   35.8520   30.2290   40.4410 C   0  0  0  0  0  0  0  0  0  0  0  0
   34.8860   29.2940   40.1680 C   0  0  0  0  0  0  0  0  0  0  0  0
   34.7770   28.8540   38.8600 C   0  0  0  0  0  0  0  0  0  0  0  0
   35.5790   29.3000   37.8370 C   0  0  0  0  0  0  0  0  0  0  0  0
   36.5390   30.2530   38.1950 C   0  0  0  0  0  0  0  0  0  0  0  0
   35.9300   30.5700   41.4730 H   0  0  0  0  0  0  0  0  0  0  0  0
   34.2170   28.8950   40.9230 H   0  0  0  0  0  0  0  0  0  0  0  0
   34.0210   28.1160   38.6230 H   0  0  0  0  0  0  0  0  0  0  0  0
   35.5050   28.9660   36.8110 H   0  0  0  0  0  0  0  0  0  0  0  0
   38.4790   33.9450   40.2430 C   0  0  0  0  0  0  0  0  0  0  0  0
   37.4350   33.0850   39.8280 C   0  0  0  0  0  0  0  0  0  0  0  0
   37.6730   31.7060   39.8690 C   0  0  0  0  0  0  0  0  0  0  0  0
   38.8780   31.2890   40.3000 N   0  0  0  0  0  0  0  0  0  0  0  0
   39.8670   32.1180   40.6940 C   0  0  0  0  0  0  0  0  0  0  0  0
   39.6580   33.4690   40.6630 N   0  0  0  0  0  0  0  0  0  0  0  0
   38.1970   34.9940   40.1750 H   0  0  0  0  0  0  0  0  0  0  0  0
   36.4730   33.4380   39.4840 H   0  0  0  0  0  0  0  0  0  0  0  0
   40.8090   31.7100   41.0290 H   0  0  0  0  0  0  0  0  0  0  0  0
   37.4530   30.7970   37.1550 C   0  0  0  0  0  0  0  0  0  0  0  0
   37.3720   32.1810   37.0910 F   0  0  0  0  0  0  0  0  0  0  0  0
   37.0470   30.3010   35.9250 F   0  0  0  0  0  0  0  0  0  0  0  0
   38.7440   30.3690   37.3780 F   0  0  0  0  0  0  0  0  0  0  0  0
  1 13  1  0  0  0  0
  1  2  1  0  0  0  0
  2  7  1  0  0  0  0
  3  2  2  0  0  0  0
  3  8  1  0  0  0  0
  4  3  1  0  0  0  0
  5  6  1  0  0  0  0
  5  4  2  0  0  0  0
  6  1  2  0  0  0  0
  9  4  1  0  0  0  0
 10  5  1  0  0  0  0
 11 16  1  0  0  0  0
 12 13  1  0  0  0  0
 12 11  2  0  0  0  0
 13 14  2  0  0  0  0
 14 15  1  0  0  0  0
 15 19  1  0  0  0  0
 16 15  2  0  0  0  0
 17 11  1  0  0  0  0
 18 12  1  0  0  0  0
 20 23  1  0  0  0  0
 20  6  1  0  0  0  0
 21 20  1  0  0  0  0
 22 20  1  0  0  0  0
M  END
>  <minimizedAffinity>
-4.78878689

$$$$

 OpenBabel03242516583D

 23 24  0  0  0  0  0  0  0  0999 V2000
   38.2900   29.4320   41.7160 C   0  0  0  0  0  0  0  0  0  0  0  0
   39.1540   28.8060   42.5740 C   0  0  0  0  0  0  0  0  0  0  0  0
   38.7580   27.7660   43.3770 C   0  0  0  0  0  0  0  0  0  0  0  0
   37.4350   27.3630   43.2890 C   0  0  0  0  0  0  0  0  0  0  0  0
   36.5160   27.9450   42.4510 C   0  0  0  0  0  0  0  0  0  0  0  0
   36.9970   28.9990   41.6660 C   0  0  0  0  0  0  0  0  0  0  0  0
   40.1960   29.1160   42.6500 H   0  0  0  0  0  0  0  0  0  0  0  0
   39.4260   27.2580   44.0630 H   0  0  0  0  0  0  0  0  0  0  0  0
   37.1020   26.5440   43.9140 H   0  0  0  0  0  0  0  0  0  0  0  0
   35.4810   27.6420   42.3730 H   0  0  0  0  0  0  0  0  0  0  0  0
   39.9100   31.4750   38.9900 C   0  0  0  0  0  0  0  0  0  0  0  0
   39.4410   30.3290   39.6740 C   0  0  0  0  0  0  0  0  0  0  0  0
   38.8160   30.5240   40.9130 C   0  0  0  0  0  0  0  0  0  0  0  0
   38.7030   31.7840   41.3690 N   0  0  0  0  0  0  0  0  0  0  0  0
   39.1550   32.8700   40.7070 C   0  0  0  0  0  0  0  0  0  0  0  0
   39.7680   32.7060   39.4960 N   0  0  0  0  0  0  0  0  0  0  0  0
   40.3780   31.2210   38.0400 H   0  0  0  0  0  0  0  0  0  0  0  0
   39.5400   29.3240   39.2930 H   0  0  0  0  0  0  0  0  0  0  0  0
   39.0290   33.8530   41.1370 H   0  0  0  0  0  0  0  0  0  0  0  0
   36.0750   29.6930   40.7280 C   0  0  0  0  0  0  0  0  0  0  0  0
   35.8930   31.0190   41.0930 F   0  0  0  0  0  0  0  0  0  0  0  0
   34.8380   29.0700   40.8030 F   0  0  0  0  0  0  0  0  0  0  0  0
   36.5290   29.5760   39.4320 F   0  0  0  0  0  0  0  0  0  0  0  0
  1  2  1  0  0  0  0
  2  7  1  0  0  0  0
  2  3  2  0  0  0  0
  3  8  1  0  0  0  0
  4  3  1  0  0  0  0
  4  9  1  0  0  0  0
  5  4  2  0  0  0  0
  6  1  2  0  0  0  0
  6  5  1  0  0  0  0
 10  5  1  0  0  0  0
 11 16  2  0  0  0  0
 11 12  1  0  0  0  0
 12 13  2  0  0  0  0
 13 14  1  0  0  0  0
 13  1  1  0  0  0  0
 15 19  1  0  0  0  0
 15 14  2  0  0  0  0
 16 15  1  0  0  0  0
 17 11  1  0  0  0  0
 18 12  1  0  0  0  0
 20 22  1  0  0  0  0
 20 21  1  0  0  0  0
 20  6  1  0  0  0  0
 23 20  1  0  0  0  0
M  END
>  <minimizedAffinity>
-4.68889189

$$$$

 OpenBabel03242516583D

 23 24  0  0  0  0  0  0  0  0999 V2000
   37.1720   30.8690   38.6060 C   0  0  0  0  0  0  0  0  0  0  0  0
   37.2800   30.8220   37.2420 C   0  0  0  0  0  0  0  0  0  0  0  0
   36.6120   29.8880   36.4910 C   0  0  0  0  0  0  0  0  0  0  0  0
   35.8130   28.9810   37.1670 C   0  0  0  0  0  0  0  0  0  0  0  0
   35.6600   28.9710   38.5320 C   0  0  0  0  0  0  0  0  0  0  0  0
   36.3730   29.9540   39.2260 C   0  0  0  0  0  0  0  0  0  0  0  0
   37.9060   31.5320   36.7020 H   0  0  0  0  0  0  0  0  0  0  0  0
   36.6840   29.8340   35.4100 H   0  0  0  0  0  0  0  0  0  0  0  0
   35.2780   28.2350   36.5930 H   0  0  0  0  0  0  0  0  0  0  0  0
   35.0400   28.2680   39.0730 H   0  0  0  0  0  0  0  0  0  0  0  0
   38.2770   34.1170   40.1770 C   0  0  0  0  0  0  0  0  0  0  0  0
   37.4490   33.2060   39.4800 C   0  0  0  0  0  0  0  0  0  0  0  0
   37.9240   31.9010   39.3030 C   0  0  0  0  0  0  0  0  0  0  0  0
   39.1350   31.5980   39.8070 N   0  0  0  0  0  0  0  0  0  0  0  0
   39.9160   32.4760   40.4700 C   0  0  0  0  0  0  0  0  0  0  0  0
   39.4740   33.7560   40.6560 N   0  0  0  0  0  0  0  0  0  0  0  0
   37.8210   35.1010   40.2620 H   0  0  0  0  0  0  0  0  0  0  0  0
   36.4790   33.4650   39.0820 H   0  0  0  0  0  0  0  0  0  0  0  0
   40.8790   32.1610   40.8470 H   0  0  0  0  0  0  0  0  0  0  0  0
   36.2700   30.0220   40.7090 C   0  0  0  0  0  0  0  0  0  0  0  0
   37.4660   29.6580   41.3120 F   0  0  0  0  0  0  0  0  0  0  0  0
   35.3080   29.1090   41.1150 F   0  0  0  0  0  0  0  0  0  0  0  0
   35.8580   31.2750   41.1060 F   0  0  0  0  0  0  0  0  0  0  0  0
  1  6  1  0  0  0  0
  1 13  1  0  0  0  0
  2  1  2  0  0  0  0
  3  4  2  0  0  0  0
  3  2  1  0  0  0  0
  4  5  1  0  0  0  0
  5 10  1  0  0  0  0
  5  6  2  0  0  0  0
  6 20  1  0  0  0  0
  7  2  1  0  0  0  0
  8  3  1  0  0  0  0
  9  4  1  0  0  0  0
 11 17  1  0  0  0  0
 11 16  1  0  0  0  0
 12 11  2  0  0  0  0
 13 12  1  0  0  0  0
 13 14  2  0  0  0  0
 14 15  1  0  0  0  0
 15 16  2  0  0  0  0
 15 19  1  0  0  0  0
 18 12  1  0  0  0  0
 20 23  1  0  0  0  0
 20 22  1  0  0  0  0
 20 21  1  0  0  0  0
M  END
>  <minimizedAffinity>
-4.66529846

$$$$

 OpenBabel03242516583D

 23 24  0  0  0  0  0  0  0  0999 V2000
   37.0390   27.7460   40.9490 C   0  0  0  0  0  0  0  0  0  0  0  0
   36.0830   27.8880   39.9800 C   0  0  0  0  0  0  0  0  0  0  0  0
   35.4680   29.0890   39.7340 C   0  0  0  0  0  0  0  0  0  0  0  0
   35.8530   30.1710   40.5090 C   0  0  0  0  0  0  0  0  0  0  0  0
   36.8040   30.1000   41.4970 C   0  0  0  0  0  0  0  0  0  0  0  0
   37.3840   28.8410   41.6870 C   0  0  0  0  0  0  0  0  0  0  0  0
   35.7740   27.0420   39.3650 H   0  0  0  0  0  0  0  0  0  0  0  0
   34.7090   29.2220   38.9710 H   0  0  0  0  0  0  0  0  0  0  0  0
   35.3800   31.1290   40.3320 H   0  0  0  0  0  0  0  0  0  0  0  0
   37.1130   30.9360   42.1100 H   0  0  0  0  0  0  0  0  0  0  0  0
   37.7450   24.2100   42.0610 C   0  0  0  0  0  0  0  0  0  0  0  0
   37.0800   25.4560   41.9760 C   0  0  0  0  0  0  0  0  0  0  0  0
   37.6250   26.4260   41.1260 C   0  0  0  0  0  0  0  0  0  0  0  0
   38.7420   26.1110   40.4450 N   0  0  0  0  0  0  0  0  0  0  0  0
   39.3670   24.9180   40.5330 C   0  0  0  0  0  0  0  0  0  0  0  0
   38.8550   23.9550   41.3570 N   0  0  0  0  0  0  0  0  0  0  0  0
   37.2470   23.5260   42.7450 H   0  0  0  0  0  0  0  0  0  0  0  0
   36.1840   25.6930   42.5300 H   0  0  0  0  0  0  0  0  0  0  0  0
   40.2620   24.7370   39.9560 H   0  0  0  0  0  0  0  0  0  0  0  0
   38.4240   28.6650   42.7350 C   0  0  0  0  0  0  0  0  0  0  0  0
   38.0350   27.7200   43.6740 F   0  0  0  0  0  0  0  0  0  0  0  0
   38.5710   29.8730   43.4010 F   0  0  0  0  0  0  0  0  0  0  0  0
   39.6360   28.3490   42.1620 F   0  0  0  0  0  0  0  0  0  0  0  0
  1 13  1  0  0  0  0
  1  6  1  0  0  0  0
  2  1  2  0  0  0  0
  3  2  1  0  0  0  0
  3  4  2  0  0  0  0
  4  5  1  0  0  0  0
  5  6  2  0  0  0  0
  5 10  1  0  0  0  0
  6 20  1  0  0  0  0
  7  2  1  0  0  0  0
  8  3  1  0  0  0  0
  9  4  1  0  0  0  0
 11 17  1  0  0  0  0
 12 11  1  0  0  0  0
 12 18  1  0  0  0  0
 13 12  2  0  0  0  0
 14 15  2  0  0  0  0
 14 13  1  0  0  0  0
 15 16  1  0  0  0  0
 16 11  2  0  0  0  0
 19 15  1  0  0  0  0
 20 22  1  0  0  0  0
 20 21  1  0  0  0  0
 23 20  1  0  0  0  0
M  END
>  <minimizedAffinity>
-4.65058661

$$$$

 OpenBabel03242516583D

 23 24  0  0  0  0  0  0  0  0999 V2000
   36.9950   27.1460   40.6530 C   0  0  0  0  0  0  0  0  0  0  0  0
   36.4860   26.4350   39.6000 C   0  0  0  0  0  0  0  0  0  0  0  0
   36.4050   25.0650   39.6170 C   0  0  0  0  0  0  0  0  0  0  0  0
   36.8610   24.4150   40.7520 C   0  0  0  0  0  0  0  0  0  0  0  0
   37.3820   25.0650   41.8440 C   0  0  0  0  0  0  0  0  0  0  0  0
   37.4310   26.4600   41.7490 C   0  0  0  0  0  0  0  0  0  0  0  0
   36.1250   26.9380   38.7030 H   0  0  0  0  0  0  0  0  0  0  0  0
   36.0060   24.4840   38.7930 H   0  0  0  0  0  0  0  0  0  0  0  0
   36.8070   23.3340   40.7860 H   0  0  0  0  0  0  0  0  0  0  0  0
   37.7430   24.5700   42.7360 H   0  0  0  0  0  0  0  0  0  0  0  0
   36.2010   30.8280   40.8660 C   0  0  0  0  0  0  0  0  0  0  0  0
   36.0460   29.4340   41.0560 C   0  0  0  0  0  0  0  0  0  0  0  0
   37.0350   28.5940   40.5280 C   0  0  0  0  0  0  0  0  0  0  0  0
   38.0650   29.1660   39.8780 N   0  0  0  0  0  0  0  0  0  0  0  0
   38.2020   30.4970   39.7040 C   0  0  0  0  0  0  0  0  0  0  0  0
   37.2500   31.3380   40.2090 N   0  0  0  0  0  0  0  0  0  0  0  0
   35.3840   31.3940   41.3110 H   0  0  0  0  0  0  0  0  0  0  0  0
   35.2120   28.9920   41.5810 H   0  0  0  0  0  0  0  0  0  0  0  0
   39.0570   30.8840   39.1700 H   0  0  0  0  0  0  0  0  0  0  0  0
   37.9810   27.2510   42.8820 C   0  0  0  0  0  0  0  0  0  0  0  0
   38.8350   28.2480   42.4310 F   0  0  0  0  0  0  0  0  0  0  0  0
   38.7280   26.3970   43.6790 F   0  0  0  0  0  0  0  0  0  0  0  0
   36.9590   27.7630   43.6530 F   0  0  0  0  0  0  0  0  0  0  0  0
  1  6  1  0  0  0  0
  2  3  1  0  0  0  0
  2  1  2  0  0  0  0
  3  4  2  0  0  0  0
  4  9  1  0  0  0  0
  4  5  1  0  0  0  0
  5 10  1  0  0  0  0
  6  5  2  0  0  0  0
  6 20  1  0  0  0  0
  7  2  1  0  0  0  0
  8  3  1  0  0  0  0
 11 12  1  0  0  0  0
 11 17  1  0  0  0  0
 12 18  1  0  0  0  0
 13  1  1  0  0  0  0
 13 12  2  0  0  0  0
 14 13  1  0  0  0  0
 15 14  2  0  0  0  0
 15 16  1  0  0  0  0
 16 11  2  0  0  0  0
 19 15  1  0  0  0  0
 20 23  1  0  0  0  0
 20 22  1  0  0  0  0
 21 20  1  0  0  0  0
M  END
>  <minimizedAffinity>
-4.63773251

$$$$

 OpenBabel03242516583D

 23 24  0  0  0  0  0  0  0  0999 V2000
   38.1350   29.6030   41.4170 C   0  0  0  0  0  0  0  0  0  0  0  0
   38.9840   30.6750   41.3440 C   0  0  0  0  0  0  0  0  0  0  0  0
   38.5760   31.8960   40.8690 C   0  0  0  0  0  0  0  0  0  0  0  0
   37.2580   32.0110   40.4600 C   0  0  0  0  0  0  0  0  0  0  0  0
   36.3540   30.9790   40.5060 C   0  0  0  0  0  0  0  0  0  0  0  0
   36.8460   29.7670   41.0010 C   0  0  0  0  0  0  0  0  0  0  0  0
   40.0230   30.5930   41.6640 H   0  0  0  0  0  0  0  0  0  0  0  0
   39.2330   32.7560   40.8040 H   0  0  0  0  0  0  0  0  0  0  0  0
   36.9160   32.9660   40.0820 H   0  0  0  0  0  0  0  0  0  0  0  0
   35.3220   31.0540   40.1890 H   0  0  0  0  0  0  0  0  0  0  0  0
   39.2810   26.8100   43.6800 C   0  0  0  0  0  0  0  0  0  0  0  0
   38.7350   28.0600   43.3030 C   0  0  0  0  0  0  0  0  0  0  0  0
   38.6730   28.3550   41.9360 C   0  0  0  0  0  0  0  0  0  0  0  0
   39.1350   27.4340   41.0710 N   0  0  0  0  0  0  0  0  0  0  0  0
   39.6530   26.2440   41.4420 C   0  0  0  0  0  0  0  0  0  0  0  0
   39.7250   25.9330   42.7710 N   0  0  0  0  0  0  0  0  0  0  0  0
   39.2850   26.6750   44.7600 H   0  0  0  0  0  0  0  0  0  0  0  0
   38.3680   28.7890   44.0100 H   0  0  0  0  0  0  0  0  0  0  0  0
   40.0060   25.5530   40.6900 H   0  0  0  0  0  0  0  0  0  0  0  0
   35.9400   28.5900   41.0880 C   0  0  0  0  0  0  0  0  0  0  0  0
   35.9740   28.0230   42.3550 F   0  0  0  0  0  0  0  0  0  0  0  0
   36.3950   27.6320   40.1950 F   0  0  0  0  0  0  0  0  0  0  0  0
   34.6600   28.9390   40.7170 F   0  0  0  0  0  0  0  0  0  0  0  0
  1 13  1  0  0  0  0
  2  1  1  0  0  0  0
  2  7  1  0  0  0  0
  3  2  2  0  0  0  0
  4  5  2  0  0  0  0
  4  3  1  0  0  0  0
  5  6  1  0  0  0  0
  6 20  1  0  0  0  0
  6  1  2  0  0  0  0
  8  3  1  0  0  0  0
  9  4  1  0  0  0  0
 10  5  1  0  0  0  0
 11 17  1  0  0  0  0
 12 11  1  0  0  0  0
 12 18  1  0  0  0  0
 13 12  2  0  0  0  0
 14 15  2  0  0  0  0
 14 13  1  0  0  0  0
 15 16  1  0  0  0  0
 16 11  2  0  0  0  0
 19 15  1  0  0  0  0
 20 21  1  0  0  0  0
 22 20  1  0  0  0  0
 23 20  1  0  0  0  0
M  END
>  <minimizedAffinity>
-4.62993765

$$$$

 OpenBabel03242516583D

 23 24  0  0  0  0  0  0  0  0999 V2000
   36.8200   26.4900   40.3040 C   0  0  0  0  0  0  0  0  0  0  0  0
   36.2970   27.1230   39.2100 C   0  0  0  0  0  0  0  0  0  0  0  0
   35.7380   26.4300   38.1660 C   0  0  0  0  0  0  0  0  0  0  0  0
   35.7200   25.0480   38.2570 C   0  0  0  0  0  0  0  0  0  0  0  0
   36.2270   24.3490   39.3250 C   0  0  0  0  0  0  0  0  0  0  0  0
   36.7800   25.1270   40.3480 C   0  0  0  0  0  0  0  0  0  0  0  0
   36.3060   28.2100   39.1300 H   0  0  0  0  0  0  0  0  0  0  0  0
   35.3180   26.9130   37.2900 H   0  0  0  0  0  0  0  0  0  0  0  0
   35.2840   24.4810   37.4440 H   0  0  0  0  0  0  0  0  0  0  0  0
   36.2210   23.2700   39.4090 H   0  0  0  0  0  0  0  0  0  0  0  0
   37.3470   28.5060   43.4500 C   0  0  0  0  0  0  0  0  0  0  0  0
   36.6810   27.6920   42.5030 C   0  0  0  0  0  0  0  0  0  0  0  0
   37.3890   27.3220   41.3530 C   0  0  0  0  0  0  0  0  0  0  0  0
   38.6530   27.7640   41.2230 N   0  0  0  0  0  0  0  0  0  0  0  0
   39.2790   28.5400   42.1320 C   0  0  0  0  0  0  0  0  0  0  0  0
   38.6090   28.9140   43.2640 N   0  0  0  0  0  0  0  0  0  0  0  0
   36.7160   28.7380   44.3060 H   0  0  0  0  0  0  0  0  0  0  0  0
   35.6650   27.3460   42.6230 H   0  0  0  0  0  0  0  0  0  0  0  0
   40.2970   28.8570   41.9600 H   0  0  0  0  0  0  0  0  0  0  0  0
   37.3550   24.4590   41.5460 C   0  0  0  0  0  0  0  0  0  0  0  0
   37.4540   23.0870   41.3560 F   0  0  0  0  0  0  0  0  0  0  0  0
   36.4900   24.6670   42.6100 F   0  0  0  0  0  0  0  0  0  0  0  0
   38.5700   25.0200   41.8730 F   0  0  0  0  0  0  0  0  0  0  0  0
  1  6  1  0  0  0  0
  1 13  1  0  0  0  0
  2  1  2  0  0  0  0
  3  4  2  0  0  0  0
  3  2  1  0  0  0  0
  4  5  1  0  0  0  0
  5 10  1  0  0  0  0
  5  6  2  0  0  0  0
  6 20  1  0  0  0  0
  7  2  1  0  0  0  0
  8  3  1  0  0  0  0
  9  4  1  0  0  0  0
 11 17  1  0  0  0  0
 12 18  1  0  0  0  0
 12 11  2  0  0  0  0
 13 12  1  0  0  0  0
 14 13  2  0  0  0  0
 14 15  1  0  0  0  0
 15 16  2  0  0  0  0
 16 11  1  0  0  0  0
 19 15  1  0  0  0  0
 20 23  1  0  0  0  0
 20 22  1  0  0  0  0
 21 20  1  0  0  0  0
M  END
>  <minimizedAffinity>
-4.59414959

$$$$

 OpenBabel03242516583D

 23 24  0  0  0  0  0  0  0  0999 V2000
   36.6440   28.5010   41.2950 C   0  0  0  0  0  0  0  0  0  0  0  0
   36.5370   27.3950   42.0940 C   0  0  0  0  0  0  0  0  0  0  0  0
   37.1960   27.2970   43.2940 C   0  0  0  0  0  0  0  0  0  0  0  0
   37.9860   28.3700   43.6750 C   0  0  0  0  0  0  0  0  0  0  0  0
   38.1380   29.5080   42.9220 C   0  0  0  0  0  0  0  0  0  0  0  0
   37.4340   29.5310   41.7130 C   0  0  0  0  0  0  0  0  0  0  0  0
   35.9170   26.5470   41.8030 H   0  0  0  0  0  0  0  0  0  0  0  0
   37.1250   26.4300   43.9410 H   0  0  0  0  0  0  0  0  0  0  0  0
   38.5160   28.3130   44.6170 H   0  0  0  0  0  0  0  0  0  0  0  0
   38.7520   30.3530   43.2070 H   0  0  0  0  0  0  0  0  0  0  0  0
   34.0210   29.0190   38.6320 C   0  0  0  0  0  0  0  0  0  0  0  0
   34.6400   29.0890   39.9030 C   0  0  0  0  0  0  0  0  0  0  0  0
   35.9010   28.4990   40.0440 C   0  0  0  0  0  0  0  0  0  0  0  0
   36.4420   27.9050   38.9640 N   0  0  0  0  0  0  0  0  0  0  0  0
   35.8430   27.8440   37.7570 C   0  0  0  0  0  0  0  0  0  0  0  0
   34.6110   28.4130   37.5940 N   0  0  0  0  0  0  0  0  0  0  0  0
   33.0470   29.5050   38.6250 H   0  0  0  0  0  0  0  0  0  0  0  0
   34.1910   29.5700   40.7600 H   0  0  0  0  0  0  0  0  0  0  0  0
   36.3390   27.3490   36.9350 H   0  0  0  0  0  0  0  0  0  0  0  0
   37.5370   30.7230   40.8290 C   0  0  0  0  0  0  0  0  0  0  0  0
   37.9500   30.3660   39.5530 F   0  0  0  0  0  0  0  0  0  0  0  0
   38.5040   31.5660   41.3560 F   0  0  0  0  0  0  0  0  0  0  0  0
   36.3440   31.4110   40.8070 F   0  0  0  0  0  0  0  0  0  0  0  0
  1  6  2  0  0  0  0
  1  2  1  0  0  0  0
  2  3  2  0  0  0  0
  3  4  1  0  0  0  0
  3  8  1  0  0  0  0
  4  9  1  0  0  0  0
  5 10  1  0  0  0  0
  5  4  2  0  0  0  0
  6  5  1  0  0  0  0
  7  2  1  0  0  0  0
 11 12  1  0  0  0  0
 12 13  2  0  0  0  0
 12 18  1  0  0  0  0
 13  1  1  0  0  0  0
 14 13  1  0  0  0  0
 15 14  2  0  0  0  0
 16 15  1  0  0  0  0
 16 11  2  0  0  0  0
 17 11  1  0  0  0  0
 19 15  1  0  0  0  0
 20 22  1  0  0  0  0
 20  6  1  0  0  0  0
 21 20  1  0  0  0  0
 23 20  1  0  0  0  0
M  END
>  <minimizedAffinity>
-4.51767445

$$$$
