
 OpenBabel03252503073D

 15 15  0  0  0  0  0  0  0  0999 V2000
   40.3870   27.6700   43.3820 C   0  0  0  0  0  0  0  0  0  0  0  0
   39.0210   27.6430   43.1170 C   0  0  0  0  0  0  0  0  0  0  0  0
   38.4320   26.4110   42.8800 C   0  0  0  0  0  0  0  0  0  0  0  0
   39.1920   25.2890   42.9110 N   0  0  0  0  0  0  0  0  0  0  0  0
   40.5190   25.3410   43.1710 C   0  0  0  0  0  0  0  0  0  0  0  0
   41.1090   26.5340   43.4060 N   0  0  0  0  0  0  0  0  0  0  0  0
   40.9040   28.6090   43.5760 H   0  0  0  0  0  0  0  0  0  0  0  0
   41.0390   24.3930   43.1750 H   0  0  0  0  0  0  0  0  0  0  0  0
   36.9710   26.4190   42.6000 C   0  0  0  0  0  0  0  0  0  0  0  0
   36.5570   25.1120   42.5450 F   0  0  0  0  0  0  0  0  0  0  0  0
   36.3030   27.0410   43.6380 F   0  0  0  0  0  0  0  0  0  0  0  0
   36.7650   27.0790   41.3990 F   0  0  0  0  0  0  0  0  0  0  0  0
   38.2480   28.8540   43.0920 C   0  0  0  0  0  0  0  0  0  0  0  0
   38.8610   29.9400   43.0060 O   0  0  0  0  0  0  0  0  0  0  0  0
   37.2140   28.5390   43.1590 H   0  0  0  0  0  0  0  0  0  0  0  0
  1  6  1  0  0  0  0
  1  7  1  0  0  0  0
  2  1  2  0  0  0  0
  3  4  2  0  0  0  0
  3  2  1  0  0  0  0
  4  5  1  0  0  0  0
  5  8  1  0  0  0  0
  5  6  2  0  0  0  0
  9  3  1  0  0  0  0
  9 11  1  0  0  0  0
 10  9  1  0  0  0  0
 12  9  1  0  0  0  0
 13  2  1  0  0  0  0
 13 15  1  0  0  0  0
 14 13  2  0  0  0  0
M  END
>  <minimizedAffinity>
-3.76092649

$$$$

 OpenBabel03252503073D

 15 15  0  0  0  0  0  0  0  0999 V2000
   39.3660   24.6720   42.7620 C   0  0  0  0  0  0  0  0  0  0  0  0
   38.2200   25.4560   42.6560 C   0  0  0  0  0  0  0  0  0  0  0  0
   38.2940   26.7710   43.0840 C   0  0  0  0  0  0  0  0  0  0  0  0
   39.4600   27.2480   43.5860 N   0  0  0  0  0  0  0  0  0  0  0  0
   40.5610   26.4660   43.6790 C   0  0  0  0  0  0  0  0  0  0  0  0
   40.5060   25.1810   43.2650 N   0  0  0  0  0  0  0  0  0  0  0  0
   39.3670   23.6310   42.4410 H   0  0  0  0  0  0  0  0  0  0  0  0
   41.4430   26.9360   44.0920 H   0  0  0  0  0  0  0  0  0  0  0  0
   37.0520   27.5800   42.9570 C   0  0  0  0  0  0  0  0  0  0  0  0
   36.0730   26.9440   43.6780 F   0  0  0  0  0  0  0  0  0  0  0  0
   37.2530   28.8300   43.5100 F   0  0  0  0  0  0  0  0  0  0  0  0
   36.7290   27.6680   41.6110 F   0  0  0  0  0  0  0  0  0  0  0  0
   37.0010   24.9160   42.1180 C   0  0  0  0  0  0  0  0  0  0  0  0
   37.0680   24.2590   41.0560 O   0  0  0  0  0  0  0  0  0  0  0  0
   36.2220   25.2190   42.8060 H   0  0  0  0  0  0  0  0  0  0  0  0
  1  6  1  0  0  0  0
  2  1  2  0  0  0  0
  2  3  1  0  0  0  0
  3  4  2  0  0  0  0
  4  5  1  0  0  0  0
  5  8  1  0  0  0  0
  6  5  2  0  0  0  0
  7  1  1  0  0  0  0
  9  3  1  0  0  0  0
  9 11  1  0  0  0  0
  9 10  1  0  0  0  0
 12  9  1  0  0  0  0
 13  2  1  0  0  0  0
 13 15  1  0  0  0  0
 14 13  2  0  0  0  0
M  END
>  <minimizedAffinity>
-3.71006942

$$$$

 OpenBabel03252503073D

 15 15  0  0  0  0  0  0  0  0999 V2000
   38.9840   28.8720   42.9230 C   0  0  0  0  0  0  0  0  0  0  0  0
   38.2000   29.6080   42.0380 C   0  0  0  0  0  0  0  0  0  0  0  0
   36.9340   29.1290   41.7440 C   0  0  0  0  0  0  0  0  0  0  0  0
   36.5040   27.9770   42.3150 N   0  0  0  0  0  0  0  0  0  0  0  0
   37.2850   27.2790   43.1730 C   0  0  0  0  0  0  0  0  0  0  0  0
   38.5220   27.7330   43.4710 N   0  0  0  0  0  0  0  0  0  0  0  0
   39.9870   29.2010   43.1910 H   0  0  0  0  0  0  0  0  0  0  0  0
   36.8540   26.3740   43.5770 H   0  0  0  0  0  0  0  0  0  0  0  0
   36.1240   29.9390   40.7950 C   0  0  0  0  0  0  0  0  0  0  0  0
   34.8940   29.3410   40.6910 F   0  0  0  0  0  0  0  0  0  0  0  0
   35.9440   31.2110   41.3070 F   0  0  0  0  0  0  0  0  0  0  0  0
   36.7880   29.9740   39.5790 F   0  0  0  0  0  0  0  0  0  0  0  0
   38.6900   30.8250   41.4510 C   0  0  0  0  0  0  0  0  0  0  0  0
   39.5900   31.4480   42.0560 O   0  0  0  0  0  0  0  0  0  0  0  0
   38.1270   30.9520   40.5360 H   0  0  0  0  0  0  0  0  0  0  0  0
  1  7  1  0  0  0  0
  1  6  1  0  0  0  0
  2  1  2  0  0  0  0
  3  2  1  0  0  0  0
  3  4  2  0  0  0  0
  4  5  1  0  0  0  0
  5  6  2  0  0  0  0
  5  8  1  0  0  0  0
  9 11  1  0  0  0  0
  9  3  1  0  0  0  0
 10  9  1  0  0  0  0
 12  9  1  0  0  0  0
 13  2  1  0  0  0  0
 13 14  2  0  0  0  0
 15 13  1  0  0  0  0
M  END
>  <minimizedAffinity>
-3.6090517

$$$$

 OpenBabel03252503073D

 15 15  0  0  0  0  0  0  0  0999 V2000
   37.4530   30.3980   40.7750 C   0  0  0  0  0  0  0  0  0  0  0  0
   37.0280   29.1630   41.2580 C   0  0  0  0  0  0  0  0  0  0  0  0
   37.7280   28.6070   42.3170 C   0  0  0  0  0  0  0  0  0  0  0  0
   38.7870   29.2700   42.8410 N   0  0  0  0  0  0  0  0  0  0  0  0
   39.1810   30.4710   42.3540 C   0  0  0  0  0  0  0  0  0  0  0  0
   38.5090   31.0270   41.3230 N   0  0  0  0  0  0  0  0  0  0  0  0
   36.9400   30.8830   39.9450 H   0  0  0  0  0  0  0  0  0  0  0  0
   40.0360   30.9220   42.8390 H   0  0  0  0  0  0  0  0  0  0  0  0
   37.2480   27.2870   42.8070 C   0  0  0  0  0  0  0  0  0  0  0  0
   37.1370   26.4600   41.7180 F   0  0  0  0  0  0  0  0  0  0  0  0
   38.1820   26.7440   43.6690 F   0  0  0  0  0  0  0  0  0  0  0  0
   36.0280   27.4780   43.4380 F   0  0  0  0  0  0  0  0  0  0  0  0
   35.9000   28.4890   40.6760 C   0  0  0  0  0  0  0  0  0  0  0  0
   34.8500   29.1450   40.5000 O   0  0  0  0  0  0  0  0  0  0  0  0
   36.2280   27.4720   40.5020 H   0  0  0  0  0  0  0  0  0  0  0  0
  1  2  2  0  0  0  0
  1  6  1  0  0  0  0
  2  3  1  0  0  0  0
  3  9  1  0  0  0  0
  3  4  2  0  0  0  0
  5  8  1  0  0  0  0
  5  4  1  0  0  0  0
  6  5  2  0  0  0  0
  7  1  1  0  0  0  0
  9 12  1  0  0  0  0
  9 11  1  0  0  0  0
 10  9  1  0  0  0  0
 13  2  1  0  0  0  0
 14 13  2  0  0  0  0
 15 13  1  0  0  0  0
M  END
>  <minimizedAffinity>
-3.59057808

$$$$

 OpenBabel03252503073D

 15 15  0  0  0  0  0  0  0  0999 V2000
   37.3610   29.5140   40.4860 C   0  0  0  0  0  0  0  0  0  0  0  0
   37.3610   28.7370   41.6420 C   0  0  0  0  0  0  0  0  0  0  0  0
   36.9580   27.4160   41.5320 C   0  0  0  0  0  0  0  0  0  0  0  0
   36.5820   26.9280   40.3250 N   0  0  0  0  0  0  0  0  0  0  0  0
   36.5910   27.7040   39.2150 C   0  0  0  0  0  0  0  0  0  0  0  0
   36.9820   28.9940   39.3040 N   0  0  0  0  0  0  0  0  0  0  0  0
   37.6690   30.5580   40.5120 H   0  0  0  0  0  0  0  0  0  0  0  0
   36.2750   27.2240   38.2990 H   0  0  0  0  0  0  0  0  0  0  0  0
   36.9690   26.6150   42.7860 C   0  0  0  0  0  0  0  0  0  0  0  0
   36.5980   25.3350   42.4590 F   0  0  0  0  0  0  0  0  0  0  0  0
   38.2520   26.5750   43.3000 F   0  0  0  0  0  0  0  0  0  0  0  0
   36.0850   27.1980   43.6800 F   0  0  0  0  0  0  0  0  0  0  0  0
   37.7660   29.2890   42.9050 C   0  0  0  0  0  0  0  0  0  0  0  0
   38.8510   29.9090   42.9540 O   0  0  0  0  0  0  0  0  0  0  0  0
   36.9800   29.0280   43.6010 H   0  0  0  0  0  0  0  0  0  0  0  0
  1  7  1  0  0  0  0
  1  2  1  0  0  0  0
  2 13  1  0  0  0  0
  3  2  2  0  0  0  0
  3  9  1  0  0  0  0
  4  3  1  0  0  0  0
  5  6  1  0  0  0  0
  5  4  2  0  0  0  0
  6  1  2  0  0  0  0
  8  5  1  0  0  0  0
  9 11  1  0  0  0  0
  9 12  1  0  0  0  0
 10  9  1  0  0  0  0
 13 14  2  0  0  0  0
 13 15  1  0  0  0  0
M  END
>  <minimizedAffinity>
-3.56011558

$$$$

 OpenBabel03252503073D

 15 15  0  0  0  0  0  0  0  0999 V2000
   39.2800   27.3900   43.5150 C   0  0  0  0  0  0  0  0  0  0  0  0
   38.2310   26.7110   42.9010 C   0  0  0  0  0  0  0  0  0  0  0  0
   38.4640   25.4160   42.4680 C   0  0  0  0  0  0  0  0  0  0  0  0
   39.6860   24.8580   42.6510 N   0  0  0  0  0  0  0  0  0  0  0  0
   40.6900   25.5390   43.2510 C   0  0  0  0  0  0  0  0  0  0  0  0
   40.4800   26.8020   43.6800 N   0  0  0  0  0  0  0  0  0  0  0  0
   39.1540   28.4100   43.8750 H   0  0  0  0  0  0  0  0  0  0  0  0
   41.6280   25.0090   43.3520 H   0  0  0  0  0  0  0  0  0  0  0  0
   37.3210   24.7200   41.8170 C   0  0  0  0  0  0  0  0  0  0  0  0
   37.6910   23.4120   41.6280 F   0  0  0  0  0  0  0  0  0  0  0  0
   36.2240   24.7420   42.6570 F   0  0  0  0  0  0  0  0  0  0  0  0
   37.0520   25.3610   40.6170 F   0  0  0  0  0  0  0  0  0  0  0  0
   36.9480   27.3350   42.7240 C   0  0  0  0  0  0  0  0  0  0  0  0
   36.9110   28.4520   42.1640 O   0  0  0  0  0  0  0  0  0  0  0  0
   36.2300   26.6470   43.1510 H   0  0  0  0  0  0  0  0  0  0  0  0
  1  6  1  0  0  0  0
  1  7  1  0  0  0  0
  2  1  2  0  0  0  0
  3  4  2  0  0  0  0
  3  2  1  0  0  0  0
  4  5  1  0  0  0  0
  5  8  1  0  0  0  0
  5  6  2  0  0  0  0
  9  3  1  0  0  0  0
  9 11  1  0  0  0  0
 10  9  1  0  0  0  0
 12  9  1  0  0  0  0
 13  2  1  0  0  0  0
 13 15  1  0  0  0  0
 14 13  2  0  0  0  0
M  END
>  <minimizedAffinity>
-3.4960928

$$$$

 OpenBabel03252503073D

 15 15  0  0  0  0  0  0  0  0999 V2000
   37.6250   29.3050   42.6510 C   0  0  0  0  0  0  0  0  0  0  0  0
   37.7260   27.9180   42.5790 C   0  0  0  0  0  0  0  0  0  0  0  0
   37.0130   27.2690   41.5840 C   0  0  0  0  0  0  0  0  0  0  0  0
   36.2520   27.9910   40.7260 N   0  0  0  0  0  0  0  0  0  0  0  0
   36.1700   29.3390   40.8160 C   0  0  0  0  0  0  0  0  0  0  0  0
   36.8600   29.9880   41.7800 N   0  0  0  0  0  0  0  0  0  0  0  0
   38.1640   29.8680   43.4120 H   0  0  0  0  0  0  0  0  0  0  0  0
   35.5380   29.8260   40.0860 H   0  0  0  0  0  0  0  0  0  0  0  0
   37.1430   25.7880   41.5360 C   0  0  0  0  0  0  0  0  0  0  0  0
   36.4730   25.3530   40.4200 F   0  0  0  0  0  0  0  0  0  0  0  0
   38.4750   25.4420   41.4030 F   0  0  0  0  0  0  0  0  0  0  0  0
   36.6000   25.2680   42.7010 F   0  0  0  0  0  0  0  0  0  0  0  0
   38.5440   27.1860   43.5070 C   0  0  0  0  0  0  0  0  0  0  0  0
   39.7640   27.4540   43.5530 O   0  0  0  0  0  0  0  0  0  0  0  0
   37.8710   26.5020   44.0080 H   0  0  0  0  0  0  0  0  0  0  0  0
  1  7  1  0  0  0  0
  2  1  1  0  0  0  0
  2 13  1  0  0  0  0
  3  2  2  0  0  0  0
  4  5  2  0  0  0  0
  4  3  1  0  0  0  0
  5  6  1  0  0  0  0
  6  1  2  0  0  0  0
  8  5  1  0  0  0  0
  9  3  1  0  0  0  0
  9 12  1  0  0  0  0
 10  9  1  0  0  0  0
 11  9  1  0  0  0  0
 13 14  2  0  0  0  0
 13 15  1  0  0  0  0
M  END
>  <minimizedAffinity>
-3.48712206

$$$$

 OpenBabel03252503073D

 15 15  0  0  0  0  0  0  0  0999 V2000
   37.2080   26.0190   39.8210 C   0  0  0  0  0  0  0  0  0  0  0  0
   37.1970   26.1970   41.2010 C   0  0  0  0  0  0  0  0  0  0  0  0
   37.3270   27.4880   41.6880 C   0  0  0  0  0  0  0  0  0  0  0  0
   37.4590   28.5210   40.8200 N   0  0  0  0  0  0  0  0  0  0  0  0
   37.4660   28.3210   39.4810 C   0  0  0  0  0  0  0  0  0  0  0  0
   37.3400   27.0690   38.9890 N   0  0  0  0  0  0  0  0  0  0  0  0
   37.1090   25.0270   39.3820 H   0  0  0  0  0  0  0  0  0  0  0  0
   37.5760   29.2070   38.8700 H   0  0  0  0  0  0  0  0  0  0  0  0
   37.3120   27.6420   43.1670 C   0  0  0  0  0  0  0  0  0  0  0  0
   37.3160   28.9870   43.4400 F   0  0  0  0  0  0  0  0  0  0  0  0
   36.1470   27.1010   43.6790 F   0  0  0  0  0  0  0  0  0  0  0  0
   38.4320   27.0060   43.6800 F   0  0  0  0  0  0  0  0  0  0  0  0
   37.0550   25.0770   42.0910 C   0  0  0  0  0  0  0  0  0  0  0  0
   37.9940   24.2540   42.1530 O   0  0  0  0  0  0  0  0  0  0  0  0
   36.0850   25.1970   42.5550 H   0  0  0  0  0  0  0  0  0  0  0  0
  1  2  1  0  0  0  0
  2  3  2  0  0  0  0
  2 13  1  0  0  0  0
  3  9  1  0  0  0  0
  4  3  1  0  0  0  0
  5  4  2  0  0  0  0
  6  5  1  0  0  0  0
  6  1  2  0  0  0  0
  7  1  1  0  0  0  0
  8  5  1  0  0  0  0
  9 10  1  0  0  0  0
  9 11  1  0  0  0  0
  9 12  1  0  0  0  0
 13 14  2  0  0  0  0
 13 15  1  0  0  0  0
M  END
>  <minimizedAffinity>
-3.47341847

$$$$

 OpenBabel03252503073D

 15 15  0  0  0  0  0  0  0  0999 V2000
   38.2500   29.8470   41.7510 C   0  0  0  0  0  0  0  0  0  0  0  0
   38.6600   31.0960   41.2930 C   0  0  0  0  0  0  0  0  0  0  0  0
   37.7260   31.8840   40.6400 C   0  0  0  0  0  0  0  0  0  0  0  0
   36.4630   31.4220   40.4680 N   0  0  0  0  0  0  0  0  0  0  0  0
   36.0890   30.2030   40.9230 C   0  0  0  0  0  0  0  0  0  0  0  0
   36.9860   29.4230   41.5630 N   0  0  0  0  0  0  0  0  0  0  0  0
   38.9410   29.1850   42.2720 H   0  0  0  0  0  0  0  0  0  0  0  0
   35.0600   29.9240   40.7400 H   0  0  0  0  0  0  0  0  0  0  0  0
   38.1980   33.2110   40.1630 C   0  0  0  0  0  0  0  0  0  0  0  0
   39.1240   32.9870   39.1750 F   0  0  0  0  0  0  0  0  0  0  0  0
   37.1400   33.9100   39.6120 F   0  0  0  0  0  0  0  0  0  0  0  0
   38.7450   33.8890   41.2410 F   0  0  0  0  0  0  0  0  0  0  0  0
   40.0090   31.5520   41.4930 C   0  0  0  0  0  0  0  0  0  0  0  0
   40.5580   31.2980   42.5870 O   0  0  0  0  0  0  0  0  0  0  0  0
   40.2810   32.0600   40.5770 H   0  0  0  0  0  0  0  0  0  0  0  0
  1  7  1  0  0  0  0
  2 13  1  0  0  0  0
  2  1  2  0  0  0  0
  3  2  1  0  0  0  0
  4  3  2  0  0  0  0
  4  5  1  0  0  0  0
  5  6  2  0  0  0  0
  6  1  1  0  0  0  0
  8  5  1  0  0  0  0
  9  3  1  0  0  0  0
  9 12  1  0  0  0  0
 10  9  1  0  0  0  0
 11  9  1  0  0  0  0
 13 14  2  0  0  0  0
 15 13  1  0  0  0  0
M  END
>  <minimizedAffinity>
-3.41917086

$$$$
