
 OpenBabel03242520043D

 34 36  0  0  1  0  0  0  0  0999 V2000
   37.3980   27.9090   40.5570 N   0  0  0  0  0  0  0  0  0  0  0  0
   36.5050   28.4600   39.6070 C   0  0  1  0  0  0  0  0  0  0  0  0
   35.2960   28.9900   40.3380 C   0  0  0  0  0  0  0  0  0  0  0  0
   35.7930   30.0840   41.1750 N   0  0  0  0  0  0  0  0  0  0  0  0
   36.6740   29.6170   42.2030 C   0  0  0  0  0  0  0  0  0  0  0  0
   37.6430   28.5640   41.7690 C   0  0  1  0  0  0  0  0  0  0  0  0
   38.2770   27.6120   40.0780 H   0  0  0  0  0  0  0  0  0  0  0  0
   36.2050   27.6520   38.8990 H   0  0  0  0  0  0  0  0  0  0  0  0
   34.9390   28.1800   41.0180 H   0  0  0  0  0  0  0  0  0  0  0  0
   34.5100   29.3520   39.6750 H   0  0  0  0  0  0  0  0  0  0  0  0
   35.0410   30.6440   41.5870 H   0  0  0  0  0  0  0  0  0  0  0  0
   37.2380   30.5260   42.5580 H   0  0  0  0  0  0  0  0  0  0  0  0
   36.0380   29.3300   43.0700 H   0  0  0  0  0  0  0  0  0  0  0  0
   38.6750   28.9740   41.7720 H   0  0  0  0  0  0  0  0  0  0  0  0
   38.4460   31.1360   38.3420 C   0  0  0  0  0  0  0  0  0  0  0  0
   37.4270   31.1240   37.4050 C   0  0  0  0  0  0  0  0  0  0  0  0
   36.5670   30.1360   37.7390 C   0  0  0  0  0  0  0  0  0  0  0  0
   37.0500   29.5540   38.8590 N   0  0  0  0  0  0  0  0  0  0  0  0
   38.1830   30.1640   39.2120 N   0  0  0  0  0  0  0  0  0  0  0  0
   37.3350   31.7890   36.5560 H   0  0  0  0  0  0  0  0  0  0  0  0
   35.6470   29.8050   37.2620 H   0  0  0  0  0  0  0  0  0  0  0  0
   41.5770   32.8240   37.4070 C   0  0  0  0  0  0  0  0  0  0  0  0
   41.7190   33.8020   38.4030 C   0  0  0  0  0  0  0  0  0  0  0  0
   40.7270   33.8670   39.3880 C   0  0  0  0  0  0  0  0  0  0  0  0
   39.7010   32.9880   39.3200 N   0  0  0  0  0  0  0  0  0  0  0  0
   39.5940   32.0590   38.3500 C   0  0  0  0  0  0  0  0  0  0  0  0
   40.5280   31.9720   37.3920 N   0  0  0  0  0  0  0  0  0  0  0  0
   42.3730   32.8290   36.6830 H   0  0  0  0  0  0  0  0  0  0  0  0
   42.5180   34.5020   38.4740 H   0  0  0  0  0  0  0  0  0  0  0  0
   40.7040   34.5700   40.2190 H   0  0  0  0  0  0  0  0  0  0  0  0
   37.6220   27.5040   42.8810 C   0  0  0  0  0  0  0  0  0  0  0  0
   37.6160   26.2230   42.3610 F   0  0  0  0  0  0  0  0  0  0  0  0
   38.7450   27.6160   43.6720 F   0  0  0  0  0  0  0  0  0  0  0  0
   36.4980   27.6250   43.6750 F   0  0  0  0  0  0  0  0  0  0  0  0
  1  6  1  0  0  0  0
  2  8  1  6  0  0  0
  2  3  1  0  0  0  0
  2  1  1  0  0  0  0
  3  9  1  0  0  0  0
  3  4  1  0  0  0  0
  4 11  1  0  0  0  0
  4  5  1  0  0  0  0
  5 12  1  0  0  0  0
  5 13  1  0  0  0  0
  6 14  1  6  0  0  0
  6  5  1  0  0  0  0
  6 31  1  0  0  0  0
  7  1  1  0  0  0  0
 10  3  1  0  0  0  0
 15 26  1  0  0  0  0
 15 19  2  0  0  0  0
 16 17  2  0  0  0  0
 16 15  1  0  0  0  0
 17 18  1  0  0  0  0
 18 19  1  0  0  0  0
 18  2  1  0  0  0  0
 20 16  1  0  0  0  0
 21 17  1  0  0  0  0
 22 23  1  0  0  0  0
 23 29  1  0  0  0  0
 23 24  2  0  0  0  0
 24 30  1  0  0  0  0
 25 24  1  0  0  0  0
 26 25  2  0  0  0  0
 27 22  2  0  0  0  0
 27 26  1  0  0  0  0
 28 22  1  0  0  0  0
 31 33  1  0  0  0  0
 31 34  1  0  0  0  0
 32 31  1  0  0  0  0
M  END
>  <minimizedAffinity>
-5.46734476

$$$$

 OpenBabel03242520043D

 34 36  0  0  1  0  0  0  0  0999 V2000
   37.3420   27.8930   40.5380 N   0  0  0  0  0  0  0  0  0  0  0  0
   36.4520   28.4670   39.6000 C   0  0  1  0  0  0  0  0  0  0  0  0
   35.2700   29.0340   40.3470 C   0  0  0  0  0  0  0  0  0  0  0  0
   35.8100   30.1150   41.1740 N   0  0  0  0  0  0  0  0  0  0  0  0
   36.6920   29.6240   42.1900 C   0  0  0  0  0  0  0  0  0  0  0  0
   37.6230   28.5420   41.7450 C   0  0  1  0  0  0  0  0  0  0  0  0
   38.2050   27.5690   40.0470 H   0  0  0  0  0  0  0  0  0  0  0  0
   36.1180   27.6670   38.8980 H   0  0  0  0  0  0  0  0  0  0  0  0
   34.8990   28.2360   41.0340 H   0  0  0  0  0  0  0  0  0  0  0  0
   34.4850   29.4170   39.6940 H   0  0  0  0  0  0  0  0  0  0  0  0
   35.0810   30.6970   41.5950 H   0  0  0  0  0  0  0  0  0  0  0  0
   37.2880   30.5170   42.5350 H   0  0  0  0  0  0  0  0  0  0  0  0
   36.0610   29.3580   43.0670 H   0  0  0  0  0  0  0  0  0  0  0  0
   38.6670   28.9220   41.7320 H   0  0  0  0  0  0  0  0  0  0  0  0
   38.4310   31.1090   38.3230 C   0  0  0  0  0  0  0  0  0  0  0  0
   37.4340   31.0810   37.3630 C   0  0  0  0  0  0  0  0  0  0  0  0
   36.5630   30.1020   37.6980 C   0  0  0  0  0  0  0  0  0  0  0  0
   37.0180   29.5440   38.8410 N   0  0  0  0  0  0  0  0  0  0  0  0
   38.1440   30.1570   39.2080 N   0  0  0  0  0  0  0  0  0  0  0  0
   37.3640   31.7270   36.4990 H   0  0  0  0  0  0  0  0  0  0  0  0
   35.6530   29.7640   37.2070 H   0  0  0  0  0  0  0  0  0  0  0  0
   40.7340   33.8070   39.2970 C   0  0  0  0  0  0  0  0  0  0  0  0
   41.7450   33.7250   38.3270 C   0  0  0  0  0  0  0  0  0  0  0  0
   41.6190   32.7340   37.3460 C   0  0  0  0  0  0  0  0  0  0  0  0
   40.5370   31.9240   37.3930 N   0  0  0  0  0  0  0  0  0  0  0  0
   39.5820   32.0290   38.3380 C   0  0  0  0  0  0  0  0  0  0  0  0
   39.6750   32.9680   39.2910 N   0  0  0  0  0  0  0  0  0  0  0  0
   40.8930   34.5890   40.0180 H   0  0  0  0  0  0  0  0  0  0  0  0
   42.6040   34.3520   38.2730 H   0  0  0  0  0  0  0  0  0  0  0  0
   42.3220   32.5520   36.5350 H   0  0  0  0  0  0  0  0  0  0  0  0
   37.5870   27.4860   42.8600 C   0  0  0  0  0  0  0  0  0  0  0  0
   38.6970   27.5750   43.6790 F   0  0  0  0  0  0  0  0  0  0  0  0
   36.4780   27.6680   43.6580 F   0  0  0  0  0  0  0  0  0  0  0  0
   37.5650   26.2050   42.3430 F   0  0  0  0  0  0  0  0  0  0  0  0
  1  6  1  0  0  0  0
  2  8  1  6  0  0  0
  2  3  1  0  0  0  0
  2  1  1  0  0  0  0
  3  9  1  0  0  0  0
  3  4  1  0  0  0  0
  4 11  1  0  0  0  0
  4  5  1  0  0  0  0
  5 12  1  0  0  0  0
  5 13  1  0  0  0  0
  6 14  1  6  0  0  0
  6  5  1  0  0  0  0
  6 31  1  0  0  0  0
  7  1  1  0  0  0  0
 10  3  1  0  0  0  0
 15 26  1  0  0  0  0
 15 19  2  0  0  0  0
 16 17  2  0  0  0  0
 16 15  1  0  0  0  0
 17 18  1  0  0  0  0
 18 19  1  0  0  0  0
 18  2  1  0  0  0  0
 20 16  1  0  0  0  0
 21 17  1  0  0  0  0
 22 28  1  0  0  0  0
 23 22  2  0  0  0  0
 24 25  2  0  0  0  0
 24 23  1  0  0  0  0
 25 26  1  0  0  0  0
 26 27  2  0  0  0  0
 27 22  1  0  0  0  0
 29 23  1  0  0  0  0
 30 24  1  0  0  0  0
 31 33  1  0  0  0  0
 31 32  1  0  0  0  0
 34 31  1  0  0  0  0
M  END
>  <minimizedAffinity>
-5.4648118

$$$$

 OpenBabel03242520043D

 34 36  0  0  1  0  0  0  0  0999 V2000
   36.9910   27.1050   42.5620 N   0  0  0  0  0  0  0  0  0  0  0  0
   37.8080   28.1310   43.0920 C   0  0  1  0  0  0  0  0  0  0  0  0
   39.2150   27.6020   43.2250 C   0  0  0  0  0  0  0  0  0  0  0  0
   39.6630   27.3320   41.8580 N   0  0  0  0  0  0  0  0  0  0  0  0
   38.9220   26.2680   41.2500 C   0  0  0  0  0  0  0  0  0  0  0  0
   37.4510   26.2940   41.5190 C   0  0  1  0  0  0  0  0  0  0  0  0
   36.0320   27.4780   42.3860 H   0  0  0  0  0  0  0  0  0  0  0  0
   37.4070   28.4180   44.0930 H   0  0  0  0  0  0  0  0  0  0  0  0
   39.1520   26.6250   43.7590 H   0  0  0  0  0  0  0  0  0  0  0  0
   39.8980   28.2980   43.7140 H   0  0  0  0  0  0  0  0  0  0  0  0
   40.6670   27.1370   41.7980 H   0  0  0  0  0  0  0  0  0  0  0  0
   39.1050   26.3640   40.1410 H   0  0  0  0  0  0  0  0  0  0  0  0
   39.4260   25.3180   41.5330 H   0  0  0  0  0  0  0  0  0  0  0  0
   36.9000   26.5350   40.5860 H   0  0  0  0  0  0  0  0  0  0  0  0
   38.7650   31.0670   41.3620 C   0  0  0  0  0  0  0  0  0  0  0  0
   37.4680   30.9360   40.8970 C   0  0  0  0  0  0  0  0  0  0  0  0
   36.9310   29.8350   41.4700 C   0  0  0  0  0  0  0  0  0  0  0  0
   37.8810   29.3030   42.2690 N   0  0  0  0  0  0  0  0  0  0  0  0
   38.9820   30.0530   42.1960 N   0  0  0  0  0  0  0  0  0  0  0  0
   36.9710   31.5980   40.2000 H   0  0  0  0  0  0  0  0  0  0  0  0
   35.9420   29.3920   41.3670 H   0  0  0  0  0  0  0  0  0  0  0  0
   40.1460   34.1610   39.9310 C   0  0  0  0  0  0  0  0  0  0  0  0
   41.4980   34.1080   40.3080 C   0  0  0  0  0  0  0  0  0  0  0  0
   41.9150   33.0010   41.0550 C   0  0  0  0  0  0  0  0  0  0  0  0
   40.9970   32.0560   41.3650 N   0  0  0  0  0  0  0  0  0  0  0  0
   39.7070   32.1360   40.9870 C   0  0  0  0  0  0  0  0  0  0  0  0
   39.2760   33.1850   40.2700 N   0  0  0  0  0  0  0  0  0  0  0  0
   39.8940   35.0360   39.3600 H   0  0  0  0  0  0  0  0  0  0  0  0
   42.2340   34.8400   40.0750 H   0  0  0  0  0  0  0  0  0  0  0  0
   42.9270   32.8250   41.4160 H   0  0  0  0  0  0  0  0  0  0  0  0
   37.0710   24.8440   41.8560 C   0  0  0  0  0  0  0  0  0  0  0  0
   36.2010   24.7840   42.9290 F   0  0  0  0  0  0  0  0  0  0  0  0
   36.4360   24.2530   40.7840 F   0  0  0  0  0  0  0  0  0  0  0  0
   38.1810   24.0940   42.1910 F   0  0  0  0  0  0  0  0  0  0  0  0
  1  2  1  0  0  0  0
  2  3  1  0  0  0  0
  2  8  1  1  0  0  0
  3 10  1  0  0  0  0
  3  9  1  0  0  0  0
  4  3  1  0  0  0  0
  5  6  1  0  0  0  0
  5 13  1  0  0  0  0
  5  4  1  0  0  0  0
  6 14  1  6  0  0  0
  6 31  1  0  0  0  0
  6  1  1  0  0  0  0
  7  1  1  0  0  0  0
 11  4  1  0  0  0  0
 12  5  1  0  0  0  0
 15 19  2  0  0  0  0
 16 15  1  0  0  0  0
 16 17  2  0  0  0  0
 17 18  1  0  0  0  0
 18  2  1  0  0  0  0
 19 18  1  0  0  0  0
 20 16  1  0  0  0  0
 21 17  1  0  0  0  0
 22 27  2  0  0  0  0
 22 23  1  0  0  0  0
 23 24  2  0  0  0  0
 24 25  1  0  0  0  0
 24 30  1  0  0  0  0
 26 15  1  0  0  0  0
 26 25  2  0  0  0  0
 27 26  1  0  0  0  0
 28 22  1  0  0  0  0
 29 23  1  0  0  0  0
 31 34  1  0  0  0  0
 31 32  1  0  0  0  0
 33 31  1  0  0  0  0
M  END
>  <minimizedAffinity>
-5.22641754

$$$$

 OpenBabel03242520043D

 34 36  0  0  1  0  0  0  0  0999 V2000
   36.8340   31.7180   40.7240 N   0  0  0  0  0  0  0  0  0  0  0  0
   36.1980   30.5920   40.1490 C   0  0  1  0  0  0  0  0  0  0  0  0
   36.6480   30.4690   38.7140 C   0  0  0  0  0  0  0  0  0  0  0  0
   38.0840   30.1900   38.7760 N   0  0  0  0  0  0  0  0  0  0  0  0
   38.8240   31.2970   39.3040 C   0  0  0  0  0  0  0  0  0  0  0  0
   38.1850   31.9790   40.4720 C   0  0  1  0  0  0  0  0  0  0  0  0
   36.5980   31.7700   41.7400 H   0  0  0  0  0  0  0  0  0  0  0  0
   35.0950   30.7510   40.1950 H   0  0  0  0  0  0  0  0  0  0  0  0
   36.5190   31.4710   38.2390 H   0  0  0  0  0  0  0  0  0  0  0  0
   36.1370   29.6800   38.1620 H   0  0  0  0  0  0  0  0  0  0  0  0
   38.4760   29.9080   37.8730 H   0  0  0  0  0  0  0  0  0  0  0  0
   39.8240   30.8770   39.6130 H   0  0  0  0  0  0  0  0  0  0  0  0
   39.0580   31.9690   38.4500 H   0  0  0  0  0  0  0  0  0  0  0  0
   38.7810   31.7930   41.3910 H   0  0  0  0  0  0  0  0  0  0  0  0
   36.8250   27.2090   40.9790 C   0  0  0  0  0  0  0  0  0  0  0  0
   37.0720   27.8000   42.2060 C   0  0  0  0  0  0  0  0  0  0  0  0
   36.8760   29.1310   42.0740 C   0  0  0  0  0  0  0  0  0  0  0  0
   36.5150   29.3500   40.7910 N   0  0  0  0  0  0  0  0  0  0  0  0
   36.4880   28.1860   40.1400 N   0  0  0  0  0  0  0  0  0  0  0  0
   37.3700   27.2860   43.1110 H   0  0  0  0  0  0  0  0  0  0  0  0
   36.9660   29.9370   42.7990 H   0  0  0  0  0  0  0  0  0  0  0  0
   37.6600   23.6370   41.2520 C   0  0  0  0  0  0  0  0  0  0  0  0
   37.0850   23.0890   40.0950 C   0  0  0  0  0  0  0  0  0  0  0  0
   36.4120   23.9630   39.2330 C   0  0  0  0  0  0  0  0  0  0  0  0
   36.3600   25.2730   39.5660 N   0  0  0  0  0  0  0  0  0  0  0  0
   36.9240   25.7690   40.6840 C   0  0  0  0  0  0  0  0  0  0  0  0
   37.5750   24.9570   41.5300 N   0  0  0  0  0  0  0  0  0  0  0  0
   38.1610   22.9120   41.8690 H   0  0  0  0  0  0  0  0  0  0  0  0
   37.1150   22.0620   39.8160 H   0  0  0  0  0  0  0  0  0  0  0  0
   35.9190   23.6820   38.3040 H   0  0  0  0  0  0  0  0  0  0  0  0
   38.3230   33.4840   40.1940 C   0  0  0  0  0  0  0  0  0  0  0  0
   37.1430   34.0200   39.7120 F   0  0  0  0  0  0  0  0  0  0  0  0
   38.6330   34.1600   41.3540 F   0  0  0  0  0  0  0  0  0  0  0  0
   39.2990   33.7370   39.2500 F   0  0  0  0  0  0  0  0  0  0  0  0
  1  7  1  0  0  0  0
  2  8  1  1  0  0  0
  2  1  1  0  0  0  0
  2 18  1  0  0  0  0
  3  4  1  0  0  0  0
  3  2  1  0  0  0  0
  4  5  1  0  0  0  0
  5 12  1  0  0  0  0
  5  6  1  0  0  0  0
  6  1  1  0  0  0  0
  6 14  1  1  0  0  0
  9  3  1  0  0  0  0
 10  3  1  0  0  0  0
 11  4  1  0  0  0  0
 13  5  1  0  0  0  0
 15 16  1  0  0  0  0
 16 20  1  0  0  0  0
 17 16  2  0  0  0  0
 17 21  1  0  0  0  0
 18 17  1  0  0  0  0
 19 18  1  0  0  0  0
 19 15  2  0  0  0  0
 22 27  1  0  0  0  0
 22 28  1  0  0  0  0
 23 22  2  0  0  0  0
 24 25  2  0  0  0  0
 24 23  1  0  0  0  0
 25 26  1  0  0  0  0
 26 15  1  0  0  0  0
 26 27  2  0  0  0  0
 29 23  1  0  0  0  0
 30 24  1  0  0  0  0
 31  6  1  0  0  0  0
 31 33  1  0  0  0  0
 32 31  1  0  0  0  0
 34 31  1  0  0  0  0
M  END
>  <minimizedAffinity>
-5.18564272

$$$$

 OpenBabel03242520043D

 34 36  0  0  1  0  0  0  0  0999 V2000
   37.0960   27.0270   42.6440 N   0  0  0  0  0  0  0  0  0  0  0  0
   37.9520   28.0400   43.1380 C   0  0  1  0  0  0  0  0  0  0  0  0
   39.3600   27.4980   43.1760 C   0  0  0  0  0  0  0  0  0  0  0  0
   39.7210   27.2460   41.7800 N   0  0  0  0  0  0  0  0  0  0  0  0
   38.9350   26.1970   41.2030 C   0  0  0  0  0  0  0  0  0  0  0  0
   37.4830   26.2300   41.5630 C   0  0  1  0  0  0  0  0  0  0  0  0
   36.1310   27.4110   42.5330 H   0  0  0  0  0  0  0  0  0  0  0  0
   37.6160   28.3140   44.1650 H   0  0  0  0  0  0  0  0  0  0  0  0
   39.3220   26.5130   43.6980 H   0  0  0  0  0  0  0  0  0  0  0  0
   40.0780   28.1810   43.6310 H   0  0  0  0  0  0  0  0  0  0  0  0
   40.7170   27.0440   41.6550 H   0  0  0  0  0  0  0  0  0  0  0  0
   39.0490   26.3070   40.0860 H   0  0  0  0  0  0  0  0  0  0  0  0
   39.4470   25.2380   41.4400 H   0  0  0  0  0  0  0  0  0  0  0  0
   36.8770   26.4880   40.6690 H   0  0  0  0  0  0  0  0  0  0  0  0
   38.8200   31.0060   41.4120 C   0  0  0  0  0  0  0  0  0  0  0  0
   37.5060   30.8720   40.9990 C   0  0  0  0  0  0  0  0  0  0  0  0
   36.9990   29.7590   41.5770 C   0  0  0  0  0  0  0  0  0  0  0  0
   37.9850   29.2230   42.3290 N   0  0  0  0  0  0  0  0  0  0  0  0
   39.0770   29.9810   42.2220 N   0  0  0  0  0  0  0  0  0  0  0  0
   36.9770   31.5400   40.3320 H   0  0  0  0  0  0  0  0  0  0  0  0
   36.0100   29.3110   41.5070 H   0  0  0  0  0  0  0  0  0  0  0  0
   41.8690   33.0190   40.9890 C   0  0  0  0  0  0  0  0  0  0  0  0
   41.4170   34.1260   40.2520 C   0  0  0  0  0  0  0  0  0  0  0  0
   40.0610   34.1610   39.9090 C   0  0  0  0  0  0  0  0  0  0  0  0
   39.2740   33.1350   40.3070 N   0  0  0  0  0  0  0  0  0  0  0  0
   39.7390   32.0870   41.0150 C   0  0  0  0  0  0  0  0  0  0  0  0
   41.0330   32.0230   41.3580 N   0  0  0  0  0  0  0  0  0  0  0  0
   42.9190   33.0550   41.2180 H   0  0  0  0  0  0  0  0  0  0  0  0
   42.0190   34.9420   39.9290 H   0  0  0  0  0  0  0  0  0  0  0  0
   39.5710   34.9510   39.3430 H   0  0  0  0  0  0  0  0  0  0  0  0
   37.1120   24.7770   41.9010 C   0  0  0  0  0  0  0  0  0  0  0  0
   38.2160   24.0550   42.3150 F   0  0  0  0  0  0  0  0  0  0  0  0
   36.1950   24.7440   42.9300 F   0  0  0  0  0  0  0  0  0  0  0  0
   36.5850   24.1210   40.8060 F   0  0  0  0  0  0  0  0  0  0  0  0
  1  2  1  0  0  0  0
  2  3  1  0  0  0  0
  2  8  1  1  0  0  0
  3 10  1  0  0  0  0
  3  9  1  0  0  0  0
  4  3  1  0  0  0  0
  5 13  1  0  0  0  0
  5  6  1  0  0  0  0
  5  4  1  0  0  0  0
  6 14  1  6  0  0  0
  6 31  1  0  0  0  0
  6  1  1  0  0  0  0
  7  1  1  0  0  0  0
 11  4  1  0  0  0  0
 12  5  1  0  0  0  0
 15 19  2  0  0  0  0
 16 15  1  0  0  0  0
 16 17  2  0  0  0  0
 17 18  1  0  0  0  0
 18  2  1  0  0  0  0
 19 18  1  0  0  0  0
 20 16  1  0  0  0  0
 21 17  1  0  0  0  0
 22 28  1  0  0  0  0
 22 27  1  0  0  0  0
 23 22  2  0  0  0  0
 24 23  1  0  0  0  0
 24 25  2  0  0  0  0
 25 26  1  0  0  0  0
 26 27  2  0  0  0  0
 26 15  1  0  0  0  0
 29 23  1  0  0  0  0
 30 24  1  0  0  0  0
 31 32  1  0  0  0  0
 31 33  1  0  0  0  0
 34 31  1  0  0  0  0
M  END
>  <minimizedAffinity>
-5.18029404

$$$$

 OpenBabel03242520043D

 34 36  0  0  1  0  0  0  0  0999 V2000
   35.2830   29.0910   40.4670 N   0  0  0  0  0  0  0  0  0  0  0  0
   36.1540   28.4430   41.3740 C   0  0  1  0  0  0  0  0  0  0  0  0
   36.6790   27.1890   40.7190 C   0  0  0  0  0  0  0  0  0  0  0  0
   37.4760   27.6450   39.5790 N   0  0  0  0  0  0  0  0  0  0  0  0
   36.6690   28.2770   38.5780 C   0  0  0  0  0  0  0  0  0  0  0  0
   35.6090   29.1890   39.1100 C   0  0  1  0  0  0  0  0  0  0  0  0
   34.9740   30.0030   40.8710 H   0  0  0  0  0  0  0  0  0  0  0  0
   35.5770   28.1860   42.2930 H   0  0  0  0  0  0  0  0  0  0  0  0
   35.7990   26.6330   40.3160 H   0  0  0  0  0  0  0  0  0  0  0  0
   37.2890   26.5740   41.3810 H   0  0  0  0  0  0  0  0  0  0  0  0
   38.0340   26.8980   39.1570 H   0  0  0  0  0  0  0  0  0  0  0  0
   37.3850   28.8660   37.9360 H   0  0  0  0  0  0  0  0  0  0  0  0
   36.2920   27.4730   37.9090 H   0  0  0  0  0  0  0  0  0  0  0  0
   35.8540   30.2420   38.8580 H   0  0  0  0  0  0  0  0  0  0  0  0
   38.7830   30.8020   41.6060 C   0  0  0  0  0  0  0  0  0  0  0  0
   39.0440   30.0500   42.7390 C   0  0  0  0  0  0  0  0  0  0  0  0
   38.1120   29.0730   42.8130 C   0  0  0  0  0  0  0  0  0  0  0  0
   37.2960   29.2250   41.7470 N   0  0  0  0  0  0  0  0  0  0  0  0
   37.7090   30.2690   41.0280 N   0  0  0  0  0  0  0  0  0  0  0  0
   39.8520   30.2150   43.4400 H   0  0  0  0  0  0  0  0  0  0  0  0
   37.9700   28.2820   43.5470 H   0  0  0  0  0  0  0  0  0  0  0  0
   39.6510   34.1600   40.3810 C   0  0  0  0  0  0  0  0  0  0  0  0
   41.0520   34.1170   40.3080 C   0  0  0  0  0  0  0  0  0  0  0  0
   41.6810   32.9250   40.6860 C   0  0  0  0  0  0  0  0  0  0  0  0
   40.9050   31.8950   41.0930 N   0  0  0  0  0  0  0  0  0  0  0  0
   39.5610   31.9670   41.1510 C   0  0  0  0  0  0  0  0  0  0  0  0
   38.9290   33.0950   40.7970 N   0  0  0  0  0  0  0  0  0  0  0  0
   39.2330   35.1030   40.0770 H   0  0  0  0  0  0  0  0  0  0  0  0
   41.6800   34.9160   39.9910 H   0  0  0  0  0  0  0  0  0  0  0  0
   42.7550   32.7460   40.6810 H   0  0  0  0  0  0  0  0  0  0  0  0
   34.3430   28.8590   38.3040 C   0  0  0  0  0  0  0  0  0  0  0  0
   34.3320   29.5150   37.0870 F   0  0  0  0  0  0  0  0  0  0  0  0
   34.2820   27.5080   38.0380 F   0  0  0  0  0  0  0  0  0  0  0  0
   33.1990   29.2380   38.9800 F   0  0  0  0  0  0  0  0  0  0  0  0
  1  7  1  0  0  0  0
  1  2  1  0  0  0  0
  2 18  1  0  0  0  0
  2  8  1  1  0  0  0
  3  2  1  0  0  0  0
  3 10  1  0  0  0  0
  4  3  1  0  0  0  0
  5  6  1  0  0  0  0
  5  4  1  0  0  0  0
  6 14  1  6  0  0  0
  6  1  1  0  0  0  0
  9  3  1  0  0  0  0
 11  4  1  0  0  0  0
 12  5  1  0  0  0  0
 13  5  1  0  0  0  0
 15 16  1  0  0  0  0
 16 17  2  0  0  0  0
 16 20  1  0  0  0  0
 17 21  1  0  0  0  0
 18 17  1  0  0  0  0
 19 15  2  0  0  0  0
 19 18  1  0  0  0  0
 22 27  1  0  0  0  0
 23 22  2  0  0  0  0
 23 24  1  0  0  0  0
 24 25  2  0  0  0  0
 25 26  1  0  0  0  0
 26 15  1  0  0  0  0
 27 26  2  0  0  0  0
 28 22  1  0  0  0  0
 29 23  1  0  0  0  0
 30 24  1  0  0  0  0
 31 34  1  0  0  0  0
 31  6  1  0  0  0  0
 32 31  1  0  0  0  0
 33 31  1  0  0  0  0
M  END
>  <minimizedAffinity>
-5.03372049

$$$$

 OpenBabel03242520043D

 34 36  0  0  1  0  0  0  0  0999 V2000
   38.6090   29.3620   41.6540 N   0  0  0  0  0  0  0  0  0  0  0  0
   38.7770   28.6910   42.8890 C   0  0  1  0  0  0  0  0  0  0  0  0
   37.4960   28.8120   43.6780 C   0  0  0  0  0  0  0  0  0  0  0  0
   36.4890   28.0840   42.9040 N   0  0  0  0  0  0  0  0  0  0  0  0
   36.2140   28.7180   41.6490 C   0  0  0  0  0  0  0  0  0  0  0  0
   37.4200   29.2350   40.9300 C   0  0  1  0  0  0  0  0  0  0  0  0
   39.4570   29.2180   41.0620 H   0  0  0  0  0  0  0  0  0  0  0  0
   39.6170   29.1740   43.4400 H   0  0  0  0  0  0  0  0  0  0  0  0
   37.2090   29.8900   43.6770 H   0  0  0  0  0  0  0  0  0  0  0  0
   37.5640   28.4020   44.6850 H   0  0  0  0  0  0  0  0  0  0  0  0
   35.6160   27.9400   43.4200 H   0  0  0  0  0  0  0  0  0  0  0  0
   35.7050   27.9350   41.0170 H   0  0  0  0  0  0  0  0  0  0  0  0
   35.4260   29.4800   41.8350 H   0  0  0  0  0  0  0  0  0  0  0  0
   37.6010   28.6350   40.0130 H   0  0  0  0  0  0  0  0  0  0  0  0
   39.1540   25.3430   41.8020 C   0  0  0  0  0  0  0  0  0  0  0  0
   39.6500   25.2270   43.0890 C   0  0  0  0  0  0  0  0  0  0  0  0
   39.5810   26.4450   43.6730 C   0  0  0  0  0  0  0  0  0  0  0  0
   39.0530   27.2900   42.7600 N   0  0  0  0  0  0  0  0  0  0  0  0
   38.8010   26.6160   41.6370 N   0  0  0  0  0  0  0  0  0  0  0  0
   40.0260   24.3220   43.5470 H   0  0  0  0  0  0  0  0  0  0  0  0
   39.8690   26.7710   44.6700 H   0  0  0  0  0  0  0  0  0  0  0  0
   39.6810   23.2790   38.8040 C   0  0  0  0  0  0  0  0  0  0  0  0
   38.8230   22.1880   39.0170 C   0  0  0  0  0  0  0  0  0  0  0  0
   38.0730   22.1790   40.1980 C   0  0  0  0  0  0  0  0  0  0  0  0
   38.2180   23.2160   41.0550 N   0  0  0  0  0  0  0  0  0  0  0  0
   39.0500   24.2490   40.8210 C   0  0  0  0  0  0  0  0  0  0  0  0
   39.7830   24.2870   39.6980 N   0  0  0  0  0  0  0  0  0  0  0  0
   40.2270   23.2230   37.8790 H   0  0  0  0  0  0  0  0  0  0  0  0
   38.6950   21.3630   38.3560 H   0  0  0  0  0  0  0  0  0  0  0  0
   37.3710   21.4030   40.4970 H   0  0  0  0  0  0  0  0  0  0  0  0
   37.0290   30.6350   40.4310 C   0  0  0  0  0  0  0  0  0  0  0  0
   36.5580   30.5970   39.1310 F   0  0  0  0  0  0  0  0  0  0  0  0
   36.0230   31.1600   41.2130 F   0  0  0  0  0  0  0  0  0  0  0  0
   38.1080   31.4970   40.4470 F   0  0  0  0  0  0  0  0  0  0  0  0
  1  2  1  0  0  0  0
  2  8  1  1  0  0  0
  2  3  1  0  0  0  0
  3 10  1  0  0  0  0
  4 11  1  0  0  0  0
  4  3  1  0  0  0  0
  5 13  1  0  0  0  0
  5  4  1  0  0  0  0
  6 14  1  6  0  0  0
  6  5  1  0  0  0  0
  6  1  1  0  0  0  0
  7  1  1  0  0  0  0
  9  3  1  0  0  0  0
 12  5  1  0  0  0  0
 15 16  1  0  0  0  0
 16 20  1  0  0  0  0
 16 17  2  0  0  0  0
 17 21  1  0  0  0  0
 18  2  1  0  0  0  0
 18 17  1  0  0  0  0
 19 15  2  0  0  0  0
 19 18  1  0  0  0  0
 22 23  2  0  0  0  0
 22 27  1  0  0  0  0
 23 24  1  0  0  0  0
 24 30  1  0  0  0  0
 24 25  2  0  0  0  0
 26 25  1  0  0  0  0
 26 15  1  0  0  0  0
 27 26  2  0  0  0  0
 28 22  1  0  0  0  0
 29 23  1  0  0  0  0
 31 34  1  0  0  0  0
 31  6  1  0  0  0  0
 31 33  1  0  0  0  0
 32 31  1  0  0  0  0
M  END
>  <minimizedAffinity>
-4.97049284

$$$$

 OpenBabel03242520043D

 34 36  0  0  1  0  0  0  0  0999 V2000
   40.2820   32.8130   41.3730 N   0  0  0  0  0  0  0  0  0  0  0  0
   38.9690   33.1550   40.9730 C   0  0  1  0  0  0  0  0  0  0  0  0
   39.0380   33.8150   39.6170 C   0  0  0  0  0  0  0  0  0  0  0  0
   39.5320   32.7830   38.7040 N   0  0  0  0  0  0  0  0  0  0  0  0
   40.8800   32.4020   39.0010 C   0  0  0  0  0  0  0  0  0  0  0  0
   41.1850   32.2600   40.4590 C   0  0  1  0  0  0  0  0  0  0  0  0
   40.2460   32.2810   42.2710 H   0  0  0  0  0  0  0  0  0  0  0  0
   38.5450   33.8610   41.7250 H   0  0  0  0  0  0  0  0  0  0  0  0
   39.8160   34.6130   39.6770 H   0  0  0  0  0  0  0  0  0  0  0  0
   38.0780   34.1960   39.2690 H   0  0  0  0  0  0  0  0  0  0  0  0
   39.4540   33.0510   37.7190 H   0  0  0  0  0  0  0  0  0  0  0  0
   41.0390   31.4120   38.4840 H   0  0  0  0  0  0  0  0  0  0  0  0
   41.5450   33.1090   38.4580 H   0  0  0  0  0  0  0  0  0  0  0  0
   41.3630   31.1920   40.7060 H   0  0  0  0  0  0  0  0  0  0  0  0
   37.4180   29.9730   41.0170 C   0  0  0  0  0  0  0  0  0  0  0  0
   36.4140   30.7130   40.4160 C   0  0  0  0  0  0  0  0  0  0  0  0
   36.8440   31.9910   40.3140 C   0  0  0  0  0  0  0  0  0  0  0  0
   38.0860   32.0320   40.8430 N   0  0  0  0  0  0  0  0  0  0  0  0
   38.4220   30.8120   41.2630 N   0  0  0  0  0  0  0  0  0  0  0  0
   35.4560   30.3350   40.0860 H   0  0  0  0  0  0  0  0  0  0  0  0
   36.3560   32.8730   39.9040 H   0  0  0  0  0  0  0  0  0  0  0  0
   36.8530   26.7910   42.7720 C   0  0  0  0  0  0  0  0  0  0  0  0
   37.2680   25.8340   41.8330 C   0  0  0  0  0  0  0  0  0  0  0  0
   37.7390   26.3020   40.6010 C   0  0  0  0  0  0  0  0  0  0  0  0
   37.7650   27.6380   40.3930 N   0  0  0  0  0  0  0  0  0  0  0  0
   37.3600   28.5320   41.3160 C   0  0  0  0  0  0  0  0  0  0  0  0
   36.9030   28.1150   42.5060 N   0  0  0  0  0  0  0  0  0  0  0  0
   36.5040   26.3640   43.6960 H   0  0  0  0  0  0  0  0  0  0  0  0
   37.2550   24.7790   41.9770 H   0  0  0  0  0  0  0  0  0  0  0  0
   38.0920   25.6800   39.7800 H   0  0  0  0  0  0  0  0  0  0  0  0
   42.5390   32.9580   40.6640 C   0  0  0  0  0  0  0  0  0  0  0  0
   42.6100   34.1440   39.9560 F   0  0  0  0  0  0  0  0  0  0  0  0
   42.7220   33.2670   41.9950 F   0  0  0  0  0  0  0  0  0  0  0  0
   43.5870   32.1670   40.2360 F   0  0  0  0  0  0  0  0  0  0  0  0
  1  7  1  0  0  0  0
  2  1  1  0  0  0  0
  2  8  1  1  0  0  0
  3  9  1  0  0  0  0
  3  2  1  0  0  0  0
  4  5  1  0  0  0  0
  4  3  1  0  0  0  0
  5  6  1  0  0  0  0
  6 31  1  0  0  0  0
  6 14  1  1  0  0  0
  6  1  1  0  0  0  0
 10  3  1  0  0  0  0
 11  4  1  0  0  0  0
 12  5  1  0  0  0  0
 13  5  1  0  0  0  0
 15 19  2  0  0  0  0
 15 26  1  0  0  0  0
 16 15  1  0  0  0  0
 17 16  2  0  0  0  0
 17 18  1  0  0  0  0
 18  2  1  0  0  0  0
 18 19  1  0  0  0  0
 20 16  1  0  0  0  0
 21 17  1  0  0  0  0
 22 28  1  0  0  0  0
 23 29  1  0  0  0  0
 23 22  2  0  0  0  0
 24 23  1  0  0  0  0
 25 24  2  0  0  0  0
 25 26  1  0  0  0  0
 26 27  2  0  0  0  0
 27 22  1  0  0  0  0
 30 24  1  0  0  0  0
 31 33  1  0  0  0  0
 32 31  1  0  0  0  0
 34 31  1  0  0  0  0
M  END
>  <minimizedAffinity>
-4.94011211

$$$$

 OpenBabel03242520043D

 34 36  0  0  1  0  0  0  0  0999 V2000
   38.1820   30.3620   40.0310 N   0  0  0  0  0  0  0  0  0  0  0  0
   37.6000   30.1640   41.3050 C   0  0  1  0  0  0  0  0  0  0  0  0
   36.2140   30.7630   41.2970 C   0  0  0  0  0  0  0  0  0  0  0  0
   35.4520   29.9750   40.3270 N   0  0  0  0  0  0  0  0  0  0  0  0
   35.9400   30.1480   38.9920 C   0  0  0  0  0  0  0  0  0  0  0  0
   37.4300   30.1740   38.8660 C   0  0  1  0  0  0  0  0  0  0  0  0
   39.1080   29.8820   39.9920 H   0  0  0  0  0  0  0  0  0  0  0  0
   38.2360   30.6740   42.0660 H   0  0  0  0  0  0  0  0  0  0  0  0
   36.3050   31.7990   40.8940 H   0  0  0  0  0  0  0  0  0  0  0  0
   35.7230   30.7380   42.2700 H   0  0  0  0  0  0  0  0  0  0  0  0
   34.4470   30.1660   40.3590 H   0  0  0  0  0  0  0  0  0  0  0  0
   35.5260   29.2820   38.4000 H   0  0  0  0  0  0  0  0  0  0  0  0
   35.4260   31.0410   38.5720 H   0  0  0  0  0  0  0  0  0  0  0  0
   37.7810   29.2630   38.3370 H   0  0  0  0  0  0  0  0  0  0  0  0
   37.4700   26.6280   41.4210 C   0  0  0  0  0  0  0  0  0  0  0  0
   37.0920   26.9180   42.7210 C   0  0  0  0  0  0  0  0  0  0  0  0
   37.0860   28.2630   42.8630 C   0  0  0  0  0  0  0  0  0  0  0  0
   37.4530   28.7850   41.6720 N   0  0  0  0  0  0  0  0  0  0  0  0
   37.6830   27.7930   40.8120 N   0  0  0  0  0  0  0  0  0  0  0  0
   36.8450   26.1960   43.4880 H   0  0  0  0  0  0  0  0  0  0  0  0
   36.8470   28.8850   43.7230 H   0  0  0  0  0  0  0  0  0  0  0  0
   36.6440   23.3070   40.0740 C   0  0  0  0  0  0  0  0  0  0  0  0
   37.9040   22.7640   39.7780 C   0  0  0  0  0  0  0  0  0  0  0  0
   39.0270   23.5550   40.0470 C   0  0  0  0  0  0  0  0  0  0  0  0
   38.8290   24.7850   40.5740 N   0  0  0  0  0  0  0  0  0  0  0  0
   37.6050   25.2780   40.8480 C   0  0  0  0  0  0  0  0  0  0  0  0
   36.5100   24.5450   40.6000 N   0  0  0  0  0  0  0  0  0  0  0  0
   35.8260   22.6480   39.8420 H   0  0  0  0  0  0  0  0  0  0  0  0
   38.0800   21.7990   39.3630 H   0  0  0  0  0  0  0  0  0  0  0  0
   40.0610   23.2680   39.8710 H   0  0  0  0  0  0  0  0  0  0  0  0
   37.7410   31.3430   37.9190 C   0  0  0  0  0  0  0  0  0  0  0  0
   37.1020   32.5020   38.3170 F   0  0  0  0  0  0  0  0  0  0  0  0
   39.0940   31.6070   37.9120 F   0  0  0  0  0  0  0  0  0  0  0  0
   37.3280   31.0730   36.6290 F   0  0  0  0  0  0  0  0  0  0  0  0
  1  2  1  0  0  0  0
  2 18  1  0  0  0  0
  2  8  1  1  0  0  0
  3  2  1  0  0  0  0
  3 10  1  0  0  0  0
  4 11  1  0  0  0  0
  4  3  1  0  0  0  0
  5  4  1  0  0  0  0
  6 14  1  6  0  0  0
  6  5  1  0  0  0  0
  6  1  1  0  0  0  0
  7  1  1  0  0  0  0
  9  3  1  0  0  0  0
 12  5  1  0  0  0  0
 13  5  1  0  0  0  0
 15 16  1  0  0  0  0
 16 17  2  0  0  0  0
 16 20  1  0  0  0  0
 17 21  1  0  0  0  0
 18 17  1  0  0  0  0
 19 15  2  0  0  0  0
 19 18  1  0  0  0  0
 22 27  1  0  0  0  0
 23 24  1  0  0  0  0
 23 22  2  0  0  0  0
 24 25  2  0  0  0  0
 25 26  1  0  0  0  0
 26 15  1  0  0  0  0
 27 26  2  0  0  0  0
 28 22  1  0  0  0  0
 29 23  1  0  0  0  0
 30 24  1  0  0  0  0
 31 32  1  0  0  0  0
 31  6  1  0  0  0  0
 33 31  1  0  0  0  0
 34 31  1  0  0  0  0
M  END
>  <minimizedAffinity>
-4.92293167

$$$$
