
 OpenBabel03252509203D

 20 21  0  0  0  0  0  0  0  0999 V2000
   44.8060   35.3150   45.0250 C   0  0  0  0  0  0  0  0  0  0  0  0
   45.5680   34.8260   43.9140 C   0  0  0  0  0  0  0  0  0  0  0  0
   46.2360   33.6460   44.1760 C   0  0  0  0  0  0  0  0  0  0  0  0
   46.1620   33.0090   45.4020 N   0  0  0  0  0  0  0  0  0  0  0  0
   45.4200   33.5260   46.4120 C   0  0  0  0  0  0  0  0  0  0  0  0
   44.7520   34.6720   46.2100 N   0  0  0  0  0  0  0  0  0  0  0  0
   44.2460   36.2180   44.9500 H   0  0  0  0  0  0  0  0  0  0  0  0
   45.5060   32.8710   47.2650 H   0  0  0  0  0  0  0  0  0  0  0  0
   46.9780   33.0070   43.0340 C   0  0  0  0  0  0  0  0  0  0  0  0
   48.4880   33.2680   43.1470 C   0  0  0  0  0  0  0  0  0  0  0  0
   47.8140   31.8740   43.3080 C   0  0  0  0  0  0  0  0  0  0  0  0
   46.6190   33.3170   42.0450 H   0  0  0  0  0  0  0  0  0  0  0  0
   48.8270   33.7740   44.0540 H   0  0  0  0  0  0  0  0  0  0  0  0
   49.0890   33.4100   42.2480 H   0  0  0  0  0  0  0  0  0  0  0  0
   48.0980   31.1310   42.5040 H   0  0  0  0  0  0  0  0  0  0  0  0
   47.9820   31.4570   44.3390 H   0  0  0  0  0  0  0  0  0  0  0  0
   45.5600   35.5820   42.6680 C   0  0  0  0  0  0  0  0  0  0  0  0
   44.8210   34.9360   41.6970 F   0  0  0  0  0  0  0  0  0  0  0  0
   46.8320   35.8790   42.2310 F   0  0  0  0  0  0  0  0  0  0  0  0
   44.9310   36.7960   42.8770 F   0  0  0  0  0  0  0  0  0  0  0  0
  1  6  1  0  0  0  0
  2  3  1  0  0  0  0
  2  1  2  0  0  0  0
  3  4  2  0  0  0  0
  4  5  1  0  0  0  0
  5  8  1  0  0  0  0
  6  5  2  0  0  0  0
  7  1  1  0  0  0  0
  9 10  1  0  0  0  0
  9 11  1  0  0  0  0
  9  3  1  0  0  0  0
 10 11  1  0  0  0  0
 10 13  1  0  0  0  0
 11 16  1  0  0  0  0
 12  9  1  0  0  0  0
 14 10  1  0  0  0  0
 15 11  1  0  0  0  0
 17 20  1  0  0  0  0
 17  2  1  0  0  0  0
 18 17  1  0  0  0  0
 19 17  1  0  0  0  0
M  END
>  <minimizedAffinity>
-3.82235718

>  <minimizedRMSD>
1.7722044

$$$$
