REMARK  Name = 
REMARK  3 active torsions:
REMARK  status: ('A' for Active; 'I' for Inactive)
REMARK    1  A    between atoms: C_1  and  C_5
REMARK    2  A    between atoms: C_3  and  N_10
REMARK    3  A    between atoms: C_15  and  C_32
REMARK                            x       y       z     vdW  Elec       q    Type
REMARK                         _______ _______ _______ _____ _____    ______ ____
ROOT
ATOM      1  N   UNL     1      49.309  33.198  41.470  0.00  0.00    +0.000 NA
ATOM      2  C   UNL     1      50.644  33.127  42.011  0.00  0.00    +0.000 C 
ATOM      3  C   UNL     1      51.354  31.841  41.846  0.00  0.00    +0.000 C 
ATOM      4  C   UNL     1      50.602  30.718  42.500  0.00  0.00    +0.000 C 
ATOM      5  C   UNL     1      49.140  30.973  42.560  0.00  0.00    +0.000 C 
ATOM      6  C   UNL     1      48.739  31.877  41.436  0.00  0.00    +0.000 C 
ATOM      7  H   UNL     1      50.640  33.377  43.098  0.00  0.00    +0.000 HD
ATOM      8  H   UNL     1      51.225  33.939  41.485  0.00  0.00    +0.000 HD
ATOM      9  H   UNL     1      52.283  31.951  42.508  0.00  0.00    +0.000 HD
ATOM     10  H   UNL     1      51.792  31.624  40.869  0.00  0.00    +0.000 HD
ATOM     11  H   UNL     1      50.949  30.445  43.504  0.00  0.00    +0.000 HD
ATOM     12  H   UNL     1      50.819  29.809  41.865  0.00  0.00    +0.000 HD
ATOM     13  H   UNL     1      48.855  31.480  43.519  0.00  0.00    +0.000 HD
ATOM     14  H   UNL     1      48.540  30.057  42.464  0.00  0.00    +0.000 HD
ATOM     15  H   UNL     1      47.641  32.111  41.727  0.00  0.00    +0.000 HD
ENDROOT
BRANCH   1  18
ATOM     16  C   UNL     1      47.180  34.547  42.001  0.00  0.00    +0.000 C 
ATOM     17  C   UNL     1      48.310  35.453  41.733  0.00  0.00    +0.000 C 
ATOM     18  C   UNL     1      48.579  34.109  42.299  0.00  0.00    +0.000 C 
ATOM     19  H   UNL     1      46.693  34.142  41.103  0.00  0.00    +0.000 HD
ATOM     20  H   UNL     1      48.443  36.296  42.420  0.00  0.00    +0.000 HD
ATOM     21  H   UNL     1      48.627  35.675  40.689  0.00  0.00    +0.000 HD
ATOM     22  H   UNL     1      48.797  33.978  43.382  0.00  0.00    +0.000 HD
BRANCH  16  24
ATOM     23  C   UNL     1      45.495  36.030  43.164  0.00  0.00    +0.000 A 
ATOM     24  C   UNL     1      46.274  34.848  43.147  0.00  0.00    +0.000 A 
ATOM     25  C   UNL     1      46.160  33.974  44.239  0.00  0.00    +0.000 A 
ATOM     26  N   UNL     1      45.313  34.310  45.243  0.00  0.00    +0.000 NA
ATOM     27  C   UNL     1      44.581  35.452  45.226  0.00  0.00    +0.000 A 
ATOM     28  N   UNL     1      44.667  36.324  44.181  0.00  0.00    +0.000 NA
ATOM     29  H   UNL     1      45.561  36.722  42.337  0.00  0.00    +0.000 HD
ATOM     30  H   UNL     1      46.746  33.075  44.237  0.00  0.00    +0.000 HD
ATOM     31  H   UNL     1      43.940  35.603  46.094  0.00  0.00    +0.000 HD
ENDBRANCH  16  24
ENDBRANCH   1  18
BRANCH   6  32
ATOM     32  C   UNL     1      48.589  31.247  40.098  0.00  0.00    +0.000 C 
ATOM     33  F   UNL     1      47.755  32.002  39.256  0.00  0.00    +0.000 F 
ATOM     34  F   UNL     1      49.810  31.268  39.387  0.00  0.00    +0.000 F 
ATOM     35  F   UNL     1      48.241  29.918  40.099  0.00  0.00    +0.000 F 
ENDBRANCH   6  32
TORSDOF 3
