
 OpenBabel03252508553D

 38 40  0  0  1  0  0  0  0  0999 V2000
   38.8600   27.5770   40.0870 C   0  0  0  0  0  0  0  0  0  0  0  0
   39.3630   26.4540   39.7650 O   0  0  0  0  0  0  0  0  0  0  0  0
   39.2050   27.6160   41.4960 N   0  0  0  0  0  0  0  0  0  0  0  0
   40.6200   27.5550   41.7780 C   0  0  0  0  0  0  0  0  0  0  0  0
   40.8890   26.0880   42.1520 C   0  0  0  0  0  0  0  0  0  0  0  0
   39.6570   25.6130   42.9240 C   0  0  0  0  0  0  0  0  0  0  0  0
   38.9870   26.7640   43.6790 C   0  0  0  0  0  0  0  0  0  0  0  0
   38.3440   27.7060   42.6590 C   0  0  2  0  0  0  0  0  0  0  0  0
   41.2590   27.7890   40.8930 H   0  0  0  0  0  0  0  0  0  0  0  0
   40.9180   28.2290   42.5890 H   0  0  0  0  0  0  0  0  0  0  0  0
   40.9550   25.4620   41.2530 H   0  0  0  0  0  0  0  0  0  0  0  0
   41.8120   26.0390   42.7750 H   0  0  0  0  0  0  0  0  0  0  0  0
   39.9220   24.8240   43.6470 H   0  0  0  0  0  0  0  0  0  0  0  0
   38.9100   25.2520   42.1960 H   0  0  0  0  0  0  0  0  0  0  0  0
   38.1890   26.2810   44.2740 H   0  0  0  0  0  0  0  0  0  0  0  0
   39.7180   27.3020   44.3160 H   0  0  0  0  0  0  0  0  0  0  0  0
   38.3390   28.7440   43.0240 H   0  0  0  0  0  0  0  0  0  0  0  0
   36.9230   27.3250   42.3610 C   0  0  0  0  0  0  0  0  0  0  0  0
   36.7880   26.2280   41.5540 F   0  0  0  0  0  0  0  0  0  0  0  0
   36.2870   28.4430   41.8890 F   0  0  0  0  0  0  0  0  0  0  0  0
   36.3480   27.0000   43.5870 F   0  0  0  0  0  0  0  0  0  0  0  0
   38.1850   28.4740   39.2940 O   0  0  0  0  0  0  0  0  0  0  0  0
   36.9460   28.2760   38.7260 C   0  0  0  0  0  0  0  0  0  0  0  0
   36.0780   29.3840   38.6430 C   0  0  0  0  0  0  0  0  0  0  0  0
   34.8190   29.1520   38.0590 C   0  0  0  0  0  0  0  0  0  0  0  0
   34.5160   27.9020   37.6170 N   0  0  0  0  0  0  0  0  0  0  0  0
   35.3750   26.8940   37.7230 C   0  0  0  0  0  0  0  0  0  0  0  0
   36.5930   27.0770   38.2780 N   0  0  0  0  0  0  0  0  0  0  0  0
   34.1680   30.0280   38.0080 H   0  0  0  0  0  0  0  0  0  0  0  0
   35.1000   25.9000   37.3580 H   0  0  0  0  0  0  0  0  0  0  0  0
   36.4970   30.6700   39.1430 C   0  0  0  0  0  0  0  0  0  0  0  0
   37.1390   31.6150   38.3590 C   0  0  0  0  0  0  0  0  0  0  0  0
   37.3510   32.6680   39.2210 C   0  0  0  0  0  0  0  0  0  0  0  0
   36.8670   32.3840   40.4520 N   0  0  0  0  0  0  0  0  0  0  0  0
   36.3590   31.1730   40.3730 N   0  0  0  0  0  0  0  0  0  0  0  0
   37.4140   31.5400   37.3000 H   0  0  0  0  0  0  0  0  0  0  0  0
   37.8430   33.6170   38.9540 H   0  0  0  0  0  0  0  0  0  0  0  0
   36.9020   33.0170   41.2870 H   0  0  0  0  0  0  0  0  0  0  0  0
  1  3  1  0  0  0  0
  2  1  2  0  0  0  0
  3  4  1  0  0  0  0
  3  8  1  0  0  0  0
  4  5  1  0  0  0  0
  4 10  1  0  0  0  0
  5 12  1  0  0  0  0
  5  6  1  0  0  0  0
  6 13  1  0  0  0  0
  6  7  1  0  0  0  0
  7 15  1  0  0  0  0
  7 16  1  0  0  0  0
  8 17  1  1  0  0  0
  8  7  1  0  0  0  0
  9  4  1  0  0  0  0
 11  5  1  0  0  0  0
 14  6  1  0  0  0  0
 18  8  1  0  0  0  0
 18 21  1  0  0  0  0
 19 18  1  0  0  0  0
 20 18  1  0  0  0  0
 22  1  1  0  0  0  0
 23 22  1  0  0  0  0
 24 23  1  0  0  0  0
 24 31  1  0  0  0  0
 25 24  2  0  0  0  0
 26 27  2  0  0  0  0
 26 25  1  0  0  0  0
 27 28  1  0  0  0  0
 28 23  2  0  0  0  0
 29 25  1  0  0  0  0
 30 27  1  0  0  0  0
 31 35  2  0  0  0  0
 32 31  1  0  0  0  0
 32 33  2  0  0  0  0
 33 34  1  0  0  0  0
 34 38  1  0  0  0  0
 35 34  1  0  0  0  0
 36 32  1  0  0  0  0
 37 33  1  0  0  0  0
M  END
>  <minimizedAffinity>
-5.76776743

$$$$

 OpenBabel03252508553D

 38 40  0  0  1  0  0  0  0  0999 V2000
   39.5230   29.3540   42.2760 C   0  0  0  0  0  0  0  0  0  0  0  0
   40.2710   28.5670   41.6130 O   0  0  0  0  0  0  0  0  0  0  0  0
   38.5780   28.4020   42.8300 N   0  0  0  0  0  0  0  0  0  0  0  0
   39.1640   27.3800   43.6650 C   0  0  0  0  0  0  0  0  0  0  0  0
   39.2810   26.1440   42.7590 C   0  0  0  0  0  0  0  0  0  0  0  0
   38.0490   26.1620   41.8520 C   0  0  0  0  0  0  0  0  0  0  0  0
   36.8540   26.8270   42.5390 C   0  0  0  0  0  0  0  0  0  0  0  0
   37.1390   28.3250   42.6700 C   0  0  2  0  0  0  0  0  0  0  0  0
   40.1940   27.6290   44.0140 H   0  0  0  0  0  0  0  0  0  0  0  0
   38.5580   27.1620   44.5520 H   0  0  0  0  0  0  0  0  0  0  0  0
   40.1560   26.2250   42.1000 H   0  0  0  0  0  0  0  0  0  0  0  0
   39.3120   25.2310   43.3970 H   0  0  0  0  0  0  0  0  0  0  0  0
   37.7610   25.1400   41.5540 H   0  0  0  0  0  0  0  0  0  0  0  0
   38.2770   26.7860   40.9700 H   0  0  0  0  0  0  0  0  0  0  0  0
   36.0120   26.6830   41.8370 H   0  0  0  0  0  0  0  0  0  0  0  0
   36.6580   26.3690   43.5290 H   0  0  0  0  0  0  0  0  0  0  0  0
   36.6550   28.7460   43.5640 H   0  0  0  0  0  0  0  0  0  0  0  0
   36.6440   29.0970   41.4820 C   0  0  0  0  0  0  0  0  0  0  0  0
   37.3510   28.8800   40.3310 F   0  0  0  0  0  0  0  0  0  0  0  0
   36.5700   30.4150   41.8480 F   0  0  0  0  0  0  0  0  0  0  0  0
   35.3450   28.6510   41.2500 F   0  0  0  0  0  0  0  0  0  0  0  0
   39.6160   30.7190   42.4050 O   0  0  0  0  0  0  0  0  0  0  0  0
   40.6610   31.5020   41.9650 C   0  0  0  0  0  0  0  0  0  0  0  0
   40.4020   32.4150   40.9230 C   0  0  0  0  0  0  0  0  0  0  0  0
   41.4870   33.2010   40.4930 C   0  0  0  0  0  0  0  0  0  0  0  0
   42.6970   33.0400   41.0920 N   0  0  0  0  0  0  0  0  0  0  0  0
   42.8830   32.1620   42.0710 C   0  0  0  0  0  0  0  0  0  0  0  0
   41.8660   31.3890   42.5110 N   0  0  0  0  0  0  0  0  0  0  0  0
   41.2570   33.9000   39.6850 H   0  0  0  0  0  0  0  0  0  0  0  0
   43.8700   32.0560   42.5330 H   0  0  0  0  0  0  0  0  0  0  0  0
   39.0790   32.5080   40.3540 C   0  0  0  0  0  0  0  0  0  0  0  0
   38.6610   31.7380   39.2810 C   0  0  0  0  0  0  0  0  0  0  0  0
   37.3610   32.1440   39.0730 C   0  0  0  0  0  0  0  0  0  0  0  0
   37.0100   33.1000   39.9640 N   0  0  0  0  0  0  0  0  0  0  0  0
   38.0660   33.2970   40.7220 N   0  0  0  0  0  0  0  0  0  0  0  0
   39.2320   30.9840   38.7270 H   0  0  0  0  0  0  0  0  0  0  0  0
   36.6910   31.7500   38.2920 H   0  0  0  0  0  0  0  0  0  0  0  0
   36.0760   33.5740   40.0200 H   0  0  0  0  0  0  0  0  0  0  0  0
  1 22  1  0  0  0  0
  1  3  1  0  0  0  0
  2  1  2  0  0  0  0
  3  4  1  0  0  0  0
  4  9  1  0  0  0  0
  4 10  1  0  0  0  0
  5 12  1  0  0  0  0
  5  4  1  0  0  0  0
  6  7  1  0  0  0  0
  6  5  1  0  0  0  0
  7  8  1  0  0  0  0
  7 16  1  0  0  0  0
  8  3  1  0  0  0  0
  8 17  1  1  0  0  0
 11  5  1  0  0  0  0
 13  6  1  0  0  0  0
 14  6  1  0  0  0  0
 15  7  1  0  0  0  0
 18 20  1  0  0  0  0
 18  8  1  0  0  0  0
 19 18  1  0  0  0  0
 21 18  1  0  0  0  0
 23 22  1  0  0  0  0
 23 28  1  0  0  0  0
 24 23  2  0  0  0  0
 25 24  1  0  0  0  0
 25 26  2  0  0  0  0
 26 27  1  0  0  0  0
 27 28  2  0  0  0  0
 27 30  1  0  0  0  0
 29 25  1  0  0  0  0
 31 35  2  0  0  0  0
 31 24  1  0  0  0  0
 32 31  1  0  0  0  0
 33 32  2  0  0  0  0
 33 34  1  0  0  0  0
 34 38  1  0  0  0  0
 34 35  1  0  0  0  0
 36 32  1  0  0  0  0
 37 33  1  0  0  0  0
M  END
>  <minimizedAffinity>
-5.71107626

$$$$

 OpenBabel03252508553D

 38 40  0  0  1  0  0  0  0  0999 V2000
   37.7810   27.9300   39.9870 C   0  0  0  0  0  0  0  0  0  0  0  0
   36.5910   27.4830   40.0470 O   0  0  0  0  0  0  0  0  0  0  0  0
   38.2970   27.4540   41.2570 N   0  0  0  0  0  0  0  0  0  0  0  0
   38.2650   26.0200   41.4280 C   0  0  0  0  0  0  0  0  0  0  0  0
   37.0130   25.7480   42.2790 C   0  0  0  0  0  0  0  0  0  0  0  0
   36.9070   26.9120   43.2650 C   0  0  0  0  0  0  0  0  0  0  0  0
   38.2840   27.4850   43.6110 C   0  0  0  0  0  0  0  0  0  0  0  0
   38.8370   28.2010   42.3770 C   0  0  2  0  0  0  0  0  0  0  0  0
   38.1370   25.4620   40.4710 H   0  0  0  0  0  0  0  0  0  0  0  0
   39.1660   25.6340   41.9190 H   0  0  0  0  0  0  0  0  0  0  0  0
   36.1070   25.7790   41.6590 H   0  0  0  0  0  0  0  0  0  0  0  0
   37.1380   24.7730   42.8020 H   0  0  0  0  0  0  0  0  0  0  0  0
   36.4110   26.5980   44.1980 H   0  0  0  0  0  0  0  0  0  0  0  0
   36.3520   27.7320   42.7750 H   0  0  0  0  0  0  0  0  0  0  0  0
   38.0850   28.2340   44.4000 H   0  0  0  0  0  0  0  0  0  0  0  0
   38.9720   26.6870   43.9530 H   0  0  0  0  0  0  0  0  0  0  0  0
   39.9360   28.1500   42.3460 H   0  0  0  0  0  0  0  0  0  0  0  0
   38.4510   29.6510   42.3480 C   0  0  0  0  0  0  0  0  0  0  0  0
   37.1060   29.8770   42.2490 F   0  0  0  0  0  0  0  0  0  0  0  0
   39.1890   30.2550   41.3630 F   0  0  0  0  0  0  0  0  0  0  0  0
   38.8630   30.1810   43.5680 F   0  0  0  0  0  0  0  0  0  0  0  0
   38.3740   28.6570   38.9830 O   0  0  0  0  0  0  0  0  0  0  0  0
   37.8380   28.8970   37.7360 C   0  0  0  0  0  0  0  0  0  0  0  0
   37.2800   30.1700   37.4980 C   0  0  0  0  0  0  0  0  0  0  0  0
   36.7400   30.3880   36.2170 C   0  0  0  0  0  0  0  0  0  0  0  0
   36.7840   29.3830   35.3020 N   0  0  0  0  0  0  0  0  0  0  0  0
   37.3220   28.2020   35.5840 C   0  0  0  0  0  0  0  0  0  0  0  0
   37.8510   27.9550   36.8020 N   0  0  0  0  0  0  0  0  0  0  0  0
   36.3150   31.3820   36.0610 H   0  0  0  0  0  0  0  0  0  0  0  0
   37.3420   27.4130   34.8250 H   0  0  0  0  0  0  0  0  0  0  0  0
   37.2830   31.1680   38.5390 C   0  0  0  0  0  0  0  0  0  0  0  0
   38.2500   32.1550   38.6400 C   0  0  0  0  0  0  0  0  0  0  0  0
   37.8730   32.8720   39.7540 C   0  0  0  0  0  0  0  0  0  0  0  0
   36.7470   32.3560   40.2960 N   0  0  0  0  0  0  0  0  0  0  0  0
   36.4160   31.3300   39.5430 N   0  0  0  0  0  0  0  0  0  0  0  0
   39.1140   32.3240   37.9850 H   0  0  0  0  0  0  0  0  0  0  0  0
   38.4070   33.7490   40.1540 H   0  0  0  0  0  0  0  0  0  0  0  0
   36.2540   32.7170   41.1490 H   0  0  0  0  0  0  0  0  0  0  0  0
  1  2  2  0  0  0  0
  1  3  1  0  0  0  0
  3  4  1  0  0  0  0
  3  8  1  0  0  0  0
  4 10  1  0  0  0  0
  4  5  1  0  0  0  0
  5 12  1  0  0  0  0
  5  6  1  0  0  0  0
  6  7  1  0  0  0  0
  6 13  1  0  0  0  0
  7 16  1  0  0  0  0
  7 15  1  0  0  0  0
  8 17  1  6  0  0  0
  8  7  1  0  0  0  0
  9  4  1  0  0  0  0
 11  5  1  0  0  0  0
 14  6  1  0  0  0  0
 18  8  1  0  0  0  0
 18 21  1  0  0  0  0
 19 18  1  0  0  0  0
 20 18  1  0  0  0  0
 22  1  1  0  0  0  0
 23 22  1  0  0  0  0
 24 23  1  0  0  0  0
 24 31  1  0  0  0  0
 25 24  2  0  0  0  0
 26 27  2  0  0  0  0
 26 25  1  0  0  0  0
 27 28  1  0  0  0  0
 28 23  2  0  0  0  0
 29 25  1  0  0  0  0
 30 27  1  0  0  0  0
 31 32  1  0  0  0  0
 31 35  2  0  0  0  0
 32 33  2  0  0  0  0
 33 37  1  0  0  0  0
 33 34  1  0  0  0  0
 34 38  1  0  0  0  0
 35 34  1  0  0  0  0
 36 32  1  0  0  0  0
M  END
>  <minimizedAffinity>
-5.59384346

$$$$

 OpenBabel03252508553D

 38 40  0  0  1  0  0  0  0  0999 V2000
   39.4290   28.9250   40.4320 C   0  0  0  0  0  0  0  0  0  0  0  0
   40.0400   27.8140   40.3230 O   0  0  0  0  0  0  0  0  0  0  0  0
   39.1140   28.9040   41.8490 N   0  0  0  0  0  0  0  0  0  0  0  0
   40.2590   28.8270   42.7250 C   0  0  0  0  0  0  0  0  0  0  0  0
   40.3570   27.3450   43.1230 C   0  0  0  0  0  0  0  0  0  0  0  0
   38.9190   26.8420   43.2510 C   0  0  0  0  0  0  0  0  0  0  0  0
   37.9660   27.9630   43.6750 C   0  0  0  0  0  0  0  0  0  0  0  0
   37.8250   28.9480   42.5120 C   0  0  2  0  0  0  0  0  0  0  0  0
   41.2190   29.0960   42.2250 H   0  0  0  0  0  0  0  0  0  0  0  0
   40.1570   29.4670   43.6100 H   0  0  0  0  0  0  0  0  0  0  0  0
   40.8250   26.7570   42.3230 H   0  0  0  0  0  0  0  0  0  0  0  0
   40.9100   27.2670   44.0880 H   0  0  0  0  0  0  0  0  0  0  0  0
   38.8490   26.0230   43.9860 H   0  0  0  0  0  0  0  0  0  0  0  0
   38.5770   26.5140   42.2540 H   0  0  0  0  0  0  0  0  0  0  0  0
   36.9950   27.4580   43.8350 H   0  0  0  0  0  0  0  0  0  0  0  0
   38.3310   28.4720   44.5890 H   0  0  0  0  0  0  0  0  0  0  0  0
   37.6440   29.9710   42.8760 H   0  0  0  0  0  0  0  0  0  0  0  0
   36.6900   28.5840   41.6010 C   0  0  0  0  0  0  0  0  0  0  0  0
   37.0480   27.8140   40.5290 F   0  0  0  0  0  0  0  0  0  0  0  0
   36.0460   29.7450   41.2600 F   0  0  0  0  0  0  0  0  0  0  0  0
   35.8100   27.8260   42.3700 F   0  0  0  0  0  0  0  0  0  0  0  0
   39.1610   29.8560   39.4570 O   0  0  0  0  0  0  0  0  0  0  0  0
   38.7220   31.1440   39.6710 C   0  0  0  0  0  0  0  0  0  0  0  0
   37.6010   31.5840   38.9380 C   0  0  0  0  0  0  0  0  0  0  0  0
   37.1750   32.9050   39.1760 C   0  0  0  0  0  0  0  0  0  0  0  0
   37.8520   33.6640   40.0780 N   0  0  0  0  0  0  0  0  0  0  0  0
   38.9040   33.1960   40.7390 C   0  0  0  0  0  0  0  0  0  0  0  0
   39.3430   31.9340   40.5380 N   0  0  0  0  0  0  0  0  0  0  0  0
   36.3050   33.2180   38.5950 H   0  0  0  0  0  0  0  0  0  0  0  0
   39.4280   33.8330   41.4590 H   0  0  0  0  0  0  0  0  0  0  0  0
   36.9530   30.6970   38.0030 C   0  0  0  0  0  0  0  0  0  0  0  0
   37.3480   30.5710   36.6810 C   0  0  0  0  0  0  0  0  0  0  0  0
   36.4750   29.6380   36.1660 C   0  0  0  0  0  0  0  0  0  0  0  0
   35.6050   29.2210   37.1150 N   0  0  0  0  0  0  0  0  0  0  0  0
   35.9180   29.8770   38.2110 N   0  0  0  0  0  0  0  0  0  0  0  0
   38.1630   31.0930   36.1670 H   0  0  0  0  0  0  0  0  0  0  0  0
   36.4780   29.2730   35.1270 H   0  0  0  0  0  0  0  0  0  0  0  0
   34.8410   28.5160   36.9800 H   0  0  0  0  0  0  0  0  0  0  0  0
  1  3  1  0  0  0  0
  2  1  2  0  0  0  0
  3  8  1  0  0  0  0
  3  4  1  0  0  0  0
  4  5  1  0  0  0  0
  4 10  1  0  0  0  0
  5  6  1  0  0  0  0
  5 12  1  0  0  0  0
  6  7  1  0  0  0  0
  6 13  1  0  0  0  0
  7 15  1  0  0  0  0
  7 16  1  0  0  0  0
  8 17  1  1  0  0  0
  8  7  1  0  0  0  0
  9  4  1  0  0  0  0
 11  5  1  0  0  0  0
 14  6  1  0  0  0  0
 18 21  1  0  0  0  0
 18  8  1  0  0  0  0
 19 18  1  0  0  0  0
 20 18  1  0  0  0  0
 22 23  1  0  0  0  0
 22  1  1  0  0  0  0
 23 28  1  0  0  0  0
 24 25  1  0  0  0  0
 24 23  2  0  0  0  0
 25 26  2  0  0  0  0
 26 27  1  0  0  0  0
 27 30  1  0  0  0  0
 28 27  2  0  0  0  0
 29 25  1  0  0  0  0
 31 35  2  0  0  0  0
 31 24  1  0  0  0  0
 32 31  1  0  0  0  0
 33 32  2  0  0  0  0
 33 34  1  0  0  0  0
 34 35  1  0  0  0  0
 36 32  1  0  0  0  0
 37 33  1  0  0  0  0
 38 34  1  0  0  0  0
M  END
>  <minimizedAffinity>
-5.591681

$$$$

 OpenBabel03252508553D

 38 40  0  0  1  0  0  0  0  0999 V2000
   39.9030   29.1060   41.9640 C   0  0  0  0  0  0  0  0  0  0  0  0
   40.6080   28.6720   40.9980 O   0  0  0  0  0  0  0  0  0  0  0  0
   39.9550   27.9600   42.8530 N   0  0  0  0  0  0  0  0  0  0  0  0
   41.2810   27.5790   43.2780 C   0  0  0  0  0  0  0  0  0  0  0  0
   41.6680   26.4000   42.3690 C   0  0  0  0  0  0  0  0  0  0  0  0
   40.3840   25.6020   42.1390 C   0  0  0  0  0  0  0  0  0  0  0  0
   39.4280   25.7160   43.3280 C   0  0  0  0  0  0  0  0  0  0  0  0
   38.8760   27.1430   43.3740 C   0  0  2  0  0  0  0  0  0  0  0  0
   42.0440   28.3780   43.1200 H   0  0  0  0  0  0  0  0  0  0  0  0
   41.3180   27.2900   44.3350 H   0  0  0  0  0  0  0  0  0  0  0  0
   41.9950   26.7580   41.3840 H   0  0  0  0  0  0  0  0  0  0  0  0
   42.4470   25.7910   42.8820 H   0  0  0  0  0  0  0  0  0  0  0  0
   40.6060   24.5360   41.9660 H   0  0  0  0  0  0  0  0  0  0  0  0
   39.8510   26.0430   41.2780 H   0  0  0  0  0  0  0  0  0  0  0  0
   38.6010   25.0200   43.0910 H   0  0  0  0  0  0  0  0  0  0  0  0
   39.9380   25.4530   44.2760 H   0  0  0  0  0  0  0  0  0  0  0  0
   38.6580   27.4530   44.4070 H   0  0  0  0  0  0  0  0  0  0  0  0
   37.6080   27.2810   42.5840 C   0  0  0  0  0  0  0  0  0  0  0  0
   37.7830   27.2800   41.2270 F   0  0  0  0  0  0  0  0  0  0  0  0
   36.9450   28.3830   43.0570 F   0  0  0  0  0  0  0  0  0  0  0  0
   36.8390   26.1620   42.8950 F   0  0  0  0  0  0  0  0  0  0  0  0
   39.2830   30.3260   42.0920 O   0  0  0  0  0  0  0  0  0  0  0  0
   39.4600   31.4120   41.2630 C   0  0  0  0  0  0  0  0  0  0  0  0
   38.4160   31.7330   40.3720 C   0  0  0  0  0  0  0  0  0  0  0  0
   38.6250   32.8470   39.5370 C   0  0  0  0  0  0  0  0  0  0  0  0
   39.7930   33.5350   39.6340 N   0  0  0  0  0  0  0  0  0  0  0  0
   40.7430   33.1850   40.4940 C   0  0  0  0  0  0  0  0  0  0  0  0
   40.5800   32.1220   41.3110 N   0  0  0  0  0  0  0  0  0  0  0  0
   37.7990   33.0720   38.8580 H   0  0  0  0  0  0  0  0  0  0  0  0
   41.6730   33.7600   40.5470 H   0  0  0  0  0  0  0  0  0  0  0  0
   37.2140   30.9360   40.3480 C   0  0  0  0  0  0  0  0  0  0  0  0
   36.9520   29.9900   39.3710 C   0  0  0  0  0  0  0  0  0  0  0  0
   35.7230   29.4800   39.7290 C   0  0  0  0  0  0  0  0  0  0  0  0
   35.2670   30.0780   40.8530 N   0  0  0  0  0  0  0  0  0  0  0  0
   36.1860   30.9500   41.2030 N   0  0  0  0  0  0  0  0  0  0  0  0
   37.5770   29.7130   38.5140 H   0  0  0  0  0  0  0  0  0  0  0  0
   35.1800   28.6930   39.1820 H   0  0  0  0  0  0  0  0  0  0  0  0
   34.3570   29.8710   41.3330 H   0  0  0  0  0  0  0  0  0  0  0  0
  1 22  1  0  0  0  0
  1  3  1  0  0  0  0
  2  1  2  0  0  0  0
  3  4  1  0  0  0  0
  3  8  1  0  0  0  0
  4 10  1  0  0  0  0
  5 12  1  0  0  0  0
  5  4  1  0  0  0  0
  6  5  1  0  0  0  0
  6  7  1  0  0  0  0
  7  8  1  0  0  0  0
  7 16  1  0  0  0  0
  8 17  1  1  0  0  0
  9  4  1  0  0  0  0
 11  5  1  0  0  0  0
 13  6  1  0  0  0  0
 14  6  1  0  0  0  0
 15  7  1  0  0  0  0
 18 21  1  0  0  0  0
 18 20  1  0  0  0  0
 18  8  1  0  0  0  0
 19 18  1  0  0  0  0
 23 28  1  0  0  0  0
 23 22  1  0  0  0  0
 24 23  2  0  0  0  0
 25 26  2  0  0  0  0
 25 24  1  0  0  0  0
 26 27  1  0  0  0  0
 27 30  1  0  0  0  0
 27 28  2  0  0  0  0
 29 25  1  0  0  0  0
 31 24  1  0  0  0  0
 31 35  2  0  0  0  0
 32 33  2  0  0  0  0
 32 31  1  0  0  0  0
 33 34  1  0  0  0  0
 34 35  1  0  0  0  0
 34 38  1  0  0  0  0
 36 32  1  0  0  0  0
 37 33  1  0  0  0  0
M  END
>  <minimizedAffinity>
-5.5654707

$$$$

 OpenBabel03252508553D

 38 40  0  0  1  0  0  0  0  0999 V2000
   38.9850   27.4740   40.3880 C   0  0  0  0  0  0  0  0  0  0  0  0
   38.5620   26.9600   39.3040 O   0  0  0  0  0  0  0  0  0  0  0  0
   38.8100   26.3500   41.2890 N   0  0  0  0  0  0  0  0  0  0  0  0
   39.5480   25.1610   40.9290 C   0  0  0  0  0  0  0  0  0  0  0  0
   38.5240   24.2550   40.2260 C   0  0  0  0  0  0  0  0  0  0  0  0
   37.1950   24.4700   40.9510 C   0  0  0  0  0  0  0  0  0  0  0  0
   37.4090   24.8360   42.4220 C   0  0  0  0  0  0  0  0  0  0  0  0
   38.0070   26.2420   42.4920 C   0  0  2  0  0  0  0  0  0  0  0  0
   40.3700   25.3540   40.2000 H   0  0  0  0  0  0  0  0  0  0  0  0
   39.9870   24.6580   41.7990 H   0  0  0  0  0  0  0  0  0  0  0  0
   38.3690   24.5760   39.1870 H   0  0  0  0  0  0  0  0  0  0  0  0
   38.8690   23.1980   40.2990 H   0  0  0  0  0  0  0  0  0  0  0  0
   36.5650   23.5670   40.9000 H   0  0  0  0  0  0  0  0  0  0  0  0
   36.6870   25.3380   40.4940 H   0  0  0  0  0  0  0  0  0  0  0  0
   36.3920   24.8580   42.8560 H   0  0  0  0  0  0  0  0  0  0  0  0
   38.0640   24.0960   42.9250 H   0  0  0  0  0  0  0  0  0  0  0  0
   38.6600   26.3540   43.3710 H   0  0  0  0  0  0  0  0  0  0  0  0
   36.9470   27.3010   42.5800 C   0  0  0  0  0  0  0  0  0  0  0  0
   36.1840   27.4330   41.4520 F   0  0  0  0  0  0  0  0  0  0  0  0
   37.5550   28.4620   42.9780 F   0  0  0  0  0  0  0  0  0  0  0  0
   36.0910   26.9020   43.6040 F   0  0  0  0  0  0  0  0  0  0  0  0
   39.4640   28.7440   40.6050 O   0  0  0  0  0  0  0  0  0  0  0  0
   39.7940   29.6590   39.6290 C   0  0  0  0  0  0  0  0  0  0  0  0
   38.8060   30.5880   39.2430 C   0  0  0  0  0  0  0  0  0  0  0  0
   39.1700   31.5110   38.2450 C   0  0  0  0  0  0  0  0  0  0  0  0
   40.4230   31.4570   37.7200 N   0  0  0  0  0  0  0  0  0  0  0  0
   41.3130   30.5570   38.1230 C   0  0  0  0  0  0  0  0  0  0  0  0
   41.0010   29.6550   39.0790 N   0  0  0  0  0  0  0  0  0  0  0  0
   38.3850   32.2190   37.9650 H   0  0  0  0  0  0  0  0  0  0  0  0
   42.3140   30.5400   37.6810 H   0  0  0  0  0  0  0  0  0  0  0  0
   37.5040   30.5610   39.8630 C   0  0  0  0  0  0  0  0  0  0  0  0
   36.4090   29.9270   39.2980 C   0  0  0  0  0  0  0  0  0  0  0  0
   35.3980   30.1460   40.2070 C   0  0  0  0  0  0  0  0  0  0  0  0
   35.8480   30.8670   41.2590 N   0  0  0  0  0  0  0  0  0  0  0  0
   37.1210   31.1010   41.0240 N   0  0  0  0  0  0  0  0  0  0  0  0
   36.3610   29.3800   38.3490 H   0  0  0  0  0  0  0  0  0  0  0  0
   34.3620   29.7870   40.1010 H   0  0  0  0  0  0  0  0  0  0  0  0
   35.2790   31.1670   42.0870 H   0  0  0  0  0  0  0  0  0  0  0  0
  1 22  1  0  0  0  0
  1  3  1  0  0  0  0
  2  1  2  0  0  0  0
  3  8  1  0  0  0  0
  4  3  1  0  0  0  0
  4 10  1  0  0  0  0
  5 12  1  0  0  0  0
  5  4  1  0  0  0  0
  5  6  1  0  0  0  0
  6  7  1  0  0  0  0
  7  8  1  0  0  0  0
  7 15  1  0  0  0  0
  7 16  1  0  0  0  0
  8 18  1  0  0  0  0
  8 17  1  1  0  0  0
  9  4  1  0  0  0  0
 11  5  1  0  0  0  0
 13  6  1  0  0  0  0
 14  6  1  0  0  0  0
 18 20  1  0  0  0  0
 18 21  1  0  0  0  0
 19 18  1  0  0  0  0
 23 22  1  0  0  0  0
 24 23  1  0  0  0  0
 24 31  1  0  0  0  0
 25 24  2  0  0  0  0
 26 27  2  0  0  0  0
 26 25  1  0  0  0  0
 27 28  1  0  0  0  0
 28 23  2  0  0  0  0
 29 25  1  0  0  0  0
 30 27  1  0  0  0  0
 31 35  2  0  0  0  0
 32 31  1  0  0  0  0
 32 33  2  0  0  0  0
 33 34  1  0  0  0  0
 34 38  1  0  0  0  0
 35 34  1  0  0  0  0
 36 32  1  0  0  0  0
 37 33  1  0  0  0  0
M  END
>  <minimizedAffinity>
-5.48200607

$$$$

 OpenBabel03252508553D

 38 40  0  0  1  0  0  0  0  0999 V2000
   39.7170   30.5970   40.6910 C   0  0  0  0  0  0  0  0  0  0  0  0
   40.0800   31.5120   41.4970 O   0  0  0  0  0  0  0  0  0  0  0  0
   39.0240   31.3940   39.6960 N   0  0  0  0  0  0  0  0  0  0  0  0
   39.8350   32.3980   39.0470 C   0  0  0  0  0  0  0  0  0  0  0  0
   39.4970   33.7120   39.7700 C   0  0  0  0  0  0  0  0  0  0  0  0
   38.0060   33.6420   40.1050 C   0  0  0  0  0  0  0  0  0  0  0  0
   37.2380   32.8000   39.0840 C   0  0  0  0  0  0  0  0  0  0  0  0
   37.6420   31.3350   39.2590 C   0  0  2  0  0  0  0  0  0  0  0  0
   40.9310   32.2290   39.1710 H   0  0  0  0  0  0  0  0  0  0  0  0
   39.6310   32.4750   37.9730 H   0  0  0  0  0  0  0  0  0  0  0  0
   40.0300   33.7790   40.7280 H   0  0  0  0  0  0  0  0  0  0  0  0
   39.7290   34.5660   39.0930 H   0  0  0  0  0  0  0  0  0  0  0  0
   37.5600   34.6500   40.1390 H   0  0  0  0  0  0  0  0  0  0  0  0
   37.8930   33.1230   41.0730 H   0  0  0  0  0  0  0  0  0  0  0  0
   36.1760   32.9140   39.3690 H   0  0  0  0  0  0  0  0  0  0  0  0
   37.4350   33.1490   38.0510 H   0  0  0  0  0  0  0  0  0  0  0  0
   37.5910   30.7900   38.3040 H   0  0  0  0  0  0  0  0  0  0  0  0
   36.7550   30.6190   40.2340 C   0  0  0  0  0  0  0  0  0  0  0  0
   35.4210   30.6850   39.9400 F   0  0  0  0  0  0  0  0  0  0  0  0
   37.0700   31.0730   41.4890 F   0  0  0  0  0  0  0  0  0  0  0  0
   37.1190   29.2760   40.1690 F   0  0  0  0  0  0  0  0  0  0  0  0
   39.9380   29.2430   40.7740 O   0  0  0  0  0  0  0  0  0  0  0  0
   40.8070   28.6200   41.6430 C   0  0  0  0  0  0  0  0  0  0  0  0
   40.2650   28.0380   42.8070 C   0  0  0  0  0  0  0  0  0  0  0  0
   41.1760   27.4090   43.6760 C   0  0  0  0  0  0  0  0  0  0  0  0
   42.4960   27.3960   43.3530 N   0  0  0  0  0  0  0  0  0  0  0  0
   42.9500   27.9620   42.2400 C   0  0  0  0  0  0  0  0  0  0  0  0
   42.1070   28.5760   41.3820 N   0  0  0  0  0  0  0  0  0  0  0  0
   40.7270   26.9680   44.5700 H   0  0  0  0  0  0  0  0  0  0  0  0
   44.0200   27.9350   42.0090 H   0  0  0  0  0  0  0  0  0  0  0  0
   38.8460   28.1080   43.0580 C   0  0  0  0  0  0  0  0  0  0  0  0
   37.9760   27.0680   42.7760 C   0  0  0  0  0  0  0  0  0  0  0  0
   36.7460   27.5540   43.1640 C   0  0  0  0  0  0  0  0  0  0  0  0
   36.8610   28.8100   43.6530 N   0  0  0  0  0  0  0  0  0  0  0  0
   38.1380   29.1160   43.5760 N   0  0  0  0  0  0  0  0  0  0  0  0
   38.2110   26.0880   42.3440 H   0  0  0  0  0  0  0  0  0  0  0  0
   35.7950   27.0020   43.0920 H   0  0  0  0  0  0  0  0  0  0  0  0
   36.0760   29.4030   44.0150 H   0  0  0  0  0  0  0  0  0  0  0  0
  1 22  1  0  0  0  0
  1  2  2  0  0  0  0
  3  1  1  0  0  0  0
  4  9  1  0  0  0  0
  4  3  1  0  0  0  0
  4  5  1  0  0  0  0
  5  6  1  0  0  0  0
  5 11  1  0  0  0  0
  6 13  1  0  0  0  0
  6 14  1  0  0  0  0
  7  8  1  0  0  0  0
  7 15  1  0  0  0  0
  7  6  1  0  0  0  0
  8 17  1  6  0  0  0
  8  3  1  0  0  0  0
  8 18  1  0  0  0  0
 10  4  1  0  0  0  0
 12  5  1  0  0  0  0
 16  7  1  0  0  0  0
 18 20  1  0  0  0  0
 19 18  1  0  0  0  0
 21 18  1  0  0  0  0
 22 23  1  0  0  0  0
 23 24  1  0  0  0  0
 24 31  1  0  0  0  0
 24 25  2  0  0  0  0
 25 29  1  0  0  0  0
 26 25  1  0  0  0  0
 27 26  2  0  0  0  0
 28 23  2  0  0  0  0
 28 27  1  0  0  0  0
 30 27  1  0  0  0  0
 31 35  2  0  0  0  0
 32 31  1  0  0  0  0
 32 33  2  0  0  0  0
 33 34  1  0  0  0  0
 34 38  1  0  0  0  0
 35 34  1  0  0  0  0
 36 32  1  0  0  0  0
 37 33  1  0  0  0  0
M  END
>  <minimizedAffinity>
-5.45414639

$$$$

 OpenBabel03252508553D

 38 40  0  0  1  0  0  0  0  0999 V2000
   37.3190   28.6710   41.5340 C   0  0  0  0  0  0  0  0  0  0  0  0
   37.1950   29.6250   42.3660 O   0  0  0  0  0  0  0  0  0  0  0  0
   37.6050   29.4220   40.3250 N   0  0  0  0  0  0  0  0  0  0  0  0
   38.7900   30.2460   40.3860 C   0  0  0  0  0  0  0  0  0  0  0  0
   38.2740   31.6640   40.6800 C   0  0  0  0  0  0  0  0  0  0  0  0
   36.9530   31.8030   39.9210 C   0  0  0  0  0  0  0  0  0  0  0  0
   36.9380   30.9410   38.6560 C   0  0  0  0  0  0  0  0  0  0  0  0
   36.8790   29.4690   39.0700 C   0  0  2  0  0  0  0  0  0  0  0  0
   39.4790   29.9700   41.2190 H   0  0  0  0  0  0  0  0  0  0  0  0
   39.3680   30.2220   39.4560 H   0  0  0  0  0  0  0  0  0  0  0  0
   38.0360   31.7800   41.7460 H   0  0  0  0  0  0  0  0  0  0  0  0
   39.0320   32.4030   40.3300 H   0  0  0  0  0  0  0  0  0  0  0  0
   36.7680   32.8520   39.6360 H   0  0  0  0  0  0  0  0  0  0  0  0
   36.1420   31.4150   40.5620 H   0  0  0  0  0  0  0  0  0  0  0  0
   35.9920   31.2070   38.1480 H   0  0  0  0  0  0  0  0  0  0  0  0
   37.8250   31.1450   38.0240 H   0  0  0  0  0  0  0  0  0  0  0  0
   37.3900   28.8280   38.3360 H   0  0  0  0  0  0  0  0  0  0  0  0
   35.4680   28.9760   39.1960 C   0  0  0  0  0  0  0  0  0  0  0  0
   34.7930   29.4620   40.2820 F   0  0  0  0  0  0  0  0  0  0  0  0
   35.5020   27.6070   39.1300 F   0  0  0  0  0  0  0  0  0  0  0  0
   34.7990   29.4350   38.0640 F   0  0  0  0  0  0  0  0  0  0  0  0
   37.2060   27.3200   41.7560 O   0  0  0  0  0  0  0  0  0  0  0  0
   38.2030   26.4940   42.2290 C   0  0  0  0  0  0  0  0  0  0  0  0
   38.3510   25.2310   41.6200 C   0  0  0  0  0  0  0  0  0  0  0  0
   39.3760   24.4090   42.1230 C   0  0  0  0  0  0  0  0  0  0  0  0
   40.1490   24.8660   43.1440 N   0  0  0  0  0  0  0  0  0  0  0  0
   39.9620   26.0680   43.6800 C   0  0  0  0  0  0  0  0  0  0  0  0
   38.9880   26.8860   43.2240 N   0  0  0  0  0  0  0  0  0  0  0  0
   39.4670   23.4370   41.6330 H   0  0  0  0  0  0  0  0  0  0  0  0
   40.6020   26.4070   44.5010 H   0  0  0  0  0  0  0  0  0  0  0  0
   37.4760   24.8400   40.5410 C   0  0  0  0  0  0  0  0  0  0  0  0
   36.3530   24.0510   40.7250 C   0  0  0  0  0  0  0  0  0  0  0  0
   35.8270   23.9280   39.4580 C   0  0  0  0  0  0  0  0  0  0  0  0
   36.5810   24.6020   38.5600 N   0  0  0  0  0  0  0  0  0  0  0  0
   37.5680   25.1410   39.2420 N   0  0  0  0  0  0  0  0  0  0  0  0
   35.9740   23.6230   41.6610 H   0  0  0  0  0  0  0  0  0  0  0  0
   34.9170   23.3630   39.2020 H   0  0  0  0  0  0  0  0  0  0  0  0
   36.3970   24.6680   37.5290 H   0  0  0  0  0  0  0  0  0  0  0  0
  1 22  1  0  0  0  0
  1  2  2  0  0  0  0
  3  4  1  0  0  0  0
  3  1  1  0  0  0  0
  4  5  1  0  0  0  0
  4  9  1  0  0  0  0
  5 11  1  0  0  0  0
  6 14  1  0  0  0  0
  6  5  1  0  0  0  0
  7  8  1  0  0  0  0
  7  6  1  0  0  0  0
  8 17  1  6  0  0  0
  8 18  1  0  0  0  0
  8  3  1  0  0  0  0
 10  4  1  0  0  0  0
 12  5  1  0  0  0  0
 13  6  1  0  0  0  0
 15  7  1  0  0  0  0
 16  7  1  0  0  0  0
 18 19  1  0  0  0  0
 20 18  1  0  0  0  0
 21 18  1  0  0  0  0
 22 23  1  0  0  0  0
 23 28  1  0  0  0  0
 24 25  1  0  0  0  0
 24 23  2  0  0  0  0
 25 26  2  0  0  0  0
 26 27  1  0  0  0  0
 27 30  1  0  0  0  0
 28 27  2  0  0  0  0
 29 25  1  0  0  0  0
 31 32  1  0  0  0  0
 31 24  1  0  0  0  0
 32 36  1  0  0  0  0
 33 32  2  0  0  0  0
 34 35  1  0  0  0  0
 34 33  1  0  0  0  0
 35 31  2  0  0  0  0
 37 33  1  0  0  0  0
 38 34  1  0  0  0  0
M  END
>  <minimizedAffinity>
-5.43204403

$$$$

 OpenBabel03252508553D

 38 40  0  0  1  0  0  0  0  0999 V2000
   38.7450   27.8860   40.2280 C   0  0  0  0  0  0  0  0  0  0  0  0
   38.2910   27.3050   39.1900 O   0  0  0  0  0  0  0  0  0  0  0  0
   38.6090   26.8160   41.1990 N   0  0  0  0  0  0  0  0  0  0  0  0
   39.3450   25.6130   40.8860 C   0  0  0  0  0  0  0  0  0  0  0  0
   38.3070   24.6600   40.2710 C   0  0  0  0  0  0  0  0  0  0  0  0
   37.0000   24.9090   41.0260 C   0  0  0  0  0  0  0  0  0  0  0  0
   37.2590   25.3620   42.4650 C   0  0  0  0  0  0  0  0  0  0  0  0
   37.8470   26.7750   42.4320 C   0  0  2  0  0  0  0  0  0  0  0  0
   40.1410   25.7670   40.1200 H   0  0  0  0  0  0  0  0  0  0  0  0
   39.8160   25.1650   41.7680 H   0  0  0  0  0  0  0  0  0  0  0  0
   38.1150   24.9170   39.2210 H   0  0  0  0  0  0  0  0  0  0  0  0
   38.6630   23.6110   40.3950 H   0  0  0  0  0  0  0  0  0  0  0  0
   36.3760   24.0000   41.0490 H   0  0  0  0  0  0  0  0  0  0  0  0
   36.4700   25.7440   40.5350 H   0  0  0  0  0  0  0  0  0  0  0  0
   36.2560   25.4030   42.9300 H   0  0  0  0  0  0  0  0  0  0  0  0
   37.9360   24.6590   42.9890 H   0  0  0  0  0  0  0  0  0  0  0  0
   38.5270   26.9430   43.2800 H   0  0  0  0  0  0  0  0  0  0  0  0
   36.7810   27.8290   42.4910 C   0  0  0  0  0  0  0  0  0  0  0  0
   36.0600   27.9720   41.3370 F   0  0  0  0  0  0  0  0  0  0  0  0
   37.3710   28.9880   42.9250 F   0  0  0  0  0  0  0  0  0  0  0  0
   35.8890   27.4170   43.4780 F   0  0  0  0  0  0  0  0  0  0  0  0
   39.2200   29.1690   40.3530 O   0  0  0  0  0  0  0  0  0  0  0  0
   38.5140   30.3210   40.0830 C   0  0  0  0  0  0  0  0  0  0  0  0
   38.9810   31.5230   40.6510 C   0  0  0  0  0  0  0  0  0  0  0  0
   38.2400   32.6840   40.3580 C   0  0  0  0  0  0  0  0  0  0  0  0
   37.1430   32.5840   39.5630 N   0  0  0  0  0  0  0  0  0  0  0  0
   36.7490   31.4210   39.0550 C   0  0  0  0  0  0  0  0  0  0  0  0
   37.4340   30.2850   39.3130 N   0  0  0  0  0  0  0  0  0  0  0  0
   38.6250   33.6010   40.8120 H   0  0  0  0  0  0  0  0  0  0  0  0
   35.8610   31.3740   38.4170 H   0  0  0  0  0  0  0  0  0  0  0  0
   40.1590   31.5220   41.4840 C   0  0  0  0  0  0  0  0  0  0  0  0
   41.4140   31.8810   41.0210 C   0  0  0  0  0  0  0  0  0  0  0  0
   42.2250   31.7370   42.1250 C   0  0  0  0  0  0  0  0  0  0  0  0
   41.5080   31.3180   43.1930 N   0  0  0  0  0  0  0  0  0  0  0  0
   40.2670   31.1970   42.7760 N   0  0  0  0  0  0  0  0  0  0  0  0
   41.6950   32.2030   40.0110 H   0  0  0  0  0  0  0  0  0  0  0  0
   43.3080   31.9350   42.1460 H   0  0  0  0  0  0  0  0  0  0  0  0
   41.8880   31.1330   44.1530 H   0  0  0  0  0  0  0  0  0  0  0  0
  1 22  1  0  0  0  0
  1  3  1  0  0  0  0
  2  1  2  0  0  0  0
  3  8  1  0  0  0  0
  4  3  1  0  0  0  0
  4 10  1  0  0  0  0
  5 12  1  0  0  0  0
  5  4  1  0  0  0  0
  5  6  1  0  0  0  0
  6 13  1  0  0  0  0
  6  7  1  0  0  0  0
  7 15  1  0  0  0  0
  7 16  1  0  0  0  0
  8  7  1  0  0  0  0
  8 18  1  0  0  0  0
  8 17  1  1  0  0  0
  9  4  1  0  0  0  0
 11  5  1  0  0  0  0
 14  6  1  0  0  0  0
 18 20  1  0  0  0  0
 18 21  1  0  0  0  0
 19 18  1  0  0  0  0
 23 22  1  0  0  0  0
 23 24  1  0  0  0  0
 24 31  1  0  0  0  0
 25 24  2  0  0  0  0
 25 29  1  0  0  0  0
 26 25  1  0  0  0  0
 27 28  1  0  0  0  0
 27 26  2  0  0  0  0
 28 23  2  0  0  0  0
 30 27  1  0  0  0  0
 31 35  2  0  0  0  0
 32 31  1  0  0  0  0
 32 33  2  0  0  0  0
 33 37  1  0  0  0  0
 33 34  1  0  0  0  0
 34 38  1  0  0  0  0
 35 34  1  0  0  0  0
 36 32  1  0  0  0  0
M  END
>  <minimizedAffinity>
-5.42475176

$$$$
