
 OpenBabel03252509183D

 36 38  0  0  1  0  0  0  0  0999 V2000
   47.4140   33.0550   42.5750 C   0  0  1  0  0  0  0  0  0  0  0  0
   48.1870   32.6820   41.3560 C   0  0  0  0  0  0  0  0  0  0  0  0
   48.2460   33.7400   40.2980 C   0  0  0  0  0  0  0  0  0  0  0  0
   48.4950   35.1180   40.8630 C   0  0  0  0  0  0  0  0  0  0  0  0
   47.6440   35.4150   42.0690 C   0  0  0  0  0  0  0  0  0  0  0  0
   46.5860   34.3140   42.2450 C   0  0  2  0  0  0  0  0  0  0  0  0
   48.1210   33.4020   43.3520 H   0  0  0  0  0  0  0  0  0  0  0  0
   47.6620   31.7940   40.8970 H   0  0  0  0  0  0  0  0  0  0  0  0
   49.2010   32.2860   41.6140 H   0  0  0  0  0  0  0  0  0  0  0  0
   47.3460   33.7390   39.6530 H   0  0  0  0  0  0  0  0  0  0  0  0
   49.1230   33.5170   39.6400 H   0  0  0  0  0  0  0  0  0  0  0  0
   49.5700   35.2220   41.1630 H   0  0  0  0  0  0  0  0  0  0  0  0
   48.3410   35.8430   40.0400 H   0  0  0  0  0  0  0  0  0  0  0  0
   47.1270   36.3870   41.9120 H   0  0  0  0  0  0  0  0  0  0  0  0
   48.2260   35.4650   42.9920 H   0  0  0  0  0  0  0  0  0  0  0  0
   45.9740   34.1910   41.3520 H   0  0  0  0  0  0  0  0  0  0  0  0
   45.6680   30.0550   44.7460 C   0  0  0  0  0  0  0  0  0  0  0  0
   45.0040   30.2850   43.5290 C   0  0  0  0  0  0  0  0  0  0  0  0
   45.4940   31.2510   42.7190 C   0  0  0  0  0  0  0  0  0  0  0  0
   46.6310   31.9870   43.1060 C   0  0  0  0  0  0  0  0  0  0  0  0
   47.0360   31.2620   44.7260 S   0  0  0  0  0  0  0  0  0  0  0  0
   44.1320   29.7250   43.2280 H   0  0  0  0  0  0  0  0  0  0  0  0
   45.1320   31.5740   41.7560 H   0  0  0  0  0  0  0  0  0  0  0  0
   45.3350   27.8290   47.7100 C   0  0  0  0  0  0  0  0  0  0  0  0
   44.2140   27.0610   47.3060 C   0  0  0  0  0  0  0  0  0  0  0  0
   43.6250   27.3370   46.0460 C   0  0  0  0  0  0  0  0  0  0  0  0
   44.1930   28.3350   45.3090 N   0  0  0  0  0  0  0  0  0  0  0  0
   45.2590   29.0430   45.7270 C   0  0  0  0  0  0  0  0  0  0  0  0
   45.8170   28.7810   46.9220 N   0  0  0  0  0  0  0  0  0  0  0  0
   45.8070   27.6430   48.6670 H   0  0  0  0  0  0  0  0  0  0  0  0
   43.8140   26.2890   47.9310 H   0  0  0  0  0  0  0  0  0  0  0  0
   42.7680   26.7800   45.6900 H   0  0  0  0  0  0  0  0  0  0  0  0
   45.7680   34.7200   43.4600 C   0  0  0  0  0  0  0  0  0  0  0  0
   44.5220   34.1210   43.4460 F   0  0  0  0  0  0  0  0  0  0  0  0
   46.4630   34.4100   44.6050 F   0  0  0  0  0  0  0  0  0  0  0  0
   45.5990   36.0780   43.4040 F   0  0  0  0  0  0  0  0  0  0  0  0
  1 20  1  0  0  0  0
  1  7  1  1  0  0  0
  2  9  1  0  0  0  0
  2  1  1  0  0  0  0
  3  4  1  0  0  0  0
  3  2  1  0  0  0  0
  4 12  1  0  0  0  0
  4  5  1  0  0  0  0
  5  6  1  0  0  0  0
  5 15  1  0  0  0  0
  6 16  1  6  0  0  0
  6  1  1  0  0  0  0
  6 33  1  0  0  0  0
  8  2  1  0  0  0  0
 10  3  1  0  0  0  0
 11  3  1  0  0  0  0
 13  4  1  0  0  0  0
 14  5  1  0  0  0  0
 17 28  1  0  0  0  0
 18 17  2  0  0  0  0
 19 20  2  0  0  0  0
 19 18  1  0  0  0  0
 20 21  1  0  0  0  0
 21 17  1  0  0  0  0
 22 18  1  0  0  0  0
 23 19  1  0  0  0  0
 24 30  1  0  0  0  0
 25 24  1  0  0  0  0
 25 31  1  0  0  0  0
 26 25  2  0  0  0  0
 27 28  2  0  0  0  0
 27 26  1  0  0  0  0
 28 29  1  0  0  0  0
 29 24  2  0  0  0  0
 32 26  1  0  0  0  0
 33 35  1  0  0  0  0
 34 33  1  0  0  0  0
 36 33  1  0  0  0  0
M  END
>  <minimizedAffinity>
-4.31602478

>  <minimizedRMSD>
7.35403395

$$$$
