
 OpenBabel03252501283D

 37 40  0  0  0  0  0  0  0  0999 V2000
   47.1860   31.2680   45.1280 C   0  0  0  0  0  0  0  0  0  0  0  0
   48.1390   30.4200   44.5650 C   0  0  0  0  0  0  0  0  0  0  0  0
   48.6400   31.0090   43.4510 C   0  0  0  0  0  0  0  0  0  0  0  0
   48.0080   32.1950   43.3320 N   0  0  0  0  0  0  0  0  0  0  0  0
   47.1430   32.3330   44.3400 N   0  0  0  0  0  0  0  0  0  0  0  0
   48.4150   29.4490   44.9750 H   0  0  0  0  0  0  0  0  0  0  0  0
   49.3930   30.6550   42.7560 H   0  0  0  0  0  0  0  0  0  0  0  0
   47.3700   31.8420   40.5980 F   0  0  0  0  0  0  0  0  0  0  0  0
   47.8630   32.9980   41.0190 C   0  0  0  0  0  0  0  0  0  0  0  0
   48.1750   33.1780   42.3380 C   0  0  0  0  0  0  0  0  0  0  0  0
   48.6940   34.3910   42.7980 C   0  0  0  0  0  0  0  0  0  0  0  0
   48.9110   35.4360   41.9550 C   0  0  0  0  0  0  0  0  0  0  0  0
   48.5970   35.2510   40.6260 C   0  0  0  0  0  0  0  0  0  0  0  0
   48.0790   34.0540   40.1530 C   0  0  0  0  0  0  0  0  0  0  0  0
   48.9470   34.5500   43.8420 H   0  0  0  0  0  0  0  0  0  0  0  0
   49.3170   36.3770   42.3200 H   0  0  0  0  0  0  0  0  0  0  0  0
   48.7660   36.0840   39.9370 H   0  0  0  0  0  0  0  0  0  0  0  0
   47.7780   33.9620   38.7230 C   0  0  0  0  0  0  0  0  0  0  0  0
   48.4330   34.4830   37.6260 C   0  0  0  0  0  0  0  0  0  0  0  0
   47.7820   34.1340   36.4900 N   0  0  0  0  0  0  0  0  0  0  0  0
   46.7300   33.4000   36.8750 C   0  0  0  0  0  0  0  0  0  0  0  0
   46.7320   33.3000   38.2160 N   0  0  0  0  0  0  0  0  0  0  0  0
   49.3290   35.0760   37.7000 H   0  0  0  0  0  0  0  0  0  0  0  0
   48.0750   34.4030   35.5250 H   0  0  0  0  0  0  0  0  0  0  0  0
   46.0050   32.9660   36.2090 H   0  0  0  0  0  0  0  0  0  0  0  0
   45.4160   31.7180   48.2960 C   0  0  0  0  0  0  0  0  0  0  0  0
   45.0010   30.3980   48.5980 C   0  0  0  0  0  0  0  0  0  0  0  0
   45.3380   29.3660   47.7050 C   0  0  0  0  0  0  0  0  0  0  0  0
   46.0420   29.7530   46.6170 N   0  0  0  0  0  0  0  0  0  0  0  0
   46.4350   30.9840   46.3260 C   0  0  0  0  0  0  0  0  0  0  0  0
   46.1200   32.0090   47.1810 N   0  0  0  0  0  0  0  0  0  0  0  0
   45.1470   32.5030   48.9980 H   0  0  0  0  0  0  0  0  0  0  0  0
   44.4380   30.1740   49.4930 H   0  0  0  0  0  0  0  0  0  0  0  0
   44.9420   27.9690   47.9480 C   0  0  0  0  0  0  0  0  0  0  0  0
   44.0320   27.5670   47.0160 F   0  0  0  0  0  0  0  0  0  0  0  0
   46.1200   27.2160   47.8580 F   0  0  0  0  0  0  0  0  0  0  0  0
   44.4490   27.7740   49.2240 F   0  0  0  0  0  0  0  0  0  0  0  0
  1 30  1  0  0  0  0
  2  6  1  0  0  0  0
  2  1  1  0  0  0  0
  3  2  2  0  0  0  0
  4  3  1  0  0  0  0
  4  5  1  0  0  0  0
  5  1  2  0  0  0  0
  7  3  1  0  0  0  0
  8  9  1  0  0  0  0
  9 10  1  0  0  0  0
 10 11  2  0  0  0  0
 10  4  1  0  0  0  0
 11 15  1  0  0  0  0
 12 16  1  0  0  0  0
 12 11  1  0  0  0  0
 13 12  2  0  0  0  0
 14 13  1  0  0  0  0
 14  9  2  0  0  0  0
 17 13  1  0  0  0  0
 18 14  1  0  0  0  0
 19 23  1  0  0  0  0
 19 18  2  0  0  0  0
 20 21  1  0  0  0  0
 20 19  1  0  0  0  0
 21 22  2  0  0  0  0
 22 18  1  0  0  0  0
 24 20  1  0  0  0  0
 25 21  1  0  0  0  0
 26 27  1  0  0  0  0
 26 32  1  0  0  0  0
 27 33  1  0  0  0  0
 28 34  1  0  0  0  0
 28 27  2  0  0  0  0
 29 28  1  0  0  0  0
 30 29  2  0  0  0  0
 30 31  1  0  0  0  0
 31 26  2  0  0  0  0
 34 37  1  0  0  0  0
 35 34  1  0  0  0  0
 36 34  1  0  0  0  0
M  END
>  <minimizedAffinity>
-6.30914402

>  <minimizedRMSD>
4.26209736

$$$$
