
 OpenBabel03252506413D

 35 37  0  0  1  0  0  0  0  0999 V2000
   49.4490   33.3370   41.5100 N   0  0  1  0  0  0  0  0  0  0  0  0
   50.6790   33.1130   42.2300 C   0  0  0  0  0  0  0  0  0  0  0  0
   51.3210   31.7950   42.0430 C   0  0  0  0  0  0  0  0  0  0  0  0
   50.4060   30.6820   42.4670 C   0  0  0  0  0  0  0  0  0  0  0  0
   48.9720   31.0450   42.3390 C   0  0  0  0  0  0  0  0  0  0  0  0
   48.8060   32.0740   41.2630 C   0  0  2  0  0  0  0  0  0  0  0  0
   50.5260   33.2660   43.3240 H   0  0  0  0  0  0  0  0  0  0  0  0
   51.3850   33.9200   41.8760 H   0  0  0  0  0  0  0  0  0  0  0  0
   52.1430   31.7720   42.8400 H   0  0  0  0  0  0  0  0  0  0  0  0
   51.8870   31.6310   41.1230 H   0  0  0  0  0  0  0  0  0  0  0  0
   50.5780   30.2950   43.4790 H   0  0  0  0  0  0  0  0  0  0  0  0
   50.6580   29.8180   41.7830 H   0  0  0  0  0  0  0  0  0  0  0  0
   48.5780   31.4870   43.2920 H   0  0  0  0  0  0  0  0  0  0  0  0
   48.3350   30.1920   42.0670 H   0  0  0  0  0  0  0  0  0  0  0  0
   47.6940   32.3670   41.4140 H   0  0  0  0  0  0  0  0  0  0  0  0
   47.2390   34.5660   42.0000 C   0  0  1  0  0  0  0  0  0  0  0  0
   48.3100   35.5320   41.7020 C   0  0  0  0  0  0  0  0  0  0  0  0
   48.6630   34.2270   42.3100 C   0  0  2  0  0  0  0  0  0  0  0  0
   46.7790   34.1020   41.1170 H   0  0  0  0  0  0  0  0  0  0  0  0
   48.3890   36.4040   42.3610 H   0  0  0  0  0  0  0  0  0  0  0  0
   48.6130   35.7400   40.6510 H   0  0  0  0  0  0  0  0  0  0  0  0
   48.8880   34.1450   43.3970 H   0  0  0  0  0  0  0  0  0  0  0  0
   45.5270   36.0220   43.1580 C   0  0  0  0  0  0  0  0  0  0  0  0
   46.3150   34.8460   43.1370 C   0  0  0  0  0  0  0  0  0  0  0  0
   46.1930   33.9580   44.2170 C   0  0  0  0  0  0  0  0  0  0  0  0
   45.3300   34.2750   45.2130 N   0  0  0  0  0  0  0  0  0  0  0  0
   44.5890   35.4120   45.2000 C   0  0  0  0  0  0  0  0  0  0  0  0
   44.6830   36.2970   44.1670 N   0  0  0  0  0  0  0  0  0  0  0  0
   45.6000   36.7250   42.3410 H   0  0  0  0  0  0  0  0  0  0  0  0
   46.7850   33.0630   44.2120 H   0  0  0  0  0  0  0  0  0  0  0  0
   43.9350   35.5470   46.0610 H   0  0  0  0  0  0  0  0  0  0  0  0
   48.8200   31.5780   39.8620 C   0  0  0  0  0  0  0  0  0  0  0  0
   48.5810   30.1940   39.7960 F   0  0  0  0  0  0  0  0  0  0  0  0
   47.7290   32.0930   39.1290 F   0  0  0  0  0  0  0  0  0  0  0  0
   49.9120   31.9410   39.1110 F   0  0  0  0  0  0  0  0  0  0  0  0
  1  2  1  1  0  0  0
  1 18  1  0  0  0  0
  2  7  1  0  0  0  0
  3  2  1  0  0  0  0
  3  4  1  0  0  0  0
  3  9  1  0  0  0  0
  4 11  1  0  0  0  0
  5  4  1  0  0  0  0
  5 13  1  0  0  0  0
  6 15  1  1  0  0  0
  6  1  1  0  0  0  0
  6  5  1  0  0  0  0
  8  2  1  0  0  0  0
 10  3  1  0  0  0  0
 12  4  1  0  0  0  0
 14  5  1  0  0  0  0
 16 19  1  6  0  0  0
 16 18  1  0  0  0  0
 16 24  1  0  0  0  0
 17 16  1  0  0  0  0
 17 18  1  0  0  0  0
 17 20  1  0  0  0  0
 18 22  1  1  0  0  0
 21 17  1  0  0  0  0
 23 28  1  0  0  0  0
 24 23  2  0  0  0  0
 24 25  1  0  0  0  0
 25 26  2  0  0  0  0
 27 26  1  0  0  0  0
 27 31  1  0  0  0  0
 28 27  2  0  0  0  0
 29 23  1  0  0  0  0
 30 25  1  0  0  0  0
 32  6  1  0  0  0  0
 33 32  1  0  0  0  0
 34 32  1  0  0  0  0
 35 32  1  0  0  0  0
M  END
>  <minimizedAffinity>
-4.65374374

>  <minimizedRMSD>
0.300865263

$$$$
