
 OpenBabel03252508533D

 38 40  0  0  1  0  0  0  0  0999 V2000
   43.4460   34.5020   40.5310 C   0  0  0  0  0  0  0  0  0  0  0  0
   43.1390   35.7360   40.5780 O   0  0  0  0  0  0  0  0  0  0  0  0
   42.4020   34.0130   39.6500 N   0  0  0  0  0  0  0  0  0  0  0  0
   42.3800   34.6170   38.3380 C   0  0  0  0  0  0  0  0  0  0  0  0
   41.2770   35.6860   38.4110 C   0  0  0  0  0  0  0  0  0  0  0  0
   40.1790   35.1060   39.3040 C   0  0  0  0  0  0  0  0  0  0  0  0
   40.1300   33.5790   39.2160 C   0  0  0  0  0  0  0  0  0  0  0  0
   41.3810   33.0120   39.8900 C   0  0  2  0  0  0  0  0  0  0  0  0
   43.3280   35.1420   38.0760 H   0  0  0  0  0  0  0  0  0  0  0  0
   42.1720   33.8910   37.5430 H   0  0  0  0  0  0  0  0  0  0  0  0
   41.6440   36.5910   38.9140 H   0  0  0  0  0  0  0  0  0  0  0  0
   40.9070   35.8920   37.3800 H   0  0  0  0  0  0  0  0  0  0  0  0
   39.1900   35.5080   39.0280 H   0  0  0  0  0  0  0  0  0  0  0  0
   40.4260   35.3410   40.3540 H   0  0  0  0  0  0  0  0  0  0  0  0
   39.2420   33.2930   39.8100 H   0  0  0  0  0  0  0  0  0  0  0  0
   40.0560   33.2430   38.1620 H   0  0  0  0  0  0  0  0  0  0  0  0
   41.6900   32.0640   39.4240 H   0  0  0  0  0  0  0  0  0  0  0  0
   41.1600   32.7460   41.3510 C   0  0  0  0  0  0  0  0  0  0  0  0
   42.1940   32.0990   41.9710 F   0  0  0  0  0  0  0  0  0  0  0  0
   39.9520   32.1110   41.4770 F   0  0  0  0  0  0  0  0  0  0  0  0
   41.0440   33.9960   41.9540 F   0  0  0  0  0  0  0  0  0  0  0  0
   44.4850   33.8530   41.1540 O   0  0  0  0  0  0  0  0  0  0  0  0
   45.8210   34.1670   41.0330 C   0  0  0  0  0  0  0  0  0  0  0  0
   46.4540   34.7740   42.1360 C   0  0  0  0  0  0  0  0  0  0  0  0
   47.8190   35.0840   41.9850 C   0  0  0  0  0  0  0  0  0  0  0  0
   48.4360   34.7870   40.8100 N   0  0  0  0  0  0  0  0  0  0  0  0
   47.7870   34.2150   39.8020 C   0  0  0  0  0  0  0  0  0  0  0  0
   46.4770   33.9030   39.9100 N   0  0  0  0  0  0  0  0  0  0  0  0
   48.2830   35.5530   42.8550 H   0  0  0  0  0  0  0  0  0  0  0  0
   48.3140   33.9890   38.8690 H   0  0  0  0  0  0  0  0  0  0  0  0
   45.7070   35.0470   43.3400 C   0  0  0  0  0  0  0  0  0  0  0  0
   45.0390   36.2400   43.5620 C   0  0  0  0  0  0  0  0  0  0  0  0
   44.4740   36.0730   44.8080 C   0  0  0  0  0  0  0  0  0  0  0  0
   44.7780   34.8550   45.3110 N   0  0  0  0  0  0  0  0  0  0  0  0
   45.5220   34.2600   44.4040 N   0  0  0  0  0  0  0  0  0  0  0  0
   44.9760   37.1130   42.9010 H   0  0  0  0  0  0  0  0  0  0  0  0
   43.8580   36.8220   45.3290 H   0  0  0  0  0  0  0  0  0  0  0  0
   44.4710   34.4810   46.2410 H   0  0  0  0  0  0  0  0  0  0  0  0
  1  2  2  0  0  0  0
  1 22  1  0  0  0  0
  3  8  1  0  0  0  0
  3  1  1  0  0  0  0
  4  5  1  0  0  0  0
  4  3  1  0  0  0  0
  5 11  1  0  0  0  0
  5  6  1  0  0  0  0
  6 14  1  0  0  0  0
  7  6  1  0  0  0  0
  7 15  1  0  0  0  0
  7  8  1  0  0  0  0
  8 17  1  6  0  0  0
  8 18  1  0  0  0  0
  9  4  1  0  0  0  0
 10  4  1  0  0  0  0
 12  5  1  0  0  0  0
 13  6  1  0  0  0  0
 16  7  1  0  0  0  0
 18 20  1  0  0  0  0
 18 21  1  0  0  0  0
 18 19  1  0  0  0  0
 23 22  1  0  0  0  0
 23 24  1  0  0  0  0
 24 31  1  0  0  0  0
 25 24  2  0  0  0  0
 25 29  1  0  0  0  0
 26 25  1  0  0  0  0
 27 28  1  0  0  0  0
 27 26  2  0  0  0  0
 28 23  2  0  0  0  0
 30 27  1  0  0  0  0
 31 32  1  0  0  0  0
 31 35  2  0  0  0  0
 32 33  2  0  0  0  0
 33 34  1  0  0  0  0
 33 37  1  0  0  0  0
 34 38  1  0  0  0  0
 35 34  1  0  0  0  0
 36 32  1  0  0  0  0
M  END
>  <minimizedAffinity>
-6.29524899

>  <minimizedRMSD>
0.891431272

$$$$
