
 OpenBabel03252500133D

 33 35  0  0  0  0  0  0  0  0999 V2000
   45.4840   32.3550   40.5440 Cl  0  0  0  0  0  0  0  0  0  0  0  0
   46.7750   33.4450   40.1890 C   0  0  0  0  0  0  0  0  0  0  0  0
   47.3650   34.1880   41.1650 C   0  0  0  0  0  0  0  0  0  0  0  0
   48.4020   35.0700   40.9130 C   0  0  0  0  0  0  0  0  0  0  0  0
   48.8120   35.1580   39.5980 C   0  0  0  0  0  0  0  0  0  0  0  0
   48.2240   34.4110   38.5950 C   0  0  0  0  0  0  0  0  0  0  0  0
   47.2110   33.5590   38.8820 C   0  0  0  0  0  0  0  0  0  0  0  0
   48.8410   35.6390   41.7130 H   0  0  0  0  0  0  0  0  0  0  0  0
   49.6290   35.8590   39.4140 H   0  0  0  0  0  0  0  0  0  0  0  0
   48.6170   34.5560   37.6150 H   0  0  0  0  0  0  0  0  0  0  0  0
   46.9010   32.9120   44.6000 C   0  0  0  0  0  0  0  0  0  0  0  0
   45.9590   33.8220   45.1380 C   0  0  0  0  0  0  0  0  0  0  0  0
   45.5020   34.8520   44.3170 C   0  0  0  0  0  0  0  0  0  0  0  0
   45.9860   34.9270   43.0440 N   0  0  0  0  0  0  0  0  0  0  0  0
   46.8820   34.0500   42.5550 C   0  0  0  0  0  0  0  0  0  0  0  0
   47.3290   33.0530   43.3370 N   0  0  0  0  0  0  0  0  0  0  0  0
   47.2770   32.1080   45.1960 H   0  0  0  0  0  0  0  0  0  0  0  0
   45.6000   33.7420   46.1290 H   0  0  0  0  0  0  0  0  0  0  0  0
   44.5090   35.8680   44.7780 C   0  0  0  0  0  0  0  0  0  0  0  0
   44.9830   37.1300   44.5490 F   0  0  0  0  0  0  0  0  0  0  0  0
   43.3300   35.6990   44.0770 F   0  0  0  0  0  0  0  0  0  0  0  0
   44.3090   35.6430   46.1150 F   0  0  0  0  0  0  0  0  0  0  0  0
   46.5750   32.7600   37.8430 C   0  0  0  0  0  0  0  0  0  0  0  0
   45.5830   33.2320   36.9850 C   0  0  0  0  0  0  0  0  0  0  0  0
   45.1990   32.2280   36.1260 C   0  0  0  0  0  0  0  0  0  0  0  0
   46.0070   31.1620   36.5220 C   0  0  0  0  0  0  0  0  0  0  0  0
   46.8070   31.5020   37.5340 O   0  0  0  0  0  0  0  0  0  0  0  0
   45.1470   34.2350   36.9600 H   0  0  0  0  0  0  0  0  0  0  0  0
   44.4850   32.1850   35.3390 H   0  0  0  0  0  0  0  0  0  0  0  0
   46.0850   29.7720   35.9910 C   0  0  0  0  0  0  0  0  0  0  0  0
   45.3230   28.9080   36.7550 F   0  0  0  0  0  0  0  0  0  0  0  0
   45.5590   29.6790   34.6990 F   0  0  0  0  0  0  0  0  0  0  0  0
   47.4020   29.3600   35.8650 F   0  0  0  0  0  0  0  0  0  0  0  0
  2  1  1  0  0  0  0
  2  3  1  0  0  0  0
  3 15  1  0  0  0  0
  4  3  2  0  0  0  0
  4  8  1  0  0  0  0
  5  4  1  0  0  0  0
  6  7  1  0  0  0  0
  6  5  2  0  0  0  0
  7  2  2  0  0  0  0
  9  5  1  0  0  0  0
 10  6  1  0  0  0  0
 11 12  1  0  0  0  0
 11 17  1  0  0  0  0
 12 18  1  0  0  0  0
 13 19  1  0  0  0  0
 13 12  2  0  0  0  0
 14 13  1  0  0  0  0
 15 14  2  0  0  0  0
 15 16  1  0  0  0  0
 16 11  2  0  0  0  0
 19 22  1  0  0  0  0
 20 19  1  0  0  0  0
 21 19  1  0  0  0  0
 23  7  1  0  0  0  0
 24 23  2  0  0  0  0
 25 26  2  0  0  0  0
 25 24  1  0  0  0  0
 26 27  1  0  0  0  0
 27 23  1  0  0  0  0
 28 24  1  0  0  0  0
 29 25  1  0  0  0  0
 30 26  1  0  0  0  0
 30 31  1  0  0  0  0
 32 30  1  0  0  0  0
 33 30  1  0  0  0  0
M  END
>  <minimizedAffinity>
-5.56896639

>  <minimizedRMSD>
0.0554019585

$$$$
