
 OpenBabel03252504163D

 30 31  0  0  0  0  0  0  0  0999 V2000
   36.9090   27.0800   40.6330 C   0  0  0  0  0  0  0  0  0  0  0  0
   36.8080   28.0120   41.6480 C   0  0  0  0  0  0  0  0  0  0  0  0
   36.2030   29.2480   41.3240 C   0  0  0  0  0  0  0  0  0  0  0  0
   35.7580   29.4550   40.0570 N   0  0  0  0  0  0  0  0  0  0  0  0
   35.8840   28.5030   39.1010 C   0  0  0  0  0  0  0  0  0  0  0  0
   36.4560   27.3270   39.3910 N   0  0  0  0  0  0  0  0  0  0  0  0
   36.1060   30.0090   42.1050 H   0  0  0  0  0  0  0  0  0  0  0  0
   33.1570   28.9660   38.4770 F   0  0  0  0  0  0  0  0  0  0  0  0
   34.0840   28.9400   37.4540 C   0  0  0  0  0  0  0  0  0  0  0  0
   35.4130   28.7160   37.7450 C   0  0  0  0  0  0  0  0  0  0  0  0
   36.2840   28.7070   36.6580 C   0  0  0  0  0  0  0  0  0  0  0  0
   35.8180   28.9120   35.3660 C   0  0  0  0  0  0  0  0  0  0  0  0
   34.4600   29.1320   35.1490 C   0  0  0  0  0  0  0  0  0  0  0  0
   33.5580   29.1520   36.1990 C   0  0  0  0  0  0  0  0  0  0  0  0
   37.3400   28.5350   36.8220 H   0  0  0  0  0  0  0  0  0  0  0  0
   36.4660   28.9090   34.5150 H   0  0  0  0  0  0  0  0  0  0  0  0
   34.1190   29.2910   34.1350 H   0  0  0  0  0  0  0  0  0  0  0  0
   32.1040   29.3860   35.9800 C   0  0  0  0  0  0  0  0  0  0  0  0
   31.7040   30.4960   36.6990 F   0  0  0  0  0  0  0  0  0  0  0  0
   31.4160   28.2550   36.3630 F   0  0  0  0  0  0  0  0  0  0  0  0
   31.9610   29.5750   34.6150 F   0  0  0  0  0  0  0  0  0  0  0  0
   37.3110   27.7120   42.9890 C   0  0  0  0  0  0  0  0  0  0  0  0
   37.5370   28.8900   43.6790 F   0  0  0  0  0  0  0  0  0  0  0  0
   36.3170   27.0400   43.6790 F   0  0  0  0  0  0  0  0  0  0  0  0
   38.4520   26.9730   43.0300 F   0  0  0  0  0  0  0  0  0  0  0  0
   37.4940   25.8860   40.9440 O   0  0  0  0  0  0  0  0  0  0  0  0
   36.8520   24.6520   41.1060 C   0  0  0  0  0  0  0  0  0  0  0  0
   37.8220   23.6580   40.9340 F   0  0  0  0  0  0  0  0  0  0  0  0
   36.2350   24.6010   42.3280 F   0  0  0  0  0  0  0  0  0  0  0  0
   35.9670   24.4570   40.0620 F   0  0  0  0  0  0  0  0  0  0  0  0
  1 26  1  0  0  0  0
  1  2  1  0  0  0  0
  2 22  1  0  0  0  0
  3  2  2  0  0  0  0
  3  7  1  0  0  0  0
  4  3  1  0  0  0  0
  5  6  1  0  0  0  0
  5  4  2  0  0  0  0
  6  1  2  0  0  0  0
  9 10  1  0  0  0  0
  9  8  1  0  0  0  0
 10  5  1  0  0  0  0
 11 15  1  0  0  0  0
 11 10  2  0  0  0  0
 12 11  1  0  0  0  0
 13 12  2  0  0  0  0
 13 14  1  0  0  0  0
 14  9  2  0  0  0  0
 16 12  1  0  0  0  0
 17 13  1  0  0  0  0
 18 14  1  0  0  0  0
 18 20  1  0  0  0  0
 18 19  1  0  0  0  0
 21 18  1  0  0  0  0
 22 25  1  0  0  0  0
 22 23  1  0  0  0  0
 22 24  1  0  0  0  0
 26 27  1  0  0  0  0
 27 29  1  0  0  0  0
 28 27  1  0  0  0  0
 30 27  1  0  0  0  0
M  END
>  <minimizedAffinity>
-5.81928778

$$$$

 OpenBabel03252504163D

 30 31  0  0  0  0  0  0  0  0999 V2000
   36.7110   26.9610   40.5430 C   0  0  0  0  0  0  0  0  0  0  0  0
   36.6280   27.8470   41.6010 C   0  0  0  0  0  0  0  0  0  0  0  0
   35.9690   29.0740   41.3580 C   0  0  0  0  0  0  0  0  0  0  0  0
   35.4590   29.3170   40.1230 N   0  0  0  0  0  0  0  0  0  0  0  0
   35.5690   28.4100   39.1220 C   0  0  0  0  0  0  0  0  0  0  0  0
   36.1920   27.2430   39.3360 N   0  0  0  0  0  0  0  0  0  0  0  0
   35.8860   29.7980   42.1750 H   0  0  0  0  0  0  0  0  0  0  0  0
   37.0920   29.5760   37.0340 F   0  0  0  0  0  0  0  0  0  0  0  0
   35.7770   29.2300   36.7930 C   0  0  0  0  0  0  0  0  0  0  0  0
   35.0270   28.6620   37.8000 C   0  0  0  0  0  0  0  0  0  0  0  0
   33.7100   28.3420   37.4750 C   0  0  0  0  0  0  0  0  0  0  0  0
   33.2060   28.5890   36.2060 C   0  0  0  0  0  0  0  0  0  0  0  0
   34.0250   29.1660   35.2380 C   0  0  0  0  0  0  0  0  0  0  0  0
   35.3390   29.5000   35.5150 C   0  0  0  0  0  0  0  0  0  0  0  0
   33.0710   27.8930   38.2250 H   0  0  0  0  0  0  0  0  0  0  0  0
   32.1990   28.3520   35.9320 H   0  0  0  0  0  0  0  0  0  0  0  0
   33.6120   29.3490   34.2560 H   0  0  0  0  0  0  0  0  0  0  0  0
   36.2250   30.1170   34.4900 C   0  0  0  0  0  0  0  0  0  0  0  0
   36.8740   31.2060   35.0380 F   0  0  0  0  0  0  0  0  0  0  0  0
   35.4540   30.4770   33.4040 F   0  0  0  0  0  0  0  0  0  0  0  0
   37.1120   29.1190   34.1180 F   0  0  0  0  0  0  0  0  0  0  0  0
   37.2050   27.5100   42.9030 C   0  0  0  0  0  0  0  0  0  0  0  0
   37.4030   28.6640   43.6400 F   0  0  0  0  0  0  0  0  0  0  0  0
   36.2760   26.7550   43.6000 F   0  0  0  0  0  0  0  0  0  0  0  0
   38.3810   26.8280   42.8600 F   0  0  0  0  0  0  0  0  0  0  0  0
   37.3480   25.7770   40.7760 O   0  0  0  0  0  0  0  0  0  0  0  0
   36.7570   24.5110   40.8910 C   0  0  0  0  0  0  0  0  0  0  0  0
   37.7390   23.5680   40.5690 F   0  0  0  0  0  0  0  0  0  0  0  0
   36.2410   24.3490   42.1490 F   0  0  0  0  0  0  0  0  0  0  0  0
   35.7980   24.3650   39.9060 F   0  0  0  0  0  0  0  0  0  0  0  0
  1 26  1  0  0  0  0
  1  2  1  0  0  0  0
  2 22  1  0  0  0  0
  3  2  2  0  0  0  0
  3  7  1  0  0  0  0
  4  3  1  0  0  0  0
  5  6  1  0  0  0  0
  5  4  2  0  0  0  0
  6  1  2  0  0  0  0
  9  8  1  0  0  0  0
  9 10  1  0  0  0  0
 10  5  1  0  0  0  0
 11 10  2  0  0  0  0
 11 15  1  0  0  0  0
 12 11  1  0  0  0  0
 13 14  1  0  0  0  0
 13 12  2  0  0  0  0
 14  9  2  0  0  0  0
 16 12  1  0  0  0  0
 17 13  1  0  0  0  0
 18 19  1  0  0  0  0
 18 14  1  0  0  0  0
 20 18  1  0  0  0  0
 21 18  1  0  0  0  0
 22 24  1  0  0  0  0
 22 23  1  0  0  0  0
 25 22  1  0  0  0  0
 26 27  1  0  0  0  0
 27 29  1  0  0  0  0
 28 27  1  0  0  0  0
 30 27  1  0  0  0  0
M  END
>  <minimizedAffinity>
-5.76866817

$$$$

 OpenBabel03252504163D

 30 31  0  0  0  0  0  0  0  0999 V2000
   38.9930   31.0950   39.5770 C   0  0  0  0  0  0  0  0  0  0  0  0
   39.7800   31.9570   40.3190 C   0  0  0  0  0  0  0  0  0  0  0  0
   39.9990   31.6170   41.6740 C   0  0  0  0  0  0  0  0  0  0  0  0
   39.4390   30.4830   42.1700 N   0  0  0  0  0  0  0  0  0  0  0  0
   38.6760   29.6750   41.3950 C   0  0  0  0  0  0  0  0  0  0  0  0
   38.4570   29.9830   40.1100 N   0  0  0  0  0  0  0  0  0  0  0  0
   40.6180   32.2780   42.2890 H   0  0  0  0  0  0  0  0  0  0  0  0
   39.4070   27.0850   40.4990 F   0  0  0  0  0  0  0  0  0  0  0  0
   38.4370   27.2090   41.4750 C   0  0  0  0  0  0  0  0  0  0  0  0
   38.0740   28.4630   41.9180 C   0  0  0  0  0  0  0  0  0  0  0  0
   37.0900   28.5010   42.9040 C   0  0  0  0  0  0  0  0  0  0  0  0
   36.5230   27.3330   43.3940 C   0  0  0  0  0  0  0  0  0  0  0  0
   36.9410   26.1000   42.8970 C   0  0  0  0  0  0  0  0  0  0  0  0
   37.9160   26.0140   41.9190 C   0  0  0  0  0  0  0  0  0  0  0  0
   36.7610   29.4560   43.2920 H   0  0  0  0  0  0  0  0  0  0  0  0
   35.7660   27.3360   44.1500 H   0  0  0  0  0  0  0  0  0  0  0  0
   36.4860   25.2030   43.2940 H   0  0  0  0  0  0  0  0  0  0  0  0
   38.3730   24.7030   41.3790 C   0  0  0  0  0  0  0  0  0  0  0  0
   38.1970   24.6840   40.0090 F   0  0  0  0  0  0  0  0  0  0  0  0
   37.6560   23.7010   41.9990 F   0  0  0  0  0  0  0  0  0  0  0  0
   39.7090   24.6030   41.7310 F   0  0  0  0  0  0  0  0  0  0  0  0
   40.3480   33.1600   39.7090 C   0  0  0  0  0  0  0  0  0  0  0  0
   39.3620   34.1190   39.5600 F   0  0  0  0  0  0  0  0  0  0  0  0
   41.2770   33.6880   40.5890 F   0  0  0  0  0  0  0  0  0  0  0  0
   40.9430   32.9730   38.5000 F   0  0  0  0  0  0  0  0  0  0  0  0
   38.7800   31.4230   38.2690 O   0  0  0  0  0  0  0  0  0  0  0  0
   37.5610   31.7830   37.6800 C   0  0  0  0  0  0  0  0  0  0  0  0
   36.9900   32.7720   38.4880 F   0  0  0  0  0  0  0  0  0  0  0  0
   37.7680   32.1920   36.3890 F   0  0  0  0  0  0  0  0  0  0  0  0
   36.6820   30.7180   37.7610 F   0  0  0  0  0  0  0  0  0  0  0  0
  1  6  2  0  0  0  0
  1  2  1  0  0  0  0
  2  3  2  0  0  0  0
  3  4  1  0  0  0  0
  3  7  1  0  0  0  0
  5 10  1  0  0  0  0
  5  4  2  0  0  0  0
  6  5  1  0  0  0  0
  8  9  1  0  0  0  0
  9 10  2  0  0  0  0
  9 14  1  0  0  0  0
 10 11  1  0  0  0  0
 11 15  1  0  0  0  0
 11 12  2  0  0  0  0
 12 16  1  0  0  0  0
 13 17  1  0  0  0  0
 13 12  1  0  0  0  0
 14 13  2  0  0  0  0
 18 21  1  0  0  0  0
 18 14  1  0  0  0  0
 18 20  1  0  0  0  0
 19 18  1  0  0  0  0
 22  2  1  0  0  0  0
 22 24  1  0  0  0  0
 23 22  1  0  0  0  0
 25 22  1  0  0  0  0
 26  1  1  0  0  0  0
 27 30  1  0  0  0  0
 27 26  1  0  0  0  0
 27 28  1  0  0  0  0
 29 27  1  0  0  0  0
M  END
>  <minimizedAffinity>
-5.66285658

$$$$

 OpenBabel03252504163D

 30 31  0  0  0  0  0  0  0  0999 V2000
   38.1470   29.3070   42.3360 C   0  0  0  0  0  0  0  0  0  0  0  0
   38.3490   27.9610   42.5770 C   0  0  0  0  0  0  0  0  0  0  0  0
   39.6850   27.5380   42.7620 C   0  0  0  0  0  0  0  0  0  0  0  0
   40.6850   28.4550   42.6960 N   0  0  0  0  0  0  0  0  0  0  0  0
   40.4270   29.7640   42.4570 C   0  0  0  0  0  0  0  0  0  0  0  0
   39.1670   30.1820   42.2780 N   0  0  0  0  0  0  0  0  0  0  0  0
   39.8800   26.4780   42.9560 H   0  0  0  0  0  0  0  0  0  0  0  0
   40.8100   31.4470   40.2070 F   0  0  0  0  0  0  0  0  0  0  0  0
   41.6660   31.5630   41.2850 C   0  0  0  0  0  0  0  0  0  0  0  0
   41.4890   30.7500   42.3840 C   0  0  0  0  0  0  0  0  0  0  0  0
   42.3940   30.9300   43.4290 C   0  0  0  0  0  0  0  0  0  0  0  0
   43.4050   31.8770   43.3450 C   0  0  0  0  0  0  0  0  0  0  0  0
   43.5210   32.6630   42.2010 C   0  0  0  0  0  0  0  0  0  0  0  0
   42.6450   32.5200   41.1390 C   0  0  0  0  0  0  0  0  0  0  0  0
   42.3070   30.3210   44.3200 H   0  0  0  0  0  0  0  0  0  0  0  0
   44.1110   32.0340   44.1330 H   0  0  0  0  0  0  0  0  0  0  0  0
   44.3150   33.3950   42.1570 H   0  0  0  0  0  0  0  0  0  0  0  0
   42.7580   33.3540   39.9100 C   0  0  0  0  0  0  0  0  0  0  0  0
   42.8390   32.5320   38.8030 F   0  0  0  0  0  0  0  0  0  0  0  0
   43.8700   34.1600   40.0290 F   0  0  0  0  0  0  0  0  0  0  0  0
   41.6160   34.1390   39.8890 F   0  0  0  0  0  0  0  0  0  0  0  0
   37.2170   27.0360   42.6340 C   0  0  0  0  0  0  0  0  0  0  0  0
   36.6020   26.9730   41.3960 F   0  0  0  0  0  0  0  0  0  0  0  0
   37.7120   25.7690   42.8900 F   0  0  0  0  0  0  0  0  0  0  0  0
   36.2680   27.3330   43.5630 F   0  0  0  0  0  0  0  0  0  0  0  0
   36.8580   29.7180   42.1570 O   0  0  0  0  0  0  0  0  0  0  0  0
   36.2720   30.1550   40.9610 C   0  0  0  0  0  0  0  0  0  0  0  0
   37.1730   29.8660   39.9320 F   0  0  0  0  0  0  0  0  0  0  0  0
   35.0490   29.5610   40.7950 F   0  0  0  0  0  0  0  0  0  0  0  0
   36.1900   31.5360   40.9720 F   0  0  0  0  0  0  0  0  0  0  0  0
  1  2  1  0  0  0  0
  2 22  1  0  0  0  0
  2  3  2  0  0  0  0
  3  7  1  0  0  0  0
  4  3  1  0  0  0  0
  5  4  2  0  0  0  0
  6  1  2  0  0  0  0
  6  5  1  0  0  0  0
  8  9  1  0  0  0  0
  9 10  1  0  0  0  0
 10  5  1  0  0  0  0
 10 11  2  0  0  0  0
 11 15  1  0  0  0  0
 12 11  1  0  0  0  0
 12 16  1  0  0  0  0
 13 12  2  0  0  0  0
 14  9  2  0  0  0  0
 14 13  1  0  0  0  0
 17 13  1  0  0  0  0
 18 20  1  0  0  0  0
 18 14  1  0  0  0  0
 19 18  1  0  0  0  0
 21 18  1  0  0  0  0
 22 24  1  0  0  0  0
 22 25  1  0  0  0  0
 23 22  1  0  0  0  0
 26  1  1  0  0  0  0
 27 30  1  0  0  0  0
 27 26  1  0  0  0  0
 28 27  1  0  0  0  0
 29 27  1  0  0  0  0
M  END
>  <minimizedAffinity>
-5.50440073

$$$$

 OpenBabel03252504163D

 30 31  0  0  0  0  0  0  0  0999 V2000
   39.1350   31.2060   40.0020 C   0  0  0  0  0  0  0  0  0  0  0  0
   37.8950   31.8150   40.0600 C   0  0  0  0  0  0  0  0  0  0  0  0
   36.9060   31.1790   40.8440 C   0  0  0  0  0  0  0  0  0  0  0  0
   37.2150   30.0230   41.4880 N   0  0  0  0  0  0  0  0  0  0  0  0
   38.4480   29.4700   41.3950 C   0  0  0  0  0  0  0  0  0  0  0  0
   39.3970   30.0610   40.6560 N   0  0  0  0  0  0  0  0  0  0  0  0
   35.9130   31.6350   40.9120 H   0  0  0  0  0  0  0  0  0  0  0  0
   37.1070   27.0210   40.8990 F   0  0  0  0  0  0  0  0  0  0  0  0
   38.1270   27.0520   41.8300 C   0  0  0  0  0  0  0  0  0  0  0  0
   38.7860   28.2360   42.0790 C   0  0  0  0  0  0  0  0  0  0  0  0
   39.8020   28.1820   43.0310 C   0  0  0  0  0  0  0  0  0  0  0  0
   40.1130   26.9940   43.6780 C   0  0  0  0  0  0  0  0  0  0  0  0
   39.4030   25.8350   43.3740 C   0  0  0  0  0  0  0  0  0  0  0  0
   38.3860   25.8410   42.4340 C   0  0  0  0  0  0  0  0  0  0  0  0
   40.3560   29.0800   43.2710 H   0  0  0  0  0  0  0  0  0  0  0  0
   40.8880   26.9260   44.4130 H   0  0  0  0  0  0  0  0  0  0  0  0
   39.6620   24.9210   43.8890 H   0  0  0  0  0  0  0  0  0  0  0  0
   37.6190   24.6100   42.0990 C   0  0  0  0  0  0  0  0  0  0  0  0
   38.2330   23.5150   42.6750 F   0  0  0  0  0  0  0  0  0  0  0  0
   37.5540   24.4950   40.7270 F   0  0  0  0  0  0  0  0  0  0  0  0
   36.3470   24.8180   42.6080 F   0  0  0  0  0  0  0  0  0  0  0  0
   37.6420   33.0610   39.3360 C   0  0  0  0  0  0  0  0  0  0  0  0
   36.5340   33.6950   39.8700 F   0  0  0  0  0  0  0  0  0  0  0  0
   38.7170   33.9070   39.5510 F   0  0  0  0  0  0  0  0  0  0  0  0
   37.4490   32.9270   37.9970 F   0  0  0  0  0  0  0  0  0  0  0  0
   40.0910   31.8190   39.2450 O   0  0  0  0  0  0  0  0  0  0  0  0
   40.5220   31.4420   37.9660 C   0  0  0  0  0  0  0  0  0  0  0  0
   40.2590   32.5170   37.1100 F   0  0  0  0  0  0  0  0  0  0  0  0
   41.8450   31.0900   38.0030 F   0  0  0  0  0  0  0  0  0  0  0  0
   39.7180   30.4200   37.4960 F   0  0  0  0  0  0  0  0  0  0  0  0
  1  2  2  0  0  0  0
  1  6  1  0  0  0  0
  2  3  1  0  0  0  0
  3  7  1  0  0  0  0
  3  4  2  0  0  0  0
  5  4  1  0  0  0  0
  5 10  1  0  0  0  0
  6  5  2  0  0  0  0
  8  9  1  0  0  0  0
  9 10  2  0  0  0  0
  9 14  1  0  0  0  0
 10 11  1  0  0  0  0
 11 15  1  0  0  0  0
 11 12  2  0  0  0  0
 12 16  1  0  0  0  0
 13 12  1  0  0  0  0
 13 17  1  0  0  0  0
 14 13  2  0  0  0  0
 18 14  1  0  0  0  0
 18 21  1  0  0  0  0
 18 19  1  0  0  0  0
 20 18  1  0  0  0  0
 22 24  1  0  0  0  0
 22 23  1  0  0  0  0
 22  2  1  0  0  0  0
 25 22  1  0  0  0  0
 26  1  1  0  0  0  0
 27 29  1  0  0  0  0
 27 26  1  0  0  0  0
 28 27  1  0  0  0  0
 30 27  1  0  0  0  0
M  END
>  <minimizedAffinity>
-5.49914122

$$$$

 OpenBabel03252504163D

 30 31  0  0  0  0  0  0  0  0999 V2000
   37.9650   28.7570   40.8150 C   0  0  0  0  0  0  0  0  0  0  0  0
   38.4290   29.9600   41.3130 C   0  0  0  0  0  0  0  0  0  0  0  0
   38.1990   31.1110   40.5260 C   0  0  0  0  0  0  0  0  0  0  0  0
   37.5450   30.9820   39.3420 N   0  0  0  0  0  0  0  0  0  0  0  0
   37.1120   29.7760   38.9020 C   0  0  0  0  0  0  0  0  0  0  0  0
   37.3230   28.6750   39.6360 N   0  0  0  0  0  0  0  0  0  0  0  0
   38.5530   32.0790   40.8920 H   0  0  0  0  0  0  0  0  0  0  0  0
   34.4330   28.8630   38.7230 F   0  0  0  0  0  0  0  0  0  0  0  0
   35.1110   29.1840   37.5630 C   0  0  0  0  0  0  0  0  0  0  0  0
   36.4140   29.6290   37.6380 C   0  0  0  0  0  0  0  0  0  0  0  0
   37.0260   29.9340   36.4250 C   0  0  0  0  0  0  0  0  0  0  0  0
   36.3460   29.7890   35.2240 C   0  0  0  0  0  0  0  0  0  0  0  0
   35.0300   29.3330   35.2260 C   0  0  0  0  0  0  0  0  0  0  0  0
   34.3800   29.0200   36.4080 C   0  0  0  0  0  0  0  0  0  0  0  0
   38.0490   30.2880   36.4180 H   0  0  0  0  0  0  0  0  0  0  0  0
   36.7940   30.0160   34.2790 H   0  0  0  0  0  0  0  0  0  0  0  0
   34.5180   29.2280   34.2800 H   0  0  0  0  0  0  0  0  0  0  0  0
   32.9740   28.5310   36.4250 C   0  0  0  0  0  0  0  0  0  0  0  0
   32.9470   27.2210   36.8610 F   0  0  0  0  0  0  0  0  0  0  0  0
   32.4510   28.6570   35.1550 F   0  0  0  0  0  0  0  0  0  0  0  0
   32.2980   29.3790   37.2890 F   0  0  0  0  0  0  0  0  0  0  0  0
   39.1240   30.0150   42.6000 C   0  0  0  0  0  0  0  0  0  0  0  0
   40.2440   29.2040   42.5610 F   0  0  0  0  0  0  0  0  0  0  0  0
   39.5830   31.3080   42.7840 F   0  0  0  0  0  0  0  0  0  0  0  0
   38.3790   29.6550   43.6800 F   0  0  0  0  0  0  0  0  0  0  0  0
   38.1870   27.6450   41.5740 O   0  0  0  0  0  0  0  0  0  0  0  0
   37.2400   26.9350   42.3250 C   0  0  0  0  0  0  0  0  0  0  0  0
   36.1590   27.7960   42.5430 F   0  0  0  0  0  0  0  0  0  0  0  0
   36.8930   25.7830   41.6710 F   0  0  0  0  0  0  0  0  0  0  0  0
   37.7500   26.6910   43.5870 F   0  0  0  0  0  0  0  0  0  0  0  0
  1  2  1  0  0  0  0
  1 26  1  0  0  0  0
  2 22  1  0  0  0  0
  3  7  1  0  0  0  0
  3  2  2  0  0  0  0
  4  3  1  0  0  0  0
  5  4  2  0  0  0  0
  5  6  1  0  0  0  0
  6  1  2  0  0  0  0
  9 10  1  0  0  0  0
  9  8  1  0  0  0  0
 10  5  1  0  0  0  0
 11 10  2  0  0  0  0
 12 13  2  0  0  0  0
 12 11  1  0  0  0  0
 13 14  1  0  0  0  0
 14 18  1  0  0  0  0
 14  9  2  0  0  0  0
 15 11  1  0  0  0  0
 16 12  1  0  0  0  0
 17 13  1  0  0  0  0
 18 19  1  0  0  0  0
 18 21  1  0  0  0  0
 20 18  1  0  0  0  0
 22 24  1  0  0  0  0
 22 25  1  0  0  0  0
 23 22  1  0  0  0  0
 26 27  1  0  0  0  0
 27 28  1  0  0  0  0
 27 30  1  0  0  0  0
 29 27  1  0  0  0  0
M  END
>  <minimizedAffinity>
-5.46689081

$$$$

 OpenBabel03252504163D

 30 31  0  0  0  0  0  0  0  0999 V2000
   38.9750   30.9750   40.1930 C   0  0  0  0  0  0  0  0  0  0  0  0
   38.0090   31.9520   40.0470 C   0  0  0  0  0  0  0  0  0  0  0  0
   36.6940   31.5150   39.7660 C   0  0  0  0  0  0  0  0  0  0  0  0
   36.4490   30.1840   39.6570 N   0  0  0  0  0  0  0  0  0  0  0  0
   37.4370   29.2690   39.8110 C   0  0  0  0  0  0  0  0  0  0  0  0
   38.6880   29.6660   40.0760 N   0  0  0  0  0  0  0  0  0  0  0  0
   35.9040   32.2640   39.6450 H   0  0  0  0  0  0  0  0  0  0  0  0
   37.6980   27.4790   41.9950 F   0  0  0  0  0  0  0  0  0  0  0  0
   37.3140   26.9840   40.7630 C   0  0  0  0  0  0  0  0  0  0  0  0
   37.1830   27.8450   39.6950 C   0  0  0  0  0  0  0  0  0  0  0  0
   36.7910   27.2670   38.4890 C   0  0  0  0  0  0  0  0  0  0  0  0
   36.5530   25.9030   38.3940 C   0  0  0  0  0  0  0  0  0  0  0  0
   36.7050   25.0950   39.5180 C   0  0  0  0  0  0  0  0  0  0  0  0
   37.0920   25.6250   40.7370 C   0  0  0  0  0  0  0  0  0  0  0  0
   36.6720   27.8910   37.6120 H   0  0  0  0  0  0  0  0  0  0  0  0
   36.2510   25.4360   37.4790 H   0  0  0  0  0  0  0  0  0  0  0  0
   36.5130   24.0350   39.4210 H   0  0  0  0  0  0  0  0  0  0  0  0
   37.2580   24.7720   41.9460 C   0  0  0  0  0  0  0  0  0  0  0  0
   36.2990   25.1080   42.8810 F   0  0  0  0  0  0  0  0  0  0  0  0
   38.5340   24.9540   42.4370 F   0  0  0  0  0  0  0  0  0  0  0  0
   37.1150   23.4680   41.5010 F   0  0  0  0  0  0  0  0  0  0  0  0
   38.3540   33.3680   40.1810 C   0  0  0  0  0  0  0  0  0  0  0  0
   39.3870   33.6810   39.3150 F   0  0  0  0  0  0  0  0  0  0  0  0
   37.2620   34.1150   39.7740 F   0  0  0  0  0  0  0  0  0  0  0  0
   38.7160   33.7630   41.4310 F   0  0  0  0  0  0  0  0  0  0  0  0
   40.2450   31.3950   40.4630 O   0  0  0  0  0  0  0  0  0  0  0  0
   40.9090   31.3300   41.6950 C   0  0  0  0  0  0  0  0  0  0  0  0
   41.7730   32.4290   41.7560 F   0  0  0  0  0  0  0  0  0  0  0  0
   39.9980   31.3010   42.7170 F   0  0  0  0  0  0  0  0  0  0  0  0
   41.7460   30.2300   41.7050 F   0  0  0  0  0  0  0  0  0  0  0  0
  1 26  1  0  0  0  0
  2 22  1  0  0  0  0
  2  1  2  0  0  0  0
  3  2  1  0  0  0  0
  4  3  2  0  0  0  0
  4  5  1  0  0  0  0
  5  6  2  0  0  0  0
  6  1  1  0  0  0  0
  7  3  1  0  0  0  0
  9  8  1  0  0  0  0
 10  5  1  0  0  0  0
 10  9  2  0  0  0  0
 11 10  1  0  0  0  0
 12 11  2  0  0  0  0
 12 13  1  0  0  0  0
 13 14  2  0  0  0  0
 14  9  1  0  0  0  0
 14 18  1  0  0  0  0
 15 11  1  0  0  0  0
 16 12  1  0  0  0  0
 17 13  1  0  0  0  0
 18 20  1  0  0  0  0
 18 19  1  0  0  0  0
 21 18  1  0  0  0  0
 22 25  1  0  0  0  0
 23 22  1  0  0  0  0
 24 22  1  0  0  0  0
 26 27  1  0  0  0  0
 27 30  1  0  0  0  0
 27 28  1  0  0  0  0
 27 29  1  0  0  0  0
M  END
>  <minimizedAffinity>
-5.41866064

$$$$

 OpenBabel03252504163D

 30 31  0  0  0  0  0  0  0  0999 V2000
   38.9430   30.9690   40.6480 C   0  0  0  0  0  0  0  0  0  0  0  0
   37.9230   31.8830   40.4680 C   0  0  0  0  0  0  0  0  0  0  0  0
   36.6010   31.4020   40.6020 C   0  0  0  0  0  0  0  0  0  0  0  0
   36.4010   30.0900   40.8960 N   0  0  0  0  0  0  0  0  0  0  0  0
   37.4410   29.2380   41.0630 C   0  0  0  0  0  0  0  0  0  0  0  0
   38.7010   29.6780   40.9380 N   0  0  0  0  0  0  0  0  0  0  0  0
   35.7690   32.1000   40.4660 H   0  0  0  0  0  0  0  0  0  0  0  0
   37.0590   27.2570   39.0700 F   0  0  0  0  0  0  0  0  0  0  0  0
   37.0520   26.8820   40.3990 C   0  0  0  0  0  0  0  0  0  0  0  0
   37.2370   27.8360   41.3760 C   0  0  0  0  0  0  0  0  0  0  0  0
   37.2170   27.3760   42.6910 C   0  0  0  0  0  0  0  0  0  0  0  0
   37.0210   26.0310   42.9760 C   0  0  0  0  0  0  0  0  0  0  0  0
   36.8400   25.1240   41.9350 C   0  0  0  0  0  0  0  0  0  0  0  0
   36.8530   25.5360   40.6130 C   0  0  0  0  0  0  0  0  0  0  0  0
   37.3570   28.0770   43.5040 H   0  0  0  0  0  0  0  0  0  0  0  0
   37.0010   25.6540   43.9770 H   0  0  0  0  0  0  0  0  0  0  0  0
   36.6890   24.0820   42.1790 H   0  0  0  0  0  0  0  0  0  0  0  0
   36.6620   24.5770   39.4900 C   0  0  0  0  0  0  0  0  0  0  0  0
   37.7850   24.5800   38.6860 F   0  0  0  0  0  0  0  0  0  0  0  0
   35.5320   24.9430   38.7900 F   0  0  0  0  0  0  0  0  0  0  0  0
   36.4560   23.3440   40.0880 F   0  0  0  0  0  0  0  0  0  0  0  0
   38.2210   33.2810   40.1530 C   0  0  0  0  0  0  0  0  0  0  0  0
   37.0600   33.9340   39.7800 F   0  0  0  0  0  0  0  0  0  0  0  0
   38.6620   33.8960   41.3120 F   0  0  0  0  0  0  0  0  0  0  0  0
   39.1470   33.4720   39.1740 F   0  0  0  0  0  0  0  0  0  0  0  0
   40.2210   31.4320   40.5180 O   0  0  0  0  0  0  0  0  0  0  0  0
   41.1510   31.6350   41.5460 C   0  0  0  0  0  0  0  0  0  0  0  0
   42.1200   30.6330   41.4270 F   0  0  0  0  0  0  0  0  0  0  0  0
   41.6680   32.9010   41.4660 F   0  0  0  0  0  0  0  0  0  0  0  0
   40.5460   31.3900   42.7640 F   0  0  0  0  0  0  0  0  0  0  0  0
  1  6  1  0  0  0  0
  2  3  1  0  0  0  0
  2  1  2  0  0  0  0
  3  4  2  0  0  0  0
  4  5  1  0  0  0  0
  5 10  1  0  0  0  0
  6  5  2  0  0  0  0
  7  3  1  0  0  0  0
  8  9  1  0  0  0  0
  9 14  2  0  0  0  0
  9 10  1  0  0  0  0
 10 11  2  0  0  0  0
 11 12  1  0  0  0  0
 11 15  1  0  0  0  0
 12 16  1  0  0  0  0
 13 17  1  0  0  0  0
 13 12  2  0  0  0  0
 14 13  1  0  0  0  0
 18 21  1  0  0  0  0
 18 14  1  0  0  0  0
 19 18  1  0  0  0  0
 20 18  1  0  0  0  0
 22  2  1  0  0  0  0
 22 24  1  0  0  0  0
 23 22  1  0  0  0  0
 25 22  1  0  0  0  0
 26  1  1  0  0  0  0
 26 27  1  0  0  0  0
 27 30  1  0  0  0  0
 28 27  1  0  0  0  0
 29 27  1  0  0  0  0
M  END
>  <minimizedAffinity>
-5.41035318

$$$$

 OpenBabel03252504163D

 30 31  0  0  0  0  0  0  0  0999 V2000
   37.8700   26.9310   41.6240 C   0  0  0  0  0  0  0  0  0  0  0  0
   37.1130   26.1160   40.8040 C   0  0  0  0  0  0  0  0  0  0  0  0
   36.5530   26.7110   39.6500 C   0  0  0  0  0  0  0  0  0  0  0  0
   36.7830   28.0280   39.4080 N   0  0  0  0  0  0  0  0  0  0  0  0
   37.5350   28.7800   40.2480 C   0  0  0  0  0  0  0  0  0  0  0  0
   38.0720   28.2310   41.3460 N   0  0  0  0  0  0  0  0  0  0  0  0
   35.9480   26.0940   38.9790 H   0  0  0  0  0  0  0  0  0  0  0  0
   40.0350   29.7570   39.3330 F   0  0  0  0  0  0  0  0  0  0  0  0
   39.0050   30.6510   39.5520 C   0  0  0  0  0  0  0  0  0  0  0  0
   37.7850   30.1870   39.9960 C   0  0  0  0  0  0  0  0  0  0  0  0
   36.7990   31.1510   40.1910 C   0  0  0  0  0  0  0  0  0  0  0  0
   37.0530   32.4940   39.9470 C   0  0  0  0  0  0  0  0  0  0  0  0
   38.3110   32.8880   39.4980 C   0  0  0  0  0  0  0  0  0  0  0  0
   39.3210   31.9650   39.2890 C   0  0  0  0  0  0  0  0  0  0  0  0
   35.8190   30.8490   40.5400 H   0  0  0  0  0  0  0  0  0  0  0  0
   36.3120   33.2530   40.0890 H   0  0  0  0  0  0  0  0  0  0  0  0
   38.4870   33.9390   39.3130 H   0  0  0  0  0  0  0  0  0  0  0  0
   40.6710   32.3730   38.8100 C   0  0  0  0  0  0  0  0  0  0  0  0
   40.9010   31.8260   37.5640 F   0  0  0  0  0  0  0  0  0  0  0  0
   41.6070   31.9540   39.7320 F   0  0  0  0  0  0  0  0  0  0  0  0
   40.6460   33.7580   38.7720 F   0  0  0  0  0  0  0  0  0  0  0  0
   36.9120   24.7050   41.1350 C   0  0  0  0  0  0  0  0  0  0  0  0
   35.9740   24.1530   40.2810 F   0  0  0  0  0  0  0  0  0  0  0  0
   38.1010   24.0360   40.8960 F   0  0  0  0  0  0  0  0  0  0  0  0
   36.5180   24.4580   42.4140 F   0  0  0  0  0  0  0  0  0  0  0  0
   38.4110   26.3580   42.7390 O   0  0  0  0  0  0  0  0  0  0  0  0
   39.7690   26.1300   42.9940 C   0  0  0  0  0  0  0  0  0  0  0  0
   40.3870   25.9020   41.7600 F   0  0  0  0  0  0  0  0  0  0  0  0
   40.3010   27.1900   43.6790 F   0  0  0  0  0  0  0  0  0  0  0  0
   39.9110   24.9370   43.6780 F   0  0  0  0  0  0  0  0  0  0  0  0
  1 26  1  0  0  0  0
  2 22  1  0  0  0  0
  2  1  2  0  0  0  0
  3  2  1  0  0  0  0
  4  3  2  0  0  0  0
  4  5  1  0  0  0  0
  5  6  2  0  0  0  0
  6  1  1  0  0  0  0
  7  3  1  0  0  0  0
  8  9  1  0  0  0  0
  9 10  1  0  0  0  0
 10 11  2  0  0  0  0
 10  5  1  0  0  0  0
 11 15  1  0  0  0  0
 12 16  1  0  0  0  0
 12 11  1  0  0  0  0
 13 12  2  0  0  0  0
 14 13  1  0  0  0  0
 14  9  2  0  0  0  0
 17 13  1  0  0  0  0
 18 14  1  0  0  0  0
 18 20  1  0  0  0  0
 19 18  1  0  0  0  0
 21 18  1  0  0  0  0
 22 25  1  0  0  0  0
 23 22  1  0  0  0  0
 24 22  1  0  0  0  0
 26 27  1  0  0  0  0
 27 30  1  0  0  0  0
 27 29  1  0  0  0  0
 28 27  1  0  0  0  0
M  END
>  <minimizedAffinity>
-5.39618111

$$$$
