
 OpenBabel03252502013D

 29 31  0  0  0  0  0  0  0  0999 V2000
   45.8140   33.8330   45.4090 C   0  0  0  0  0  0  0  0  0  0  0  0
   44.8650   34.7880   45.5540 N   0  0  0  0  0  0  0  0  0  0  0  0
   44.5710   35.7260   44.6490 C   0  0  0  0  0  0  0  0  0  0  0  0
   45.2440   35.7690   43.4810 N   0  0  0  0  0  0  0  0  0  0  0  0
   46.2110   34.8760   43.2130 C   0  0  0  0  0  0  0  0  0  0  0  0
   46.8890   34.9330   42.0160 C   0  0  0  0  0  0  0  0  0  0  0  0
   47.8770   34.0290   41.7300 C   0  0  0  0  0  0  0  0  0  0  0  0
   48.1660   33.0680   42.6800 C   0  0  0  0  0  0  0  0  0  0  0  0
   47.4620   33.0530   43.8580 C   0  0  0  0  0  0  0  0  0  0  0  0
   46.4590   33.9390   44.1920 C   0  0  0  0  0  0  0  0  0  0  0  0
   43.7990   36.4620   44.8270 H   0  0  0  0  0  0  0  0  0  0  0  0
   46.6510   35.6910   41.2810 H   0  0  0  0  0  0  0  0  0  0  0  0
   48.4590   33.9950   40.8220 H   0  0  0  0  0  0  0  0  0  0  0  0
   48.9380   32.3310   42.5030 H   0  0  0  0  0  0  0  0  0  0  0  0
   47.7230   32.2740   44.5830 H   0  0  0  0  0  0  0  0  0  0  0  0
   47.6130   32.4330   48.1730 C   0  0  0  0  0  0  0  0  0  0  0  0
   47.0250   31.1970   48.4480 C   0  0  0  0  0  0  0  0  0  0  0  0
   45.9710   30.8280   47.6580 C   0  0  0  0  0  0  0  0  0  0  0  0
   45.5710   31.6490   46.6890 N   0  0  0  0  0  0  0  0  0  0  0  0
   46.1160   32.8180   46.4170 C   0  0  0  0  0  0  0  0  0  0  0  0
   47.1520   33.1890   47.1900 N   0  0  0  0  0  0  0  0  0  0  0  0
   48.4630   32.7290   48.8110 H   0  0  0  0  0  0  0  0  0  0  0  0
   45.3070   29.5520   47.8870 C   0  0  0  0  0  0  0  0  0  0  0  0
   44.7640   29.5200   49.1740 F   0  0  0  0  0  0  0  0  0  0  0  0
   44.2900   29.3890   47.0010 F   0  0  0  0  0  0  0  0  0  0  0  0
   46.1600   28.4670   47.7970 F   0  0  0  0  0  0  0  0  0  0  0  0
   47.5440   30.4140   49.5090 N   0  0  0  0  0  0  0  0  0  0  0  0
   48.4520   29.8860   49.5030 H   0  0  0  0  0  0  0  0  0  0  0  0
   46.9660   30.3670   50.3630 H   0  0  0  0  0  0  0  0  0  0  0  0
  1  2  1  0  0  0  0
  1 20  1  0  0  0  0
  3 11  1  0  0  0  0
  3  2  2  0  0  0  0
  4  3  1  0  0  0  0
  5  4  2  0  0  0  0
  5 10  1  0  0  0  0
  6  5  1  0  0  0  0
  7  6  2  0  0  0  0
  7  8  1  0  0  0  0
  8  9  2  0  0  0  0
  9 10  1  0  0  0  0
  9 15  1  0  0  0  0
 10  1  2  0  0  0  0
 12  6  1  0  0  0  0
 13  7  1  0  0  0  0
 14  8  1  0  0  0  0
 16 17  1  0  0  0  0
 16 22  1  0  0  0  0
 17 27  1  0  0  0  0
 18 23  1  0  0  0  0
 18 17  2  0  0  0  0
 19 18  1  0  0  0  0
 20 19  2  0  0  0  0
 20 21  1  0  0  0  0
 21 16  2  0  0  0  0
 23 24  1  0  0  0  0
 25 23  1  0  0  0  0
 26 23  1  0  0  0  0
 27 29  1  0  0  0  0
 28 27  1  0  0  0  0
M  END
>  <minimizedAffinity>
-6.47304249

>  <minimizedRMSD>
0.510414183

$$$$
