REMARK  Name = 
REMARK  4 active torsions:
REMARK  status: ('A' for Active; 'I' for Inactive)
REMARK    1  A    between atoms: C_1  and  C_10
REMARK    2  A    between atoms: C_2  and  C_7
REMARK    3  A    between atoms: C_10  and  C_14
REMARK    4  A    between atoms: C_18  and  C_29
REMARK                            x       y       z     vdW  Elec       q    Type
REMARK                         _______ _______ _______ _____ _____    ______ ____
ROOT
ATOM      1  C   UNL     1      47.534  32.844  43.911  0.00  0.00    +0.000 A 
ATOM      2  C   UNL     1      48.374  33.388  43.017  0.00  0.00    +0.000 A 
ATOM      3  C   UNL     1      49.233  32.496  42.416  0.00  0.00    +0.000 A 
ATOM      4  N   UNL     1      49.162  31.139  42.781  0.00  0.00    +0.000 NA
ATOM      5  C   UNL     1      48.312  30.680  43.670  0.00  0.00    +0.000 A 
ATOM      6  N   UNL     1      47.437  31.541  44.289  0.00  0.00    +0.000 NA
ATOM      7  H   UNL     1      49.978  32.727  41.675  0.00  0.00    +0.000 HD
ATOM      8  H   UNL     1      48.372  29.610  43.851  0.00  0.00    +0.000 HD
ENDROOT
BRANCH   2   9
ATOM      9  C   UNL     1      48.522  34.774  42.735  0.00  0.00    +0.000 C 
ATOM     10  C   UNL     1      49.522  35.397  42.057  0.00  0.00    +0.000 C 
ATOM     11  C   UNL     1      48.274  35.225  41.231  0.00  0.00    +0.000 C 
ATOM     12  H   UNL     1      48.059  35.432  43.492  0.00  0.00    +0.000 HD
ATOM     13  H   UNL     1      49.841  36.464  42.087  0.00  0.00    +0.000 HD
ATOM     14  H   UNL     1      50.425  34.796  41.727  0.00  0.00    +0.000 HD
ATOM     15  H   UNL     1      48.280  34.383  40.541  0.00  0.00    +0.000 HD
ATOM     16  H   UNL     1      47.557  36.052  41.130  0.00  0.00    +0.000 HD
ENDBRANCH   2   9
BRANCH   1  17
ATOM     17  C   UNL     1      46.452  33.534  44.626  0.00  0.00    +0.000 C 
ATOM     18  O   UNL     1      45.886  33.898  45.624  0.00  0.00    +0.000 OA
BRANCH  17  21
ATOM     19 CL   UNL     1      44.680  31.665  42.930  0.00  0.00    +0.000 Cl
ATOM     20  C   UNL     1      44.647  33.414  42.755  0.00  0.00    +0.000 A 
ATOM     21  C   UNL     1      45.515  34.121  43.616  0.00  0.00    +0.000 A 
ATOM     22  C   UNL     1      45.417  35.488  43.408  0.00  0.00    +0.000 A 
ATOM     23  C   UNL     1      44.653  36.170  42.544  0.00  0.00    +0.000 A 
ATOM     24  C   UNL     1      43.841  35.414  41.744  0.00  0.00    +0.000 A 
ATOM     25  C   UNL     1      43.828  34.068  41.837  0.00  0.00    +0.000 A 
ATOM     26  H   UNL     1      46.010  36.193  44.030  0.00  0.00    +0.000 HD
ATOM     27  H   UNL     1      44.609  37.234  42.413  0.00  0.00    +0.000 HD
ATOM     28  H   UNL     1      43.162  35.793  40.995  0.00  0.00    +0.000 HD
BRANCH  25  29
ATOM     29  C   UNL     1      42.981  33.121  41.017  0.00  0.00    +0.000 C 
ATOM     30  F   UNL     1      41.962  32.649  41.788  0.00  0.00    +0.000 F 
ATOM     31  F   UNL     1      43.771  32.012  40.687  0.00  0.00    +0.000 F 
ATOM     32  F   UNL     1      42.583  33.689  39.838  0.00  0.00    +0.000 F 
ENDBRANCH  25  29
ENDBRANCH  17  21
ENDBRANCH   1  17
TORSDOF 4
