
 OpenBabel03252505333D

 25 26  0  0  0  0  0  0  0  0999 V2000
   46.6040   34.7930   42.0940 C   0  0  0  0  0  0  0  0  0  0  0  0
   47.9280   35.2110   42.0500 C   0  0  0  0  0  0  0  0  0  0  0  0
   48.7170   35.0360   40.9060 C   0  0  0  0  0  0  0  0  0  0  0  0
   48.1730   34.4340   39.7930 C   0  0  0  0  0  0  0  0  0  0  0  0
   46.8690   34.0270   39.8520 C   0  0  0  0  0  0  0  0  0  0  0  0
   46.0780   34.1960   40.9820 C   0  0  0  0  0  0  0  0  0  0  0  0
   48.3710   35.6840   42.9090 H   0  0  0  0  0  0  0  0  0  0  0  0
   49.7450   35.3810   40.9230 H   0  0  0  0  0  0  0  0  0  0  0  0
   48.7880   34.3010   38.9080 H   0  0  0  0  0  0  0  0  0  0  0  0
   46.3860   33.5480   39.0110 H   0  0  0  0  0  0  0  0  0  0  0  0
   44.4080   36.2170   44.7940 C   0  0  0  0  0  0  0  0  0  0  0  0
   45.0580   36.1220   43.5370 C   0  0  0  0  0  0  0  0  0  0  0  0
   45.8790   35.0200   43.3210 C   0  0  0  0  0  0  0  0  0  0  0  0
   46.0110   34.1060   44.3120 N   0  0  0  0  0  0  0  0  0  0  0  0
   45.3690   34.2380   45.5000 C   0  0  0  0  0  0  0  0  0  0  0  0
   44.5700   35.2920   45.7360 N   0  0  0  0  0  0  0  0  0  0  0  0
   45.5340   33.2820   46.5340 N   0  0  0  0  0  0  0  0  0  0  0  0
   43.7810   37.0640   44.9490 H   0  0  0  0  0  0  0  0  0  0  0  0
   44.9590   36.8460   42.7410 H   0  0  0  0  0  0  0  0  0  0  0  0
   45.2470   32.2940   46.5690 H   0  0  0  0  0  0  0  0  0  0  0  0
   46.0260   33.6670   47.3800 H   0  0  0  0  0  0  0  0  0  0  0  0
   44.6690   33.7490   41.0260 C   0  0  0  0  0  0  0  0  0  0  0  0
   44.4580   32.9050   39.9400 F   0  0  0  0  0  0  0  0  0  0  0  0
   43.8450   34.8690   40.9320 F   0  0  0  0  0  0  0  0  0  0  0  0
   44.3220   33.0950   42.1740 F   0  0  0  0  0  0  0  0  0  0  0  0
  1 13  1  0  0  0  0
  2  1  1  0  0  0  0
  2  7  1  0  0  0  0
  3  8  1  0  0  0  0
  3  2  2  0  0  0  0
  4  5  2  0  0  0  0
  4  3  1  0  0  0  0
  5  6  1  0  0  0  0
  6 22  1  0  0  0  0
  6  1  2  0  0  0  0
  9  4  1  0  0  0  0
 10  5  1  0  0  0  0
 11 18  1  0  0  0  0
 11 16  1  0  0  0  0
 12 11  2  0  0  0  0
 13 12  1  0  0  0  0
 13 14  2  0  0  0  0
 14 15  1  0  0  0  0
 15 16  2  0  0  0  0
 15 17  1  0  0  0  0
 17 20  1  0  0  0  0
 17 21  1  0  0  0  0
 19 12  1  0  0  0  0
 22 25  1  0  0  0  0
 23 22  1  0  0  0  0
 24 22  1  0  0  0  0
M  END
>  <minimizedAffinity>
-5.77269411

>  <minimizedRMSD>
0.329402894

$$$$
