
 OpenBabel03252505413D

 31 33  0  0  1  0  0  0  0  0999 V2000
   48.1190   33.8740   42.0220 C   0  0  1  0  0  0  0  0  0  0  0  0
   48.3020   35.4110   41.8580 C   0  0  0  0  0  0  0  0  0  0  0  0
   46.9570   34.7330   41.9200 C   0  0  2  0  0  0  0  0  0  0  0  0
   48.4900   33.5200   43.0150 H   0  0  0  0  0  0  0  0  0  0  0  0
   48.6500   35.7700   40.8740 H   0  0  0  0  0  0  0  0  0  0  0  0
   48.7010   35.9780   42.6980 H   0  0  0  0  0  0  0  0  0  0  0  0
   46.3370   34.8670   41.0320 H   0  0  0  0  0  0  0  0  0  0  0  0
   48.6350   33.0970   40.8660 C   0  0  0  0  0  0  0  0  0  0  0  0
   47.8040   32.9310   39.7280 C   0  0  0  0  0  0  0  0  0  0  0  0
   48.2920   32.2080   38.6460 C   0  0  0  0  0  0  0  0  0  0  0  0
   49.5530   31.6960   38.7390 N   0  0  0  0  0  0  0  0  0  0  0  0
   50.3170   31.8750   39.8420 C   0  0  0  0  0  0  0  0  0  0  0  0
   49.8350   32.5770   40.8860 N   0  0  0  0  0  0  0  0  0  0  0  0
   46.8060   33.3400   39.6590 H   0  0  0  0  0  0  0  0  0  0  0  0
   47.7030   32.0490   37.7510 H   0  0  0  0  0  0  0  0  0  0  0  0
   51.6650   31.2360   39.7350 C   0  0  0  0  0  0  0  0  0  0  0  0
   52.4310   31.4800   40.8520 F   0  0  0  0  0  0  0  0  0  0  0  0
   52.3540   31.7900   38.6380 F   0  0  0  0  0  0  0  0  0  0  0  0
   51.5150   29.8950   39.4510 F   0  0  0  0  0  0  0  0  0  0  0  0
   46.1630   34.8550   43.1920 C   0  0  0  0  0  0  0  0  0  0  0  0
   45.2530   35.8710   43.3910 C   0  0  0  0  0  0  0  0  0  0  0  0
   44.5100   36.0100   44.5300 C   0  0  0  0  0  0  0  0  0  0  0  0
   44.6890   35.0900   45.5090 N   0  0  0  0  0  0  0  0  0  0  0  0
   45.5790   34.0830   45.3310 C   0  0  0  0  0  0  0  0  0  0  0  0
   46.3050   33.9630   44.1970 N   0  0  0  0  0  0  0  0  0  0  0  0
   45.1150   36.6040   42.6010 H   0  0  0  0  0  0  0  0  0  0  0  0
   43.7970   36.8060   44.6880 H   0  0  0  0  0  0  0  0  0  0  0  0
   45.8570   33.0150   46.3410 C   0  0  0  0  0  0  0  0  0  0  0  0
   45.6680   31.7570   45.8380 F   0  0  0  0  0  0  0  0  0  0  0  0
   44.9820   33.1380   47.4260 F   0  0  0  0  0  0  0  0  0  0  0  0
   47.1210   33.1960   46.8730 F   0  0  0  0  0  0  0  0  0  0  0  0
  1  4  1  1  0  0  0
  2  3  1  0  0  0  0
  2  1  1  0  0  0  0
  2  6  1  0  0  0  0
  3  7  1  6  0  0  0
  3  1  1  0  0  0  0
  3 20  1  0  0  0  0
  5  2  1  0  0  0  0
  8 13  1  0  0  0  0
  8  1  1  0  0  0  0
  9  8  2  0  0  0  0
 10 11  2  0  0  0  0
 10  9  1  0  0  0  0
 11 12  1  0  0  0  0
 12 13  2  0  0  0  0
 14  9  1  0  0  0  0
 15 10  1  0  0  0  0
 16 12  1  0  0  0  0
 16 17  1  0  0  0  0
 18 16  1  0  0  0  0
 19 16  1  0  0  0  0
 20 21  2  0  0  0  0
 20 25  1  0  0  0  0
 21 22  1  0  0  0  0
 22 27  1  0  0  0  0
 22 23  2  0  0  0  0
 24 23  1  0  0  0  0
 24 28  1  0  0  0  0
 25 24  2  0  0  0  0
 26 21  1  0  0  0  0
 28 31  1  0  0  0  0
 28 30  1  0  0  0  0
 29 28  1  0  0  0  0
M  END
>  <minimizedAffinity>
-5.78035021

>  <minimizedRMSD>
6.89671135

$$$$
