REMARK  Name = 
REMARK  3 active torsions:
REMARK  status: ('A' for Active; 'I' for Inactive)
REMARK    1  A    between atoms: C_1  and  C_7
REMARK    2  A    between atoms: C_3  and  C_16
REMARK    3  A    between atoms: C_5  and  C_11
REMARK                            x       y       z     vdW  Elec       q    Type
REMARK                         _______ _______ _______ _____ _____    ______ ____
ROOT
ATOM      1  C   UNL     1      47.835  34.786  42.417  0.00  0.00    +0.000 A 
ATOM      2  C   UNL     1      48.112  33.566  43.063  0.00  0.00    +0.000 A 
ATOM      3  C   UNL     1      47.180  33.108  44.014  0.00  0.00    +0.000 A 
ATOM      4  N   UNL     1      46.076  33.869  44.248  0.00  0.00    +0.000 NA
ATOM      5  C   UNL     1      45.853  35.023  43.612  0.00  0.00    +0.000 A 
ATOM      6  N   UNL     1      46.725  35.479  42.703  0.00  0.00    +0.000 NA
ATOM      7  H   UNL     1      49.000  32.979  42.856  0.00  0.00    +0.000 HD
ENDROOT
BRANCH   1   8
ATOM      8  C   UNL     1      48.830  35.258  41.413  0.00  0.00    +0.000 C 
ATOM      9  F   UNL     1      48.388  35.164  40.137  0.00  0.00    +0.000 F 
ATOM     10  F   UNL     1      49.196  36.570  41.736  0.00  0.00    +0.000 F 
ATOM     11  F   UNL     1      50.019  34.520  41.581  0.00  0.00    +0.000 F 
ENDBRANCH   1   8
BRANCH   5  12
ATOM     12  C   UNL     1      44.633  35.838  43.889  0.00  0.00    +0.000 C 
ATOM     13  F   UNL     1      43.641  35.575  42.970  0.00  0.00    +0.000 F 
ATOM     14  F   UNL     1      44.936  37.195  43.926  0.00  0.00    +0.000 F 
ATOM     15  F   UNL     1      44.119  35.554  45.145  0.00  0.00    +0.000 F 
ENDBRANCH   5  12
BRANCH   3  16
ATOM     16  C   UNL     1      47.385  31.846  44.737  0.00  0.00    +0.000 C 
ATOM     17  F   UNL     1      47.345  30.825  43.793  0.00  0.00    +0.000 F 
ATOM     18  F   UNL     1      46.328  31.575  45.611  0.00  0.00    +0.000 F 
ATOM     19  F   UNL     1      48.560  31.841  45.438  0.00  0.00    +0.000 F 
ENDBRANCH   3  16
TORSDOF 3
