
 OpenBabel03252508233D

 43 45  0  0  0  0  0  0  0  0999 V2000
   45.8530   33.7870   40.5640 C   0  0  0  0  0  0  0  0  0  0  0  0
   46.3820   33.4940   39.3260 C   0  0  0  0  0  0  0  0  0  0  0  0
   47.6340   33.8740   38.9050 C   0  0  0  0  0  0  0  0  0  0  0  0
   48.3890   34.6050   39.8310 C   0  0  0  0  0  0  0  0  0  0  0  0
   47.9110   34.9200   41.0710 C   0  0  0  0  0  0  0  0  0  0  0  0
   46.6610   34.5220   41.4450 C   0  0  0  0  0  0  0  0  0  0  0  0
   45.8700   32.9280   38.5640 H   0  0  0  0  0  0  0  0  0  0  0  0
   48.0740   33.6650   37.9530 H   0  0  0  0  0  0  0  0  0  0  0  0
   49.3970   34.9370   39.5510 H   0  0  0  0  0  0  0  0  0  0  0  0
   48.5640   35.4930   41.7320 H   0  0  0  0  0  0  0  0  0  0  0  0
   46.2650   34.8900   42.7510 N   0  0  0  0  0  0  0  0  0  0  0  0
   45.3830   35.9800   43.0520 C   0  0  0  0  0  0  0  0  0  0  0  0
   44.7780   35.8290   44.4310 C   0  0  0  0  0  0  0  0  0  0  0  0
   44.4450   34.4910   44.7740 N   0  0  0  0  0  0  0  0  0  0  0  0
   45.5020   33.5630   44.6610 C   0  0  0  0  0  0  0  0  0  0  0  0
   46.6920   34.2150   43.9860 C   0  0  0  0  0  0  0  0  0  0  0  0
   44.6720   36.2730   42.2820 H   0  0  0  0  0  0  0  0  0  0  0  0
   46.0640   36.8810   43.1400 H   0  0  0  0  0  0  0  0  0  0  0  0
   43.8580   36.4380   44.4550 H   0  0  0  0  0  0  0  0  0  0  0  0
   45.4840   36.1980   45.2100 H   0  0  0  0  0  0  0  0  0  0  0  0
   43.7950   34.4280   45.5450 H   0  0  0  0  0  0  0  0  0  0  0  0
   45.8370   33.2410   45.6710 H   0  0  0  0  0  0  0  0  0  0  0  0
   45.2250   32.6450   44.1160 H   0  0  0  0  0  0  0  0  0  0  0  0
   47.1630   34.9630   44.6660 H   0  0  0  0  0  0  0  0  0  0  0  0
   47.3940   33.3990   43.6960 H   0  0  0  0  0  0  0  0  0  0  0  0
   44.5180   33.3840   41.0040 C   0  0  0  0  0  0  0  0  0  0  0  0
   43.9140   34.1760   41.4410 H   0  0  0  0  0  0  0  0  0  0  0  0
   44.6830   32.6430   41.8400 H   0  0  0  0  0  0  0  0  0  0  0  0
   43.7480   32.6910   39.8990 C   0  0  0  0  0  0  0  0  0  0  0  0
   43.3220   31.7140   40.2810 H   0  0  0  0  0  0  0  0  0  0  0  0
   44.2940   32.5060   38.9880 H   0  0  0  0  0  0  0  0  0  0  0  0
   41.5530   35.4180   38.4860 C   0  0  0  0  0  0  0  0  0  0  0  0
   42.7060   34.6610   38.8080 C   0  0  0  0  0  0  0  0  0  0  0  0
   42.5560   33.5000   39.5550 C   0  0  0  0  0  0  0  0  0  0  0  0
   41.2890   33.1550   39.9400 N   0  0  0  0  0  0  0  0  0  0  0  0
   40.2170   33.8810   39.6270 C   0  0  0  0  0  0  0  0  0  0  0  0
   40.3430   35.0110   38.9020 N   0  0  0  0  0  0  0  0  0  0  0  0
   41.6930   36.3310   37.8950 H   0  0  0  0  0  0  0  0  0  0  0  0
   43.6770   34.9780   38.4810 H   0  0  0  0  0  0  0  0  0  0  0  0
   38.8930   33.3810   40.1150 C   0  0  0  0  0  0  0  0  0  0  0  0
   38.9340   33.0470   41.4730 F   0  0  0  0  0  0  0  0  0  0  0  0
   38.5130   32.2220   39.4570 F   0  0  0  0  0  0  0  0  0  0  0  0
   37.8930   34.3280   39.9930 F   0  0  0  0  0  0  0  0  0  0  0  0
  1 26  1  0  0  0  0
  1  6  1  0  0  0  0
  2  1  2  0  0  0  0
  3  2  1  0  0  0  0
  3  4  2  0  0  0  0
  4  5  1  0  0  0  0
  5  6  2  0  0  0  0
  5 10  1  0  0  0  0
  6 11  1  0  0  0  0
  7  2  1  0  0  0  0
  8  3  1  0  0  0  0
  9  4  1  0  0  0  0
 11 12  1  0  0  0  0
 11 16  1  0  0  0  0
 12 18  1  0  0  0  0
 12 13  1  0  0  0  0
 13 19  1  0  0  0  0
 13 14  1  0  0  0  0
 13 20  1  0  0  0  0
 14 21  1  0  0  0  0
 15 14  1  0  0  0  0
 15 22  1  0  0  0  0
 16 15  1  0  0  0  0
 16 24  1  0  0  0  0
 17 12  1  0  0  0  0
 23 15  1  0  0  0  0
 25 16  1  0  0  0  0
 26 27  1  0  0  0  0
 26 28  1  0  0  0  0
 29 30  1  0  0  0  0
 29 26  1  0  0  0  0
 31 29  1  0  0  0  0
 32 33  2  0  0  0  0
 32 37  1  0  0  0  0
 33 34  1  0  0  0  0
 34 29  1  0  0  0  0
 34 35  2  0  0  0  0
 36 35  1  0  0  0  0
 36 40  1  0  0  0  0
 37 36  2  0  0  0  0
 38 32  1  0  0  0  0
 39 33  1  0  0  0  0
 40 41  1  0  0  0  0
 42 40  1  0  0  0  0
 43 40  1  0  0  0  0
M  END
>  <minimizedAffinity>
-5.99012804

>  <minimizedRMSD>
1.38536954

$$$$
