
 OpenBabel03252502113D

 23 24  0  0  0  0  0  0  0  0999 V2000
   44.0350   32.8690   40.9750 Cl  0  0  0  0  0  0  0  0  0  0  0  0
   45.6040   33.4690   40.5220 C   0  0  0  0  0  0  0  0  0  0  0  0
   46.3740   34.1990   41.3840 C   0  0  0  0  0  0  0  0  0  0  0  0
   47.5990   34.6210   40.9130 C   0  0  0  0  0  0  0  0  0  0  0  0
   48.0360   34.3330   39.6540 C   0  0  0  0  0  0  0  0  0  0  0  0
   47.2710   33.6050   38.7930 C   0  0  0  0  0  0  0  0  0  0  0  0
   46.0380   33.1720   39.2480 C   0  0  0  0  0  0  0  0  0  0  0  0
   49.0210   34.7110   39.3720 H   0  0  0  0  0  0  0  0  0  0  0  0
   47.6040   33.3660   37.7910 H   0  0  0  0  0  0  0  0  0  0  0  0
   45.4330   32.5940   38.5610 H   0  0  0  0  0  0  0  0  0  0  0  0
   44.5280   35.8230   44.2550 C   0  0  0  0  0  0  0  0  0  0  0  0
   45.0240   35.5600   42.9790 C   0  0  0  0  0  0  0  0  0  0  0  0
   45.8580   34.4760   42.7070 C   0  0  0  0  0  0  0  0  0  0  0  0
   46.1510   33.7010   43.7690 N   0  0  0  0  0  0  0  0  0  0  0  0
   45.6770   33.9490   44.9990 C   0  0  0  0  0  0  0  0  0  0  0  0
   44.8760   34.9910   45.2540 N   0  0  0  0  0  0  0  0  0  0  0  0
   43.8860   36.6840   44.3840 H   0  0  0  0  0  0  0  0  0  0  0  0
   44.7540   36.2180   42.1600 H   0  0  0  0  0  0  0  0  0  0  0  0
   45.9180   33.3170   45.8560 H   0  0  0  0  0  0  0  0  0  0  0  0
   48.4450   35.4180   41.8440 C   0  0  0  0  0  0  0  0  0  0  0  0
   49.4120   36.1250   41.1690 F   0  0  0  0  0  0  0  0  0  0  0  0
   49.0010   34.6230   42.8080 F   0  0  0  0  0  0  0  0  0  0  0  0
   47.5910   36.3750   42.4010 F   0  0  0  0  0  0  0  0  0  0  0  0
  2  1  1  0  0  0  0
  2  3  1  0  0  0  0
  3 13  1  0  0  0  0
  4  3  2  0  0  0  0
  4 20  1  0  0  0  0
  5  4  1  0  0  0  0
  6  7  1  0  0  0  0
  6  5  2  0  0  0  0
  7  2  2  0  0  0  0
  8  5  1  0  0  0  0
  9  6  1  0  0  0  0
 10  7  1  0  0  0  0
 11 17  1  0  0  0  0
 11 16  1  0  0  0  0
 12 11  2  0  0  0  0
 13 12  1  0  0  0  0
 13 14  2  0  0  0  0
 14 15  1  0  0  0  0
 15 16  2  0  0  0  0
 15 19  1  0  0  0  0
 18 12  1  0  0  0  0
 20 23  1  0  0  0  0
 20 22  1  0  0  0  0
 21 20  1  0  0  0  0
M  END
>  <minimizedAffinity>
-5.30742979

>  <minimizedRMSD>
1.07064891

$$$$
