
 OpenBabel03252506413D

 35 37  0  0  1  0  0  0  0  0999 V2000
   49.4400   33.3370   41.5000 N   0  0  1  0  0  0  0  0  0  0  0  0
   50.6710   33.1070   42.2150 C   0  0  0  0  0  0  0  0  0  0  0  0
   51.3090   31.7880   42.0210 C   0  0  0  0  0  0  0  0  0  0  0  0
   50.3930   30.6750   42.4420 C   0  0  0  0  0  0  0  0  0  0  0  0
   48.9590   31.0430   42.3200 C   0  0  0  0  0  0  0  0  0  0  0  0
   48.7930   32.0760   41.2490 C   0  0  2  0  0  0  0  0  0  0  0  0
   50.5220   33.2550   43.3100 H   0  0  0  0  0  0  0  0  0  0  0  0
   51.3780   33.9140   41.8630 H   0  0  0  0  0  0  0  0  0  0  0  0
   52.1340   31.7590   42.8160 H   0  0  0  0  0  0  0  0  0  0  0  0
   51.8720   31.6260   41.0990 H   0  0  0  0  0  0  0  0  0  0  0  0
   50.5670   30.2830   43.4510 H   0  0  0  0  0  0  0  0  0  0  0  0
   50.6400   29.8140   41.7540 H   0  0  0  0  0  0  0  0  0  0  0  0
   48.5690   31.4810   43.2750 H   0  0  0  0  0  0  0  0  0  0  0  0
   48.3200   30.1920   42.0450 H   0  0  0  0  0  0  0  0  0  0  0  0
   47.6830   32.3720   41.4040 H   0  0  0  0  0  0  0  0  0  0  0  0
   47.2360   34.5740   41.9980 C   0  0  1  0  0  0  0  0  0  0  0  0
   48.3120   35.5370   41.7070 C   0  0  0  0  0  0  0  0  0  0  0  0
   48.6580   34.2250   42.3060 C   0  0  2  0  0  0  0  0  0  0  0  0
   46.7740   34.1190   41.1110 H   0  0  0  0  0  0  0  0  0  0  0  0
   48.3960   36.4030   42.3730 H   0  0  0  0  0  0  0  0  0  0  0  0
   48.6170   35.7500   40.6580 H   0  0  0  0  0  0  0  0  0  0  0  0
   48.8820   34.1340   43.3920 H   0  0  0  0  0  0  0  0  0  0  0  0
   45.5250   36.0260   43.1620 C   0  0  0  0  0  0  0  0  0  0  0  0
   46.3130   34.8500   43.1370 C   0  0  0  0  0  0  0  0  0  0  0  0
   46.1930   33.9590   44.2140 C   0  0  0  0  0  0  0  0  0  0  0  0
   45.3300   34.2740   45.2120 N   0  0  0  0  0  0  0  0  0  0  0  0
   44.5890   35.4100   45.2030 C   0  0  0  0  0  0  0  0  0  0  0  0
   44.6820   36.2980   44.1720 N   0  0  0  0  0  0  0  0  0  0  0  0
   45.5960   36.7310   42.3460 H   0  0  0  0  0  0  0  0  0  0  0  0
   46.7860   33.0650   44.2070 H   0  0  0  0  0  0  0  0  0  0  0  0
   43.9360   35.5430   46.0650 H   0  0  0  0  0  0  0  0  0  0  0  0
   48.8030   31.5870   39.8460 C   0  0  0  0  0  0  0  0  0  0  0  0
   47.6990   32.0650   39.1190 F   0  0  0  0  0  0  0  0  0  0  0  0
   49.8840   32.1370   39.1230 F   0  0  0  0  0  0  0  0  0  0  0  0
   48.9670   30.2320   39.6870 F   0  0  0  0  0  0  0  0  0  0  0  0
  1  2  1  1  0  0  0
  1 18  1  0  0  0  0
  2  7  1  0  0  0  0
  3  2  1  0  0  0  0
  3  4  1  0  0  0  0
  3  9  1  0  0  0  0
  4 11  1  0  0  0  0
  5  4  1  0  0  0  0
  5 13  1  0  0  0  0
  6 15  1  1  0  0  0
  6  1  1  0  0  0  0
  6  5  1  0  0  0  0
  8  2  1  0  0  0  0
 10  3  1  0  0  0  0
 12  4  1  0  0  0  0
 14  5  1  0  0  0  0
 16 19  1  6  0  0  0
 16 18  1  0  0  0  0
 16 24  1  0  0  0  0
 17 16  1  0  0  0  0
 17 18  1  0  0  0  0
 17 20  1  0  0  0  0
 18 22  1  1  0  0  0
 21 17  1  0  0  0  0
 23 28  1  0  0  0  0
 24 23  2  0  0  0  0
 24 25  1  0  0  0  0
 25 26  2  0  0  0  0
 27 26  1  0  0  0  0
 27 31  1  0  0  0  0
 28 27  2  0  0  0  0
 29 23  1  0  0  0  0
 30 25  1  0  0  0  0
 32  6  1  0  0  0  0
 33 32  1  0  0  0  0
 34 32  1  0  0  0  0
 35 32  1  0  0  0  0
M  END
>  <minimizedAffinity>
-4.68103218

>  <minimizedRMSD>
0.355816662

$$$$
