
 OpenBabel03252505163D

 20 21  0  0  0  0  0  0  0  0999 V2000
   38.3550   28.7220   43.2520 C   0  0  0  0  0  0  0  0  0  0  0  0
   38.1730   27.3190   43.2910 C   0  0  0  0  0  0  0  0  0  0  0  0
   37.2330   26.8040   42.4180 C   0  0  0  0  0  0  0  0  0  0  0  0
   36.5340   27.6330   41.5760 N   0  0  0  0  0  0  0  0  0  0  0  0
   36.7370   28.9790   41.5670 C   0  0  0  0  0  0  0  0  0  0  0  0
   37.6520   29.5130   42.4120 N   0  0  0  0  0  0  0  0  0  0  0  0
   39.0890   29.1540   43.9280 H   0  0  0  0  0  0  0  0  0  0  0  0
   38.7160   26.6780   43.9430 H   0  0  0  0  0  0  0  0  0  0  0  0
   36.9790   25.3260   42.3570 C   0  0  0  0  0  0  0  0  0  0  0  0
   36.9640   24.7890   40.9430 C   0  0  0  0  0  0  0  0  0  0  0  0
   38.0800   24.4510   41.9680 C   0  0  0  0  0  0  0  0  0  0  0  0
   36.1320   24.9640   43.0030 H   0  0  0  0  0  0  0  0  0  0  0  0
   37.2380   25.4500   40.1050 H   0  0  0  0  0  0  0  0  0  0  0  0
   36.2830   23.9410   40.7370 H   0  0  0  0  0  0  0  0  0  0  0  0
   38.0590   23.4220   42.3970 H   0  0  0  0  0  0  0  0  0  0  0  0
   39.0700   24.8770   41.7120 H   0  0  0  0  0  0  0  0  0  0  0  0
   35.9600   29.8390   40.6400 C   0  0  0  0  0  0  0  0  0  0  0  0
   36.5700   29.9710   39.4150 F   0  0  0  0  0  0  0  0  0  0  0  0
   34.6660   29.3660   40.4550 F   0  0  0  0  0  0  0  0  0  0  0  0
   35.8470   31.1370   41.1500 F   0  0  0  0  0  0  0  0  0  0  0  0
  1  2  1  0  0  0  0
  1  7  1  0  0  0  0
  2  8  1  0  0  0  0
  3  2  2  0  0  0  0
  4  3  1  0  0  0  0
  5  4  2  0  0  0  0
  5  6  1  0  0  0  0
  6  1  2  0  0  0  0
  9  3  1  0  0  0  0
  9 12  1  0  0  0  0
 10 11  1  0  0  0  0
 10  9  1  0  0  0  0
 11  9  1  0  0  0  0
 11 15  1  0  0  0  0
 13 10  1  0  0  0  0
 14 10  1  0  0  0  0
 16 11  1  0  0  0  0
 17 20  1  0  0  0  0
 17  5  1  0  0  0  0
 18 17  1  0  0  0  0
 19 17  1  0  0  0  0
M  END
>  <minimizedAffinity>
-4.3050561

$$$$

 OpenBabel03252505163D

 20 21  0  0  0  0  0  0  0  0999 V2000
   39.4000   30.4630   42.5680 C   0  0  0  0  0  0  0  0  0  0  0  0
   38.5810   29.3520   42.8770 C   0  0  0  0  0  0  0  0  0  0  0  0
   37.4570   29.1870   42.0910 C   0  0  0  0  0  0  0  0  0  0  0  0
   37.1800   30.0700   41.0760 N   0  0  0  0  0  0  0  0  0  0  0  0
   37.9930   31.1290   40.8080 C   0  0  0  0  0  0  0  0  0  0  0  0
   39.1020   31.3150   41.5630 N   0  0  0  0  0  0  0  0  0  0  0  0
   40.2920   30.6160   43.1720 H   0  0  0  0  0  0  0  0  0  0  0  0
   38.7970   28.6680   43.6640 H   0  0  0  0  0  0  0  0  0  0  0  0
   36.5320   28.0260   42.3140 C   0  0  0  0  0  0  0  0  0  0  0  0
   37.2660   26.7170   42.5020 C   0  0  0  0  0  0  0  0  0  0  0  0
   36.4870   27.4250   43.6430 C   0  0  0  0  0  0  0  0  0  0  0  0
   35.6580   27.9750   41.6080 H   0  0  0  0  0  0  0  0  0  0  0  0
   38.3650   26.7130   42.5750 H   0  0  0  0  0  0  0  0  0  0  0  0
   36.7640   25.8040   42.1260 H   0  0  0  0  0  0  0  0  0  0  0  0
   35.5140   26.9640   43.9360 H   0  0  0  0  0  0  0  0  0  0  0  0
   37.1320   27.8130   44.4550 H   0  0  0  0  0  0  0  0  0  0  0  0
   37.6560   32.0580   39.7010 C   0  0  0  0  0  0  0  0  0  0  0  0
   38.7400   32.3310   38.9000 F   0  0  0  0  0  0  0  0  0  0  0  0
   36.6180   31.5740   38.9140 F   0  0  0  0  0  0  0  0  0  0  0  0
   37.2370   33.2950   40.2060 F   0  0  0  0  0  0  0  0  0  0  0  0
  1  2  1  0  0  0  0
  1  7  1  0  0  0  0
  2  8  1  0  0  0  0
  3  9  1  0  0  0  0
  3  2  2  0  0  0  0
  4  3  1  0  0  0  0
  5  4  2  0  0  0  0
  5  6  1  0  0  0  0
  6  1  2  0  0  0  0
  9 10  1  0  0  0  0
  9 11  1  0  0  0  0
 10 13  1  0  0  0  0
 10 11  1  0  0  0  0
 11 15  1  0  0  0  0
 11 16  1  0  0  0  0
 12  9  1  0  0  0  0
 14 10  1  0  0  0  0
 17 20  1  0  0  0  0
 17  5  1  0  0  0  0
 18 17  1  0  0  0  0
 19 17  1  0  0  0  0
M  END
>  <minimizedAffinity>
-4.27723503

$$$$

 OpenBabel03252505163D

 20 21  0  0  0  0  0  0  0  0999 V2000
   36.0690   28.1650   39.2750 C   0  0  0  0  0  0  0  0  0  0  0  0
   36.1520   29.5780   39.2490 C   0  0  0  0  0  0  0  0  0  0  0  0
   36.4980   30.1880   40.4400 C   0  0  0  0  0  0  0  0  0  0  0  0
   36.7400   29.4390   41.5640 N   0  0  0  0  0  0  0  0  0  0  0  0
   36.6510   28.0800   41.5510 C   0  0  0  0  0  0  0  0  0  0  0  0
   36.3140   27.4540   40.3980 N   0  0  0  0  0  0  0  0  0  0  0  0
   35.7990   27.6590   38.3510 H   0  0  0  0  0  0  0  0  0  0  0  0
   35.9650   30.1570   38.3770 H   0  0  0  0  0  0  0  0  0  0  0  0
   36.6410   31.6800   40.5180 C   0  0  0  0  0  0  0  0  0  0  0  0
   38.0800   32.1270   40.6520 C   0  0  0  0  0  0  0  0  0  0  0  0
   37.2270   32.3790   39.3800 C   0  0  0  0  0  0  0  0  0  0  0  0
   35.9270   32.1880   41.2240 H   0  0  0  0  0  0  0  0  0  0  0  0
   38.8920   31.3870   40.5720 H   0  0  0  0  0  0  0  0  0  0  0  0
   38.2660   33.0430   41.2460 H   0  0  0  0  0  0  0  0  0  0  0  0
   36.8790   33.4260   39.2180 H   0  0  0  0  0  0  0  0  0  0  0  0
   37.5680   31.8120   38.4900 H   0  0  0  0  0  0  0  0  0  0  0  0
   36.9210   27.3080   42.7890 C   0  0  0  0  0  0  0  0  0  0  0  0
   38.0650   27.7280   43.4270 F   0  0  0  0  0  0  0  0  0  0  0  0
   35.8560   27.3660   43.6800 F   0  0  0  0  0  0  0  0  0  0  0  0
   37.1270   25.9560   42.4920 F   0  0  0  0  0  0  0  0  0  0  0  0
  1  6  1  0  0  0  0
  2  1  2  0  0  0  0
  2  3  1  0  0  0  0
  3  9  1  0  0  0  0
  3  4  2  0  0  0  0
  5  4  1  0  0  0  0
  5 17  1  0  0  0  0
  6  5  2  0  0  0  0
  7  1  1  0  0  0  0
  8  2  1  0  0  0  0
  9 10  1  0  0  0  0
  9 12  1  0  0  0  0
 10 14  1  0  0  0  0
 11  9  1  0  0  0  0
 11 10  1  0  0  0  0
 13 10  1  0  0  0  0
 15 11  1  0  0  0  0
 16 11  1  0  0  0  0
 17 18  1  0  0  0  0
 17 19  1  0  0  0  0
 20 17  1  0  0  0  0
M  END
>  <minimizedAffinity>
-4.15405273

$$$$

 OpenBabel03252505163D

 20 21  0  0  0  0  0  0  0  0999 V2000
   38.1930   28.5780   43.2000 C   0  0  0  0  0  0  0  0  0  0  0  0
   37.4340   29.4950   42.4340 C   0  0  0  0  0  0  0  0  0  0  0  0
   36.6410   28.9490   41.4430 C   0  0  0  0  0  0  0  0  0  0  0  0
   36.6140   27.5920   41.2390 N   0  0  0  0  0  0  0  0  0  0  0  0
   37.3580   26.7400   41.9960 C   0  0  0  0  0  0  0  0  0  0  0  0
   38.1450   27.2460   42.9760 N   0  0  0  0  0  0  0  0  0  0  0  0
   38.8260   28.9810   43.9870 H   0  0  0  0  0  0  0  0  0  0  0  0
   37.4560   30.5470   42.5940 H   0  0  0  0  0  0  0  0  0  0  0  0
   35.7740   29.8290   40.5890 C   0  0  0  0  0  0  0  0  0  0  0  0
   36.0580   29.6780   39.1110 C   0  0  0  0  0  0  0  0  0  0  0  0
   34.7400   29.1980   39.7760 C   0  0  0  0  0  0  0  0  0  0  0  0
   35.6860   30.8930   40.9420 H   0  0  0  0  0  0  0  0  0  0  0  0
   36.7570   28.9000   38.7660 H   0  0  0  0  0  0  0  0  0  0  0  0
   35.9310   30.5820   38.4840 H   0  0  0  0  0  0  0  0  0  0  0  0
   33.8330   29.8160   39.5760 H   0  0  0  0  0  0  0  0  0  0  0  0
   34.6150   28.0970   39.7840 H   0  0  0  0  0  0  0  0  0  0  0  0
   37.2980   25.2790   41.7420 C   0  0  0  0  0  0  0  0  0  0  0  0
   36.8160   24.9860   40.4880 F   0  0  0  0  0  0  0  0  0  0  0  0
   38.5380   24.6730   41.9060 F   0  0  0  0  0  0  0  0  0  0  0  0
   36.4230   24.6580   42.6400 F   0  0  0  0  0  0  0  0  0  0  0  0
  1  7  1  0  0  0  0
  2  8  1  0  0  0  0
  2  1  2  0  0  0  0
  3  2  1  0  0  0  0
  4  3  2  0  0  0  0
  4  5  1  0  0  0  0
  5  6  2  0  0  0  0
  6  1  1  0  0  0  0
  9 12  1  0  0  0  0
  9  3  1  0  0  0  0
 10 11  1  0  0  0  0
 10  9  1  0  0  0  0
 11 16  1  0  0  0  0
 11  9  1  0  0  0  0
 13 10  1  0  0  0  0
 14 10  1  0  0  0  0
 15 11  1  0  0  0  0
 17 19  1  0  0  0  0
 17  5  1  0  0  0  0
 17 20  1  0  0  0  0
 18 17  1  0  0  0  0
M  END
>  <minimizedAffinity>
-4.09335232

$$$$

 OpenBabel03252505163D

 20 21  0  0  0  0  0  0  0  0999 V2000
   37.0430   26.1250   40.3570 C   0  0  0  0  0  0  0  0  0  0  0  0
   37.8710   26.1770   41.5030 C   0  0  0  0  0  0  0  0  0  0  0  0
   37.8680   27.3690   42.2020 C   0  0  0  0  0  0  0  0  0  0  0  0
   37.0960   28.4230   41.7800 N   0  0  0  0  0  0  0  0  0  0  0  0
   36.3110   28.3360   40.6720 C   0  0  0  0  0  0  0  0  0  0  0  0
   36.2930   27.1790   39.9660 N   0  0  0  0  0  0  0  0  0  0  0  0
   37.0270   25.1980   39.7880 H   0  0  0  0  0  0  0  0  0  0  0  0
   38.4690   25.3600   41.8290 H   0  0  0  0  0  0  0  0  0  0  0  0
   38.6890   27.5260   43.4480 C   0  0  0  0  0  0  0  0  0  0  0  0
   39.6350   26.3680   43.6790 C   0  0  0  0  0  0  0  0  0  0  0  0
   40.1160   27.7960   43.3060 C   0  0  0  0  0  0  0  0  0  0  0  0
   38.1110   27.8450   44.3590 H   0  0  0  0  0  0  0  0  0  0  0  0
   39.7420   25.5880   42.9090 H   0  0  0  0  0  0  0  0  0  0  0  0
   39.8430   26.0940   44.7320 H   0  0  0  0  0  0  0  0  0  0  0  0
   40.5830   28.3900   44.1280 H   0  0  0  0  0  0  0  0  0  0  0  0
   40.5740   27.8690   42.3010 H   0  0  0  0  0  0  0  0  0  0  0  0
   35.4900   29.4990   40.2520 C   0  0  0  0  0  0  0  0  0  0  0  0
   35.8250   29.9490   38.9970 F   0  0  0  0  0  0  0  0  0  0  0  0
   34.1300   29.2150   40.2850 F   0  0  0  0  0  0  0  0  0  0  0  0
   35.6970   30.5840   41.1110 F   0  0  0  0  0  0  0  0  0  0  0  0
  1  2  1  0  0  0  0
  2  8  1  0  0  0  0
  2  3  2  0  0  0  0
  3  9  1  0  0  0  0
  4  3  1  0  0  0  0
  5  4  2  0  0  0  0
  6  1  2  0  0  0  0
  6  5  1  0  0  0  0
  7  1  1  0  0  0  0
  9 10  1  0  0  0  0
  9 12  1  0  0  0  0
 10 14  1  0  0  0  0
 11  9  1  0  0  0  0
 11 10  1  0  0  0  0
 11 15  1  0  0  0  0
 13 10  1  0  0  0  0
 16 11  1  0  0  0  0
 17 19  1  0  0  0  0
 17  5  1  0  0  0  0
 17 20  1  0  0  0  0
 18 17  1  0  0  0  0
M  END
>  <minimizedAffinity>
-3.97511506

$$$$

 OpenBabel03252505163D

 20 21  0  0  0  0  0  0  0  0999 V2000
   40.1120   29.3700   40.6490 C   0  0  0  0  0  0  0  0  0  0  0  0
   39.7880   28.3330   41.5560 C   0  0  0  0  0  0  0  0  0  0  0  0
   38.5130   28.3680   42.0880 C   0  0  0  0  0  0  0  0  0  0  0  0
   37.6370   29.3640   41.7370 N   0  0  0  0  0  0  0  0  0  0  0  0
   37.9840   30.3450   40.8590 C   0  0  0  0  0  0  0  0  0  0  0  0
   39.2270   30.3370   40.3210 N   0  0  0  0  0  0  0  0  0  0  0  0
   41.1090   29.3670   40.2150 H   0  0  0  0  0  0  0  0  0  0  0  0
   40.4690   27.5620   41.8280 H   0  0  0  0  0  0  0  0  0  0  0  0
   38.0550   27.3010   43.0410 C   0  0  0  0  0  0  0  0  0  0  0  0
   36.5910   27.4210   43.3980 C   0  0  0  0  0  0  0  0  0  0  0  0
   37.1620   26.2640   42.5370 C   0  0  0  0  0  0  0  0  0  0  0  0
   38.7380   27.1250   43.9170 H   0  0  0  0  0  0  0  0  0  0  0  0
   35.9620   28.1640   42.8830 H   0  0  0  0  0  0  0  0  0  0  0  0
   36.2980   27.1080   44.4190 H   0  0  0  0  0  0  0  0  0  0  0  0
   37.2410   25.2690   43.0370 H   0  0  0  0  0  0  0  0  0  0  0  0
   36.8250   26.2780   41.4820 H   0  0  0  0  0  0  0  0  0  0  0  0
   37.0050   31.4030   40.5050 C   0  0  0  0  0  0  0  0  0  0  0  0
   37.5030   32.6670   40.7150 F   0  0  0  0  0  0  0  0  0  0  0  0
   36.5770   31.2940   39.1880 F   0  0  0  0  0  0  0  0  0  0  0  0
   35.8630   31.3070   41.3100 F   0  0  0  0  0  0  0  0  0  0  0  0
  1  2  1  0  0  0  0
  2  8  1  0  0  0  0
  2  3  2  0  0  0  0
  3  9  1  0  0  0  0
  4  3  1  0  0  0  0
  5  4  2  0  0  0  0
  6  1  2  0  0  0  0
  6  5  1  0  0  0  0
  7  1  1  0  0  0  0
  9 10  1  0  0  0  0
  9 12  1  0  0  0  0
 10 14  1  0  0  0  0
 11 15  1  0  0  0  0
 11  9  1  0  0  0  0
 11 10  1  0  0  0  0
 13 10  1  0  0  0  0
 16 11  1  0  0  0  0
 17 18  1  0  0  0  0
 17  5  1  0  0  0  0
 17 20  1  0  0  0  0
 19 17  1  0  0  0  0
M  END
>  <minimizedAffinity>
-3.96757913

$$$$

 OpenBabel03252505163D

 20 21  0  0  0  0  0  0  0  0999 V2000
   37.3430   27.0990   39.1050 C   0  0  0  0  0  0  0  0  0  0  0  0
   36.9470   28.4380   38.8750 C   0  0  0  0  0  0  0  0  0  0  0  0
   36.5560   29.1570   39.9880 C   0  0  0  0  0  0  0  0  0  0  0  0
   36.5610   28.5750   41.2310 N   0  0  0  0  0  0  0  0  0  0  0  0
   36.9490   27.2830   41.4140 C   0  0  0  0  0  0  0  0  0  0  0  0
   37.3380   26.5530   40.3410 N   0  0  0  0  0  0  0  0  0  0  0  0
   37.6560   26.5110   38.2450 H   0  0  0  0  0  0  0  0  0  0  0  0
   36.9450   28.8880   37.9100 H   0  0  0  0  0  0  0  0  0  0  0  0
   36.1430   30.5950   39.8620 C   0  0  0  0  0  0  0  0  0  0  0  0
   37.0450   31.5350   40.6290 C   0  0  0  0  0  0  0  0  0  0  0  0
   36.9880   31.4890   39.0790 C   0  0  0  0  0  0  0  0  0  0  0  0
   35.0430   30.7850   40.0000 H   0  0  0  0  0  0  0  0  0  0  0  0
   37.9580   31.1480   41.1080 H   0  0  0  0  0  0  0  0  0  0  0  0
   36.5730   32.4390   41.0610 H   0  0  0  0  0  0  0  0  0  0  0  0
   36.4660   32.3390   38.5790 H   0  0  0  0  0  0  0  0  0  0  0  0
   37.9160   31.1120   38.6060 H   0  0  0  0  0  0  0  0  0  0  0  0
   36.9400   26.6930   42.7760 C   0  0  0  0  0  0  0  0  0  0  0  0
   36.5900   25.3630   42.7680 F   0  0  0  0  0  0  0  0  0  0  0  0
   38.1670   26.8370   43.4120 F   0  0  0  0  0  0  0  0  0  0  0  0
   35.9890   27.3300   43.5830 F   0  0  0  0  0  0  0  0  0  0  0  0
  1  6  1  0  0  0  0
  2  1  2  0  0  0  0
  2  3  1  0  0  0  0
  3  4  2  0  0  0  0
  4  5  1  0  0  0  0
  5 17  1  0  0  0  0
  6  5  2  0  0  0  0
  7  1  1  0  0  0  0
  8  2  1  0  0  0  0
  9  3  1  0  0  0  0
  9 12  1  0  0  0  0
  9 10  1  0  0  0  0
 10 14  1  0  0  0  0
 10 13  1  0  0  0  0
 11  9  1  0  0  0  0
 11 10  1  0  0  0  0
 15 11  1  0  0  0  0
 16 11  1  0  0  0  0
 17 19  1  0  0  0  0
 17 20  1  0  0  0  0
 18 17  1  0  0  0  0
M  END
>  <minimizedAffinity>
-3.89108586

$$$$

 OpenBabel03252505163D

 20 21  0  0  0  0  0  0  0  0999 V2000
   35.4110   29.2200   39.8780 C   0  0  0  0  0  0  0  0  0  0  0  0
   36.0780   30.3250   39.2980 C   0  0  0  0  0  0  0  0  0  0  0  0
   37.2170   30.7580   39.9490 C   0  0  0  0  0  0  0  0  0  0  0  0
   37.6490   30.1310   41.0910 N   0  0  0  0  0  0  0  0  0  0  0  0
   36.9810   29.0700   41.6210 C   0  0  0  0  0  0  0  0  0  0  0  0
   35.8610   28.6230   41.0040 N   0  0  0  0  0  0  0  0  0  0  0  0
   34.5110   28.8580   39.3860 H   0  0  0  0  0  0  0  0  0  0  0  0
   35.7420   30.8090   38.4120 H   0  0  0  0  0  0  0  0  0  0  0  0
   38.0180   31.9050   39.4040 C   0  0  0  0  0  0  0  0  0  0  0  0
   37.4020   33.2520   39.7130 C   0  0  0  0  0  0  0  0  0  0  0  0
   38.7300   32.7600   40.3480 C   0  0  0  0  0  0  0  0  0  0  0  0
   38.3590   31.7810   38.3400 H   0  0  0  0  0  0  0  0  0  0  0  0
   36.5240   33.3120   40.3750 H   0  0  0  0  0  0  0  0  0  0  0  0
   37.5440   34.0510   38.9600 H   0  0  0  0  0  0  0  0  0  0  0  0
   39.6650   33.2340   39.9660 H   0  0  0  0  0  0  0  0  0  0  0  0
   38.6640   32.5670   41.4370 H   0  0  0  0  0  0  0  0  0  0  0  0
   37.4830   28.4210   42.8570 C   0  0  0  0  0  0  0  0  0  0  0  0
   36.4680   27.9010   43.6240 F   0  0  0  0  0  0  0  0  0  0  0  0
   38.4040   27.4170   42.5800 F   0  0  0  0  0  0  0  0  0  0  0  0
   38.1360   29.3530   43.6730 F   0  0  0  0  0  0  0  0  0  0  0  0
  1  6  1  0  0  0  0
  2  1  2  0  0  0  0
  2  3  1  0  0  0  0
  3  4  2  0  0  0  0
  4  5  1  0  0  0  0
  5 17  1  0  0  0  0
  6  5  2  0  0  0  0
  7  1  1  0  0  0  0
  8  2  1  0  0  0  0
  9 10  1  0  0  0  0
  9  3  1  0  0  0  0
  9 11  1  0  0  0  0
 10 11  1  0  0  0  0
 10 13  1  0  0  0  0
 11 16  1  0  0  0  0
 12  9  1  0  0  0  0
 14 10  1  0  0  0  0
 15 11  1  0  0  0  0
 17 18  1  0  0  0  0
 17 20  1  0  0  0  0
 19 17  1  0  0  0  0
M  END
>  <minimizedAffinity>
-3.88759971

$$$$

 OpenBabel03252505163D

 20 21  0  0  0  0  0  0  0  0999 V2000
   36.5130   27.9090   39.4610 C   0  0  0  0  0  0  0  0  0  0  0  0
   36.7210   27.7030   40.8450 C   0  0  0  0  0  0  0  0  0  0  0  0
   37.1800   28.7920   41.5600 C   0  0  0  0  0  0  0  0  0  0  0  0
   37.4130   29.9910   40.9330 N   0  0  0  0  0  0  0  0  0  0  0  0
   37.2000   30.1520   39.5980 C   0  0  0  0  0  0  0  0  0  0  0  0
   36.7500   29.1020   38.8710 N   0  0  0  0  0  0  0  0  0  0  0  0
   36.1520   27.0680   38.8740 H   0  0  0  0  0  0  0  0  0  0  0  0
   36.5400   26.7730   41.3300 H   0  0  0  0  0  0  0  0  0  0  0  0
   37.4090   28.6920   43.0410 C   0  0  0  0  0  0  0  0  0  0  0  0
   36.6450   27.5530   43.6790 C   0  0  0  0  0  0  0  0  0  0  0  0
   38.1910   27.5680   43.5440 C   0  0  0  0  0  0  0  0  0  0  0  0
   37.3440   29.6670   43.5960 H   0  0  0  0  0  0  0  0  0  0  0  0
   36.0950   26.8410   43.0430 H   0  0  0  0  0  0  0  0  0  0  0  0
   36.2920   27.7080   44.7170 H   0  0  0  0  0  0  0  0  0  0  0  0
   38.7660   27.7550   44.4810 H   0  0  0  0  0  0  0  0  0  0  0  0
   38.5900   26.8050   42.8450 H   0  0  0  0  0  0  0  0  0  0  0  0
   37.4630   31.4660   38.9610 C   0  0  0  0  0  0  0  0  0  0  0  0
   38.7720   31.8630   39.1010 F   0  0  0  0  0  0  0  0  0  0  0  0
   37.1310   31.4640   37.6110 F   0  0  0  0  0  0  0  0  0  0  0  0
   36.6960   32.4700   39.5640 F   0  0  0  0  0  0  0  0  0  0  0  0
  1  2  1  0  0  0  0
  2  8  1  0  0  0  0
  2  3  2  0  0  0  0
  3  9  1  0  0  0  0
  4  3  1  0  0  0  0
  5  4  2  0  0  0  0
  6  1  2  0  0  0  0
  6  5  1  0  0  0  0
  7  1  1  0  0  0  0
  9 11  1  0  0  0  0
  9 12  1  0  0  0  0
  9 10  1  0  0  0  0
 10 14  1  0  0  0  0
 11 10  1  0  0  0  0
 11 15  1  0  0  0  0
 13 10  1  0  0  0  0
 16 11  1  0  0  0  0
 17 18  1  0  0  0  0
 17 20  1  0  0  0  0
 17  5  1  0  0  0  0
 19 17  1  0  0  0  0
M  END
>  <minimizedAffinity>
-3.87417817

$$$$
