
 OpenBabel03242519003D

 30 32  0  0  1  0  0  0  0  0999 V2000
   36.9170   28.6990   41.8060 C   0  0  1  0  0  0  0  0  0  0  0  0
   36.5940   27.4610   40.9700 C   0  0  0  0  0  0  0  0  0  0  0  0
   36.9490   27.2900   42.2870 C   0  0  1  0  0  0  0  0  0  0  0  0
   36.0740   29.3620   42.0560 H   0  0  0  0  0  0  0  0  0  0  0  0
   35.4190   27.3530   40.8060 H   0  0  0  0  0  0  0  0  0  0  0  0
   36.9360   27.6090   39.9680 H   0  0  0  0  0  0  0  0  0  0  0  0
   36.2440   27.2820   43.1830 H   0  0  0  0  0  0  0  0  0  0  0  0
   38.1540   26.5700   42.6780 C   0  0  0  0  0  0  0  0  0  0  0  0
   39.2440   27.1770   43.3270 C   0  0  0  0  0  0  0  0  0  0  0  0
   40.4270   26.5600   43.6770 C   0  0  0  0  0  0  0  0  0  0  0  0
   40.5220   25.2530   43.3520 C   0  0  0  0  0  0  0  0  0  0  0  0
   39.4950   24.6040   42.7230 C   0  0  0  0  0  0  0  0  0  0  0  0
   38.3250   25.2370   42.3880 C   0  0  0  0  0  0  0  0  0  0  0  0
   39.0770   28.2440   43.5500 H   0  0  0  0  0  0  0  0  0  0  0  0
   41.1340   27.1810   44.1630 H   0  0  0  0  0  0  0  0  0  0  0  0
   41.4840   24.8010   43.6430 H   0  0  0  0  0  0  0  0  0  0  0  0
   39.7680   23.5600   42.5510 H   0  0  0  0  0  0  0  0  0  0  0  0
   37.3920   24.2840   41.7240 C   0  0  0  0  0  0  0  0  0  0  0  0
   37.0820   24.6960   40.3790 F   0  0  0  0  0  0  0  0  0  0  0  0
   36.0670   24.4410   42.1500 F   0  0  0  0  0  0  0  0  0  0  0  0
   37.8160   23.0650   41.4060 F   0  0  0  0  0  0  0  0  0  0  0  0
   38.1440   29.4210   41.4180 C   0  0  0  0  0  0  0  0  0  0  0  0
   38.6660   30.2820   42.3950 C   0  0  0  0  0  0  0  0  0  0  0  0
   39.8490   30.9730   42.0370 C   0  0  0  0  0  0  0  0  0  0  0  0
   40.3820   30.7580   40.8090 N   0  0  0  0  0  0  0  0  0  0  0  0
   39.8240   29.9130   39.9190 C   0  0  0  0  0  0  0  0  0  0  0  0
   38.6930   29.2340   40.2200 N   0  0  0  0  0  0  0  0  0  0  0  0
   38.1840   30.4010   43.3530 H   0  0  0  0  0  0  0  0  0  0  0  0
   40.2430   31.6310   42.7870 H   0  0  0  0  0  0  0  0  0  0  0  0
   40.3960   29.8870   39.0210 H   0  0  0  0  0  0  0  0  0  0  0  0
  1  4  1  1  0  0  0
  1  3  1  0  0  0  0
  2  1  1  0  0  0  0
  2  3  1  0  0  0  0
  3  8  1  0  0  0  0
  3  7  1  1  0  0  0
  5  2  1  0  0  0  0
  6  2  1  0  0  0  0
  8  9  1  0  0  0  0
  9 14  1  0  0  0  0
  9 10  2  0  0  0  0
 10 15  1  0  0  0  0
 11 16  1  0  0  0  0
 11 10  1  0  0  0  0
 12 11  2  0  0  0  0
 13  8  2  0  0  0  0
 13 12  1  0  0  0  0
 17 12  1  0  0  0  0
 18 20  1  0  0  0  0
 18 13  1  0  0  0  0
 19 18  1  0  0  0  0
 21 18  1  0  0  0  0
 22  1  1  0  0  0  0
 22 23  1  0  0  0  0
 23 28  1  0  0  0  0
 24 23  2  0  0  0  0
 24 29  1  0  0  0  0
 25 24  1  0  0  0  0
 26 27  1  0  0  0  0
 26 25  2  0  0  0  0
 27 22  2  0  0  0  0
 30 26  1  0  0  0  0
M  END
>  <minimizedAffinity>
-5.22937632

$$$$

 OpenBabel03242519003D

 30 32  0  0  1  0  0  0  0  0999 V2000
   35.8270   30.1610   40.4660 C   0  0  1  0  0  0  0  0  0  0  0  0
   34.8470   29.3050   39.6630 C   0  0  0  0  0  0  0  0  0  0  0  0
   35.5210   28.7240   40.7110 C   0  0  1  0  0  0  0  0  0  0  0  0
   35.3910   30.9460   41.1030 H   0  0  0  0  0  0  0  0  0  0  0  0
   33.7210   29.5680   39.9480 H   0  0  0  0  0  0  0  0  0  0  0  0
   34.8810   29.5960   38.6350 H   0  0  0  0  0  0  0  0  0  0  0  0
   35.1810   28.6880   41.7980 H   0  0  0  0  0  0  0  0  0  0  0  0
   36.4610   27.6270   40.5140 C   0  0  0  0  0  0  0  0  0  0  0  0
   36.7150   27.0400   39.2620 C   0  0  0  0  0  0  0  0  0  0  0  0
   37.5550   25.9710   39.0210 C   0  0  0  0  0  0  0  0  0  0  0  0
   38.1740   25.4600   40.1070 C   0  0  0  0  0  0  0  0  0  0  0  0
   37.9710   25.9890   41.3510 C   0  0  0  0  0  0  0  0  0  0  0  0
   37.1340   27.0550   41.5670 C   0  0  0  0  0  0  0  0  0  0  0  0
   36.1650   27.5210   38.4370 H   0  0  0  0  0  0  0  0  0  0  0  0
   37.6210   25.6680   38.0080 H   0  0  0  0  0  0  0  0  0  0  0  0
   38.8280   24.6050   39.8710 H   0  0  0  0  0  0  0  0  0  0  0  0
   38.5600   25.4360   42.0880 H   0  0  0  0  0  0  0  0  0  0  0  0
   37.1170   27.4160   43.0120 C   0  0  0  0  0  0  0  0  0  0  0  0
   37.3890   28.8170   43.2110 F   0  0  0  0  0  0  0  0  0  0  0  0
   38.2840   27.0260   43.6800 F   0  0  0  0  0  0  0  0  0  0  0  0
   35.9670   27.3970   43.6800 F   0  0  0  0  0  0  0  0  0  0  0  0
   37.0350   30.5900   39.7380 C   0  0  0  0  0  0  0  0  0  0  0  0
   38.2150   30.6160   40.4970 C   0  0  0  0  0  0  0  0  0  0  0  0
   39.3830   31.0180   39.8060 C   0  0  0  0  0  0  0  0  0  0  0  0
   39.2830   31.3400   38.4930 N   0  0  0  0  0  0  0  0  0  0  0  0
   38.1130   31.2910   37.8250 C   0  0  0  0  0  0  0  0  0  0  0  0
   36.9730   30.9140   38.4490 N   0  0  0  0  0  0  0  0  0  0  0  0
   38.2150   30.3450   41.5420 H   0  0  0  0  0  0  0  0  0  0  0  0
   40.2810   31.0370   40.3920 H   0  0  0  0  0  0  0  0  0  0  0  0
   38.2520   31.5800   36.8090 H   0  0  0  0  0  0  0  0  0  0  0  0
  1  3  1  0  0  0  0
  1  4  1  1  0  0  0
  2  5  1  0  0  0  0
  2  1  1  0  0  0  0
  2  3  1  0  0  0  0
  3  7  1  1  0  0  0
  6  2  1  0  0  0  0
  8  3  1  0  0  0  0
  8 13  1  0  0  0  0
  9  8  2  0  0  0  0
 10  9  1  0  0  0  0
 10 11  2  0  0  0  0
 11 12  1  0  0  0  0
 12 13  2  0  0  0  0
 12 17  1  0  0  0  0
 13 18  1  0  0  0  0
 14  9  1  0  0  0  0
 15 10  1  0  0  0  0
 16 11  1  0  0  0  0
 18 19  1  0  0  0  0
 18 21  1  0  0  0  0
 18 20  1  0  0  0  0
 22  1  1  0  0  0  0
 22 23  1  0  0  0  0
 23 28  1  0  0  0  0
 24 29  1  0  0  0  0
 24 23  2  0  0  0  0
 25 24  1  0  0  0  0
 26 27  1  0  0  0  0
 26 25  2  0  0  0  0
 27 22  2  0  0  0  0
 30 26  1  0  0  0  0
M  END
>  <minimizedAffinity>
-5.22774172

$$$$

 OpenBabel03242519003D

 30 32  0  0  1  0  0  0  0  0999 V2000
   36.5330   27.9120   42.2370 C   0  0  1  0  0  0  0  0  0  0  0  0
   36.5950   27.2100   43.5940 C   0  0  0  0  0  0  0  0  0  0  0  0
   37.5110   28.2000   43.3240 C   0  0  1  0  0  0  0  0  0  0  0  0
   35.6730   28.5760   42.0620 H   0  0  0  0  0  0  0  0  0  0  0  0
   35.7230   27.5910   44.3100 H   0  0  0  0  0  0  0  0  0  0  0  0
   36.3370   26.1790   43.4730 H   0  0  0  0  0  0  0  0  0  0  0  0
   37.3840   29.3130   43.5300 H   0  0  0  0  0  0  0  0  0  0  0  0
   38.9420   27.9320   43.2500 C   0  0  0  0  0  0  0  0  0  0  0  0
   39.5280   26.7280   43.6800 C   0  0  0  0  0  0  0  0  0  0  0  0
   40.8760   26.4360   43.6790 C   0  0  0  0  0  0  0  0  0  0  0  0
   41.6850   27.4160   43.2220 C   0  0  0  0  0  0  0  0  0  0  0  0
   41.1760   28.6080   42.7870 C   0  0  0  0  0  0  0  0  0  0  0  0
   39.8300   28.8760   42.7920 C   0  0  0  0  0  0  0  0  0  0  0  0
   38.7910   25.9900   44.0370 H   0  0  0  0  0  0  0  0  0  0  0  0
   41.1300   25.4730   44.0400 H   0  0  0  0  0  0  0  0  0  0  0  0
   42.7530   27.1450   43.2460 H   0  0  0  0  0  0  0  0  0  0  0  0
   41.9900   29.2600   42.4600 H   0  0  0  0  0  0  0  0  0  0  0  0
   39.5710   30.2420   42.2580 C   0  0  0  0  0  0  0  0  0  0  0  0
   40.6970   30.7390   41.5090 F   0  0  0  0  0  0  0  0  0  0  0  0
   39.6960   31.2360   43.2350 F   0  0  0  0  0  0  0  0  0  0  0  0
   38.6720   30.4100   41.2920 F   0  0  0  0  0  0  0  0  0  0  0  0
   36.8810   27.0730   41.0750 C   0  0  0  0  0  0  0  0  0  0  0  0
   37.1190   27.7720   39.8820 C   0  0  0  0  0  0  0  0  0  0  0  0
   37.4630   26.9780   38.7610 C   0  0  0  0  0  0  0  0  0  0  0  0
   37.5380   25.6330   38.9160 N   0  0  0  0  0  0  0  0  0  0  0  0
   37.2960   25.0290   40.0960 C   0  0  0  0  0  0  0  0  0  0  0  0
   36.9630   25.7500   41.1920 N   0  0  0  0  0  0  0  0  0  0  0  0
   37.0390   28.8480   39.8360 H   0  0  0  0  0  0  0  0  0  0  0  0
   37.6420   27.5170   37.8520 H   0  0  0  0  0  0  0  0  0  0  0  0
   37.4100   23.9730   40.0040 H   0  0  0  0  0  0  0  0  0  0  0  0
  1  4  1  6  0  0  0
  1  3  1  0  0  0  0
  1  2  1  0  0  0  0
  2  5  1  0  0  0  0
  3  7  1  1  0  0  0
  3  2  1  0  0  0  0
  6  2  1  0  0  0  0
  8  3  1  0  0  0  0
  8  9  1  0  0  0  0
  9 14  1  0  0  0  0
 10  9  2  0  0  0  0
 10 15  1  0  0  0  0
 11 16  1  0  0  0  0
 11 10  1  0  0  0  0
 12 13  1  0  0  0  0
 12 11  2  0  0  0  0
 13  8  2  0  0  0  0
 17 12  1  0  0  0  0
 18 13  1  0  0  0  0
 18 20  1  0  0  0  0
 19 18  1  0  0  0  0
 21 18  1  0  0  0  0
 22 27  1  0  0  0  0
 22  1  1  0  0  0  0
 23 22  2  0  0  0  0
 24 25  2  0  0  0  0
 24 23  1  0  0  0  0
 25 26  1  0  0  0  0
 26 27  2  0  0  0  0
 28 23  1  0  0  0  0
 29 24  1  0  0  0  0
 30 26  1  0  0  0  0
M  END
>  <minimizedAffinity>
-5.1109252

$$$$

 OpenBabel03242519003D

 30 32  0  0  1  0  0  0  0  0999 V2000
   36.1890   27.9820   40.3110 C   0  0  1  0  0  0  0  0  0  0  0  0
   35.0190   28.8920   40.6840 C   0  0  0  0  0  0  0  0  0  0  0  0
   35.7170   29.1590   39.5300 C   0  0  1  0  0  0  0  0  0  0  0  0
   35.9380   26.9580   39.9930 H   0  0  0  0  0  0  0  0  0  0  0  0
   33.9780   28.3580   40.4630 H   0  0  0  0  0  0  0  0  0  0  0  0
   34.9810   29.0030   41.7470 H   0  0  0  0  0  0  0  0  0  0  0  0
   35.4960   28.7420   38.4930 H   0  0  0  0  0  0  0  0  0  0  0  0
   36.4690   30.3950   39.3490 C   0  0  0  0  0  0  0  0  0  0  0  0
   36.6940   31.3240   40.3800 C   0  0  0  0  0  0  0  0  0  0  0  0
   37.3550   32.5290   40.2580 C   0  0  0  0  0  0  0  0  0  0  0  0
   37.8150   32.8190   39.0210 C   0  0  0  0  0  0  0  0  0  0  0  0
   37.6310   31.9550   37.9780 C   0  0  0  0  0  0  0  0  0  0  0  0
   36.9740   30.7590   38.1230 C   0  0  0  0  0  0  0  0  0  0  0  0
   36.2820   31.0030   41.3510 H   0  0  0  0  0  0  0  0  0  0  0  0
   37.4280   33.0960   41.1490 H   0  0  0  0  0  0  0  0  0  0  0  0
   38.3290   33.7920   38.9660 H   0  0  0  0  0  0  0  0  0  0  0  0
   38.0750   32.3720   37.0710 H   0  0  0  0  0  0  0  0  0  0  0  0
   36.9330   30.0290   36.8250 C   0  0  0  0  0  0  0  0  0  0  0  0
   37.0560   30.9290   35.7080 F   0  0  0  0  0  0  0  0  0  0  0  0
   35.6360   29.6470   36.4620 F   0  0  0  0  0  0  0  0  0  0  0  0
   37.9470   29.2390   36.4840 F   0  0  0  0  0  0  0  0  0  0  0  0
   37.3590   28.0560   41.2060 C   0  0  0  0  0  0  0  0  0  0  0  0
   37.0730   27.9470   42.5750 C   0  0  0  0  0  0  0  0  0  0  0  0
   38.1890   28.0070   43.4440 C   0  0  0  0  0  0  0  0  0  0  0  0
   39.4240   28.1590   42.9060 N   0  0  0  0  0  0  0  0  0  0  0  0
   39.6240   28.2560   41.5760 C   0  0  0  0  0  0  0  0  0  0  0  0
   38.5850   28.2050   40.7110 N   0  0  0  0  0  0  0  0  0  0  0  0
   36.0600   27.8270   42.9290 H   0  0  0  0  0  0  0  0  0  0  0  0
   37.9640   27.9250   44.4900 H   0  0  0  0  0  0  0  0  0  0  0  0
   40.6620   28.3690   41.3630 H   0  0  0  0  0  0  0  0  0  0  0  0
  1  4  1  6  0  0  0
  1  2  1  0  0  0  0
  1 22  1  0  0  0  0
  2  6  1  0  0  0  0
  3  7  1  6  0  0  0
  3  1  1  0  0  0  0
  3  2  1  0  0  0  0
  5  2  1  0  0  0  0
  8  3  1  0  0  0  0
  8  9  1  0  0  0  0
  9 14  1  0  0  0  0
 10  9  2  0  0  0  0
 10 15  1  0  0  0  0
 11 10  1  0  0  0  0
 12 13  1  0  0  0  0
 12 11  2  0  0  0  0
 13  8  2  0  0  0  0
 16 11  1  0  0  0  0
 17 12  1  0  0  0  0
 18 13  1  0  0  0  0
 19 18  1  0  0  0  0
 20 18  1  0  0  0  0
 21 18  1  0  0  0  0
 22 23  1  0  0  0  0
 23 28  1  0  0  0  0
 23 24  2  0  0  0  0
 24 29  1  0  0  0  0
 25 24  1  0  0  0  0
 26 25  2  0  0  0  0
 27 22  2  0  0  0  0
 27 26  1  0  0  0  0
 30 26  1  0  0  0  0
M  END
>  <minimizedAffinity>
-5.09330988

$$$$

 OpenBabel03242519003D

 30 32  0  0  1  0  0  0  0  0999 V2000
   38.3640   27.4320   43.6720 C   0  0  1  0  0  0  0  0  0  0  0  0
   37.3140   28.5410   43.6800 C   0  0  0  0  0  0  0  0  0  0  0  0
   37.0210   27.3640   43.0340 C   0  0  1  0  0  0  0  0  0  0  0  0
   38.5590   26.9270   44.6310 H   0  0  0  0  0  0  0  0  0  0  0  0
   36.7800   28.6140   44.7420 H   0  0  0  0  0  0  0  0  0  0  0  0
   37.8000   29.4920   43.6210 H   0  0  0  0  0  0  0  0  0  0  0  0
   36.5340   26.4420   43.4950 H   0  0  0  0  0  0  0  0  0  0  0  0
   36.7820   27.3070   41.5970 C   0  0  0  0  0  0  0  0  0  0  0  0
   36.4470   28.4320   40.8220 C   0  0  0  0  0  0  0  0  0  0  0  0
   36.1640   28.4330   39.4710 C   0  0  0  0  0  0  0  0  0  0  0  0
   36.2170   27.2280   38.8640 C   0  0  0  0  0  0  0  0  0  0  0  0
   36.5400   26.0970   39.5620 C   0  0  0  0  0  0  0  0  0  0  0  0
   36.8230   26.1210   40.9040 C   0  0  0  0  0  0  0  0  0  0  0  0
   36.4260   29.3690   41.4030 H   0  0  0  0  0  0  0  0  0  0  0  0
   35.9340   29.3810   39.0590 H   0  0  0  0  0  0  0  0  0  0  0  0
   35.9780   27.2720   37.7890 H   0  0  0  0  0  0  0  0  0  0  0  0
   36.5280   25.2340   38.8920 H   0  0  0  0  0  0  0  0  0  0  0  0
   37.1450   24.7500   41.3900 C   0  0  0  0  0  0  0  0  0  0  0  0
   36.4450   23.7420   40.6350 F   0  0  0  0  0  0  0  0  0  0  0  0
   36.4740   24.4250   42.5740 F   0  0  0  0  0  0  0  0  0  0  0  0
   38.3630   24.2540   41.1930 F   0  0  0  0  0  0  0  0  0  0  0  0
   39.5850   27.7210   42.8950 C   0  0  0  0  0  0  0  0  0  0  0  0
   40.3350   26.5980   42.5170 C   0  0  0  0  0  0  0  0  0  0  0  0
   41.5030   26.8630   41.7630 C   0  0  0  0  0  0  0  0  0  0  0  0
   41.8070   28.1510   41.4660 N   0  0  0  0  0  0  0  0  0  0  0  0
   41.0370   29.1830   41.8640 C   0  0  0  0  0  0  0  0  0  0  0  0
   39.9130   28.9740   42.5870 N   0  0  0  0  0  0  0  0  0  0  0  0
   40.0280   25.6000   42.7910 H   0  0  0  0  0  0  0  0  0  0  0  0
   42.0740   26.0010   41.4780 H   0  0  0  0  0  0  0  0  0  0  0  0
   41.4490   30.1060   41.5280 H   0  0  0  0  0  0  0  0  0  0  0  0
  1  2  1  0  0  0  0
  1  4  1  1  0  0  0
  2  5  1  0  0  0  0
  3  7  1  1  0  0  0
  3  1  1  0  0  0  0
  3  2  1  0  0  0  0
  6  2  1  0  0  0  0
  8  3  1  0  0  0  0
  9 14  1  0  0  0  0
  9  8  2  0  0  0  0
 10  9  1  0  0  0  0
 11 10  2  0  0  0  0
 11 12  1  0  0  0  0
 12 13  2  0  0  0  0
 13 18  1  0  0  0  0
 13  8  1  0  0  0  0
 15 10  1  0  0  0  0
 16 11  1  0  0  0  0
 17 12  1  0  0  0  0
 18 20  1  0  0  0  0
 19 18  1  0  0  0  0
 21 18  1  0  0  0  0
 22  1  1  0  0  0  0
 23 28  1  0  0  0  0
 23 22  2  0  0  0  0
 24 23  1  0  0  0  0
 25 24  2  0  0  0  0
 25 26  1  0  0  0  0
 26 27  2  0  0  0  0
 27 22  1  0  0  0  0
 29 24  1  0  0  0  0
 30 26  1  0  0  0  0
M  END
>  <minimizedAffinity>
-5.04973316

$$$$

 OpenBabel03242519003D

 30 32  0  0  1  0  0  0  0  0999 V2000
   36.6200   25.2270   40.1120 C   0  0  1  0  0  0  0  0  0  0  0  0
   36.9280   23.8770   40.7600 C   0  0  0  0  0  0  0  0  0  0  0  0
   36.9070   24.9990   41.5550 C   0  0  1  0  0  0  0  0  0  0  0  0
   35.5880   25.3830   39.7610 H   0  0  0  0  0  0  0  0  0  0  0  0
   35.9380   23.2260   40.8790 H   0  0  0  0  0  0  0  0  0  0  0  0
   37.4970   23.2790   40.0810 H   0  0  0  0  0  0  0  0  0  0  0  0
   36.0000   25.4280   42.0960 H   0  0  0  0  0  0  0  0  0  0  0  0
   38.0940   25.4750   42.2540 C   0  0  0  0  0  0  0  0  0  0  0  0
   39.3140   24.7760   42.2750 C   0  0  0  0  0  0  0  0  0  0  0  0
   40.4540   25.1510   42.9570 C   0  0  0  0  0  0  0  0  0  0  0  0
   40.3600   26.2990   43.6630 C   0  0  0  0  0  0  0  0  0  0  0  0
   39.2020   27.0260   43.6790 C   0  0  0  0  0  0  0  0  0  0  0  0
   38.0810   26.6360   42.9900 C   0  0  0  0  0  0  0  0  0  0  0  0
   39.2950   23.8520   41.6740 H   0  0  0  0  0  0  0  0  0  0  0  0
   41.2790   24.4960   42.8520 H   0  0  0  0  0  0  0  0  0  0  0  0
   41.2890   26.5580   44.1960 H   0  0  0  0  0  0  0  0  0  0  0  0
   39.3330   27.9140   44.3030 H   0  0  0  0  0  0  0  0  0  0  0  0
   36.9830   27.6230   43.1870 C   0  0  0  0  0  0  0  0  0  0  0  0
   36.4630   28.0940   41.9280 F   0  0  0  0  0  0  0  0  0  0  0  0
   37.4540   28.8920   43.5430 F   0  0  0  0  0  0  0  0  0  0  0  0
   35.8160   27.2170   43.6790 F   0  0  0  0  0  0  0  0  0  0  0  0
   37.6460   25.7310   39.1810 C   0  0  0  0  0  0  0  0  0  0  0  0
   37.7340   27.1280   39.0850 C   0  0  0  0  0  0  0  0  0  0  0  0
   38.7230   27.6230   38.2010 C   0  0  0  0  0  0  0  0  0  0  0  0
   39.4960   26.7360   37.5270 N   0  0  0  0  0  0  0  0  0  0  0  0
   39.3550   25.4030   37.6690 C   0  0  0  0  0  0  0  0  0  0  0  0
   38.4210   24.8880   38.5030 N   0  0  0  0  0  0  0  0  0  0  0  0
   37.0820   27.7710   39.6560 H   0  0  0  0  0  0  0  0  0  0  0  0
   38.7850   28.6920   38.1310 H   0  0  0  0  0  0  0  0  0  0  0  0
   40.0560   24.8870   37.0560 H   0  0  0  0  0  0  0  0  0  0  0  0
  1  4  1  6  0  0  0
  1  2  1  0  0  0  0
  1  3  1  0  0  0  0
  2  5  1  0  0  0  0
  2  3  1  0  0  0  0
  3  7  1  1  0  0  0
  3  8  1  0  0  0  0
  6  2  1  0  0  0  0
  8  9  2  0  0  0  0
  8 13  1  0  0  0  0
  9 10  1  0  0  0  0
 10 11  2  0  0  0  0
 11 12  1  0  0  0  0
 11 16  1  0  0  0  0
 12 17  1  0  0  0  0
 13 18  1  0  0  0  0
 13 12  2  0  0  0  0
 14  9  1  0  0  0  0
 15 10  1  0  0  0  0
 18 20  1  0  0  0  0
 18 21  1  0  0  0  0
 19 18  1  0  0  0  0
 22  1  1  0  0  0  0
 23 22  1  0  0  0  0
 23 28  1  0  0  0  0
 24 23  2  0  0  0  0
 25 26  2  0  0  0  0
 25 24  1  0  0  0  0
 26 27  1  0  0  0  0
 27 22  2  0  0  0  0
 29 24  1  0  0  0  0
 30 26  1  0  0  0  0
M  END
>  <minimizedAffinity>
-5.04907131

$$$$

 OpenBabel03242519003D

 30 32  0  0  1  0  0  0  0  0999 V2000
   35.9860   29.4230   39.5020 C   0  0  1  0  0  0  0  0  0  0  0  0
   36.3620   28.0240   39.0170 C   0  0  0  0  0  0  0  0  0  0  0  0
   35.9160   28.1730   40.3080 C   0  0  1  0  0  0  0  0  0  0  0  0
   35.0750   29.8680   39.0720 H   0  0  0  0  0  0  0  0  0  0  0  0
   35.5200   27.5810   38.3000 H   0  0  0  0  0  0  0  0  0  0  0  0
   37.1960   28.0920   38.3500 H   0  0  0  0  0  0  0  0  0  0  0  0
   34.8320   28.1230   40.6600 H   0  0  0  0  0  0  0  0  0  0  0  0
   36.7590   27.8750   41.4590 C   0  0  0  0  0  0  0  0  0  0  0  0
   37.0350   28.8030   42.4780 C   0  0  0  0  0  0  0  0  0  0  0  0
   37.8620   28.5960   43.5640 C   0  0  0  0  0  0  0  0  0  0  0  0
   38.4490   27.3810   43.6260 C   0  0  0  0  0  0  0  0  0  0  0  0
   38.2170   26.4340   42.6680 C   0  0  0  0  0  0  0  0  0  0  0  0
   37.3870   26.6600   41.5980 C   0  0  0  0  0  0  0  0  0  0  0  0
   36.5150   29.7650   42.3420 H   0  0  0  0  0  0  0  0  0  0  0  0
   37.9460   29.4150   44.2300 H   0  0  0  0  0  0  0  0  0  0  0  0
   39.1050   27.2600   44.5030 H   0  0  0  0  0  0  0  0  0  0  0  0
   38.7810   25.5270   42.9010 H   0  0  0  0  0  0  0  0  0  0  0  0
   37.3210   25.4530   40.7290 C   0  0  0  0  0  0  0  0  0  0  0  0
   37.8500   24.2900   41.3960 F   0  0  0  0  0  0  0  0  0  0  0  0
   38.3270   25.4340   39.7550 F   0  0  0  0  0  0  0  0  0  0  0  0
   36.1390   24.9210   40.4320 F   0  0  0  0  0  0  0  0  0  0  0  0
   37.1080   30.3730   39.6280 C   0  0  0  0  0  0  0  0  0  0  0  0
   36.8020   31.5780   40.2790 C   0  0  0  0  0  0  0  0  0  0  0  0
   37.8740   32.4930   40.4140 C   0  0  0  0  0  0  0  0  0  0  0  0
   39.0880   32.1490   39.9190 N   0  0  0  0  0  0  0  0  0  0  0  0
   39.3090   30.9700   39.3040 C   0  0  0  0  0  0  0  0  0  0  0  0
   38.3120   30.0680   39.1530 N   0  0  0  0  0  0  0  0  0  0  0  0
   35.8080   31.7800   40.6470 H   0  0  0  0  0  0  0  0  0  0  0  0
   37.6350   33.4130   40.9110 H   0  0  0  0  0  0  0  0  0  0  0  0
   40.3250   30.8970   38.9930 H   0  0  0  0  0  0  0  0  0  0  0  0
  1  4  1  6  0  0  0
  1 22  1  0  0  0  0
  1  3  1  0  0  0  0
  2  1  1  0  0  0  0
  2  3  1  0  0  0  0
  3  7  1  1  0  0  0
  3  8  1  0  0  0  0
  5  2  1  0  0  0  0
  6  2  1  0  0  0  0
  8 13  2  0  0  0  0
  8  9  1  0  0  0  0
  9 10  2  0  0  0  0
 10 11  1  0  0  0  0
 10 15  1  0  0  0  0
 11 16  1  0  0  0  0
 12 17  1  0  0  0  0
 12 11  2  0  0  0  0
 13 12  1  0  0  0  0
 14  9  1  0  0  0  0
 18 19  1  0  0  0  0
 18 13  1  0  0  0  0
 20 18  1  0  0  0  0
 21 18  1  0  0  0  0
 22 23  1  0  0  0  0
 23 24  2  0  0  0  0
 23 28  1  0  0  0  0
 24 29  1  0  0  0  0
 25 24  1  0  0  0  0
 26 25  2  0  0  0  0
 27 26  1  0  0  0  0
 27 22  2  0  0  0  0
 30 26  1  0  0  0  0
M  END
>  <minimizedAffinity>
-5.01354742

$$$$

 OpenBabel03242519003D

 30 32  0  0  1  0  0  0  0  0999 V2000
   37.5200   31.3430   38.0410 C   0  0  1  0  0  0  0  0  0  0  0  0
   36.6490   30.1290   38.3630 C   0  0  0  0  0  0  0  0  0  0  0  0
   36.8860   31.0490   39.3560 C   0  0  1  0  0  0  0  0  0  0  0  0
   37.0890   32.0960   37.3630 H   0  0  0  0  0  0  0  0  0  0  0  0
   35.5610   30.2490   37.8920 H   0  0  0  0  0  0  0  0  0  0  0  0
   37.0170   29.2770   37.8320 H   0  0  0  0  0  0  0  0  0  0  0  0
   36.2630   31.9760   39.5840 H   0  0  0  0  0  0  0  0  0  0  0  0
   37.6120   30.7060   40.5730 C   0  0  0  0  0  0  0  0  0  0  0  0
   38.7230   31.4280   41.0420 C   0  0  0  0  0  0  0  0  0  0  0  0
   39.4780   31.1240   42.1570 C   0  0  0  0  0  0  0  0  0  0  0  0
   39.0930   30.0240   42.8400 C   0  0  0  0  0  0  0  0  0  0  0  0
   38.0180   29.2820   42.4370 C   0  0  0  0  0  0  0  0  0  0  0  0
   37.2780   29.6050   41.3260 C   0  0  0  0  0  0  0  0  0  0  0  0
   38.9640   32.3060   40.4210 H   0  0  0  0  0  0  0  0  0  0  0  0
   40.2790   31.7880   42.3540 H   0  0  0  0  0  0  0  0  0  0  0  0
   39.7250   29.8140   43.7180 H   0  0  0  0  0  0  0  0  0  0  0  0
   37.8730   28.4410   43.1190 H   0  0  0  0  0  0  0  0  0  0  0  0
   36.1710   28.6270   41.1380 C   0  0  0  0  0  0  0  0  0  0  0  0
   35.9260   27.8680   42.3380 F   0  0  0  0  0  0  0  0  0  0  0  0
   36.5690   27.4920   40.4220 F   0  0  0  0  0  0  0  0  0  0  0  0
   34.9250   29.0670   40.9900 F   0  0  0  0  0  0  0  0  0  0  0  0
   38.9410   31.0490   37.7750 C   0  0  0  0  0  0  0  0  0  0  0  0
   39.2640   29.6870   37.6810 C   0  0  0  0  0  0  0  0  0  0  0  0
   40.6230   29.3940   37.4160 C   0  0  0  0  0  0  0  0  0  0  0  0
   41.4950   30.4230   37.2740 N   0  0  0  0  0  0  0  0  0  0  0  0
   41.1120   31.7110   37.3780 C   0  0  0  0  0  0  0  0  0  0  0  0
   39.8230   32.0350   37.6310 N   0  0  0  0  0  0  0  0  0  0  0  0
   38.5120   28.9230   37.8060 H   0  0  0  0  0  0  0  0  0  0  0  0
   40.8640   28.3510   37.3460 H   0  0  0  0  0  0  0  0  0  0  0  0
   41.9450   32.3590   37.2330 H   0  0  0  0  0  0  0  0  0  0  0  0
  1  4  1  6  0  0  0
  1  2  1  0  0  0  0
  1  3  1  0  0  0  0
  2  3  1  0  0  0  0
  3  7  1  1  0  0  0
  3  8  1  0  0  0  0
  5  2  1  0  0  0  0
  6  2  1  0  0  0  0
  8  9  2  0  0  0  0
  8 13  1  0  0  0  0
  9 10  1  0  0  0  0
 10 15  1  0  0  0  0
 10 11  2  0  0  0  0
 11 16  1  0  0  0  0
 12 11  1  0  0  0  0
 12 17  1  0  0  0  0
 13 12  2  0  0  0  0
 14  9  1  0  0  0  0
 18 13  1  0  0  0  0
 18 19  1  0  0  0  0
 20 18  1  0  0  0  0
 21 18  1  0  0  0  0
 22  1  1  0  0  0  0
 23 22  1  0  0  0  0
 23 28  1  0  0  0  0
 24 23  2  0  0  0  0
 25 26  2  0  0  0  0
 25 24  1  0  0  0  0
 26 27  1  0  0  0  0
 27 22  2  0  0  0  0
 29 24  1  0  0  0  0
 30 26  1  0  0  0  0
M  END
>  <minimizedAffinity>
-5.00950909

$$$$

 OpenBabel03242519003D

 30 32  0  0  1  0  0  0  0  0999 V2000
   37.5140   28.6310   42.8340 C   0  0  1  0  0  0  0  0  0  0  0  0
   36.5790   27.7670   43.6800 C   0  0  0  0  0  0  0  0  0  0  0  0
   37.8230   27.2750   43.3640 C   0  0  1  0  0  0  0  0  0  0  0  0
   37.9260   29.5320   43.3150 H   0  0  0  0  0  0  0  0  0  0  0  0
   36.5280   28.1670   44.8000 H   0  0  0  0  0  0  0  0  0  0  0  0
   35.5710   27.9110   43.3550 H   0  0  0  0  0  0  0  0  0  0  0  0
   38.7810   27.4180   43.9660 H   0  0  0  0  0  0  0  0  0  0  0  0
   38.0000   26.0810   42.5470 C   0  0  0  0  0  0  0  0  0  0  0  0
   36.9410   25.2330   42.1750 C   0  0  0  0  0  0  0  0  0  0  0  0
   37.0520   24.0670   41.4460 C   0  0  0  0  0  0  0  0  0  0  0  0
   38.3060   23.7310   41.0710 C   0  0  0  0  0  0  0  0  0  0  0  0
   39.3760   24.5150   41.3980 C   0  0  0  0  0  0  0  0  0  0  0  0
   39.2420   25.6750   42.1210 C   0  0  0  0  0  0  0  0  0  0  0  0
   35.9580   25.5860   42.5270 H   0  0  0  0  0  0  0  0  0  0  0  0
   36.1400   23.5610   41.2610 H   0  0  0  0  0  0  0  0  0  0  0  0
   38.3500   22.7910   40.4970 H   0  0  0  0  0  0  0  0  0  0  0  0
   40.2940   24.0720   41.0030 H   0  0  0  0  0  0  0  0  0  0  0  0
   40.5700   26.3190   42.3180 C   0  0  0  0  0  0  0  0  0  0  0  0
   40.7500   26.7550   43.6790 F   0  0  0  0  0  0  0  0  0  0  0  0
   40.6140   27.6280   41.8220 F   0  0  0  0  0  0  0  0  0  0  0  0
   41.6740   25.5800   42.2570 F   0  0  0  0  0  0  0  0  0  0  0  0
   37.0860   28.8470   41.4380 C   0  0  0  0  0  0  0  0  0  0  0  0
   38.1170   29.1530   40.5370 C   0  0  0  0  0  0  0  0  0  0  0  0
   37.7200   29.3530   39.1930 C   0  0  0  0  0  0  0  0  0  0  0  0
   36.4060   29.2350   38.8790 N   0  0  0  0  0  0  0  0  0  0  0  0
   35.4680   28.9360   39.8000 C   0  0  0  0  0  0  0  0  0  0  0  0
   35.8050   28.7390   41.0960 N   0  0  0  0  0  0  0  0  0  0  0  0
   39.1430   29.2300   40.8630 H   0  0  0  0  0  0  0  0  0  0  0  0
   38.5110   29.5880   38.5080 H   0  0  0  0  0  0  0  0  0  0  0  0
   34.5050   28.8900   39.3490 H   0  0  0  0  0  0  0  0  0  0  0  0
  1  4  1  1  0  0  0
  1  3  1  0  0  0  0
  1  2  1  0  0  0  0
  2  5  1  0  0  0  0
  3  2  1  0  0  0  0
  3  7  1  1  0  0  0
  6  2  1  0  0  0  0
  8  3  1  0  0  0  0
  9 14  1  0  0  0  0
  9  8  1  0  0  0  0
 10  9  2  0  0  0  0
 11 12  2  0  0  0  0
 11 10  1  0  0  0  0
 12 13  1  0  0  0  0
 13 18  1  0  0  0  0
 13  8  2  0  0  0  0
 15 10  1  0  0  0  0
 16 11  1  0  0  0  0
 17 12  1  0  0  0  0
 18 19  1  0  0  0  0
 20 18  1  0  0  0  0
 21 18  1  0  0  0  0
 22  1  1  0  0  0  0
 23 28  1  0  0  0  0
 23 22  2  0  0  0  0
 24 23  1  0  0  0  0
 25 24  2  0  0  0  0
 25 26  1  0  0  0  0
 26 27  2  0  0  0  0
 27 22  1  0  0  0  0
 29 24  1  0  0  0  0
 30 26  1  0  0  0  0
M  END
>  <minimizedAffinity>
-4.94157743

$$$$
