
 OpenBabel03252507583D

 22 23  0  0  1  0  0  0  0  0999 V2000
   37.1380   30.7980   38.2870 C   0  0  0  0  0  0  0  0  0  0  0  0
   37.2700   32.0290   38.9780 C   0  0  0  0  0  0  0  0  0  0  0  0
   36.9870   32.0090   40.3500 C   0  0  0  0  0  0  0  0  0  0  0  0
   36.6110   30.8320   40.9270 N   0  0  0  0  0  0  0  0  0  0  0  0
   36.5060   29.6860   40.1950 C   0  0  0  0  0  0  0  0  0  0  0  0
   36.7600   29.6490   38.9000 N   0  0  0  0  0  0  0  0  0  0  0  0
   37.5730   32.9300   38.4630 H   0  0  0  0  0  0  0  0  0  0  0  0
   37.0720   32.9150   40.9170 H   0  0  0  0  0  0  0  0  0  0  0  0
   36.1010   28.4360   40.8990 C   0  0  1  0  0  0  0  0  0  0  0  0
   36.5600   27.1060   40.3940 C   0  0  0  0  0  0  0  0  0  0  0  0
   37.2220   27.7200   41.5810 C   0  0  2  0  0  0  0  0  0  0  0  0
   35.1420   28.5100   41.4030 H   0  0  0  0  0  0  0  0  0  0  0  0
   35.8080   26.2910   40.5010 H   0  0  0  0  0  0  0  0  0  0  0  0
   37.0090   27.1590   39.3780 H   0  0  0  0  0  0  0  0  0  0  0  0
   38.2820   28.0480   41.3740 H   0  0  0  0  0  0  0  0  0  0  0  0
   37.0110   26.9760   42.8720 C   0  0  0  0  0  0  0  0  0  0  0  0
   38.1480   27.0750   43.6790 F   0  0  0  0  0  0  0  0  0  0  0  0
   35.9410   27.4280   43.6060 F   0  0  0  0  0  0  0  0  0  0  0  0
   36.8340   25.6290   42.6590 F   0  0  0  0  0  0  0  0  0  0  0  0
   37.4490   30.8620   36.8840 C   0  0  0  0  0  0  0  0  0  0  0  0
   36.8930   30.1580   35.9830 O   0  0  0  0  0  0  0  0  0  0  0  0
   38.1530   31.4580   36.2960 H   0  0  0  0  0  0  0  0  0  0  0  0
  1  6  2  0  0  0  0
  1  2  1  0  0  0  0
  2  3  2  0  0  0  0
  3  8  1  0  0  0  0
  3  4  1  0  0  0  0
  5  9  1  0  0  0  0
  5  4  2  0  0  0  0
  6  5  1  0  0  0  0
  7  2  1  0  0  0  0
  9 12  1  1  0  0  0
  9 11  1  0  0  0  0
 10 13  1  0  0  0  0
 10  9  1  0  0  0  0
 10 11  1  0  0  0  0
 11 15  1  6  0  0  0
 11 16  1  0  0  0  0
 14 10  1  0  0  0  0
 16 18  1  0  0  0  0
 16 17  1  0  0  0  0
 19 16  1  0  0  0  0
 20  1  1  0  0  0  0
 21 20  2  0  0  0  0
 22 20  1  0  0  0  0
M  END
>  <minimizedAffinity>
-4.44114017

$$$$

 OpenBabel03252507583D

 22 23  0  0  1  0  0  0  0  0999 V2000
   39.5440   25.6110   43.0100 C   0  0  0  0  0  0  0  0  0  0  0  0
   39.0180   24.3620   42.5910 C   0  0  0  0  0  0  0  0  0  0  0  0
   37.6920   24.3610   42.1420 C   0  0  0  0  0  0  0  0  0  0  0  0
   36.9990   25.5360   42.1320 N   0  0  0  0  0  0  0  0  0  0  0  0
   37.5730   26.6990   42.5510 C   0  0  0  0  0  0  0  0  0  0  0  0
   38.8190   26.7580   42.9850 N   0  0  0  0  0  0  0  0  0  0  0  0
   39.6190   23.4640   42.6230 H   0  0  0  0  0  0  0  0  0  0  0  0
   37.2490   23.4410   41.8150 H   0  0  0  0  0  0  0  0  0  0  0  0
   36.7570   27.9460   42.4990 C   0  0  1  0  0  0  0  0  0  0  0  0
   37.4140   29.2820   42.6310 C   0  0  0  0  0  0  0  0  0  0  0  0
   36.9920   28.7890   41.2880 C   0  0  2  0  0  0  0  0  0  0  0  0
   35.7400   27.8170   42.8590 H   0  0  0  0  0  0  0  0  0  0  0  0
   36.8130   30.0340   43.1920 H   0  0  0  0  0  0  0  0  0  0  0  0
   38.4680   29.2150   42.9770 H   0  0  0  0  0  0  0  0  0  0  0  0
   37.8650   28.5420   40.6150 H   0  0  0  0  0  0  0  0  0  0  0  0
   35.8810   29.5790   40.6500 C   0  0  0  0  0  0  0  0  0  0  0  0
   36.1620   29.8070   39.3000 F   0  0  0  0  0  0  0  0  0  0  0  0
   34.6530   28.9660   40.7190 F   0  0  0  0  0  0  0  0  0  0  0  0
   35.7580   30.8280   41.2120 F   0  0  0  0  0  0  0  0  0  0  0  0
   40.9110   25.5690   43.4540 C   0  0  0  0  0  0  0  0  0  0  0  0
   41.8310   24.8800   42.9110 O   0  0  0  0  0  0  0  0  0  0  0  0
   41.4520   26.0560   44.2710 H   0  0  0  0  0  0  0  0  0  0  0  0
  1 20  1  0  0  0  0
  2  7  1  0  0  0  0
  2  1  2  0  0  0  0
  3  2  1  0  0  0  0
  4  3  2  0  0  0  0
  4  5  1  0  0  0  0
  5  6  2  0  0  0  0
  6  1  1  0  0  0  0
  8  3  1  0  0  0  0
  9  5  1  0  0  0  0
  9 10  1  0  0  0  0
  9 12  1  1  0  0  0
 10 14  1  0  0  0  0
 10 13  1  0  0  0  0
 11 15  1  6  0  0  0
 11  9  1  0  0  0  0
 11 10  1  0  0  0  0
 16 18  1  0  0  0  0
 16 19  1  0  0  0  0
 16 11  1  0  0  0  0
 17 16  1  0  0  0  0
 20 22  1  0  0  0  0
 21 20  2  0  0  0  0
M  END
>  <minimizedAffinity>
-4.38174868

$$$$

 OpenBabel03252507583D

 22 23  0  0  1  0  0  0  0  0999 V2000
   37.3160   31.7250   39.7730 C   0  0  0  0  0  0  0  0  0  0  0  0
   37.3480   31.6520   38.3570 C   0  0  0  0  0  0  0  0  0  0  0  0
   36.9720   30.4300   37.7850 C   0  0  0  0  0  0  0  0  0  0  0  0
   36.6040   29.4050   38.6060 N   0  0  0  0  0  0  0  0  0  0  0  0
   36.5980   29.5510   39.9620 C   0  0  0  0  0  0  0  0  0  0  0  0
   36.9440   30.6800   40.5530 N   0  0  0  0  0  0  0  0  0  0  0  0
   37.6500   32.5010   37.7600 H   0  0  0  0  0  0  0  0  0  0  0  0
   36.9810   30.3250   36.7180 H   0  0  0  0  0  0  0  0  0  0  0  0
   36.1720   28.3890   40.7930 C   0  0  1  0  0  0  0  0  0  0  0  0
   36.5740   27.0020   40.4090 C   0  0  0  0  0  0  0  0  0  0  0  0
   37.2880   27.7040   41.5140 C   0  0  2  0  0  0  0  0  0  0  0  0
   35.2300   28.5450   41.3110 H   0  0  0  0  0  0  0  0  0  0  0  0
   35.7990   26.2280   40.6140 H   0  0  0  0  0  0  0  0  0  0  0  0
   36.9960   26.9400   39.3830 H   0  0  0  0  0  0  0  0  0  0  0  0
   38.3520   27.9730   41.2510 H   0  0  0  0  0  0  0  0  0  0  0  0
   37.0890   27.0950   42.8770 C   0  0  0  0  0  0  0  0  0  0  0  0
   38.3070   27.0300   43.5600 F   0  0  0  0  0  0  0  0  0  0  0  0
   36.2050   27.7860   43.6700 F   0  0  0  0  0  0  0  0  0  0  0  0
   36.6490   25.7950   42.7930 F   0  0  0  0  0  0  0  0  0  0  0  0
   37.6990   33.0000   40.3160 C   0  0  0  0  0  0  0  0  0  0  0  0
   37.4250   34.1260   39.7940 O   0  0  0  0  0  0  0  0  0  0  0  0
   38.2550   33.3000   41.2100 H   0  0  0  0  0  0  0  0  0  0  0  0
  1 20  1  0  0  0  0
  1  6  1  0  0  0  0
  2  1  2  0  0  0  0
  3  2  1  0  0  0  0
  3  4  2  0  0  0  0
  4  5  1  0  0  0  0
  5  6  2  0  0  0  0
  5  9  1  0  0  0  0
  7  2  1  0  0  0  0
  8  3  1  0  0  0  0
  9 12  1  1  0  0  0
  9 11  1  0  0  0  0
 10 13  1  0  0  0  0
 10  9  1  0  0  0  0
 10 11  1  0  0  0  0
 11 15  1  6  0  0  0
 11 16  1  0  0  0  0
 14 10  1  0  0  0  0
 16 17  1  0  0  0  0
 16 18  1  0  0  0  0
 19 16  1  0  0  0  0
 20 22  1  0  0  0  0
 21 20  2  0  0  0  0
M  END
>  <minimizedAffinity>
-4.35904837

$$$$

 OpenBabel03252507583D

 22 23  0  0  1  0  0  0  0  0999 V2000
   38.0000   24.5720   41.8160 C   0  0  0  0  0  0  0  0  0  0  0  0
   39.1970   24.4350   42.5650 C   0  0  0  0  0  0  0  0  0  0  0  0
   39.6030   25.5530   43.3050 C   0  0  0  0  0  0  0  0  0  0  0  0
   38.8390   26.6820   43.2630 N   0  0  0  0  0  0  0  0  0  0  0  0
   37.6980   26.7380   42.5190 C   0  0  0  0  0  0  0  0  0  0  0  0
   37.2700   25.7150   41.8020 N   0  0  0  0  0  0  0  0  0  0  0  0
   39.7590   23.5120   42.5560 H   0  0  0  0  0  0  0  0  0  0  0  0
   40.5010   25.4990   43.8870 H   0  0  0  0  0  0  0  0  0  0  0  0
   36.9090   28.0030   42.5330 C   0  0  1  0  0  0  0  0  0  0  0  0
   37.5980   29.3170   42.7140 C   0  0  0  0  0  0  0  0  0  0  0  0
   37.1480   28.8940   41.3570 C   0  0  2  0  0  0  0  0  0  0  0  0
   35.8940   27.8800   42.9010 H   0  0  0  0  0  0  0  0  0  0  0  0
   37.0210   30.0570   43.3150 H   0  0  0  0  0  0  0  0  0  0  0  0
   38.6540   29.2120   43.0430 H   0  0  0  0  0  0  0  0  0  0  0  0
   38.0060   28.6570   40.6620 H   0  0  0  0  0  0  0  0  0  0  0  0
   36.0470   29.7350   40.7680 C   0  0  0  0  0  0  0  0  0  0  0  0
   36.3580   30.0890   39.4530 F   0  0  0  0  0  0  0  0  0  0  0  0
   34.8210   29.1130   40.7520 F   0  0  0  0  0  0  0  0  0  0  0  0
   35.9040   30.9260   41.4410 F   0  0  0  0  0  0  0  0  0  0  0  0
   37.6160   23.3980   41.0800 C   0  0  0  0  0  0  0  0  0  0  0  0
   38.4250   22.5620   40.5690 O   0  0  0  0  0  0  0  0  0  0  0  0
   36.6490   22.9670   40.8030 H   0  0  0  0  0  0  0  0  0  0  0  0
  1  2  1  0  0  0  0
  2  3  2  0  0  0  0
  3  8  1  0  0  0  0
  4  3  1  0  0  0  0
  5  9  1  0  0  0  0
  5  4  2  0  0  0  0
  6  1  2  0  0  0  0
  6  5  1  0  0  0  0
  7  2  1  0  0  0  0
  9 10  1  0  0  0  0
  9 12  1  1  0  0  0
 10 14  1  0  0  0  0
 10 13  1  0  0  0  0
 11 15  1  6  0  0  0
 11  9  1  0  0  0  0
 11 10  1  0  0  0  0
 16 11  1  0  0  0  0
 16 19  1  0  0  0  0
 17 16  1  0  0  0  0
 18 16  1  0  0  0  0
 20  1  1  0  0  0  0
 21 20  2  0  0  0  0
 22 20  1  0  0  0  0
M  END
>  <minimizedAffinity>
-4.33922291

$$$$

 OpenBabel03252507583D

 22 23  0  0  1  0  0  0  0  0999 V2000
   37.9470   26.4180   42.3430 C   0  0  0  0  0  0  0  0  0  0  0  0
   38.7850   27.2150   43.1640 C   0  0  0  0  0  0  0  0  0  0  0  0
   38.5010   28.5870   43.2030 C   0  0  0  0  0  0  0  0  0  0  0  0
   37.4570   29.0640   42.4660 N   0  0  0  0  0  0  0  0  0  0  0  0
   36.6940   28.2330   41.7000 C   0  0  0  0  0  0  0  0  0  0  0  0
   36.9180   26.9340   41.6250 N   0  0  0  0  0  0  0  0  0  0  0  0
   39.5980   26.7770   43.7250 H   0  0  0  0  0  0  0  0  0  0  0  0
   39.1070   29.2310   43.8090 H   0  0  0  0  0  0  0  0  0  0  0  0
   35.5620   28.8260   40.9310 C   0  0  1  0  0  0  0  0  0  0  0  0
   35.7220   30.1510   40.2580 C   0  0  0  0  0  0  0  0  0  0  0  0
   35.7860   28.8960   39.4550 C   0  0  2  0  0  0  0  0  0  0  0  0
   34.5830   28.5340   41.3000 H   0  0  0  0  0  0  0  0  0  0  0  0
   34.8070   30.7870   40.2750 H   0  0  0  0  0  0  0  0  0  0  0  0
   36.6390   30.6920   40.5760 H   0  0  0  0  0  0  0  0  0  0  0  0
   36.8190   28.6820   39.0520 H   0  0  0  0  0  0  0  0  0  0  0  0
   34.6560   28.7170   38.4770 C   0  0  0  0  0  0  0  0  0  0  0  0
   34.8460   29.5370   37.3620 F   0  0  0  0  0  0  0  0  0  0  0  0
   34.5120   27.4270   38.0240 F   0  0  0  0  0  0  0  0  0  0  0  0
   33.4530   29.1090   39.0160 F   0  0  0  0  0  0  0  0  0  0  0  0
   38.2670   25.0170   42.3410 C   0  0  0  0  0  0  0  0  0  0  0  0
   37.4690   24.0880   41.9990 O   0  0  0  0  0  0  0  0  0  0  0  0
   39.1680   24.4510   42.5980 H   0  0  0  0  0  0  0  0  0  0  0  0
  1  2  1  0  0  0  0
  2  3  2  0  0  0  0
  2  7  1  0  0  0  0
  3  8  1  0  0  0  0
  4  3  1  0  0  0  0
  5  4  2  0  0  0  0
  6  5  1  0  0  0  0
  6  1  2  0  0  0  0
  9 12  1  1  0  0  0
  9  5  1  0  0  0  0
 10 13  1  0  0  0  0
 10 14  1  0  0  0  0
 10  9  1  0  0  0  0
 11 15  1  6  0  0  0
 11 10  1  0  0  0  0
 11  9  1  0  0  0  0
 16 19  1  0  0  0  0
 16 11  1  0  0  0  0
 17 16  1  0  0  0  0
 18 16  1  0  0  0  0
 20  1  1  0  0  0  0
 20 22  1  0  0  0  0
 21 20  2  0  0  0  0
M  END
>  <minimizedAffinity>
-4.25485945

$$$$

 OpenBabel03252507583D

 22 23  0  0  1  0  0  0  0  0999 V2000
   37.1760   26.8980   41.7570 C   0  0  0  0  0  0  0  0  0  0  0  0
   37.5810   27.1850   43.0860 C   0  0  0  0  0  0  0  0  0  0  0  0
   37.6180   28.5370   43.4510 C   0  0  0  0  0  0  0  0  0  0  0  0
   37.2680   29.4770   42.5270 N   0  0  0  0  0  0  0  0  0  0  0  0
   36.8880   29.1240   41.2660 C   0  0  0  0  0  0  0  0  0  0  0  0
   36.8360   27.8660   40.8690 N   0  0  0  0  0  0  0  0  0  0  0  0
   37.8470   26.3930   43.7720 H   0  0  0  0  0  0  0  0  0  0  0  0
   37.9190   28.8040   44.4440 H   0  0  0  0  0  0  0  0  0  0  0  0
   36.5080   30.2080   40.3150 C   0  0  1  0  0  0  0  0  0  0  0  0
   36.9350   31.6170   40.5720 C   0  0  0  0  0  0  0  0  0  0  0  0
   37.6550   30.7950   39.5570 C   0  0  2  0  0  0  0  0  0  0  0  0
   35.5740   30.0230   39.7930 H   0  0  0  0  0  0  0  0  0  0  0  0
   36.1830   32.3840   40.2750 H   0  0  0  0  0  0  0  0  0  0  0  0
   37.3360   31.7690   41.5970 H   0  0  0  0  0  0  0  0  0  0  0  0
   38.7070   30.5290   39.8710 H   0  0  0  0  0  0  0  0  0  0  0  0
   37.5000   31.2710   38.1380 C   0  0  0  0  0  0  0  0  0  0  0  0
   37.0860   32.6060   38.1170 F   0  0  0  0  0  0  0  0  0  0  0  0
   38.6520   31.1830   37.3940 F   0  0  0  0  0  0  0  0  0  0  0  0
   36.5180   30.5740   37.4730 F   0  0  0  0  0  0  0  0  0  0  0  0
   37.1420   25.4990   41.4290 C   0  0  0  0  0  0  0  0  0  0  0  0
   36.7050   24.5820   42.1930 O   0  0  0  0  0  0  0  0  0  0  0  0
   37.4440   24.9260   40.5470 H   0  0  0  0  0  0  0  0  0  0  0  0
  1  2  1  0  0  0  0
  2  3  2  0  0  0  0
  2  7  1  0  0  0  0
  3  8  1  0  0  0  0
  4  3  1  0  0  0  0
  5  4  2  0  0  0  0
  6  5  1  0  0  0  0
  6  1  2  0  0  0  0
  9 12  1  6  0  0  0
  9 10  1  0  0  0  0
  9  5  1  0  0  0  0
 10 14  1  0  0  0  0
 11 15  1  1  0  0  0
 11  9  1  0  0  0  0
 11 10  1  0  0  0  0
 13 10  1  0  0  0  0
 16 11  1  0  0  0  0
 17 16  1  0  0  0  0
 18 16  1  0  0  0  0
 19 16  1  0  0  0  0
 20  1  1  0  0  0  0
 20 21  2  0  0  0  0
 22 20  1  0  0  0  0
M  END
>  <minimizedAffinity>
-4.20486879

$$$$

 OpenBabel03252507583D

 22 23  0  0  1  0  0  0  0  0999 V2000
   37.4370   30.9100   40.8050 C   0  0  0  0  0  0  0  0  0  0  0  0
   36.1970   30.7990   40.1270 C   0  0  0  0  0  0  0  0  0  0  0  0
   35.4630   29.6260   40.3520 C   0  0  0  0  0  0  0  0  0  0  0  0
   35.9750   28.6820   41.1930 N   0  0  0  0  0  0  0  0  0  0  0  0
   37.1770   28.8610   41.8100 C   0  0  0  0  0  0  0  0  0  0  0  0
   37.9090   29.9450   41.6330 N   0  0  0  0  0  0  0  0  0  0  0  0
   35.8460   31.5840   39.4720 H   0  0  0  0  0  0  0  0  0  0  0  0
   34.5190   29.4960   39.8610 H   0  0  0  0  0  0  0  0  0  0  0  0
   37.6650   27.7890   42.7250 C   0  0  1  0  0  0  0  0  0  0  0  0
   36.7280   26.7300   43.2090 C   0  0  0  0  0  0  0  0  0  0  0  0
   37.6960   26.4240   42.1160 C   0  0  2  0  0  0  0  0  0  0  0  0
   38.4890   28.0990   43.3610 H   0  0  0  0  0  0  0  0  0  0  0  0
   36.9100   26.4020   44.2580 H   0  0  0  0  0  0  0  0  0  0  0  0
   35.6620   26.9640   43.0010 H   0  0  0  0  0  0  0  0  0  0  0  0
   37.1960   26.2630   41.1160 H   0  0  0  0  0  0  0  0  0  0  0  0
   38.7600   25.4230   42.4800 C   0  0  0  0  0  0  0  0  0  0  0  0
   38.1920   24.1590   42.6660 F   0  0  0  0  0  0  0  0  0  0  0  0
   39.7510   25.2980   41.5370 F   0  0  0  0  0  0  0  0  0  0  0  0
   39.3590   25.7330   43.6790 F   0  0  0  0  0  0  0  0  0  0  0  0
   38.1510   32.1330   40.5540 C   0  0  0  0  0  0  0  0  0  0  0  0
   39.0480   32.6200   41.3100 O   0  0  0  0  0  0  0  0  0  0  0  0
   38.1160   32.8710   39.7470 H   0  0  0  0  0  0  0  0  0  0  0  0
  1  6  1  0  0  0  0
  2  3  1  0  0  0  0
  2  1  2  0  0  0  0
  3  4  2  0  0  0  0
  4  5  1  0  0  0  0
  5  9  1  0  0  0  0
  6  5  2  0  0  0  0
  7  2  1  0  0  0  0
  8  3  1  0  0  0  0
  9 10  1  0  0  0  0
  9 12  1  1  0  0  0
 10 13  1  0  0  0  0
 11 15  1  6  0  0  0
 11 16  1  0  0  0  0
 11  9  1  0  0  0  0
 11 10  1  0  0  0  0
 14 10  1  0  0  0  0
 16 17  1  0  0  0  0
 16 19  1  0  0  0  0
 18 16  1  0  0  0  0
 20  1  1  0  0  0  0
 20 21  2  0  0  0  0
 22 20  1  0  0  0  0
M  END
>  <minimizedAffinity>
-4.13543081

$$$$

 OpenBabel03252507583D

 22 23  0  0  1  0  0  0  0  0999 V2000
   38.3980   31.9620   40.7780 C   0  0  0  0  0  0  0  0  0  0  0  0
   37.0550   31.9150   40.3250 C   0  0  0  0  0  0  0  0  0  0  0  0
   36.2650   30.8680   40.8180 C   0  0  0  0  0  0  0  0  0  0  0  0
   36.8210   29.9770   41.6880 N   0  0  0  0  0  0  0  0  0  0  0  0
   38.1230   30.0890   42.0790 C   0  0  0  0  0  0  0  0  0  0  0  0
   38.9120   31.0530   41.6450 N   0  0  0  0  0  0  0  0  0  0  0  0
   36.6730   32.6520   39.6330 H   0  0  0  0  0  0  0  0  0  0  0  0
   35.2430   30.7900   40.5040 H   0  0  0  0  0  0  0  0  0  0  0  0
   38.6570   29.0830   43.0420 C   0  0  1  0  0  0  0  0  0  0  0  0
   37.7950   27.9530   43.5040 C   0  0  0  0  0  0  0  0  0  0  0  0
   38.8410   27.7150   42.4680 C   0  0  2  0  0  0  0  0  0  0  0  0
   39.4170   29.4790   43.7100 H   0  0  0  0  0  0  0  0  0  0  0  0
   37.9520   27.6630   44.5690 H   0  0  0  0  0  0  0  0  0  0  0  0
   36.7250   28.0860   43.2380 H   0  0  0  0  0  0  0  0  0  0  0  0
   38.4100   27.4910   41.4490 H   0  0  0  0  0  0  0  0  0  0  0  0
   39.9700   26.8220   42.9080 C   0  0  0  0  0  0  0  0  0  0  0  0
   40.8860   27.5430   43.6800 F   0  0  0  0  0  0  0  0  0  0  0  0
   39.5640   25.7390   43.6510 F   0  0  0  0  0  0  0  0  0  0  0  0
   40.6900   26.3490   41.8360 F   0  0  0  0  0  0  0  0  0  0  0  0
   39.1700   33.0570   40.2550 C   0  0  0  0  0  0  0  0  0  0  0  0
   39.8600   33.0170   39.1880 O   0  0  0  0  0  0  0  0  0  0  0  0
   39.3430   34.0830   40.5920 H   0  0  0  0  0  0  0  0  0  0  0  0
  1  6  1  0  0  0  0
  2  1  2  0  0  0  0
  2  3  1  0  0  0  0
  3  4  2  0  0  0  0
  4  5  1  0  0  0  0
  5  9  1  0  0  0  0
  6  5  2  0  0  0  0
  7  2  1  0  0  0  0
  8  3  1  0  0  0  0
  9 10  1  0  0  0  0
  9 12  1  1  0  0  0
 10 13  1  0  0  0  0
 11 15  1  6  0  0  0
 11 16  1  0  0  0  0
 11  9  1  0  0  0  0
 11 10  1  0  0  0  0
 14 10  1  0  0  0  0
 16 18  1  0  0  0  0
 16 17  1  0  0  0  0
 19 16  1  0  0  0  0
 20 22  1  0  0  0  0
 20  1  1  0  0  0  0
 21 20  2  0  0  0  0
M  END
>  <minimizedAffinity>
-4.12951517

$$$$

 OpenBabel03252507583D

 22 23  0  0  1  0  0  0  0  0999 V2000
   37.2200   29.9940   38.9800 C   0  0  0  0  0  0  0  0  0  0  0  0
   36.5950   31.1220   39.5700 C   0  0  0  0  0  0  0  0  0  0  0  0
   36.4490   31.0990   40.9630 C   0  0  0  0  0  0  0  0  0  0  0  0
   36.9070   30.0160   41.6540 N   0  0  0  0  0  0  0  0  0  0  0  0
   37.4980   28.9670   41.0160 C   0  0  0  0  0  0  0  0  0  0  0  0
   37.6610   28.9360   39.7060 N   0  0  0  0  0  0  0  0  0  0  0  0
   36.2530   31.9510   38.9660 H   0  0  0  0  0  0  0  0  0  0  0  0
   35.9820   31.9290   41.4550 H   0  0  0  0  0  0  0  0  0  0  0  0
   37.9840   27.8240   41.8410 C   0  0  1  0  0  0  0  0  0  0  0  0
   37.3580   27.5330   43.1660 C   0  0  0  0  0  0  0  0  0  0  0  0
   37.0070   26.7010   41.9790 C   0  0  2  0  0  0  0  0  0  0  0  0
   39.0340   27.5900   41.6870 H   0  0  0  0  0  0  0  0  0  0  0  0
   38.0720   27.1710   43.9410 H   0  0  0  0  0  0  0  0  0  0  0  0
   36.6990   28.3530   43.5240 H   0  0  0  0  0  0  0  0  0  0  0  0
   35.9450   26.8590   41.6280 H   0  0  0  0  0  0  0  0  0  0  0  0
   37.4590   25.2680   42.0590 C   0  0  0  0  0  0  0  0  0  0  0  0
   37.8190   24.8020   40.7920 F   0  0  0  0  0  0  0  0  0  0  0  0
   38.5340   25.0700   42.8940 F   0  0  0  0  0  0  0  0  0  0  0  0
   36.4460   24.4390   42.4780 F   0  0  0  0  0  0  0  0  0  0  0  0
   37.3590   30.0650   37.5500 C   0  0  0  0  0  0  0  0  0  0  0  0
   37.5370   31.1350   36.8890 O   0  0  0  0  0  0  0  0  0  0  0  0
   37.3510   29.3120   36.7560 H   0  0  0  0  0  0  0  0  0  0  0  0
  1  2  2  0  0  0  0
  1  6  1  0  0  0  0
  2  3  1  0  0  0  0
  3  8  1  0  0  0  0
  3  4  2  0  0  0  0
  5  4  1  0  0  0  0
  5  9  1  0  0  0  0
  6  5  2  0  0  0  0
  7  2  1  0  0  0  0
  9 12  1  6  0  0  0
  9 11  1  0  0  0  0
  9 10  1  0  0  0  0
 10 14  1  0  0  0  0
 10 13  1  0  0  0  0
 11 15  1  6  0  0  0
 11 16  1  0  0  0  0
 11 10  1  0  0  0  0
 16 19  1  0  0  0  0
 16 18  1  0  0  0  0
 17 16  1  0  0  0  0
 20  1  1  0  0  0  0
 21 20  2  0  0  0  0
 22 20  1  0  0  0  0
M  END
>  <minimizedAffinity>
-4.10409403

$$$$
