
 OpenBabel03252507023D

 33 34  0  0  0  0  0  0  0  0999 V2000
   45.8160   34.9010   41.9000 C   0  0  0  0  0  0  0  0  0  0  0  0
   45.5050   34.0520   41.2470 H   0  0  0  0  0  0  0  0  0  0  0  0
   46.2020   35.6340   41.1180 H   0  0  0  0  0  0  0  0  0  0  0  0
   46.6420   34.4850   42.8560 N   0  0  0  0  0  0  0  0  0  0  0  0
   46.3320   34.0500   44.1700 C   0  0  0  0  0  0  0  0  0  0  0  0
   46.4740   32.5210   43.9450 C   0  0  0  0  0  0  0  0  0  0  0  0
   47.8230   32.1230   43.5390 C   0  0  0  0  0  0  0  0  0  0  0  0
   48.6800   33.1140   42.8930 C   0  0  0  0  0  0  0  0  0  0  0  0
   48.0610   34.4250   42.4830 C   0  0  0  0  0  0  0  0  0  0  0  0
   46.9010   34.4060   45.0080 H   0  0  0  0  0  0  0  0  0  0  0  0
   45.2630   34.2530   44.3730 H   0  0  0  0  0  0  0  0  0  0  0  0
   45.7170   32.2920   43.1640 H   0  0  0  0  0  0  0  0  0  0  0  0
   46.1300   32.0280   44.8750 H   0  0  0  0  0  0  0  0  0  0  0  0
   47.7370   31.1880   42.9130 H   0  0  0  0  0  0  0  0  0  0  0  0
   48.3800   31.7710   44.4580 H   0  0  0  0  0  0  0  0  0  0  0  0
   49.7050   33.0190   42.6510 H   0  0  0  0  0  0  0  0  0  0  0  0
   48.9760   35.6630   41.6260 S   0  0  0  0  0  0  0  0  0  0  0  0
   49.1230   36.8460   42.3770 H   0  0  0  0  0  0  0  0  0  0  0  0
   44.5550   35.5090   42.4310 C   0  0  0  0  0  0  0  0  0  0  0  0
   44.4700   36.6030   42.2480 H   0  0  0  0  0  0  0  0  0  0  0  0
   44.4970   35.3510   43.5150 H   0  0  0  0  0  0  0  0  0  0  0  0
   43.4200   34.8030   41.7780 C   0  0  0  0  0  0  0  0  0  0  0  0
   43.3650   33.4240   41.7180 C   0  0  0  0  0  0  0  0  0  0  0  0
   42.2650   32.8460   41.0720 C   0  0  0  0  0  0  0  0  0  0  0  0
   41.3060   33.6670   40.5370 N   0  0  0  0  0  0  0  0  0  0  0  0
   41.4220   34.9940   40.6310 C   0  0  0  0  0  0  0  0  0  0  0  0
   42.4630   35.5420   41.2420 N   0  0  0  0  0  0  0  0  0  0  0  0
   44.1380   32.8230   42.1510 H   0  0  0  0  0  0  0  0  0  0  0  0
   42.1670   31.7750   40.9940 H   0  0  0  0  0  0  0  0  0  0  0  0
   40.3410   35.8250   40.0260 C   0  0  0  0  0  0  0  0  0  0  0  0
   39.2940   34.9920   39.7130 F   0  0  0  0  0  0  0  0  0  0  0  0
   39.9470   36.8430   40.8470 F   0  0  0  0  0  0  0  0  0  0  0  0
   40.8260   36.3310   38.8140 F   0  0  0  0  0  0  0  0  0  0  0  0
  1 19  1  0  0  0  0
  1  4  1  0  0  0  0
  2  1  1  0  0  0  0
  3  1  1  0  0  0  0
  4  5  1  0  0  0  0
  5 11  1  0  0  0  0
  5 10  1  0  0  0  0
  6  5  1  0  0  0  0
  6 13  1  0  0  0  0
  7  6  1  0  0  0  0
  7 15  1  0  0  0  0
  8  7  1  0  0  0  0
  9  4  1  0  0  0  0
  9  8  2  0  0  0  0
 12  6  1  0  0  0  0
 14  7  1  0  0  0  0
 16  8  1  0  0  0  0
 17 18  1  0  0  0  0
 17  9  1  0  0  0  0
 19 21  1  0  0  0  0
 20 19  1  0  0  0  0
 22 19  1  0  0  0  0
 23 22  1  0  0  0  0
 23 28  1  0  0  0  0
 24 23  2  0  0  0  0
 25 26  2  0  0  0  0
 25 24  1  0  0  0  0
 26 27  1  0  0  0  0
 27 22  2  0  0  0  0
 29 24  1  0  0  0  0
 30 26  1  0  0  0  0
 30 32  1  0  0  0  0
 31 30  1  0  0  0  0
 33 30  1  0  0  0  0
M  END
>  <minimizedAffinity>
-5.14440966

>  <minimizedRMSD>
2.94561124

$$$$
