REMARK  Name = 
REMARK  5 active torsions:
REMARK  status: ('A' for Active; 'I' for Inactive)
REMARK    1  A    between atoms: C_1  and  C_13
REMARK    2  A    between atoms: C_6  and  N_7
REMARK    3  A    between atoms: C_13  and  C_14
REMARK    4  A    between atoms: C_14  and  C_17
REMARK    5  A    between atoms: C_19  and  C_40
REMARK                            x       y       z     vdW  Elec       q    Type
REMARK                         _______ _______ _______ _____ _____    ______ ____
ROOT
ATOM      1  C   UNL     1      45.689  33.688  40.661  0.00  0.00    +0.000 A 
ATOM      2  C   UNL     1      46.174  33.340  39.419  0.00  0.00    +0.000 A 
ATOM      3  C   UNL     1      47.411  33.697  38.939  0.00  0.00    +0.000 A 
ATOM      4  C   UNL     1      48.199  34.465  39.806  0.00  0.00    +0.000 A 
ATOM      5  C   UNL     1      47.765  34.835  41.047  0.00  0.00    +0.000 A 
ATOM      6  C   UNL     1      46.528  34.458  41.481  0.00  0.00    +0.000 A 
ATOM      7  H   UNL     1      45.635  32.743  38.701  0.00  0.00    +0.000 HD
ATOM      8  H   UNL     1      47.818  33.445  37.983  0.00  0.00    +0.000 HD
ATOM      9  H   UNL     1      49.198  34.781  39.477  0.00  0.00    +0.000 HD
ATOM     10  H   UNL     1      48.442  35.434  41.659  0.00  0.00    +0.000 HD
ENDROOT
BRANCH   6  11
ATOM     11  N   UNL     1      46.178  34.883  42.782  0.00  0.00    +0.000 N 
ATOM     12  C   UNL     1      45.320  35.997  43.066  0.00  0.00    +0.000 C 
ATOM     13  C   UNL     1      44.757  35.910  44.468  0.00  0.00    +0.000 C 
ATOM     14  N   UNL     1      44.418  34.591  44.875  0.00  0.00    +0.000 NA
ATOM     15  C   UNL     1      45.459  33.645  44.767  0.00  0.00    +0.000 C 
ATOM     16  C   UNL     1      46.635  34.253  44.030  0.00  0.00    +0.000 C 
ATOM     17  H   UNL     1      44.589  36.268  42.307  0.00  0.00    +0.000 HD
ATOM     18  H   UNL     1      46.015  36.891  43.096  0.00  0.00    +0.000 HD
ATOM     19  H   UNL     1      43.846  36.532  44.496  0.00  0.00    +0.000 HD
ATOM     20  H   UNL     1      45.492  36.300  45.209  0.00  0.00    +0.000 HD
ATOM     21  H   UNL     1      43.792  34.569  45.668  0.00  0.00    +0.000 HD
ATOM     22  H   UNL     1      45.821  33.359  45.779  0.00  0.00    +0.000 HD
ATOM     23  H   UNL     1      45.153  32.710  44.269  0.00  0.00    +0.000 HD
ATOM     24  H   UNL     1      47.137  35.021  44.664  0.00  0.00    +0.000 HD
ATOM     25  H   UNL     1      47.317  33.416  43.752  0.00  0.00    +0.000 HD
ENDBRANCH   6  11
BRANCH   1  26
ATOM     26  C   UNL     1      44.369  33.309  41.163  0.00  0.00    +0.000 C 
ATOM     27  H   UNL     1      43.926  34.002  41.875  0.00  0.00    +0.000 HD
ATOM     28  H   UNL     1      44.526  32.352  41.742  0.00  0.00    +0.000 HD
BRANCH  26  29
ATOM     29  C   UNL     1      43.397  33.029  40.036  0.00  0.00    +0.000 C 
ATOM     30  H   UNL     1      42.995  31.975  40.126  0.00  0.00    +0.000 HD
ATOM     31  H   UNL     1      43.778  33.178  39.038  0.00  0.00    +0.000 HD
BRANCH  29  34
ATOM     32  C   UNL     1      40.792  35.694  39.432  0.00  0.00    +0.000 A 
ATOM     33  C   UNL     1      41.941  34.884  39.262  0.00  0.00    +0.000 A 
ATOM     34  C   UNL     1      42.203  33.891  40.197  0.00  0.00    +0.000 A 
ATOM     35  N   UNL     1      41.326  33.755  41.238  0.00  0.00    +0.000 NA
ATOM     36  C   UNL     1      40.251  34.528  41.381  0.00  0.00    +0.000 A 
ATOM     37  N   UNL     1      39.980  35.497  40.483  0.00  0.00    +0.000 NA
ATOM     38  H   UNL     1      40.603  36.472  38.683  0.00  0.00    +0.000 HD
ATOM     39  H   UNL     1      42.597  35.033  38.426  0.00  0.00    +0.000 HD
BRANCH  36  40
ATOM     40  C   UNL     1      39.379  34.265  42.569  0.00  0.00    +0.000 C 
ATOM     41  F   UNL     1      38.107  33.824  42.191  0.00  0.00    +0.000 F 
ATOM     42  F   UNL     1      39.170  35.418  43.309  0.00  0.00    +0.000 F 
ATOM     43  F   UNL     1      39.889  33.278  43.392  0.00  0.00    +0.000 F 
ENDBRANCH  36  40
ENDBRANCH  29  34
ENDBRANCH  26  29
ENDBRANCH   1  26
TORSDOF 5
