
 OpenBabel03252502483D

 40 42  0  0  1  0  0  0  0  0999 V2000
   37.4850   29.9100   40.9660 C   0  0  1  0  0  0  0  0  0  0  0  0
   36.7580   31.1820   40.6400 C   0  0  0  0  0  0  0  0  0  0  0  0
   38.2440   31.1440   40.7930 C   0  0  2  0  0  0  0  0  0  0  0  0
   37.4400   29.1500   40.1930 H   0  0  0  0  0  0  0  0  0  0  0  0
   36.1410   31.6920   41.4290 H   0  0  0  0  0  0  0  0  0  0  0  0
   36.2870   31.2870   39.6410 H   0  0  0  0  0  0  0  0  0  0  0  0
   38.6240   31.7750   41.5860 H   0  0  0  0  0  0  0  0  0  0  0  0
   38.9460   31.2220   39.5250 N   0  0  0  0  0  0  0  0  0  0  0  0
   39.6440   32.4360   39.3180 C   0  0  0  0  0  0  0  0  0  0  0  0
   40.2900   32.3180   37.9500 C   0  0  0  0  0  0  0  0  0  0  0  0
   39.3270   32.1880   36.9160 N   0  0  0  0  0  0  0  0  0  0  0  0
   38.0770   31.5780   37.3370 C   0  0  0  0  0  0  0  0  0  0  0  0
   38.3540   30.5570   38.4430 C   0  0  0  0  0  0  0  0  0  0  0  0
   38.9440   33.2820   39.2710 H   0  0  0  0  0  0  0  0  0  0  0  0
   40.4010   32.6110   40.0860 H   0  0  0  0  0  0  0  0  0  0  0  0
   41.0650   31.5250   37.9300 H   0  0  0  0  0  0  0  0  0  0  0  0
   40.8400   33.2810   37.7880 H   0  0  0  0  0  0  0  0  0  0  0  0
   39.0990   33.1000   36.4200 H   0  0  0  0  0  0  0  0  0  0  0  0
   37.6850   31.0240   36.4540 H   0  0  0  0  0  0  0  0  0  0  0  0
   37.3900   32.3540   37.7170 H   0  0  0  0  0  0  0  0  0  0  0  0
   39.0700   29.8060   38.0300 H   0  0  0  0  0  0  0  0  0  0  0  0
   37.4270   30.0440   38.7110 H   0  0  0  0  0  0  0  0  0  0  0  0
   37.3400   29.3710   42.3510 C   0  0  0  0  0  0  0  0  0  0  0  0
   36.6990   28.4560   42.3910 H   0  0  0  0  0  0  0  0  0  0  0  0
   36.8150   30.1040   42.9980 H   0  0  0  0  0  0  0  0  0  0  0  0
   38.7350   29.1320   42.8680 C   0  0  0  0  0  0  0  0  0  0  0  0
   39.0290   29.6750   43.7510 H   0  0  0  0  0  0  0  0  0  0  0  0
   39.4280   29.4780   42.0550 H   0  0  0  0  0  0  0  0  0  0  0  0
   40.2290   25.7880   43.6790 C   0  0  0  0  0  0  0  0  0  0  0  0
   40.0180   27.1910   43.6470 C   0  0  0  0  0  0  0  0  0  0  0  0
   38.9670   27.6540   42.9180 C   0  0  0  0  0  0  0  0  0  0  0  0
   38.1740   26.7760   42.2610 N   0  0  0  0  0  0  0  0  0  0  0  0
   38.3670   25.4790   42.2900 C   0  0  0  0  0  0  0  0  0  0  0  0
   39.3830   24.9650   42.9890 N   0  0  0  0  0  0  0  0  0  0  0  0
   41.0690   25.4050   44.2620 H   0  0  0  0  0  0  0  0  0  0  0  0
   40.6800   27.8530   44.1890 H   0  0  0  0  0  0  0  0  0  0  0  0
   37.4600   24.5480   41.5460 C   0  0  0  0  0  0  0  0  0  0  0  0
   36.2490   24.4040   42.2320 F   0  0  0  0  0  0  0  0  0  0  0  0
   38.0000   23.2910   41.4540 F   0  0  0  0  0  0  0  0  0  0  0  0
   37.1460   25.0500   40.3000 F   0  0  0  0  0  0  0  0  0  0  0  0
  1  4  1  6  0  0  0
  1 23  1  0  0  0  0
  2  3  1  0  0  0  0
  2  1  1  0  0  0  0
  2  5  1  0  0  0  0
  3  1  1  0  0  0  0
  3  7  1  1  0  0  0
  6  2  1  0  0  0  0
  8  3  1  0  0  0  0
  9  8  1  0  0  0  0
  9 15  1  0  0  0  0
 10  9  1  0  0  0  0
 11 12  1  0  0  0  0
 11 10  1  0  0  0  0
 12 20  1  0  0  0  0
 12 13  1  0  0  0  0
 13 22  1  0  0  0  0
 13  8  1  0  0  0  0
 14  9  1  0  0  0  0
 16 10  1  0  0  0  0
 17 10  1  0  0  0  0
 18 11  1  0  0  0  0
 19 12  1  0  0  0  0
 21 13  1  0  0  0  0
 23 24  1  0  0  0  0
 23 26  1  0  0  0  0
 23 25  1  0  0  0  0
 26 31  1  0  0  0  0
 26 27  1  0  0  0  0
 28 26  1  0  0  0  0
 29 35  1  0  0  0  0
 30 29  1  0  0  0  0
 30 36  1  0  0  0  0
 31 30  2  0  0  0  0
 32 33  2  0  0  0  0
 32 31  1  0  0  0  0
 33 34  1  0  0  0  0
 34 29  2  0  0  0  0
 37 38  1  0  0  0  0
 37 33  1  0  0  0  0
 39 37  1  0  0  0  0
 40 37  1  0  0  0  0
M  END
>  <minimizedAffinity>
-5.49841356

$$$$

 OpenBabel03252502483D

 40 42  0  0  1  0  0  0  0  0999 V2000
   37.4140   31.7460   39.9080 C   0  0  1  0  0  0  0  0  0  0  0  0
   37.3210   33.2380   39.7580 C   0  0  0  0  0  0  0  0  0  0  0  0
   38.4720   32.5890   40.4570 C   0  0  2  0  0  0  0  0  0  0  0  0
   37.5380   31.2030   38.9770 H   0  0  0  0  0  0  0  0  0  0  0  0
   36.5710   33.8150   40.3630 H   0  0  0  0  0  0  0  0  0  0  0  0
   37.4400   33.6810   38.7480 H   0  0  0  0  0  0  0  0  0  0  0  0
   38.5810   32.8790   41.4930 H   0  0  0  0  0  0  0  0  0  0  0  0
   39.6870   32.5860   39.6640 N   0  0  0  0  0  0  0  0  0  0  0  0
   40.2070   33.8740   39.3890 C   0  0  0  0  0  0  0  0  0  0  0  0
   41.4530   33.6510   38.5520 C   0  0  0  0  0  0  0  0  0  0  0  0
   41.1570   33.0270   37.3120 N   0  0  0  0  0  0  0  0  0  0  0  0
   39.9690   32.1900   37.3330 C   0  0  0  0  0  0  0  0  0  0  0  0
   39.8130   31.5600   38.7190 C   0  0  0  0  0  0  0  0  0  0  0  0
   39.5040   34.4510   38.7710 H   0  0  0  0  0  0  0  0  0  0  0  0
   40.4500   34.4230   40.3010 H   0  0  0  0  0  0  0  0  0  0  0  0
   42.2450   33.1300   39.1260 H   0  0  0  0  0  0  0  0  0  0  0  0
   41.8600   34.6710   38.3330 H   0  0  0  0  0  0  0  0  0  0  0  0
   41.0700   33.7030   36.4970 H   0  0  0  0  0  0  0  0  0  0  0  0
   40.1510   31.3680   36.6050 H   0  0  0  0  0  0  0  0  0  0  0  0
   39.0770   32.8000   37.1040 H   0  0  0  0  0  0  0  0  0  0  0  0
   40.7410   30.9750   38.9240 H   0  0  0  0  0  0  0  0  0  0  0  0
   38.9620   30.8730   38.7180 H   0  0  0  0  0  0  0  0  0  0  0  0
   36.4760   31.0930   40.8690 C   0  0  0  0  0  0  0  0  0  0  0  0
   35.5120   31.6490   40.9730 H   0  0  0  0  0  0  0  0  0  0  0  0
   36.9070   31.0930   41.8910 H   0  0  0  0  0  0  0  0  0  0  0  0
   36.2860   29.6770   40.3890 C   0  0  0  0  0  0  0  0  0  0  0  0
   36.5700   29.4630   39.3730 H   0  0  0  0  0  0  0  0  0  0  0  0
   35.1810   29.4800   40.4430 H   0  0  0  0  0  0  0  0  0  0  0  0
   37.9050   28.4110   43.5280 C   0  0  0  0  0  0  0  0  0  0  0  0
   37.3630   29.2980   42.5610 C   0  0  0  0  0  0  0  0  0  0  0  0
   36.8550   28.7540   41.4210 C   0  0  0  0  0  0  0  0  0  0  0  0
   36.8840   27.4120   41.2530 N   0  0  0  0  0  0  0  0  0  0  0  0
   37.3830   26.5910   42.1470 C   0  0  0  0  0  0  0  0  0  0  0  0
   37.8960   27.0660   43.2850 N   0  0  0  0  0  0  0  0  0  0  0  0
   38.3140   28.8360   44.4450 H   0  0  0  0  0  0  0  0  0  0  0  0
   37.3630   30.3650   42.7400 H   0  0  0  0  0  0  0  0  0  0  0  0
   37.3910   25.1120   41.9150 C   0  0  0  0  0  0  0  0  0  0  0  0
   38.5510   24.5450   42.4540 F   0  0  0  0  0  0  0  0  0  0  0  0
   37.4060   24.8160   40.5750 F   0  0  0  0  0  0  0  0  0  0  0  0
   36.3280   24.5030   42.5490 F   0  0  0  0  0  0  0  0  0  0  0  0
  1  4  1  6  0  0  0
  1  3  1  0  0  0  0
  1 23  1  0  0  0  0
  2  1  1  0  0  0  0
  2  5  1  0  0  0  0
  2  3  1  0  0  0  0
  3  7  1  1  0  0  0
  6  2  1  0  0  0  0
  8  3  1  0  0  0  0
  9  8  1  0  0  0  0
  9 15  1  0  0  0  0
 10 16  1  0  0  0  0
 10  9  1  0  0  0  0
 11 12  1  0  0  0  0
 11 10  1  0  0  0  0
 12 13  1  0  0  0  0
 13 21  1  0  0  0  0
 13  8  1  0  0  0  0
 14  9  1  0  0  0  0
 17 10  1  0  0  0  0
 18 11  1  0  0  0  0
 19 12  1  0  0  0  0
 20 12  1  0  0  0  0
 22 13  1  0  0  0  0
 23 24  1  0  0  0  0
 23 25  1  0  0  0  0
 26 28  1  0  0  0  0
 26 23  1  0  0  0  0
 26 31  1  0  0  0  0
 27 26  1  0  0  0  0
 29 35  1  0  0  0  0
 30 36  1  0  0  0  0
 30 29  2  0  0  0  0
 31 30  1  0  0  0  0
 32 31  2  0  0  0  0
 32 33  1  0  0  0  0
 33 34  2  0  0  0  0
 34 29  1  0  0  0  0
 37 33  1  0  0  0  0
 37 38  1  0  0  0  0
 37 40  1  0  0  0  0
 39 37  1  0  0  0  0
M  END
>  <minimizedAffinity>
-5.47922421

$$$$

 OpenBabel03252502483D

 40 42  0  0  1  0  0  0  0  0999 V2000
   37.8190   27.9700   43.4290 C   0  0  1  0  0  0  0  0  0  0  0  0
   36.4290   27.4610   43.6790 C   0  0  0  0  0  0  0  0  0  0  0  0
   37.2010   27.0710   42.4610 C   0  0  2  0  0  0  0  0  0  0  0  0
   38.5640   27.6260   44.1400 H   0  0  0  0  0  0  0  0  0  0  0  0
   35.5510   28.1540   43.5700 H   0  0  0  0  0  0  0  0  0  0  0  0
   36.2640   26.7420   44.5080 H   0  0  0  0  0  0  0  0  0  0  0  0
   36.7350   27.3620   41.5290 H   0  0  0  0  0  0  0  0  0  0  0  0
   37.7090   25.7130   42.5230 N   0  0  0  0  0  0  0  0  0  0  0  0
   39.0870   25.5920   42.2230 C   0  0  0  0  0  0  0  0  0  0  0  0
   39.4100   24.1130   42.3320 C   0  0  0  0  0  0  0  0  0  0  0  0
   38.6890   23.3400   41.3860 N   0  0  0  0  0  0  0  0  0  0  0  0
   37.4190   23.9200   40.9830 C   0  0  0  0  0  0  0  0  0  0  0  0
   36.8170   24.6960   42.1580 C   0  0  0  0  0  0  0  0  0  0  0  0
   39.2850   25.8880   41.1840 H   0  0  0  0  0  0  0  0  0  0  0  0
   39.7100   26.1720   42.9080 H   0  0  0  0  0  0  0  0  0  0  0  0
   39.3000   23.7450   43.3730 H   0  0  0  0  0  0  0  0  0  0  0  0
   40.5000   24.0200   42.0920 H   0  0  0  0  0  0  0  0  0  0  0  0
   39.2390   23.1090   40.5060 H   0  0  0  0  0  0  0  0  0  0  0  0
   36.7400   23.0660   40.7590 H   0  0  0  0  0  0  0  0  0  0  0  0
   37.5720   24.6040   40.1310 H   0  0  0  0  0  0  0  0  0  0  0  0
   36.7020   23.9790   43.0050 H   0  0  0  0  0  0  0  0  0  0  0  0
   35.8290   25.0730   41.8830 H   0  0  0  0  0  0  0  0  0  0  0  0
   37.9660   29.4070   43.0500 C   0  0  0  0  0  0  0  0  0  0  0  0
   37.6390   30.1020   43.8620 H   0  0  0  0  0  0  0  0  0  0  0  0
   37.3030   29.6510   42.1940 H   0  0  0  0  0  0  0  0  0  0  0  0
   39.4080   29.6030   42.6570 C   0  0  0  0  0  0  0  0  0  0  0  0
   39.9640   28.7230   42.3830 H   0  0  0  0  0  0  0  0  0  0  0  0
   39.9210   30.0140   43.5680 H   0  0  0  0  0  0  0  0  0  0  0  0
   40.6660   32.5450   40.6970 C   0  0  0  0  0  0  0  0  0  0  0  0
   40.6190   31.4710   41.6250 C   0  0  0  0  0  0  0  0  0  0  0  0
   39.4760   30.7350   41.6790 C   0  0  0  0  0  0  0  0  0  0  0  0
   38.4430   31.0450   40.8620 N   0  0  0  0  0  0  0  0  0  0  0  0
   38.4850   32.0360   40.0030 C   0  0  0  0  0  0  0  0  0  0  0  0
   39.5810   32.7950   39.9040 N   0  0  0  0  0  0  0  0  0  0  0  0
   41.5770   33.1420   40.6450 H   0  0  0  0  0  0  0  0  0  0  0  0
   41.4700   31.2620   42.2590 H   0  0  0  0  0  0  0  0  0  0  0  0
   37.3160   32.3400   39.1190 C   0  0  0  0  0  0  0  0  0  0  0  0
   36.8790   33.6520   39.3310 F   0  0  0  0  0  0  0  0  0  0  0  0
   36.2480   31.5290   39.4060 F   0  0  0  0  0  0  0  0  0  0  0  0
   37.6640   32.2550   37.7860 F   0  0  0  0  0  0  0  0  0  0  0  0
  1  2  1  0  0  0  0
  1  4  1  1  0  0  0
  2  6  1  0  0  0  0
  3  7  1  6  0  0  0
  3  8  1  0  0  0  0
  3  1  1  0  0  0  0
  3  2  1  0  0  0  0
  5  2  1  0  0  0  0
  9 10  1  0  0  0  0
  9  8  1  0  0  0  0
  9 15  1  0  0  0  0
 10 16  1  0  0  0  0
 11 10  1  0  0  0  0
 12 11  1  0  0  0  0
 12 13  1  0  0  0  0
 13  8  1  0  0  0  0
 13 21  1  0  0  0  0
 14  9  1  0  0  0  0
 17 10  1  0  0  0  0
 18 11  1  0  0  0  0
 19 12  1  0  0  0  0
 20 12  1  0  0  0  0
 22 13  1  0  0  0  0
 23  1  1  0  0  0  0
 23 24  1  0  0  0  0
 25 23  1  0  0  0  0
 26 23  1  0  0  0  0
 26 28  1  0  0  0  0
 27 26  1  0  0  0  0
 29 30  1  0  0  0  0
 30 31  2  0  0  0  0
 30 36  1  0  0  0  0
 31 26  1  0  0  0  0
 32 31  1  0  0  0  0
 33 32  2  0  0  0  0
 34 33  1  0  0  0  0
 34 29  2  0  0  0  0
 35 29  1  0  0  0  0
 37 38  1  0  0  0  0
 37 39  1  0  0  0  0
 37 33  1  0  0  0  0
 40 37  1  0  0  0  0
M  END
>  <minimizedAffinity>
-5.40899467

$$$$

 OpenBabel03252502483D

 40 42  0  0  1  0  0  0  0  0999 V2000
   38.9930   30.1170   42.5470 C   0  0  1  0  0  0  0  0  0  0  0  0
   40.3410   30.7780   42.5410 C   0  0  0  0  0  0  0  0  0  0  0  0
   39.6710   30.3500   41.2760 C   0  0  2  0  0  0  0  0  0  0  0  0
   38.1790   30.7480   42.8890 H   0  0  0  0  0  0  0  0  0  0  0  0
   41.2440   30.2110   42.8990 H   0  0  0  0  0  0  0  0  0  0  0  0
   40.4120   31.8500   42.8180 H   0  0  0  0  0  0  0  0  0  0  0  0
   40.2260   29.6160   40.7070 H   0  0  0  0  0  0  0  0  0  0  0  0
   39.1230   31.4610   40.5210 N   0  0  0  0  0  0  0  0  0  0  0  0
   39.1810   32.7070   41.1930 C   0  0  0  0  0  0  0  0  0  0  0  0
   38.5570   33.7190   40.2500 C   0  0  0  0  0  0  0  0  0  0  0  0
   37.1930   33.4300   39.9850 N   0  0  0  0  0  0  0  0  0  0  0  0
   36.8490   32.0210   40.0930 C   0  0  0  0  0  0  0  0  0  0  0  0
   38.0490   31.1690   39.6710 C   0  0  0  0  0  0  0  0  0  0  0  0
   38.5600   32.6870   42.0990 H   0  0  0  0  0  0  0  0  0  0  0  0
   40.2050   32.9940   41.4400 H   0  0  0  0  0  0  0  0  0  0  0  0
   39.1630   33.8500   39.3310 H   0  0  0  0  0  0  0  0  0  0  0  0
   38.6010   34.7020   40.7840 H   0  0  0  0  0  0  0  0  0  0  0  0
   36.5090   33.9820   40.5820 H   0  0  0  0  0  0  0  0  0  0  0  0
   36.0300   31.8410   39.3590 H   0  0  0  0  0  0  0  0  0  0  0  0
   36.5750   31.7810   41.1350 H   0  0  0  0  0  0  0  0  0  0  0  0
   38.3100   31.4590   38.6260 H   0  0  0  0  0  0  0  0  0  0  0  0
   37.7710   30.1120   39.6810 H   0  0  0  0  0  0  0  0  0  0  0  0
   38.9190   28.7120   43.0490 C   0  0  0  0  0  0  0  0  0  0  0  0
   39.4370   28.5790   44.0310 H   0  0  0  0  0  0  0  0  0  0  0  0
   39.4540   28.0260   42.3600 H   0  0  0  0  0  0  0  0  0  0  0  0
   37.4570   28.3510   43.1050 C   0  0  0  0  0  0  0  0  0  0  0  0
   36.7910   29.0770   43.5400 H   0  0  0  0  0  0  0  0  0  0  0  0
   37.3890   27.4440   43.7630 H   0  0  0  0  0  0  0  0  0  0  0  0
   37.2410   26.2160   40.0270 C   0  0  0  0  0  0  0  0  0  0  0  0
   37.6310   26.6890   41.3080 C   0  0  0  0  0  0  0  0  0  0  0  0
   37.0520   27.8360   41.7590 C   0  0  0  0  0  0  0  0  0  0  0  0
   36.1430   28.4730   40.9850 N   0  0  0  0  0  0  0  0  0  0  0  0
   35.7820   28.0360   39.8010 C   0  0  0  0  0  0  0  0  0  0  0  0
   36.3150   26.9160   39.3060 N   0  0  0  0  0  0  0  0  0  0  0  0
   37.6980   25.2980   39.6560 H   0  0  0  0  0  0  0  0  0  0  0  0
   38.3620   26.1460   41.8900 H   0  0  0  0  0  0  0  0  0  0  0  0
   34.7700   28.7770   38.9830 C   0  0  0  0  0  0  0  0  0  0  0  0
   34.1570   27.9080   38.0730 F   0  0  0  0  0  0  0  0  0  0  0  0
   35.3580   29.7640   38.2340 F   0  0  0  0  0  0  0  0  0  0  0  0
   33.7630   29.2850   39.7770 F   0  0  0  0  0  0  0  0  0  0  0  0
  1  4  1  1  0  0  0
  1 23  1  0  0  0  0
  2  1  1  0  0  0  0
  2  6  1  0  0  0  0
  2  5  1  0  0  0  0
  3  7  1  6  0  0  0
  3  2  1  0  0  0  0
  3  1  1  0  0  0  0
  8  9  1  0  0  0  0
  8  3  1  0  0  0  0
  9 15  1  0  0  0  0
  9 14  1  0  0  0  0
 10 17  1  0  0  0  0
 10  9  1  0  0  0  0
 11 12  1  0  0  0  0
 11 10  1  0  0  0  0
 11 18  1  0  0  0  0
 12 20  1  0  0  0  0
 13 22  1  0  0  0  0
 13 12  1  0  0  0  0
 13  8  1  0  0  0  0
 16 10  1  0  0  0  0
 19 12  1  0  0  0  0
 21 13  1  0  0  0  0
 23 26  1  0  0  0  0
 23 24  1  0  0  0  0
 25 23  1  0  0  0  0
 26 27  1  0  0  0  0
 26 28  1  0  0  0  0
 29 30  1  0  0  0  0
 30 31  2  0  0  0  0
 30 36  1  0  0  0  0
 31 26  1  0  0  0  0
 32 31  1  0  0  0  0
 33 32  2  0  0  0  0
 34 33  1  0  0  0  0
 34 29  2  0  0  0  0
 35 29  1  0  0  0  0
 37 40  1  0  0  0  0
 37 33  1  0  0  0  0
 38 37  1  0  0  0  0
 39 37  1  0  0  0  0
M  END
>  <minimizedAffinity>
-5.27500153

$$$$

 OpenBabel03252502483D

 40 42  0  0  1  0  0  0  0  0999 V2000
   37.2120   30.1000   39.5450 C   0  0  1  0  0  0  0  0  0  0  0  0
   36.9540   31.1890   38.5430 C   0  0  0  0  0  0  0  0  0  0  0  0
   36.7220   31.3950   40.0050 C   0  0  2  0  0  0  0  0  0  0  0  0
   38.2530   29.8110   39.6440 H   0  0  0  0  0  0  0  0  0  0  0  0
   36.0680   31.1180   37.8550 H   0  0  0  0  0  0  0  0  0  0  0  0
   37.8180   31.6570   38.0280 H   0  0  0  0  0  0  0  0  0  0  0  0
   35.6980   31.6350   40.2620 H   0  0  0  0  0  0  0  0  0  0  0  0
   37.7440   32.2140   40.6310 N   0  0  0  0  0  0  0  0  0  0  0  0
   37.9310   33.4790   40.0230 C   0  0  0  0  0  0  0  0  0  0  0  0
   39.0340   34.1610   40.8100 C   0  0  0  0  0  0  0  0  0  0  0  0
   40.2620   33.4540   40.7290 N   0  0  0  0  0  0  0  0  0  0  0  0
   40.1150   32.0250   40.5090 C   0  0  0  0  0  0  0  0  0  0  0  0
   38.8340   31.5330   41.1880 C   0  0  0  0  0  0  0  0  0  0  0  0
   38.2960   33.3630   38.9930 H   0  0  0  0  0  0  0  0  0  0  0  0
   37.0200   34.0810   40.0370 H   0  0  0  0  0  0  0  0  0  0  0  0
   38.7210   34.3770   41.8510 H   0  0  0  0  0  0  0  0  0  0  0  0
   39.1820   35.1600   40.3250 H   0  0  0  0  0  0  0  0  0  0  0  0
   40.9330   33.8320   39.9980 H   0  0  0  0  0  0  0  0  0  0  0  0
   40.9770   31.5380   41.0180 H   0  0  0  0  0  0  0  0  0  0  0  0
   40.0600   31.8160   39.4260 H   0  0  0  0  0  0  0  0  0  0  0  0
   38.9160   31.7840   42.2720 H   0  0  0  0  0  0  0  0  0  0  0  0
   38.7570   30.4470   41.0870 H   0  0  0  0  0  0  0  0  0  0  0  0
   36.2610   28.9490   39.5670 C   0  0  0  0  0  0  0  0  0  0  0  0
   36.7300   27.9970   39.2160 H   0  0  0  0  0  0  0  0  0  0  0  0
   35.4250   29.1240   38.8590 H   0  0  0  0  0  0  0  0  0  0  0  0
   35.7320   28.8550   40.9760 C   0  0  0  0  0  0  0  0  0  0  0  0
   34.6950   28.5880   41.0920 H   0  0  0  0  0  0  0  0  0  0  0  0
   35.8300   29.8870   41.4100 H   0  0  0  0  0  0  0  0  0  0  0  0
   38.2070   27.8520   43.6110 C   0  0  0  0  0  0  0  0  0  0  0  0
   37.2890   28.6310   42.8590 C   0  0  0  0  0  0  0  0  0  0  0  0
   36.6980   28.0450   41.7830 C   0  0  0  0  0  0  0  0  0  0  0  0
   36.9990   26.7620   41.4740 N   0  0  0  0  0  0  0  0  0  0  0  0
   37.8470   26.0400   42.1680 C   0  0  0  0  0  0  0  0  0  0  0  0
   38.4590   26.5620   43.2350 N   0  0  0  0  0  0  0  0  0  0  0  0
   38.6870   28.3120   44.4760 H   0  0  0  0  0  0  0  0  0  0  0  0
   37.0810   29.6530   43.1450 H   0  0  0  0  0  0  0  0  0  0  0  0
   38.1470   24.6240   41.7860 C   0  0  0  0  0  0  0  0  0  0  0  0
   38.8460   23.9850   42.8160 F   0  0  0  0  0  0  0  0  0  0  0  0
   38.9540   24.5650   40.6790 F   0  0  0  0  0  0  0  0  0  0  0  0
   36.9860   23.9030   41.5970 F   0  0  0  0  0  0  0  0  0  0  0  0
  1 23  1  0  0  0  0
  1  4  1  1  0  0  0
  1  3  1  0  0  0  0
  2  1  1  0  0  0  0
  2  3  1  0  0  0  0
  3  7  1  1  0  0  0
  3  8  1  0  0  0  0
  5  2  1  0  0  0  0
  6  2  1  0  0  0  0
  8 13  1  0  0  0  0
  9 15  1  0  0  0  0
  9  8  1  0  0  0  0
  9 10  1  0  0  0  0
 10 16  1  0  0  0  0
 11 10  1  0  0  0  0
 12 11  1  0  0  0  0
 12 19  1  0  0  0  0
 12 13  1  0  0  0  0
 13 21  1  0  0  0  0
 14  9  1  0  0  0  0
 17 10  1  0  0  0  0
 18 11  1  0  0  0  0
 20 12  1  0  0  0  0
 22 13  1  0  0  0  0
 23 26  1  0  0  0  0
 24 23  1  0  0  0  0
 25 23  1  0  0  0  0
 26 27  1  0  0  0  0
 26 28  1  0  0  0  0
 26 31  1  0  0  0  0
 29 35  1  0  0  0  0
 30 36  1  0  0  0  0
 30 29  2  0  0  0  0
 31 30  1  0  0  0  0
 32 31  2  0  0  0  0
 32 33  1  0  0  0  0
 33 34  2  0  0  0  0
 34 29  1  0  0  0  0
 37 33  1  0  0  0  0
 37 38  1  0  0  0  0
 39 37  1  0  0  0  0
 40 37  1  0  0  0  0
M  END
>  <minimizedAffinity>
-5.21875095

$$$$

 OpenBabel03252502483D

 40 42  0  0  1  0  0  0  0  0999 V2000
   37.7200   30.6110   37.9270 C   0  0  1  0  0  0  0  0  0  0  0  0
   38.0600   31.8140   37.0950 C   0  0  0  0  0  0  0  0  0  0  0  0
   37.3270   31.9380   38.3910 C   0  0  2  0  0  0  0  0  0  0  0  0
   38.5760   30.0880   38.3410 H   0  0  0  0  0  0  0  0  0  0  0  0
   37.5070   32.0040   36.1350 H   0  0  0  0  0  0  0  0  0  0  0  0
   39.1230   32.1180   37.0050 H   0  0  0  0  0  0  0  0  0  0  0  0
   36.3430   32.3780   38.3030 H   0  0  0  0  0  0  0  0  0  0  0  0
   38.1600   32.4470   39.4650 N   0  0  0  0  0  0  0  0  0  0  0  0
   39.5240   32.6030   39.1210 C   0  0  0  0  0  0  0  0  0  0  0  0
   40.2120   33.1280   40.3680 C   0  0  0  0  0  0  0  0  0  0  0  0
   40.1360   32.2070   41.4450 N   0  0  0  0  0  0  0  0  0  0  0  0
   38.9790   31.3290   41.4010 C   0  0  0  0  0  0  0  0  0  0  0  0
   37.8000   32.0700   40.7650 C   0  0  0  0  0  0  0  0  0  0  0  0
   39.9790   31.6300   38.8900 H   0  0  0  0  0  0  0  0  0  0  0  0
   39.6620   33.2950   38.2870 H   0  0  0  0  0  0  0  0  0  0  0  0
   39.8560   34.1440   40.6350 H   0  0  0  0  0  0  0  0  0  0  0  0
   41.2910   33.2480   40.0950 H   0  0  0  0  0  0  0  0  0  0  0  0
   41.0040   31.6040   41.5610 H   0  0  0  0  0  0  0  0  0  0  0  0
   38.7110   31.1090   42.4590 H   0  0  0  0  0  0  0  0  0  0  0  0
   39.2130   30.4300   40.8040 H   0  0  0  0  0  0  0  0  0  0  0  0
   37.6110   32.9820   41.3800 H   0  0  0  0  0  0  0  0  0  0  0  0
   36.9090   31.4390   40.7960 H   0  0  0  0  0  0  0  0  0  0  0  0
   36.6460   29.7060   37.4190 C   0  0  0  0  0  0  0  0  0  0  0  0
   37.0470   28.7350   37.0370 H   0  0  0  0  0  0  0  0  0  0  0  0
   36.1390   30.1600   36.5440 H   0  0  0  0  0  0  0  0  0  0  0  0
   35.6640   29.5280   38.5490 C   0  0  0  0  0  0  0  0  0  0  0  0
   34.6190   29.5040   38.2890 H   0  0  0  0  0  0  0  0  0  0  0  0
   35.7910   30.4270   39.2110 H   0  0  0  0  0  0  0  0  0  0  0  0
   36.8000   26.1230   39.6400 C   0  0  0  0  0  0  0  0  0  0  0  0
   36.3570   27.1900   38.8140 C   0  0  0  0  0  0  0  0  0  0  0  0
   36.1380   28.3950   39.4050 C   0  0  0  0  0  0  0  0  0  0  0  0
   36.3470   28.5340   40.7350 N   0  0  0  0  0  0  0  0  0  0  0  0
   36.7570   27.5490   41.5000 C   0  0  0  0  0  0  0  0  0  0  0  0
   36.9900   26.3420   40.9760 N   0  0  0  0  0  0  0  0  0  0  0  0
   36.9800   25.1520   39.1760 H   0  0  0  0  0  0  0  0  0  0  0  0
   36.2040   27.0310   37.7550 H   0  0  0  0  0  0  0  0  0  0  0  0
   36.9750   27.7520   42.9660 C   0  0  0  0  0  0  0  0  0  0  0  0
   35.8280   27.3830   43.6790 F   0  0  0  0  0  0  0  0  0  0  0  0
   37.2000   29.0730   43.2610 F   0  0  0  0  0  0  0  0  0  0  0  0
   37.9990   26.9540   43.4330 F   0  0  0  0  0  0  0  0  0  0  0  0
  1  4  1  1  0  0  0
  1  3  1  0  0  0  0
  2  1  1  0  0  0  0
  2  3  1  0  0  0  0
  3  7  1  6  0  0  0
  3  8  1  0  0  0  0
  5  2  1  0  0  0  0
  6  2  1  0  0  0  0
  8 13  1  0  0  0  0
  9  8  1  0  0  0  0
  9 10  1  0  0  0  0
 10 16  1  0  0  0  0
 10 11  1  0  0  0  0
 11 18  1  0  0  0  0
 12 11  1  0  0  0  0
 12 19  1  0  0  0  0
 13 22  1  0  0  0  0
 13 21  1  0  0  0  0
 13 12  1  0  0  0  0
 14  9  1  0  0  0  0
 15  9  1  0  0  0  0
 17 10  1  0  0  0  0
 20 12  1  0  0  0  0
 23  1  1  0  0  0  0
 23 26  1  0  0  0  0
 24 23  1  0  0  0  0
 25 23  1  0  0  0  0
 26 28  1  0  0  0  0
 26 31  1  0  0  0  0
 27 26  1  0  0  0  0
 29 34  1  0  0  0  0
 30 31  1  0  0  0  0
 30 29  2  0  0  0  0
 31 32  2  0  0  0  0
 32 33  1  0  0  0  0
 33 37  1  0  0  0  0
 34 33  2  0  0  0  0
 35 29  1  0  0  0  0
 36 30  1  0  0  0  0
 37 39  1  0  0  0  0
 37 40  1  0  0  0  0
 37 38  1  0  0  0  0
M  END
>  <minimizedAffinity>
-5.0926404

$$$$

 OpenBabel03252502483D

 40 42  0  0  1  0  0  0  0  0999 V2000
   37.4130   30.7880   39.2270 C   0  0  1  0  0  0  0  0  0  0  0  0
   37.2690   32.1690   38.6560 C   0  0  0  0  0  0  0  0  0  0  0  0
   37.7810   31.9410   40.0410 C   0  0  2  0  0  0  0  0  0  0  0  0
   38.1580   30.1690   38.7370 H   0  0  0  0  0  0  0  0  0  0  0  0
   36.2460   32.6140   38.5180 H   0  0  0  0  0  0  0  0  0  0  0  0
   37.9500   32.4820   37.8370 H   0  0  0  0  0  0  0  0  0  0  0  0
   37.1760   32.3920   40.8160 H   0  0  0  0  0  0  0  0  0  0  0  0
   39.2140   32.1380   40.1550 N   0  0  0  0  0  0  0  0  0  0  0  0
   39.7520   31.7910   41.4180 C   0  0  0  0  0  0  0  0  0  0  0  0
   41.2390   32.0780   41.3310 C   0  0  0  0  0  0  0  0  0  0  0  0
   41.5040   33.4540   41.1090 N   0  0  0  0  0  0  0  0  0  0  0  0
   40.4450   34.1610   40.4080 C   0  0  0  0  0  0  0  0  0  0  0  0
   39.7570   33.2060   39.4280 C   0  0  0  0  0  0  0  0  0  0  0  0
   39.3450   32.4410   42.2040 H   0  0  0  0  0  0  0  0  0  0  0  0
   39.5770   30.7410   41.6650 H   0  0  0  0  0  0  0  0  0  0  0  0
   41.7430   31.4120   40.6020 H   0  0  0  0  0  0  0  0  0  0  0  0
   41.6620   31.8050   42.3320 H   0  0  0  0  0  0  0  0  0  0  0  0
   41.7350   33.9990   41.9920 H   0  0  0  0  0  0  0  0  0  0  0  0
   40.9420   34.9590   39.8100 H   0  0  0  0  0  0  0  0  0  0  0  0
   39.7050   34.5420   41.1320 H   0  0  0  0  0  0  0  0  0  0  0  0
   40.5400   32.8240   38.7320 H   0  0  0  0  0  0  0  0  0  0  0  0
   39.0090   33.7520   38.8480 H   0  0  0  0  0  0  0  0  0  0  0  0
   36.1590   30.0580   39.5810 C   0  0  0  0  0  0  0  0  0  0  0  0
   36.1490   29.0080   39.1960 H   0  0  0  0  0  0  0  0  0  0  0  0
   35.2830   30.5380   39.1000 H   0  0  0  0  0  0  0  0  0  0  0  0
   36.0290   30.1300   41.0810 C   0  0  0  0  0  0  0  0  0  0  0  0
   35.0480   30.3330   41.4770 H   0  0  0  0  0  0  0  0  0  0  0  0
   36.6710   30.9940   41.4040 H   0  0  0  0  0  0  0  0  0  0  0  0
   38.1670   27.9950   43.3040 C   0  0  0  0  0  0  0  0  0  0  0  0
   37.5100   29.1300   42.7630 C   0  0  0  0  0  0  0  0  0  0  0  0
   36.7240   28.9410   41.6680 C   0  0  0  0  0  0  0  0  0  0  0  0
   36.5990   27.7000   41.1430 N   0  0  0  0  0  0  0  0  0  0  0  0
   37.2050   26.6490   41.6430 C   0  0  0  0  0  0  0  0  0  0  0  0
   37.9900   26.7730   42.7180 N   0  0  0  0  0  0  0  0  0  0  0  0
   38.7990   28.1350   44.1820 H   0  0  0  0  0  0  0  0  0  0  0  0
   37.6410   30.1030   43.2170 H   0  0  0  0  0  0  0  0  0  0  0  0
   37.0350   25.2960   41.0270 C   0  0  0  0  0  0  0  0  0  0  0  0
   36.4240   24.4260   41.9370 F   0  0  0  0  0  0  0  0  0  0  0  0
   38.2450   24.7330   40.7110 F   0  0  0  0  0  0  0  0  0  0  0  0
   36.2070   25.3520   39.9250 F   0  0  0  0  0  0  0  0  0  0  0  0
  1  4  1  6  0  0  0
  1 23  1  0  0  0  0
  1  3  1  0  0  0  0
  2  1  1  0  0  0  0
  2  3  1  0  0  0  0
  3  8  1  0  0  0  0
  3  7  1  1  0  0  0
  5  2  1  0  0  0  0
  6  2  1  0  0  0  0
  8  9  1  0  0  0  0
  9 15  1  0  0  0  0
  9 14  1  0  0  0  0
 10  9  1  0  0  0  0
 10 17  1  0  0  0  0
 11 10  1  0  0  0  0
 11 18  1  0  0  0  0
 12 11  1  0  0  0  0
 12 20  1  0  0  0  0
 13  8  1  0  0  0  0
 13 12  1  0  0  0  0
 16 10  1  0  0  0  0
 19 12  1  0  0  0  0
 21 13  1  0  0  0  0
 22 13  1  0  0  0  0
 23 26  1  0  0  0  0
 24 23  1  0  0  0  0
 25 23  1  0  0  0  0
 26 28  1  0  0  0  0
 26 27  1  0  0  0  0
 26 31  1  0  0  0  0
 29 35  1  0  0  0  0
 30 36  1  0  0  0  0
 30 29  1  0  0  0  0
 31 30  2  0  0  0  0
 32 33  2  0  0  0  0
 32 31  1  0  0  0  0
 33 34  1  0  0  0  0
 34 29  2  0  0  0  0
 37 33  1  0  0  0  0
 37 38  1  0  0  0  0
 39 37  1  0  0  0  0
 40 37  1  0  0  0  0
M  END
>  <minimizedAffinity>
-5.081182

$$$$

 OpenBabel03252502483D

 40 42  0  0  1  0  0  0  0  0999 V2000
   37.7330   29.6970   42.4020 C   0  0  1  0  0  0  0  0  0  0  0  0
   39.0280   30.4070   42.1330 C   0  0  0  0  0  0  0  0  0  0  0  0
   38.3480   29.5890   41.0830 C   0  0  2  0  0  0  0  0  0  0  0  0
   36.8870   30.3500   42.5900 H   0  0  0  0  0  0  0  0  0  0  0  0
   39.9810   30.0240   42.5900 H   0  0  0  0  0  0  0  0  0  0  0  0
   39.0300   31.5150   42.0850 H   0  0  0  0  0  0  0  0  0  0  0  0
   38.9360   28.7560   40.7200 H   0  0  0  0  0  0  0  0  0  0  0  0
   37.6960   30.3980   40.0700 N   0  0  0  0  0  0  0  0  0  0  0  0
   38.4400   30.5470   38.8740 C   0  0  0  0  0  0  0  0  0  0  0  0
   37.5980   31.4230   37.9650 C   0  0  0  0  0  0  0  0  0  0  0  0
   37.3910   32.7150   38.5130 N   0  0  0  0  0  0  0  0  0  0  0  0
   37.4280   32.7620   39.9650 C   0  0  0  0  0  0  0  0  0  0  0  0
   36.8890   31.4450   40.5320 C   0  0  0  0  0  0  0  0  0  0  0  0
   39.3760   31.0900   39.0660 H   0  0  0  0  0  0  0  0  0  0  0  0
   38.6490   29.5870   38.3970 H   0  0  0  0  0  0  0  0  0  0  0  0
   36.6570   30.9180   37.6660 H   0  0  0  0  0  0  0  0  0  0  0  0
   38.1900   31.5420   37.0220 H   0  0  0  0  0  0  0  0  0  0  0  0
   38.0570   33.4550   38.1430 H   0  0  0  0  0  0  0  0  0  0  0  0
   36.7300   33.5740   40.2720 H   0  0  0  0  0  0  0  0  0  0  0  0
   38.4660   32.9120   40.3090 H   0  0  0  0  0  0  0  0  0  0  0  0
   35.8510   31.3170   40.1430 H   0  0  0  0  0  0  0  0  0  0  0  0
   36.8480   31.5040   41.6230 H   0  0  0  0  0  0  0  0  0  0  0  0
   37.7790   28.4980   43.2910 C   0  0  0  0  0  0  0  0  0  0  0  0
   37.5260   28.7400   44.3520 H   0  0  0  0  0  0  0  0  0  0  0  0
   38.8090   28.0900   43.3380 H   0  0  0  0  0  0  0  0  0  0  0  0
   36.8480   27.4780   42.6860 C   0  0  0  0  0  0  0  0  0  0  0  0
   36.1720   27.8250   41.9230 H   0  0  0  0  0  0  0  0  0  0  0  0
   36.1970   27.1190   43.5280 H   0  0  0  0  0  0  0  0  0  0  0  0
   37.7670   23.9620   41.7540 C   0  0  0  0  0  0  0  0  0  0  0  0
   36.9910   25.1030   42.0870 C   0  0  0  0  0  0  0  0  0  0  0  0
   37.6520   26.2670   42.3270 C   0  0  0  0  0  0  0  0  0  0  0  0
   39.0020   26.2970   42.2400 N   0  0  0  0  0  0  0  0  0  0  0  0
   39.7220   25.2440   41.9320 C   0  0  0  0  0  0  0  0  0  0  0  0
   39.1280   24.0720   41.6850 N   0  0  0  0  0  0  0  0  0  0  0  0
   37.2470   23.0230   41.5590 H   0  0  0  0  0  0  0  0  0  0  0  0
   35.9130   25.0300   42.1440 H   0  0  0  0  0  0  0  0  0  0  0  0
   41.2140   25.3270   41.8490 C   0  0  0  0  0  0  0  0  0  0  0  0
   41.6270   26.6620   41.9350 F   0  0  0  0  0  0  0  0  0  0  0  0
   41.6750   24.8600   40.6440 F   0  0  0  0  0  0  0  0  0  0  0  0
   41.8090   24.6660   42.9020 F   0  0  0  0  0  0  0  0  0  0  0  0
  1  4  1  1  0  0  0
  1 23  1  0  0  0  0
  2  1  1  0  0  0  0
  2  5  1  0  0  0  0
  3  7  1  6  0  0  0
  3  2  1  0  0  0  0
  3  1  1  0  0  0  0
  6  2  1  0  0  0  0
  8 13  1  0  0  0  0
  8  3  1  0  0  0  0
  9 14  1  0  0  0  0
  9  8  1  0  0  0  0
 10 11  1  0  0  0  0
 10  9  1  0  0  0  0
 11 12  1  0  0  0  0
 12 19  1  0  0  0  0
 12 20  1  0  0  0  0
 12 13  1  0  0  0  0
 13 22  1  0  0  0  0
 15  9  1  0  0  0  0
 16 10  1  0  0  0  0
 17 10  1  0  0  0  0
 18 11  1  0  0  0  0
 21 13  1  0  0  0  0
 23 25  1  0  0  0  0
 23 24  1  0  0  0  0
 26 23  1  0  0  0  0
 26 28  1  0  0  0  0
 27 26  1  0  0  0  0
 29 30  1  0  0  0  0
 30 36  1  0  0  0  0
 30 31  2  0  0  0  0
 31 26  1  0  0  0  0
 32 31  1  0  0  0  0
 33 32  2  0  0  0  0
 34 29  2  0  0  0  0
 34 33  1  0  0  0  0
 35 29  1  0  0  0  0
 37 33  1  0  0  0  0
 37 38  1  0  0  0  0
 37 40  1  0  0  0  0
 39 37  1  0  0  0  0
M  END
>  <minimizedAffinity>
-5.04741907

$$$$

 OpenBabel03252502483D

 40 42  0  0  1  0  0  0  0  0999 V2000
   39.0950   30.7430   41.8270 C   0  0  1  0  0  0  0  0  0  0  0  0
   40.4400   31.3960   41.6880 C   0  0  0  0  0  0  0  0  0  0  0  0
   39.8590   30.5570   40.5970 C   0  0  2  0  0  0  0  0  0  0  0  0
   38.2590   31.4330   41.8850 H   0  0  0  0  0  0  0  0  0  0  0  0
   41.3160   31.0020   42.2710 H   0  0  0  0  0  0  0  0  0  0  0  0
   40.4910   32.5010   41.5970 H   0  0  0  0  0  0  0  0  0  0  0  0
   40.4520   29.6890   40.3410 H   0  0  0  0  0  0  0  0  0  0  0  0
   39.3640   31.3420   39.4820 N   0  0  0  0  0  0  0  0  0  0  0  0
   38.6570   30.5930   38.5100 C   0  0  0  0  0  0  0  0  0  0  0  0
   38.2410   31.5850   37.4400 C   0  0  0  0  0  0  0  0  0  0  0  0
   39.3590   32.1800   36.8020 N   0  0  0  0  0  0  0  0  0  0  0  0
   40.5520   32.2520   37.6300 C   0  0  0  0  0  0  0  0  0  0  0  0
   40.1460   32.4370   39.0940 C   0  0  0  0  0  0  0  0  0  0  0  0
   39.3190   29.8600   38.0280 H   0  0  0  0  0  0  0  0  0  0  0  0
   37.7810   30.0940   38.9320 H   0  0  0  0  0  0  0  0  0  0  0  0
   37.5130   32.3260   37.8290 H   0  0  0  0  0  0  0  0  0  0  0  0
   37.6840   30.9900   36.6710 H   0  0  0  0  0  0  0  0  0  0  0  0
   39.6260   31.7240   35.8800 H   0  0  0  0  0  0  0  0  0  0  0  0
   41.1010   33.1670   37.3110 H   0  0  0  0  0  0  0  0  0  0  0  0
   41.1370   31.3210   37.5250 H   0  0  0  0  0  0  0  0  0  0  0  0
   39.5370   33.3710   39.1540 H   0  0  0  0  0  0  0  0  0  0  0  0
   41.0390   32.5640   39.7100 H   0  0  0  0  0  0  0  0  0  0  0  0
   38.9880   29.5830   42.7620 C   0  0  0  0  0  0  0  0  0  0  0  0
   39.3750   29.8180   43.7840 H   0  0  0  0  0  0  0  0  0  0  0  0
   39.6230   28.7440   42.4110 H   0  0  0  0  0  0  0  0  0  0  0  0
   37.5390   29.1680   42.7660 C   0  0  0  0  0  0  0  0  0  0  0  0
   36.8070   29.9450   42.6310 H   0  0  0  0  0  0  0  0  0  0  0  0
   37.3450   28.7430   43.7880 H   0  0  0  0  0  0  0  0  0  0  0  0
   36.5230   26.9950   39.8810 C   0  0  0  0  0  0  0  0  0  0  0  0
   36.6600   28.1290   40.7240 C   0  0  0  0  0  0  0  0  0  0  0  0
   37.3910   27.9830   41.8630 C   0  0  0  0  0  0  0  0  0  0  0  0
   37.9520   26.7840   42.1460 N   0  0  0  0  0  0  0  0  0  0  0  0
   37.8270   25.7360   41.3670 C   0  0  0  0  0  0  0  0  0  0  0  0
   37.1220   25.8180   40.2350 N   0  0  0  0  0  0  0  0  0  0  0  0
   35.9400   27.1010   38.9650 H   0  0  0  0  0  0  0  0  0  0  0  0
   36.1930   29.0670   40.4560 H   0  0  0  0  0  0  0  0  0  0  0  0
   38.4680   24.4310   41.7230 C   0  0  0  0  0  0  0  0  0  0  0  0
   37.5330   23.3930   41.6300 F   0  0  0  0  0  0  0  0  0  0  0  0
   38.9130   24.4300   43.0200 F   0  0  0  0  0  0  0  0  0  0  0  0
   39.4860   24.1200   40.8450 F   0  0  0  0  0  0  0  0  0  0  0  0
  1  4  1  6  0  0  0
  1 23  1  0  0  0  0
  2  1  1  0  0  0  0
  2  5  1  0  0  0  0
  3  7  1  6  0  0  0
  3  2  1  0  0  0  0
  3  1  1  0  0  0  0
  6  2  1  0  0  0  0
  8  3  1  0  0  0  0
  9 15  1  0  0  0  0
  9  8  1  0  0  0  0
 10 16  1  0  0  0  0
 10  9  1  0  0  0  0
 11 10  1  0  0  0  0
 11 12  1  0  0  0  0
 12 13  1  0  0  0  0
 13 21  1  0  0  0  0
 13  8  1  0  0  0  0
 13 22  1  0  0  0  0
 14  9  1  0  0  0  0
 17 10  1  0  0  0  0
 18 11  1  0  0  0  0
 19 12  1  0  0  0  0
 20 12  1  0  0  0  0
 23 26  1  0  0  0  0
 23 24  1  0  0  0  0
 25 23  1  0  0  0  0
 26 28  1  0  0  0  0
 27 26  1  0  0  0  0
 29 34  2  0  0  0  0
 29 30  1  0  0  0  0
 30 31  2  0  0  0  0
 31 32  1  0  0  0  0
 31 26  1  0  0  0  0
 33 37  1  0  0  0  0
 33 32  2  0  0  0  0
 34 33  1  0  0  0  0
 35 29  1  0  0  0  0
 36 30  1  0  0  0  0
 37 39  1  0  0  0  0
 38 37  1  0  0  0  0
 40 37  1  0  0  0  0
M  END
>  <minimizedAffinity>
-5.01757908

$$$$
