
 OpenBabel03252501373D

 30 31  0  0  0  0  0  0  0  0999 V2000
   44.4710   34.6840   42.0730 C   0  0  0  0  0  0  0  0  0  0  0  0
   44.3480   33.4610   42.3880 O   0  0  0  0  0  0  0  0  0  0  0  0
   45.3650   35.3960   42.9390 N   0  0  0  0  0  0  0  0  0  0  0  0
   45.5720   36.3880   42.7950 H   0  0  0  0  0  0  0  0  0  0  0  0
   45.8500   34.4710   43.9540 C   0  0  0  0  0  0  0  0  0  0  0  0
   45.3550   34.3950   45.2380 C   0  0  0  0  0  0  0  0  0  0  0  0
   45.9510   33.4460   46.0600 C   0  0  0  0  0  0  0  0  0  0  0  0
   46.9460   32.6940   45.5440 N   0  0  0  0  0  0  0  0  0  0  0  0
   47.3980   32.8030   44.2870 C   0  0  0  0  0  0  0  0  0  0  0  0
   46.8430   33.7140   43.4570 N   0  0  0  0  0  0  0  0  0  0  0  0
   45.5770   33.3730   47.0640 H   0  0  0  0  0  0  0  0  0  0  0  0
   48.2010   32.1530   43.9650 H   0  0  0  0  0  0  0  0  0  0  0  0
   44.3160   35.2620   45.5900 N   0  0  0  0  0  0  0  0  0  0  0  0
   44.7300   35.9180   46.3040 H   0  0  0  0  0  0  0  0  0  0  0  0
   43.4000   35.0690   45.0860 H   0  0  0  0  0  0  0  0  0  0  0  0
   43.8310   35.3410   41.0050 O   0  0  0  0  0  0  0  0  0  0  0  0
   43.3640   33.9760   38.4200 Cl  0  0  0  0  0  0  0  0  0  0  0  0
   42.1640   34.4330   39.6000 C   0  0  0  0  0  0  0  0  0  0  0  0
   42.4750   35.0710   40.7880 C   0  0  0  0  0  0  0  0  0  0  0  0
   41.4860   35.4040   41.6760 C   0  0  0  0  0  0  0  0  0  0  0  0
   40.1450   35.1320   41.4490 C   0  0  0  0  0  0  0  0  0  0  0  0
   39.8050   34.4910   40.2660 C   0  0  0  0  0  0  0  0  0  0  0  0
   38.1380   34.0960   39.8730 Cl  0  0  0  0  0  0  0  0  0  0  0  0
   40.8320   34.1740   39.3980 C   0  0  0  0  0  0  0  0  0  0  0  0
   41.7700   35.9050   42.6000 H   0  0  0  0  0  0  0  0  0  0  0  0
   39.3710   35.4040   42.1670 H   0  0  0  0  0  0  0  0  0  0  0  0
   40.4760   33.4790   38.1100 C   0  0  0  0  0  0  0  0  0  0  0  0
   41.5630   32.7440   37.6230 F   0  0  0  0  0  0  0  0  0  0  0  0
   39.4940   32.5120   38.3400 F   0  0  0  0  0  0  0  0  0  0  0  0
   39.9850   34.3440   37.1720 F   0  0  0  0  0  0  0  0  0  0  0  0
  1  2  2  0  0  0  0
  1  3  1  0  0  0  0
  3  5  1  0  0  0  0
  4  3  1  0  0  0  0
  5  6  1  0  0  0  0
  6 13  1  0  0  0  0
  6  7  2  0  0  0  0
  7 11  1  0  0  0  0
  8  7  1  0  0  0  0
  9  8  2  0  0  0  0
 10  5  2  0  0  0  0
 10  9  1  0  0  0  0
 12  9  1  0  0  0  0
 13 14  1  0  0  0  0
 15 13  1  0  0  0  0
 16  1  1  0  0  0  0
 17 18  1  0  0  0  0
 18 19  1  0  0  0  0
 19 16  1  0  0  0  0
 19 20  2  0  0  0  0
 20 25  1  0  0  0  0
 21 20  1  0  0  0  0
 21 26  1  0  0  0  0
 22 21  2  0  0  0  0
 23 22  1  0  0  0  0
 24 18  2  0  0  0  0
 24 22  1  0  0  0  0
 27 29  1  0  0  0  0
 27 24  1  0  0  0  0
 28 27  1  0  0  0  0
 30 27  1  0  0  0  0
M  END
>  <minimizedAffinity>
-6.21928263

>  <minimizedRMSD>
0.456974447

$$$$
