
 OpenBabel03252506413D

 35 37  0  0  1  0  0  0  0  0999 V2000
   49.4400   33.3370   41.5000 N   0  0  1  0  0  0  0  0  0  0  0  0
   50.6710   33.1060   42.2150 C   0  0  0  0  0  0  0  0  0  0  0  0
   51.3090   31.7860   42.0210 C   0  0  0  0  0  0  0  0  0  0  0  0
   50.3920   30.6740   42.4410 C   0  0  0  0  0  0  0  0  0  0  0  0
   48.9590   31.0420   42.3190 C   0  0  0  0  0  0  0  0  0  0  0  0
   48.7930   32.0760   41.2490 C   0  0  2  0  0  0  0  0  0  0  0  0
   50.5220   33.2540   43.3110 H   0  0  0  0  0  0  0  0  0  0  0  0
   51.3790   33.9120   41.8640 H   0  0  0  0  0  0  0  0  0  0  0  0
   52.1330   31.7580   42.8160 H   0  0  0  0  0  0  0  0  0  0  0  0
   51.8720   31.6250   41.0990 H   0  0  0  0  0  0  0  0  0  0  0  0
   50.5660   30.2810   43.4510 H   0  0  0  0  0  0  0  0  0  0  0  0
   50.6400   29.8120   41.7530 H   0  0  0  0  0  0  0  0  0  0  0  0
   48.5690   31.4800   43.2750 H   0  0  0  0  0  0  0  0  0  0  0  0
   48.3190   30.1920   42.0440 H   0  0  0  0  0  0  0  0  0  0  0  0
   47.6830   32.3720   41.4030 H   0  0  0  0  0  0  0  0  0  0  0  0
   47.2370   34.5740   41.9980 C   0  0  1  0  0  0  0  0  0  0  0  0
   48.3130   35.5360   41.7080 C   0  0  0  0  0  0  0  0  0  0  0  0
   48.6580   34.2240   42.3070 C   0  0  2  0  0  0  0  0  0  0  0  0
   46.7750   34.1190   41.1110 H   0  0  0  0  0  0  0  0  0  0  0  0
   48.3970   36.4020   42.3740 H   0  0  0  0  0  0  0  0  0  0  0  0
   48.6180   35.7500   40.6580 H   0  0  0  0  0  0  0  0  0  0  0  0
   48.8820   34.1330   43.3920 H   0  0  0  0  0  0  0  0  0  0  0  0
   45.5240   36.0250   43.1610 C   0  0  0  0  0  0  0  0  0  0  0  0
   46.3140   34.8500   43.1370 C   0  0  0  0  0  0  0  0  0  0  0  0
   46.1940   33.9600   44.2150 C   0  0  0  0  0  0  0  0  0  0  0  0
   45.3310   34.2740   45.2120 N   0  0  0  0  0  0  0  0  0  0  0  0
   44.5890   35.4100   45.2030 C   0  0  0  0  0  0  0  0  0  0  0  0
   44.6810   36.2980   44.1710 N   0  0  0  0  0  0  0  0  0  0  0  0
   45.5950   36.7300   42.3450 H   0  0  0  0  0  0  0  0  0  0  0  0
   46.7870   33.0660   44.2070 H   0  0  0  0  0  0  0  0  0  0  0  0
   43.9360   35.5430   46.0640 H   0  0  0  0  0  0  0  0  0  0  0  0
   48.8030   31.5870   39.8450 C   0  0  0  0  0  0  0  0  0  0  0  0
   47.6990   32.0650   39.1190 F   0  0  0  0  0  0  0  0  0  0  0  0
   49.8830   32.1390   39.1220 F   0  0  0  0  0  0  0  0  0  0  0  0
   48.9680   30.2320   39.6860 F   0  0  0  0  0  0  0  0  0  0  0  0
  1  2  1  1  0  0  0
  1 18  1  0  0  0  0
  2  7  1  0  0  0  0
  3  2  1  0  0  0  0
  3  4  1  0  0  0  0
  3  9  1  0  0  0  0
  4 11  1  0  0  0  0
  5  4  1  0  0  0  0
  5 13  1  0  0  0  0
  6 15  1  1  0  0  0
  6  1  1  0  0  0  0
  6  5  1  0  0  0  0
  8  2  1  0  0  0  0
 10  3  1  0  0  0  0
 12  4  1  0  0  0  0
 14  5  1  0  0  0  0
 16 19  1  6  0  0  0
 16 18  1  0  0  0  0
 16 24  1  0  0  0  0
 17 16  1  0  0  0  0
 17 18  1  0  0  0  0
 17 20  1  0  0  0  0
 18 22  1  1  0  0  0
 21 17  1  0  0  0  0
 23 28  1  0  0  0  0
 24 23  2  0  0  0  0
 24 25  1  0  0  0  0
 25 26  2  0  0  0  0
 27 26  1  0  0  0  0
 27 31  1  0  0  0  0
 28 27  2  0  0  0  0
 29 23  1  0  0  0  0
 30 25  1  0  0  0  0
 32  6  1  0  0  0  0
 33 32  1  0  0  0  0
 34 32  1  0  0  0  0
 35 32  1  0  0  0  0
M  END
>  <minimizedAffinity>
-4.68144512

>  <minimizedRMSD>
0.546568811

$$$$
