
 OpenBabel03242522413D

 42 44  0  0  0  0  0  0  0  0999 V2000
   46.1250   31.7900   45.2570 C   0  0  0  0  0  0  0  0  0  0  0  0
   45.0690   32.0520   45.5370 H   0  0  0  0  0  0  0  0  0  0  0  0
   45.9580   30.7680   44.7990 H   0  0  0  0  0  0  0  0  0  0  0  0
   47.1040   32.5270   47.4000 C   0  0  0  0  0  0  0  0  0  0  0  0
   47.0060   31.5420   46.3890 C   0  0  0  0  0  0  0  0  0  0  0  0
   47.7310   30.3760   46.5570 C   0  0  0  0  0  0  0  0  0  0  0  0
   48.4840   30.2460   47.6720 N   0  0  0  0  0  0  0  0  0  0  0  0
   48.5550   31.1870   48.6080 C   0  0  0  0  0  0  0  0  0  0  0  0
   47.8670   32.3450   48.4890 N   0  0  0  0  0  0  0  0  0  0  0  0
   46.6380   33.4940   47.4650 H   0  0  0  0  0  0  0  0  0  0  0  0
   47.6690   29.6190   45.8010 H   0  0  0  0  0  0  0  0  0  0  0  0
   49.4180   30.9320   49.8070 C   0  0  0  0  0  0  0  0  0  0  0  0
   49.5400   29.8460   49.9750 H   0  0  0  0  0  0  0  0  0  0  0  0
   48.8510   31.3080   50.6870 H   0  0  0  0  0  0  0  0  0  0  0  0
   50.6940   31.6420   49.7660 C   0  0  0  0  0  0  0  0  0  0  0  0
   51.8900   31.1040   49.3070 C   0  0  0  0  0  0  0  0  0  0  0  0
   52.8640   32.0610   49.4210 C   0  0  0  0  0  0  0  0  0  0  0  0
   52.2310   33.1530   49.9480 N   0  0  0  0  0  0  0  0  0  0  0  0
   50.9380   32.9060   50.1540 N   0  0  0  0  0  0  0  0  0  0  0  0
   52.1110   30.1160   48.9110 H   0  0  0  0  0  0  0  0  0  0  0  0
   53.9160   32.1020   49.1960 H   0  0  0  0  0  0  0  0  0  0  0  0
   52.6060   34.1060   50.1960 H   0  0  0  0  0  0  0  0  0  0  0  0
   46.7920   32.7740   44.3540 C   0  0  0  0  0  0  0  0  0  0  0  0
   46.7090   32.2770   43.3780 H   0  0  0  0  0  0  0  0  0  0  0  0
   47.7780   33.0380   44.7160 H   0  0  0  0  0  0  0  0  0  0  0  0
   46.4110   34.7650   43.0230 C   0  0  0  0  0  0  0  0  0  0  0  0
   46.0850   34.0490   44.1560 C   0  0  0  0  0  0  0  0  0  0  0  0
   45.1810   34.4090   45.0780 C   0  0  0  0  0  0  0  0  0  0  0  0
   44.5130   35.5930   44.8960 C   0  0  0  0  0  0  0  0  0  0  0  0
   44.7510   36.3820   43.8150 C   0  0  0  0  0  0  0  0  0  0  0  0
   45.6960   35.9430   42.9060 C   0  0  0  0  0  0  0  0  0  0  0  0
   44.8540   33.9320   45.9580 H   0  0  0  0  0  0  0  0  0  0  0  0
   43.7590   36.0040   45.5650 H   0  0  0  0  0  0  0  0  0  0  0  0
   44.2510   37.3230   43.6230 H   0  0  0  0  0  0  0  0  0  0  0  0
   45.8780   36.5950   42.0320 H   0  0  0  0  0  0  0  0  0  0  0  0
   47.5870   34.4230   41.8310 S   0  0  0  0  0  0  0  0  0  0  0  0
   48.5140   35.5970   41.5970 O   0  0  0  0  0  0  0  0  0  0  0  0
   46.8070   34.3070   40.4950 O   0  0  0  0  0  0  0  0  0  0  0  0
   48.4980   33.0190   41.7140 C   0  0  0  0  0  0  0  0  0  0  0  0
   47.9590   31.7790   41.9100 F   0  0  0  0  0  0  0  0  0  0  0  0
   49.5460   32.9770   40.7640 F   0  0  0  0  0  0  0  0  0  0  0  0
   49.3730   33.0370   42.8300 F   0  0  0  0  0  0  0  0  0  0  0  0
  1  2  1  0  0  0  0
  1  5  1  0  0  0  0
  3  1  1  0  0  0  0
  4 10  1  0  0  0  0
  4  9  1  0  0  0  0
  5  6  1  0  0  0  0
  5  4  2  0  0  0  0
  6  7  2  0  0  0  0
  7  8  1  0  0  0  0
  8 12  1  0  0  0  0
  9  8  2  0  0  0  0
 11  6  1  0  0  0  0
 12 13  1  0  0  0  0
 12 14  1  0  0  0  0
 15 12  1  0  0  0  0
 15 19  2  0  0  0  0
 16 17  2  0  0  0  0
 16 15  1  0  0  0  0
 17 18  1  0  0  0  0
 18 19  1  0  0  0  0
 18 22  1  0  0  0  0
 20 16  1  0  0  0  0
 21 17  1  0  0  0  0
 23 25  1  0  0  0  0
 23  1  1  0  0  0  0
 24 23  1  0  0  0  0
 26 27  1  0  0  0  0
 27 23  1  0  0  0  0
 27 28  2  0  0  0  0
 28 32  1  0  0  0  0
 29 28  1  0  0  0  0
 29 33  1  0  0  0  0
 30 29  2  0  0  0  0
 31 26  2  0  0  0  0
 31 30  1  0  0  0  0
 34 30  1  0  0  0  0
 35 31  1  0  0  0  0
 36 26  1  0  0  0  0
 37 36  2  0  0  0  0
 38 36  2  0  0  0  0
 39 36  1  0  0  0  0
 39 40  1  0  0  0  0
 39 42  1  0  0  0  0
 41 39  1  0  0  0  0
M  END
>  <minimizedAffinity>
-6.08296728

>  <minimizedRMSD>
0.188448802

$$$$
