
 OpenBabel03242519263D

 35 37  0  0  0  0  0  0  0  0999 V2000
   37.9840   26.4810   42.1820 C   0  0  0  0  0  0  0  0  0  0  0  0
   39.0960   26.4060   43.0570 C   0  0  0  0  0  0  0  0  0  0  0  0
   39.8270   27.5640   43.3630 C   0  0  0  0  0  0  0  0  0  0  0  0
   39.3990   28.7260   42.7740 N   0  0  0  0  0  0  0  0  0  0  0  0
   38.3210   28.7690   41.9300 C   0  0  0  0  0  0  0  0  0  0  0  0
   37.6290   27.6570   41.6450 N   0  0  0  0  0  0  0  0  0  0  0  0
   39.4830   25.5440   43.5490 H   0  0  0  0  0  0  0  0  0  0  0  0
   40.6700   27.5770   44.0120 H   0  0  0  0  0  0  0  0  0  0  0  0
   37.2940   25.2050   41.9250 C   0  0  0  0  0  0  0  0  0  0  0  0
   38.1350   24.0270   42.1290 C   0  0  0  0  0  0  0  0  0  0  0  0
   38.4590   23.2820   40.8860 C   0  0  0  0  0  0  0  0  0  0  0  0
   37.2370   22.9190   40.0660 C   0  0  0  0  0  0  0  0  0  0  0  0
   36.1670   23.9700   40.0690 C   0  0  0  0  0  0  0  0  0  0  0  0
   36.7300   25.3170   40.4980 C   0  0  0  0  0  0  0  0  0  0  0  0
   36.3800   25.1770   42.5690 H   0  0  0  0  0  0  0  0  0  0  0  0
   39.0960   24.2530   42.6320 H   0  0  0  0  0  0  0  0  0  0  0  0
   37.6350   23.2900   42.8230 H   0  0  0  0  0  0  0  0  0  0  0  0
   39.2100   23.7040   40.2270 H   0  0  0  0  0  0  0  0  0  0  0  0
   38.8810   22.2890   41.2220 H   0  0  0  0  0  0  0  0  0  0  0  0
   36.7770   21.9920   40.4700 H   0  0  0  0  0  0  0  0  0  0  0  0
   37.5900   22.6860   39.0340 H   0  0  0  0  0  0  0  0  0  0  0  0
   35.3290   23.7350   40.7560 H   0  0  0  0  0  0  0  0  0  0  0  0
   35.7730   24.0990   39.0470 H   0  0  0  0  0  0  0  0  0  0  0  0
   37.4590   25.7180   39.7920 H   0  0  0  0  0  0  0  0  0  0  0  0
   35.8900   26.0410   40.5430 H   0  0  0  0  0  0  0  0  0  0  0  0
   38.0120   30.0730   41.3820 C   0  0  0  0  0  0  0  0  0  0  0  0
   36.7100   30.3240   41.0750 N   0  0  0  0  0  0  0  0  0  0  0  0
   36.5800   31.5640   40.5910 C   0  0  0  0  0  0  0  0  0  0  0  0
   37.8280   32.0910   40.5980 N   0  0  0  0  0  0  0  0  0  0  0  0
   38.7070   31.1880   41.0780 N   0  0  0  0  0  0  0  0  0  0  0  0
   35.6920   32.0850   40.2510 H   0  0  0  0  0  0  0  0  0  0  0  0
   38.2630   33.4060   40.1780 C   0  0  0  0  0  0  0  0  0  0  0  0
   39.2790   33.2920   39.2690 F   0  0  0  0  0  0  0  0  0  0  0  0
   37.1620   34.0890   39.6820 F   0  0  0  0  0  0  0  0  0  0  0  0
   38.7360   34.1610   41.2300 F   0  0  0  0  0  0  0  0  0  0  0  0
  1  2  1  0  0  0  0
  2  3  2  0  0  0  0
  2  7  1  0  0  0  0
  3  8  1  0  0  0  0
  4  3  1  0  0  0  0
  5  4  2  0  0  0  0
  6  5  1  0  0  0  0
  6  1  2  0  0  0  0
  9 10  1  0  0  0  0
  9  1  1  0  0  0  0
  9 15  1  0  0  0  0
 10 16  1  0  0  0  0
 10 17  1  0  0  0  0
 11 19  1  0  0  0  0
 11 10  1  0  0  0  0
 12 13  1  0  0  0  0
 12 20  1  0  0  0  0
 12 11  1  0  0  0  0
 13 14  1  0  0  0  0
 13 22  1  0  0  0  0
 14 25  1  0  0  0  0
 14  9  1  0  0  0  0
 18 11  1  0  0  0  0
 21 12  1  0  0  0  0
 23 13  1  0  0  0  0
 24 14  1  0  0  0  0
 26  5  1  0  0  0  0
 27 26  1  0  0  0  0
 28 29  1  0  0  0  0
 28 27  2  0  0  0  0
 29 30  1  0  0  0  0
 30 26  2  0  0  0  0
 31 28  1  0  0  0  0
 32 29  1  0  0  0  0
 32 35  1  0  0  0  0
 33 32  1  0  0  0  0
 34 32  1  0  0  0  0
M  END
>  <minimizedAffinity>
-5.72205257

$$$$

 OpenBabel03242519263D

 35 37  0  0  0  0  0  0  0  0999 V2000
   32.8180   29.2710   37.2960 C   0  0  0  0  0  0  0  0  0  0  0  0
   33.5540   28.9840   36.1210 C   0  0  0  0  0  0  0  0  0  0  0  0
   34.9290   28.7140   36.2020 C   0  0  0  0  0  0  0  0  0  0  0  0
   35.4820   28.7470   37.4570 N   0  0  0  0  0  0  0  0  0  0  0  0
   34.7450   29.0300   38.5770 C   0  0  0  0  0  0  0  0  0  0  0  0
   33.4330   29.2860   38.4880 N   0  0  0  0  0  0  0  0  0  0  0  0
   33.1940   28.9400   35.1190 H   0  0  0  0  0  0  0  0  0  0  0  0
   35.5390   28.4900   35.3600 H   0  0  0  0  0  0  0  0  0  0  0  0
   31.3850   29.5470   37.0940 C   0  0  0  0  0  0  0  0  0  0  0  0
   31.1110   30.4720   35.9970 C   0  0  0  0  0  0  0  0  0  0  0  0
   30.5730   31.7890   36.4240 C   0  0  0  0  0  0  0  0  0  0  0  0
   29.3650   31.6800   37.3330 C   0  0  0  0  0  0  0  0  0  0  0  0
   29.4300   30.5320   38.2970 C   0  0  0  0  0  0  0  0  0  0  0  0
   30.8600   30.0350   38.4550 C   0  0  0  0  0  0  0  0  0  0  0  0
   30.8680   28.5660   36.9480 H   0  0  0  0  0  0  0  0  0  0  0  0
   31.9940   30.6740   35.3590 H   0  0  0  0  0  0  0  0  0  0  0  0
   30.3560   30.0350   35.2800 H   0  0  0  0  0  0  0  0  0  0  0  0
   31.2690   32.5030   36.8520 H   0  0  0  0  0  0  0  0  0  0  0  0
   30.1790   32.2810   35.4860 H   0  0  0  0  0  0  0  0  0  0  0  0
   28.4490   31.5330   36.7220 H   0  0  0  0  0  0  0  0  0  0  0  0
   29.2570   32.6580   37.8570 H   0  0  0  0  0  0  0  0  0  0  0  0
   28.8180   29.6640   37.9800 H   0  0  0  0  0  0  0  0  0  0  0  0
   29.0950   30.8660   39.2940 H   0  0  0  0  0  0  0  0  0  0  0  0
   31.5180   30.7730   38.9160 H   0  0  0  0  0  0  0  0  0  0  0  0
   30.8420   29.1520   39.1270 H   0  0  0  0  0  0  0  0  0  0  0  0
   35.4850   29.0400   39.8210 C   0  0  0  0  0  0  0  0  0  0  0  0
   35.9180   30.2480   40.2750 N   0  0  0  0  0  0  0  0  0  0  0  0
   36.5740   30.0990   41.4320 C   0  0  0  0  0  0  0  0  0  0  0  0
   36.5450   28.7710   41.6990 N   0  0  0  0  0  0  0  0  0  0  0  0
   35.8840   28.1190   40.7220 N   0  0  0  0  0  0  0  0  0  0  0  0
   37.0450   30.8460   42.0610 H   0  0  0  0  0  0  0  0  0  0  0  0
   37.1050   28.0580   42.8270 C   0  0  0  0  0  0  0  0  0  0  0  0
   37.9820   27.1050   42.3870 F   0  0  0  0  0  0  0  0  0  0  0  0
   37.6880   28.9840   43.6790 F   0  0  0  0  0  0  0  0  0  0  0  0
   36.1380   27.4140   43.5700 F   0  0  0  0  0  0  0  0  0  0  0  0
  1  6  1  0  0  0  0
  2  3  1  0  0  0  0
  2  1  2  0  0  0  0
  3  4  2  0  0  0  0
  4  5  1  0  0  0  0
  5 26  1  0  0  0  0
  6  5  2  0  0  0  0
  7  2  1  0  0  0  0
  8  3  1  0  0  0  0
  9  1  1  0  0  0  0
  9 14  1  0  0  0  0
 10 11  1  0  0  0  0
 10  9  1  0  0  0  0
 11 18  1  0  0  0  0
 11 12  1  0  0  0  0
 12 21  1  0  0  0  0
 12 13  1  0  0  0  0
 13 14  1  0  0  0  0
 13 23  1  0  0  0  0
 14 24  1  0  0  0  0
 14 25  1  0  0  0  0
 15  9  1  0  0  0  0
 16 10  1  0  0  0  0
 17 10  1  0  0  0  0
 19 11  1  0  0  0  0
 20 12  1  0  0  0  0
 22 13  1  0  0  0  0
 26 27  1  0  0  0  0
 26 30  2  0  0  0  0
 27 28  2  0  0  0  0
 28 29  1  0  0  0  0
 28 31  1  0  0  0  0
 29 32  1  0  0  0  0
 30 29  1  0  0  0  0
 32 35  1  0  0  0  0
 32 34  1  0  0  0  0
 33 32  1  0  0  0  0
M  END
>  <minimizedAffinity>
-5.58253384

$$$$

 OpenBabel03242519263D

 35 37  0  0  0  0  0  0  0  0999 V2000
   38.2770   32.2930   39.2290 C   0  0  0  0  0  0  0  0  0  0  0  0
   38.4110   33.4660   40.0120 C   0  0  0  0  0  0  0  0  0  0  0  0
   39.6300   34.1610   40.0320 C   0  0  0  0  0  0  0  0  0  0  0  0
   40.6400   33.6370   39.2660 N   0  0  0  0  0  0  0  0  0  0  0  0
   40.4820   32.4990   38.5200 C   0  0  0  0  0  0  0  0  0  0  0  0
   39.3130   31.8440   38.5070 N   0  0  0  0  0  0  0  0  0  0  0  0
   37.6740   33.9290   40.6270 H   0  0  0  0  0  0  0  0  0  0  0  0
   39.7970   35.0460   40.5960 H   0  0  0  0  0  0  0  0  0  0  0  0
   36.9570   31.6410   39.2870 C   0  0  0  0  0  0  0  0  0  0  0  0
   36.5600   31.2290   40.6320 C   0  0  0  0  0  0  0  0  0  0  0  0
   36.5020   29.7580   40.8320 C   0  0  0  0  0  0  0  0  0  0  0  0
   35.6600   29.0430   39.7940 C   0  0  0  0  0  0  0  0  0  0  0  0
   35.7710   29.6230   38.4150 C   0  0  0  0  0  0  0  0  0  0  0  0
   37.0240   30.4770   38.2830 C   0  0  0  0  0  0  0  0  0  0  0  0
   36.2120   32.3400   38.8320 H   0  0  0  0  0  0  0  0  0  0  0  0
   37.2120   31.6400   41.4290 H   0  0  0  0  0  0  0  0  0  0  0  0
   35.5360   31.6280   40.8910 H   0  0  0  0  0  0  0  0  0  0  0  0
   37.4420   29.2280   40.9460 H   0  0  0  0  0  0  0  0  0  0  0  0
   35.9500   29.6010   41.8040 H   0  0  0  0  0  0  0  0  0  0  0  0
   34.5890   29.0980   40.0800 H   0  0  0  0  0  0  0  0  0  0  0  0
   35.9520   27.9670   39.8190 H   0  0  0  0  0  0  0  0  0  0  0  0
   34.9090   30.2660   38.1440 H   0  0  0  0  0  0  0  0  0  0  0  0
   35.8610   28.8080   37.6770 H   0  0  0  0  0  0  0  0  0  0  0  0
   37.9440   29.9000   38.3760 H   0  0  0  0  0  0  0  0  0  0  0  0
   37.0240   30.9290   37.2700 H   0  0  0  0  0  0  0  0  0  0  0  0
   41.6520   32.0730   37.7810 C   0  0  0  0  0  0  0  0  0  0  0  0
   42.7770   32.8290   37.9110 N   0  0  0  0  0  0  0  0  0  0  0  0
   43.7710   32.3080   37.1820 C   0  0  0  0  0  0  0  0  0  0  0  0
   43.2500   31.2070   36.5900 N   0  0  0  0  0  0  0  0  0  0  0  0
   41.9590   31.0570   36.9490 N   0  0  0  0  0  0  0  0  0  0  0  0
   44.7910   32.6530   37.0580 H   0  0  0  0  0  0  0  0  0  0  0  0
   43.8890   30.2680   35.6930 C   0  0  0  0  0  0  0  0  0  0  0  0
   44.9130   30.8840   35.0260 F   0  0  0  0  0  0  0  0  0  0  0  0
   44.3040   29.1720   36.4360 F   0  0  0  0  0  0  0  0  0  0  0  0
   43.0180   29.7770   34.7430 F   0  0  0  0  0  0  0  0  0  0  0  0
  1  9  1  0  0  0  0
  1  2  1  0  0  0  0
  2  3  2  0  0  0  0
  2  7  1  0  0  0  0
  3  8  1  0  0  0  0
  4  3  1  0  0  0  0
  5  4  2  0  0  0  0
  6  5  1  0  0  0  0
  6  1  2  0  0  0  0
  9 10  1  0  0  0  0
 10 11  1  0  0  0  0
 10 17  1  0  0  0  0
 10 16  1  0  0  0  0
 11 18  1  0  0  0  0
 11 19  1  0  0  0  0
 12 21  1  0  0  0  0
 12 20  1  0  0  0  0
 12 11  1  0  0  0  0
 13 12  1  0  0  0  0
 14 24  1  0  0  0  0
 14 13  1  0  0  0  0
 14  9  1  0  0  0  0
 15  9  1  0  0  0  0
 22 13  1  0  0  0  0
 23 13  1  0  0  0  0
 25 14  1  0  0  0  0
 26 27  1  0  0  0  0
 26  5  1  0  0  0  0
 28 27  2  0  0  0  0
 29 30  1  0  0  0  0
 29 28  1  0  0  0  0
 30 26  2  0  0  0  0
 31 28  1  0  0  0  0
 32 34  1  0  0  0  0
 32 29  1  0  0  0  0
 33 32  1  0  0  0  0
 35 32  1  0  0  0  0
M  END
>  <minimizedAffinity>
-5.27803993

$$$$

 OpenBabel03242519263D

 35 37  0  0  0  0  0  0  0  0999 V2000
   37.0890   28.3770   41.6050 C   0  0  0  0  0  0  0  0  0  0  0  0
   35.7860   28.5770   41.0870 C   0  0  0  0  0  0  0  0  0  0  0  0
   35.5050   29.7140   40.3140 C   0  0  0  0  0  0  0  0  0  0  0  0
   36.5470   30.5810   40.1070 N   0  0  0  0  0  0  0  0  0  0  0  0
   37.7980   30.3630   40.6220 C   0  0  0  0  0  0  0  0  0  0  0  0
   38.0560   29.2740   41.3590 N   0  0  0  0  0  0  0  0  0  0  0  0
   34.9330   27.9500   41.2050 H   0  0  0  0  0  0  0  0  0  0  0  0
   34.5500   29.9230   39.8950 H   0  0  0  0  0  0  0  0  0  0  0  0
   37.2720   27.1550   42.4070 C   0  0  0  0  0  0  0  0  0  0  0  0
   38.5580   27.0890   43.0980 C   0  0  0  0  0  0  0  0  0  0  0  0
   39.4740   26.0350   42.5900 C   0  0  0  0  0  0  0  0  0  0  0  0
   38.8360   24.6610   42.5340 C   0  0  0  0  0  0  0  0  0  0  0  0
   37.3910   24.6750   42.1320 C   0  0  0  0  0  0  0  0  0  0  0  0
   37.0330   25.9830   41.4400 C   0  0  0  0  0  0  0  0  0  0  0  0
   36.4140   27.0870   43.1220 H   0  0  0  0  0  0  0  0  0  0  0  0
   39.1190   28.0440   43.0770 H   0  0  0  0  0  0  0  0  0  0  0  0
   38.4140   26.8860   44.1990 H   0  0  0  0  0  0  0  0  0  0  0  0
   39.9860   26.2220   41.6530 H   0  0  0  0  0  0  0  0  0  0  0  0
   40.2910   25.9380   43.3640 H   0  0  0  0  0  0  0  0  0  0  0  0
   38.8860   24.1840   43.5360 H   0  0  0  0  0  0  0  0  0  0  0  0
   39.4550   24.0390   41.8450 H   0  0  0  0  0  0  0  0  0  0  0  0
   36.7010   24.5630   42.9920 H   0  0  0  0  0  0  0  0  0  0  0  0
   37.2010   23.8670   41.4060 H   0  0  0  0  0  0  0  0  0  0  0  0
   37.5480   26.1160   40.4880 H   0  0  0  0  0  0  0  0  0  0  0  0
   35.9450   25.9660   41.2210 H   0  0  0  0  0  0  0  0  0  0  0  0
   38.7800   31.3850   40.3230 C   0  0  0  0  0  0  0  0  0  0  0  0
   38.6200   32.5940   40.9270 N   0  0  0  0  0  0  0  0  0  0  0  0
   39.6030   33.4250   40.5640 C   0  0  0  0  0  0  0  0  0  0  0  0
   40.3870   32.7150   39.7180 N   0  0  0  0  0  0  0  0  0  0  0  0
   39.8920   31.4700   39.5660 N   0  0  0  0  0  0  0  0  0  0  0  0
   39.7810   34.4550   40.8540 H   0  0  0  0  0  0  0  0  0  0  0  0
   41.5900   33.1290   39.0290 C   0  0  0  0  0  0  0  0  0  0  0  0
   42.4690   32.0830   38.9540 F   0  0  0  0  0  0  0  0  0  0  0  0
   41.2280   33.6270   37.7850 F   0  0  0  0  0  0  0  0  0  0  0  0
   42.2350   34.1610   39.6770 F   0  0  0  0  0  0  0  0  0  0  0  0
  1  9  1  0  0  0  0
  2  7  1  0  0  0  0
  2  1  2  0  0  0  0
  3  2  1  0  0  0  0
  4  3  2  0  0  0  0
  4  5  1  0  0  0  0
  5  6  2  0  0  0  0
  6  1  1  0  0  0  0
  8  3  1  0  0  0  0
  9 10  1  0  0  0  0
  9 15  1  0  0  0  0
 10 17  1  0  0  0  0
 11 10  1  0  0  0  0
 11 19  1  0  0  0  0
 12 11  1  0  0  0  0
 12 20  1  0  0  0  0
 13 12  1  0  0  0  0
 13 22  1  0  0  0  0
 14 13  1  0  0  0  0
 14  9  1  0  0  0  0
 16 10  1  0  0  0  0
 18 11  1  0  0  0  0
 21 12  1  0  0  0  0
 23 13  1  0  0  0  0
 24 14  1  0  0  0  0
 25 14  1  0  0  0  0
 26  5  1  0  0  0  0
 26 27  1  0  0  0  0
 28 31  1  0  0  0  0
 28 27  2  0  0  0  0
 29 28  1  0  0  0  0
 30 29  1  0  0  0  0
 30 26  2  0  0  0  0
 32 35  1  0  0  0  0
 32 29  1  0  0  0  0
 33 32  1  0  0  0  0
 34 32  1  0  0  0  0
M  END
>  <minimizedAffinity>
-5.25937176

$$$$

 OpenBabel03242519263D

 35 37  0  0  0  0  0  0  0  0999 V2000
   37.1420   26.6470   42.0270 C   0  0  0  0  0  0  0  0  0  0  0  0
   37.1170   27.0820   43.3750 C   0  0  0  0  0  0  0  0  0  0  0  0
   37.3250   28.4360   43.6800 C   0  0  0  0  0  0  0  0  0  0  0  0
   37.5450   29.2710   42.6140 N   0  0  0  0  0  0  0  0  0  0  0  0
   37.5660   28.8220   41.3200 C   0  0  0  0  0  0  0  0  0  0  0  0
   37.3650   27.5270   41.0400 N   0  0  0  0  0  0  0  0  0  0  0  0
   36.9510   26.4940   44.2480 H   0  0  0  0  0  0  0  0  0  0  0  0
   37.3180   28.8280   44.6680 H   0  0  0  0  0  0  0  0  0  0  0  0
   36.9180   25.2060   41.8220 C   0  0  0  0  0  0  0  0  0  0  0  0
   38.0210   24.3660   42.2850 C   0  0  0  0  0  0  0  0  0  0  0  0
   38.7660   23.6780   41.2000 C   0  0  0  0  0  0  0  0  0  0  0  0
   37.8720   22.8980   40.2570 C   0  0  0  0  0  0  0  0  0  0  0  0
   36.5550   23.5600   39.9780 C   0  0  0  0  0  0  0  0  0  0  0  0
   36.6080   25.0410   40.3250 C   0  0  0  0  0  0  0  0  0  0  0  0
   35.9550   24.9370   42.3230 H   0  0  0  0  0  0  0  0  0  0  0  0
   38.7670   24.9140   42.8950 H   0  0  0  0  0  0  0  0  0  0  0  0
   37.6480   23.5570   42.9800 H   0  0  0  0  0  0  0  0  0  0  0  0
   39.4620   24.2690   40.6140 H   0  0  0  0  0  0  0  0  0  0  0  0
   39.3970   22.8910   41.7100 H   0  0  0  0  0  0  0  0  0  0  0  0
   37.6440   21.9030   40.6950 H   0  0  0  0  0  0  0  0  0  0  0  0
   38.4550   22.7180   39.3230 H   0  0  0  0  0  0  0  0  0  0  0  0
   35.7180   23.1210   40.5560 H   0  0  0  0  0  0  0  0  0  0  0  0
   36.3280   23.4910   38.9010 H   0  0  0  0  0  0  0  0  0  0  0  0
   37.2980   25.6020   39.6920 H   0  0  0  0  0  0  0  0  0  0  0  0
   35.5970   25.4670   40.1590 H   0  0  0  0  0  0  0  0  0  0  0  0
   37.8270   29.8330   40.3160 C   0  0  0  0  0  0  0  0  0  0  0  0
   36.8710   30.7830   40.1290 N   0  0  0  0  0  0  0  0  0  0  0  0
   37.2570   31.6460   39.1820 C   0  0  0  0  0  0  0  0  0  0  0  0
   38.4780   31.2220   38.7770 N   0  0  0  0  0  0  0  0  0  0  0  0
   38.8320   30.1160   39.4630 N   0  0  0  0  0  0  0  0  0  0  0  0
   36.7430   32.5160   38.7880 H   0  0  0  0  0  0  0  0  0  0  0  0
   39.3510   31.7900   37.7730 C   0  0  0  0  0  0  0  0  0  0  0  0
   38.6260   32.1350   36.6660 F   0  0  0  0  0  0  0  0  0  0  0  0
   40.0250   32.8620   38.3400 F   0  0  0  0  0  0  0  0  0  0  0  0
   40.3250   30.9020   37.3650 F   0  0  0  0  0  0  0  0  0  0  0  0
  1  2  1  0  0  0  0
  2  3  2  0  0  0  0
  2  7  1  0  0  0  0
  3  8  1  0  0  0  0
  4  3  1  0  0  0  0
  5  4  2  0  0  0  0
  6  5  1  0  0  0  0
  6  1  2  0  0  0  0
  9  1  1  0  0  0  0
  9 10  1  0  0  0  0
  9 15  1  0  0  0  0
 10 16  1  0  0  0  0
 10 17  1  0  0  0  0
 11 19  1  0  0  0  0
 11 10  1  0  0  0  0
 12 20  1  0  0  0  0
 12 11  1  0  0  0  0
 13 12  1  0  0  0  0
 13 14  1  0  0  0  0
 13 22  1  0  0  0  0
 14  9  1  0  0  0  0
 18 11  1  0  0  0  0
 21 12  1  0  0  0  0
 23 13  1  0  0  0  0
 24 14  1  0  0  0  0
 25 14  1  0  0  0  0
 26  5  1  0  0  0  0
 27 26  1  0  0  0  0
 28 27  2  0  0  0  0
 29 28  1  0  0  0  0
 29 30  1  0  0  0  0
 30 26  2  0  0  0  0
 31 28  1  0  0  0  0
 32 34  1  0  0  0  0
 32 29  1  0  0  0  0
 33 32  1  0  0  0  0
 35 32  1  0  0  0  0
M  END
>  <minimizedAffinity>
-5.1964817

$$$$

 OpenBabel03242519263D

 35 37  0  0  0  0  0  0  0  0999 V2000
   37.1910   26.9850   41.5800 C   0  0  0  0  0  0  0  0  0  0  0  0
   37.0390   27.0380   42.9870 C   0  0  0  0  0  0  0  0  0  0  0  0
   37.3240   28.2250   43.6800 C   0  0  0  0  0  0  0  0  0  0  0  0
   37.7440   29.2860   42.9180 N   0  0  0  0  0  0  0  0  0  0  0  0
   37.8840   29.2050   41.5580 C   0  0  0  0  0  0  0  0  0  0  0  0
   37.6080   28.0670   40.9060 N   0  0  0  0  0  0  0  0  0  0  0  0
   36.7180   26.2590   43.6390 H   0  0  0  0  0  0  0  0  0  0  0  0
   37.2300   28.3330   44.7330 H   0  0  0  0  0  0  0  0  0  0  0  0
   36.8700   25.6890   40.9570 C   0  0  0  0  0  0  0  0  0  0  0  0
   37.0020   24.5500   41.8630 C   0  0  0  0  0  0  0  0  0  0  0  0
   38.1160   23.6260   41.5300 C   0  0  0  0  0  0  0  0  0  0  0  0
   38.0950   23.1520   40.0900 C   0  0  0  0  0  0  0  0  0  0  0  0
   37.6520   24.1980   39.1110 C   0  0  0  0  0  0  0  0  0  0  0  0
   37.7700   25.5910   39.7130 C   0  0  0  0  0  0  0  0  0  0  0  0
   35.8380   25.7620   40.5320 H   0  0  0  0  0  0  0  0  0  0  0  0
   37.1290   24.8430   42.9240 H   0  0  0  0  0  0  0  0  0  0  0  0
   36.0600   23.9270   41.8670 H   0  0  0  0  0  0  0  0  0  0  0  0
   39.1240   23.9420   41.7800 H   0  0  0  0  0  0  0  0  0  0  0  0
   37.9360   22.6920   42.1390 H   0  0  0  0  0  0  0  0  0  0  0  0
   37.3920   22.2990   39.9880 H   0  0  0  0  0  0  0  0  0  0  0  0
   39.1150   22.7670   39.8560 H   0  0  0  0  0  0  0  0  0  0  0  0
   36.5990   24.0720   38.7880 H   0  0  0  0  0  0  0  0  0  0  0  0
   38.3080   24.1770   38.2240 H   0  0  0  0  0  0  0  0  0  0  0  0
   38.8010   25.8790   39.9220 H   0  0  0  0  0  0  0  0  0  0  0  0
   37.3730   26.3180   38.9740 H   0  0  0  0  0  0  0  0  0  0  0  0
   38.3530   30.4120   40.9090 C   0  0  0  0  0  0  0  0  0  0  0  0
   37.5080   31.4790   40.9010 N   0  0  0  0  0  0  0  0  0  0  0  0
   38.0810   32.5160   40.2780 C   0  0  0  0  0  0  0  0  0  0  0  0
   39.3050   32.0810   39.8940 N   0  0  0  0  0  0  0  0  0  0  0  0
   39.4780   30.7990   40.2740 N   0  0  0  0  0  0  0  0  0  0  0  0
   37.6930   33.5120   40.0940 H   0  0  0  0  0  0  0  0  0  0  0  0
   40.3420   32.7950   39.1810 C   0  0  0  0  0  0  0  0  0  0  0  0
   41.5620   32.5210   39.7360 F   0  0  0  0  0  0  0  0  0  0  0  0
   40.2630   32.4490   37.8400 F   0  0  0  0  0  0  0  0  0  0  0  0
   40.1650   34.1610   39.2320 F   0  0  0  0  0  0  0  0  0  0  0  0
  1  2  1  0  0  0  0
  2  7  1  0  0  0  0
  2  3  2  0  0  0  0
  3  8  1  0  0  0  0
  4  3  1  0  0  0  0
  5  4  2  0  0  0  0
  6  5  1  0  0  0  0
  6  1  2  0  0  0  0
  9  1  1  0  0  0  0
  9 10  1  0  0  0  0
 10 17  1  0  0  0  0
 10 16  1  0  0  0  0
 11 18  1  0  0  0  0
 11 10  1  0  0  0  0
 11 19  1  0  0  0  0
 12 11  1  0  0  0  0
 13 14  1  0  0  0  0
 13 12  1  0  0  0  0
 14 24  1  0  0  0  0
 14  9  1  0  0  0  0
 15  9  1  0  0  0  0
 20 12  1  0  0  0  0
 21 12  1  0  0  0  0
 22 13  1  0  0  0  0
 23 13  1  0  0  0  0
 25 14  1  0  0  0  0
 26  5  1  0  0  0  0
 27 26  1  0  0  0  0
 28 27  2  0  0  0  0
 29 30  1  0  0  0  0
 29 28  1  0  0  0  0
 30 26  2  0  0  0  0
 31 28  1  0  0  0  0
 32 35  1  0  0  0  0
 32 33  1  0  0  0  0
 32 29  1  0  0  0  0
 34 32  1  0  0  0  0
M  END
>  <minimizedAffinity>
-5.19583988

$$$$

 OpenBabel03242519263D

 35 37  0  0  0  0  0  0  0  0999 V2000
   37.4450   26.2980   40.9900 C   0  0  0  0  0  0  0  0  0  0  0  0
   36.9500   26.0340   42.2900 C   0  0  0  0  0  0  0  0  0  0  0  0
   36.7140   27.0930   43.1800 C   0  0  0  0  0  0  0  0  0  0  0  0
   36.9900   28.3530   42.7110 N   0  0  0  0  0  0  0  0  0  0  0  0
   37.4710   28.5780   41.4480 C   0  0  0  0  0  0  0  0  0  0  0  0
   37.6920   27.5590   40.6060 N   0  0  0  0  0  0  0  0  0  0  0  0
   36.7130   25.0880   42.7190 H   0  0  0  0  0  0  0  0  0  0  0  0
   36.3430   26.9650   44.1680 H   0  0  0  0  0  0  0  0  0  0  0  0
   37.6620   25.1120   40.1420 C   0  0  0  0  0  0  0  0  0  0  0  0
   36.6140   24.9000   39.1450 C   0  0  0  0  0  0  0  0  0  0  0  0
   35.7780   23.6950   39.3810 C   0  0  0  0  0  0  0  0  0  0  0  0
   36.5890   22.4280   39.5690 C   0  0  0  0  0  0  0  0  0  0  0  0
   37.8680   22.6300   40.3260 C   0  0  0  0  0  0  0  0  0  0  0  0
   37.8340   23.9320   41.1130 C   0  0  0  0  0  0  0  0  0  0  0  0
   38.6700   25.2130   39.6670 H   0  0  0  0  0  0  0  0  0  0  0  0
   35.9230   25.7600   39.0420 H   0  0  0  0  0  0  0  0  0  0  0  0
   37.0570   24.7860   38.1130 H   0  0  0  0  0  0  0  0  0  0  0  0
   35.0260   23.7480   40.1600 H   0  0  0  0  0  0  0  0  0  0  0  0
   35.2040   23.5260   38.4230 H   0  0  0  0  0  0  0  0  0  0  0  0
   36.8650   22.0100   38.5780 H   0  0  0  0  0  0  0  0  0  0  0  0
   35.9230   21.6820   40.0650 H   0  0  0  0  0  0  0  0  0  0  0  0
   38.7590   22.6710   39.6680 H   0  0  0  0  0  0  0  0  0  0  0  0
   37.9960   21.8160   41.0590 H   0  0  0  0  0  0  0  0  0  0  0  0
   37.0840   23.9310   41.9050 H   0  0  0  0  0  0  0  0  0  0  0  0
   38.8220   24.0620   41.6020 H   0  0  0  0  0  0  0  0  0  0  0  0
   37.7240   29.9650   41.1180 C   0  0  0  0  0  0  0  0  0  0  0  0
   36.6780   30.6870   40.6300 N   0  0  0  0  0  0  0  0  0  0  0  0
   37.0610   31.9450   40.3830 C   0  0  0  0  0  0  0  0  0  0  0  0
   38.3700   32.0020   40.7250 N   0  0  0  0  0  0  0  0  0  0  0  0
   38.7820   30.7990   41.1740 N   0  0  0  0  0  0  0  0  0  0  0  0
   36.4870   32.7780   39.9930 H   0  0  0  0  0  0  0  0  0  0  0  0
   39.2800   33.1250   40.6590 C   0  0  0  0  0  0  0  0  0  0  0  0
   38.7970   34.1610   41.4120 F   0  0  0  0  0  0  0  0  0  0  0  0
   40.5330   32.6930   41.0670 F   0  0  0  0  0  0  0  0  0  0  0  0
   39.4390   33.5940   39.3720 F   0  0  0  0  0  0  0  0  0  0  0  0
  1  2  1  0  0  0  0
  2  7  1  0  0  0  0
  2  3  2  0  0  0  0
  3  8  1  0  0  0  0
  4  3  1  0  0  0  0
  5  4  2  0  0  0  0
  6  1  2  0  0  0  0
  6  5  1  0  0  0  0
  9  1  1  0  0  0  0
  9 14  1  0  0  0  0
 10 11  1  0  0  0  0
 10  9  1  0  0  0  0
 11 12  1  0  0  0  0
 11 18  1  0  0  0  0
 12 21  1  0  0  0  0
 12 13  1  0  0  0  0
 13 23  1  0  0  0  0
 13 14  1  0  0  0  0
 14 25  1  0  0  0  0
 14 24  1  0  0  0  0
 15  9  1  0  0  0  0
 16 10  1  0  0  0  0
 17 10  1  0  0  0  0
 19 11  1  0  0  0  0
 20 12  1  0  0  0  0
 22 13  1  0  0  0  0
 26 30  2  0  0  0  0
 26  5  1  0  0  0  0
 27 26  1  0  0  0  0
 28 27  2  0  0  0  0
 28 29  1  0  0  0  0
 29 30  1  0  0  0  0
 31 28  1  0  0  0  0
 32 29  1  0  0  0  0
 32 34  1  0  0  0  0
 32 33  1  0  0  0  0
 35 32  1  0  0  0  0
M  END
>  <minimizedAffinity>
-5.13030672

$$$$

 OpenBabel03242519263D

 35 37  0  0  0  0  0  0  0  0999 V2000
   37.0440   28.0290   41.5050 C   0  0  0  0  0  0  0  0  0  0  0  0
   37.2920   29.2540   42.1710 C   0  0  0  0  0  0  0  0  0  0  0  0
   37.1820   30.4670   41.4740 C   0  0  0  0  0  0  0  0  0  0  0  0
   36.8300   30.3770   40.1510 N   0  0  0  0  0  0  0  0  0  0  0  0
   36.5980   29.1770   39.5320 C   0  0  0  0  0  0  0  0  0  0  0  0
   36.7060   28.0240   40.2070 N   0  0  0  0  0  0  0  0  0  0  0  0
   37.5660   29.4000   43.1900 H   0  0  0  0  0  0  0  0  0  0  0  0
   37.3520   31.4200   41.9130 H   0  0  0  0  0  0  0  0  0  0  0  0
   37.1950   26.8180   42.3300 C   0  0  0  0  0  0  0  0  0  0  0  0
   38.3880   26.8240   43.1750 C   0  0  0  0  0  0  0  0  0  0  0  0
   39.4180   25.8250   42.7900 C   0  0  0  0  0  0  0  0  0  0  0  0
   38.8720   24.4170   42.6620 C   0  0  0  0  0  0  0  0  0  0  0  0
   37.4890   24.3490   42.0850 C   0  0  0  0  0  0  0  0  0  0  0  0
   37.1450   25.6360   41.3470 C   0  0  0  0  0  0  0  0  0  0  0  0
   36.2610   26.6990   42.9340 H   0  0  0  0  0  0  0  0  0  0  0  0
   38.8920   27.8100   43.2190 H   0  0  0  0  0  0  0  0  0  0  0  0
   38.1210   26.6100   44.2510 H   0  0  0  0  0  0  0  0  0  0  0  0
   40.0310   26.0430   41.9220 H   0  0  0  0  0  0  0  0  0  0  0  0
   40.1370   25.7730   43.6590 H   0  0  0  0  0  0  0  0  0  0  0  0
   38.8240   23.9420   43.6650 H   0  0  0  0  0  0  0  0  0  0  0  0
   39.6050   23.8330   42.0580 H   0  0  0  0  0  0  0  0  0  0  0  0
   36.7050   24.1950   42.8530 H   0  0  0  0  0  0  0  0  0  0  0  0
   37.4370   23.5330   41.3440 H   0  0  0  0  0  0  0  0  0  0  0  0
   37.7660   25.8000   40.4660 H   0  0  0  0  0  0  0  0  0  0  0  0
   36.0950   25.5570   40.9950 H   0  0  0  0  0  0  0  0  0  0  0  0
   36.2520   29.2590   38.1280 C   0  0  0  0  0  0  0  0  0  0  0  0
   35.1790   28.5310   37.7110 N   0  0  0  0  0  0  0  0  0  0  0  0
   34.9790   28.7150   36.4010 C   0  0  0  0  0  0  0  0  0  0  0  0
   35.9460   29.5740   36.0000 N   0  0  0  0  0  0  0  0  0  0  0  0
   36.7270   29.9100   37.0470 N   0  0  0  0  0  0  0  0  0  0  0  0
   34.2200   28.2920   35.7520 H   0  0  0  0  0  0  0  0  0  0  0  0
   36.1960   30.1120   34.6800 C   0  0  0  0  0  0  0  0  0  0  0  0
   36.8080   31.3310   34.7810 F   0  0  0  0  0  0  0  0  0  0  0  0
   36.9420   29.1840   33.9690 F   0  0  0  0  0  0  0  0  0  0  0  0
   35.0330   30.2950   33.9620 F   0  0  0  0  0  0  0  0  0  0  0  0
  1  2  1  0  0  0  0
  1  9  1  0  0  0  0
  2  7  1  0  0  0  0
  3  8  1  0  0  0  0
  3  2  2  0  0  0  0
  4  3  1  0  0  0  0
  5  4  2  0  0  0  0
  5  6  1  0  0  0  0
  6  1  2  0  0  0  0
  9 15  1  0  0  0  0
  9 10  1  0  0  0  0
 10 16  1  0  0  0  0
 10 17  1  0  0  0  0
 11 10  1  0  0  0  0
 11 19  1  0  0  0  0
 12 11  1  0  0  0  0
 12 20  1  0  0  0  0
 13 12  1  0  0  0  0
 13 22  1  0  0  0  0
 14 13  1  0  0  0  0
 14  9  1  0  0  0  0
 18 11  1  0  0  0  0
 21 12  1  0  0  0  0
 23 13  1  0  0  0  0
 24 14  1  0  0  0  0
 25 14  1  0  0  0  0
 26  5  1  0  0  0  0
 27 26  1  0  0  0  0
 28 27  2  0  0  0  0
 29 28  1  0  0  0  0
 29 30  1  0  0  0  0
 30 26  2  0  0  0  0
 31 28  1  0  0  0  0
 32 33  1  0  0  0  0
 32 29  1  0  0  0  0
 34 32  1  0  0  0  0
 35 32  1  0  0  0  0
M  END
>  <minimizedAffinity>
-5.06856346

$$$$

 OpenBabel03242519263D

 35 37  0  0  0  0  0  0  0  0999 V2000
   37.4240   30.6330   38.6710 C   0  0  0  0  0  0  0  0  0  0  0  0
   36.5860   30.1960   37.6160 C   0  0  0  0  0  0  0  0  0  0  0  0
   36.0850   28.8840   37.6160 C   0  0  0  0  0  0  0  0  0  0  0  0
   36.4540   28.0930   38.6740 N   0  0  0  0  0  0  0  0  0  0  0  0
   37.2680   28.5440   39.6800 C   0  0  0  0  0  0  0  0  0  0  0  0
   37.7410   29.7980   39.6700 N   0  0  0  0  0  0  0  0  0  0  0  0
   36.2590   30.7510   36.7680 H   0  0  0  0  0  0  0  0  0  0  0  0
   35.4510   28.4930   36.8570 H   0  0  0  0  0  0  0  0  0  0  0  0
   37.8980   32.0240   38.5660 C   0  0  0  0  0  0  0  0  0  0  0  0
   39.3510   32.1470   38.4730 C   0  0  0  0  0  0  0  0  0  0  0  0
   39.9930   32.7700   39.6590 C   0  0  0  0  0  0  0  0  0  0  0  0
   39.3770   34.1000   40.0460 C   0  0  0  0  0  0  0  0  0  0  0  0
   37.8900   34.1600   39.8620 C   0  0  0  0  0  0  0  0  0  0  0  0
   37.2960   32.7610   39.7750 C   0  0  0  0  0  0  0  0  0  0  0  0
   37.3860   32.4930   37.6890 H   0  0  0  0  0  0  0  0  0  0  0  0
   39.8650   31.1810   38.2960 H   0  0  0  0  0  0  0  0  0  0  0  0
   39.6470   32.7750   37.5820 H   0  0  0  0  0  0  0  0  0  0  0  0
   40.1010   32.1620   40.5510 H   0  0  0  0  0  0  0  0  0  0  0  0
   41.0460   33.0260   39.3420 H   0  0  0  0  0  0  0  0  0  0  0  0
   39.8100   34.9090   39.4200 H   0  0  0  0  0  0  0  0  0  0  0  0
   39.6760   34.3070   41.1010 H   0  0  0  0  0  0  0  0  0  0  0  0
   37.5870   34.6990   38.9410 H   0  0  0  0  0  0  0  0  0  0  0  0
   37.4280   34.6490   40.7370 H   0  0  0  0  0  0  0  0  0  0  0  0
   37.4010   32.1960   40.7020 H   0  0  0  0  0  0  0  0  0  0  0  0
   36.2090   32.8630   39.5780 H   0  0  0  0  0  0  0  0  0  0  0  0
   37.5730   27.5760   40.7120 C   0  0  0  0  0  0  0  0  0  0  0  0
   36.9560   27.7360   41.9150 N   0  0  0  0  0  0  0  0  0  0  0  0
   37.3280   26.7660   42.7580 C   0  0  0  0  0  0  0  0  0  0  0  0
   38.1930   25.9890   42.0620 N   0  0  0  0  0  0  0  0  0  0  0  0
   38.3480   26.4770   40.8150 N   0  0  0  0  0  0  0  0  0  0  0  0
   37.0310   26.5920   43.7860 H   0  0  0  0  0  0  0  0  0  0  0  0
   38.8970   24.8010   42.4930 C   0  0  0  0  0  0  0  0  0  0  0  0
   39.7370   24.3720   41.5020 F   0  0  0  0  0  0  0  0  0  0  0  0
   39.5580   25.0950   43.6780 F   0  0  0  0  0  0  0  0  0  0  0  0
   38.0400   23.7620   42.7840 F   0  0  0  0  0  0  0  0  0  0  0  0
  1  6  1  0  0  0  0
  2  3  1  0  0  0  0
  2  1  2  0  0  0  0
  3  4  2  0  0  0  0
  4  5  1  0  0  0  0
  5 26  1  0  0  0  0
  6  5  2  0  0  0  0
  7  2  1  0  0  0  0
  8  3  1  0  0  0  0
  9  1  1  0  0  0  0
  9 14  1  0  0  0  0
 10  9  1  0  0  0  0
 10 11  1  0  0  0  0
 11 12  1  0  0  0  0
 11 18  1  0  0  0  0
 12 21  1  0  0  0  0
 13 12  1  0  0  0  0
 13 23  1  0  0  0  0
 14 13  1  0  0  0  0
 14 24  1  0  0  0  0
 15  9  1  0  0  0  0
 16 10  1  0  0  0  0
 17 10  1  0  0  0  0
 19 11  1  0  0  0  0
 20 12  1  0  0  0  0
 22 13  1  0  0  0  0
 25 14  1  0  0  0  0
 26 30  2  0  0  0  0
 26 27  1  0  0  0  0
 27 28  2  0  0  0  0
 28 31  1  0  0  0  0
 29 32  1  0  0  0  0
 29 28  1  0  0  0  0
 30 29  1  0  0  0  0
 32 35  1  0  0  0  0
 32 34  1  0  0  0  0
 33 32  1  0  0  0  0
M  END
>  <minimizedAffinity>
-5.0030427

$$$$
