
 OpenBabel03242517433D

 14 14  0  0  0  0  0  0  0  0999 V2000
   35.6810   28.6800   40.2920 C   0  0  0  0  0  0  0  0  0  0  0  0
   36.9020   28.1620   40.7930 C   0  0  0  0  0  0  0  0  0  0  0  0
   37.8110   29.0190   41.3980 C   0  0  0  0  0  0  0  0  0  0  0  0
   37.4850   30.3360   41.4830 N   0  0  0  0  0  0  0  0  0  0  0  0
   36.3100   30.7960   40.9950 C   0  0  0  0  0  0  0  0  0  0  0  0
   35.4210   29.9960   40.4100 N   0  0  0  0  0  0  0  0  0  0  0  0
   34.9920   27.9910   39.8250 H   0  0  0  0  0  0  0  0  0  0  0  0
   38.7500   28.6400   41.7870 H   0  0  0  0  0  0  0  0  0  0  0  0
   36.2210   31.8570   41.1480 H   0  0  0  0  0  0  0  0  0  0  0  0
   37.2440   26.4040   40.6320 S   0  0  0  0  0  0  0  0  0  0  0  0
   37.1280   25.6300   42.2830 C   0  0  0  0  0  0  0  0  0  0  0  0
   36.4900   26.5000   43.1390 F   0  0  0  0  0  0  0  0  0  0  0  0
   38.3820   25.4140   42.8130 F   0  0  0  0  0  0  0  0  0  0  0  0
   36.4640   24.4330   42.2370 F   0  0  0  0  0  0  0  0  0  0  0  0
  1  6  2  0  0  0  0
  1  2  1  0  0  0  0
  2  3  2  0  0  0  0
  3  4  1  0  0  0  0
  3  8  1  0  0  0  0
  5  9  1  0  0  0  0
  5  4  2  0  0  0  0
  6  5  1  0  0  0  0
  7  1  1  0  0  0  0
 10  2  1  0  0  0  0
 10 11  1  0  0  0  0
 11 13  1  0  0  0  0
 11 12  1  0  0  0  0
 14 11  1  0  0  0  0
M  END
>  <minimizedAffinity>
-3.42181969

$$$$

 OpenBabel03242517433D

 14 14  0  0  0  0  0  0  0  0999 V2000
   38.5650   29.7760   40.2470 C   0  0  0  0  0  0  0  0  0  0  0  0
   37.2720   29.5980   40.7980 C   0  0  0  0  0  0  0  0  0  0  0  0
   36.4430   30.6990   40.9670 C   0  0  0  0  0  0  0  0  0  0  0  0
   36.9170   31.9170   40.5910 N   0  0  0  0  0  0  0  0  0  0  0  0
   38.1580   32.0500   40.0670 C   0  0  0  0  0  0  0  0  0  0  0  0
   38.9730   31.0110   39.8940 N   0  0  0  0  0  0  0  0  0  0  0  0
   39.1890   28.9030   40.1270 H   0  0  0  0  0  0  0  0  0  0  0  0
   35.4500   30.5810   41.3880 H   0  0  0  0  0  0  0  0  0  0  0  0
   38.3640   33.0780   39.8280 H   0  0  0  0  0  0  0  0  0  0  0  0
   36.7350   27.9480   41.2670 S   0  0  0  0  0  0  0  0  0  0  0  0
   36.9910   27.7360   43.0640 C   0  0  0  0  0  0  0  0  0  0  0  0
   37.9340   26.7530   43.2660 F   0  0  0  0  0  0  0  0  0  0  0  0
   35.8360   27.2980   43.6760 F   0  0  0  0  0  0  0  0  0  0  0  0
   37.3850   28.9040   43.6610 F   0  0  0  0  0  0  0  0  0  0  0  0
  1  2  1  0  0  0  0
  2  3  2  0  0  0  0
  2 10  1  0  0  0  0
  3  8  1  0  0  0  0
  4  3  1  0  0  0  0
  5  4  2  0  0  0  0
  6  5  1  0  0  0  0
  6  1  2  0  0  0  0
  7  1  1  0  0  0  0
  9  5  1  0  0  0  0
 10 11  1  0  0  0  0
 11 12  1  0  0  0  0
 11 14  1  0  0  0  0
 11 13  1  0  0  0  0
M  END
>  <minimizedAffinity>
-3.41997623

$$$$

 OpenBabel03242517433D

 14 14  0  0  0  0  0  0  0  0999 V2000
   37.3470   28.1870   40.9810 C   0  0  0  0  0  0  0  0  0  0  0  0
   37.9370   29.2450   41.7170 C   0  0  0  0  0  0  0  0  0  0  0  0
   38.0850   29.1220   43.0920 C   0  0  0  0  0  0  0  0  0  0  0  0
   37.6500   27.9760   43.6800 N   0  0  0  0  0  0  0  0  0  0  0  0
   37.0910   26.9850   42.9450 C   0  0  0  0  0  0  0  0  0  0  0  0
   36.9370   27.0770   41.6260 N   0  0  0  0  0  0  0  0  0  0  0  0
   37.2440   28.3090   39.9130 H   0  0  0  0  0  0  0  0  0  0  0  0
   38.5340   29.9220   43.6710 H   0  0  0  0  0  0  0  0  0  0  0  0
   36.8070   26.1580   43.5720 H   0  0  0  0  0  0  0  0  0  0  0  0
   38.4810   30.7230   40.8510 S   0  0  0  0  0  0  0  0  0  0  0  0
   37.0090   31.6390   40.2720 C   0  0  0  0  0  0  0  0  0  0  0  0
   35.9330   31.2960   41.0600 F   0  0  0  0  0  0  0  0  0  0  0  0
   36.6790   31.2740   38.9850 F   0  0  0  0  0  0  0  0  0  0  0  0
   37.2100   32.9930   40.3030 F   0  0  0  0  0  0  0  0  0  0  0  0
  1  6  2  0  0  0  0
  1  2  1  0  0  0  0
  2  3  2  0  0  0  0
  3  8  1  0  0  0  0
  3  4  1  0  0  0  0
  5  9  1  0  0  0  0
  5  4  2  0  0  0  0
  6  5  1  0  0  0  0
  7  1  1  0  0  0  0
 10  2  1  0  0  0  0
 11 14  1  0  0  0  0
 11 10  1  0  0  0  0
 11 12  1  0  0  0  0
 13 11  1  0  0  0  0
M  END
>  <minimizedAffinity>
-3.36105275

$$$$

 OpenBabel03242517433D

 14 14  0  0  0  0  0  0  0  0999 V2000
   38.9480   27.1270   42.2180 C   0  0  0  0  0  0  0  0  0  0  0  0
   37.7380   27.1250   41.4800 C   0  0  0  0  0  0  0  0  0  0  0  0
   36.8580   28.1910   41.6060 C   0  0  0  0  0  0  0  0  0  0  0  0
   37.2020   29.2040   42.4450 N   0  0  0  0  0  0  0  0  0  0  0  0
   38.3670   29.1740   43.1340 C   0  0  0  0  0  0  0  0  0  0  0  0
   39.2280   28.1630   43.0320 N   0  0  0  0  0  0  0  0  0  0  0  0
   39.6150   26.2850   42.1010 H   0  0  0  0  0  0  0  0  0  0  0  0
   35.9270   28.2050   41.0490 H   0  0  0  0  0  0  0  0  0  0  0  0
   38.4730   30.0530   43.7450 H   0  0  0  0  0  0  0  0  0  0  0  0
   37.3710   25.7380   40.3960 S   0  0  0  0  0  0  0  0  0  0  0  0
   36.7920   24.3350   41.4150 C   0  0  0  0  0  0  0  0  0  0  0  0
   37.7950   23.3940   41.4870 F   0  0  0  0  0  0  0  0  0  0  0  0
   35.7150   23.7110   40.8230 F   0  0  0  0  0  0  0  0  0  0  0  0
   36.4250   24.7380   42.6710 F   0  0  0  0  0  0  0  0  0  0  0  0
  1  6  1  0  0  0  0
  2  3  1  0  0  0  0
  2  1  2  0  0  0  0
  3  4  2  0  0  0  0
  4  5  1  0  0  0  0
  5  9  1  0  0  0  0
  6  5  2  0  0  0  0
  7  1  1  0  0  0  0
  8  3  1  0  0  0  0
 10 11  1  0  0  0  0
 10  2  1  0  0  0  0
 11 12  1  0  0  0  0
 11 14  1  0  0  0  0
 13 11  1  0  0  0  0
M  END
>  <minimizedAffinity>
-3.35836935

$$$$

 OpenBabel03242517433D

 14 14  0  0  0  0  0  0  0  0999 V2000
   38.3520   29.3650   40.3380 C   0  0  0  0  0  0  0  0  0  0  0  0
   37.1520   28.7060   40.7070 C   0  0  0  0  0  0  0  0  0  0  0  0
   36.0240   29.4580   41.0070 C   0  0  0  0  0  0  0  0  0  0  0  0
   36.1230   30.8120   40.9340 N   0  0  0  0  0  0  0  0  0  0  0  0
   37.2850   31.4070   40.5770 C   0  0  0  0  0  0  0  0  0  0  0  0
   38.3810   30.7100   40.2850 N   0  0  0  0  0  0  0  0  0  0  0  0
   39.2140   28.7560   40.1100 H   0  0  0  0  0  0  0  0  0  0  0  0
   35.0980   28.9700   41.2920 H   0  0  0  0  0  0  0  0  0  0  0  0
   37.1810   32.4780   40.5720 H   0  0  0  0  0  0  0  0  0  0  0  0
   37.1200   26.9100   40.7770 S   0  0  0  0  0  0  0  0  0  0  0  0
   37.0870   26.3920   42.5290 C   0  0  0  0  0  0  0  0  0  0  0  0
   36.5870   25.1110   42.6060 F   0  0  0  0  0  0  0  0  0  0  0  0
   36.2310   27.1880   43.2600 F   0  0  0  0  0  0  0  0  0  0  0  0
   38.3310   26.4530   43.1000 F   0  0  0  0  0  0  0  0  0  0  0  0
  1  2  1  0  0  0  0
  2 10  1  0  0  0  0
  2  3  2  0  0  0  0
  3  8  1  0  0  0  0
  4  3  1  0  0  0  0
  5  4  2  0  0  0  0
  6  1  2  0  0  0  0
  6  5  1  0  0  0  0
  7  1  1  0  0  0  0
  9  5  1  0  0  0  0
 10 11  1  0  0  0  0
 11 12  1  0  0  0  0
 11 14  1  0  0  0  0
 11 13  1  0  0  0  0
M  END
>  <minimizedAffinity>
-3.33698773

$$$$

 OpenBabel03242517433D

 14 14  0  0  0  0  0  0  0  0999 V2000
   36.8690   31.3170   40.4420 C   0  0  0  0  0  0  0  0  0  0  0  0
   37.6650   30.2590   40.9490 C   0  0  0  0  0  0  0  0  0  0  0  0
   38.9790   30.5090   41.3190 C   0  0  0  0  0  0  0  0  0  0  0  0
   39.4520   31.7760   41.1750 N   0  0  0  0  0  0  0  0  0  0  0  0
   38.6630   32.7620   40.6880 C   0  0  0  0  0  0  0  0  0  0  0  0
   37.4000   32.5500   40.3260 N   0  0  0  0  0  0  0  0  0  0  0  0
   35.8500   31.0950   40.1620 H   0  0  0  0  0  0  0  0  0  0  0  0
   39.6030   29.7110   41.7090 H   0  0  0  0  0  0  0  0  0  0  0  0
   39.1990   33.6940   40.6440 H   0  0  0  0  0  0  0  0  0  0  0  0
   36.9510   28.6160   41.1010 S   0  0  0  0  0  0  0  0  0  0  0  0
   37.2170   28.0160   42.8070 C   0  0  0  0  0  0  0  0  0  0  0  0
   36.0810   27.3640   43.2310 F   0  0  0  0  0  0  0  0  0  0  0  0
   37.4070   29.0700   43.6740 F   0  0  0  0  0  0  0  0  0  0  0  0
   38.3030   27.1850   42.8880 F   0  0  0  0  0  0  0  0  0  0  0  0
  1  2  1  0  0  0  0
  2 10  1  0  0  0  0
  2  3  2  0  0  0  0
  3  8  1  0  0  0  0
  4  3  1  0  0  0  0
  5  4  2  0  0  0  0
  6  1  2  0  0  0  0
  6  5  1  0  0  0  0
  7  1  1  0  0  0  0
  9  5  1  0  0  0  0
 10 11  1  0  0  0  0
 11 14  1  0  0  0  0
 11 12  1  0  0  0  0
 11 13  1  0  0  0  0
M  END
>  <minimizedAffinity>
-3.33486533

$$$$

 OpenBabel03242517433D

 14 14  0  0  0  0  0  0  0  0999 V2000
   38.1720   29.5790   42.5910 C   0  0  0  0  0  0  0  0  0  0  0  0
   37.0230   29.4470   41.7720 C   0  0  0  0  0  0  0  0  0  0  0  0
   36.3960   28.2130   41.6670 C   0  0  0  0  0  0  0  0  0  0  0  0
   36.9210   27.1710   42.3660 N   0  0  0  0  0  0  0  0  0  0  0  0
   38.0190   27.3340   43.1400 C   0  0  0  0  0  0  0  0  0  0  0  0
   38.6390   28.5060   43.2570 N   0  0  0  0  0  0  0  0  0  0  0  0
   38.6400   30.5510   42.6540 H   0  0  0  0  0  0  0  0  0  0  0  0
   35.5160   28.0930   41.0440 H   0  0  0  0  0  0  0  0  0  0  0  0
   38.2920   26.4080   43.6160 H   0  0  0  0  0  0  0  0  0  0  0  0
   36.4040   30.8830   40.8850 S   0  0  0  0  0  0  0  0  0  0  0  0
   36.7390   30.6610   39.1020 C   0  0  0  0  0  0  0  0  0  0  0  0
   36.8310   31.9000   38.5080 F   0  0  0  0  0  0  0  0  0  0  0  0
   35.6940   30.0100   38.4830 F   0  0  0  0  0  0  0  0  0  0  0  0
   37.8860   29.9430   38.8870 F   0  0  0  0  0  0  0  0  0  0  0  0
  1  7  1  0  0  0  0
  1  6  1  0  0  0  0
  2  1  2  0  0  0  0
  3  2  1  0  0  0  0
  3  4  2  0  0  0  0
  4  5  1  0  0  0  0
  5  6  2  0  0  0  0
  5  9  1  0  0  0  0
  8  3  1  0  0  0  0
 10  2  1  0  0  0  0
 11 10  1  0  0  0  0
 12 11  1  0  0  0  0
 13 11  1  0  0  0  0
 14 11  1  0  0  0  0
M  END
>  <minimizedAffinity>
-3.33430219

$$$$

 OpenBabel03242517433D

 14 14  0  0  0  0  0  0  0  0999 V2000
   37.3270   28.5060   41.3040 C   0  0  0  0  0  0  0  0  0  0  0  0
   38.1880   27.3960   41.4890 C   0  0  0  0  0  0  0  0  0  0  0  0
   39.3050   27.5250   42.3040 C   0  0  0  0  0  0  0  0  0  0  0  0
   39.5260   28.7290   42.8960 N   0  0  0  0  0  0  0  0  0  0  0  0
   38.6810   29.7680   42.6980 C   0  0  0  0  0  0  0  0  0  0  0  0
   37.6040   29.6710   41.9220 N   0  0  0  0  0  0  0  0  0  0  0  0
   36.4660   28.3780   40.6650 H   0  0  0  0  0  0  0  0  0  0  0  0
   39.9750   26.6850   42.4560 H   0  0  0  0  0  0  0  0  0  0  0  0
   39.0090   30.6370   43.2410 H   0  0  0  0  0  0  0  0  0  0  0  0
   37.8140   25.8440   40.6620 S   0  0  0  0  0  0  0  0  0  0  0  0
   37.0050   24.7220   41.8570 C   0  0  0  0  0  0  0  0  0  0  0  0
   37.9470   23.8520   42.3580 F   0  0  0  0  0  0  0  0  0  0  0  0
   36.0520   23.9460   41.2330 F   0  0  0  0  0  0  0  0  0  0  0  0
   36.4050   25.4130   42.8750 F   0  0  0  0  0  0  0  0  0  0  0  0
  1  2  2  0  0  0  0
  1  6  1  0  0  0  0
  2  3  1  0  0  0  0
  3  8  1  0  0  0  0
  3  4  2  0  0  0  0
  5  4  1  0  0  0  0
  5  9  1  0  0  0  0
  6  5  2  0  0  0  0
  7  1  1  0  0  0  0
 10  2  1  0  0  0  0
 10 11  1  0  0  0  0
 11 12  1  0  0  0  0
 11 14  1  0  0  0  0
 13 11  1  0  0  0  0
M  END
>  <minimizedAffinity>
-3.18601632

$$$$

 OpenBabel03242517433D

 14 14  0  0  0  0  0  0  0  0999 V2000
   37.0390   31.3550   39.3270 C   0  0  0  0  0  0  0  0  0  0  0  0
   37.8800   30.6890   40.2540 C   0  0  0  0  0  0  0  0  0  0  0  0
   38.7280   31.4330   41.0630 C   0  0  0  0  0  0  0  0  0  0  0  0
   38.7140   32.7850   40.9280 N   0  0  0  0  0  0  0  0  0  0  0  0
   37.8960   33.3880   40.0330 C   0  0  0  0  0  0  0  0  0  0  0  0
   37.0740   32.6990   39.2450 N   0  0  0  0  0  0  0  0  0  0  0  0
   36.3890   30.7520   38.7090 H   0  0  0  0  0  0  0  0  0  0  0  0
   39.3800   30.9400   41.7770 H   0  0  0  0  0  0  0  0  0  0  0  0
   38.0170   34.4570   40.0630 H   0  0  0  0  0  0  0  0  0  0  0  0
   37.8290   28.8950   40.3580 S   0  0  0  0  0  0  0  0  0  0  0  0
   36.6410   28.4160   41.6610 C   0  0  0  0  0  0  0  0  0  0  0  0
   36.9810   29.0590   42.8310 F   0  0  0  0  0  0  0  0  0  0  0  0
   36.7190   27.0660   41.9230 F   0  0  0  0  0  0  0  0  0  0  0  0
   35.3530   28.7180   41.3090 F   0  0  0  0  0  0  0  0  0  0  0  0
  1  2  1  0  0  0  0
  2 10  1  0  0  0  0
  2  3  2  0  0  0  0
  3  8  1  0  0  0  0
  4  3  1  0  0  0  0
  5  9  1  0  0  0  0
  5  4  2  0  0  0  0
  6  1  2  0  0  0  0
  6  5  1  0  0  0  0
  7  1  1  0  0  0  0
 10 11  1  0  0  0  0
 11 13  1  0  0  0  0
 11 12  1  0  0  0  0
 14 11  1  0  0  0  0
M  END
>  <minimizedAffinity>
-3.18459392

$$$$
