
 OpenBabel03252509073D

 36 38  0  0  0  0  0  0  0  0999 V2000
   45.4650   35.3010   43.2210 Cl  0  0  0  0  0  0  0  0  0  0  0  0
   45.2460   34.5720   41.6590 C   0  0  0  0  0  0  0  0  0  0  0  0
   46.3120   34.1550   40.9330 C   0  0  0  0  0  0  0  0  0  0  0  0
   46.0260   33.5760   39.7040 C   0  0  0  0  0  0  0  0  0  0  0  0
   44.7440   33.4290   39.2400 C   0  0  0  0  0  0  0  0  0  0  0  0
   43.6950   33.8550   39.9880 C   0  0  0  0  0  0  0  0  0  0  0  0
   43.9610   34.4330   41.2100 C   0  0  0  0  0  0  0  0  0  0  0  0
   44.5470   32.9680   38.2650 H   0  0  0  0  0  0  0  0  0  0  0  0
   42.6710   33.7510   39.6460 H   0  0  0  0  0  0  0  0  0  0  0  0
   43.1130   34.7660   41.7910 H   0  0  0  0  0  0  0  0  0  0  0  0
   47.4630   31.7830   38.7450 C   0  0  0  0  0  0  0  0  0  0  0  0
   47.1310   33.0970   38.8810 C   0  0  0  0  0  0  0  0  0  0  0  0
   47.8590   34.0630   38.2100 C   0  0  0  0  0  0  0  0  0  0  0  0
   48.9120   33.6840   37.4100 C   0  0  0  0  0  0  0  0  0  0  0  0
   49.2790   32.3550   37.2470 C   0  0  0  0  0  0  0  0  0  0  0  0
   48.5280   31.4110   37.9350 C   0  0  0  0  0  0  0  0  0  0  0  0
   47.6000   35.1190   38.3120 H   0  0  0  0  0  0  0  0  0  0  0  0
   49.4420   34.4790   36.9110 H   0  0  0  0  0  0  0  0  0  0  0  0
   50.0970   32.0610   36.6250 H   0  0  0  0  0  0  0  0  0  0  0  0
   48.8230   30.3830   37.8000 H   0  0  0  0  0  0  0  0  0  0  0  0
   46.6210   30.5570   39.5110 S   0  0  0  0  0  0  0  0  0  0  0  0
   45.3050   30.3080   38.7710 O   0  0  0  0  0  0  0  0  0  0  0  0
   47.4390   29.2690   39.2500 O   0  0  0  0  0  0  0  0  0  0  0  0
   46.0610   30.3660   41.0640 C   0  0  0  0  0  0  0  0  0  0  0  0
   45.7530   29.1910   41.6590 F   0  0  0  0  0  0  0  0  0  0  0  0
   44.7490   30.8790   41.0780 F   0  0  0  0  0  0  0  0  0  0  0  0
   46.5850   31.2800   42.0250 F   0  0  0  0  0  0  0  0  0  0  0  0
   49.6050   35.6650   41.9890 C   0  0  0  0  0  0  0  0  0  0  0  0
   48.3110   35.5250   41.4710 C   0  0  0  0  0  0  0  0  0  0  0  0
   47.6430   34.3160   41.4600 C   0  0  0  0  0  0  0  0  0  0  0  0
   48.3350   33.2760   41.9890 N   0  0  0  0  0  0  0  0  0  0  0  0
   49.5790   33.4060   42.4890 C   0  0  0  0  0  0  0  0  0  0  0  0
   50.2010   34.5910   42.4850 N   0  0  0  0  0  0  0  0  0  0  0  0
   49.9880   36.6740   41.9240 H   0  0  0  0  0  0  0  0  0  0  0  0
   47.7700   36.3650   41.0510 H   0  0  0  0  0  0  0  0  0  0  0  0
   50.1160   32.5690   42.9060 H   0  0  0  0  0  0  0  0  0  0  0  0
  2  1  1  0  0  0  0
  3 30  1  0  0  0  0
  3  2  2  0  0  0  0
  4  3  1  0  0  0  0
  5  4  2  0  0  0  0
  5  6  1  0  0  0  0
  6  7  2  0  0  0  0
  7  2  1  0  0  0  0
  7 10  1  0  0  0  0
  8  5  1  0  0  0  0
  9  6  1  0  0  0  0
 11 12  1  0  0  0  0
 11 21  1  0  0  0  0
 12  4  1  0  0  0  0
 13 17  1  0  0  0  0
 13 12  2  0  0  0  0
 14 13  1  0  0  0  0
 15 14  2  0  0  0  0
 15 16  1  0  0  0  0
 16 11  2  0  0  0  0
 18 14  1  0  0  0  0
 19 15  1  0  0  0  0
 20 16  1  0  0  0  0
 21 24  1  0  0  0  0
 22 21  2  0  0  0  0
 23 21  2  0  0  0  0
 24 26  1  0  0  0  0
 24 25  1  0  0  0  0
 24 27  1  0  0  0  0
 28 33  1  0  0  0  0
 29 28  2  0  0  0  0
 30 29  1  0  0  0  0
 30 31  2  0  0  0  0
 31 32  1  0  0  0  0
 32 36  1  0  0  0  0
 33 32  2  0  0  0  0
 34 28  1  0  0  0  0
 35 29  1  0  0  0  0
M  END
>  <minimizedAffinity>
-4.51368904

>  <minimizedRMSD>
0.74745822

$$$$
