
 OpenBabel03252506333D

 28 29  0  0  1  0  0  0  0  0999 V2000
   44.4810   35.7460   44.9870 C   0  0  0  0  0  0  0  0  0  0  0  0
   45.1340   35.7180   43.7450 C   0  0  0  0  0  0  0  0  0  0  0  0
   46.0380   34.7310   43.5010 C   0  0  0  0  0  0  0  0  0  0  0  0
   46.2620   33.8210   44.4780 N   0  0  0  0  0  0  0  0  0  0  0  0
   45.6300   33.8640   45.6580 C   0  0  0  0  0  0  0  0  0  0  0  0
   44.7350   34.8160   45.9370 N   0  0  0  0  0  0  0  0  0  0  0  0
   45.9430   32.8590   46.6110 N   0  0  0  0  0  0  0  0  0  0  0  0
   45.1440   32.5690   47.8110 C   0  0  0  0  0  0  0  0  0  0  0  0
   46.2350   32.2650   48.8300 C   0  0  0  0  0  0  0  0  0  0  0  0
   47.5290   32.1160   48.0650 C   0  0  0  0  0  0  0  0  0  0  0  0
   47.0400   31.9290   46.6530 C   0  0  1  0  0  0  0  0  0  0  0  0
   43.7490   36.5040   45.2530 H   0  0  0  0  0  0  0  0  0  0  0  0
   46.5220   34.7380   42.5360 H   0  0  0  0  0  0  0  0  0  0  0  0
   44.5830   31.6410   47.5960 H   0  0  0  0  0  0  0  0  0  0  0  0
   44.4880   33.3930   48.1010 H   0  0  0  0  0  0  0  0  0  0  0  0
   46.0620   31.2930   49.3460 H   0  0  0  0  0  0  0  0  0  0  0  0
   46.3250   33.0710   49.5650 H   0  0  0  0  0  0  0  0  0  0  0  0
   48.1760   31.3210   48.4370 H   0  0  0  0  0  0  0  0  0  0  0  0
   48.1130   33.0840   48.0650 H   0  0  0  0  0  0  0  0  0  0  0  0
   47.8240   32.1510   45.9000 H   0  0  0  0  0  0  0  0  0  0  0  0
   44.7530   36.7760   42.8590 N   0  0  0  0  0  0  0  0  0  0  0  0
   43.8760   36.6360   42.2760 H   0  0  0  0  0  0  0  0  0  0  0  0
   45.5150   37.4680   43.0440 H   0  0  0  0  0  0  0  0  0  0  0  0
   46.5170   30.2260   46.4290 S   0  0  0  0  0  0  0  0  0  0  0  0
   45.9460   29.8600   44.7710 C   0  0  0  0  0  0  0  0  0  0  0  0
   45.2890   28.6220   44.7950 F   0  0  0  0  0  0  0  0  0  0  0  0
   47.0670   29.7180   43.9570 F   0  0  0  0  0  0  0  0  0  0  0  0
   45.0660   30.7820   44.2640 F   0  0  0  0  0  0  0  0  0  0  0  0
  1 12  1  0  0  0  0
  1  6  1  0  0  0  0
  2  1  2  0  0  0  0
  3  2  1  0  0  0  0
  3  4  2  0  0  0  0
  4  5  1  0  0  0  0
  5  6  2  0  0  0  0
  5  7  1  0  0  0  0
  7 11  1  0  0  0  0
  7  8  1  0  0  0  0
  8 15  1  0  0  0  0
  8  9  1  0  0  0  0
  9 16  1  0  0  0  0
  9 17  1  0  0  0  0
 10 18  1  0  0  0  0
 10  9  1  0  0  0  0
 11 20  1  6  0  0  0
 11 10  1  0  0  0  0
 13  3  1  0  0  0  0
 14  8  1  0  0  0  0
 19 10  1  0  0  0  0
 21 23  1  0  0  0  0
 21  2  1  0  0  0  0
 22 21  1  0  0  0  0
 24 11  1  0  0  0  0
 25 26  1  0  0  0  0
 25 24  1  0  0  0  0
 27 25  1  0  0  0  0
 28 25  1  0  0  0  0
M  END
>  <minimizedAffinity>
-4.808002

>  <minimizedRMSD>
0.309352785

$$$$
