
 OpenBabel03252509073D

 36 38  0  0  0  0  0  0  0  0999 V2000
   45.3830   35.3800   43.2050 Cl  0  0  0  0  0  0  0  0  0  0  0  0
   45.2010   34.6060   41.6610 C   0  0  0  0  0  0  0  0  0  0  0  0
   46.2850   34.1870   40.9640 C   0  0  0  0  0  0  0  0  0  0  0  0
   46.0280   33.5690   39.7470 C   0  0  0  0  0  0  0  0  0  0  0  0
   44.7560   33.3900   39.2660 C   0  0  0  0  0  0  0  0  0  0  0  0
   43.6890   33.8200   39.9850 C   0  0  0  0  0  0  0  0  0  0  0  0
   43.9260   34.4340   41.1950 C   0  0  0  0  0  0  0  0  0  0  0  0
   44.5820   32.9000   38.3010 H   0  0  0  0  0  0  0  0  0  0  0  0
   42.6720   33.6900   39.6290 H   0  0  0  0  0  0  0  0  0  0  0  0
   43.0640   34.7690   41.7530 H   0  0  0  0  0  0  0  0  0  0  0  0
   47.5590   31.7860   38.9230 C   0  0  0  0  0  0  0  0  0  0  0  0
   47.1540   33.0860   38.9540 C   0  0  0  0  0  0  0  0  0  0  0  0
   47.8220   34.0320   38.1990 C   0  0  0  0  0  0  0  0  0  0  0  0
   48.8900   33.6470   37.4210 C   0  0  0  0  0  0  0  0  0  0  0  0
   49.3310   32.3310   37.3650 C   0  0  0  0  0  0  0  0  0  0  0  0
   48.6380   31.4080   38.1370 C   0  0  0  0  0  0  0  0  0  0  0  0
   47.5060   35.0770   38.2160 H   0  0  0  0  0  0  0  0  0  0  0  0
   49.3720   34.4270   36.8540 H   0  0  0  0  0  0  0  0  0  0  0  0
   50.1610   32.0330   36.7610 H   0  0  0  0  0  0  0  0  0  0  0  0
   48.9900   30.3910   38.0840 H   0  0  0  0  0  0  0  0  0  0  0  0
   46.7910   30.5830   39.7970 S   0  0  0  0  0  0  0  0  0  0  0  0
   45.4480   30.2580   39.1380 O   0  0  0  0  0  0  0  0  0  0  0  0
   47.6330   29.3040   39.5650 O   0  0  0  0  0  0  0  0  0  0  0  0
   46.3120   30.4650   41.3840 C   0  0  0  0  0  0  0  0  0  0  0  0
   45.6340   31.4070   42.0810 F   0  0  0  0  0  0  0  0  0  0  0  0
   47.4870   30.5380   42.1580 F   0  0  0  0  0  0  0  0  0  0  0  0
   45.9300   29.1620   41.8200 F   0  0  0  0  0  0  0  0  0  0  0  0
   49.5830   35.7450   41.9290 C   0  0  0  0  0  0  0  0  0  0  0  0
   48.3010   35.5710   41.3930 C   0  0  0  0  0  0  0  0  0  0  0  0
   47.6050   34.3820   41.5070 C   0  0  0  0  0  0  0  0  0  0  0  0
   48.2570   33.4000   42.1770 N   0  0  0  0  0  0  0  0  0  0  0  0
   49.4900   33.5640   42.6940 C   0  0  0  0  0  0  0  0  0  0  0  0
   50.1390   34.7270   42.5680 N   0  0  0  0  0  0  0  0  0  0  0  0
   49.9910   36.7320   41.7550 H   0  0  0  0  0  0  0  0  0  0  0  0
   47.7920   36.3650   40.8590 H   0  0  0  0  0  0  0  0  0  0  0  0
   49.9960   32.7730   43.2240 H   0  0  0  0  0  0  0  0  0  0  0  0
  2  1  1  0  0  0  0
  3 30  1  0  0  0  0
  3  2  2  0  0  0  0
  4  3  1  0  0  0  0
  5  4  2  0  0  0  0
  5  6  1  0  0  0  0
  6  7  2  0  0  0  0
  7  2  1  0  0  0  0
  7 10  1  0  0  0  0
  8  5  1  0  0  0  0
  9  6  1  0  0  0  0
 11 12  1  0  0  0  0
 11 21  1  0  0  0  0
 12  4  1  0  0  0  0
 13 17  1  0  0  0  0
 13 12  2  0  0  0  0
 14 13  1  0  0  0  0
 15 14  2  0  0  0  0
 15 16  1  0  0  0  0
 16 11  2  0  0  0  0
 18 14  1  0  0  0  0
 19 15  1  0  0  0  0
 20 16  1  0  0  0  0
 21 24  1  0  0  0  0
 22 21  2  0  0  0  0
 23 21  2  0  0  0  0
 24 27  1  0  0  0  0
 24 25  1  0  0  0  0
 24 26  1  0  0  0  0
 28 33  1  0  0  0  0
 29 30  1  0  0  0  0
 29 28  2  0  0  0  0
 30 31  2  0  0  0  0
 31 32  1  0  0  0  0
 32 36  1  0  0  0  0
 33 32  2  0  0  0  0
 34 28  1  0  0  0  0
 35 29  1  0  0  0  0
M  END
>  <minimizedAffinity>
-4.50587606

>  <minimizedRMSD>
0.8999843

$$$$
