
 OpenBabel03252509073D

 36 38  0  0  0  0  0  0  0  0999 V2000
   45.2780   35.2800   43.1020 Cl  0  0  0  0  0  0  0  0  0  0  0  0
   45.1660   34.5360   41.5360 C   0  0  0  0  0  0  0  0  0  0  0  0
   46.2820   34.1600   40.8660 C   0  0  0  0  0  0  0  0  0  0  0  0
   46.0820   33.5630   39.6280 C   0  0  0  0  0  0  0  0  0  0  0  0
   44.8310   33.3610   39.1030 C   0  0  0  0  0  0  0  0  0  0  0  0
   43.7300   33.7470   39.7950 C   0  0  0  0  0  0  0  0  0  0  0  0
   43.9110   34.3410   41.0260 C   0  0  0  0  0  0  0  0  0  0  0  0
   44.7010   32.8880   38.1230 H   0  0  0  0  0  0  0  0  0  0  0  0
   42.7290   33.5990   39.4050 H   0  0  0  0  0  0  0  0  0  0  0  0
   43.0230   34.6410   41.5620 H   0  0  0  0  0  0  0  0  0  0  0  0
   47.8040   31.8890   38.9710 C   0  0  0  0  0  0  0  0  0  0  0  0
   47.2450   33.1270   38.8630 C   0  0  0  0  0  0  0  0  0  0  0  0
   47.7800   34.0490   37.9830 C   0  0  0  0  0  0  0  0  0  0  0  0
   48.8740   33.7040   37.2230 C   0  0  0  0  0  0  0  0  0  0  0  0
   49.4710   32.4530   37.3060 C   0  0  0  0  0  0  0  0  0  0  0  0
   48.9080   31.5520   38.2000 C   0  0  0  0  0  0  0  0  0  0  0  0
   47.3390   35.0430   37.8880 H   0  0  0  0  0  0  0  0  0  0  0  0
   49.2480   34.4630   36.5540 H   0  0  0  0  0  0  0  0  0  0  0  0
   50.3210   32.1860   36.7150 H   0  0  0  0  0  0  0  0  0  0  0  0
   49.3810   30.5850   38.2550 H   0  0  0  0  0  0  0  0  0  0  0  0
   47.2030   30.7160   40.0010 S   0  0  0  0  0  0  0  0  0  0  0  0
   46.9690   29.4240   39.2140 O   0  0  0  0  0  0  0  0  0  0  0  0
   48.3740   30.3620   40.9500 O   0  0  0  0  0  0  0  0  0  0  0  0
   45.8600   30.6460   40.9780 C   0  0  0  0  0  0  0  0  0  0  0  0
   45.6800   31.3330   42.1300 F   0  0  0  0  0  0  0  0  0  0  0  0
   45.8700   29.3710   41.5750 F   0  0  0  0  0  0  0  0  0  0  0  0
   44.6150   30.4830   40.3040 F   0  0  0  0  0  0  0  0  0  0  0  0
   49.5530   35.7470   41.8800 C   0  0  0  0  0  0  0  0  0  0  0  0
   48.2940   35.5500   41.2980 C   0  0  0  0  0  0  0  0  0  0  0  0
   47.5790   34.3780   41.4560 C   0  0  0  0  0  0  0  0  0  0  0  0
   48.1870   33.4350   42.2170 N   0  0  0  0  0  0  0  0  0  0  0  0
   49.3980   33.6210   42.7790 C   0  0  0  0  0  0  0  0  0  0  0  0
   50.0660   34.7670   42.6080 N   0  0  0  0  0  0  0  0  0  0  0  0
   49.9800   36.7150   41.6610 H   0  0  0  0  0  0  0  0  0  0  0  0
   47.8200   36.3120   40.6910 H   0  0  0  0  0  0  0  0  0  0  0  0
   49.8680   32.8610   43.3820 H   0  0  0  0  0  0  0  0  0  0  0  0
  2  1  1  0  0  0  0
  3 30  1  0  0  0  0
  3  2  2  0  0  0  0
  4  3  1  0  0  0  0
  5  4  2  0  0  0  0
  5  6  1  0  0  0  0
  6  7  2  0  0  0  0
  7  2  1  0  0  0  0
  7 10  1  0  0  0  0
  8  5  1  0  0  0  0
  9  6  1  0  0  0  0
 11 21  1  0  0  0  0
 12 11  1  0  0  0  0
 12  4  1  0  0  0  0
 13 12  2  0  0  0  0
 14 15  2  0  0  0  0
 14 13  1  0  0  0  0
 15 16  1  0  0  0  0
 16 20  1  0  0  0  0
 16 11  2  0  0  0  0
 17 13  1  0  0  0  0
 18 14  1  0  0  0  0
 19 15  1  0  0  0  0
 21 23  2  0  0  0  0
 21 24  1  0  0  0  0
 22 21  2  0  0  0  0
 24 26  1  0  0  0  0
 24 25  1  0  0  0  0
 27 24  1  0  0  0  0
 28 33  1  0  0  0  0
 29 30  1  0  0  0  0
 29 28  2  0  0  0  0
 30 31  2  0  0  0  0
 31 32  1  0  0  0  0
 32 36  1  0  0  0  0
 33 32  2  0  0  0  0
 34 28  1  0  0  0  0
 35 29  1  0  0  0  0
M  END
>  <minimizedAffinity>
-4.51354551

>  <minimizedRMSD>
0.28668806

$$$$
