
 OpenBabel03252509103D

 36 38  0  0  0  0  0  0  0  0999 V2000
   39.5290   30.7680   42.7330 Cl  0  0  0  0  0  0  0  0  0  0  0  0
   38.2680   29.5870   42.5480 C   0  0  0  0  0  0  0  0  0  0  0  0
   37.5860   29.4790   41.3810 C   0  0  0  0  0  0  0  0  0  0  0  0
   36.6070   28.4950   41.3340 C   0  0  0  0  0  0  0  0  0  0  0  0
   36.3360   27.6750   42.3990 C   0  0  0  0  0  0  0  0  0  0  0  0
   37.0340   27.8050   43.5550 C   0  0  0  0  0  0  0  0  0  0  0  0
   38.0090   28.7770   43.6190 C   0  0  0  0  0  0  0  0  0  0  0  0
   35.5560   26.9070   42.3350 H   0  0  0  0  0  0  0  0  0  0  0  0
   36.8400   27.1700   44.4130 H   0  0  0  0  0  0  0  0  0  0  0  0
   38.5550   28.8650   44.5470 H   0  0  0  0  0  0  0  0  0  0  0  0
   36.1620   27.4170   39.1340 C   0  0  0  0  0  0  0  0  0  0  0  0
   35.8460   28.3230   40.1010 C   0  0  0  0  0  0  0  0  0  0  0  0
   34.7420   29.1400   39.9430 C   0  0  0  0  0  0  0  0  0  0  0  0
   33.9730   29.0280   38.8080 C   0  0  0  0  0  0  0  0  0  0  0  0
   34.2640   28.1170   37.8010 C   0  0  0  0  0  0  0  0  0  0  0  0
   35.3800   27.3120   37.9920 C   0  0  0  0  0  0  0  0  0  0  0  0
   34.4790   29.8690   40.7130 H   0  0  0  0  0  0  0  0  0  0  0  0
   33.1250   29.6900   38.7390 H   0  0  0  0  0  0  0  0  0  0  0  0
   33.6660   28.0310   36.9190 H   0  0  0  0  0  0  0  0  0  0  0  0
   35.5950   26.6100   37.2030 H   0  0  0  0  0  0  0  0  0  0  0  0
   37.4710   26.3830   39.2610 S   0  0  0  0  0  0  0  0  0  0  0  0
   37.2160   25.1360   38.4120 O   0  0  0  0  0  0  0  0  0  0  0  0
   38.6330   27.0970   38.5270 O   0  0  0  0  0  0  0  0  0  0  0  0
   38.2100   25.6440   40.5540 C   0  0  0  0  0  0  0  0  0  0  0  0
   39.1650   26.1900   41.3420 F   0  0  0  0  0  0  0  0  0  0  0  0
   39.0310   24.6340   40.0190 F   0  0  0  0  0  0  0  0  0  0  0  0
   37.3820   24.7700   41.3200 F   0  0  0  0  0  0  0  0  0  0  0  0
   37.5850   32.3840   38.9730 C   0  0  0  0  0  0  0  0  0  0  0  0
   37.2580   31.5470   40.0470 C   0  0  0  0  0  0  0  0  0  0  0  0
   37.9090   30.3510   40.2800 C   0  0  0  0  0  0  0  0  0  0  0  0
   38.8870   30.0500   39.3910 N   0  0  0  0  0  0  0  0  0  0  0  0
   39.2050   30.8530   38.3560 C   0  0  0  0  0  0  0  0  0  0  0  0
   38.5570   32.0060   38.1570 N   0  0  0  0  0  0  0  0  0  0  0  0
   36.9840   33.2820   38.9300 H   0  0  0  0  0  0  0  0  0  0  0  0
   36.4730   31.8000   40.7500 H   0  0  0  0  0  0  0  0  0  0  0  0
   39.9860   30.5990   37.6570 H   0  0  0  0  0  0  0  0  0  0  0  0
  2  1  1  0  0  0  0
  2  7  1  0  0  0  0
  3  2  2  0  0  0  0
  4  3  1  0  0  0  0
  4  5  2  0  0  0  0
  5  6  1  0  0  0  0
  6  7  2  0  0  0  0
  6  9  1  0  0  0  0
  7 10  1  0  0  0  0
  8  5  1  0  0  0  0
 11 21  1  0  0  0  0
 11 12  1  0  0  0  0
 12  4  1  0  0  0  0
 13 12  2  0  0  0  0
 13 17  1  0  0  0  0
 14 13  1  0  0  0  0
 15 16  1  0  0  0  0
 15 14  2  0  0  0  0
 16 11  2  0  0  0  0
 18 14  1  0  0  0  0
 19 15  1  0  0  0  0
 20 16  1  0  0  0  0
 21 24  1  0  0  0  0
 22 21  2  0  0  0  0
 23 21  2  0  0  0  0
 24 27  1  0  0  0  0
 24 25  1  0  0  0  0
 26 24  1  0  0  0  0
 28 29  1  0  0  0  0
 29 30  2  0  0  0  0
 29 35  1  0  0  0  0
 30  3  1  0  0  0  0
 31 30  1  0  0  0  0
 32 31  2  0  0  0  0
 33 32  1  0  0  0  0
 33 28  2  0  0  0  0
 34 28  1  0  0  0  0
 36 32  1  0  0  0  0
M  END
>  <minimizedAffinity>
-6.07646751

$$$$

 OpenBabel03252509103D

 36 38  0  0  0  0  0  0  0  0999 V2000
   35.7730   26.2750   36.7620 Cl  0  0  0  0  0  0  0  0  0  0  0  0
   35.3830   27.3930   38.0330 C   0  0  0  0  0  0  0  0  0  0  0  0
   36.1660   27.4900   39.1360 C   0  0  0  0  0  0  0  0  0  0  0  0
   35.7730   28.4230   40.0860 C   0  0  0  0  0  0  0  0  0  0  0  0
   34.6590   29.2070   39.9300 C   0  0  0  0  0  0  0  0  0  0  0  0
   33.8930   29.0900   38.8160 C   0  0  0  0  0  0  0  0  0  0  0  0
   34.2690   28.1680   37.8630 C   0  0  0  0  0  0  0  0  0  0  0  0
   34.3700   29.9360   40.6960 H   0  0  0  0  0  0  0  0  0  0  0  0
   33.0060   29.6970   38.6670 H   0  0  0  0  0  0  0  0  0  0  0  0
   33.6470   28.0890   36.9830 H   0  0  0  0  0  0  0  0  0  0  0  0
   37.5110   29.5630   41.4570 C   0  0  0  0  0  0  0  0  0  0  0  0
   36.5810   28.5810   41.2900 C   0  0  0  0  0  0  0  0  0  0  0  0
   36.3590   27.6650   42.3020 C   0  0  0  0  0  0  0  0  0  0  0  0
   37.0800   27.7570   43.4700 C   0  0  0  0  0  0  0  0  0  0  0  0
   38.0360   28.7440   43.6760 C   0  0  0  0  0  0  0  0  0  0  0  0
   38.2340   29.6460   42.6390 C   0  0  0  0  0  0  0  0  0  0  0  0
   35.6150   26.8750   42.1780 H   0  0  0  0  0  0  0  0  0  0  0  0
   36.8640   27.0170   44.2230 H   0  0  0  0  0  0  0  0  0  0  0  0
   38.5970   28.8150   44.5830 H   0  0  0  0  0  0  0  0  0  0  0  0
   38.9790   30.4060   42.8110 H   0  0  0  0  0  0  0  0  0  0  0  0
   37.8250   30.7150   40.2860 S   0  0  0  0  0  0  0  0  0  0  0  0
   36.8310   31.8700   40.4330 O   0  0  0  0  0  0  0  0  0  0  0  0
   39.1830   31.3450   40.6800 O   0  0  0  0  0  0  0  0  0  0  0  0
   37.8780   30.6580   38.6250 C   0  0  0  0  0  0  0  0  0  0  0  0
   38.7020   29.8830   37.8830 F   0  0  0  0  0  0  0  0  0  0  0  0
   38.4210   31.8860   38.2020 F   0  0  0  0  0  0  0  0  0  0  0  0
   36.6240   30.8160   37.9620 F   0  0  0  0  0  0  0  0  0  0  0  0
   38.4520   24.5860   39.9030 C   0  0  0  0  0  0  0  0  0  0  0  0
   37.3050   25.3840   39.7930 C   0  0  0  0  0  0  0  0  0  0  0  0
   37.3360   26.6570   39.2580 C   0  0  0  0  0  0  0  0  0  0  0  0
   38.5590   27.0750   38.8470 N   0  0  0  0  0  0  0  0  0  0  0  0
   39.6640   26.3110   38.9500 C   0  0  0  0  0  0  0  0  0  0  0  0
   39.6030   25.0820   39.4730 N   0  0  0  0  0  0  0  0  0  0  0  0
   38.2600   23.6170   40.3420 H   0  0  0  0  0  0  0  0  0  0  0  0
   36.3340   25.0370   40.1260 H   0  0  0  0  0  0  0  0  0  0  0  0
   40.6300   26.6590   38.6190 H   0  0  0  0  0  0  0  0  0  0  0  0
  1  2  1  0  0  0  0
  2  3  1  0  0  0  0
  3 30  1  0  0  0  0
  3  4  2  0  0  0  0
  4 12  1  0  0  0  0
  5  4  1  0  0  0  0
  5  8  1  0  0  0  0
  6  5  2  0  0  0  0
  7  2  2  0  0  0  0
  7  6  1  0  0  0  0
  9  6  1  0  0  0  0
 10  7  1  0  0  0  0
 11 16  1  0  0  0  0
 12 11  2  0  0  0  0
 12 13  1  0  0  0  0
 13 14  2  0  0  0  0
 14 15  1  0  0  0  0
 14 18  1  0  0  0  0
 15 19  1  0  0  0  0
 16 20  1  0  0  0  0
 16 15  2  0  0  0  0
 17 13  1  0  0  0  0
 21 22  2  0  0  0  0
 21 23  2  0  0  0  0
 21 11  1  0  0  0  0
 24 21  1  0  0  0  0
 25 24  1  0  0  0  0
 26 24  1  0  0  0  0
 27 24  1  0  0  0  0
 28 34  1  0  0  0  0
 29 28  1  0  0  0  0
 29 35  1  0  0  0  0
 30 29  2  0  0  0  0
 31 32  2  0  0  0  0
 31 30  1  0  0  0  0
 32 33  1  0  0  0  0
 33 28  2  0  0  0  0
 36 32  1  0  0  0  0
M  END
>  <minimizedAffinity>
-5.78093863

$$$$

 OpenBabel03252509103D

 36 38  0  0  0  0  0  0  0  0999 V2000
   35.5090   26.0950   36.7640 Cl  0  0  0  0  0  0  0  0  0  0  0  0
   35.2810   27.2800   38.0140 C   0  0  0  0  0  0  0  0  0  0  0  0
   36.1220   27.3400   39.0750 C   0  0  0  0  0  0  0  0  0  0  0  0
   35.8590   28.3320   40.0090 C   0  0  0  0  0  0  0  0  0  0  0  0
   34.8110   29.2070   39.8790 C   0  0  0  0  0  0  0  0  0  0  0  0
   33.9840   29.1250   38.8070 C   0  0  0  0  0  0  0  0  0  0  0  0
   34.2310   28.1460   37.8690 C   0  0  0  0  0  0  0  0  0  0  0  0
   34.6250   29.9800   40.6330 H   0  0  0  0  0  0  0  0  0  0  0  0
   33.1480   29.8040   38.6780 H   0  0  0  0  0  0  0  0  0  0  0  0
   33.5620   28.0960   37.0220 H   0  0  0  0  0  0  0  0  0  0  0  0
   37.8500   29.2370   41.2000 C   0  0  0  0  0  0  0  0  0  0  0  0
   36.7360   28.4530   41.1690 C   0  0  0  0  0  0  0  0  0  0  0  0
   36.3810   27.7190   42.2860 C   0  0  0  0  0  0  0  0  0  0  0  0
   37.1590   27.7890   43.4190 C   0  0  0  0  0  0  0  0  0  0  0  0
   38.3000   28.5770   43.4870 C   0  0  0  0  0  0  0  0  0  0  0  0
   38.6280   29.3010   42.3480 C   0  0  0  0  0  0  0  0  0  0  0  0
   35.4900   27.0880   42.2710 H   0  0  0  0  0  0  0  0  0  0  0  0
   36.8330   27.1960   44.2570 H   0  0  0  0  0  0  0  0  0  0  0  0
   38.9040   28.6310   44.3670 H   0  0  0  0  0  0  0  0  0  0  0  0
   39.5160   29.9070   42.4140 H   0  0  0  0  0  0  0  0  0  0  0  0
   38.3350   30.1660   39.8960 S   0  0  0  0  0  0  0  0  0  0  0  0
   38.7570   31.5510   40.3900 O   0  0  0  0  0  0  0  0  0  0  0  0
   39.6580   29.5300   39.4050 O   0  0  0  0  0  0  0  0  0  0  0  0
   37.5740   30.6350   38.4940 C   0  0  0  0  0  0  0  0  0  0  0  0
   37.2380   29.8250   37.4630 F   0  0  0  0  0  0  0  0  0  0  0  0
   38.5080   31.4010   37.7720 F   0  0  0  0  0  0  0  0  0  0  0  0
   36.6080   31.6760   38.6350 F   0  0  0  0  0  0  0  0  0  0  0  0
   39.4810   25.6800   38.6200 C   0  0  0  0  0  0  0  0  0  0  0  0
   38.4230   26.5920   38.5150 C   0  0  0  0  0  0  0  0  0  0  0  0
   37.2200   26.4110   39.1700 C   0  0  0  0  0  0  0  0  0  0  0  0
   37.1420   25.2850   39.9220 N   0  0  0  0  0  0  0  0  0  0  0  0
   38.1580   24.4060   40.0260 C   0  0  0  0  0  0  0  0  0  0  0  0
   39.3110   24.6080   39.3790 N   0  0  0  0  0  0  0  0  0  0  0  0
   40.3520   25.9660   38.0470 H   0  0  0  0  0  0  0  0  0  0  0  0
   38.4980   27.4880   37.9100 H   0  0  0  0  0  0  0  0  0  0  0  0
   38.0800   23.5140   40.6280 H   0  0  0  0  0  0  0  0  0  0  0  0
  1  2  1  0  0  0  0
  2  3  1  0  0  0  0
  3 30  1  0  0  0  0
  3  4  2  0  0  0  0
  4 12  1  0  0  0  0
  5  4  1  0  0  0  0
  5  8  1  0  0  0  0
  6  5  2  0  0  0  0
  7  2  2  0  0  0  0
  7  6  1  0  0  0  0
  9  6  1  0  0  0  0
 10  7  1  0  0  0  0
 11 16  1  0  0  0  0
 12 11  2  0  0  0  0
 12 13  1  0  0  0  0
 13 14  2  0  0  0  0
 14 15  1  0  0  0  0
 14 18  1  0  0  0  0
 15 19  1  0  0  0  0
 16 20  1  0  0  0  0
 16 15  2  0  0  0  0
 17 13  1  0  0  0  0
 21 22  2  0  0  0  0
 21 11  1  0  0  0  0
 23 21  2  0  0  0  0
 24 27  1  0  0  0  0
 24 21  1  0  0  0  0
 25 24  1  0  0  0  0
 26 24  1  0  0  0  0
 28 33  1  0  0  0  0
 29 28  2  0  0  0  0
 29 30  1  0  0  0  0
 30 31  2  0  0  0  0
 31 32  1  0  0  0  0
 32 36  1  0  0  0  0
 33 32  2  0  0  0  0
 34 28  1  0  0  0  0
 35 29  1  0  0  0  0
M  END
>  <minimizedAffinity>
-5.52566242

$$$$

 OpenBabel03252509103D

 36 38  0  0  0  0  0  0  0  0999 V2000
   36.3680   27.7460   42.7970 Cl  0  0  0  0  0  0  0  0  0  0  0  0
   36.4980   28.5160   41.2450 C   0  0  0  0  0  0  0  0  0  0  0  0
   37.7060   28.6810   40.6530 C   0  0  0  0  0  0  0  0  0  0  0  0
   37.6980   29.2960   39.4080 C   0  0  0  0  0  0  0  0  0  0  0  0
   36.5420   29.7180   38.8030 C   0  0  0  0  0  0  0  0  0  0  0  0
   35.3460   29.5410   39.4190 C   0  0  0  0  0  0  0  0  0  0  0  0
   35.3350   28.9310   40.6550 C   0  0  0  0  0  0  0  0  0  0  0  0
   36.5640   30.2030   37.8200 H   0  0  0  0  0  0  0  0  0  0  0  0
   34.4160   29.8640   38.9640 H   0  0  0  0  0  0  0  0  0  0  0  0
   34.3740   28.7980   41.1290 H   0  0  0  0  0  0  0  0  0  0  0  0
   39.6730   30.6570   38.7390 C   0  0  0  0  0  0  0  0  0  0  0  0
   38.9660   29.4920   38.7140 C   0  0  0  0  0  0  0  0  0  0  0  0
   39.4510   28.4090   38.0050 C   0  0  0  0  0  0  0  0  0  0  0  0
   40.6460   28.5190   37.3320 C   0  0  0  0  0  0  0  0  0  0  0  0
   41.3930   29.6890   37.3340 C   0  0  0  0  0  0  0  0  0  0  0  0
   40.8770   30.7580   38.0550 C   0  0  0  0  0  0  0  0  0  0  0  0
   38.8930   27.4710   37.9800 H   0  0  0  0  0  0  0  0  0  0  0  0
   40.9740   27.6430   36.7970 H   0  0  0  0  0  0  0  0  0  0  0  0
   42.3210   29.7750   36.8100 H   0  0  0  0  0  0  0  0  0  0  0  0
   41.4670   31.6600   38.0490 H   0  0  0  0  0  0  0  0  0  0  0  0
   39.1600   32.0040   39.5870 S   0  0  0  0  0  0  0  0  0  0  0  0
   39.2060   31.7060   41.0870 O   0  0  0  0  0  0  0  0  0  0  0  0
   40.2700   33.0650   39.3880 O   0  0  0  0  0  0  0  0  0  0  0  0
   37.7530   32.8900   39.5630 C   0  0  0  0  0  0  0  0  0  0  0  0
   37.6070   34.1610   40.0040 F   0  0  0  0  0  0  0  0  0  0  0  0
   36.9020   32.3100   40.5230 F   0  0  0  0  0  0  0  0  0  0  0  0
   36.8960   32.6560   38.4470 F   0  0  0  0  0  0  0  0  0  0  0  0
   40.5860   26.5120   41.7660 C   0  0  0  0  0  0  0  0  0  0  0  0
   39.4260   26.9510   41.1170 C   0  0  0  0  0  0  0  0  0  0  0  0
   38.8970   28.2130   41.3140 C   0  0  0  0  0  0  0  0  0  0  0  0
   39.5880   28.9920   42.1830 N   0  0  0  0  0  0  0  0  0  0  0  0
   40.7050   28.5730   42.8100 C   0  0  0  0  0  0  0  0  0  0  0  0
   41.1920   27.3460   42.5980 N   0  0  0  0  0  0  0  0  0  0  0  0
   40.8690   25.5020   41.5040 H   0  0  0  0  0  0  0  0  0  0  0  0
   38.8830   26.3170   40.4240 H   0  0  0  0  0  0  0  0  0  0  0  0
   41.2420   29.2060   43.4990 H   0  0  0  0  0  0  0  0  0  0  0  0
  2  1  1  0  0  0  0
  3  2  2  0  0  0  0
  3 30  1  0  0  0  0
  4  3  1  0  0  0  0
  5  4  2  0  0  0  0
  5  6  1  0  0  0  0
  6  7  2  0  0  0  0
  7 10  1  0  0  0  0
  7  2  1  0  0  0  0
  8  5  1  0  0  0  0
  9  6  1  0  0  0  0
 11 21  1  0  0  0  0
 12 11  1  0  0  0  0
 12  4  1  0  0  0  0
 13 12  2  0  0  0  0
 14 15  2  0  0  0  0
 14 13  1  0  0  0  0
 15 16  1  0  0  0  0
 16 11  2  0  0  0  0
 17 13  1  0  0  0  0
 18 14  1  0  0  0  0
 19 15  1  0  0  0  0
 20 16  1  0  0  0  0
 21 22  2  0  0  0  0
 23 21  2  0  0  0  0
 24 21  1  0  0  0  0
 24 25  1  0  0  0  0
 24 26  1  0  0  0  0
 27 24  1  0  0  0  0
 28 33  1  0  0  0  0
 29 30  1  0  0  0  0
 29 28  2  0  0  0  0
 30 31  2  0  0  0  0
 31 32  1  0  0  0  0
 32 36  1  0  0  0  0
 33 32  2  0  0  0  0
 34 28  1  0  0  0  0
 35 29  1  0  0  0  0
M  END
>  <minimizedAffinity>
-5.48582602

$$$$

 OpenBabel03252509103D

 36 38  0  0  0  0  0  0  0  0999 V2000
   34.7550   28.9110   37.8950 Cl  0  0  0  0  0  0  0  0  0  0  0  0
   36.0620   27.9320   38.4880 C   0  0  0  0  0  0  0  0  0  0  0  0
   37.1740   28.5040   39.0100 C   0  0  0  0  0  0  0  0  0  0  0  0
   38.1530   27.6310   39.4670 C   0  0  0  0  0  0  0  0  0  0  0  0
   38.0140   26.2690   39.3990 C   0  0  0  0  0  0  0  0  0  0  0  0
   36.8900   25.7230   38.8720 C   0  0  0  0  0  0  0  0  0  0  0  0
   35.9080   26.5740   38.4130 C   0  0  0  0  0  0  0  0  0  0  0  0
   38.8040   25.6030   39.7660 H   0  0  0  0  0  0  0  0  0  0  0  0
   36.7540   24.6490   38.8060 H   0  0  0  0  0  0  0  0  0  0  0  0
   35.0200   26.1220   37.9970 H   0  0  0  0  0  0  0  0  0  0  0  0
   39.5320   28.4320   41.3800 C   0  0  0  0  0  0  0  0  0  0  0  0
   39.3700   28.1860   40.0500 C   0  0  0  0  0  0  0  0  0  0  0  0
   40.4010   28.4620   39.1700 C   0  0  0  0  0  0  0  0  0  0  0  0
   41.5810   28.9810   39.6500 C   0  0  0  0  0  0  0  0  0  0  0  0
   41.7820   29.2440   40.9980 C   0  0  0  0  0  0  0  0  0  0  0  0
   40.7260   28.9560   41.8540 C   0  0  0  0  0  0  0  0  0  0  0  0
   40.2820   28.2680   38.1020 H   0  0  0  0  0  0  0  0  0  0  0  0
   42.3480   29.1740   38.9180 H   0  0  0  0  0  0  0  0  0  0  0  0
   42.6990   29.6470   41.3700 H   0  0  0  0  0  0  0  0  0  0  0  0
   40.8950   29.1660   42.8980 H   0  0  0  0  0  0  0  0  0  0  0  0
   38.3380   28.1100   42.5070 S   0  0  0  0  0  0  0  0  0  0  0  0
   38.8800   27.1350   43.5540 O   0  0  0  0  0  0  0  0  0  0  0  0
   38.1490   29.4290   43.2960 O   0  0  0  0  0  0  0  0  0  0  0  0
   36.7990   27.4950   42.3830 C   0  0  0  0  0  0  0  0  0  0  0  0
   35.7490   28.0970   41.7760 F   0  0  0  0  0  0  0  0  0  0  0  0
   36.2510   27.5290   43.6790 F   0  0  0  0  0  0  0  0  0  0  0  0
   36.7110   26.0800   42.2240 F   0  0  0  0  0  0  0  0  0  0  0  0
   36.9620   32.0740   40.2130 C   0  0  0  0  0  0  0  0  0  0  0  0
   36.8530   30.6790   40.1630 C   0  0  0  0  0  0  0  0  0  0  0  0
   37.2780   29.9390   39.0760 C   0  0  0  0  0  0  0  0  0  0  0  0
   37.8080   30.6670   38.0620 N   0  0  0  0  0  0  0  0  0  0  0  0
   37.9150   32.0090   38.1060 C   0  0  0  0  0  0  0  0  0  0  0  0
   37.4950   32.6980   39.1730 N   0  0  0  0  0  0  0  0  0  0  0  0
   36.5850   32.5030   41.1310 H   0  0  0  0  0  0  0  0  0  0  0  0
   36.4260   30.1100   40.9810 H   0  0  0  0  0  0  0  0  0  0  0  0
   38.3400   32.5740   37.2900 H   0  0  0  0  0  0  0  0  0  0  0  0
  1  2  1  0  0  0  0
  2  3  1  0  0  0  0
  3 30  1  0  0  0  0
  3  4  2  0  0  0  0
  4 12  1  0  0  0  0
  5  4  1  0  0  0  0
  5  8  1  0  0  0  0
  6  5  2  0  0  0  0
  7  2  2  0  0  0  0
  7  6  1  0  0  0  0
  9  6  1  0  0  0  0
 10  7  1  0  0  0  0
 11 16  1  0  0  0  0
 11 21  1  0  0  0  0
 12 11  2  0  0  0  0
 13 14  2  0  0  0  0
 13 12  1  0  0  0  0
 14 15  1  0  0  0  0
 15 19  1  0  0  0  0
 15 16  2  0  0  0  0
 16 20  1  0  0  0  0
 17 13  1  0  0  0  0
 18 14  1  0  0  0  0
 21 23  2  0  0  0  0
 21 22  2  0  0  0  0
 24 21  1  0  0  0  0
 24 26  1  0  0  0  0
 25 24  1  0  0  0  0
 27 24  1  0  0  0  0
 28 34  1  0  0  0  0
 29 28  1  0  0  0  0
 29 35  1  0  0  0  0
 30 29  2  0  0  0  0
 31 32  2  0  0  0  0
 31 30  1  0  0  0  0
 32 33  1  0  0  0  0
 33 28  2  0  0  0  0
 36 32  1  0  0  0  0
M  END
>  <minimizedAffinity>
-5.43711376

$$$$

 OpenBabel03252509103D

 36 38  0  0  0  0  0  0  0  0999 V2000
   41.0380   26.4970   42.0530 Cl  0  0  0  0  0  0  0  0  0  0  0  0
   39.6880   27.5500   42.3480 C   0  0  0  0  0  0  0  0  0  0  0  0
   39.4860   28.6480   41.5800 C   0  0  0  0  0  0  0  0  0  0  0  0
   38.3710   29.4150   41.8900 C   0  0  0  0  0  0  0  0  0  0  0  0
   37.5170   29.0920   42.9140 C   0  0  0  0  0  0  0  0  0  0  0  0
   37.7440   27.9870   43.6670 C   0  0  0  0  0  0  0  0  0  0  0  0
   38.8460   27.2130   43.3720 C   0  0  0  0  0  0  0  0  0  0  0  0
   36.6450   29.7160   43.1380 H   0  0  0  0  0  0  0  0  0  0  0  0
   37.0850   27.7070   44.4820 H   0  0  0  0  0  0  0  0  0  0  0  0
   39.0090   26.3380   43.9820 H   0  0  0  0  0  0  0  0  0  0  0  0
   37.1820   30.6450   40.0800 C   0  0  0  0  0  0  0  0  0  0  0  0
   38.0930   30.6050   41.0920 C   0  0  0  0  0  0  0  0  0  0  0  0
   38.8130   31.7410   41.4150 C   0  0  0  0  0  0  0  0  0  0  0  0
   38.5990   32.9020   40.7080 C   0  0  0  0  0  0  0  0  0  0  0  0
   37.6790   32.9800   39.6710 C   0  0  0  0  0  0  0  0  0  0  0  0
   36.9740   31.8210   39.3730 C   0  0  0  0  0  0  0  0  0  0  0  0
   39.5450   31.7200   42.2250 H   0  0  0  0  0  0  0  0  0  0  0  0
   39.1870   33.7550   41.0040 H   0  0  0  0  0  0  0  0  0  0  0  0
   37.5130   33.8820   39.1220 H   0  0  0  0  0  0  0  0  0  0  0  0
   36.2640   31.8950   38.5660 H   0  0  0  0  0  0  0  0  0  0  0  0
   36.2630   29.3170   39.6430 S   0  0  0  0  0  0  0  0  0  0  0  0
   35.0470   29.2170   40.5660 O   0  0  0  0  0  0  0  0  0  0  0  0
   35.6520   29.6740   38.2660 O   0  0  0  0  0  0  0  0  0  0  0  0
   36.6030   27.6940   39.5210 C   0  0  0  0  0  0  0  0  0  0  0  0
   37.5550   27.1390   38.7360 F   0  0  0  0  0  0  0  0  0  0  0  0
   35.5110   27.1090   38.8530 F   0  0  0  0  0  0  0  0  0  0  0  0
   36.4590   26.9420   40.7240 F   0  0  0  0  0  0  0  0  0  0  0  0
   41.0870   28.8420   38.1680 C   0  0  0  0  0  0  0  0  0  0  0  0
   40.1920   28.5400   39.2010 C   0  0  0  0  0  0  0  0  0  0  0  0
   40.3980   28.9480   40.5050 C   0  0  0  0  0  0  0  0  0  0  0  0
   41.5330   29.6630   40.7070 N   0  0  0  0  0  0  0  0  0  0  0  0
   42.3970   29.9560   39.7160 C   0  0  0  0  0  0  0  0  0  0  0  0
   42.1700   29.5460   38.4630 N   0  0  0  0  0  0  0  0  0  0  0  0
   40.7830   28.4510   37.2070 H   0  0  0  0  0  0  0  0  0  0  0  0
   39.2880   27.9670   39.0260 H   0  0  0  0  0  0  0  0  0  0  0  0
   43.2960   30.5250   39.8930 H   0  0  0  0  0  0  0  0  0  0  0  0
  1  2  1  0  0  0  0
  2  7  1  0  0  0  0
  3  4  1  0  0  0  0
  3  2  2  0  0  0  0
  4  5  2  0  0  0  0
  5  8  1  0  0  0  0
  5  6  1  0  0  0  0
  6  9  1  0  0  0  0
  7  6  2  0  0  0  0
  7 10  1  0  0  0  0
 11 12  1  0  0  0  0
 12 13  2  0  0  0  0
 12  4  1  0  0  0  0
 13 17  1  0  0  0  0
 14 18  1  0  0  0  0
 14 13  1  0  0  0  0
 15 14  2  0  0  0  0
 16 15  1  0  0  0  0
 16 11  2  0  0  0  0
 19 15  1  0  0  0  0
 20 16  1  0  0  0  0
 21 11  1  0  0  0  0
 21 22  2  0  0  0  0
 23 21  2  0  0  0  0
 24 21  1  0  0  0  0
 24 27  1  0  0  0  0
 25 24  1  0  0  0  0
 26 24  1  0  0  0  0
 28 33  2  0  0  0  0
 28 29  1  0  0  0  0
 29 30  2  0  0  0  0
 30 31  1  0  0  0  0
 30  3  1  0  0  0  0
 32 36  1  0  0  0  0
 32 31  2  0  0  0  0
 33 32  1  0  0  0  0
 34 28  1  0  0  0  0
 35 29  1  0  0  0  0
M  END
>  <minimizedAffinity>
-5.34252214

$$$$

 OpenBabel03252509103D

 36 38  0  0  0  0  0  0  0  0999 V2000
   36.5100   27.6200   36.6370 Cl  0  0  0  0  0  0  0  0  0  0  0  0
   36.1860   28.3580   38.1760 C   0  0  0  0  0  0  0  0  0  0  0  0
   37.2010   28.7600   38.9800 C   0  0  0  0  0  0  0  0  0  0  0  0
   36.8340   29.3490   40.1820 C   0  0  0  0  0  0  0  0  0  0  0  0
   35.5230   29.5200   40.5480 C   0  0  0  0  0  0  0  0  0  0  0  0
   34.5270   29.1090   39.7240 C   0  0  0  0  0  0  0  0  0  0  0  0
   34.8730   28.5220   38.5270 C   0  0  0  0  0  0  0  0  0  0  0  0
   35.2610   29.9870   41.5040 H   0  0  0  0  0  0  0  0  0  0  0  0
   33.4810   29.2310   39.9880 H   0  0  0  0  0  0  0  0  0  0  0  0
   34.0660   28.2010   37.8840 H   0  0  0  0  0  0  0  0  0  0  0  0
   38.3400   29.0930   42.1480 C   0  0  0  0  0  0  0  0  0  0  0  0
   37.8820   29.8120   41.0850 C   0  0  0  0  0  0  0  0  0  0  0  0
   38.4220   31.0550   40.8120 C   0  0  0  0  0  0  0  0  0  0  0  0
   39.4190   31.5530   41.6180 C   0  0  0  0  0  0  0  0  0  0  0  0
   39.9120   30.8500   42.7090 C   0  0  0  0  0  0  0  0  0  0  0  0
   39.3470   29.6050   42.9560 C   0  0  0  0  0  0  0  0  0  0  0  0
   38.0620   31.6390   39.9620 H   0  0  0  0  0  0  0  0  0  0  0  0
   39.8020   32.5260   41.3560 H   0  0  0  0  0  0  0  0  0  0  0  0
   40.6860   31.2370   43.3360 H   0  0  0  0  0  0  0  0  0  0  0  0
   39.7380   29.0700   43.8060 H   0  0  0  0  0  0  0  0  0  0  0  0
   37.7490   27.5760   42.5320 S   0  0  0  0  0  0  0  0  0  0  0  0
   38.6720   26.9190   43.5600 O   0  0  0  0  0  0  0  0  0  0  0  0
   36.4410   27.8310   43.3210 O   0  0  0  0  0  0  0  0  0  0  0  0
   37.4090   26.2290   41.6210 C   0  0  0  0  0  0  0  0  0  0  0  0
   36.4950   26.1530   40.6260 F   0  0  0  0  0  0  0  0  0  0  0  0
   36.7590   25.3220   42.4790 F   0  0  0  0  0  0  0  0  0  0  0  0
   38.5210   25.3840   41.3300 F   0  0  0  0  0  0  0  0  0  0  0  0
   40.6390   27.2940   38.4590 C   0  0  0  0  0  0  0  0  0  0  0  0
   39.3140   27.4600   38.8810 C   0  0  0  0  0  0  0  0  0  0  0  0
   38.5660   28.5750   38.5550 C   0  0  0  0  0  0  0  0  0  0  0  0
   39.2110   29.4940   37.7950 N   0  0  0  0  0  0  0  0  0  0  0  0
   40.4850   29.3380   37.3870 C   0  0  0  0  0  0  0  0  0  0  0  0
   41.1850   28.2470   37.7190 N   0  0  0  0  0  0  0  0  0  0  0  0
   41.0850   26.3690   38.7970 H   0  0  0  0  0  0  0  0  0  0  0  0
   38.8110   26.7160   39.4890 H   0  0  0  0  0  0  0  0  0  0  0  0
   40.9850   30.0790   36.7830 H   0  0  0  0  0  0  0  0  0  0  0  0
  1  2  1  0  0  0  0
  2  7  2  0  0  0  0
  2  3  1  0  0  0  0
  3  4  2  0  0  0  0
  4  5  1  0  0  0  0
  4 12  1  0  0  0  0
  5  8  1  0  0  0  0
  6  9  1  0  0  0  0
  6  5  2  0  0  0  0
  7  6  1  0  0  0  0
 10  7  1  0  0  0  0
 11 21  1  0  0  0  0
 11 16  1  0  0  0  0
 12 11  2  0  0  0  0
 13 12  1  0  0  0  0
 13 14  2  0  0  0  0
 14 15  1  0  0  0  0
 15 16  2  0  0  0  0
 15 19  1  0  0  0  0
 16 20  1  0  0  0  0
 17 13  1  0  0  0  0
 18 14  1  0  0  0  0
 21 23  2  0  0  0  0
 21 22  2  0  0  0  0
 24 26  1  0  0  0  0
 24 21  1  0  0  0  0
 25 24  1  0  0  0  0
 27 24  1  0  0  0  0
 28 34  1  0  0  0  0
 28 29  1  0  0  0  0
 29 35  1  0  0  0  0
 30 29  2  0  0  0  0
 30  3  1  0  0  0  0
 31 30  1  0  0  0  0
 32 33  1  0  0  0  0
 32 31  2  0  0  0  0
 33 28  2  0  0  0  0
 36 32  1  0  0  0  0
M  END
>  <minimizedAffinity>
-5.34166145

$$$$

 OpenBabel03252509103D

 36 38  0  0  0  0  0  0  0  0999 V2000
   38.6700   27.0350   36.2040 Cl  0  0  0  0  0  0  0  0  0  0  0  0
   37.7760   28.0240   37.3170 C   0  0  0  0  0  0  0  0  0  0  0  0
   37.9190   27.8650   38.6550 C   0  0  0  0  0  0  0  0  0  0  0  0
   37.1690   28.7150   39.4560 C   0  0  0  0  0  0  0  0  0  0  0  0
   36.3270   29.6640   38.9360 C   0  0  0  0  0  0  0  0  0  0  0  0
   36.2020   29.8020   37.5920 C   0  0  0  0  0  0  0  0  0  0  0  0
   36.9400   28.9670   36.7820 C   0  0  0  0  0  0  0  0  0  0  0  0
   35.7440   30.3220   39.5920 H   0  0  0  0  0  0  0  0  0  0  0  0
   35.5440   30.5440   37.1530 H   0  0  0  0  0  0  0  0  0  0  0  0
   36.8280   29.0920   35.7150 H   0  0  0  0  0  0  0  0  0  0  0  0
   38.0420   29.4340   41.6750 C   0  0  0  0  0  0  0  0  0  0  0  0
   37.2880   28.6000   40.9060 C   0  0  0  0  0  0  0  0  0  0  0  0
   36.5740   27.5750   41.5000 C   0  0  0  0  0  0  0  0  0  0  0  0
   36.6340   27.4090   42.8640 C   0  0  0  0  0  0  0  0  0  0  0  0
   37.3920   28.2390   43.6800 C   0  0  0  0  0  0  0  0  0  0  0  0
   38.0960   29.2580   43.0510 C   0  0  0  0  0  0  0  0  0  0  0  0
   35.9660   26.9010   40.8920 H   0  0  0  0  0  0  0  0  0  0  0  0
   36.0580   26.5950   43.2710 H   0  0  0  0  0  0  0  0  0  0  0  0
   37.4380   28.1100   44.7400 H   0  0  0  0  0  0  0  0  0  0  0  0
   38.6800   29.8950   43.6950 H   0  0  0  0  0  0  0  0  0  0  0  0
   38.9190   30.7050   41.0320 S   0  0  0  0  0  0  0  0  0  0  0  0
   39.5720   31.4960   42.1680 O   0  0  0  0  0  0  0  0  0  0  0  0
   40.1180   30.0510   40.3020 O   0  0  0  0  0  0  0  0  0  0  0  0
   38.5070   31.9860   40.0560 C   0  0  0  0  0  0  0  0  0  0  0  0
   38.6780   32.0500   38.7150 F   0  0  0  0  0  0  0  0  0  0  0  0
   39.4070   33.0250   40.3620 F   0  0  0  0  0  0  0  0  0  0  0  0
   37.3290   32.6960   40.4340 F   0  0  0  0  0  0  0  0  0  0  0  0
   39.3310   24.6030   39.9220 C   0  0  0  0  0  0  0  0  0  0  0  0
   38.4400   25.5640   39.4300 C   0  0  0  0  0  0  0  0  0  0  0  0
   38.8230   26.8650   39.1640 C   0  0  0  0  0  0  0  0  0  0  0  0
   40.1270   27.1390   39.4160 N   0  0  0  0  0  0  0  0  0  0  0  0
   40.9880   26.2170   39.8900 C   0  0  0  0  0  0  0  0  0  0  0  0
   40.5870   24.9660   40.1370 N   0  0  0  0  0  0  0  0  0  0  0  0
   38.8770   23.6350   40.0770 H   0  0  0  0  0  0  0  0  0  0  0  0
   37.4000   25.3310   39.2330 H   0  0  0  0  0  0  0  0  0  0  0  0
   42.0230   26.4520   40.0860 H   0  0  0  0  0  0  0  0  0  0  0  0
  1  2  1  0  0  0  0
  2  3  1  0  0  0  0
  3 30  1  0  0  0  0
  3  4  2  0  0  0  0
  4 12  1  0  0  0  0
  5  4  1  0  0  0  0
  5  8  1  0  0  0  0
  6  5  2  0  0  0  0
  7  2  2  0  0  0  0
  7  6  1  0  0  0  0
  9  6  1  0  0  0  0
 10  7  1  0  0  0  0
 11 16  1  0  0  0  0
 12 13  1  0  0  0  0
 12 11  2  0  0  0  0
 13 14  2  0  0  0  0
 14 18  1  0  0  0  0
 14 15  1  0  0  0  0
 15 19  1  0  0  0  0
 16 15  2  0  0  0  0
 16 20  1  0  0  0  0
 17 13  1  0  0  0  0
 21 11  1  0  0  0  0
 21 22  2  0  0  0  0
 23 21  2  0  0  0  0
 24 26  1  0  0  0  0
 24 27  1  0  0  0  0
 24 21  1  0  0  0  0
 25 24  1  0  0  0  0
 28 34  1  0  0  0  0
 28 33  1  0  0  0  0
 29 28  2  0  0  0  0
 30 31  2  0  0  0  0
 30 29  1  0  0  0  0
 31 32  1  0  0  0  0
 32 36  1  0  0  0  0
 32 33  2  0  0  0  0
 35 29  1  0  0  0  0
M  END
>  <minimizedAffinity>
-5.31142521

$$$$

 OpenBabel03252509103D

 36 38  0  0  0  0  0  0  0  0999 V2000
   35.4380   25.1950   37.6090 Cl  0  0  0  0  0  0  0  0  0  0  0  0
   36.1950   25.1360   39.1720 C   0  0  0  0  0  0  0  0  0  0  0  0
   36.7110   26.2560   39.7350 C   0  0  0  0  0  0  0  0  0  0  0  0
   37.2820   26.1030   40.9910 C   0  0  0  0  0  0  0  0  0  0  0  0
   37.3280   24.8930   41.6350 C   0  0  0  0  0  0  0  0  0  0  0  0
   36.8030   23.7880   41.0490 C   0  0  0  0  0  0  0  0  0  0  0  0
   36.2320   23.9220   39.8020 C   0  0  0  0  0  0  0  0  0  0  0  0
   37.7860   24.7990   42.6270 H   0  0  0  0  0  0  0  0  0  0  0  0
   36.8250   22.8190   41.5360 H   0  0  0  0  0  0  0  0  0  0  0  0
   35.8200   23.0320   39.3510 H   0  0  0  0  0  0  0  0  0  0  0  0
   39.1600   27.6250   41.5870 C   0  0  0  0  0  0  0  0  0  0  0  0
   37.8450   27.2740   41.6530 C   0  0  0  0  0  0  0  0  0  0  0  0
   36.9610   28.0530   42.3770 C   0  0  0  0  0  0  0  0  0  0  0  0
   37.4210   29.1780   43.0230 C   0  0  0  0  0  0  0  0  0  0  0  0
   38.7540   29.5660   42.9780 C   0  0  0  0  0  0  0  0  0  0  0  0
   39.6140   28.7610   42.2430 C   0  0  0  0  0  0  0  0  0  0  0  0
   35.9050   27.7810   42.4360 H   0  0  0  0  0  0  0  0  0  0  0  0
   36.6870   29.7460   43.5710 H   0  0  0  0  0  0  0  0  0  0  0  0
   39.1100   30.4400   43.4810 H   0  0  0  0  0  0  0  0  0  0  0  0
   40.6450   29.0730   42.2170 H   0  0  0  0  0  0  0  0  0  0  0  0
   40.2850   26.7420   40.7190 S   0  0  0  0  0  0  0  0  0  0  0  0
   40.0720   26.9840   39.2230 O   0  0  0  0  0  0  0  0  0  0  0  0
   41.6500   27.4140   41.0100 O   0  0  0  0  0  0  0  0  0  0  0  0
   40.6440   25.1210   40.6500 C   0  0  0  0  0  0  0  0  0  0  0  0
   39.9250   24.1750   40.0030 F   0  0  0  0  0  0  0  0  0  0  0  0
   40.4210   24.6090   41.9420 F   0  0  0  0  0  0  0  0  0  0  0  0
   42.0330   24.7980   40.6020 F   0  0  0  0  0  0  0  0  0  0  0  0
   35.5370   29.6280   38.5140 C   0  0  0  0  0  0  0  0  0  0  0  0
   35.5970   28.4110   39.2040 C   0  0  0  0  0  0  0  0  0  0  0  0
   36.6320   27.5120   39.0320 C   0  0  0  0  0  0  0  0  0  0  0  0
   37.5840   27.8980   38.1460 N   0  0  0  0  0  0  0  0  0  0  0  0
   37.5290   29.0690   37.4810 C   0  0  0  0  0  0  0  0  0  0  0  0
   36.5140   29.9190   37.6680 N   0  0  0  0  0  0  0  0  0  0  0  0
   34.6640   30.2180   38.7590 H   0  0  0  0  0  0  0  0  0  0  0  0
   34.8290   28.1150   39.9080 H   0  0  0  0  0  0  0  0  0  0  0  0
   38.2950   29.3610   36.7790 H   0  0  0  0  0  0  0  0  0  0  0  0
  1  2  1  0  0  0  0
  2  3  2  0  0  0  0
  2  7  1  0  0  0  0
  3  4  1  0  0  0  0
  4  5  2  0  0  0  0
  4 12  1  0  0  0  0
  5  8  1  0  0  0  0
  6  9  1  0  0  0  0
  6  5  1  0  0  0  0
  7  6  2  0  0  0  0
 10  7  1  0  0  0  0
 11 12  2  0  0  0  0
 11 16  1  0  0  0  0
 12 13  1  0  0  0  0
 13 17  1  0  0  0  0
 13 14  2  0  0  0  0
 14 18  1  0  0  0  0
 15 14  1  0  0  0  0
 15 19  1  0  0  0  0
 16 15  2  0  0  0  0
 20 16  1  0  0  0  0
 21 23  2  0  0  0  0
 21 11  1  0  0  0  0
 22 21  2  0  0  0  0
 24 21  1  0  0  0  0
 24 26  1  0  0  0  0
 25 24  1  0  0  0  0
 27 24  1  0  0  0  0
 28 34  1  0  0  0  0
 28 29  1  0  0  0  0
 29 35  1  0  0  0  0
 30 29  2  0  0  0  0
 30  3  1  0  0  0  0
 31 30  1  0  0  0  0
 32 33  1  0  0  0  0
 32 31  2  0  0  0  0
 33 28  2  0  0  0  0
 36 32  1  0  0  0  0
M  END
>  <minimizedAffinity>
-5.28036547

$$$$
