
 OpenBabel03242515153D

 29 30  0  0  0  0  0  0  0  0999 V2000
   37.8570   28.2870   43.4890 C   0  0  0  0  0  0  0  0  0  0  0  0
   37.7810   28.4480   44.5840 H   0  0  0  0  0  0  0  0  0  0  0  0
   36.8310   28.3520   43.0810 H   0  0  0  0  0  0  0  0  0  0  0  0
   39.9720   25.1980   43.3050 C   0  0  0  0  0  0  0  0  0  0  0  0
   39.1890   24.4200   42.4230 C   0  0  0  0  0  0  0  0  0  0  0  0
   38.0090   24.9870   41.9530 C   0  0  0  0  0  0  0  0  0  0  0  0
   37.7050   26.2350   42.3770 N   0  0  0  0  0  0  0  0  0  0  0  0
   38.4730   26.9480   43.2180 C   0  0  0  0  0  0  0  0  0  0  0  0
   39.6120   26.4190   43.6790 N   0  0  0  0  0  0  0  0  0  0  0  0
   40.8810   24.7820   43.6770 H   0  0  0  0  0  0  0  0  0  0  0  0
   39.5090   23.4200   42.1310 H   0  0  0  0  0  0  0  0  0  0  0  0
   37.2100   24.1700   41.0410 C   0  0  0  0  0  0  0  0  0  0  0  0
   35.9330   24.0150   41.5600 F   0  0  0  0  0  0  0  0  0  0  0  0
   37.7700   22.9010   41.0590 F   0  0  0  0  0  0  0  0  0  0  0  0
   37.1280   24.7090   39.7820 F   0  0  0  0  0  0  0  0  0  0  0  0
   38.6400   29.3970   42.8380 C   0  0  0  0  0  0  0  0  0  0  0  0
   39.5590   28.9320   42.4120 H   0  0  0  0  0  0  0  0  0  0  0  0
   38.9570   30.0660   43.6340 H   0  0  0  0  0  0  0  0  0  0  0  0
   37.8350   30.0820   41.8060 C   0  0  0  0  0  0  0  0  0  0  0  0
   36.5350   29.8860   41.4340 C   0  0  0  0  0  0  0  0  0  0  0  0
   36.2720   30.7840   40.4270 C   0  0  0  0  0  0  0  0  0  0  0  0
   37.3780   31.4960   40.2020 N   0  0  0  0  0  0  0  0  0  0  0  0
   38.3120   31.0600   41.0430 N   0  0  0  0  0  0  0  0  0  0  0  0
   35.8670   29.1500   41.8740 H   0  0  0  0  0  0  0  0  0  0  0  0
   35.3070   30.8810   39.9100 H   0  0  0  0  0  0  0  0  0  0  0  0
   37.5690   32.5720   39.2180 C   0  0  0  0  0  0  0  0  0  0  0  0
   36.8990   33.7260   39.6440 F   0  0  0  0  0  0  0  0  0  0  0  0
   37.1800   32.1540   37.9820 F   0  0  0  0  0  0  0  0  0  0  0  0
   38.9140   32.8910   39.1810 F   0  0  0  0  0  0  0  0  0  0  0  0
  1  2  1  0  0  0  0
  3  1  1  0  0  0  0
  4 10  1  0  0  0  0
  4  9  1  0  0  0  0
  5  4  2  0  0  0  0
  6  7  2  0  0  0  0
  6  5  1  0  0  0  0
  7  8  1  0  0  0  0
  8  1  1  0  0  0  0
  8  9  2  0  0  0  0
 11  5  1  0  0  0  0
 12 14  1  0  0  0  0
 12 13  1  0  0  0  0
 12  6  1  0  0  0  0
 15 12  1  0  0  0  0
 16  1  1  0  0  0  0
 16 18  1  0  0  0  0
 17 16  1  0  0  0  0
 19 16  1  0  0  0  0
 20 19  1  0  0  0  0
 20 24  1  0  0  0  0
 21 20  2  0  0  0  0
 22 21  1  0  0  0  0
 22 23  1  0  0  0  0
 23 19  2  0  0  0  0
 25 21  1  0  0  0  0
 26 27  1  0  0  0  0
 26 22  1  0  0  0  0
 28 26  1  0  0  0  0
 29 26  1  0  0  0  0
M  END
>  <minimizedAffinity>
-5.50250912

$$$$

 OpenBabel03242515153D

 29 30  0  0  0  0  0  0  0  0999 V2000
   38.1170   29.1320   43.1510 C   0  0  0  0  0  0  0  0  0  0  0  0
   38.2190   29.8990   43.9470 H   0  0  0  0  0  0  0  0  0  0  0  0
   39.1400   28.8060   42.8850 H   0  0  0  0  0  0  0  0  0  0  0  0
   35.8760   29.9480   40.2590 C   0  0  0  0  0  0  0  0  0  0  0  0
   36.4340   31.1830   39.8610 C   0  0  0  0  0  0  0  0  0  0  0  0
   37.5200   31.6540   40.5900 C   0  0  0  0  0  0  0  0  0  0  0  0
   37.9570   30.8940   41.6210 N   0  0  0  0  0  0  0  0  0  0  0  0
   37.4030   29.7210   41.9730 C   0  0  0  0  0  0  0  0  0  0  0  0
   36.3570   29.2530   41.2830 N   0  0  0  0  0  0  0  0  0  0  0  0
   35.0420   29.5680   39.7130 H   0  0  0  0  0  0  0  0  0  0  0  0
   36.0190   31.7330   39.0160 H   0  0  0  0  0  0  0  0  0  0  0  0
   38.0860   32.9340   40.1670 C   0  0  0  0  0  0  0  0  0  0  0  0
   37.0620   33.7890   39.7870 F   0  0  0  0  0  0  0  0  0  0  0  0
   38.8030   32.6790   39.0060 F   0  0  0  0  0  0  0  0  0  0  0  0
   38.8380   33.5300   41.1480 F   0  0  0  0  0  0  0  0  0  0  0  0
   37.4090   27.9090   43.6730 C   0  0  0  0  0  0  0  0  0  0  0  0
   36.3190   28.0770   43.5060 H   0  0  0  0  0  0  0  0  0  0  0  0
   37.5700   27.8890   44.7480 H   0  0  0  0  0  0  0  0  0  0  0  0
   37.8910   26.6860   43.0000 C   0  0  0  0  0  0  0  0  0  0  0  0
   39.1260   26.1020   43.0240 C   0  0  0  0  0  0  0  0  0  0  0  0
   39.0490   24.9820   42.2300 C   0  0  0  0  0  0  0  0  0  0  0  0
   37.8070   24.8980   41.7460 N   0  0  0  0  0  0  0  0  0  0  0  0
   37.1220   25.9340   42.2210 N   0  0  0  0  0  0  0  0  0  0  0  0
   39.9820   26.4800   43.5770 H   0  0  0  0  0  0  0  0  0  0  0  0
   39.8800   24.2890   42.0410 H   0  0  0  0  0  0  0  0  0  0  0  0
   37.2600   23.8660   40.8520 C   0  0  0  0  0  0  0  0  0  0  0  0
   35.8640   23.8390   40.9610 F   0  0  0  0  0  0  0  0  0  0  0  0
   37.8400   22.6620   41.1130 F   0  0  0  0  0  0  0  0  0  0  0  0
   37.5440   24.2280   39.5490 F   0  0  0  0  0  0  0  0  0  0  0  0
  1 16  1  0  0  0  0
  1  2  1  0  0  0  0
  3  1  1  0  0  0  0
  4  9  1  0  0  0  0
  5  4  2  0  0  0  0
  5  6  1  0  0  0  0
  6  7  2  0  0  0  0
  7  8  1  0  0  0  0
  8  1  1  0  0  0  0
  9  8  2  0  0  0  0
 10  4  1  0  0  0  0
 11  5  1  0  0  0  0
 12  6  1  0  0  0  0
 12 15  1  0  0  0  0
 13 12  1  0  0  0  0
 14 12  1  0  0  0  0
 16 18  1  0  0  0  0
 17 16  1  0  0  0  0
 19 20  1  0  0  0  0
 19 16  1  0  0  0  0
 20 24  1  0  0  0  0
 21 20  2  0  0  0  0
 22 23  1  0  0  0  0
 22 21  1  0  0  0  0
 23 19  2  0  0  0  0
 25 21  1  0  0  0  0
 26 27  1  0  0  0  0
 26 28  1  0  0  0  0
 26 22  1  0  0  0  0
 29 26  1  0  0  0  0
M  END
>  <minimizedAffinity>
-5.31147957

$$$$

 OpenBabel03242515153D

 29 30  0  0  0  0  0  0  0  0999 V2000
   36.2700   27.4990   38.1600 C   0  0  0  0  0  0  0  0  0  0  0  0
   35.6870   26.9350   37.4030 H   0  0  0  0  0  0  0  0  0  0  0  0
   37.1970   27.8410   37.6650 H   0  0  0  0  0  0  0  0  0  0  0  0
   36.9930   24.6930   40.5390 C   0  0  0  0  0  0  0  0  0  0  0  0
   37.1010   25.4200   41.7460 C   0  0  0  0  0  0  0  0  0  0  0  0
   36.9230   26.7970   41.6760 C   0  0  0  0  0  0  0  0  0  0  0  0
   36.6620   27.3320   40.4610 N   0  0  0  0  0  0  0  0  0  0  0  0
   36.5660   26.6110   39.3310 C   0  0  0  0  0  0  0  0  0  0  0  0
   36.7340   25.2840   39.3790 N   0  0  0  0  0  0  0  0  0  0  0  0
   37.1260   23.6350   40.5710 H   0  0  0  0  0  0  0  0  0  0  0  0
   37.3140   24.9090   42.6850 H   0  0  0  0  0  0  0  0  0  0  0  0
   37.0370   27.5360   42.9320 C   0  0  0  0  0  0  0  0  0  0  0  0
   35.8780   27.3670   43.6750 F   0  0  0  0  0  0  0  0  0  0  0  0
   37.0640   28.8820   42.5930 F   0  0  0  0  0  0  0  0  0  0  0  0
   38.1190   27.1450   43.6800 F   0  0  0  0  0  0  0  0  0  0  0  0
   35.5350   28.7440   38.5840 C   0  0  0  0  0  0  0  0  0  0  0  0
   35.2890   28.6170   39.6640 H   0  0  0  0  0  0  0  0  0  0  0  0
   34.5940   28.7530   38.0380 H   0  0  0  0  0  0  0  0  0  0  0  0
   36.3480   29.9520   38.3380 C   0  0  0  0  0  0  0  0  0  0  0  0
   37.0120   30.3480   37.2110 C   0  0  0  0  0  0  0  0  0  0  0  0
   37.6140   31.5480   37.5080 C   0  0  0  0  0  0  0  0  0  0  0  0
   37.3210   31.8610   38.7720 N   0  0  0  0  0  0  0  0  0  0  0  0
   36.5560   30.8870   39.2580 N   0  0  0  0  0  0  0  0  0  0  0  0
   37.0360   29.7940   36.2770 H   0  0  0  0  0  0  0  0  0  0  0  0
   38.2270   32.1320   36.8080 H   0  0  0  0  0  0  0  0  0  0  0  0
   37.7440   33.0520   39.5230 C   0  0  0  0  0  0  0  0  0  0  0  0
   36.8550   34.1070   39.2770 F   0  0  0  0  0  0  0  0  0  0  0  0
   39.0360   33.3620   39.2260 F   0  0  0  0  0  0  0  0  0  0  0  0
   37.6490   32.7690   40.8730 F   0  0  0  0  0  0  0  0  0  0  0  0
  1 16  1  0  0  0  0
  1  8  1  0  0  0  0
  2  1  1  0  0  0  0
  3  1  1  0  0  0  0
  4 10  1  0  0  0  0
  4  5  1  0  0  0  0
  5 11  1  0  0  0  0
  6  5  2  0  0  0  0
  6 12  1  0  0  0  0
  7  6  1  0  0  0  0
  8  9  1  0  0  0  0
  8  7  2  0  0  0  0
  9  4  2  0  0  0  0
 12 13  1  0  0  0  0
 12 15  1  0  0  0  0
 14 12  1  0  0  0  0
 16 17  1  0  0  0  0
 18 16  1  0  0  0  0
 19 16  1  0  0  0  0
 19 23  2  0  0  0  0
 20 21  2  0  0  0  0
 20 19  1  0  0  0  0
 21 22  1  0  0  0  0
 22 23  1  0  0  0  0
 22 26  1  0  0  0  0
 24 20  1  0  0  0  0
 25 21  1  0  0  0  0
 26 29  1  0  0  0  0
 27 26  1  0  0  0  0
 28 26  1  0  0  0  0
M  END
>  <minimizedAffinity>
-5.28462744

$$$$

 OpenBabel03242515153D

 29 30  0  0  0  0  0  0  0  0999 V2000
   36.0150   28.4320   39.9320 C   0  0  0  0  0  0  0  0  0  0  0  0
   36.5050   27.4490   39.7740 H   0  0  0  0  0  0  0  0  0  0  0  0
   34.9290   28.2770   39.8030 H   0  0  0  0  0  0  0  0  0  0  0  0
   37.2420   30.3230   36.9360 C   0  0  0  0  0  0  0  0  0  0  0  0
   37.5630   31.5570   37.5430 C   0  0  0  0  0  0  0  0  0  0  0  0
   37.3460   31.6670   38.9120 C   0  0  0  0  0  0  0  0  0  0  0  0
   36.8450   30.5870   39.5540 N   0  0  0  0  0  0  0  0  0  0  0  0
   36.5500   29.4250   38.9450 C   0  0  0  0  0  0  0  0  0  0  0  0
   36.7530   29.3010   37.6280 N   0  0  0  0  0  0  0  0  0  0  0  0
   37.4010   30.2170   35.8870 H   0  0  0  0  0  0  0  0  0  0  0  0
   37.9640   32.3800   36.9510 H   0  0  0  0  0  0  0  0  0  0  0  0
   37.6830   32.9510   39.5270 C   0  0  0  0  0  0  0  0  0  0  0  0
   38.9920   33.2850   39.2100 F   0  0  0  0  0  0  0  0  0  0  0  0
   37.6790   32.7400   40.8980 F   0  0  0  0  0  0  0  0  0  0  0  0
   36.8450   33.9630   39.1310 F   0  0  0  0  0  0  0  0  0  0  0  0
   36.2080   28.9040   41.3500 C   0  0  0  0  0  0  0  0  0  0  0  0
   35.1950   28.9370   41.8150 H   0  0  0  0  0  0  0  0  0  0  0  0
   36.5690   29.9280   41.2930 H   0  0  0  0  0  0  0  0  0  0  0  0
   37.1290   28.0150   42.0870 C   0  0  0  0  0  0  0  0  0  0  0  0
   37.8540   28.2490   43.2210 C   0  0  0  0  0  0  0  0  0  0  0  0
   38.5500   27.0950   43.4910 C   0  0  0  0  0  0  0  0  0  0  0  0
   38.2510   26.1970   42.5490 N   0  0  0  0  0  0  0  0  0  0  0  0
   37.3920   26.7690   41.7100 N   0  0  0  0  0  0  0  0  0  0  0  0
   37.8550   29.1840   43.7750 H   0  0  0  0  0  0  0  0  0  0  0  0
   39.2300   26.9570   44.3430 H   0  0  0  0  0  0  0  0  0  0  0  0
   38.7560   24.8210   42.4280 C   0  0  0  0  0  0  0  0  0  0  0  0
   39.5850   24.5240   43.5180 F   0  0  0  0  0  0  0  0  0  0  0  0
   39.3710   24.6490   41.2270 F   0  0  0  0  0  0  0  0  0  0  0  0
   37.6800   23.9570   42.5090 F   0  0  0  0  0  0  0  0  0  0  0  0
  1 16  1  0  0  0  0
  2  1  1  0  0  0  0
  3  1  1  0  0  0  0
  4  5  2  0  0  0  0
  4  9  1  0  0  0  0
  5  6  1  0  0  0  0
  6 12  1  0  0  0  0
  6  7  2  0  0  0  0
  8  7  1  0  0  0  0
  8  1  1  0  0  0  0
  9  8  2  0  0  0  0
 10  4  1  0  0  0  0
 11  5  1  0  0  0  0
 12 14  1  0  0  0  0
 13 12  1  0  0  0  0
 15 12  1  0  0  0  0
 16 17  1  0  0  0  0
 16 19  1  0  0  0  0
 18 16  1  0  0  0  0
 19 20  1  0  0  0  0
 20 21  2  0  0  0  0
 20 24  1  0  0  0  0
 21 25  1  0  0  0  0
 22 21  1  0  0  0  0
 23 19  2  0  0  0  0
 23 22  1  0  0  0  0
 26 29  1  0  0  0  0
 26 22  1  0  0  0  0
 26 27  1  0  0  0  0
 28 26  1  0  0  0  0
M  END
>  <minimizedAffinity>
-5.26674271

$$$$

 OpenBabel03242515153D

 29 30  0  0  0  0  0  0  0  0999 V2000
   41.0780   30.1250   41.0670 C   0  0  0  0  0  0  0  0  0  0  0  0
   42.1290   29.9240   40.7750 H   0  0  0  0  0  0  0  0  0  0  0  0
   40.4490   29.3800   40.5460 H   0  0  0  0  0  0  0  0  0  0  0  0
   40.9170   33.7850   40.2700 C   0  0  0  0  0  0  0  0  0  0  0  0
   39.5600   33.8900   39.8890 C   0  0  0  0  0  0  0  0  0  0  0  0
   38.7980   32.7280   39.9260 C   0  0  0  0  0  0  0  0  0  0  0  0
   39.4130   31.5910   40.3230 N   0  0  0  0  0  0  0  0  0  0  0  0
   40.7070   31.5250   40.6800 C   0  0  0  0  0  0  0  0  0  0  0  0
   41.4550   32.6330   40.6510 N   0  0  0  0  0  0  0  0  0  0  0  0
   41.5190   34.6650   40.2500 H   0  0  0  0  0  0  0  0  0  0  0  0
   39.1430   34.8490   39.5800 H   0  0  0  0  0  0  0  0  0  0  0  0
   37.3970   32.8530   39.5270 C   0  0  0  0  0  0  0  0  0  0  0  0
   36.5980   32.1620   40.4270 F   0  0  0  0  0  0  0  0  0  0  0  0
   37.2710   32.1710   38.3250 F   0  0  0  0  0  0  0  0  0  0  0  0
   36.9800   34.1580   39.4560 F   0  0  0  0  0  0  0  0  0  0  0  0
   40.8770   29.8880   42.5410 C   0  0  0  0  0  0  0  0  0  0  0  0
   40.3830   30.8020   42.9470 H   0  0  0  0  0  0  0  0  0  0  0  0
   41.8670   29.8320   42.9870 H   0  0  0  0  0  0  0  0  0  0  0  0
   40.0750   28.6710   42.7800 C   0  0  0  0  0  0  0  0  0  0  0  0
   40.4500   27.4590   43.2860 C   0  0  0  0  0  0  0  0  0  0  0  0
   39.3230   26.6710   43.3030 C   0  0  0  0  0  0  0  0  0  0  0  0
   38.3050   27.3880   42.8220 N   0  0  0  0  0  0  0  0  0  0  0  0
   38.7760   28.5930   42.5120 N   0  0  0  0  0  0  0  0  0  0  0  0
   41.4570   27.2030   43.6050 H   0  0  0  0  0  0  0  0  0  0  0  0
   39.2900   25.6310   43.6560 H   0  0  0  0  0  0  0  0  0  0  0  0
   36.9080   26.9620   42.6520 C   0  0  0  0  0  0  0  0  0  0  0  0
   36.1220   27.4990   43.6800 F   0  0  0  0  0  0  0  0  0  0  0  0
   36.8350   25.6050   42.5780 F   0  0  0  0  0  0  0  0  0  0  0  0
   36.4310   27.5020   41.4720 F   0  0  0  0  0  0  0  0  0  0  0  0
  1 16  1  0  0  0  0
  2  1  1  0  0  0  0
  3  1  1  0  0  0  0
  4  9  1  0  0  0  0
  5  6  1  0  0  0  0
  5  4  2  0  0  0  0
  6  7  2  0  0  0  0
  7  8  1  0  0  0  0
  8  1  1  0  0  0  0
  9  8  2  0  0  0  0
 10  4  1  0  0  0  0
 11  5  1  0  0  0  0
 12  6  1  0  0  0  0
 12 13  1  0  0  0  0
 14 12  1  0  0  0  0
 15 12  1  0  0  0  0
 16 19  1  0  0  0  0
 16 17  1  0  0  0  0
 16 18  1  0  0  0  0
 19 20  1  0  0  0  0
 20 21  2  0  0  0  0
 20 24  1  0  0  0  0
 21 25  1  0  0  0  0
 22 21  1  0  0  0  0
 23 19  2  0  0  0  0
 23 22  1  0  0  0  0
 26 22  1  0  0  0  0
 26 27  1  0  0  0  0
 28 26  1  0  0  0  0
 29 26  1  0  0  0  0
M  END
>  <minimizedAffinity>
-5.21386576

$$$$

 OpenBabel03242515153D

 29 30  0  0  0  0  0  0  0  0999 V2000
   35.6870   29.6640   40.5470 C   0  0  0  0  0  0  0  0  0  0  0  0
   35.2750   30.5940   40.9900 H   0  0  0  0  0  0  0  0  0  0  0  0
   34.8270   29.0110   40.3080 H   0  0  0  0  0  0  0  0  0  0  0  0
   38.1380   28.7820   43.2420 C   0  0  0  0  0  0  0  0  0  0  0  0
   38.1820   27.3790   43.0810 C   0  0  0  0  0  0  0  0  0  0  0  0
   37.3880   26.8290   42.0800 C   0  0  0  0  0  0  0  0  0  0  0  0
   36.6370   27.6790   41.3430 N   0  0  0  0  0  0  0  0  0  0  0  0
   36.6180   29.0110   41.5230 C   0  0  0  0  0  0  0  0  0  0  0  0
   37.3770   29.5570   42.4800 N   0  0  0  0  0  0  0  0  0  0  0  0
   38.7410   29.2230   44.0040 H   0  0  0  0  0  0  0  0  0  0  0  0
   38.8170   26.7650   43.7200 H   0  0  0  0  0  0  0  0  0  0  0  0
   37.4430   25.3770   41.9250 C   0  0  0  0  0  0  0  0  0  0  0  0
   36.3850   24.7980   42.6110 F   0  0  0  0  0  0  0  0  0  0  0  0
   38.5860   24.9560   42.5900 F   0  0  0  0  0  0  0  0  0  0  0  0
   37.4040   24.9830   40.6110 F   0  0  0  0  0  0  0  0  0  0  0  0
   36.3730   29.9520   39.2370 C   0  0  0  0  0  0  0  0  0  0  0  0
   35.5670   30.0810   38.4770 H   0  0  0  0  0  0  0  0  0  0  0  0
   36.9270   29.0560   38.9700 H   0  0  0  0  0  0  0  0  0  0  0  0
   37.2350   31.1470   39.3390 C   0  0  0  0  0  0  0  0  0  0  0  0
   36.9700   32.3770   39.8720 C   0  0  0  0  0  0  0  0  0  0  0  0
   38.1110   33.1290   39.7160 C   0  0  0  0  0  0  0  0  0  0  0  0
   39.0300   32.3740   39.1100 N   0  0  0  0  0  0  0  0  0  0  0  0
   38.4850   31.1810   38.8900 N   0  0  0  0  0  0  0  0  0  0  0  0
   36.0260   32.6680   40.3230 H   0  0  0  0  0  0  0  0  0  0  0  0
   38.2230   34.1720   40.0430 H   0  0  0  0  0  0  0  0  0  0  0  0
   40.4010   32.7550   38.7390 C   0  0  0  0  0  0  0  0  0  0  0  0
   40.5760   32.6000   37.3570 F   0  0  0  0  0  0  0  0  0  0  0  0
   41.3010   32.0460   39.4730 F   0  0  0  0  0  0  0  0  0  0  0  0
   40.5640   34.1010   39.0050 F   0  0  0  0  0  0  0  0  0  0  0  0
  1  2  1  0  0  0  0
  1  8  1  0  0  0  0
  3  1  1  0  0  0  0
  4 10  1  0  0  0  0
  5  4  1  0  0  0  0
  5 11  1  0  0  0  0
  6  5  2  0  0  0  0
  7  8  2  0  0  0  0
  7  6  1  0  0  0  0
  8  9  1  0  0  0  0
  9  4  2  0  0  0  0
 12  6  1  0  0  0  0
 12 14  1  0  0  0  0
 12 13  1  0  0  0  0
 15 12  1  0  0  0  0
 16 19  1  0  0  0  0
 16  1  1  0  0  0  0
 17 16  1  0  0  0  0
 18 16  1  0  0  0  0
 19 20  1  0  0  0  0
 20 24  1  0  0  0  0
 21 20  2  0  0  0  0
 21 25  1  0  0  0  0
 22 21  1  0  0  0  0
 23 22  1  0  0  0  0
 23 19  2  0  0  0  0
 26 29  1  0  0  0  0
 26 22  1  0  0  0  0
 26 28  1  0  0  0  0
 27 26  1  0  0  0  0
M  END
>  <minimizedAffinity>
-5.14669228

$$$$

 OpenBabel03242515153D

 29 30  0  0  0  0  0  0  0  0999 V2000
   35.6030   29.3550   40.5630 C   0  0  0  0  0  0  0  0  0  0  0  0
   35.8730   30.4090   40.3450 H   0  0  0  0  0  0  0  0  0  0  0  0
   34.5590   29.3580   40.9260 H   0  0  0  0  0  0  0  0  0  0  0  0
   38.0130   28.7250   43.3640 C   0  0  0  0  0  0  0  0  0  0  0  0
   38.1560   27.3240   43.2500 C   0  0  0  0  0  0  0  0  0  0  0  0
   37.4350   26.6920   42.2440 C   0  0  0  0  0  0  0  0  0  0  0  0
   36.6550   27.4660   41.4540 N   0  0  0  0  0  0  0  0  0  0  0  0
   36.5420   28.7980   41.5890 C   0  0  0  0  0  0  0  0  0  0  0  0
   37.2290   29.4230   42.5520 N   0  0  0  0  0  0  0  0  0  0  0  0
   38.5590   29.2300   44.1290 H   0  0  0  0  0  0  0  0  0  0  0  0
   38.8080   26.7760   43.9300 H   0  0  0  0  0  0  0  0  0  0  0  0
   37.5930   25.2420   42.1390 C   0  0  0  0  0  0  0  0  0  0  0  0
   38.6780   24.8390   42.9020 F   0  0  0  0  0  0  0  0  0  0  0  0
   37.9510   24.9830   40.8230 F   0  0  0  0  0  0  0  0  0  0  0  0
   36.4730   24.5580   42.5400 F   0  0  0  0  0  0  0  0  0  0  0  0
   35.6090   28.5290   39.3030 C   0  0  0  0  0  0  0  0  0  0  0  0
   34.5560   28.2090   39.1270 H   0  0  0  0  0  0  0  0  0  0  0  0
   36.1860   27.6340   39.5180 H   0  0  0  0  0  0  0  0  0  0  0  0
   36.1530   29.2980   38.1650 C   0  0  0  0  0  0  0  0  0  0  0  0
   37.1040   30.2780   38.1430 C   0  0  0  0  0  0  0  0  0  0  0  0
   37.2440   30.6640   36.8310 C   0  0  0  0  0  0  0  0  0  0  0  0
   36.4040   29.9380   36.0890 N   0  0  0  0  0  0  0  0  0  0  0  0
   35.7540   29.1180   36.9110 N   0  0  0  0  0  0  0  0  0  0  0  0
   37.6280   30.6550   39.0170 H   0  0  0  0  0  0  0  0  0  0  0  0
   37.9370   31.4400   36.4760 H   0  0  0  0  0  0  0  0  0  0  0  0
   36.2070   30.0020   34.6340 C   0  0  0  0  0  0  0  0  0  0  0  0
   34.8460   29.8590   34.3350 F   0  0  0  0  0  0  0  0  0  0  0  0
   36.9900   29.0790   34.0110 F   0  0  0  0  0  0  0  0  0  0  0  0
   36.5720   31.2640   34.2030 F   0  0  0  0  0  0  0  0  0  0  0  0
  1  3  1  0  0  0  0
  1  8  1  0  0  0  0
  2  1  1  0  0  0  0
  4 10  1  0  0  0  0
  5  4  1  0  0  0  0
  5 11  1  0  0  0  0
  6  5  2  0  0  0  0
  7  8  2  0  0  0  0
  7  6  1  0  0  0  0
  8  9  1  0  0  0  0
  9  4  2  0  0  0  0
 12  6  1  0  0  0  0
 12 15  1  0  0  0  0
 12 13  1  0  0  0  0
 14 12  1  0  0  0  0
 16 18  1  0  0  0  0
 16  1  1  0  0  0  0
 17 16  1  0  0  0  0
 19 16  1  0  0  0  0
 20 19  1  0  0  0  0
 20 24  1  0  0  0  0
 21 20  2  0  0  0  0
 22 21  1  0  0  0  0
 22 23  1  0  0  0  0
 23 19  2  0  0  0  0
 25 21  1  0  0  0  0
 26 22  1  0  0  0  0
 27 26  1  0  0  0  0
 28 26  1  0  0  0  0
 29 26  1  0  0  0  0
M  END
>  <minimizedAffinity>
-5.13421631

$$$$

 OpenBabel03242515153D

 29 30  0  0  0  0  0  0  0  0999 V2000
   39.9260   29.9650   42.5410 C   0  0  0  0  0  0  0  0  0  0  0  0
   40.5210   30.1780   43.4530 H   0  0  0  0  0  0  0  0  0  0  0  0
   40.3750   29.0750   42.0640 H   0  0  0  0  0  0  0  0  0  0  0  0
   40.7600   33.0210   40.5360 C   0  0  0  0  0  0  0  0  0  0  0  0
   39.5400   33.1990   39.8470 C   0  0  0  0  0  0  0  0  0  0  0  0
   38.5250   32.2830   40.1040 C   0  0  0  0  0  0  0  0  0  0  0  0
   38.7870   31.2950   40.9910 N   0  0  0  0  0  0  0  0  0  0  0  0
   39.9600   31.1540   41.6300 C   0  0  0  0  0  0  0  0  0  0  0  0
   40.9470   32.0270   41.3960 N   0  0  0  0  0  0  0  0  0  0  0  0
   41.5500   33.7130   40.3540 H   0  0  0  0  0  0  0  0  0  0  0  0
   39.4130   34.0240   39.1470 H   0  0  0  0  0  0  0  0  0  0  0  0
   37.2690   32.4790   39.3830 C   0  0  0  0  0  0  0  0  0  0  0  0
   37.4810   32.2900   38.0250 F   0  0  0  0  0  0  0  0  0  0  0  0
   36.9450   33.8220   39.5210 F   0  0  0  0  0  0  0  0  0  0  0  0
   36.2750   31.6350   39.8110 F   0  0  0  0  0  0  0  0  0  0  0  0
   38.5140   29.5840   42.9000 C   0  0  0  0  0  0  0  0  0  0  0  0
   37.8440   30.1830   42.2400 H   0  0  0  0  0  0  0  0  0  0  0  0
   38.3470   29.9220   43.9190 H   0  0  0  0  0  0  0  0  0  0  0  0
   38.2970   28.1320   42.7380 C   0  0  0  0  0  0  0  0  0  0  0  0
   37.1320   27.4260   42.6300 C   0  0  0  0  0  0  0  0  0  0  0  0
   37.4830   26.1030   42.4970 C   0  0  0  0  0  0  0  0  0  0  0  0
   38.8150   26.0180   42.5260 N   0  0  0  0  0  0  0  0  0  0  0  0
   39.2900   27.2520   42.6710 N   0  0  0  0  0  0  0  0  0  0  0  0
   36.1370   27.8620   42.6480 H   0  0  0  0  0  0  0  0  0  0  0  0
   36.7700   25.2740   42.3880 H   0  0  0  0  0  0  0  0  0  0  0  0
   39.6400   24.8060   42.4180 C   0  0  0  0  0  0  0  0  0  0  0  0
   39.5070   24.0390   43.5840 F   0  0  0  0  0  0  0  0  0  0  0  0
   40.9300   25.1380   42.1410 F   0  0  0  0  0  0  0  0  0  0  0  0
   39.1420   24.0350   41.3840 F   0  0  0  0  0  0  0  0  0  0  0  0
  1 16  1  0  0  0  0
  1  2  1  0  0  0  0
  3  1  1  0  0  0  0
  4  9  1  0  0  0  0
  5  6  1  0  0  0  0
  5  4  2  0  0  0  0
  6  7  2  0  0  0  0
  7  8  1  0  0  0  0
  8  1  1  0  0  0  0
  9  8  2  0  0  0  0
 10  4  1  0  0  0  0
 11  5  1  0  0  0  0
 12 14  1  0  0  0  0
 12 15  1  0  0  0  0
 12  6  1  0  0  0  0
 13 12  1  0  0  0  0
 16 18  1  0  0  0  0
 17 16  1  0  0  0  0
 19 16  1  0  0  0  0
 20 24  1  0  0  0  0
 20 19  1  0  0  0  0
 21 22  1  0  0  0  0
 21 20  2  0  0  0  0
 22 23  1  0  0  0  0
 23 19  2  0  0  0  0
 25 21  1  0  0  0  0
 26 22  1  0  0  0  0
 26 27  1  0  0  0  0
 28 26  1  0  0  0  0
 29 26  1  0  0  0  0
M  END
>  <minimizedAffinity>
-5.11761475

$$$$

 OpenBabel03242515153D

 29 30  0  0  0  0  0  0  0  0999 V2000
   36.9330   27.6580   43.0180 C   0  0  0  0  0  0  0  0  0  0  0  0
   36.5910   27.5710   44.0700 H   0  0  0  0  0  0  0  0  0  0  0  0
   36.0520   27.9440   42.4150 H   0  0  0  0  0  0  0  0  0  0  0  0
   37.6070   24.1550   41.8670 C   0  0  0  0  0  0  0  0  0  0  0  0
   39.0170   24.1940   41.7830 C   0  0  0  0  0  0  0  0  0  0  0  0
   39.6400   25.3910   42.1190 C   0  0  0  0  0  0  0  0  0  0  0  0
   38.8490   26.4210   42.4970 N   0  0  0  0  0  0  0  0  0  0  0  0
   37.5090   26.3500   42.5660 C   0  0  0  0  0  0  0  0  0  0  0  0
   36.8930   25.2060   42.2480 N   0  0  0  0  0  0  0  0  0  0  0  0
   37.1100   23.2460   41.6140 H   0  0  0  0  0  0  0  0  0  0  0  0
   39.5790   23.3150   41.4680 H   0  0  0  0  0  0  0  0  0  0  0  0
   41.0990   25.4170   42.0270 C   0  0  0  0  0  0  0  0  0  0  0  0
   41.5370   26.7330   41.9970 F   0  0  0  0  0  0  0  0  0  0  0  0
   41.4210   24.8940   40.7820 F   0  0  0  0  0  0  0  0  0  0  0  0
   41.7060   24.7570   43.0660 F   0  0  0  0  0  0  0  0  0  0  0  0
   37.9270   28.7800   42.8690 C   0  0  0  0  0  0  0  0  0  0  0  0
   38.8900   28.3140   42.5560 H   0  0  0  0  0  0  0  0  0  0  0  0
   38.0790   29.1980   43.8620 H   0  0  0  0  0  0  0  0  0  0  0  0
   37.4540   29.7850   41.8960 C   0  0  0  0  0  0  0  0  0  0  0  0
   36.2960   29.8260   41.1700 C   0  0  0  0  0  0  0  0  0  0  0  0
   36.3450   30.9730   40.4140 C   0  0  0  0  0  0  0  0  0  0  0  0
   37.4940   31.6000   40.6770 N   0  0  0  0  0  0  0  0  0  0  0  0
   38.1510   30.8690   41.5740 N   0  0  0  0  0  0  0  0  0  0  0  0
   35.5110   29.0770   41.2110 H   0  0  0  0  0  0  0  0  0  0  0  0
   35.5590   31.2990   39.7180 H   0  0  0  0  0  0  0  0  0  0  0  0
   37.9790   32.8640   40.1040 C   0  0  0  0  0  0  0  0  0  0  0  0
   38.6190   33.6180   41.0960 F   0  0  0  0  0  0  0  0  0  0  0  0
   36.9560   33.5320   39.5040 F   0  0  0  0  0  0  0  0  0  0  0  0
   38.9400   32.5690   39.1550 F   0  0  0  0  0  0  0  0  0  0  0  0
  1  2  1  0  0  0  0
  3  1  1  0  0  0  0
  4  9  1  0  0  0  0
  5  4  2  0  0  0  0
  5  6  1  0  0  0  0
  6  7  2  0  0  0  0
  7  8  1  0  0  0  0
  8  1  1  0  0  0  0
  9  8  2  0  0  0  0
 10  4  1  0  0  0  0
 11  5  1  0  0  0  0
 12  6  1  0  0  0  0
 12 15  1  0  0  0  0
 13 12  1  0  0  0  0
 14 12  1  0  0  0  0
 16  1  1  0  0  0  0
 16 18  1  0  0  0  0
 17 16  1  0  0  0  0
 19 16  1  0  0  0  0
 20 24  1  0  0  0  0
 20 19  1  0  0  0  0
 21 22  1  0  0  0  0
 21 20  2  0  0  0  0
 22 23  1  0  0  0  0
 23 19  2  0  0  0  0
 25 21  1  0  0  0  0
 26 22  1  0  0  0  0
 26 27  1  0  0  0  0
 28 26  1  0  0  0  0
 29 26  1  0  0  0  0
M  END
>  <minimizedAffinity>
-5.05772018

$$$$
