REMARK  Name = 
REMARK  4 active torsions:
REMARK  status: ('A' for Active; 'I' for Inactive)
REMARK    1  A    between atoms: C_3  and  C_10
REMARK    2  A    between atoms: C_4  and  C_15
REMARK    3  A    between atoms: C_14  and  S_20
REMARK    4  A    between atoms: S_20  and  C_33
REMARK                            x       y       z     vdW  Elec       q    Type
REMARK                         _______ _______ _______ _____ _____    ______ ____
ROOT
ATOM      1 CL   UNL     1      45.284  35.295  43.114  0.00  0.00    +0.000 Cl
ATOM      2  C   UNL     1      45.164  34.544  41.552  0.00  0.00    +0.000 A 
ATOM      3  C   UNL     1      46.277  34.161  40.880  0.00  0.00    +0.000 A 
ATOM      4  C   UNL     1      46.070  33.559  39.646  0.00  0.00    +0.000 A 
ATOM      5  C   UNL     1      44.817  33.359  39.126  0.00  0.00    +0.000 A 
ATOM      6  C   UNL     1      43.720  33.752  39.820  0.00  0.00    +0.000 A 
ATOM      7  C   UNL     1      43.907  34.351  41.047  0.00  0.00    +0.000 A 
ATOM      8  H   UNL     1      44.682  32.882  38.148  0.00  0.00    +0.000 HD
ATOM      9  H   UNL     1      42.717  33.606  39.433  0.00  0.00    +0.000 HD
ATOM     10  H   UNL     1      43.022  34.657  41.585  0.00  0.00    +0.000 HD
ENDROOT
BRANCH   4  12
ATOM     11  C   UNL     1      47.788  31.878  38.995  0.00  0.00    +0.000 A 
ATOM     12  C   UNL     1      47.229  33.115  38.879  0.00  0.00    +0.000 A 
ATOM     13  C   UNL     1      47.761  34.029  37.988  0.00  0.00    +0.000 A 
ATOM     14  C   UNL     1      48.851  33.677  37.226  0.00  0.00    +0.000 A 
ATOM     15  C   UNL     1      49.447  32.426  37.317  0.00  0.00    +0.000 A 
ATOM     16  C   UNL     1      48.888  31.533  38.222  0.00  0.00    +0.000 A 
ATOM     17  H   UNL     1      47.320  35.023  37.887  0.00  0.00    +0.000 HD
ATOM     18  H   UNL     1      49.222  34.429  36.549  0.00  0.00    +0.000 HD
ATOM     19  H   UNL     1      50.294  32.153  36.725  0.00  0.00    +0.000 HD
ATOM     20  H   UNL     1      49.360  30.566  38.283  0.00  0.00    +0.000 HD
BRANCH  11  21
ATOM     21  S   UNL     1      47.191  30.714  40.038  0.00  0.00    +0.000 S 
ATOM     22  O   UNL     1      46.833  29.457  39.242  0.00  0.00    +0.000 OA
ATOM     23  O   UNL     1      48.400  30.273  40.899  0.00  0.00    +0.000 OA
BRANCH  21  24
ATOM     24  C   UNL     1      45.914  30.694  41.102  0.00  0.00    +0.000 C 
ATOM     25  F   UNL     1      45.688  29.760  42.055  0.00  0.00    +0.000 F 
ATOM     26  F   UNL     1      44.768  30.397  40.340  0.00  0.00    +0.000 F 
ATOM     27  F   UNL     1      45.464  31.971  41.550  0.00  0.00    +0.000 F 
ENDBRANCH  21  24
ENDBRANCH  11  21
ENDBRANCH   4  12
BRANCH   3  30
ATOM     28  C   UNL     1      49.551  35.745  41.886  0.00  0.00    +0.000 A 
ATOM     29  C   UNL     1      48.290  35.550  41.309  0.00  0.00    +0.000 A 
ATOM     30  C   UNL     1      47.576  34.377  41.465  0.00  0.00    +0.000 A 
ATOM     31  N   UNL     1      48.189  33.431  42.219  0.00  0.00    +0.000 NA
ATOM     32  C   UNL     1      49.402  33.615  42.776  0.00  0.00    +0.000 A 
ATOM     33  N   UNL     1      50.069  34.762  42.607  0.00  0.00    +0.000 NA
ATOM     34  H   UNL     1      49.977  36.715  41.670  0.00  0.00    +0.000 HD
ATOM     35  H   UNL     1      47.812  36.315  40.708  0.00  0.00    +0.000 HD
ATOM     36  H   UNL     1      49.876  32.852  43.373  0.00  0.00    +0.000 HD
ENDBRANCH   3  30
TORSDOF 4
