
 OpenBabel03252509133D

 27 29  0  0  0  0  0  0  0  0999 V2000
   39.5100   30.4190   42.0970 C   0  0  0  0  0  0  0  0  0  0  0  0
   38.2700   29.9530   41.6640 C   0  0  0  0  0  0  0  0  0  0  0  0
   37.3820   30.7410   40.9500 C   0  0  0  0  0  0  0  0  0  0  0  0
   37.7420   32.0660   40.6470 C   0  0  0  0  0  0  0  0  0  0  0  0
   37.1590   33.0980   39.9870 N   0  0  0  0  0  0  0  0  0  0  0  0
   37.9980   34.1600   40.0080 C   0  0  0  0  0  0  0  0  0  0  0  0
   39.0840   33.7660   40.6790 N   0  0  0  0  0  0  0  0  0  0  0  0
   38.9710   32.4880   41.0890 C   0  0  0  0  0  0  0  0  0  0  0  0
   39.8670   31.7260   41.7970 C   0  0  0  0  0  0  0  0  0  0  0  0
   40.1280   29.7250   42.6460 H   0  0  0  0  0  0  0  0  0  0  0  0
   36.2100   33.0330   39.5510 H   0  0  0  0  0  0  0  0  0  0  0  0
   37.7090   35.0870   39.5290 H   0  0  0  0  0  0  0  0  0  0  0  0
   40.8180   32.0530   42.1410 H   0  0  0  0  0  0  0  0  0  0  0  0
   36.7320   27.0600   43.3220 C   0  0  0  0  0  0  0  0  0  0  0  0
   37.1350   26.0000   42.5310 C   0  0  0  0  0  0  0  0  0  0  0  0
   37.9420   26.2790   41.4200 C   0  0  0  0  0  0  0  0  0  0  0  0
   38.2870   27.5810   41.1790 N   0  0  0  0  0  0  0  0  0  0  0  0
   37.8780   28.5900   41.9690 C   0  0  0  0  0  0  0  0  0  0  0  0
   37.1030   28.3300   43.0360 N   0  0  0  0  0  0  0  0  0  0  0  0
   36.1120   26.9100   44.1890 H   0  0  0  0  0  0  0  0  0  0  0  0
   36.8000   25.0150   42.8170 H   0  0  0  0  0  0  0  0  0  0  0  0
   38.2460   25.4620   40.8180 H   0  0  0  0  0  0  0  0  0  0  0  0
   35.7980   30.1640   40.3880 S   0  0  0  0  0  0  0  0  0  0  0  0
   35.8710   29.1750   38.9010 C   0  0  0  0  0  0  0  0  0  0  0  0
   35.0100   29.5760   37.9050 F   0  0  0  0  0  0  0  0  0  0  0  0
   37.1860   29.1520   38.4760 F   0  0  0  0  0  0  0  0  0  0  0  0
   35.5240   27.8580   39.2210 F   0  0  0  0  0  0  0  0  0  0  0  0
  1 10  1  0  0  0  0
  2 18  1  0  0  0  0
  2  1  2  0  0  0  0
  3  2  1  0  0  0  0
  4  3  2  0  0  0  0
  4  8  1  0  0  0  0
  5  6  1  0  0  0  0
  5  4  1  0  0  0  0
  6  7  2  0  0  0  0
  7  8  1  0  0  0  0
  8  9  2  0  0  0  0
  9  1  1  0  0  0  0
  9 13  1  0  0  0  0
 11  5  1  0  0  0  0
 12  6  1  0  0  0  0
 14 20  1  0  0  0  0
 15 21  1  0  0  0  0
 15 14  2  0  0  0  0
 16 15  1  0  0  0  0
 17 16  2  0  0  0  0
 17 18  1  0  0  0  0
 18 19  2  0  0  0  0
 19 14  1  0  0  0  0
 22 16  1  0  0  0  0
 23  3  1  0  0  0  0
 24 27  1  0  0  0  0
 24 23  1  0  0  0  0
 25 24  1  0  0  0  0
 26 24  1  0  0  0  0
M  END
>  <minimizedAffinity>
-5.30614567

$$$$

 OpenBabel03252509133D

 27 29  0  0  0  0  0  0  0  0999 V2000
   40.1740   29.8550   42.2710 C   0  0  0  0  0  0  0  0  0  0  0  0
   39.2140   30.5290   41.5170 C   0  0  0  0  0  0  0  0  0  0  0  0
   37.8840   30.1420   41.4800 C   0  0  0  0  0  0  0  0  0  0  0  0
   37.4810   29.0250   42.2320 C   0  0  0  0  0  0  0  0  0  0  0  0
   36.3090   28.3740   42.4410 N   0  0  0  0  0  0  0  0  0  0  0  0
   36.5280   27.3410   43.2880 C   0  0  0  0  0  0  0  0  0  0  0  0
   37.8300   27.3710   43.5870 N   0  0  0  0  0  0  0  0  0  0  0  0
   38.4530   28.3880   42.9620 C   0  0  0  0  0  0  0  0  0  0  0  0
   39.7760   28.7520   43.0140 C   0  0  0  0  0  0  0  0  0  0  0  0
   41.1820   30.2370   42.2320 H   0  0  0  0  0  0  0  0  0  0  0  0
   35.4080   28.6640   41.9950 H   0  0  0  0  0  0  0  0  0  0  0  0
   35.7070   26.6970   43.5790 H   0  0  0  0  0  0  0  0  0  0  0  0
   40.5300   28.2590   43.5790 H   0  0  0  0  0  0  0  0  0  0  0  0
   39.7080   34.0030   40.4370 C   0  0  0  0  0  0  0  0  0  0  0  0
   40.3770   33.8620   39.2350 C   0  0  0  0  0  0  0  0  0  0  0  0
   40.6590   32.5640   38.7910 C   0  0  0  0  0  0  0  0  0  0  0  0
   40.2600   31.5100   39.5660 N   0  0  0  0  0  0  0  0  0  0  0  0
   39.6110   31.6820   40.7320 C   0  0  0  0  0  0  0  0  0  0  0  0
   39.3360   32.9240   41.1650 N   0  0  0  0  0  0  0  0  0  0  0  0
   39.4620   34.9740   40.8320 H   0  0  0  0  0  0  0  0  0  0  0  0
   40.6430   34.7650   38.7090 H   0  0  0  0  0  0  0  0  0  0  0  0
   41.1720   32.4630   37.8690 H   0  0  0  0  0  0  0  0  0  0  0  0
   36.6470   30.9900   40.5270 S   0  0  0  0  0  0  0  0  0  0  0  0
   36.7610   30.7030   38.7680 C   0  0  0  0  0  0  0  0  0  0  0  0
   35.6330   30.1530   38.2040 F   0  0  0  0  0  0  0  0  0  0  0  0
   37.1150   31.8970   38.1690 F   0  0  0  0  0  0  0  0  0  0  0  0
   37.8040   29.8020   38.5270 F   0  0  0  0  0  0  0  0  0  0  0  0
  1  9  1  0  0  0  0
  2  1  2  0  0  0  0
  3  2  1  0  0  0  0
  3  4  2  0  0  0  0
  4  5  1  0  0  0  0
  4  8  1  0  0  0  0
  5  6  1  0  0  0  0
  6 12  1  0  0  0  0
  6  7  2  0  0  0  0
  8  9  2  0  0  0  0
  8  7  1  0  0  0  0
  9 13  1  0  0  0  0
 10  1  1  0  0  0  0
 11  5  1  0  0  0  0
 14 20  1  0  0  0  0
 14 19  1  0  0  0  0
 15 14  2  0  0  0  0
 16 15  1  0  0  0  0
 16 17  2  0  0  0  0
 17 18  1  0  0  0  0
 18 19  2  0  0  0  0
 18  2  1  0  0  0  0
 21 15  1  0  0  0  0
 22 16  1  0  0  0  0
 23  3  1  0  0  0  0
 24 23  1  0  0  0  0
 25 24  1  0  0  0  0
 26 24  1  0  0  0  0
 27 24  1  0  0  0  0
M  END
>  <minimizedAffinity>
-5.24115992

$$$$

 OpenBabel03252509133D

 27 29  0  0  0  0  0  0  0  0999 V2000
   35.8140   28.8940   40.5120 C   0  0  0  0  0  0  0  0  0  0  0  0
   37.0140   28.2310   40.7660 C   0  0  0  0  0  0  0  0  0  0  0  0
   38.2200   28.8970   40.9160 C   0  0  0  0  0  0  0  0  0  0  0  0
   38.2400   30.2980   40.8100 C   0  0  0  0  0  0  0  0  0  0  0  0
   39.1920   31.2600   40.8980 N   0  0  0  0  0  0  0  0  0  0  0  0
   38.6130   32.4690   40.7090 C   0  0  0  0  0  0  0  0  0  0  0  0
   37.3130   32.2330   40.5070 N   0  0  0  0  0  0  0  0  0  0  0  0
   37.0390   30.9160   40.5610 C   0  0  0  0  0  0  0  0  0  0  0  0
   35.8330   30.2780   40.4080 C   0  0  0  0  0  0  0  0  0  0  0  0
   34.9300   28.2840   40.4130 H   0  0  0  0  0  0  0  0  0  0  0  0
   40.2000   31.0490   41.0840 H   0  0  0  0  0  0  0  0  0  0  0  0
   39.2150   33.3680   40.7440 H   0  0  0  0  0  0  0  0  0  0  0  0
   34.9030   30.7560   40.2150 H   0  0  0  0  0  0  0  0  0  0  0  0
   36.9500   24.8480   42.1900 C   0  0  0  0  0  0  0  0  0  0  0  0
   37.0100   24.0390   41.0700 C   0  0  0  0  0  0  0  0  0  0  0  0
   37.0750   24.6600   39.8160 C   0  0  0  0  0  0  0  0  0  0  0  0
   37.0750   26.0270   39.7660 N   0  0  0  0  0  0  0  0  0  0  0  0
   37.0150   26.7850   40.8760 C   0  0  0  0  0  0  0  0  0  0  0  0
   36.9530   26.1970   42.0830 N   0  0  0  0  0  0  0  0  0  0  0  0
   36.8990   24.4310   43.1810 H   0  0  0  0  0  0  0  0  0  0  0  0
   37.0030   22.9720   41.2290 H   0  0  0  0  0  0  0  0  0  0  0  0
   37.1200   24.0340   38.9610 H   0  0  0  0  0  0  0  0  0  0  0  0
   39.7580   28.0690   41.2420 S   0  0  0  0  0  0  0  0  0  0  0  0
   40.0330   27.7000   42.9680 C   0  0  0  0  0  0  0  0  0  0  0  0
   41.2330   28.1550   43.4660 F   0  0  0  0  0  0  0  0  0  0  0  0
   38.9540   28.1900   43.6800 F   0  0  0  0  0  0  0  0  0  0  0  0
   40.0340   26.3110   43.1360 F   0  0  0  0  0  0  0  0  0  0  0  0
  1  2  1  0  0  0  0
  2 18  1  0  0  0  0
  2  3  2  0  0  0  0
  3 23  1  0  0  0  0
  4  5  1  0  0  0  0
  4  3  1  0  0  0  0
  5 11  1  0  0  0  0
  6 12  1  0  0  0  0
  6  5  1  0  0  0  0
  7  8  1  0  0  0  0
  7  6  2  0  0  0  0
  8  4  2  0  0  0  0
  9  1  2  0  0  0  0
  9  8  1  0  0  0  0
 10  1  1  0  0  0  0
 13  9  1  0  0  0  0
 14 20  1  0  0  0  0
 15 21  1  0  0  0  0
 15 14  2  0  0  0  0
 16 15  1  0  0  0  0
 17 16  2  0  0  0  0
 17 18  1  0  0  0  0
 18 19  2  0  0  0  0
 19 14  1  0  0  0  0
 22 16  1  0  0  0  0
 23 24  1  0  0  0  0
 24 27  1  0  0  0  0
 24 25  1  0  0  0  0
 24 26  1  0  0  0  0
M  END
>  <minimizedAffinity>
-4.90336609

$$$$

 OpenBabel03252509133D

 27 29  0  0  0  0  0  0  0  0999 V2000
   38.8540   30.0310   42.7900 C   0  0  0  0  0  0  0  0  0  0  0  0
   38.8420   30.3450   41.4320 C   0  0  0  0  0  0  0  0  0  0  0  0
   38.4310   29.4480   40.4590 C   0  0  0  0  0  0  0  0  0  0  0  0
   38.0070   28.1670   40.8530 C   0  0  0  0  0  0  0  0  0  0  0  0
   37.5480   27.0630   40.2130 N   0  0  0  0  0  0  0  0  0  0  0  0
   37.2840   26.1030   41.1300 C   0  0  0  0  0  0  0  0  0  0  0  0
   37.5840   26.6300   42.3200 N   0  0  0  0  0  0  0  0  0  0  0  0
   38.0310   27.8950   42.1980 C   0  0  0  0  0  0  0  0  0  0  0  0
   38.4340   28.7660   43.1800 C   0  0  0  0  0  0  0  0  0  0  0  0
   39.1910   30.8000   43.4670 H   0  0  0  0  0  0  0  0  0  0  0  0
   37.4330   27.0120   39.1740 H   0  0  0  0  0  0  0  0  0  0  0  0
   36.9050   25.1400   40.8110 H   0  0  0  0  0  0  0  0  0  0  0  0
   38.4540   28.5560   44.2220 H   0  0  0  0  0  0  0  0  0  0  0  0
   40.9830   33.1130   40.3210 C   0  0  0  0  0  0  0  0  0  0  0  0
   40.0910   34.1600   40.1860 C   0  0  0  0  0  0  0  0  0  0  0  0
   38.7440   33.9160   40.4820 C   0  0  0  0  0  0  0  0  0  0  0  0
   38.3840   32.6590   40.8850 N   0  0  0  0  0  0  0  0  0  0  0  0
   39.2790   31.6610   41.0050 C   0  0  0  0  0  0  0  0  0  0  0  0
   40.5730   31.8880   40.7230 N   0  0  0  0  0  0  0  0  0  0  0  0
   42.0320   33.2380   40.1090 H   0  0  0  0  0  0  0  0  0  0  0  0
   40.4880   35.1090   39.8600 H   0  0  0  0  0  0  0  0  0  0  0  0
   38.0650   34.7230   40.3760 H   0  0  0  0  0  0  0  0  0  0  0  0
   38.4070   29.8320   38.7250 S   0  0  0  0  0  0  0  0  0  0  0  0
   36.9480   30.7180   38.1970 C   0  0  0  0  0  0  0  0  0  0  0  0
   36.3100   30.1700   37.1080 F   0  0  0  0  0  0  0  0  0  0  0  0
   36.1090   30.8350   39.2890 F   0  0  0  0  0  0  0  0  0  0  0  0
   37.3200   32.0150   37.8280 F   0  0  0  0  0  0  0  0  0  0  0  0
  1  9  1  0  0  0  0
  1 10  1  0  0  0  0
  2  1  2  0  0  0  0
  3  4  2  0  0  0  0
  3  2  1  0  0  0  0
  4  8  1  0  0  0  0
  5  4  1  0  0  0  0
  5  6  1  0  0  0  0
  6  7  2  0  0  0  0
  8  7  1  0  0  0  0
  8  9  2  0  0  0  0
  9 13  1  0  0  0  0
 11  5  1  0  0  0  0
 12  6  1  0  0  0  0
 14 19  1  0  0  0  0
 15 14  2  0  0  0  0
 15 16  1  0  0  0  0
 16 17  2  0  0  0  0
 17 18  1  0  0  0  0
 18  2  1  0  0  0  0
 19 18  2  0  0  0  0
 20 14  1  0  0  0  0
 21 15  1  0  0  0  0
 22 16  1  0  0  0  0
 23  3  1  0  0  0  0
 24 23  1  0  0  0  0
 24 26  1  0  0  0  0
 25 24  1  0  0  0  0
 27 24  1  0  0  0  0
M  END
>  <minimizedAffinity>
-4.87947226

$$$$

 OpenBabel03252509133D

 27 29  0  0  0  0  0  0  0  0999 V2000
   36.7980   30.2400   39.7110 C   0  0  0  0  0  0  0  0  0  0  0  0
   37.5870   29.8490   40.7910 C   0  0  0  0  0  0  0  0  0  0  0  0
   38.4630   30.7130   41.4290 C   0  0  0  0  0  0  0  0  0  0  0  0
   38.5620   32.0390   40.9730 C   0  0  0  0  0  0  0  0  0  0  0  0
   39.2770   33.1330   41.3340 N   0  0  0  0  0  0  0  0  0  0  0  0
   38.9480   34.1610   40.5170 C   0  0  0  0  0  0  0  0  0  0  0  0
   38.0350   33.6840   39.6650 N   0  0  0  0  0  0  0  0  0  0  0  0
   37.7680   32.3870   39.9090 C   0  0  0  0  0  0  0  0  0  0  0  0
   36.8940   31.5490   39.2600 C   0  0  0  0  0  0  0  0  0  0  0  0
   36.1480   29.4910   39.2840 H   0  0  0  0  0  0  0  0  0  0  0  0
   39.9610   33.1320   42.1250 H   0  0  0  0  0  0  0  0  0  0  0  0
   39.4170   35.1280   40.6480 H   0  0  0  0  0  0  0  0  0  0  0  0
   36.2790   31.8170   38.4350 H   0  0  0  0  0  0  0  0  0  0  0  0
   38.0040   26.2100   41.0380 C   0  0  0  0  0  0  0  0  0  0  0  0
   37.3400   25.9010   42.2110 C   0  0  0  0  0  0  0  0  0  0  0  0
   36.7430   26.9500   42.9220 C   0  0  0  0  0  0  0  0  0  0  0  0
   36.8480   28.2180   42.4200 N   0  0  0  0  0  0  0  0  0  0  0  0
   37.5020   28.4850   41.2750 C   0  0  0  0  0  0  0  0  0  0  0  0
   38.0780   27.4840   40.5870 N   0  0  0  0  0  0  0  0  0  0  0  0
   38.4830   25.4480   40.4470 H   0  0  0  0  0  0  0  0  0  0  0  0
   37.3230   24.8650   42.5100 H   0  0  0  0  0  0  0  0  0  0  0  0
   36.2360   26.7060   43.8200 H   0  0  0  0  0  0  0  0  0  0  0  0
   39.4750   30.2340   42.8080 S   0  0  0  0  0  0  0  0  0  0  0  0
   40.7610   29.0640   42.3950 C   0  0  0  0  0  0  0  0  0  0  0  0
   40.9860   28.9160   41.0450 F   0  0  0  0  0  0  0  0  0  0  0  0
   41.9030   29.4370   43.0760 F   0  0  0  0  0  0  0  0  0  0  0  0
   40.3920   27.8040   42.8760 F   0  0  0  0  0  0  0  0  0  0  0  0
  1  2  1  0  0  0  0
  2 18  1  0  0  0  0
  2  3  2  0  0  0  0
  3 23  1  0  0  0  0
  4  5  1  0  0  0  0
  4  3  1  0  0  0  0
  5 11  1  0  0  0  0
  6 12  1  0  0  0  0
  6  5  1  0  0  0  0
  7  8  1  0  0  0  0
  7  6  2  0  0  0  0
  8  4  2  0  0  0  0
  9  1  2  0  0  0  0
  9  8  1  0  0  0  0
 10  1  1  0  0  0  0
 13  9  1  0  0  0  0
 14 15  1  0  0  0  0
 15 21  1  0  0  0  0
 15 16  2  0  0  0  0
 16 22  1  0  0  0  0
 17 16  1  0  0  0  0
 18 17  2  0  0  0  0
 19 14  2  0  0  0  0
 19 18  1  0  0  0  0
 20 14  1  0  0  0  0
 24 23  1  0  0  0  0
 24 27  1  0  0  0  0
 24 26  1  0  0  0  0
 25 24  1  0  0  0  0
M  END
>  <minimizedAffinity>
-4.85516644

$$$$

 OpenBabel03252509133D

 27 29  0  0  0  0  0  0  0  0999 V2000
   36.9740   25.2380   41.3760 C   0  0  0  0  0  0  0  0  0  0  0  0
   37.3830   26.5250   41.0310 C   0  0  0  0  0  0  0  0  0  0  0  0
   38.6280   27.0310   41.3690 C   0  0  0  0  0  0  0  0  0  0  0  0
   39.5190   26.2170   42.0890 C   0  0  0  0  0  0  0  0  0  0  0  0
   40.7770   26.3590   42.5760 N   0  0  0  0  0  0  0  0  0  0  0  0
   41.1380   25.2110   43.1970 C   0  0  0  0  0  0  0  0  0  0  0  0
   40.0970   24.3800   43.0820 N   0  0  0  0  0  0  0  0  0  0  0  0
   39.0820   24.9560   42.4100 C   0  0  0  0  0  0  0  0  0  0  0  0
   37.8540   24.4320   42.0860 C   0  0  0  0  0  0  0  0  0  0  0  0
   35.9850   24.9390   41.0650 H   0  0  0  0  0  0  0  0  0  0  0  0
   41.3370   27.2350   42.4640 H   0  0  0  0  0  0  0  0  0  0  0  0
   42.1160   25.1270   43.6540 H   0  0  0  0  0  0  0  0  0  0  0  0
   37.5150   23.4560   42.3350 H   0  0  0  0  0  0  0  0  0  0  0  0
   35.4280   27.9780   38.2840 C   0  0  0  0  0  0  0  0  0  0  0  0
   34.7470   29.0120   38.9010 C   0  0  0  0  0  0  0  0  0  0  0  0
   34.9630   29.2130   40.2700 C   0  0  0  0  0  0  0  0  0  0  0  0
   35.8300   28.3790   40.9210 N   0  0  0  0  0  0  0  0  0  0  0  0
   36.4770   27.3820   40.2910 C   0  0  0  0  0  0  0  0  0  0  0  0
   36.2750   27.1830   38.9770 N   0  0  0  0  0  0  0  0  0  0  0  0
   35.3050   27.7730   37.2340 H   0  0  0  0  0  0  0  0  0  0  0  0
   34.0870   29.6040   38.2870 H   0  0  0  0  0  0  0  0  0  0  0  0
   34.4370   30.0060   40.7370 H   0  0  0  0  0  0  0  0  0  0  0  0
   39.1660   28.6680   40.9360 S   0  0  0  0  0  0  0  0  0  0  0  0
   39.2370   29.7990   42.3170 C   0  0  0  0  0  0  0  0  0  0  0  0
   40.4720   29.8920   42.9170 F   0  0  0  0  0  0  0  0  0  0  0  0
   38.7760   31.0260   41.8800 F   0  0  0  0  0  0  0  0  0  0  0  0
   38.3490   29.3590   43.3040 F   0  0  0  0  0  0  0  0  0  0  0  0
  1  9  1  0  0  0  0
  2  3  1  0  0  0  0
  2  1  2  0  0  0  0
  3  4  2  0  0  0  0
  4  8  1  0  0  0  0
  4  5  1  0  0  0  0
  5  6  1  0  0  0  0
  6 12  1  0  0  0  0
  7  6  2  0  0  0  0
  8  7  1  0  0  0  0
  9 13  1  0  0  0  0
  9  8  2  0  0  0  0
 10  1  1  0  0  0  0
 11  5  1  0  0  0  0
 14 15  2  0  0  0  0
 14 19  1  0  0  0  0
 15 16  1  0  0  0  0
 16 22  1  0  0  0  0
 16 17  2  0  0  0  0
 18 17  1  0  0  0  0
 18  2  1  0  0  0  0
 19 18  2  0  0  0  0
 20 14  1  0  0  0  0
 21 15  1  0  0  0  0
 23  3  1  0  0  0  0
 23 24  1  0  0  0  0
 24 25  1  0  0  0  0
 24 27  1  0  0  0  0
 26 24  1  0  0  0  0
M  END
>  <minimizedAffinity>
-4.84249067

$$$$

 OpenBabel03252509133D

 27 29  0  0  0  0  0  0  0  0999 V2000
   36.5680   26.4640   39.4250 C   0  0  0  0  0  0  0  0  0  0  0  0
   36.1880   27.8000   39.3130 C   0  0  0  0  0  0  0  0  0  0  0  0
   36.2490   28.6880   40.3760 C   0  0  0  0  0  0  0  0  0  0  0  0
   36.7130   28.2270   41.6190 C   0  0  0  0  0  0  0  0  0  0  0  0
   36.9090   28.7810   42.8420 N   0  0  0  0  0  0  0  0  0  0  0  0
   37.3920   27.8320   43.6790 C   0  0  0  0  0  0  0  0  0  0  0  0
   37.4850   26.7100   42.9600 N   0  0  0  0  0  0  0  0  0  0  0  0
   37.0790   26.9060   41.6910 C   0  0  0  0  0  0  0  0  0  0  0  0
   37.0280   26.0080   40.6530 C   0  0  0  0  0  0  0  0  0  0  0  0
   36.4840   25.8560   38.5380 H   0  0  0  0  0  0  0  0  0  0  0  0
   36.7050   29.7840   43.0530 H   0  0  0  0  0  0  0  0  0  0  0  0
   37.6150   28.0830   44.7090 H   0  0  0  0  0  0  0  0  0  0  0  0
   37.3110   24.9850   40.7070 H   0  0  0  0  0  0  0  0  0  0  0  0
   33.9320   28.7440   36.5740 C   0  0  0  0  0  0  0  0  0  0  0  0
   34.7970   29.2470   35.6190 C   0  0  0  0  0  0  0  0  0  0  0  0
   36.1660   29.2600   35.9170 C   0  0  0  0  0  0  0  0  0  0  0  0
   36.5720   28.7780   37.1310 N   0  0  0  0  0  0  0  0  0  0  0  0
   35.7030   28.2960   38.0380 C   0  0  0  0  0  0  0  0  0  0  0  0
   34.3890   28.2800   37.7600 N   0  0  0  0  0  0  0  0  0  0  0  0
   32.8700   28.7070   36.4040 H   0  0  0  0  0  0  0  0  0  0  0  0
   34.3640   29.6010   34.6970 H   0  0  0  0  0  0  0  0  0  0  0  0
   36.8230   29.6470   35.1810 H   0  0  0  0  0  0  0  0  0  0  0  0
   35.7700   30.3950   40.2510 S   0  0  0  0  0  0  0  0  0  0  0  0
   37.0450   31.4600   39.5930 C   0  0  0  0  0  0  0  0  0  0  0  0
   36.8870   31.7880   38.2660 F   0  0  0  0  0  0  0  0  0  0  0  0
   37.1160   32.5780   40.4010 F   0  0  0  0  0  0  0  0  0  0  0  0
   38.2760   30.8040   39.6960 F   0  0  0  0  0  0  0  0  0  0  0  0
  1  9  1  0  0  0  0
  2  1  2  0  0  0  0
  2  3  1  0  0  0  0
  3  4  2  0  0  0  0
  4  8  1  0  0  0  0
  4  5  1  0  0  0  0
  5 11  1  0  0  0  0
  5  6  1  0  0  0  0
  6 12  1  0  0  0  0
  7  6  2  0  0  0  0
  8  7  1  0  0  0  0
  9 13  1  0  0  0  0
  9  8  2  0  0  0  0
 10  1  1  0  0  0  0
 14 19  1  0  0  0  0
 15 16  1  0  0  0  0
 15 14  2  0  0  0  0
 16 17  2  0  0  0  0
 17 18  1  0  0  0  0
 18  2  1  0  0  0  0
 19 18  2  0  0  0  0
 20 14  1  0  0  0  0
 21 15  1  0  0  0  0
 22 16  1  0  0  0  0
 23  3  1  0  0  0  0
 24 27  1  0  0  0  0
 24 23  1  0  0  0  0
 24 26  1  0  0  0  0
 25 24  1  0  0  0  0
M  END
>  <minimizedAffinity>
-4.77020884

$$$$

 OpenBabel03252509133D

 27 29  0  0  0  0  0  0  0  0999 V2000
   37.4010   30.8000   36.9070 C   0  0  0  0  0  0  0  0  0  0  0  0
   37.0870   30.8500   38.2640 C   0  0  0  0  0  0  0  0  0  0  0  0
   36.1540   30.0090   38.8480 C   0  0  0  0  0  0  0  0  0  0  0  0
   35.4930   29.0650   38.0430 C   0  0  0  0  0  0  0  0  0  0  0  0
   34.5570   28.1060   38.2510 N   0  0  0  0  0  0  0  0  0  0  0  0
   34.2980   27.4850   37.0760 C   0  0  0  0  0  0  0  0  0  0  0  0
   35.0790   28.0710   36.1630 N   0  0  0  0  0  0  0  0  0  0  0  0
   35.8290   29.0450   36.7120 C   0  0  0  0  0  0  0  0  0  0  0  0
   36.7500   29.8670   36.1110 C   0  0  0  0  0  0  0  0  0  0  0  0
   38.1430   31.4980   36.5500 H   0  0  0  0  0  0  0  0  0  0  0  0
   34.1330   27.9160   39.1880 H   0  0  0  0  0  0  0  0  0  0  0  0
   33.5710   26.6830   37.0370 H   0  0  0  0  0  0  0  0  0  0  0  0
   37.0100   29.8530   35.0810 H   0  0  0  0  0  0  0  0  0  0  0  0
   37.8970   33.9770   40.0080 C   0  0  0  0  0  0  0  0  0  0  0  0
   39.0290   33.6460   40.7300 C   0  0  0  0  0  0  0  0  0  0  0  0
   39.5200   32.3390   40.6150 C   0  0  0  0  0  0  0  0  0  0  0  0
   38.8560   31.4640   39.8000 N   0  0  0  0  0  0  0  0  0  0  0  0
   37.7560   31.8200   39.1110 C   0  0  0  0  0  0  0  0  0  0  0  0
   37.2790   33.0710   39.2160 N   0  0  0  0  0  0  0  0  0  0  0  0
   37.4720   34.9650   40.0540 H   0  0  0  0  0  0  0  0  0  0  0  0
   39.4680   34.4180   41.3420 H   0  0  0  0  0  0  0  0  0  0  0  0
   40.3870   32.0910   41.1710 H   0  0  0  0  0  0  0  0  0  0  0  0
   35.7430   30.0560   40.5760 S   0  0  0  0  0  0  0  0  0  0  0  0
   36.8210   29.0720   41.6060 C   0  0  0  0  0  0  0  0  0  0  0  0
   37.5060   29.7850   42.5630 F   0  0  0  0  0  0  0  0  0  0  0  0
   36.0630   28.0560   42.1560 F   0  0  0  0  0  0  0  0  0  0  0  0
   37.7870   28.4660   40.7950 F   0  0  0  0  0  0  0  0  0  0  0  0
  1  2  1  0  0  0  0
  2  3  2  0  0  0  0
  2 18  1  0  0  0  0
  3 23  1  0  0  0  0
  4  5  1  0  0  0  0
  4  3  1  0  0  0  0
  5 11  1  0  0  0  0
  6  5  1  0  0  0  0
  7  8  1  0  0  0  0
  7  6  2  0  0  0  0
  8  4  2  0  0  0  0
  9  8  1  0  0  0  0
  9  1  2  0  0  0  0
 10  1  1  0  0  0  0
 12  6  1  0  0  0  0
 13  9  1  0  0  0  0
 14 20  1  0  0  0  0
 14 15  1  0  0  0  0
 15 21  1  0  0  0  0
 16 15  2  0  0  0  0
 16 22  1  0  0  0  0
 17 16  1  0  0  0  0
 18 19  1  0  0  0  0
 18 17  2  0  0  0  0
 19 14  2  0  0  0  0
 23 24  1  0  0  0  0
 24 26  1  0  0  0  0
 24 25  1  0  0  0  0
 27 24  1  0  0  0  0
M  END
>  <minimizedAffinity>
-4.76019287

$$$$

 OpenBabel03252509133D

 27 29  0  0  0  0  0  0  0  0999 V2000
   36.2210   26.8640   39.0990 C   0  0  0  0  0  0  0  0  0  0  0  0
   36.9660   27.8870   39.6830 C   0  0  0  0  0  0  0  0  0  0  0  0
   37.3100   29.0450   39.0030 C   0  0  0  0  0  0  0  0  0  0  0  0
   36.8930   29.1980   37.6700 C   0  0  0  0  0  0  0  0  0  0  0  0
   37.0290   30.1570   36.7200 N   0  0  0  0  0  0  0  0  0  0  0  0
   36.3970   29.7500   35.5930 C   0  0  0  0  0  0  0  0  0  0  0  0
   35.8810   28.5480   35.8670 N   0  0  0  0  0  0  0  0  0  0  0  0
   36.1610   28.1700   37.1290 C   0  0  0  0  0  0  0  0  0  0  0  0
   35.8080   27.0150   37.7820 C   0  0  0  0  0  0  0  0  0  0  0  0
   36.0060   26.0040   39.7140 H   0  0  0  0  0  0  0  0  0  0  0  0
   37.5490   31.0500   36.8810 H   0  0  0  0  0  0  0  0  0  0  0  0
   36.3930   30.3840   34.7160 H   0  0  0  0  0  0  0  0  0  0  0  0
   35.2420   26.2180   37.3650 H   0  0  0  0  0  0  0  0  0  0  0  0
   37.0290   28.0210   43.3510 C   0  0  0  0  0  0  0  0  0  0  0  0
   38.2580   27.4680   43.6610 C   0  0  0  0  0  0  0  0  0  0  0  0
   39.0730   27.0470   42.6010 C   0  0  0  0  0  0  0  0  0  0  0  0
   38.6110   27.2050   41.3230 N   0  0  0  0  0  0  0  0  0  0  0  0
   37.4080   27.7480   41.0570 C   0  0  0  0  0  0  0  0  0  0  0  0
   36.6210   28.1530   42.0680 N   0  0  0  0  0  0  0  0  0  0  0  0
   36.3580   28.3630   44.1210 H   0  0  0  0  0  0  0  0  0  0  0  0
   38.5170   27.3920   44.7050 H   0  0  0  0  0  0  0  0  0  0  0  0
   40.0130   26.6240   42.8450 H   0  0  0  0  0  0  0  0  0  0  0  0
   38.2560   30.3610   39.7310 S   0  0  0  0  0  0  0  0  0  0  0  0
   37.2720   31.7540   40.2640 C   0  0  0  0  0  0  0  0  0  0  0  0
   37.9670   32.7050   40.9770 F   0  0  0  0  0  0  0  0  0  0  0  0
   36.6580   32.2860   39.1460 F   0  0  0  0  0  0  0  0  0  0  0  0
   36.2560   31.2910   41.1050 F   0  0  0  0  0  0  0  0  0  0  0  0
  1  2  1  0  0  0  0
  1 10  1  0  0  0  0
  2 18  1  0  0  0  0
  3  2  2  0  0  0  0
  3 23  1  0  0  0  0
  4  3  1  0  0  0  0
  5 11  1  0  0  0  0
  5  4  1  0  0  0  0
  6  7  2  0  0  0  0
  6  5  1  0  0  0  0
  7  8  1  0  0  0  0
  8  4  2  0  0  0  0
  8  9  1  0  0  0  0
  9  1  2  0  0  0  0
 12  6  1  0  0  0  0
 13  9  1  0  0  0  0
 14 15  1  0  0  0  0
 14 20  1  0  0  0  0
 15 21  1  0  0  0  0
 16 22  1  0  0  0  0
 16 15  2  0  0  0  0
 17 16  1  0  0  0  0
 18 17  2  0  0  0  0
 18 19  1  0  0  0  0
 19 14  2  0  0  0  0
 23 24  1  0  0  0  0
 24 25  1  0  0  0  0
 24 27  1  0  0  0  0
 26 24  1  0  0  0  0
M  END
>  <minimizedAffinity>
-4.74686623

$$$$
