
 OpenBabel03252509073D

 36 38  0  0  0  0  0  0  0  0999 V2000
   45.3050   35.2890   43.1370 Cl  0  0  0  0  0  0  0  0  0  0  0  0
   45.1710   34.5440   41.5730 C   0  0  0  0  0  0  0  0  0  0  0  0
   46.2780   34.1590   40.8920 C   0  0  0  0  0  0  0  0  0  0  0  0
   46.0600   33.5630   39.6570 C   0  0  0  0  0  0  0  0  0  0  0  0
   44.8020   33.3710   39.1450 C   0  0  0  0  0  0  0  0  0  0  0  0
   43.7120   33.7660   39.8480 C   0  0  0  0  0  0  0  0  0  0  0  0
   43.9100   34.3590   41.0760 C   0  0  0  0  0  0  0  0  0  0  0  0
   44.6590   32.8990   38.1660 H   0  0  0  0  0  0  0  0  0  0  0  0
   42.7060   33.6260   39.4670 H   0  0  0  0  0  0  0  0  0  0  0  0
   43.0300   34.6670   41.6210 H   0  0  0  0  0  0  0  0  0  0  0  0
   47.6760   31.8360   38.8780 C   0  0  0  0  0  0  0  0  0  0  0  0
   47.2120   33.1170   38.8800 C   0  0  0  0  0  0  0  0  0  0  0  0
   47.8400   34.0780   38.1090 C   0  0  0  0  0  0  0  0  0  0  0  0
   48.9290   33.7280   37.3460 C   0  0  0  0  0  0  0  0  0  0  0  0
   49.4310   32.4330   37.3180 C   0  0  0  0  0  0  0  0  0  0  0  0
   48.7760   31.4930   38.1050 C   0  0  0  0  0  0  0  0  0  0  0  0
   47.4750   35.1070   38.1040 H   0  0  0  0  0  0  0  0  0  0  0  0
   49.3780   34.5170   36.7650 H   0  0  0  0  0  0  0  0  0  0  0  0
   50.2770   32.1610   36.7250 H   0  0  0  0  0  0  0  0  0  0  0  0
   49.1750   30.4930   38.0740 H   0  0  0  0  0  0  0  0  0  0  0  0
   46.9590   30.6170   39.7710 S   0  0  0  0  0  0  0  0  0  0  0  0
   47.6810   29.2960   39.4950 O   0  0  0  0  0  0  0  0  0  0  0  0
   47.3090   30.9270   41.2470 O   0  0  0  0  0  0  0  0  0  0  0  0
   45.4060   30.0280   39.8430 C   0  0  0  0  0  0  0  0  0  0  0  0
   45.0430   28.7300   39.7320 F   0  0  0  0  0  0  0  0  0  0  0  0
   44.7670   30.4540   38.6630 F   0  0  0  0  0  0  0  0  0  0  0  0
   44.5290   30.7080   40.7380 F   0  0  0  0  0  0  0  0  0  0  0  0
   49.5560   35.7320   41.9000 C   0  0  0  0  0  0  0  0  0  0  0  0
   48.2910   35.5450   41.3310 C   0  0  0  0  0  0  0  0  0  0  0  0
   47.5820   34.3670   41.4690 C   0  0  0  0  0  0  0  0  0  0  0  0
   48.2040   33.4070   42.1970 N   0  0  0  0  0  0  0  0  0  0  0  0
   49.4220   33.5830   42.7470 C   0  0  0  0  0  0  0  0  0  0  0  0
   50.0840   34.7360   42.5960 N   0  0  0  0  0  0  0  0  0  0  0  0
   49.9770   36.7080   41.7010 H   0  0  0  0  0  0  0  0  0  0  0  0
   47.8050   36.3210   40.7510 H   0  0  0  0  0  0  0  0  0  0  0  0
   49.9040   32.8090   43.3230 H   0  0  0  0  0  0  0  0  0  0  0  0
  2  1  1  0  0  0  0
  3 30  1  0  0  0  0
  3  2  2  0  0  0  0
  4  3  1  0  0  0  0
  5  4  2  0  0  0  0
  5  6  1  0  0  0  0
  6  7  2  0  0  0  0
  7  2  1  0  0  0  0
  7 10  1  0  0  0  0
  8  5  1  0  0  0  0
  9  6  1  0  0  0  0
 11 12  1  0  0  0  0
 11 21  1  0  0  0  0
 12  4  1  0  0  0  0
 13 12  2  0  0  0  0
 14 13  1  0  0  0  0
 15 14  2  0  0  0  0
 15 16  1  0  0  0  0
 16 11  2  0  0  0  0
 17 13  1  0  0  0  0
 18 14  1  0  0  0  0
 19 15  1  0  0  0  0
 20 16  1  0  0  0  0
 21 24  1  0  0  0  0
 21 23  2  0  0  0  0
 22 21  2  0  0  0  0
 24 27  1  0  0  0  0
 25 24  1  0  0  0  0
 26 24  1  0  0  0  0
 28 33  1  0  0  0  0
 29 30  1  0  0  0  0
 29 28  2  0  0  0  0
 30 31  2  0  0  0  0
 31 32  1  0  0  0  0
 32 36  1  0  0  0  0
 33 32  2  0  0  0  0
 34 28  1  0  0  0  0
 35 29  1  0  0  0  0
M  END
>  <minimizedAffinity>
-4.47308445

>  <minimizedRMSD>
0.904750228

$$$$
