
 OpenBabel03252508063D

 39 41  0  0  0  0  0  0  0  0999 V2000
   45.3150   36.1440   42.7520 C   0  0  0  0  0  0  0  0  0  0  0  0
   45.5080   34.7720   42.7390 C   0  0  0  0  0  0  0  0  0  0  0  0
   45.2410   34.0320   43.8640 C   0  0  0  0  0  0  0  0  0  0  0  0
   44.7830   34.7200   44.9720 N   0  0  0  0  0  0  0  0  0  0  0  0
   44.6010   36.0360   44.9770 C   0  0  0  0  0  0  0  0  0  0  0  0
   44.8710   36.7390   43.8570 N   0  0  0  0  0  0  0  0  0  0  0  0
   45.5280   36.7430   41.8550 H   0  0  0  0  0  0  0  0  0  0  0  0
   44.2400   36.5580   45.8560 H   0  0  0  0  0  0  0  0  0  0  0  0
   45.3860   32.6320   44.0140 C   0  0  0  0  0  0  0  0  0  0  0  0
   44.8650   31.6920   43.1190 C   0  0  0  0  0  0  0  0  0  0  0  0
   44.9440   30.3360   43.2950 C   0  0  0  0  0  0  0  0  0  0  0  0
   45.5670   29.8300   44.4120 C   0  0  0  0  0  0  0  0  0  0  0  0
   46.1040   30.7690   45.3350 C   0  0  0  0  0  0  0  0  0  0  0  0
   46.7230   30.2780   46.4550 C   0  0  0  0  0  0  0  0  0  0  0  0
   47.2650   31.1310   47.3920 C   0  0  0  0  0  0  0  0  0  0  0  0
   47.1810   32.5210   47.1900 C   0  0  0  0  0  0  0  0  0  0  0  0
   46.5350   32.9760   46.0260 C   0  0  0  0  0  0  0  0  0  0  0  0
   46.0040   32.1040   45.1170 C   0  0  0  0  0  0  0  0  0  0  0  0
   44.3680   32.0360   42.2280 H   0  0  0  0  0  0  0  0  0  0  0  0
   44.5320   29.6380   42.5840 H   0  0  0  0  0  0  0  0  0  0  0  0
   45.6660   28.7860   44.6200 H   0  0  0  0  0  0  0  0  0  0  0  0
   46.7840   29.1990   46.6010 H   0  0  0  0  0  0  0  0  0  0  0  0
   47.7440   30.6860   48.2650 H   0  0  0  0  0  0  0  0  0  0  0  0
   47.6290   33.0860   47.9670 H   0  0  0  0  0  0  0  0  0  0  0  0
   46.5920   34.0440   46.0410 H   0  0  0  0  0  0  0  0  0  0  0  0
   45.9610   34.2150   41.5770 O   0  0  0  0  0  0  0  0  0  0  0  0
   47.8520   32.4890   41.0290 O   0  0  0  0  0  0  0  0  0  0  0  0
   47.5930   33.9430   41.2110 P   0  0  1  0  0  0  0  0  0  0  0  0
   48.0240   34.7100   39.7660 O   0  0  0  0  0  0  0  0  0  0  0  0
   47.8290   33.8840   38.6650 C   0  0  0  0  0  0  0  0  0  0  0  0
   47.9950   34.6720   37.5330 F   0  0  0  0  0  0  0  0  0  0  0  0
   48.7210   32.8360   38.6330 F   0  0  0  0  0  0  0  0  0  0  0  0
   46.5090   33.4750   38.6950 F   0  0  0  0  0  0  0  0  0  0  0  0
   48.5240   34.5740   42.4550 O   0  0  0  0  0  0  0  0  0  0  0  0
   49.7230   35.2560   42.3300 C   0  0  0  0  0  0  0  0  0  0  0  0
   49.4040   36.3820   41.9110 O   0  0  0  0  0  0  0  0  0  0  0  0
   50.8330   34.4190   42.7210 N   0  0  0  0  0  0  0  0  0  0  0  0
   50.9310   34.2180   43.7520 H   0  0  0  0  0  0  0  0  0  0  0  0
   51.5760   33.9690   42.1170 H   0  0  0  0  0  0  0  0  0  0  0  0
  1  6  1  0  0  0  0
  2  1  2  0  0  0  0
  2  3  1  0  0  0  0
  3  9  1  0  0  0  0
  3  4  2  0  0  0  0
  4  5  1  0  0  0  0
  5  8  1  0  0  0  0
  6  5  2  0  0  0  0
  7  1  1  0  0  0  0
  9 18  1  0  0  0  0
 10 11  1  0  0  0  0
 10  9  2  0  0  0  0
 11 12  2  0  0  0  0
 12 21  1  0  0  0  0
 12 13  1  0  0  0  0
 13 14  1  0  0  0  0
 14 22  1  0  0  0  0
 14 15  2  0  0  0  0
 15 23  1  0  0  0  0
 16 15  1  0  0  0  0
 16 24  1  0  0  0  0
 17 25  1  0  0  0  0
 17 16  2  0  0  0  0
 18 13  2  0  0  0  0
 18 17  1  0  0  0  0
 19 10  1  0  0  0  0
 20 11  1  0  0  0  0
 26  2  1  0  0  0  0
 28 27  2  6  0  0  0
 28 26  1  0  0  0  0
 28 34  1  0  0  0  0
 29 28  1  0  0  0  0
 30 33  1  0  0  0  0
 30 29  1  0  0  0  0
 31 30  1  0  0  0  0
 32 30  1  0  0  0  0
 35 34  1  0  0  0  0
 35 37  1  0  0  0  0
 36 35  2  0  0  0  0
 37 38  1  0  0  0  0
 39 37  1  0  0  0  0
M  END
>  <minimizedAffinity>
-5.91460037

>  <minimizedRMSD>
0.448603928

$$$$
