
 OpenBabel03252506153D

 34 35  0  0  0  0  0  0  0  0999 V2000
   45.4840   33.4090   41.1760 F   0  0  0  0  0  0  0  0  0  0  0  0
   46.6000   34.1100   41.0870 C   0  0  0  0  0  0  0  0  0  0  0  0
   46.9730   34.8930   42.1680 C   0  0  0  0  0  0  0  0  0  0  0  0
   48.1380   35.6760   42.1830 C   0  0  0  0  0  0  0  0  0  0  0  0
   48.9690   35.6700   41.0520 C   0  0  0  0  0  0  0  0  0  0  0  0
   48.5560   34.8770   40.0010 C   0  0  0  0  0  0  0  0  0  0  0  0
   47.4380   34.1210   39.9770 C   0  0  0  0  0  0  0  0  0  0  0  0
   48.3710   36.2710   43.0750 H   0  0  0  0  0  0  0  0  0  0  0  0
   49.8540   36.2860   41.1070 H   0  0  0  0  0  0  0  0  0  0  0  0
   49.2950   34.9630   39.2010 H   0  0  0  0  0  0  0  0  0  0  0  0
   45.5290   33.9270   45.3990 C   0  0  0  0  0  0  0  0  0  0  0  0
   44.6170   34.9800   45.6420 C   0  0  0  0  0  0  0  0  0  0  0  0
   44.5080   36.0300   44.6760 C   0  0  0  0  0  0  0  0  0  0  0  0
   45.3040   35.9390   43.5680 N   0  0  0  0  0  0  0  0  0  0  0  0
   46.1430   34.9340   43.3800 C   0  0  0  0  0  0  0  0  0  0  0  0
   46.2580   33.9340   44.2870 N   0  0  0  0  0  0  0  0  0  0  0  0
   44.0080   35.0120   46.5330 H   0  0  0  0  0  0  0  0  0  0  0  0
   43.8240   36.8500   44.8270 H   0  0  0  0  0  0  0  0  0  0  0  0
   45.6130   32.9130   46.3660 N   0  0  0  0  0  0  0  0  0  0  0  0
   45.1800   31.9650   46.3790 H   0  0  0  0  0  0  0  0  0  0  0  0
   46.1800   33.0950   47.2080 H   0  0  0  0  0  0  0  0  0  0  0  0
   47.1330   33.3760   38.8770 O   0  0  0  0  0  0  0  0  0  0  0  0
   48.0210   34.7650   36.8060 O   0  0  0  0  0  0  0  0  0  0  0  0
   47.9290   33.3700   37.4030 P   0  0  0  0  0  0  0  0  0  0  0  0
   47.1100   32.3520   36.3140 O   0  0  0  0  0  0  0  0  0  0  0  0
   45.7420   32.5620   36.5010 C   0  0  0  0  0  0  0  0  0  0  0  0
   45.0420   32.2020   35.3480 F   0  0  0  0  0  0  0  0  0  0  0  0
   45.3120   31.7850   37.5750 F   0  0  0  0  0  0  0  0  0  0  0  0
   45.4190   33.8560   36.7850 F   0  0  0  0  0  0  0  0  0  0  0  0
   49.4930   32.7340   37.5030 O   0  0  0  0  0  0  0  0  0  0  0  0
   49.5010   31.5790   38.3190 C   0  0  0  0  0  0  0  0  0  0  0  0
   50.5480   30.8050   37.8060 F   0  0  0  0  0  0  0  0  0  0  0  0
   49.8370   31.9130   39.6140 F   0  0  0  0  0  0  0  0  0  0  0  0
   48.3130   30.9170   38.3490 F   0  0  0  0  0  0  0  0  0  0  0  0
  2  1  1  0  0  0  0
  2  3  1  0  0  0  0
  3  4  2  0  0  0  0
  3 15  1  0  0  0  0
  4  8  1  0  0  0  0
  5  9  1  0  0  0  0
  5  4  1  0  0  0  0
  6  5  2  0  0  0  0
  7  6  1  0  0  0  0
  7  2  2  0  0  0  0
 10  6  1  0  0  0  0
 11 12  1  0  0  0  0
 11 19  1  0  0  0  0
 12 17  1  0  0  0  0
 13 18  1  0  0  0  0
 13 12  2  0  0  0  0
 14 13  1  0  0  0  0
 15 14  2  0  0  0  0
 15 16  1  0  0  0  0
 16 11  2  0  0  0  0
 19 20  1  0  0  0  0
 19 21  1  0  0  0  0
 22  7  1  0  0  0  0
 23 24  2  0  0  0  0
 24 30  1  0  0  0  0
 24 22  1  0  0  0  0
 25 26  1  0  0  0  0
 25 24  1  0  0  0  0
 26 29  1  0  0  0  0
 26 28  1  0  0  0  0
 27 26  1  0  0  0  0
 30 31  1  0  0  0  0
 31 34  1  0  0  0  0
 31 33  1  0  0  0  0
 32 31  1  0  0  0  0
M  END
>  <minimizedAffinity>
-5.60279703

>  <minimizedRMSD>
1.65498972

$$$$
