
 OpenBabel03252506163D

 34 35  0  0  0  0  0  0  0  0999 V2000
   40.2250   29.5690   39.7500 F   0  0  0  0  0  0  0  0  0  0  0  0
   39.0530   29.7710   39.1750 C   0  0  0  0  0  0  0  0  0  0  0  0
   38.7560   31.0450   38.7180 C   0  0  0  0  0  0  0  0  0  0  0  0
   37.5440   31.3730   38.0910 C   0  0  0  0  0  0  0  0  0  0  0  0
   36.5820   30.3660   37.9160 C   0  0  0  0  0  0  0  0  0  0  0  0
   36.9220   29.1150   38.3870 C   0  0  0  0  0  0  0  0  0  0  0  0
   38.0850   28.7910   38.9910 C   0  0  0  0  0  0  0  0  0  0  0  0
   37.3770   32.4040   37.7540 H   0  0  0  0  0  0  0  0  0  0  0  0
   35.6650   30.6620   37.4290 H   0  0  0  0  0  0  0  0  0  0  0  0
   36.0910   28.4360   38.1780 H   0  0  0  0  0  0  0  0  0  0  0  0
   41.4160   33.4390   37.9120 C   0  0  0  0  0  0  0  0  0  0  0  0
   41.5420   34.1610   39.1220 C   0  0  0  0  0  0  0  0  0  0  0  0
   40.6950   33.8100   40.2200 C   0  0  0  0  0  0  0  0  0  0  0  0
   39.8110   32.7870   40.0200 N   0  0  0  0  0  0  0  0  0  0  0  0
   39.7280   32.1380   38.8710 C   0  0  0  0  0  0  0  0  0  0  0  0
   40.5230   32.4590   37.8220 N   0  0  0  0  0  0  0  0  0  0  0  0
   42.2550   34.9630   39.2350 H   0  0  0  0  0  0  0  0  0  0  0  0
   40.7620   34.3380   41.1590 H   0  0  0  0  0  0  0  0  0  0  0  0
   42.2610   33.8080   36.8530 N   0  0  0  0  0  0  0  0  0  0  0  0
   43.1490   33.3710   36.5250 H   0  0  0  0  0  0  0  0  0  0  0  0
   41.9990   34.6310   36.2900 H   0  0  0  0  0  0  0  0  0  0  0  0
   38.3070   27.5150   39.4170 O   0  0  0  0  0  0  0  0  0  0  0  0
   36.4380   25.7180   39.9500 O   0  0  0  0  0  0  0  0  0  0  0  0
   37.4470   26.6670   40.5780 P   0  0  0  0  0  0  0  0  0  0  0  0
   36.6260   27.7580   41.5930 O   0  0  0  0  0  0  0  0  0  0  0  0
   37.5520   28.2270   42.5280 C   0  0  0  0  0  0  0  0  0  0  0  0
   37.2790   29.5610   42.8390 F   0  0  0  0  0  0  0  0  0  0  0  0
   37.4610   27.4460   43.6790 F   0  0  0  0  0  0  0  0  0  0  0  0
   38.8450   28.1660   42.1010 F   0  0  0  0  0  0  0  0  0  0  0  0
   38.4420   25.7720   41.6110 O   0  0  0  0  0  0  0  0  0  0  0  0
   37.7990   24.5720   41.9940 C   0  0  0  0  0  0  0  0  0  0  0  0
   38.6040   24.0650   43.0200 F   0  0  0  0  0  0  0  0  0  0  0  0
   36.5640   24.8490   42.5440 F   0  0  0  0  0  0  0  0  0  0  0  0
   37.6160   23.6940   40.9730 F   0  0  0  0  0  0  0  0  0  0  0  0
  2  1  1  0  0  0  0
  3 15  1  0  0  0  0
  3  2  2  0  0  0  0
  4  3  1  0  0  0  0
  5  4  2  0  0  0  0
  5  6  1  0  0  0  0
  6  7  2  0  0  0  0
  7  2  1  0  0  0  0
  7 22  1  0  0  0  0
  8  4  1  0  0  0  0
  9  5  1  0  0  0  0
 10  6  1  0  0  0  0
 11 12  1  0  0  0  0
 12 17  1  0  0  0  0
 12 13  2  0  0  0  0
 13 18  1  0  0  0  0
 14 13  1  0  0  0  0
 15 14  2  0  0  0  0
 16 11  2  0  0  0  0
 16 15  1  0  0  0  0
 19 11  1  0  0  0  0
 20 19  1  0  0  0  0
 21 19  1  0  0  0  0
 22 24  1  0  0  0  0
 23 24  2  0  0  0  0
 24 25  1  0  0  0  0
 24 30  1  0  0  0  0
 25 26  1  0  0  0  0
 26 27  1  0  0  0  0
 26 28  1  0  0  0  0
 29 26  1  0  0  0  0
 30 31  1  0  0  0  0
 31 33  1  0  0  0  0
 31 32  1  0  0  0  0
 34 31  1  0  0  0  0
M  END
>  <minimizedAffinity>
-5.78998518

$$$$

 OpenBabel03252506163D

 34 35  0  0  0  0  0  0  0  0999 V2000
   40.2710   30.6220   39.2120 F   0  0  0  0  0  0  0  0  0  0  0  0
   39.2930   31.4850   39.4230 C   0  0  0  0  0  0  0  0  0  0  0  0
   39.6160   32.8260   39.5530 C   0  0  0  0  0  0  0  0  0  0  0  0
   38.6600   33.8290   39.7770 C   0  0  0  0  0  0  0  0  0  0  0  0
   37.3090   33.4610   39.8750 C   0  0  0  0  0  0  0  0  0  0  0  0
   37.0360   32.1150   39.7390 C   0  0  0  0  0  0  0  0  0  0  0  0
   37.9490   31.1450   39.5240 C   0  0  0  0  0  0  0  0  0  0  0  0
   38.9880   34.8710   39.8700 H   0  0  0  0  0  0  0  0  0  0  0  0
   36.6070   34.2640   40.0470 H   0  0  0  0  0  0  0  0  0  0  0  0
   35.9550   31.9780   39.8290 H   0  0  0  0  0  0  0  0  0  0  0  0
   42.8030   33.9050   38.0910 C   0  0  0  0  0  0  0  0  0  0  0  0
   43.6070   34.0920   39.2390 C   0  0  0  0  0  0  0  0  0  0  0  0
   43.0340   33.8420   40.5260 C   0  0  0  0  0  0  0  0  0  0  0  0
   41.7310   33.4330   40.5560 N   0  0  0  0  0  0  0  0  0  0  0  0
   41.0150   33.2690   39.4550 C   0  0  0  0  0  0  0  0  0  0  0  0
   41.5430   33.5030   38.2300 N   0  0  0  0  0  0  0  0  0  0  0  0
   44.6340   34.4180   39.1680 H   0  0  0  0  0  0  0  0  0  0  0  0
   43.6170   33.9750   41.4240 H   0  0  0  0  0  0  0  0  0  0  0  0
   43.3940   34.1590   36.8430 N   0  0  0  0  0  0  0  0  0  0  0  0
   43.7960   33.4950   36.1480 H   0  0  0  0  0  0  0  0  0  0  0  0
   43.4610   35.1400   36.5320 H   0  0  0  0  0  0  0  0  0  0  0  0
   37.5570   29.8440   39.4080 O   0  0  0  0  0  0  0  0  0  0  0  0
   36.8940   27.4620   40.3530 O   0  0  0  0  0  0  0  0  0  0  0  0
   36.6480   28.9560   40.4990 P   0  0  0  0  0  0  0  0  0  0  0  0
   34.9940   29.2740   40.2590 O   0  0  0  0  0  0  0  0  0  0  0  0
   34.6980   28.9460   38.9340 C   0  0  0  0  0  0  0  0  0  0  0  0
   33.3180   28.9960   38.7270 F   0  0  0  0  0  0  0  0  0  0  0  0
   35.3350   29.8570   38.0940 F   0  0  0  0  0  0  0  0  0  0  0  0
   35.1190   27.7010   38.5690 F   0  0  0  0  0  0  0  0  0  0  0  0
   36.9460   29.3850   42.1070 O   0  0  0  0  0  0  0  0  0  0  0  0
   38.1880   28.8590   42.5320 C   0  0  0  0  0  0  0  0  0  0  0  0
   38.5670   29.6900   43.5930 F   0  0  0  0  0  0  0  0  0  0  0  0
   38.0170   27.5910   43.0490 F   0  0  0  0  0  0  0  0  0  0  0  0
   39.1240   28.7890   41.5480 F   0  0  0  0  0  0  0  0  0  0  0  0
  1  2  1  0  0  0  0
  2  7  2  0  0  0  0
  2  3  1  0  0  0  0
  3  4  2  0  0  0  0
  4  8  1  0  0  0  0
  4  5  1  0  0  0  0
  5  9  1  0  0  0  0
  6 10  1  0  0  0  0
  6  5  2  0  0  0  0
  7  6  1  0  0  0  0
 11 16  2  0  0  0  0
 11 12  1  0  0  0  0
 12 13  2  0  0  0  0
 13 14  1  0  0  0  0
 13 18  1  0  0  0  0
 15  3  1  0  0  0  0
 15 14  2  0  0  0  0
 16 15  1  0  0  0  0
 17 12  1  0  0  0  0
 19 11  1  0  0  0  0
 20 19  1  0  0  0  0
 21 19  1  0  0  0  0
 22  7  1  0  0  0  0
 22 24  1  0  0  0  0
 23 24  2  0  0  0  0
 24 30  1  0  0  0  0
 25 24  1  0  0  0  0
 26 25  1  0  0  0  0
 27 26  1  0  0  0  0
 28 26  1  0  0  0  0
 29 26  1  0  0  0  0
 30 31  1  0  0  0  0
 31 33  1  0  0  0  0
 31 32  1  0  0  0  0
 34 31  1  0  0  0  0
M  END
>  <minimizedAffinity>
-5.77634001

$$$$

 OpenBabel03252506163D

 34 35  0  0  0  0  0  0  0  0999 V2000
   40.1290   30.3860   39.3340 F   0  0  0  0  0  0  0  0  0  0  0  0
   39.1500   31.2530   39.5210 C   0  0  0  0  0  0  0  0  0  0  0  0
   39.4610   32.6040   39.5300 C   0  0  0  0  0  0  0  0  0  0  0  0
   38.5020   33.6110   39.7180 C   0  0  0  0  0  0  0  0  0  0  0  0
   37.1610   33.2380   39.9060 C   0  0  0  0  0  0  0  0  0  0  0  0
   36.9010   31.8840   39.8890 C   0  0  0  0  0  0  0  0  0  0  0  0
   37.8170   30.9090   39.7100 C   0  0  0  0  0  0  0  0  0  0  0  0
   38.8200   34.6610   39.7140 H   0  0  0  0  0  0  0  0  0  0  0  0
   36.4580   34.0450   40.0460 H   0  0  0  0  0  0  0  0  0  0  0  0
   35.8270   31.7430   40.0380 H   0  0  0  0  0  0  0  0  0  0  0  0
   42.5000   33.8010   37.8610 C   0  0  0  0  0  0  0  0  0  0  0  0
   43.4150   33.8870   38.9370 C   0  0  0  0  0  0  0  0  0  0  0  0
   42.9670   33.5270   40.2470 C   0  0  0  0  0  0  0  0  0  0  0  0
   41.6690   33.1180   40.3690 N   0  0  0  0  0  0  0  0  0  0  0  0
   40.8470   33.0520   39.3340 C   0  0  0  0  0  0  0  0  0  0  0  0
   41.2560   33.3890   38.0880 N   0  0  0  0  0  0  0  0  0  0  0  0
   44.4330   34.2160   38.7940 H   0  0  0  0  0  0  0  0  0  0  0  0
   43.6350   33.5810   41.0920 H   0  0  0  0  0  0  0  0  0  0  0  0
   42.9690   34.1610   36.5880 N   0  0  0  0  0  0  0  0  0  0  0  0
   43.2950   33.5590   35.8020 H   0  0  0  0  0  0  0  0  0  0  0  0
   43.0150   35.1650   36.3570 H   0  0  0  0  0  0  0  0  0  0  0  0
   37.4380   29.5990   39.7140 O   0  0  0  0  0  0  0  0  0  0  0  0
   35.0670   28.9130   40.6690 O   0  0  0  0  0  0  0  0  0  0  0  0
   36.5650   28.7980   40.8980 P   0  0  0  0  0  0  0  0  0  0  0  0
   36.9460   29.4430   42.4250 O   0  0  0  0  0  0  0  0  0  0  0  0
   38.2300   29.0020   42.7520 C   0  0  0  0  0  0  0  0  0  0  0  0
   38.9610   30.0450   43.3240 F   0  0  0  0  0  0  0  0  0  0  0  0
   38.1250   27.9480   43.6580 F   0  0  0  0  0  0  0  0  0  0  0  0
   38.9420   28.5450   41.6840 F   0  0  0  0  0  0  0  0  0  0  0  0
   36.9580   27.1560   41.0080 O   0  0  0  0  0  0  0  0  0  0  0  0
   37.0260   26.5820   39.7170 C   0  0  0  0  0  0  0  0  0  0  0  0
   38.3450   26.8140   39.3090 F   0  0  0  0  0  0  0  0  0  0  0  0
   36.8570   25.2150   39.7950 F   0  0  0  0  0  0  0  0  0  0  0  0
   36.1040   27.0710   38.8460 F   0  0  0  0  0  0  0  0  0  0  0  0
  1  2  1  0  0  0  0
  2  3  2  0  0  0  0
  2  7  1  0  0  0  0
  3  4  1  0  0  0  0
  4  5  2  0  0  0  0
  5  9  1  0  0  0  0
  6  5  1  0  0  0  0
  6 10  1  0  0  0  0
  7 22  1  0  0  0  0
  7  6  2  0  0  0  0
  8  4  1  0  0  0  0
 11 16  2  0  0  0  0
 11 12  1  0  0  0  0
 12 13  2  0  0  0  0
 13 14  1  0  0  0  0
 13 18  1  0  0  0  0
 15  3  1  0  0  0  0
 15 14  2  0  0  0  0
 16 15  1  0  0  0  0
 17 12  1  0  0  0  0
 19 11  1  0  0  0  0
 20 19  1  0  0  0  0
 21 19  1  0  0  0  0
 22 24  1  0  0  0  0
 23 24  2  0  0  0  0
 24 30  1  0  0  0  0
 24 25  1  0  0  0  0
 25 26  1  0  0  0  0
 26 27  1  0  0  0  0
 26 28  1  0  0  0  0
 29 26  1  0  0  0  0
 31 33  1  0  0  0  0
 31 30  1  0  0  0  0
 32 31  1  0  0  0  0
 34 31  1  0  0  0  0
M  END
>  <minimizedAffinity>
-5.6482296

$$$$

 OpenBabel03252506163D

 34 35  0  0  0  0  0  0  0  0999 V2000
   39.5380   27.8210   40.2590 F   0  0  0  0  0  0  0  0  0  0  0  0
   38.6080   27.7940   41.1970 C   0  0  0  0  0  0  0  0  0  0  0  0
   39.0080   27.6330   42.5150 C   0  0  0  0  0  0  0  0  0  0  0  0
   38.1080   27.5930   43.5910 C   0  0  0  0  0  0  0  0  0  0  0  0
   36.7360   27.7200   43.3260 C   0  0  0  0  0  0  0  0  0  0  0  0
   36.3860   27.8780   42.0010 C   0  0  0  0  0  0  0  0  0  0  0  0
   37.2440   27.9180   40.9600 C   0  0  0  0  0  0  0  0  0  0  0  0
   38.4970   27.4630   44.6080 H   0  0  0  0  0  0  0  0  0  0  0  0
   36.0800   27.6840   44.1830 H   0  0  0  0  0  0  0  0  0  0  0  0
   35.2980   27.9720   41.9470 H   0  0  0  0  0  0  0  0  0  0  0  0
   42.2460   26.0860   43.2760 C   0  0  0  0  0  0  0  0  0  0  0  0
   43.0750   27.2160   43.4710 C   0  0  0  0  0  0  0  0  0  0  0  0
   42.5010   28.5190   43.3350 C   0  0  0  0  0  0  0  0  0  0  0  0
   41.1720   28.5820   43.0220 N   0  0  0  0  0  0  0  0  0  0  0  0
   40.4330   27.4990   42.8500 C   0  0  0  0  0  0  0  0  0  0  0  0
   40.9620   26.2590   42.9750 N   0  0  0  0  0  0  0  0  0  0  0  0
   44.1220   27.1180   43.7160 H   0  0  0  0  0  0  0  0  0  0  0  0
   43.1020   29.4030   43.4760 H   0  0  0  0  0  0  0  0  0  0  0  0
   42.8390   24.8220   43.4160 N   0  0  0  0  0  0  0  0  0  0  0  0
   42.8230   24.1630   44.2230 H   0  0  0  0  0  0  0  0  0  0  0  0
   43.3830   24.4530   42.6210 H   0  0  0  0  0  0  0  0  0  0  0  0
   36.7780   28.0770   39.6890 O   0  0  0  0  0  0  0  0  0  0  0  0
   37.8860   29.7960   38.0090 O   0  0  0  0  0  0  0  0  0  0  0  0
   36.6390   29.5090   38.8300 P   0  0  0  0  0  0  0  0  0  0  0  0
   36.3740   30.7990   39.9070 O   0  0  0  0  0  0  0  0  0  0  0  0
   37.4800   31.6470   39.8180 C   0  0  0  0  0  0  0  0  0  0  0  0
   37.5270   32.2360   38.5530 F   0  0  0  0  0  0  0  0  0  0  0  0
   37.3680   32.6340   40.7950 F   0  0  0  0  0  0  0  0  0  0  0  0
   38.6720   31.0170   40.0170 F   0  0  0  0  0  0  0  0  0  0  0  0
   35.3060   29.5270   37.7910 O   0  0  0  0  0  0  0  0  0  0  0  0
   34.2190   28.8370   38.3760 C   0  0  0  0  0  0  0  0  0  0  0  0
   33.1090   29.2540   37.6330 F   0  0  0  0  0  0  0  0  0  0  0  0
   34.3550   27.4780   38.1790 F   0  0  0  0  0  0  0  0  0  0  0  0
   34.0810   29.0570   39.7110 F   0  0  0  0  0  0  0  0  0  0  0  0
  1  2  1  0  0  0  0
  2  3  1  0  0  0  0
  3 15  1  0  0  0  0
  3  4  2  0  0  0  0
  4  8  1  0  0  0  0
  5  4  1  0  0  0  0
  5  9  1  0  0  0  0
  6  5  2  0  0  0  0
  7  2  2  0  0  0  0
  7  6  1  0  0  0  0
 10  6  1  0  0  0  0
 11 19  1  0  0  0  0
 11 12  1  0  0  0  0
 12 17  1  0  0  0  0
 13 12  2  0  0  0  0
 13 18  1  0  0  0  0
 14 13  1  0  0  0  0
 15 16  1  0  0  0  0
 15 14  2  0  0  0  0
 16 11  2  0  0  0  0
 19 20  1  0  0  0  0
 21 19  1  0  0  0  0
 22  7  1  0  0  0  0
 23 24  2  0  0  0  0
 24 22  1  0  0  0  0
 24 25  1  0  0  0  0
 26 25  1  0  0  0  0
 26 29  1  0  0  0  0
 26 28  1  0  0  0  0
 27 26  1  0  0  0  0
 30 31  1  0  0  0  0
 30 24  1  0  0  0  0
 31 34  1  0  0  0  0
 32 31  1  0  0  0  0
 33 31  1  0  0  0  0
M  END
>  <minimizedAffinity>
-5.60578823

$$$$

 OpenBabel03252506163D

 34 35  0  0  0  0  0  0  0  0999 V2000
   40.1550   29.3260   38.8880 F   0  0  0  0  0  0  0  0  0  0  0  0
   39.1430   30.1450   39.1110 C   0  0  0  0  0  0  0  0  0  0  0  0
   39.4010   31.5050   39.1790 C   0  0  0  0  0  0  0  0  0  0  0  0
   38.4040   32.4650   39.4090 C   0  0  0  0  0  0  0  0  0  0  0  0
   37.0790   32.0330   39.5800 C   0  0  0  0  0  0  0  0  0  0  0  0
   36.8710   30.6710   39.5050 C   0  0  0  0  0  0  0  0  0  0  0  0
   37.8240   29.7410   39.2850 C   0  0  0  0  0  0  0  0  0  0  0  0
   38.6810   33.5250   39.4500 H   0  0  0  0  0  0  0  0  0  0  0  0
   36.3440   32.8050   39.7550 H   0  0  0  0  0  0  0  0  0  0  0  0
   35.8040   30.4820   39.6480 H   0  0  0  0  0  0  0  0  0  0  0  0
   42.2570   33.3080   37.7470 C   0  0  0  0  0  0  0  0  0  0  0  0
   43.2970   32.9770   38.6470 C   0  0  0  0  0  0  0  0  0  0  0  0
   42.9990   32.1230   39.7560 C   0  0  0  0  0  0  0  0  0  0  0  0
   41.7110   31.6800   39.8690 N   0  0  0  0  0  0  0  0  0  0  0  0
   40.7690   32.0140   39.0020 C   0  0  0  0  0  0  0  0  0  0  0  0
   41.0360   32.8220   37.9490 N   0  0  0  0  0  0  0  0  0  0  0  0
   44.3020   33.3510   38.5190 H   0  0  0  0  0  0  0  0  0  0  0  0
   43.7660   31.8490   40.4630 H   0  0  0  0  0  0  0  0  0  0  0  0
   42.5820   34.1480   36.6710 N   0  0  0  0  0  0  0  0  0  0  0  0
   42.7880   33.9090   35.6780 H   0  0  0  0  0  0  0  0  0  0  0  0
   42.6350   35.1620   36.8490 H   0  0  0  0  0  0  0  0  0  0  0  0
   37.4970   28.4180   39.2320 O   0  0  0  0  0  0  0  0  0  0  0  0
   39.1700   26.4610   39.8420 O   0  0  0  0  0  0  0  0  0  0  0  0
   37.9400   27.2190   40.3150 P   0  0  0  0  0  0  0  0  0  0  0  0
   36.6530   26.1230   40.5140 O   0  0  0  0  0  0  0  0  0  0  0  0
   37.2090   24.8960   40.8830 C   0  0  0  0  0  0  0  0  0  0  0  0
   36.2400   24.1010   41.4980 F   0  0  0  0  0  0  0  0  0  0  0  0
   37.6860   24.2580   39.7400 F   0  0  0  0  0  0  0  0  0  0  0  0
   38.2550   25.0060   41.7500 F   0  0  0  0  0  0  0  0  0  0  0  0
   38.2500   27.8150   41.8660 O   0  0  0  0  0  0  0  0  0  0  0  0
   37.0380   28.1520   42.5130 C   0  0  0  0  0  0  0  0  0  0  0  0
   36.8280   27.1030   43.4150 F   0  0  0  0  0  0  0  0  0  0  0  0
   37.1990   29.3030   43.2560 F   0  0  0  0  0  0  0  0  0  0  0  0
   35.9940   28.3430   41.6630 F   0  0  0  0  0  0  0  0  0  0  0  0
  1  2  1  0  0  0  0
  2  3  2  0  0  0  0
  2  7  1  0  0  0  0
  3  4  1  0  0  0  0
  4  8  1  0  0  0  0
  4  5  2  0  0  0  0
  5  9  1  0  0  0  0
  6  5  1  0  0  0  0
  6 10  1  0  0  0  0
  7  6  2  0  0  0  0
 11 16  2  0  0  0  0
 11 12  1  0  0  0  0
 12 13  2  0  0  0  0
 13 14  1  0  0  0  0
 13 18  1  0  0  0  0
 15  3  1  0  0  0  0
 15 14  2  0  0  0  0
 16 15  1  0  0  0  0
 17 12  1  0  0  0  0
 19 21  1  0  0  0  0
 19 11  1  0  0  0  0
 20 19  1  0  0  0  0
 22  7  1  0  0  0  0
 22 24  1  0  0  0  0
 23 24  2  0  0  0  0
 24 25  1  0  0  0  0
 24 30  1  0  0  0  0
 25 26  1  0  0  0  0
 26 27  1  0  0  0  0
 26 29  1  0  0  0  0
 28 26  1  0  0  0  0
 30 31  1  0  0  0  0
 31 33  1  0  0  0  0
 31 32  1  0  0  0  0
 34 31  1  0  0  0  0
M  END
>  <minimizedAffinity>
-5.58640623

$$$$

 OpenBabel03252506163D

 34 35  0  0  0  0  0  0  0  0999 V2000
   37.6930   28.7390   39.5970 F   0  0  0  0  0  0  0  0  0  0  0  0
   37.6440   28.4440   40.8840 C   0  0  0  0  0  0  0  0  0  0  0  0
   38.0020   29.4230   41.7970 C   0  0  0  0  0  0  0  0  0  0  0  0
   37.9860   29.2200   43.1860 C   0  0  0  0  0  0  0  0  0  0  0  0
   37.5880   27.9680   43.6790 C   0  0  0  0  0  0  0  0  0  0  0  0
   37.2410   27.0260   42.7330 C   0  0  0  0  0  0  0  0  0  0  0  0
   37.2540   27.2120   41.3960 C   0  0  0  0  0  0  0  0  0  0  0  0
   38.2830   30.0410   43.8500 H   0  0  0  0  0  0  0  0  0  0  0  0
   37.5900   27.8560   44.7540 H   0  0  0  0  0  0  0  0  0  0  0  0
   36.9480   26.1120   43.2560 H   0  0  0  0  0  0  0  0  0  0  0  0
   37.8340   32.7870   40.3450 C   0  0  0  0  0  0  0  0  0  0  0  0
   39.1710   33.2320   40.4720 C   0  0  0  0  0  0  0  0  0  0  0  0
   40.1320   32.3540   41.0670 C   0  0  0  0  0  0  0  0  0  0  0  0
   39.6840   31.1290   41.4760 N   0  0  0  0  0  0  0  0  0  0  0  0
   38.4230   30.7540   41.3370 C   0  0  0  0  0  0  0  0  0  0  0  0
   37.5030   31.5740   40.7760 N   0  0  0  0  0  0  0  0  0  0  0  0
   39.4810   34.2090   40.1350 H   0  0  0  0  0  0  0  0  0  0  0  0
   41.1600   32.6580   41.1810 H   0  0  0  0  0  0  0  0  0  0  0  0
   36.9170   33.6710   39.7570 N   0  0  0  0  0  0  0  0  0  0  0  0
   36.5500   33.7020   38.7820 H   0  0  0  0  0  0  0  0  0  0  0  0
   36.5210   34.4200   40.3470 H   0  0  0  0  0  0  0  0  0  0  0  0
   36.8890   26.2010   40.5570 O   0  0  0  0  0  0  0  0  0  0  0  0
   39.3010   25.8400   39.5280 O   0  0  0  0  0  0  0  0  0  0  0  0
   37.8360   25.4550   39.3930 P   0  0  0  0  0  0  0  0  0  0  0  0
   37.2860   25.8900   37.8430 O   0  0  0  0  0  0  0  0  0  0  0  0
   35.8910   25.9210   37.8930 C   0  0  0  0  0  0  0  0  0  0  0  0
   35.4610   27.1240   38.4550 F   0  0  0  0  0  0  0  0  0  0  0  0
   35.3940   25.8010   36.5960 F   0  0  0  0  0  0  0  0  0  0  0  0
   35.3450   24.9100   38.6280 F   0  0  0  0  0  0  0  0  0  0  0  0
   37.7270   23.7690   39.4380 O   0  0  0  0  0  0  0  0  0  0  0  0
   37.4600   23.3300   40.7560 C   0  0  0  0  0  0  0  0  0  0  0  0
   37.6480   21.9440   40.7000 F   0  0  0  0  0  0  0  0  0  0  0  0
   38.4040   23.8350   41.6260 F   0  0  0  0  0  0  0  0  0  0  0  0
   36.2310   23.6840   41.2170 F   0  0  0  0  0  0  0  0  0  0  0  0
  1  2  1  0  0  0  0
  2  7  2  0  0  0  0
  2  3  1  0  0  0  0
  3  4  2  0  0  0  0
  4  5  1  0  0  0  0
  4  8  1  0  0  0  0
  5  9  1  0  0  0  0
  6 10  1  0  0  0  0
  6  5  2  0  0  0  0
  7  6  1  0  0  0  0
 11 12  2  0  0  0  0
 11 16  1  0  0  0  0
 12 13  1  0  0  0  0
 13 18  1  0  0  0  0
 13 14  2  0  0  0  0
 15 14  1  0  0  0  0
 15  3  1  0  0  0  0
 16 15  2  0  0  0  0
 17 12  1  0  0  0  0
 19 11  1  0  0  0  0
 19 21  1  0  0  0  0
 20 19  1  0  0  0  0
 22  7  1  0  0  0  0
 24 30  1  0  0  0  0
 24 23  2  0  0  0  0
 24 22  1  0  0  0  0
 25 26  1  0  0  0  0
 25 24  1  0  0  0  0
 26 27  1  0  0  0  0
 26 29  1  0  0  0  0
 28 26  1  0  0  0  0
 30 31  1  0  0  0  0
 31 34  1  0  0  0  0
 31 33  1  0  0  0  0
 32 31  1  0  0  0  0
M  END
>  <minimizedAffinity>
-5.51361322

$$$$

 OpenBabel03252506163D

 34 35  0  0  0  0  0  0  0  0999 V2000
   39.9350   29.1560   41.6650 F   0  0  0  0  0  0  0  0  0  0  0  0
   38.6270   29.0700   41.5010 C   0  0  0  0  0  0  0  0  0  0  0  0
   37.9870   30.0700   40.7860 C   0  0  0  0  0  0  0  0  0  0  0  0
   36.6040   30.0790   40.5480 C   0  0  0  0  0  0  0  0  0  0  0  0
   35.8260   29.0270   41.0570 C   0  0  0  0  0  0  0  0  0  0  0  0
   36.5060   28.0560   41.7620 C   0  0  0  0  0  0  0  0  0  0  0  0
   37.8360   28.0390   41.9950 C   0  0  0  0  0  0  0  0  0  0  0  0
   36.1650   30.9030   39.9730 H   0  0  0  0  0  0  0  0  0  0  0  0
   34.7670   29.0740   40.8500 H   0  0  0  0  0  0  0  0  0  0  0  0
   35.7830   27.3040   42.0880 H   0  0  0  0  0  0  0  0  0  0  0  0
   39.6830   32.2160   38.3410 C   0  0  0  0  0  0  0  0  0  0  0  0
   40.1700   33.2640   39.1550 C   0  0  0  0  0  0  0  0  0  0  0  0
   39.9050   33.2210   40.5600 C   0  0  0  0  0  0  0  0  0  0  0  0
   39.1890   32.1530   41.0240 N   0  0  0  0  0  0  0  0  0  0  0  0
   38.7530   31.1930   40.2260 C   0  0  0  0  0  0  0  0  0  0  0  0
   38.9960   31.2200   38.8940 N   0  0  0  0  0  0  0  0  0  0  0  0
   40.7320   34.0900   38.7450 H   0  0  0  0  0  0  0  0  0  0  0  0
   40.2600   34.0030   41.2130 H   0  0  0  0  0  0  0  0  0  0  0  0
   39.9600   32.2870   36.9670 N   0  0  0  0  0  0  0  0  0  0  0  0
   40.6970   31.8060   36.4090 H   0  0  0  0  0  0  0  0  0  0  0  0
   39.3660   32.8990   36.3860 H   0  0  0  0  0  0  0  0  0  0  0  0
   38.3970   27.0220   42.7090 O   0  0  0  0  0  0  0  0  0  0  0  0
   39.1630   24.5290   43.1570 O   0  0  0  0  0  0  0  0  0  0  0  0
   39.1020   25.6270   42.1070 P   0  0  0  0  0  0  0  0  0  0  0  0
   40.6780   25.9690   41.5660 O   0  0  0  0  0  0  0  0  0  0  0  0
   41.4360   26.3060   42.6900 C   0  0  0  0  0  0  0  0  0  0  0  0
   42.0170   25.1580   43.2340 F   0  0  0  0  0  0  0  0  0  0  0  0
   42.4320   27.2010   42.3060 F   0  0  0  0  0  0  0  0  0  0  0  0
   40.7160   26.9050   43.6800 F   0  0  0  0  0  0  0  0  0  0  0  0
   38.2970   25.0170   40.7510 O   0  0  0  0  0  0  0  0  0  0  0  0
   37.1120   24.3510   41.1420 C   0  0  0  0  0  0  0  0  0  0  0  0
   36.2400   24.5420   40.0640 F   0  0  0  0  0  0  0  0  0  0  0  0
   37.3410   22.9940   41.2460 F   0  0  0  0  0  0  0  0  0  0  0  0
   36.6020   24.7840   42.3260 F   0  0  0  0  0  0  0  0  0  0  0  0
  2  1  1  0  0  0  0
  2  7  1  0  0  0  0
  3  2  2  0  0  0  0
  4  3  1  0  0  0  0
  4  5  2  0  0  0  0
  5  6  1  0  0  0  0
  6  7  2  0  0  0  0
  6 10  1  0  0  0  0
  7 22  1  0  0  0  0
  8  4  1  0  0  0  0
  9  5  1  0  0  0  0
 11 16  2  0  0  0  0
 11 12  1  0  0  0  0
 12 13  2  0  0  0  0
 13 14  1  0  0  0  0
 13 18  1  0  0  0  0
 15  3  1  0  0  0  0
 15 14  2  0  0  0  0
 16 15  1  0  0  0  0
 17 12  1  0  0  0  0
 19 11  1  0  0  0  0
 20 19  1  0  0  0  0
 21 19  1  0  0  0  0
 24 22  1  0  0  0  0
 24 23  2  0  0  0  0
 25 24  1  0  0  0  0
 25 26  1  0  0  0  0
 26 27  1  0  0  0  0
 26 29  1  0  0  0  0
 28 26  1  0  0  0  0
 30 31  1  0  0  0  0
 30 24  1  0  0  0  0
 31 33  1  0  0  0  0
 31 34  1  0  0  0  0
 32 31  1  0  0  0  0
M  END
>  <minimizedAffinity>
-5.48149872

$$$$

 OpenBabel03252506163D

 34 35  0  0  0  0  0  0  0  0999 V2000
   37.2180   29.2380   39.5290 F   0  0  0  0  0  0  0  0  0  0  0  0
   37.4300   28.9350   40.7980 C   0  0  0  0  0  0  0  0  0  0  0  0
   38.0870   29.8610   41.5930 C   0  0  0  0  0  0  0  0  0  0  0  0
   38.3630   29.6470   42.9520 C   0  0  0  0  0  0  0  0  0  0  0  0
   37.9560   28.4380   43.5400 C   0  0  0  0  0  0  0  0  0  0  0  0
   37.3070   27.5490   42.7100 C   0  0  0  0  0  0  0  0  0  0  0  0
   37.0380   27.7460   41.4020 C   0  0  0  0  0  0  0  0  0  0  0  0
   38.8870   30.4240   43.5210 H   0  0  0  0  0  0  0  0  0  0  0  0
   38.1890   28.3160   44.5880 H   0  0  0  0  0  0  0  0  0  0  0  0
   37.0440   26.6660   43.2980 H   0  0  0  0  0  0  0  0  0  0  0  0
   37.9560   33.1790   40.0330 C   0  0  0  0  0  0  0  0  0  0  0  0
   39.3240   33.5360   39.9830 C   0  0  0  0  0  0  0  0  0  0  0  0
   40.2920   32.6170   40.4970 C   0  0  0  0  0  0  0  0  0  0  0  0
   39.8210   31.4390   41.0060 N   0  0  0  0  0  0  0  0  0  0  0  0
   38.5320   31.1450   41.0320 C   0  0  0  0  0  0  0  0  0  0  0  0
   37.6030   32.0050   40.5500 N   0  0  0  0  0  0  0  0  0  0  0  0
   39.6510   34.4790   39.5710 H   0  0  0  0  0  0  0  0  0  0  0  0
   41.3440   32.8550   40.4760 H   0  0  0  0  0  0  0  0  0  0  0  0
   37.0310   34.1020   39.5210 N   0  0  0  0  0  0  0  0  0  0  0  0
   36.5530   34.1240   38.5950 H   0  0  0  0  0  0  0  0  0  0  0  0
   36.7580   34.8940   40.1220 H   0  0  0  0  0  0  0  0  0  0  0  0
   36.3880   26.7890   40.6800 O   0  0  0  0  0  0  0  0  0  0  0  0
   36.0500   24.5430   39.3220 O   0  0  0  0  0  0  0  0  0  0  0  0
   37.0750   25.5860   39.7390 P   0  0  0  0  0  0  0  0  0  0  0  0
   38.3240   24.8230   40.6070 O   0  0  0  0  0  0  0  0  0  0  0  0
   37.7210   23.9990   41.5600 C   0  0  0  0  0  0  0  0  0  0  0  0
   37.6180   22.6970   41.0660 F   0  0  0  0  0  0  0  0  0  0  0  0
   38.5000   24.0060   42.7150 F   0  0  0  0  0  0  0  0  0  0  0  0
   36.4680   24.3980   41.9180 F   0  0  0  0  0  0  0  0  0  0  0  0
   37.8160   26.1860   38.3420 O   0  0  0  0  0  0  0  0  0  0  0  0
   36.8410   26.6570   37.4330 C   0  0  0  0  0  0  0  0  0  0  0  0
   37.5190   27.6130   36.6690 F   0  0  0  0  0  0  0  0  0  0  0  0
   36.4600   25.6440   36.5770 F   0  0  0  0  0  0  0  0  0  0  0  0
   35.7210   27.1460   38.0300 F   0  0  0  0  0  0  0  0  0  0  0  0
  1  2  1  0  0  0  0
  2  7  2  0  0  0  0
  2  3  1  0  0  0  0
  3  4  2  0  0  0  0
  4  8  1  0  0  0  0
  4  5  1  0  0  0  0
  5  9  1  0  0  0  0
  6 10  1  0  0  0  0
  6  5  2  0  0  0  0
  7  6  1  0  0  0  0
 11 16  1  0  0  0  0
 12 11  2  0  0  0  0
 12 13  1  0  0  0  0
 13 14  2  0  0  0  0
 14 15  1  0  0  0  0
 15  3  1  0  0  0  0
 16 15  2  0  0  0  0
 17 12  1  0  0  0  0
 18 13  1  0  0  0  0
 19 11  1  0  0  0  0
 19 21  1  0  0  0  0
 20 19  1  0  0  0  0
 22  7  1  0  0  0  0
 23 24  2  0  0  0  0
 24 25  1  0  0  0  0
 24 22  1  0  0  0  0
 25 26  1  0  0  0  0
 26 29  1  0  0  0  0
 26 28  1  0  0  0  0
 27 26  1  0  0  0  0
 30 24  1  0  0  0  0
 31 34  1  0  0  0  0
 31 30  1  0  0  0  0
 32 31  1  0  0  0  0
 33 31  1  0  0  0  0
M  END
>  <minimizedAffinity>
-5.43657827

$$$$

 OpenBabel03252506163D

 34 35  0  0  0  0  0  0  0  0999 V2000
   39.4900   30.8480   39.2730 F   0  0  0  0  0  0  0  0  0  0  0  0
   40.0790   30.9270   40.4530 C   0  0  0  0  0  0  0  0  0  0  0  0
   41.4260   31.2490   40.4960 C   0  0  0  0  0  0  0  0  0  0  0  0
   42.1510   31.3610   41.6920 C   0  0  0  0  0  0  0  0  0  0  0  0
   41.4840   31.1390   42.9070 C   0  0  0  0  0  0  0  0  0  0  0  0
   40.1450   30.8210   42.8140 C   0  0  0  0  0  0  0  0  0  0  0  0
   39.4400   30.7100   41.6690 C   0  0  0  0  0  0  0  0  0  0  0  0
   43.2160   31.6200   41.6500 H   0  0  0  0  0  0  0  0  0  0  0  0
   42.0800   31.2360   43.8030 H   0  0  0  0  0  0  0  0  0  0  0  0
   39.7580   30.6840   43.8270 H   0  0  0  0  0  0  0  0  0  0  0  0
   42.6620   32.9510   37.4900 C   0  0  0  0  0  0  0  0  0  0  0  0
   43.5460   31.9890   36.9480 C   0  0  0  0  0  0  0  0  0  0  0  0
   43.7100   30.7440   37.6340 C   0  0  0  0  0  0  0  0  0  0  0  0
   42.9900   30.5690   38.7830 N   0  0  0  0  0  0  0  0  0  0  0  0
   42.1730   31.4970   39.2540 C   0  0  0  0  0  0  0  0  0  0  0  0
   42.0080   32.6800   38.6160 N   0  0  0  0  0  0  0  0  0  0  0  0
   44.0960   32.1700   36.0360 H   0  0  0  0  0  0  0  0  0  0  0  0
   44.3760   29.9870   37.2510 H   0  0  0  0  0  0  0  0  0  0  0  0
   42.5240   34.1610   36.7940 N   0  0  0  0  0  0  0  0  0  0  0  0
   41.7770   34.4700   36.1350 H   0  0  0  0  0  0  0  0  0  0  0  0
   43.2510   34.8800   36.9260 H   0  0  0  0  0  0  0  0  0  0  0  0
   38.1160   30.3880   41.7030 O   0  0  0  0  0  0  0  0  0  0  0  0
   37.3370   28.8100   43.6800 O   0  0  0  0  0  0  0  0  0  0  0  0
   37.4370   28.9280   42.1670 P   0  0  0  0  0  0  0  0  0  0  0  0
   38.3780   27.6440   41.5690 O   0  0  0  0  0  0  0  0  0  0  0  0
   38.3090   26.6100   42.5060 C   0  0  0  0  0  0  0  0  0  0  0  0
   36.9750   26.3320   42.8120 F   0  0  0  0  0  0  0  0  0  0  0  0
   38.9160   25.4770   41.9680 F   0  0  0  0  0  0  0  0  0  0  0  0
   38.9460   26.8890   43.6790 F   0  0  0  0  0  0  0  0  0  0  0  0
   35.8960   28.6830   41.5150 O   0  0  0  0  0  0  0  0  0  0  0  0
   35.9800   28.5060   40.1140 C   0  0  0  0  0  0  0  0  0  0  0  0
   36.0180   27.1170   39.9460 F   0  0  0  0  0  0  0  0  0  0  0  0
   34.8270   28.9590   39.5070 F   0  0  0  0  0  0  0  0  0  0  0  0
   37.0350   29.1430   39.5400 F   0  0  0  0  0  0  0  0  0  0  0  0
  1  2  1  0  0  0  0
  2  3  2  0  0  0  0
  2  7  1  0  0  0  0
  3  4  1  0  0  0  0
  4  5  2  0  0  0  0
  5  9  1  0  0  0  0
  6  5  1  0  0  0  0
  6 10  1  0  0  0  0
  7 22  1  0  0  0  0
  7  6  2  0  0  0  0
  8  4  1  0  0  0  0
 11 16  1  0  0  0  0
 12 11  2  0  0  0  0
 12 13  1  0  0  0  0
 13 14  2  0  0  0  0
 14 15  1  0  0  0  0
 15  3  1  0  0  0  0
 16 15  2  0  0  0  0
 17 12  1  0  0  0  0
 18 13  1  0  0  0  0
 19 21  1  0  0  0  0
 19 11  1  0  0  0  0
 20 19  1  0  0  0  0
 22 24  1  0  0  0  0
 24 23  2  0  0  0  0
 25 24  1  0  0  0  0
 25 26  1  0  0  0  0
 26 27  1  0  0  0  0
 26 29  1  0  0  0  0
 28 26  1  0  0  0  0
 30 24  1  0  0  0  0
 31 30  1  0  0  0  0
 32 31  1  0  0  0  0
 33 31  1  0  0  0  0
 34 31  1  0  0  0  0
M  END
>  <minimizedAffinity>
-5.42756128

$$$$
