
     RDKit          3D

 39 41  0  0  0  0  0  0  0  0999 V2000
   45.1294   36.0145   42.9163 C   0  0  0  0  0  0  0  0  0  0  0  0
   45.3709   34.6501   42.9089 C   0  0  0  0  0  0  0  0  0  0  0  0
   45.2144   33.9197   44.0611 C   0  0  0  0  0  0  0  0  0  0  0  0
   44.8120   34.6101   45.1893 N   0  0  0  0  0  0  0  0  0  0  0  0
   44.5817   35.9190   45.1892 C   0  0  0  0  0  0  0  0  0  0  0  0
   44.7450   36.6124   44.0421 N   0  0  0  0  0  0  0  0  0  0  0  0
   45.4197   32.5292   44.2199 C   0  0  0  0  0  0  0  0  0  0  0  0
   44.9401   31.5614   43.3320 C   0  0  0  0  0  0  0  0  0  0  0  0
   45.0791   30.2110   43.5171 C   0  0  0  0  0  0  0  0  0  0  0  0
   45.7257   29.7397   44.6365 C   0  0  0  0  0  0  0  0  0  0  0  0
   46.2221   30.7084   45.5508 C   0  0  0  0  0  0  0  0  0  0  0  0
   46.8643   30.2532   46.6732 C   0  0  0  0  0  0  0  0  0  0  0  0
   47.3701   31.1351   47.6043 C   0  0  0  0  0  0  0  0  0  0  0  0
   47.2238   32.5187   47.3926 C   0  0  0  0  0  0  0  0  0  0  0  0
   46.5570   32.9371   46.2268 C   0  0  0  0  0  0  0  0  0  0  0  0
   46.0628   32.0358   45.3247 C   0  0  0  0  0  0  0  0  0  0  0  0
   45.7592   34.0895   41.7248 O   0  0  0  0  0  0  0  0  0  0  0  0
   47.6810   32.4300   41.0879 O   0  0  0  0  0  0  0  0  0  0  0  0
   47.3691   33.8772   41.2424 P   0  0  1  0  0  0  0  0  0  0  0  0
   47.6524   34.6089   39.7426 O   0  0  0  0  0  0  0  0  0  0  0  0
   48.3619   34.5934   42.3880 O   0  0  0  0  0  0  0  0  0  0  0  0
   49.5350   35.2903   42.1491 C   0  0  0  0  0  0  0  0  0  0  0  0
   49.2047   36.2092   41.3787 O   0  0  0  0  0  0  0  0  0  0  0  0
   50.6396   34.6961   42.8637 N   0  0  0  0  0  0  0  0  0  0  0  0
   45.2536   36.6048   41.9981 H   0  0  0  0  0  0  0  0  0  0  0  0
   44.2673   36.4420   46.0836 H   0  0  0  0  0  0  0  0  0  0  0  0
   44.4259   31.8770   42.4398 H   0  0  0  0  0  0  0  0  0  0  0  0
   44.6968   29.4911   42.8110 H   0  0  0  0  0  0  0  0  0  0  0  0
   45.8714   28.7031   44.8503 H   0  0  0  0  0  0  0  0  0  0  0  0
   46.9733   29.1778   46.8260 H   0  0  0  0  0  0  0  0  0  0  0  0
   47.8697   30.7169   48.4785 H   0  0  0  0  0  0  0  0  0  0  0  0
   47.6485   33.1081   48.1646 H   0  0  0  0  0  0  0  0  0  0  0  0
   46.5674   34.0061   46.2352 H   0  0  0  0  0  0  0  0  0  0  0  0
   50.6480   34.8270   43.9106 H   0  0  0  0  0  0  0  0  0  0  0  0
   51.4567   34.1391   42.4882 H   0  0  0  0  0  0  0  0  0  0  0  0
   47.2596   33.7942   38.6885 C   0  0  0  0  0  0  0  0  0  0  0  0
   47.2074   34.5950   37.5542 F   0  0  0  0  0  0  0  0  0  0  0  0
   48.1356   32.7538   38.4782 F   0  0  0  0  0  0  0  0  0  0  0  0
   45.9708   33.3741   38.9588 F   0  0  0  0  0  0  0  0  0  0  0  0
  1  6  2  0
  2  1  1  0
  2  3  2  0
  3  7  1  0
  3  4  1  0
  5  4  2  0
  6  5  1  0
  7 16  2  0
  8  9  2  0
  8  7  1  0
  9 10  1  0
 10 11  2  0
 11 12  1  0
 12 13  2  0
 14 13  1  0
 15 14  2  0
 16 11  1  0
 16 15  1  0
 17  2  1  0
 19 18  2  0
 19 17  1  1
 19 21  1  0
 20 19  1  0
 22 21  1  0
 22 24  1  0
 23 22  2  0
  1 25  1  0
  5 26  1  0
  8 27  1  0
  9 28  1  0
 10 29  1  0
 12 30  1  0
 13 31  1  0
 14 32  1  0
 15 33  1  0
 24 34  1  0
 24 35  1  0
 36 37  1  0
 36 38  1  0
 36 39  1  0
 20 36  1  0
M  ISO  8  25  14  26  14  27  14  28  14  29  14  30  14  31  14  32  14
M  ISO  1  33  14
M  END
>  <DihAtoms>  (1) 
18,19,35,36

>  <DihDeg>  (1) 
-59.9997998845119

$$$$
