
 OpenBabel03242518293D

 16 16  0  0  0  0  0  0  0  0999 V2000
   36.7740   29.0800   41.6700 C   0  0  0  0  0  0  0  0  0  0  0  0
   36.5670   27.7190   41.7890 C   0  0  0  0  0  0  0  0  0  0  0  0
   37.4320   27.0260   42.6630 C   0  0  0  0  0  0  0  0  0  0  0  0
   38.3890   27.7130   43.3170 N   0  0  0  0  0  0  0  0  0  0  0  0
   38.5500   29.0580   43.1640 C   0  0  0  0  0  0  0  0  0  0  0  0
   37.7310   29.7180   42.3360 N   0  0  0  0  0  0  0  0  0  0  0  0
   35.8200   27.1110   41.2950 H   0  0  0  0  0  0  0  0  0  0  0  0
   37.3570   25.9620   42.8280 H   0  0  0  0  0  0  0  0  0  0  0  0
   39.3100   29.6340   43.6760 H   0  0  0  0  0  0  0  0  0  0  0  0
   35.8680   29.7180   40.7720 C   0  0  0  0  0  0  0  0  0  0  0  0
   34.8490   29.2430   40.2360 O   0  0  0  0  0  0  0  0  0  0  0  0
   36.1810   31.0510   40.4610 O   0  0  0  0  0  0  0  0  0  0  0  0
   36.9190   31.3510   39.2820 C   0  0  0  0  0  0  0  0  0  0  0  0
   38.2520   31.0690   39.4180 F   0  0  0  0  0  0  0  0  0  0  0  0
   36.7830   32.7370   39.1260 F   0  0  0  0  0  0  0  0  0  0  0  0
   36.3890   30.7710   38.1620 F   0  0  0  0  0  0  0  0  0  0  0  0
  1  2  2  0  0  0  0
  1  6  1  0  0  0  0
  2  3  1  0  0  0  0
  3  8  1  0  0  0  0
  3  4  2  0  0  0  0
  5  4  1  0  0  0  0
  5  9  1  0  0  0  0
  6  5  2  0  0  0  0
  7  2  1  0  0  0  0
 10  1  1  0  0  0  0
 11 10  2  0  0  0  0
 12 10  1  0  0  0  0
 13 14  1  0  0  0  0
 13 12  1  0  0  0  0
 15 13  1  0  0  0  0
 16 13  1  0  0  0  0
M  END
>  <minimizedAffinity>
-3.83537364

$$$$

 OpenBabel03242518293D

 16 16  0  0  0  0  0  0  0  0999 V2000
   37.2640   29.9800   40.6080 C   0  0  0  0  0  0  0  0  0  0  0  0
   36.6740   31.2270   40.7050 C   0  0  0  0  0  0  0  0  0  0  0  0
   37.4580   32.3270   40.2960 C   0  0  0  0  0  0  0  0  0  0  0  0
   38.7080   32.1070   39.8430 N   0  0  0  0  0  0  0  0  0  0  0  0
   39.2430   30.8550   39.7670 C   0  0  0  0  0  0  0  0  0  0  0  0
   38.5020   29.8100   40.1550 N   0  0  0  0  0  0  0  0  0  0  0  0
   35.6790   31.4700   41.0570 H   0  0  0  0  0  0  0  0  0  0  0  0
   37.0940   33.3410   40.3310 H   0  0  0  0  0  0  0  0  0  0  0  0
   40.2430   30.6490   39.4080 H   0  0  0  0  0  0  0  0  0  0  0  0
   36.4190   28.9150   41.0400 C   0  0  0  0  0  0  0  0  0  0  0  0
   35.1880   28.8000   40.8970 O   0  0  0  0  0  0  0  0  0  0  0  0
   37.0770   27.8720   41.7110 O   0  0  0  0  0  0  0  0  0  0  0  0
   37.0890   27.8390   43.1340 C   0  0  0  0  0  0  0  0  0  0  0  0
   37.4010   29.0550   43.6790 F   0  0  0  0  0  0  0  0  0  0  0  0
   38.1170   26.9430   43.4550 F   0  0  0  0  0  0  0  0  0  0  0  0
   35.9350   27.3260   43.6620 F   0  0  0  0  0  0  0  0  0  0  0  0
  1  2  1  0  0  0  0
  1 10  1  0  0  0  0
  2  7  1  0  0  0  0
  3  8  1  0  0  0  0
  3  2  2  0  0  0  0
  4  3  1  0  0  0  0
  5  4  2  0  0  0  0
  5  6  1  0  0  0  0
  6  1  2  0  0  0  0
  9  5  1  0  0  0  0
 10 12  1  0  0  0  0
 11 10  2  0  0  0  0
 12 13  1  0  0  0  0
 13 15  1  0  0  0  0
 13 16  1  0  0  0  0
 13 14  1  0  0  0  0
M  END
>  <minimizedAffinity>
-3.80493999

$$$$

 OpenBabel03242518293D

 16 16  0  0  0  0  0  0  0  0999 V2000
   38.3180   26.9070   42.9330 C   0  0  0  0  0  0  0  0  0  0  0  0
   39.4870   26.7910   43.6610 C   0  0  0  0  0  0  0  0  0  0  0  0
   40.0950   25.5180   43.6760 C   0  0  0  0  0  0  0  0  0  0  0  0
   39.5160   24.5080   42.9950 N   0  0  0  0  0  0  0  0  0  0  0  0
   38.3600   24.6770   42.2920 C   0  0  0  0  0  0  0  0  0  0  0  0
   37.7820   25.8840   42.2760 N   0  0  0  0  0  0  0  0  0  0  0  0
   40.0020   27.5590   44.2260 H   0  0  0  0  0  0  0  0  0  0  0  0
   41.0090   25.3190   44.2130 H   0  0  0  0  0  0  0  0  0  0  0  0
   37.8740   23.8850   41.7370 H   0  0  0  0  0  0  0  0  0  0  0  0
   37.7560   28.2180   42.9620 C   0  0  0  0  0  0  0  0  0  0  0  0
   38.2540   29.2610   43.4250 O   0  0  0  0  0  0  0  0  0  0  0  0
   36.4770   28.3280   42.3930 O   0  0  0  0  0  0  0  0  0  0  0  0
   36.2860   29.1130   41.2220 C   0  0  0  0  0  0  0  0  0  0  0  0
   36.2140   30.4510   41.5010 F   0  0  0  0  0  0  0  0  0  0  0  0
   35.0410   28.7060   40.7260 F   0  0  0  0  0  0  0  0  0  0  0  0
   37.2090   28.8460   40.2470 F   0  0  0  0  0  0  0  0  0  0  0  0
  1 10  1  0  0  0  0
  1  2  1  0  0  0  0
  2  3  2  0  0  0  0
  2  7  1  0  0  0  0
  3  8  1  0  0  0  0
  4  3  1  0  0  0  0
  5  4  2  0  0  0  0
  6  5  1  0  0  0  0
  6  1  2  0  0  0  0
  9  5  1  0  0  0  0
 10 11  2  0  0  0  0
 12 10  1  0  0  0  0
 13 14  1  0  0  0  0
 13 12  1  0  0  0  0
 15 13  1  0  0  0  0
 16 13  1  0  0  0  0
M  END
>  <minimizedAffinity>
-3.79533553

$$$$

 OpenBabel03242518293D

 16 16  0  0  0  0  0  0  0  0999 V2000
   37.1350   29.1900   41.9010 C   0  0  0  0  0  0  0  0  0  0  0  0
   36.5980   27.9850   42.3160 C   0  0  0  0  0  0  0  0  0  0  0  0
   37.4560   27.1330   43.0430 C   0  0  0  0  0  0  0  0  0  0  0  0
   38.7210   27.5300   43.2870 N   0  0  0  0  0  0  0  0  0  0  0  0
   39.2010   28.7300   42.8530 C   0  0  0  0  0  0  0  0  0  0  0  0
   38.3890   29.5410   42.1640 N   0  0  0  0  0  0  0  0  0  0  0  0
   35.5960   27.6090   42.1540 H   0  0  0  0  0  0  0  0  0  0  0  0
   37.1380   26.1710   43.4130 H   0  0  0  0  0  0  0  0  0  0  0  0
   40.2110   29.0740   43.0340 H   0  0  0  0  0  0  0  0  0  0  0  0
   36.2170   30.0010   41.1710 C   0  0  0  0  0  0  0  0  0  0  0  0
   36.2780   31.2230   40.9410 O   0  0  0  0  0  0  0  0  0  0  0  0
   35.1050   29.3170   40.6520 O   0  0  0  0  0  0  0  0  0  0  0  0
   35.0630   28.9720   39.2720 C   0  0  0  0  0  0  0  0  0  0  0  0
   35.6590   29.9190   38.4820 F   0  0  0  0  0  0  0  0  0  0  0  0
   33.6980   28.9420   38.9590 F   0  0  0  0  0  0  0  0  0  0  0  0
   35.5560   27.7200   39.0230 F   0  0  0  0  0  0  0  0  0  0  0  0
  1  6  2  0  0  0  0
  1  2  1  0  0  0  0
  2  3  2  0  0  0  0
  3  4  1  0  0  0  0
  3  8  1  0  0  0  0
  5  9  1  0  0  0  0
  5  4  2  0  0  0  0
  6  5  1  0  0  0  0
  7  2  1  0  0  0  0
 10  1  1  0  0  0  0
 11 10  2  0  0  0  0
 12 10  1  0  0  0  0
 13 12  1  0  0  0  0
 14 13  1  0  0  0  0
 15 13  1  0  0  0  0
 16 13  1  0  0  0  0
M  END
>  <minimizedAffinity>
-3.74661398

$$$$

 OpenBabel03242518293D

 16 16  0  0  0  0  0  0  0  0999 V2000
   37.1890   28.4780   42.0200 C   0  0  0  0  0  0  0  0  0  0  0  0
   36.0100   28.2140   41.3490 C   0  0  0  0  0  0  0  0  0  0  0  0
   35.4490   29.2830   40.6190 C   0  0  0  0  0  0  0  0  0  0  0  0
   36.0790   30.4750   40.6150 N   0  0  0  0  0  0  0  0  0  0  0  0
   37.2430   30.6820   41.2950 C   0  0  0  0  0  0  0  0  0  0  0  0
   37.7760   29.6700   41.9890 N   0  0  0  0  0  0  0  0  0  0  0  0
   35.4570   27.2840   41.3110 H   0  0  0  0  0  0  0  0  0  0  0  0
   34.5320   29.1840   40.0600 H   0  0  0  0  0  0  0  0  0  0  0  0
   37.7690   31.6280   41.3100 H   0  0  0  0  0  0  0  0  0  0  0  0
   37.6990   27.3570   42.7390 C   0  0  0  0  0  0  0  0  0  0  0  0
   38.7630   27.2680   43.3800 O   0  0  0  0  0  0  0  0  0  0  0  0
   36.8850   26.2130   42.7090 O   0  0  0  0  0  0  0  0  0  0  0  0
   37.3450   25.0300   42.0650 C   0  0  0  0  0  0  0  0  0  0  0  0
   38.2720   24.3580   42.8150 F   0  0  0  0  0  0  0  0  0  0  0  0
   37.9760   25.4870   40.9010 F   0  0  0  0  0  0  0  0  0  0  0  0
   36.3220   24.2110   41.6680 F   0  0  0  0  0  0  0  0  0  0  0  0
  1 10  1  0  0  0  0
  2  1  2  0  0  0  0
  3  2  1  0  0  0  0
  4  3  2  0  0  0  0
  4  5  1  0  0  0  0
  5  9  1  0  0  0  0
  5  6  2  0  0  0  0
  6  1  1  0  0  0  0
  7  2  1  0  0  0  0
  8  3  1  0  0  0  0
 10 11  2  0  0  0  0
 12 10  1  0  0  0  0
 13 12  1  0  0  0  0
 13 14  1  0  0  0  0
 15 13  1  0  0  0  0
 16 13  1  0  0  0  0
M  END
>  <minimizedAffinity>
-3.67554641

$$$$

 OpenBabel03242518293D

 16 16  0  0  0  0  0  0  0  0999 V2000
   37.0190   27.0200   41.4410 C   0  0  0  0  0  0  0  0  0  0  0  0
   37.1390   26.1250   42.4880 C   0  0  0  0  0  0  0  0  0  0  0  0
   36.9920   24.7590   42.1660 C   0  0  0  0  0  0  0  0  0  0  0  0
   36.7490   24.4110   40.8870 N   0  0  0  0  0  0  0  0  0  0  0  0
   36.6390   25.3350   39.8910 C   0  0  0  0  0  0  0  0  0  0  0  0
   36.7780   26.6320   40.1930 N   0  0  0  0  0  0  0  0  0  0  0  0
   37.3340   26.3400   43.5310 H   0  0  0  0  0  0  0  0  0  0  0  0
   37.0670   23.9790   42.9070 H   0  0  0  0  0  0  0  0  0  0  0  0
   36.4440   25.0840   38.8570 H   0  0  0  0  0  0  0  0  0  0  0  0
   37.1750   28.3820   41.8350 C   0  0  0  0  0  0  0  0  0  0  0  0
   37.3360   28.8410   42.9820 O   0  0  0  0  0  0  0  0  0  0  0  0
   37.1410   29.3120   40.7830 O   0  0  0  0  0  0  0  0  0  0  0  0
   35.9780   30.1050   40.5740 C   0  0  0  0  0  0  0  0  0  0  0  0
   34.8270   29.3670   40.6410 F   0  0  0  0  0  0  0  0  0  0  0  0
   36.1110   30.5840   39.2650 F   0  0  0  0  0  0  0  0  0  0  0  0
   35.9270   31.1990   41.3950 F   0  0  0  0  0  0  0  0  0  0  0  0
  1 10  1  0  0  0  0
  1  2  1  0  0  0  0
  2  7  1  0  0  0  0
  3  2  2  0  0  0  0
  3  8  1  0  0  0  0
  4  3  1  0  0  0  0
  5  6  1  0  0  0  0
  5  4  2  0  0  0  0
  6  1  2  0  0  0  0
  9  5  1  0  0  0  0
 10 11  2  0  0  0  0
 12 10  1  0  0  0  0
 13 14  1  0  0  0  0
 13 12  1  0  0  0  0
 13 16  1  0  0  0  0
 15 13  1  0  0  0  0
M  END
>  <minimizedAffinity>
-3.67108703

$$$$

 OpenBabel03242518293D

 16 16  0  0  0  0  0  0  0  0999 V2000
   36.9100   29.4830   41.3880 C   0  0  0  0  0  0  0  0  0  0  0  0
   38.0060   29.9280   42.1040 C   0  0  0  0  0  0  0  0  0  0  0  0
   38.4130   29.1280   43.1930 C   0  0  0  0  0  0  0  0  0  0  0  0
   37.7270   28.0010   43.4690 N   0  0  0  0  0  0  0  0  0  0  0  0
   36.6500   27.6070   42.7300 C   0  0  0  0  0  0  0  0  0  0  0  0
   36.2630   28.3640   41.6960 N   0  0  0  0  0  0  0  0  0  0  0  0
   38.5980   30.8190   41.9340 H   0  0  0  0  0  0  0  0  0  0  0  0
   39.2550   29.3840   43.8160 H   0  0  0  0  0  0  0  0  0  0  0  0
   36.0820   26.7090   42.9290 H   0  0  0  0  0  0  0  0  0  0  0  0
   36.5520   30.3390   40.3050 C   0  0  0  0  0  0  0  0  0  0  0  0
   36.1100   30.0230   39.1840 O   0  0  0  0  0  0  0  0  0  0  0  0
   36.7290   31.7100   40.5490 O   0  0  0  0  0  0  0  0  0  0  0  0
   37.5620   32.4830   39.6920 C   0  0  0  0  0  0  0  0  0  0  0  0
   38.6840   31.8010   39.3060 F   0  0  0  0  0  0  0  0  0  0  0  0
   37.9620   33.5700   40.4790 F   0  0  0  0  0  0  0  0  0  0  0  0
   36.8860   32.9970   38.6180 F   0  0  0  0  0  0  0  0  0  0  0  0
  1  6  2  0  0  0  0
  1  2  1  0  0  0  0
  2  3  2  0  0  0  0
  3  4  1  0  0  0  0
  3  8  1  0  0  0  0
  5  9  1  0  0  0  0
  5  4  2  0  0  0  0
  6  5  1  0  0  0  0
  7  2  1  0  0  0  0
 10 12  1  0  0  0  0
 10  1  1  0  0  0  0
 11 10  2  0  0  0  0
 13 15  1  0  0  0  0
 13 12  1  0  0  0  0
 14 13  1  0  0  0  0
 16 13  1  0  0  0  0
M  END
>  <minimizedAffinity>
-3.596596

$$$$

 OpenBabel03242518293D

 16 16  0  0  0  0  0  0  0  0999 V2000
   37.9890   26.6470   42.8550 C   0  0  0  0  0  0  0  0  0  0  0  0
   37.3170   25.6110   42.2330 C   0  0  0  0  0  0  0  0  0  0  0  0
   37.9830   24.3670   42.1880 C   0  0  0  0  0  0  0  0  0  0  0  0
   39.2070   24.2600   42.7420 N   0  0  0  0  0  0  0  0  0  0  0  0
   39.8260   25.3160   43.3440 C   0  0  0  0  0  0  0  0  0  0  0  0
   39.1970   26.4960   43.3870 N   0  0  0  0  0  0  0  0  0  0  0  0
   36.3370   25.6310   41.7730 H   0  0  0  0  0  0  0  0  0  0  0  0
   37.5480   23.4950   41.7270 H   0  0  0  0  0  0  0  0  0  0  0  0
   40.8080   25.2580   43.7950 H   0  0  0  0  0  0  0  0  0  0  0  0
   37.2610   27.8740   42.8630 C   0  0  0  0  0  0  0  0  0  0  0  0
   37.4770   28.8950   43.5410 O   0  0  0  0  0  0  0  0  0  0  0  0
   36.1640   27.9170   41.9880 O   0  0  0  0  0  0  0  0  0  0  0  0
   36.2430   28.6750   40.7860 C   0  0  0  0  0  0  0  0  0  0  0  0
   37.5340   28.9780   40.4470 F   0  0  0  0  0  0  0  0  0  0  0  0
   35.5780   29.8720   41.0810 F   0  0  0  0  0  0  0  0  0  0  0  0
   35.5690   28.0920   39.7470 F   0  0  0  0  0  0  0  0  0  0  0  0
  1 10  1  0  0  0  0
  1  6  1  0  0  0  0
  2  1  2  0  0  0  0
  3  2  1  0  0  0  0
  3  4  2  0  0  0  0
  4  5  1  0  0  0  0
  5  6  2  0  0  0  0
  5  9  1  0  0  0  0
  7  2  1  0  0  0  0
  8  3  1  0  0  0  0
 10 11  2  0  0  0  0
 12 10  1  0  0  0  0
 13 15  1  0  0  0  0
 13 12  1  0  0  0  0
 14 13  1  0  0  0  0
 16 13  1  0  0  0  0
M  END
>  <minimizedAffinity>
-3.59544301

$$$$

 OpenBabel03242518293D

 16 16  0  0  0  0  0  0  0  0999 V2000
   38.2280   30.3940   41.1990 C   0  0  0  0  0  0  0  0  0  0  0  0
   39.2520   30.3290   40.2730 C   0  0  0  0  0  0  0  0  0  0  0  0
   39.0880   31.0970   39.1000 C   0  0  0  0  0  0  0  0  0  0  0  0
   37.9680   31.8320   38.9510 N   0  0  0  0  0  0  0  0  0  0  0  0
   36.9860   31.8590   39.8960 C   0  0  0  0  0  0  0  0  0  0  0  0
   37.1400   31.1330   41.0100 N   0  0  0  0  0  0  0  0  0  0  0  0
   40.1730   29.7630   40.3330 H   0  0  0  0  0  0  0  0  0  0  0  0
   39.8270   31.1180   38.3140 H   0  0  0  0  0  0  0  0  0  0  0  0
   36.0780   32.4400   39.8030 H   0  0  0  0  0  0  0  0  0  0  0  0
   38.4580   29.5940   42.3580 C   0  0  0  0  0  0  0  0  0  0  0  0
   39.5450   29.2800   42.8770 O   0  0  0  0  0  0  0  0  0  0  0  0
   37.2970   29.1060   42.9800 O   0  0  0  0  0  0  0  0  0  0  0  0
   36.6660   27.9310   42.4840 C   0  0  0  0  0  0  0  0  0  0  0  0
   35.7240   28.2100   41.5310 F   0  0  0  0  0  0  0  0  0  0  0  0
   36.0120   27.3870   43.5960 F   0  0  0  0  0  0  0  0  0  0  0  0
   37.5620   26.9900   42.0510 F   0  0  0  0  0  0  0  0  0  0  0  0
  1 10  1  0  0  0  0
  2  7  1  0  0  0  0
  2  1  2  0  0  0  0
  3  2  1  0  0  0  0
  4  3  2  0  0  0  0
  4  5  1  0  0  0  0
  5  6  2  0  0  0  0
  6  1  1  0  0  0  0
  8  3  1  0  0  0  0
  9  5  1  0  0  0  0
 10 11  2  0  0  0  0
 10 12  1  0  0  0  0
 13 12  1  0  0  0  0
 13 15  1  0  0  0  0
 14 13  1  0  0  0  0
 16 13  1  0  0  0  0
M  END
>  <minimizedAffinity>
-3.58449221

$$$$
