
 OpenBabel03252508063D

 39 41  0  0  0  0  0  0  0  0999 V2000
   45.3070   36.1520   42.7720 C   0  0  0  0  0  0  0  0  0  0  0  0
   45.5030   34.7810   42.7580 C   0  0  0  0  0  0  0  0  0  0  0  0
   45.2330   34.0380   43.8800 C   0  0  0  0  0  0  0  0  0  0  0  0
   44.7700   34.7230   44.9880 N   0  0  0  0  0  0  0  0  0  0  0  0
   44.5850   36.0390   44.9950 C   0  0  0  0  0  0  0  0  0  0  0  0
   44.8590   36.7450   43.8770 N   0  0  0  0  0  0  0  0  0  0  0  0
   45.5220   36.7540   41.8780 H   0  0  0  0  0  0  0  0  0  0  0  0
   44.2200   36.5580   45.8740 H   0  0  0  0  0  0  0  0  0  0  0  0
   45.3790   32.6380   44.0280 C   0  0  0  0  0  0  0  0  0  0  0  0
   44.8570   31.6990   43.1330 C   0  0  0  0  0  0  0  0  0  0  0  0
   44.9380   30.3430   43.3060 C   0  0  0  0  0  0  0  0  0  0  0  0
   45.5650   29.8350   44.4210 C   0  0  0  0  0  0  0  0  0  0  0  0
   46.1030   30.7730   45.3430 C   0  0  0  0  0  0  0  0  0  0  0  0
   46.7260   30.2820   46.4600 C   0  0  0  0  0  0  0  0  0  0  0  0
   47.2700   31.1340   47.3980 C   0  0  0  0  0  0  0  0  0  0  0  0
   47.1840   32.5240   47.1980 C   0  0  0  0  0  0  0  0  0  0  0  0
   46.5350   32.9800   46.0360 C   0  0  0  0  0  0  0  0  0  0  0  0
   46.0010   32.1090   45.1280 C   0  0  0  0  0  0  0  0  0  0  0  0
   44.3560   32.0440   42.2440 H   0  0  0  0  0  0  0  0  0  0  0  0
   44.5240   29.6460   42.5950 H   0  0  0  0  0  0  0  0  0  0  0  0
   45.6650   28.7910   44.6260 H   0  0  0  0  0  0  0  0  0  0  0  0
   46.7890   29.2020   46.6040 H   0  0  0  0  0  0  0  0  0  0  0  0
   47.7530   30.6870   48.2680 H   0  0  0  0  0  0  0  0  0  0  0  0
   47.6340   33.0880   47.9740 H   0  0  0  0  0  0  0  0  0  0  0  0
   46.5910   34.0480   46.0530 H   0  0  0  0  0  0  0  0  0  0  0  0
   45.9610   34.2270   41.5960 O   0  0  0  0  0  0  0  0  0  0  0  0
   47.8260   32.4420   41.1620 O   0  0  0  0  0  0  0  0  0  0  0  0
   47.5900   33.9080   41.2580 P   0  0  1  0  0  0  0  0  0  0  0  0
   48.0430   34.5830   39.7740 O   0  0  0  0  0  0  0  0  0  0  0  0
   47.6690   33.7780   38.7050 C   0  0  0  0  0  0  0  0  0  0  0  0
   48.5850   32.7360   38.6420 F   0  0  0  0  0  0  0  0  0  0  0  0
   46.3990   33.2690   38.8560 F   0  0  0  0  0  0  0  0  0  0  0  0
   47.8190   34.5320   37.5570 F   0  0  0  0  0  0  0  0  0  0  0  0
   48.5240   34.5940   42.4700 O   0  0  0  0  0  0  0  0  0  0  0  0
   49.7270   35.2620   42.3120 C   0  0  0  0  0  0  0  0  0  0  0  0
   49.4120   36.3790   41.8650 O   0  0  0  0  0  0  0  0  0  0  0  0
   50.8340   34.4280   42.7160 N   0  0  0  0  0  0  0  0  0  0  0  0
   50.9410   34.2570   43.7510 H   0  0  0  0  0  0  0  0  0  0  0  0
   51.5670   33.9550   42.1170 H   0  0  0  0  0  0  0  0  0  0  0  0
  1  6  1  0  0  0  0
  2  1  2  0  0  0  0
  2  3  1  0  0  0  0
  3  9  1  0  0  0  0
  3  4  2  0  0  0  0
  4  5  1  0  0  0  0
  5  8  1  0  0  0  0
  6  5  2  0  0  0  0
  7  1  1  0  0  0  0
  9 18  1  0  0  0  0
 10 11  1  0  0  0  0
 10  9  2  0  0  0  0
 11 12  2  0  0  0  0
 12 21  1  0  0  0  0
 12 13  1  0  0  0  0
 13 14  1  0  0  0  0
 14 22  1  0  0  0  0
 14 15  2  0  0  0  0
 15 23  1  0  0  0  0
 16 15  1  0  0  0  0
 16 24  1  0  0  0  0
 17 25  1  0  0  0  0
 17 16  2  0  0  0  0
 18 13  2  0  0  0  0
 18 17  1  0  0  0  0
 19 10  1  0  0  0  0
 20 11  1  0  0  0  0
 26  2  1  0  0  0  0
 28 27  2  6  0  0  0
 28 26  1  0  0  0  0
 28 34  1  0  0  0  0
 29 28  1  0  0  0  0
 30 32  1  0  0  0  0
 30 29  1  0  0  0  0
 31 30  1  0  0  0  0
 33 30  1  0  0  0  0
 35 34  1  0  0  0  0
 35 37  1  0  0  0  0
 36 35  2  0  0  0  0
 37 38  1  0  0  0  0
 39 37  1  0  0  0  0
M  END
>  <minimizedAffinity>
-5.85326576

>  <minimizedRMSD>
0.423837036

$$$$
