
 OpenBabel03252508073D

 39 41  0  0  0  0  0  0  0  0999 V2000
   45.3140   36.1370   42.7510 C   0  0  0  0  0  0  0  0  0  0  0  0
   45.5080   34.7660   42.7400 C   0  0  0  0  0  0  0  0  0  0  0  0
   45.2420   34.0270   43.8660 C   0  0  0  0  0  0  0  0  0  0  0  0
   44.7840   34.7160   44.9730 N   0  0  0  0  0  0  0  0  0  0  0  0
   44.6000   36.0320   44.9760 C   0  0  0  0  0  0  0  0  0  0  0  0
   44.8700   36.7340   43.8550 N   0  0  0  0  0  0  0  0  0  0  0  0
   45.5260   36.7350   41.8530 H   0  0  0  0  0  0  0  0  0  0  0  0
   44.2390   36.5550   45.8540 H   0  0  0  0  0  0  0  0  0  0  0  0
   45.3880   32.6270   44.0180 C   0  0  0  0  0  0  0  0  0  0  0  0
   44.8680   31.6860   43.1230 C   0  0  0  0  0  0  0  0  0  0  0  0
   44.9480   30.3300   43.3010 C   0  0  0  0  0  0  0  0  0  0  0  0
   45.5710   29.8260   44.4190 C   0  0  0  0  0  0  0  0  0  0  0  0
   46.1060   30.7660   45.3400 C   0  0  0  0  0  0  0  0  0  0  0  0
   46.7250   30.2780   46.4610 C   0  0  0  0  0  0  0  0  0  0  0  0
   47.2670   31.1320   47.3990 C   0  0  0  0  0  0  0  0  0  0  0  0
   47.1810   32.5220   47.1950 C   0  0  0  0  0  0  0  0  0  0  0  0
   46.5360   32.9750   46.0300 C   0  0  0  0  0  0  0  0  0  0  0  0
   46.0060   32.1010   45.1220 C   0  0  0  0  0  0  0  0  0  0  0  0
   44.3710   32.0290   42.2320 H   0  0  0  0  0  0  0  0  0  0  0  0
   44.5370   29.6310   42.5900 H   0  0  0  0  0  0  0  0  0  0  0  0
   45.6710   28.7820   44.6280 H   0  0  0  0  0  0  0  0  0  0  0  0
   46.7870   29.1980   46.6090 H   0  0  0  0  0  0  0  0  0  0  0  0
   47.7460   30.6880   48.2710 H   0  0  0  0  0  0  0  0  0  0  0  0
   47.6280   33.0880   47.9710 H   0  0  0  0  0  0  0  0  0  0  0  0
   46.5920   34.0420   46.0440 H   0  0  0  0  0  0  0  0  0  0  0  0
   45.9620   34.2080   41.5780 O   0  0  0  0  0  0  0  0  0  0  0  0
   47.8590   32.4890   41.0260 O   0  0  0  0  0  0  0  0  0  0  0  0
   47.5940   33.9420   41.2100 P   0  0  1  0  0  0  0  0  0  0  0  0
   48.0210   34.7130   39.7650 O   0  0  0  0  0  0  0  0  0  0  0  0
   47.8310   33.8860   38.6640 C   0  0  0  0  0  0  0  0  0  0  0  0
   48.0000   34.6740   37.5320 F   0  0  0  0  0  0  0  0  0  0  0  0
   48.7250   32.8400   38.6360 F   0  0  0  0  0  0  0  0  0  0  0  0
   46.5120   33.4750   38.6900 F   0  0  0  0  0  0  0  0  0  0  0  0
   48.5240   34.5750   42.4540 O   0  0  0  0  0  0  0  0  0  0  0  0
   49.7240   35.2560   42.3280 C   0  0  0  0  0  0  0  0  0  0  0  0
   49.4060   36.3820   41.9080 O   0  0  0  0  0  0  0  0  0  0  0  0
   50.8330   34.4180   42.7210 N   0  0  0  0  0  0  0  0  0  0  0  0
   50.9300   34.2190   43.7520 H   0  0  0  0  0  0  0  0  0  0  0  0
   51.5760   33.9660   42.1180 H   0  0  0  0  0  0  0  0  0  0  0  0
  1  6  1  0  0  0  0
  2  1  2  0  0  0  0
  2  3  1  0  0  0  0
  3  9  1  0  0  0  0
  3  4  2  0  0  0  0
  4  5  1  0  0  0  0
  5  8  1  0  0  0  0
  6  5  2  0  0  0  0
  7  1  1  0  0  0  0
  9 18  1  0  0  0  0
 10 11  1  0  0  0  0
 10  9  2  0  0  0  0
 11 12  2  0  0  0  0
 12 21  1  0  0  0  0
 12 13  1  0  0  0  0
 13 14  1  0  0  0  0
 14 22  1  0  0  0  0
 14 15  2  0  0  0  0
 15 23  1  0  0  0  0
 16 15  1  0  0  0  0
 16 24  1  0  0  0  0
 17 25  1  0  0  0  0
 17 16  2  0  0  0  0
 18 13  2  0  0  0  0
 18 17  1  0  0  0  0
 19 10  1  0  0  0  0
 20 11  1  0  0  0  0
 26  2  1  0  0  0  0
 28 27  2  6  0  0  0
 28 26  1  0  0  0  0
 28 34  1  0  0  0  0
 29 28  1  0  0  0  0
 30 33  1  0  0  0  0
 30 29  1  0  0  0  0
 31 30  1  0  0  0  0
 32 30  1  0  0  0  0
 35 34  1  0  0  0  0
 35 37  1  0  0  0  0
 36 35  2  0  0  0  0
 37 38  1  0  0  0  0
 39 37  1  0  0  0  0
M  END
>  <minimizedAffinity>
-5.91560698

>  <minimizedRMSD>
0.357628733

$$$$
