
 OpenBabel03252508063D

 39 41  0  0  0  0  0  0  0  0999 V2000
   45.3240   36.2560   42.7500 C   0  0  0  0  0  0  0  0  0  0  0  0
   45.4970   34.8830   42.6910 C   0  0  0  0  0  0  0  0  0  0  0  0
   45.2080   34.1080   43.7860 C   0  0  0  0  0  0  0  0  0  0  0  0
   44.7480   34.7640   44.9130 N   0  0  0  0  0  0  0  0  0  0  0  0
   44.5850   36.0820   44.9630 C   0  0  0  0  0  0  0  0  0  0  0  0
   44.8780   36.8190   43.8710 N   0  0  0  0  0  0  0  0  0  0  0  0
   45.5550   36.8830   41.8770 H   0  0  0  0  0  0  0  0  0  0  0  0
   44.2230   36.5770   45.8560 H   0  0  0  0  0  0  0  0  0  0  0  0
   45.3300   32.7020   43.8880 C   0  0  0  0  0  0  0  0  0  0  0  0
   44.7840   31.8010   42.9680 C   0  0  0  0  0  0  0  0  0  0  0  0
   44.8420   30.4390   43.0980 C   0  0  0  0  0  0  0  0  0  0  0  0
   45.4680   29.8850   44.1910 C   0  0  0  0  0  0  0  0  0  0  0  0
   46.0290   30.7840   45.1380 C   0  0  0  0  0  0  0  0  0  0  0  0
   46.6510   30.2460   46.2350 C   0  0  0  0  0  0  0  0  0  0  0  0
   47.2180   31.0580   47.1940 C   0  0  0  0  0  0  0  0  0  0  0  0
   47.1550   32.4550   47.0390 C   0  0  0  0  0  0  0  0  0  0  0  0
   46.5060   32.9590   45.8980 C   0  0  0  0  0  0  0  0  0  0  0  0
   45.9500   32.1270   44.9660 C   0  0  0  0  0  0  0  0  0  0  0  0
   44.2830   32.1830   42.0950 H   0  0  0  0  0  0  0  0  0  0  0  0
   44.4110   29.7720   42.3690 H   0  0  0  0  0  0  0  0  0  0  0  0
   45.5510   28.8330   44.3630 H   0  0  0  0  0  0  0  0  0  0  0  0
   46.6950   29.1610   46.3440 H   0  0  0  0  0  0  0  0  0  0  0  0
   47.6980   30.5750   48.0460 H   0  0  0  0  0  0  0  0  0  0  0  0
   47.6210   32.9860   47.8300 H   0  0  0  0  0  0  0  0  0  0  0  0
   46.5810   34.0250   45.9480 H   0  0  0  0  0  0  0  0  0  0  0  0
   45.9540   34.3600   41.5140 O   0  0  0  0  0  0  0  0  0  0  0  0
   47.7480   32.5110   41.0450 O   0  0  0  0  0  0  0  0  0  0  0  0
   47.5740   33.9820   41.1930 P   0  0  1  0  0  0  0  0  0  0  0  0
   48.0850   34.6910   39.7450 O   0  0  0  0  0  0  0  0  0  0  0  0
   47.7770   33.9000   38.6450 C   0  0  0  0  0  0  0  0  0  0  0  0
   48.7000   32.8620   38.6200 F   0  0  0  0  0  0  0  0  0  0  0  0
   46.5040   33.3830   38.7150 F   0  0  0  0  0  0  0  0  0  0  0  0
   47.9890   34.6710   37.5170 F   0  0  0  0  0  0  0  0  0  0  0  0
   48.5130   34.5800   42.4470 O   0  0  0  0  0  0  0  0  0  0  0  0
   49.7120   35.2640   42.3320 C   0  0  0  0  0  0  0  0  0  0  0  0
   49.3930   36.3920   41.9180 O   0  0  0  0  0  0  0  0  0  0  0  0
   50.8210   34.4260   42.7240 N   0  0  0  0  0  0  0  0  0  0  0  0
   50.9140   34.2200   43.7550 H   0  0  0  0  0  0  0  0  0  0  0  0
   51.5680   33.9810   42.1220 H   0  0  0  0  0  0  0  0  0  0  0  0
  1  6  1  0  0  0  0
  2  1  2  0  0  0  0
  2  3  1  0  0  0  0
  3  9  1  0  0  0  0
  3  4  2  0  0  0  0
  4  5  1  0  0  0  0
  5  8  1  0  0  0  0
  6  5  2  0  0  0  0
  7  1  1  0  0  0  0
  9 18  1  0  0  0  0
 10 11  1  0  0  0  0
 10  9  2  0  0  0  0
 11 12  2  0  0  0  0
 12 21  1  0  0  0  0
 12 13  1  0  0  0  0
 13 14  1  0  0  0  0
 14 22  1  0  0  0  0
 14 15  2  0  0  0  0
 15 23  1  0  0  0  0
 16 15  1  0  0  0  0
 16 24  1  0  0  0  0
 17 25  1  0  0  0  0
 17 16  2  0  0  0  0
 18 13  2  0  0  0  0
 18 17  1  0  0  0  0
 19 10  1  0  0  0  0
 20 11  1  0  0  0  0
 26  2  1  0  0  0  0
 28 27  2  6  0  0  0
 28 26  1  0  0  0  0
 28 34  1  0  0  0  0
 29 28  1  0  0  0  0
 30 32  1  0  0  0  0
 30 29  1  0  0  0  0
 31 30  1  0  0  0  0
 33 30  1  0  0  0  0
 35 34  1  0  0  0  0
 35 37  1  0  0  0  0
 36 35  2  0  0  0  0
 37 38  1  0  0  0  0
 39 37  1  0  0  0  0
M  END
>  <minimizedAffinity>
-5.85854101

>  <minimizedRMSD>
0.489458859

$$$$
