
 OpenBabel03242520473D

 23 23  0  0  0  0  0  0  0  0999 V2000
   37.6900   28.4850   42.5920 C   0  0  0  0  0  0  0  0  0  0  0  0
   38.0840   29.6050   43.0020 O   0  0  0  0  0  0  0  0  0  0  0  0
   38.3440   24.8580   42.3870 C   0  0  0  0  0  0  0  0  0  0  0  0
   37.7380   26.1190   42.2050 C   0  0  0  0  0  0  0  0  0  0  0  0
   38.3530   27.2210   42.8120 C   0  0  0  0  0  0  0  0  0  0  0  0
   39.4770   27.0510   43.5340 N   0  0  0  0  0  0  0  0  0  0  0  0
   40.0210   25.8170   43.6780 C   0  0  0  0  0  0  0  0  0  0  0  0
   39.4530   24.7460   43.1090 N   0  0  0  0  0  0  0  0  0  0  0  0
   37.7590   23.7180   41.7980 N   0  0  0  0  0  0  0  0  0  0  0  0
   36.8290   26.1880   41.6090 H   0  0  0  0  0  0  0  0  0  0  0  0
   40.9190   25.8090   44.2780 H   0  0  0  0  0  0  0  0  0  0  0  0
   38.0390   23.2090   40.9310 H   0  0  0  0  0  0  0  0  0  0  0  0
   36.9250   23.3420   42.3180 H   0  0  0  0  0  0  0  0  0  0  0  0
   36.5230   28.3290   41.8490 O   0  0  0  0  0  0  0  0  0  0  0  0
   34.6790   29.0200   40.0430 O   0  0  0  0  0  0  0  0  0  0  0  0
   35.9680   29.4280   40.6700 P   0  0  1  0  0  0  0  0  0  0  0  0
   35.7170   30.9030   41.4770 O   0  0  0  0  0  0  0  0  0  0  0  0
   34.8200   30.9440   41.8970 H   0  0  0  0  0  0  0  0  0  0  0  0
   37.1780   29.6440   39.5160 O   0  0  0  0  0  0  0  0  0  0  0  0
   36.7050   30.4640   38.5050 C   0  0  0  0  0  0  0  0  0  0  0  0
   35.5660   29.9900   37.9000 F   0  0  0  0  0  0  0  0  0  0  0  0
   37.7470   30.6450   37.5870 F   0  0  0  0  0  0  0  0  0  0  0  0
   36.4970   31.7120   39.0680 F   0  0  0  0  0  0  0  0  0  0  0  0
  1  5  1  0  0  0  0
  1  2  2  0  0  0  0
  3  8  1  0  0  0  0
  4  3  2  0  0  0  0
  4  5  1  0  0  0  0
  5  6  2  0  0  0  0
  6  7  1  0  0  0  0
  7 11  1  0  0  0  0
  8  7  2  0  0  0  0
  9 13  1  0  0  0  0
  9  3  1  0  0  0  0
 10  4  1  0  0  0  0
 12  9  1  0  0  0  0
 14  1  1  0  0  0  0
 16 15  2  6  0  0  0
 16 17  1  0  0  0  0
 16 14  1  0  0  0  0
 17 18  1  0  0  0  0
 19 16  1  0  0  0  0
 20 23  1  0  0  0  0
 20 19  1  0  0  0  0
 21 20  1  0  0  0  0
 22 20  1  0  0  0  0
M  END
>  <minimizedAffinity>
-5.12015533

$$$$

 OpenBabel03242520473D

 23 23  0  0  0  0  0  0  0  0999 V2000
   37.3990   30.6110   40.8520 C   0  0  0  0  0  0  0  0  0  0  0  0
   36.2040   30.8670   41.1430 O   0  0  0  0  0  0  0  0  0  0  0  0
   39.5080   32.3060   38.3410 C   0  0  0  0  0  0  0  0  0  0  0  0
   38.5820   31.4190   38.9280 C   0  0  0  0  0  0  0  0  0  0  0  0
   38.3570   31.5430   40.3050 C   0  0  0  0  0  0  0  0  0  0  0  0
   39.0150   32.4820   41.0120 N   0  0  0  0  0  0  0  0  0  0  0  0
   39.8960   33.3110   40.3980 C   0  0  0  0  0  0  0  0  0  0  0  0
   40.1300   33.2130   39.0840 N   0  0  0  0  0  0  0  0  0  0  0  0
   39.7700   32.2160   36.9570 N   0  0  0  0  0  0  0  0  0  0  0  0
   38.0830   30.6820   38.3010 H   0  0  0  0  0  0  0  0  0  0  0  0
   40.3600   34.0200   41.0700 H   0  0  0  0  0  0  0  0  0  0  0  0
   39.4120   32.8130   36.1810 H   0  0  0  0  0  0  0  0  0  0  0  0
   40.4190   31.4320   36.6900 H   0  0  0  0  0  0  0  0  0  0  0  0
   37.9580   29.3480   41.0300 O   0  0  0  0  0  0  0  0  0  0  0  0
   39.7960   29.0790   42.9510 O   0  0  0  0  0  0  0  0  0  0  0  0
   38.4180   28.6930   42.5350 P   0  0  1  0  0  0  0  0  0  0  0  0
   37.3290   29.3220   43.6790 O   0  0  0  0  0  0  0  0  0  0  0  0
   37.6150   30.2110   44.0100 H   0  0  0  0  0  0  0  0  0  0  0  0
   38.2340   27.0180   42.4780 O   0  0  0  0  0  0  0  0  0  0  0  0
   36.9510   26.7130   42.0560 C   0  0  0  0  0  0  0  0  0  0  0  0
   36.0280   27.6860   42.3560 F   0  0  0  0  0  0  0  0  0  0  0  0
   36.6070   25.4760   42.6160 F   0  0  0  0  0  0  0  0  0  0  0  0
   37.0220   26.4860   40.6910 F   0  0  0  0  0  0  0  0  0  0  0  0
  1 14  1  0  0  0  0
  1  2  2  0  0  0  0
  3  4  2  0  0  0  0
  3  8  1  0  0  0  0
  4  5  1  0  0  0  0
  5  1  1  0  0  0  0
  5  6  2  0  0  0  0
  7  6  1  0  0  0  0
  7 11  1  0  0  0  0
  8  7  2  0  0  0  0
  9  3  1  0  0  0  0
 10  4  1  0  0  0  0
 12  9  1  0  0  0  0
 13  9  1  0  0  0  0
 14 16  1  0  0  0  0
 16 15  2  1  0  0  0
 16 17  1  0  0  0  0
 17 18  1  0  0  0  0
 19 16  1  0  0  0  0
 20 21  1  0  0  0  0
 20 19  1  0  0  0  0
 20 22  1  0  0  0  0
 23 20  1  0  0  0  0
M  END
>  <minimizedAffinity>
-5.01408386

$$$$

 OpenBabel03242520473D

 23 23  0  0  0  0  0  0  0  0999 V2000
   36.2410   29.9860   40.5770 C   0  0  0  0  0  0  0  0  0  0  0  0
   36.0950   31.0110   41.2880 O   0  0  0  0  0  0  0  0  0  0  0  0
   37.4660   31.0110   37.2490 C   0  0  0  0  0  0  0  0  0  0  0  0
   37.2510   30.9820   38.6430 C   0  0  0  0  0  0  0  0  0  0  0  0
   36.4260   29.9670   39.1450 C   0  0  0  0  0  0  0  0  0  0  0  0
   35.8750   29.0710   38.3040 N   0  0  0  0  0  0  0  0  0  0  0  0
   36.1140   29.1430   36.9700 C   0  0  0  0  0  0  0  0  0  0  0  0
   36.8990   30.1030   36.4650 N   0  0  0  0  0  0  0  0  0  0  0  0
   38.2880   32.0170   36.6980 N   0  0  0  0  0  0  0  0  0  0  0  0
   37.7260   31.7360   39.2690 H   0  0  0  0  0  0  0  0  0  0  0  0
   35.6170   28.3710   36.4010 H   0  0  0  0  0  0  0  0  0  0  0  0
   39.2790   31.9540   36.3810 H   0  0  0  0  0  0  0  0  0  0  0  0
   37.8180   32.9530   36.5990 H   0  0  0  0  0  0  0  0  0  0  0  0
   36.2380   28.6990   41.1090 O   0  0  0  0  0  0  0  0  0  0  0  0
   38.6960   28.0920   41.9610 O   0  0  0  0  0  0  0  0  0  0  0  0
   37.2630   28.1650   42.3630 P   0  0  1  0  0  0  0  0  0  0  0  0
   37.1250   29.3120   43.6100 O   0  0  0  0  0  0  0  0  0  0  0  0
   37.7370   30.0790   43.4740 H   0  0  0  0  0  0  0  0  0  0  0  0
   36.7000   26.6800   42.9290 O   0  0  0  0  0  0  0  0  0  0  0  0
   37.1810   25.6680   42.1140 C   0  0  0  0  0  0  0  0  0  0  0  0
   37.1900   25.9950   40.7790 F   0  0  0  0  0  0  0  0  0  0  0  0
   36.4140   24.5240   42.3660 F   0  0  0  0  0  0  0  0  0  0  0  0
   38.4530   25.3600   42.5680 F   0  0  0  0  0  0  0  0  0  0  0  0
  1 14  1  0  0  0  0
  1  2  2  0  0  0  0
  3  4  1  0  0  0  0
  4  5  2  0  0  0  0
  4 10  1  0  0  0  0
  5  1  1  0  0  0  0
  6  5  1  0  0  0  0
  7  6  2  0  0  0  0
  8  7  1  0  0  0  0
  8  3  2  0  0  0  0
  9  3  1  0  0  0  0
 11  7  1  0  0  0  0
 12  9  1  0  0  0  0
 13  9  1  0  0  0  0
 14 16  1  0  0  0  0
 16 15  2  6  0  0  0
 16 19  1  0  0  0  0
 16 17  1  0  0  0  0
 18 17  1  0  0  0  0
 20 22  1  0  0  0  0
 20 23  1  0  0  0  0
 20 19  1  0  0  0  0
 21 20  1  0  0  0  0
M  END
>  <minimizedAffinity>
-4.97417641

$$$$

 OpenBabel03242520473D

 23 23  0  0  0  0  0  0  0  0999 V2000
   35.7030   29.0990   39.8110 C   0  0  0  0  0  0  0  0  0  0  0  0
   35.2120   28.3500   38.9310 O   0  0  0  0  0  0  0  0  0  0  0  0
   37.5280   31.7280   37.9720 C   0  0  0  0  0  0  0  0  0  0  0  0
   36.8440   30.5290   38.2600 C   0  0  0  0  0  0  0  0  0  0  0  0
   36.3970   30.3430   39.5740 C   0  0  0  0  0  0  0  0  0  0  0  0
   36.6270   31.2900   40.5030 N   0  0  0  0  0  0  0  0  0  0  0  0
   37.2910   32.4270   40.1750 C   0  0  0  0  0  0  0  0  0  0  0  0
   37.7290   32.6300   38.9260 N   0  0  0  0  0  0  0  0  0  0  0  0
   38.0000   31.9580   36.6630 N   0  0  0  0  0  0  0  0  0  0  0  0
   36.6890   29.8030   37.4630 H   0  0  0  0  0  0  0  0  0  0  0  0
   37.4140   33.1090   41.0040 H   0  0  0  0  0  0  0  0  0  0  0  0
   37.5900   32.5560   35.9130 H   0  0  0  0  0  0  0  0  0  0  0  0
   38.8890   31.4470   36.4270 H   0  0  0  0  0  0  0  0  0  0  0  0
   35.6330   28.8020   41.1700 O   0  0  0  0  0  0  0  0  0  0  0  0
   38.0800   28.5410   42.2100 O   0  0  0  0  0  0  0  0  0  0  0  0
   36.7700   27.8570   42.0170 P   0  0  1  0  0  0  0  0  0  0  0  0
   36.0980   27.5670   43.5510 O   0  0  0  0  0  0  0  0  0  0  0  0
   36.2860   28.3080   44.1810 H   0  0  0  0  0  0  0  0  0  0  0  0
   36.9530   26.3830   41.2200 O   0  0  0  0  0  0  0  0  0  0  0  0
   37.4980   25.4550   42.0920 C   0  0  0  0  0  0  0  0  0  0  0  0
   38.3210   26.0110   43.0420 F   0  0  0  0  0  0  0  0  0  0  0  0
   38.1630   24.4920   41.3230 F   0  0  0  0  0  0  0  0  0  0  0  0
   36.4350   24.7830   42.6750 F   0  0  0  0  0  0  0  0  0  0  0  0
  1 14  1  0  0  0  0
  2  1  2  0  0  0  0
  3  4  2  0  0  0  0
  3  8  1  0  0  0  0
  4  5  1  0  0  0  0
  5  1  1  0  0  0  0
  5  6  2  0  0  0  0
  7  6  1  0  0  0  0
  7 11  1  0  0  0  0
  8  7  2  0  0  0  0
  9  3  1  0  0  0  0
 10  4  1  0  0  0  0
 12  9  1  0  0  0  0
 13  9  1  0  0  0  0
 14 16  1  0  0  0  0
 16 15  2  1  0  0  0
 16 17  1  0  0  0  0
 17 18  1  0  0  0  0
 19 16  1  0  0  0  0
 19 20  1  0  0  0  0
 20 23  1  0  0  0  0
 20 21  1  0  0  0  0
 22 20  1  0  0  0  0
M  END
>  <minimizedAffinity>
-4.88090467

$$$$

 OpenBabel03242520473D

 23 23  0  0  0  0  0  0  0  0999 V2000
   36.8220   30.3770   38.6860 C   0  0  0  0  0  0  0  0  0  0  0  0
   37.1100   31.5950   38.7810 O   0  0  0  0  0  0  0  0  0  0  0  0
   36.3100   29.1500   35.2420 C   0  0  0  0  0  0  0  0  0  0  0  0
   36.9020   29.7530   36.3710 C   0  0  0  0  0  0  0  0  0  0  0  0
   36.1670   29.7460   37.5630 C   0  0  0  0  0  0  0  0  0  0  0  0
   34.9470   29.1780   37.5980 N   0  0  0  0  0  0  0  0  0  0  0  0
   34.4220   28.6110   36.4830 C   0  0  0  0  0  0  0  0  0  0  0  0
   35.1030   28.6040   35.3300 N   0  0  0  0  0  0  0  0  0  0  0  0
   37.0110   29.1360   34.0180 N   0  0  0  0  0  0  0  0  0  0  0  0
   37.8930   30.1960   36.2770 H   0  0  0  0  0  0  0  0  0  0  0  0
   33.4390   28.1890   36.6360 H   0  0  0  0  0  0  0  0  0  0  0  0
   37.5450   28.3570   33.5760 H   0  0  0  0  0  0  0  0  0  0  0  0
   36.9800   30.0470   33.4910 H   0  0  0  0  0  0  0  0  0  0  0  0
   37.1100   29.4590   39.6920 O   0  0  0  0  0  0  0  0  0  0  0  0
   38.0250   30.1480   42.1050 O   0  0  0  0  0  0  0  0  0  0  0  0
   36.8160   29.7130   41.3520 P   0  0  1  0  0  0  0  0  0  0  0  0
   35.6620   30.9580   41.4440 O   0  0  0  0  0  0  0  0  0  0  0  0
   36.0850   31.8540   41.4100 H   0  0  0  0  0  0  0  0  0  0  0  0
   36.1500   28.3090   42.0060 O   0  0  0  0  0  0  0  0  0  0  0  0
   37.1620   27.5290   42.5400 C   0  0  0  0  0  0  0  0  0  0  0  0
   37.7200   28.0560   43.6790 F   0  0  0  0  0  0  0  0  0  0  0  0
   38.1160   27.3290   41.5350 F   0  0  0  0  0  0  0  0  0  0  0  0
   36.6170   26.2760   42.7770 F   0  0  0  0  0  0  0  0  0  0  0  0
  1  2  2  0  0  0  0
  1 14  1  0  0  0  0
  3  8  2  0  0  0  0
  3  4  1  0  0  0  0
  4  5  2  0  0  0  0
  5  6  1  0  0  0  0
  5  1  1  0  0  0  0
  7 11  1  0  0  0  0
  7  6  2  0  0  0  0
  8  7  1  0  0  0  0
  9  3  1  0  0  0  0
 10  4  1  0  0  0  0
 12  9  1  0  0  0  0
 13  9  1  0  0  0  0
 14 16  1  0  0  0  0
 16 17  1  0  0  0  0
 16 19  1  0  0  0  0
 16 15  2  1  0  0  0
 18 17  1  0  0  0  0
 19 20  1  0  0  0  0
 20 23  1  0  0  0  0
 20 21  1  0  0  0  0
 22 20  1  0  0  0  0
M  END
>  <minimizedAffinity>
-4.86034918

$$$$

 OpenBabel03242520473D

 23 23  0  0  0  0  0  0  0  0999 V2000
   36.7650   29.2730   40.6330 C   0  0  0  0  0  0  0  0  0  0  0  0
   35.5270   29.2130   40.8360 O   0  0  0  0  0  0  0  0  0  0  0  0
   37.5340   32.5840   39.1950 C   0  0  0  0  0  0  0  0  0  0  0  0
   36.9050   31.5640   39.9390 C   0  0  0  0  0  0  0  0  0  0  0  0
   37.4480   30.2760   39.8510 C   0  0  0  0  0  0  0  0  0  0  0  0
   38.5270   30.0530   39.0770 N   0  0  0  0  0  0  0  0  0  0  0  0
   39.0950   31.0690   38.3810 C   0  0  0  0  0  0  0  0  0  0  0  0
   38.5960   32.3090   38.4470 N   0  0  0  0  0  0  0  0  0  0  0  0
   37.0210   33.8970   39.2500 N   0  0  0  0  0  0  0  0  0  0  0  0
   36.0350   31.8110   40.5460 H   0  0  0  0  0  0  0  0  0  0  0  0
   39.9530   30.7650   37.7980 H   0  0  0  0  0  0  0  0  0  0  0  0
   37.3710   34.7170   39.7910 H   0  0  0  0  0  0  0  0  0  0  0  0
   36.1660   34.0520   38.6550 H   0  0  0  0  0  0  0  0  0  0  0  0
   37.6550   28.3400   41.1600 O   0  0  0  0  0  0  0  0  0  0  0  0
   39.0650   27.6600   43.3240 O   0  0  0  0  0  0  0  0  0  0  0  0
   37.6860   27.8400   42.7890 P   0  0  1  0  0  0  0  0  0  0  0  0
   36.9330   29.0760   43.6790 O   0  0  0  0  0  0  0  0  0  0  0  0
   37.5700   29.7980   43.9180 H   0  0  0  0  0  0  0  0  0  0  0  0
   36.7730   26.4310   42.9420 O   0  0  0  0  0  0  0  0  0  0  0  0
   37.1430   25.5360   41.9510 C   0  0  0  0  0  0  0  0  0  0  0  0
   38.5030   25.4060   41.8070 F   0  0  0  0  0  0  0  0  0  0  0  0
   36.5290   25.9480   40.7620 F   0  0  0  0  0  0  0  0  0  0  0  0
   36.5490   24.3240   42.2660 F   0  0  0  0  0  0  0  0  0  0  0  0
  1  2  2  0  0  0  0
  1 14  1  0  0  0  0
  3  9  1  0  0  0  0
  3  4  1  0  0  0  0
  4 10  1  0  0  0  0
  5  4  2  0  0  0  0
  5  1  1  0  0  0  0
  6  5  1  0  0  0  0
  7  8  1  0  0  0  0
  7  6  2  0  0  0  0
  8  3  2  0  0  0  0
  9 12  1  0  0  0  0
 11  7  1  0  0  0  0
 13  9  1  0  0  0  0
 14 16  1  0  0  0  0
 16 19  1  0  0  0  0
 16 15  2  1  0  0  0
 16 17  1  0  0  0  0
 17 18  1  0  0  0  0
 20 23  1  0  0  0  0
 20 19  1  0  0  0  0
 21 20  1  0  0  0  0
 22 20  1  0  0  0  0
M  END
>  <minimizedAffinity>
-4.82965517

$$$$

 OpenBabel03242520473D

 23 23  0  0  0  0  0  0  0  0999 V2000
   37.5790   30.0930   39.1420 C   0  0  0  0  0  0  0  0  0  0  0  0
   36.6090   29.9710   38.3540 O   0  0  0  0  0  0  0  0  0  0  0  0
   39.0590   33.2370   40.3870 C   0  0  0  0  0  0  0  0  0  0  0  0
   38.2160   32.1130   40.2670 C   0  0  0  0  0  0  0  0  0  0  0  0
   38.4740   31.2240   39.2160 C   0  0  0  0  0  0  0  0  0  0  0  0
   39.4940   31.4610   38.3700 N   0  0  0  0  0  0  0  0  0  0  0  0
   40.2770   32.5580   38.5290 C   0  0  0  0  0  0  0  0  0  0  0  0
   40.0520   33.4230   39.5250 N   0  0  0  0  0  0  0  0  0  0  0  0
   38.8360   34.1610   41.4290 N   0  0  0  0  0  0  0  0  0  0  0  0
   37.4070   31.9780   40.9850 H   0  0  0  0  0  0  0  0  0  0  0  0
   41.0610   32.6390   37.7890 H   0  0  0  0  0  0  0  0  0  0  0  0
   39.3430   34.2650   42.3340 H   0  0  0  0  0  0  0  0  0  0  0  0
   38.0440   34.8310   41.2500 H   0  0  0  0  0  0  0  0  0  0  0  0
   37.9170   29.1110   40.0690 O   0  0  0  0  0  0  0  0  0  0  0  0
   37.4930   29.3070   42.7000 O   0  0  0  0  0  0  0  0  0  0  0  0
   36.9840   28.7030   41.4360 P   0  0  1  0  0  0  0  0  0  0  0  0
   35.4270   29.3210   41.1490 O   0  0  0  0  0  0  0  0  0  0  0  0
   35.3530   30.2720   41.4170 H   0  0  0  0  0  0  0  0  0  0  0  0
   36.8870   27.0240   41.5470 O   0  0  0  0  0  0  0  0  0  0  0  0
   36.7600   26.6600   42.8770 C   0  0  0  0  0  0  0  0  0  0  0  0
   35.8310   27.4030   43.5640 F   0  0  0  0  0  0  0  0  0  0  0  0
   38.0310   26.7440   43.4610 F   0  0  0  0  0  0  0  0  0  0  0  0
   36.4410   25.3110   42.8940 F   0  0  0  0  0  0  0  0  0  0  0  0
  1  5  1  0  0  0  0
  1 14  1  0  0  0  0
  2  1  2  0  0  0  0
  3  9  1  0  0  0  0
  4  3  1  0  0  0  0
  4 10  1  0  0  0  0
  5  4  2  0  0  0  0
  6  7  2  0  0  0  0
  6  5  1  0  0  0  0
  7  8  1  0  0  0  0
  8  3  2  0  0  0  0
  9 12  1  0  0  0  0
 11  7  1  0  0  0  0
 13  9  1  0  0  0  0
 14 16  1  0  0  0  0
 16 19  1  0  0  0  0
 16 15  2  1  0  0  0
 17 18  1  0  0  0  0
 17 16  1  0  0  0  0
 19 20  1  0  0  0  0
 20 23  1  0  0  0  0
 20 22  1  0  0  0  0
 20 21  1  0  0  0  0
M  END
>  <minimizedAffinity>
-4.79621983

$$$$

 OpenBabel03242520473D

 23 23  0  0  0  0  0  0  0  0999 V2000
   38.3800   31.3850   38.4570 C   0  0  0  0  0  0  0  0  0  0  0  0
   38.3470   30.4990   37.5680 O   0  0  0  0  0  0  0  0  0  0  0  0
   41.4710   33.2870   37.7840 C   0  0  0  0  0  0  0  0  0  0  0  0
   40.4280   32.3460   37.6600 C   0  0  0  0  0  0  0  0  0  0  0  0
   39.4220   32.3690   38.6340 C   0  0  0  0  0  0  0  0  0  0  0  0
   39.4780   33.2660   39.6370 N   0  0  0  0  0  0  0  0  0  0  0  0
   40.5050   34.1500   39.7110 C   0  0  0  0  0  0  0  0  0  0  0  0
   41.4780   34.1490   38.7930 N   0  0  0  0  0  0  0  0  0  0  0  0
   42.5080   33.2990   36.8270 N   0  0  0  0  0  0  0  0  0  0  0  0
   40.4400   31.6470   36.8240 H   0  0  0  0  0  0  0  0  0  0  0  0
   40.4390   34.8170   40.5590 H   0  0  0  0  0  0  0  0  0  0  0  0
   42.6490   33.9440   36.0200 H   0  0  0  0  0  0  0  0  0  0  0  0
   43.2310   32.5460   36.9630 H   0  0  0  0  0  0  0  0  0  0  0  0
   37.3770   31.5240   39.4130 O   0  0  0  0  0  0  0  0  0  0  0  0
   38.2510   30.7940   41.8290 O   0  0  0  0  0  0  0  0  0  0  0  0
   37.2090   30.5410   40.7950 P   0  0  1  0  0  0  0  0  0  0  0  0
   35.6960   30.9240   41.4690 O   0  0  0  0  0  0  0  0  0  0  0  0
   35.7490   31.7100   42.0690 H   0  0  0  0  0  0  0  0  0  0  0  0
   37.1930   28.9250   40.3130 O   0  0  0  0  0  0  0  0  0  0  0  0
   35.8810   28.4940   40.2030 C   0  0  0  0  0  0  0  0  0  0  0  0
   35.0940   29.3190   39.4350 F   0  0  0  0  0  0  0  0  0  0  0  0
   35.3740   28.3470   41.5000 F   0  0  0  0  0  0  0  0  0  0  0  0
   35.9250   27.2100   39.6830 F   0  0  0  0  0  0  0  0  0  0  0  0
  1  5  1  0  0  0  0
  1 14  1  0  0  0  0
  2  1  2  0  0  0  0
  3  8  1  0  0  0  0
  4  3  2  0  0  0  0
  4  5  1  0  0  0  0
  5  6  2  0  0  0  0
  6  7  1  0  0  0  0
  7 11  1  0  0  0  0
  8  7  2  0  0  0  0
  9 13  1  0  0  0  0
  9  3  1  0  0  0  0
 10  4  1  0  0  0  0
 12  9  1  0  0  0  0
 14 16  1  0  0  0  0
 16 17  1  0  0  0  0
 16 15  2  1  0  0  0
 17 18  1  0  0  0  0
 19 16  1  0  0  0  0
 20 19  1  0  0  0  0
 20 22  1  0  0  0  0
 21 20  1  0  0  0  0
 23 20  1  0  0  0  0
M  END
>  <minimizedAffinity>
-4.63370132

$$$$

 OpenBabel03242520473D

 23 23  0  0  0  0  0  0  0  0999 V2000
   39.2970   29.0160   38.9040 C   0  0  0  0  0  0  0  0  0  0  0  0
   40.3700   28.3830   39.0640 O   0  0  0  0  0  0  0  0  0  0  0  0
   37.0960   28.9900   41.8670 C   0  0  0  0  0  0  0  0  0  0  0  0
   38.2400   29.1300   41.0540 C   0  0  0  0  0  0  0  0  0  0  0  0
   38.0940   28.8580   39.6880 C   0  0  0  0  0  0  0  0  0  0  0  0
   36.8970   28.4800   39.2010 N   0  0  0  0  0  0  0  0  0  0  0  0
   35.8270   28.3620   40.0270 C   0  0  0  0  0  0  0  0  0  0  0  0
   35.9390   28.6150   41.3360 N   0  0  0  0  0  0  0  0  0  0  0  0
   37.1950   29.2510   43.2500 N   0  0  0  0  0  0  0  0  0  0  0  0
   39.1790   29.4390   41.5100 H   0  0  0  0  0  0  0  0  0  0  0  0
   34.9240   28.0530   39.5190 H   0  0  0  0  0  0  0  0  0  0  0  0
   36.8990   30.0970   43.7820 H   0  0  0  0  0  0  0  0  0  0  0  0
   37.6300   28.4700   43.8070 H   0  0  0  0  0  0  0  0  0  0  0  0
   39.1390   29.9810   37.9130 O   0  0  0  0  0  0  0  0  0  0  0  0
   41.0230   31.8330   38.3130 O   0  0  0  0  0  0  0  0  0  0  0  0
   39.5660   31.6230   38.0790 P   0  0  1  0  0  0  0  0  0  0  0  0
   39.1560   32.3710   36.6090 O   0  0  0  0  0  0  0  0  0  0  0  0
   39.8780   32.2810   35.9360 H   0  0  0  0  0  0  0  0  0  0  0  0
   38.6370   32.3050   39.3100 O   0  0  0  0  0  0  0  0  0  0  0  0
   37.3020   32.2830   38.9410 C   0  0  0  0  0  0  0  0  0  0  0  0
   37.0490   31.4990   37.8420 F   0  0  0  0  0  0  0  0  0  0  0  0
   36.8990   33.6100   38.7400 F   0  0  0  0  0  0  0  0  0  0  0  0
   36.5890   31.8500   40.0470 F   0  0  0  0  0  0  0  0  0  0  0  0
  1  2  2  0  0  0  0
  1  5  1  0  0  0  0
  3  9  1  0  0  0  0
  4 10  1  0  0  0  0
  4  3  2  0  0  0  0
  5  4  1  0  0  0  0
  6  5  2  0  0  0  0
  6  7  1  0  0  0  0
  7  8  2  0  0  0  0
  8  3  1  0  0  0  0
  9 12  1  0  0  0  0
  9 13  1  0  0  0  0
 11  7  1  0  0  0  0
 14 16  1  0  0  0  0
 14  1  1  0  0  0  0
 16 15  2  1  0  0  0
 16 19  1  0  0  0  0
 17 16  1  0  0  0  0
 18 17  1  0  0  0  0
 20 19  1  0  0  0  0
 20 23  1  0  0  0  0
 21 20  1  0  0  0  0
 22 20  1  0  0  0  0
M  END
>  <minimizedAffinity>
-4.53452492

$$$$
