
 OpenBabel03252507543D

 39 41  0  0  1  0  0  0  0  0999 V2000
   47.0150   34.8000   41.9700 C   0  0  2  0  0  0  0  0  0  0  0  0
   46.2070   34.2210   40.8050 C   0  0  0  0  0  0  0  0  0  0  0  0
   47.3790   34.0420   39.8150 C   0  0  0  0  0  0  0  0  0  0  0  0
   48.5400   33.6260   40.6650 C   0  0  1  0  0  0  0  0  0  0  0  0
   48.0700   33.7340   42.0870 C   0  0  0  0  0  0  0  0  0  0  0  0
   47.3840   35.7760   41.6550 H   0  0  0  0  0  0  0  0  0  0  0  0
   45.4850   34.9520   40.4360 H   0  0  0  0  0  0  0  0  0  0  0  0
   45.7840   33.2490   41.0940 H   0  0  0  0  0  0  0  0  0  0  0  0
   47.6150   35.0550   39.4220 H   0  0  0  0  0  0  0  0  0  0  0  0
   47.1290   33.3390   39.0090 H   0  0  0  0  0  0  0  0  0  0  0  0
   49.4380   34.2650   40.4950 H   0  0  0  0  0  0  0  0  0  0  0  0
   47.6430   32.8270   42.5100 H   0  0  0  0  0  0  0  0  0  0  0  0
   48.8940   34.1620   42.7030 H   0  0  0  0  0  0  0  0  0  0  0  0
   44.5360   35.9080   44.5810 C   0  0  0  0  0  0  0  0  0  0  0  0
   45.2380   35.9060   43.3800 C   0  0  0  0  0  0  0  0  0  0  0  0
   46.1810   34.8980   43.2030 C   0  0  0  0  0  0  0  0  0  0  0  0
   46.3960   33.9400   44.2040 N   0  0  0  0  0  0  0  0  0  0  0  0
   45.6780   33.9980   45.3550 C   0  0  0  0  0  0  0  0  0  0  0  0
   44.7520   34.9800   45.5390 N   0  0  0  0  0  0  0  0  0  0  0  0
   43.7970   36.6840   44.7380 H   0  0  0  0  0  0  0  0  0  0  0  0
   45.1020   36.6240   42.5870 H   0  0  0  0  0  0  0  0  0  0  0  0
   45.9030   33.2300   46.0670 H   0  0  0  0  0  0  0  0  0  0  0  0
   48.9890   32.1970   40.4530 C   0  0  2  0  0  0  0  0  0  0  0  0
   49.6350   31.5510   41.5840 C   0  0  0  0  0  0  0  0  0  0  0  0
   50.4040   31.8470   40.3350 C   0  0  1  0  0  0  0  0  0  0  0  0
   48.2760   31.6020   39.8520 H   0  0  0  0  0  0  0  0  0  0  0  0
   49.8970   32.1790   42.4640 H   0  0  0  0  0  0  0  0  0  0  0  0
   49.4360   30.4950   41.8650 H   0  0  0  0  0  0  0  0  0  0  0  0
   51.0750   32.7220   40.2340 H   0  0  0  0  0  0  0  0  0  0  0  0
   50.7300   30.7450   39.5030 O   0  0  0  0  0  0  0  0  0  0  0  0
   52.5730   29.9260   37.8490 O   0  0  0  0  0  0  0  0  0  0  0  0
   52.1980   31.0730   38.7540 P   0  0  1  0  0  0  0  0  0  0  0  0
   52.0620   32.4770   37.7800 O   0  0  0  0  0  0  0  0  0  0  0  0
   51.6240   32.2200   36.9310 H   0  0  0  0  0  0  0  0  0  0  0  0
   53.4530   31.3410   39.8110 O   0  0  0  0  0  0  0  0  0  0  0  0
   53.8430   30.0820   40.3200 C   0  0  0  0  0  0  0  0  0  0  0  0
   52.7010   29.4180   40.7110 F   0  0  0  0  0  0  0  0  0  0  0  0
   54.5310   29.3460   39.3970 F   0  0  0  0  0  0  0  0  0  0  0  0
   54.6930   30.2290   41.4150 F   0  0  0  0  0  0  0  0  0  0  0  0
  1  6  1  6  0  0  0
  1  5  1  0  0  0  0
  1 16  1  0  0  0  0
  2  8  1  0  0  0  0
  2  1  1  0  0  0  0
  3  4  1  0  0  0  0
  3  2  1  0  0  0  0
  4 11  1  6  0  0  0
  4  5  1  0  0  0  0
  5 12  1  0  0  0  0
  5 13  1  0  0  0  0
  7  2  1  0  0  0  0
  9  3  1  0  0  0  0
 10  3  1  0  0  0  0
 14 20  1  0  0  0  0
 14 19  1  0  0  0  0
 15 14  2  0  0  0  0
 16 15  1  0  0  0  0
 16 17  2  0  0  0  0
 17 18  1  0  0  0  0
 18 19  2  0  0  0  0
 18 22  1  0  0  0  0
 21 15  1  0  0  0  0
 23 26  1  6  0  0  0
 23  4  1  0  0  0  0
 23 24  1  0  0  0  0
 24 28  1  0  0  0  0
 24 27  1  0  0  0  0
 25 29  1  1  0  0  0
 25 23  1  0  0  0  0
 25 24  1  0  0  0  0
 30 25  1  0  0  0  0
 32 31  2  6  0  0  0
 32 30  1  0  0  0  0
 32 35  1  0  0  0  0
 33 32  1  0  0  0  0
 34 33  1  0  0  0  0
 35 36  1  0  0  0  0
 36 37  1  0  0  0  0
 36 39  1  0  0  0  0
 38 36  1  0  0  0  0
M  END
>  <minimizedAffinity>
-5.11606407

>  <minimizedRMSD>
0.666334569

$$$$
