
 OpenBabel03252500553D

 25 25  0  0  0  0  0  0  0  0999 V2000
   37.0870   26.6130   42.0540 C   0  0  0  0  0  0  0  0  0  0  0  0
   36.8790   27.2990   40.8610 C   0  0  0  0  0  0  0  0  0  0  0  0
   36.6310   26.5190   39.7150 C   0  0  0  0  0  0  0  0  0  0  0  0
   36.6100   25.1810   39.8440 N   0  0  0  0  0  0  0  0  0  0  0  0
   36.8130   24.5470   41.0060 C   0  0  0  0  0  0  0  0  0  0  0  0
   37.0500   25.2750   42.0990 N   0  0  0  0  0  0  0  0  0  0  0  0
   36.4740   27.0830   38.8120 H   0  0  0  0  0  0  0  0  0  0  0  0
   36.7690   23.4810   40.9660 H   0  0  0  0  0  0  0  0  0  0  0  0
   37.3500   27.3340   43.2880 C   0  0  0  0  0  0  0  0  0  0  0  0
   36.7460   26.9100   44.1230 H   0  0  0  0  0  0  0  0  0  0  0  0
   37.0500   28.4030   43.2430 H   0  0  0  0  0  0  0  0  0  0  0  0
   38.7960   27.1660   43.6790 C   0  0  0  0  0  0  0  0  0  0  0  0
   39.3500   26.5880   42.8880 H   0  0  0  0  0  0  0  0  0  0  0  0
   39.2860   28.1800   43.6620 H   0  0  0  0  0  0  0  0  0  0  0  0
   38.9330   26.6670   44.6440 H   0  0  0  0  0  0  0  0  0  0  0  0
   36.9390   28.6740   40.9280 O   0  0  0  0  0  0  0  0  0  0  0  0
   34.4520   29.0830   40.2030 O   0  0  0  0  0  0  0  0  0  0  0  0
   35.8130   29.7540   40.2960 P   0  0  1  0  0  0  0  0  0  0  0  0
   35.7100   31.0860   41.3420 O   0  0  0  0  0  0  0  0  0  0  0  0
   36.5050   31.1410   41.9420 H   0  0  0  0  0  0  0  0  0  0  0  0
   36.2470   30.3470   38.7530 O   0  0  0  0  0  0  0  0  0  0  0  0
   37.2540   31.2970   38.8290 C   0  0  0  0  0  0  0  0  0  0  0  0
   38.2220   30.8900   39.7240 F   0  0  0  0  0  0  0  0  0  0  0  0
   37.8820   31.4810   37.6130 F   0  0  0  0  0  0  0  0  0  0  0  0
   36.6760   32.4840   39.1610 F   0  0  0  0  0  0  0  0  0  0  0  0
  1  6  1  0  0  0  0
  1  9  1  0  0  0  0
  2 16  1  0  0  0  0
  2  1  2  0  0  0  0
  3  4  2  0  0  0  0
  3  2  1  0  0  0  0
  4  5  1  0  0  0  0
  5  6  2  0  0  0  0
  7  3  1  0  0  0  0
  8  5  1  0  0  0  0
  9 12  1  0  0  0  0
  9 10  1  0  0  0  0
 11  9  1  0  0  0  0
 12 15  1  0  0  0  0
 13 12  1  0  0  0  0
 14 12  1  0  0  0  0
 18 17  2  6  0  0  0
 18 16  1  0  0  0  0
 18 19  1  0  0  0  0
 19 20  1  0  0  0  0
 21 22  1  0  0  0  0
 21 18  1  0  0  0  0
 22 25  1  0  0  0  0
 22 23  1  0  0  0  0
 24 22  1  0  0  0  0
M  END
>  <minimizedAffinity>
-4.71989632

$$$$

 OpenBabel03252500553D

 25 25  0  0  0  0  0  0  0  0999 V2000
   38.4560   27.6130   43.1770 C   0  0  0  0  0  0  0  0  0  0  0  0
   38.6600   28.9350   42.7900 C   0  0  0  0  0  0  0  0  0  0  0  0
   39.9970   29.3660   42.6850 C   0  0  0  0  0  0  0  0  0  0  0  0
   40.9760   28.4880   42.9630 N   0  0  0  0  0  0  0  0  0  0  0  0
   40.7500   27.2210   43.3330 C   0  0  0  0  0  0  0  0  0  0  0  0
   39.4880   26.8000   43.4360 N   0  0  0  0  0  0  0  0  0  0  0  0
   40.1160   30.3920   42.3830 H   0  0  0  0  0  0  0  0  0  0  0  0
   41.6190   26.6320   43.5240 H   0  0  0  0  0  0  0  0  0  0  0  0
   37.1100   27.0800   43.3110 C   0  0  0  0  0  0  0  0  0  0  0  0
   36.3580   27.8380   42.9930 H   0  0  0  0  0  0  0  0  0  0  0  0
   36.8370   26.8390   44.3610 H   0  0  0  0  0  0  0  0  0  0  0  0
   36.9370   25.8960   42.3930 C   0  0  0  0  0  0  0  0  0  0  0  0
   37.9080   25.6560   41.8780 H   0  0  0  0  0  0  0  0  0  0  0  0
   36.7370   24.9860   43.0260 H   0  0  0  0  0  0  0  0  0  0  0  0
   36.1610   26.0410   41.6360 H   0  0  0  0  0  0  0  0  0  0  0  0
   37.5280   29.6830   42.5480 O   0  0  0  0  0  0  0  0  0  0  0  0
   36.5610   28.8840   40.2460 O   0  0  0  0  0  0  0  0  0  0  0  0
   36.9290   30.1270   41.0400 P   0  0  1  0  0  0  0  0  0  0  0  0
   35.5390   31.0710   41.2780 O   0  0  0  0  0  0  0  0  0  0  0  0
   35.4990   31.4350   42.2050 H   0  0  0  0  0  0  0  0  0  0  0  0
   38.0320   31.0610   40.1290 O   0  0  0  0  0  0  0  0  0  0  0  0
   37.3900   31.8410   39.1790 C   0  0  0  0  0  0  0  0  0  0  0  0
   36.8850   32.9820   39.7670 F   0  0  0  0  0  0  0  0  0  0  0  0
   38.2500   32.2480   38.1790 F   0  0  0  0  0  0  0  0  0  0  0  0
   36.4340   31.0680   38.5920 F   0  0  0  0  0  0  0  0  0  0  0  0
  1  9  1  0  0  0  0
  1  6  1  0  0  0  0
  2  1  2  0  0  0  0
  3  2  1  0  0  0  0
  3  4  2  0  0  0  0
  4  5  1  0  0  0  0
  5  6  2  0  0  0  0
  5  8  1  0  0  0  0
  7  3  1  0  0  0  0
  9 11  1  0  0  0  0
 10  9  1  0  0  0  0
 12 14  1  0  0  0  0
 12  9  1  0  0  0  0
 13 12  1  0  0  0  0
 15 12  1  0  0  0  0
 16  2  1  0  0  0  0
 18 17  2  6  0  0  0
 18 19  1  0  0  0  0
 18 16  1  0  0  0  0
 19 20  1  0  0  0  0
 21 18  1  0  0  0  0
 22 23  1  0  0  0  0
 22 21  1  0  0  0  0
 24 22  1  0  0  0  0
 25 22  1  0  0  0  0
M  END
>  <minimizedAffinity>
-4.70342922

$$$$

 OpenBabel03252500553D

 25 25  0  0  0  0  0  0  0  0999 V2000
   37.0210   30.1980   39.8790 C   0  0  0  0  0  0  0  0  0  0  0  0
   37.9970   29.9170   40.8320 C   0  0  0  0  0  0  0  0  0  0  0  0
   38.7860   30.9980   41.2700 C   0  0  0  0  0  0  0  0  0  0  0  0
   38.5510   32.2140   40.7490 N   0  0  0  0  0  0  0  0  0  0  0  0
   37.6040   32.4550   39.8330 C   0  0  0  0  0  0  0  0  0  0  0  0
   36.8490   31.4390   39.4090 N   0  0  0  0  0  0  0  0  0  0  0  0
   39.5290   30.7430   42.0060 H   0  0  0  0  0  0  0  0  0  0  0  0
   37.5250   33.4680   39.5040 H   0  0  0  0  0  0  0  0  0  0  0  0
   36.1590   29.1440   39.3690 C   0  0  0  0  0  0  0  0  0  0  0  0
   36.5780   28.1420   39.6200 H   0  0  0  0  0  0  0  0  0  0  0  0
   36.0790   29.1430   38.2600 H   0  0  0  0  0  0  0  0  0  0  0  0
   34.8090   29.2210   40.0360 C   0  0  0  0  0  0  0  0  0  0  0  0
   34.7590   30.1180   40.7140 H   0  0  0  0  0  0  0  0  0  0  0  0
   34.0370   29.4390   39.2450 H   0  0  0  0  0  0  0  0  0  0  0  0
   34.5560   28.3260   40.6130 H   0  0  0  0  0  0  0  0  0  0  0  0
   38.0880   28.6050   41.2470 O   0  0  0  0  0  0  0  0  0  0  0  0
   39.1450   27.7330   43.4820 O   0  0  0  0  0  0  0  0  0  0  0  0
   37.8160   28.0300   42.8040 P   0  0  1  0  0  0  0  0  0  0  0  0
   36.9980   29.2310   43.6790 O   0  0  0  0  0  0  0  0  0  0  0  0
   36.5720   29.8980   43.0720 H   0  0  0  0  0  0  0  0  0  0  0  0
   36.8480   26.6220   42.8380 O   0  0  0  0  0  0  0  0  0  0  0  0
   37.1830   25.7400   41.8220 C   0  0  0  0  0  0  0  0  0  0  0  0
   38.5540   25.6500   41.7050 F   0  0  0  0  0  0  0  0  0  0  0  0
   36.7150   24.4650   42.0710 F   0  0  0  0  0  0  0  0  0  0  0  0
   36.5710   26.1730   40.6840 F   0  0  0  0  0  0  0  0  0  0  0  0
  1  2  1  0  0  0  0
  2 16  1  0  0  0  0
  2  3  2  0  0  0  0
  3  7  1  0  0  0  0
  4  3  1  0  0  0  0
  5  4  2  0  0  0  0
  6  5  1  0  0  0  0
  6  1  2  0  0  0  0
  8  5  1  0  0  0  0
  9 10  1  0  0  0  0
  9  1  1  0  0  0  0
  9 12  1  0  0  0  0
 11  9  1  0  0  0  0
 12 15  1  0  0  0  0
 12 13  1  0  0  0  0
 14 12  1  0  0  0  0
 16 18  1  0  0  0  0
 18 21  1  0  0  0  0
 18 17  2  1  0  0  0
 18 19  1  0  0  0  0
 20 19  1  0  0  0  0
 22 24  1  0  0  0  0
 22 21  1  0  0  0  0
 23 22  1  0  0  0  0
 25 22  1  0  0  0  0
M  END
>  <minimizedAffinity>
-4.4344759

$$$$

 OpenBabel03252500553D

 25 25  0  0  0  0  0  0  0  0999 V2000
   37.2870   31.3930   39.1880 C   0  0  0  0  0  0  0  0  0  0  0  0
   36.7620   30.1840   39.6370 C   0  0  0  0  0  0  0  0  0  0  0  0
   36.4490   29.2240   38.6540 C   0  0  0  0  0  0  0  0  0  0  0  0
   36.6750   29.5320   37.3650 N   0  0  0  0  0  0  0  0  0  0  0  0
   37.1820   30.7040   36.9630 C   0  0  0  0  0  0  0  0  0  0  0  0
   37.4820   31.6220   37.8840 N   0  0  0  0  0  0  0  0  0  0  0  0
   36.0470   28.3030   39.0370 H   0  0  0  0  0  0  0  0  0  0  0  0
   37.3090   30.8170   35.9090 H   0  0  0  0  0  0  0  0  0  0  0  0
   37.6400   32.4420   40.1310 C   0  0  0  0  0  0  0  0  0  0  0  0
   38.7410   32.4550   40.3040 H   0  0  0  0  0  0  0  0  0  0  0  0
   37.2000   32.2910   41.1400 H   0  0  0  0  0  0  0  0  0  0  0  0
   37.2830   33.7880   39.5520 C   0  0  0  0  0  0  0  0  0  0  0  0
   36.7600   33.6620   38.5630 H   0  0  0  0  0  0  0  0  0  0  0  0
   36.5010   34.2590   40.2110 H   0  0  0  0  0  0  0  0  0  0  0  0
   38.1470   34.4470   39.4140 H   0  0  0  0  0  0  0  0  0  0  0  0
   36.6030   30.0530   41.0000 O   0  0  0  0  0  0  0  0  0  0  0  0
   38.7890   28.7870   41.7020 O   0  0  0  0  0  0  0  0  0  0  0  0
   37.2960   28.8720   41.9770 P   0  0  1  0  0  0  0  0  0  0  0  0
   37.0480   29.3100   43.5970 O   0  0  0  0  0  0  0  0  0  0  0  0
   36.3160   29.9810   43.6860 H   0  0  0  0  0  0  0  0  0  0  0  0
   36.6020   27.3270   41.7520 O   0  0  0  0  0  0  0  0  0  0  0  0
   37.4070   26.3190   42.2630 C   0  0  0  0  0  0  0  0  0  0  0  0
   37.9910   26.7320   43.4420 F   0  0  0  0  0  0  0  0  0  0  0  0
   36.6850   25.1770   42.5480 F   0  0  0  0  0  0  0  0  0  0  0  0
   38.3110   25.9870   41.3000 F   0  0  0  0  0  0  0  0  0  0  0  0
  1  2  1  0  0  0  0
  1  9  1  0  0  0  0
  2 16  1  0  0  0  0
  3  7  1  0  0  0  0
  3  2  2  0  0  0  0
  4  3  1  0  0  0  0
  5  4  2  0  0  0  0
  5  6  1  0  0  0  0
  6  1  2  0  0  0  0
  8  5  1  0  0  0  0
  9 10  1  0  0  0  0
  9 11  1  0  0  0  0
 12  9  1  0  0  0  0
 12 14  1  0  0  0  0
 13 12  1  0  0  0  0
 15 12  1  0  0  0  0
 16 18  1  0  0  0  0
 18 17  2  6  0  0  0
 18 19  1  0  0  0  0
 19 20  1  0  0  0  0
 21 18  1  0  0  0  0
 21 22  1  0  0  0  0
 22 24  1  0  0  0  0
 22 23  1  0  0  0  0
 25 22  1  0  0  0  0
M  END
>  <minimizedAffinity>
-4.37521172

$$$$

 OpenBabel03252500553D

 25 25  0  0  0  0  0  0  0  0999 V2000
   37.5060   27.7870   40.9300 C   0  0  0  0  0  0  0  0  0  0  0  0
   37.7930   28.9890   41.5710 C   0  0  0  0  0  0  0  0  0  0  0  0
   37.7700   28.9790   42.9790 C   0  0  0  0  0  0  0  0  0  0  0  0
   37.4760   27.8260   43.6060 N   0  0  0  0  0  0  0  0  0  0  0  0
   37.2040   26.6840   42.9630 C   0  0  0  0  0  0  0  0  0  0  0  0
   37.2230   26.6800   41.6280 N   0  0  0  0  0  0  0  0  0  0  0  0
   37.9970   29.9250   43.4390 H   0  0  0  0  0  0  0  0  0  0  0  0
   36.9860   25.8430   43.5840 H   0  0  0  0  0  0  0  0  0  0  0  0
   37.5070   27.7020   39.4790 C   0  0  0  0  0  0  0  0  0  0  0  0
   38.2560   26.9520   39.1330 H   0  0  0  0  0  0  0  0  0  0  0  0
   37.8130   28.6490   38.9850 H   0  0  0  0  0  0  0  0  0  0  0  0
   36.1640   27.2170   38.9950 C   0  0  0  0  0  0  0  0  0  0  0  0
   35.4530   27.1070   39.8610 H   0  0  0  0  0  0  0  0  0  0  0  0
   35.7000   28.0300   38.3680 H   0  0  0  0  0  0  0  0  0  0  0  0
   36.2120   26.2660   38.4540 H   0  0  0  0  0  0  0  0  0  0  0  0
   38.0710   30.0650   40.7560 O   0  0  0  0  0  0  0  0  0  0  0  0
   36.6470   31.1880   38.8630 O   0  0  0  0  0  0  0  0  0  0  0  0
   37.0090   31.3000   40.3360 P   0  0  1  0  0  0  0  0  0  0  0  0
   35.6040   31.1330   41.2720 O   0  0  0  0  0  0  0  0  0  0  0  0
   35.7650   30.5620   42.0740 H   0  0  0  0  0  0  0  0  0  0  0  0
   37.6410   32.8590   40.6350 O   0  0  0  0  0  0  0  0  0  0  0  0
   39.0280   32.8710   40.5920 C   0  0  0  0  0  0  0  0  0  0  0  0
   39.4700   32.2840   39.4250 F   0  0  0  0  0  0  0  0  0  0  0  0
   39.5320   34.1560   40.6140 F   0  0  0  0  0  0  0  0  0  0  0  0
   39.4800   32.2470   41.7160 F   0  0  0  0  0  0  0  0  0  0  0  0
  1  2  2  0  0  0  0
  1  6  1  0  0  0  0
  2  3  1  0  0  0  0
  3  7  1  0  0  0  0
  3  4  2  0  0  0  0
  5  8  1  0  0  0  0
  5  4  1  0  0  0  0
  6  5  2  0  0  0  0
  9  1  1  0  0  0  0
 10  9  1  0  0  0  0
 11  9  1  0  0  0  0
 12  9  1  0  0  0  0
 12 13  1  0  0  0  0
 14 12  1  0  0  0  0
 15 12  1  0  0  0  0
 16  2  1  0  0  0  0
 18 17  2  6  0  0  0
 18 21  1  0  0  0  0
 18 16  1  0  0  0  0
 18 19  1  0  0  0  0
 19 20  1  0  0  0  0
 22 24  1  0  0  0  0
 22 21  1  0  0  0  0
 22 25  1  0  0  0  0
 23 22  1  0  0  0  0
M  END
>  <minimizedAffinity>
-4.35288

$$$$

 OpenBabel03252500553D

 25 25  0  0  0  0  0  0  0  0999 V2000
   36.4690   28.8790   37.2110 C   0  0  0  0  0  0  0  0  0  0  0  0
   36.0050   29.1590   38.4940 C   0  0  0  0  0  0  0  0  0  0  0  0
   34.6320   28.9580   38.7300 C   0  0  0  0  0  0  0  0  0  0  0  0
   33.8660   28.5150   37.7170 N   0  0  0  0  0  0  0  0  0  0  0  0
   34.3400   28.2530   36.4920 C   0  0  0  0  0  0  0  0  0  0  0  0
   35.6400   28.4400   36.2550 N   0  0  0  0  0  0  0  0  0  0  0  0
   34.3100   29.1830   39.7320 H   0  0  0  0  0  0  0  0  0  0  0  0
   33.6220   27.9080   35.7820 H   0  0  0  0  0  0  0  0  0  0  0  0
   37.8720   29.0570   36.8750 C   0  0  0  0  0  0  0  0  0  0  0  0
   38.4780   29.2080   37.7980 H   0  0  0  0  0  0  0  0  0  0  0  0
   38.0650   29.9660   36.2650 H   0  0  0  0  0  0  0  0  0  0  0  0
   38.4020   27.8080   36.2160 C   0  0  0  0  0  0  0  0  0  0  0  0
   37.5720   27.0620   36.0710 H   0  0  0  0  0  0  0  0  0  0  0  0
   38.7160   28.0690   35.1670 H   0  0  0  0  0  0  0  0  0  0  0  0
   39.2130   27.3310   36.7750 H   0  0  0  0  0  0  0  0  0  0  0  0
   36.9440   29.6050   39.4000 O   0  0  0  0  0  0  0  0  0  0  0  0
   38.0970   29.9840   41.7240 O   0  0  0  0  0  0  0  0  0  0  0  0
   36.7550   29.6970   41.0690 P   0  0  1  0  0  0  0  0  0  0  0  0
   35.6810   30.9640   41.4130 O   0  0  0  0  0  0  0  0  0  0  0  0
   35.1430   31.2150   40.6110 H   0  0  0  0  0  0  0  0  0  0  0  0
   36.1000   28.2720   41.7470 O   0  0  0  0  0  0  0  0  0  0  0  0
   36.8120   27.8550   42.8620 C   0  0  0  0  0  0  0  0  0  0  0  0
   37.0910   28.9330   43.6760 F   0  0  0  0  0  0  0  0  0  0  0  0
   36.0980   26.9500   43.6220 F   0  0  0  0  0  0  0  0  0  0  0  0
   37.9270   27.2100   42.4190 F   0  0  0  0  0  0  0  0  0  0  0  0
  1  2  1  0  0  0  0
  2  3  2  0  0  0  0
  2 16  1  0  0  0  0
  3  7  1  0  0  0  0
  4  3  1  0  0  0  0
  5  4  2  0  0  0  0
  6  5  1  0  0  0  0
  6  1  2  0  0  0  0
  8  5  1  0  0  0  0
  9  1  1  0  0  0  0
  9 10  1  0  0  0  0
 11  9  1  0  0  0  0
 12 15  1  0  0  0  0
 12  9  1  0  0  0  0
 13 12  1  0  0  0  0
 14 12  1  0  0  0  0
 16 18  1  0  0  0  0
 18 19  1  0  0  0  0
 18 17  2  1  0  0  0
 18 21  1  0  0  0  0
 20 19  1  0  0  0  0
 21 22  1  0  0  0  0
 22 24  1  0  0  0  0
 22 23  1  0  0  0  0
 25 22  1  0  0  0  0
M  END
>  <minimizedAffinity>
-4.31897068

$$$$

 OpenBabel03252500553D

 25 25  0  0  0  0  0  0  0  0999 V2000
   36.4180   28.8780   41.3990 C   0  0  0  0  0  0  0  0  0  0  0  0
   37.2370   29.9450   41.7570 C   0  0  0  0  0  0  0  0  0  0  0  0
   38.2830   29.6680   42.6580 C   0  0  0  0  0  0  0  0  0  0  0  0
   38.4220   28.4090   43.1100 N   0  0  0  0  0  0  0  0  0  0  0  0
   37.6180   27.4010   42.7470 C   0  0  0  0  0  0  0  0  0  0  0  0
   36.6230   27.6510   41.8940 N   0  0  0  0  0  0  0  0  0  0  0  0
   38.8960   30.5160   42.9110 H   0  0  0  0  0  0  0  0  0  0  0  0
   37.8410   26.4520   43.1820 H   0  0  0  0  0  0  0  0  0  0  0  0
   35.3130   29.0690   40.4740 C   0  0  0  0  0  0  0  0  0  0  0  0
   35.2490   30.1370   40.1600 H   0  0  0  0  0  0  0  0  0  0  0  0
   34.3210   28.8510   40.9250 H   0  0  0  0  0  0  0  0  0  0  0  0
   35.5550   28.2700   39.2180 C   0  0  0  0  0  0  0  0  0  0  0  0
   36.4910   27.6550   39.3210 H   0  0  0  0  0  0  0  0  0  0  0  0
   34.7370   27.5010   39.1280 H   0  0  0  0  0  0  0  0  0  0  0  0
   35.6320   28.8860   38.3170 H   0  0  0  0  0  0  0  0  0  0  0  0
   36.9370   31.1650   41.1880 O   0  0  0  0  0  0  0  0  0  0  0  0
   37.2170   33.2980   39.6900 O   0  0  0  0  0  0  0  0  0  0  0  0
   37.9870   32.1420   40.3100 P   0  0  1  0  0  0  0  0  0  0  0  0
   39.1580   32.7550   41.3740 O   0  0  0  0  0  0  0  0  0  0  0  0
   39.2030   32.2200   42.2140 H   0  0  0  0  0  0  0  0  0  0  0  0
   38.8110   31.2980   39.0730 O   0  0  0  0  0  0  0  0  0  0  0  0
   38.0130   31.1110   37.9540 C   0  0  0  0  0  0  0  0  0  0  0  0
   38.3110   32.0590   36.9970 F   0  0  0  0  0  0  0  0  0  0  0  0
   38.2180   29.8750   37.3750 F   0  0  0  0  0  0  0  0  0  0  0  0
   36.7150   31.1470   38.3640 F   0  0  0  0  0  0  0  0  0  0  0  0
  1  2  2  0  0  0  0
  1  6  1  0  0  0  0
  2  3  1  0  0  0  0
  3  7  1  0  0  0  0
  3  4  2  0  0  0  0
  5  4  1  0  0  0  0
  5  8  1  0  0  0  0
  6  5  2  0  0  0  0
  9 11  1  0  0  0  0
  9  1  1  0  0  0  0
 10  9  1  0  0  0  0
 12 13  1  0  0  0  0
 12  9  1  0  0  0  0
 14 12  1  0  0  0  0
 15 12  1  0  0  0  0
 16  2  1  0  0  0  0
 18 17  2  6  0  0  0
 18 16  1  0  0  0  0
 18 19  1  0  0  0  0
 19 20  1  0  0  0  0
 21 18  1  0  0  0  0
 22 25  1  0  0  0  0
 22 21  1  0  0  0  0
 23 22  1  0  0  0  0
 24 22  1  0  0  0  0
M  END
>  <minimizedAffinity>
-4.25155306

$$$$

 OpenBabel03252500553D

 25 25  0  0  0  0  0  0  0  0999 V2000
   39.3250   28.1490   42.3590 C   0  0  0  0  0  0  0  0  0  0  0  0
   38.0880   28.7180   42.0660 C   0  0  0  0  0  0  0  0  0  0  0  0
   36.9760   27.8540   42.0640 C   0  0  0  0  0  0  0  0  0  0  0  0
   37.1760   26.5540   42.3410 N   0  0  0  0  0  0  0  0  0  0  0  0
   38.3780   26.0340   42.6200 C   0  0  0  0  0  0  0  0  0  0  0  0
   39.4400   26.8420   42.6250 N   0  0  0  0  0  0  0  0  0  0  0  0
   36.0380   28.3290   41.8350 H   0  0  0  0  0  0  0  0  0  0  0  0
   38.3940   24.9850   42.8200 H   0  0  0  0  0  0  0  0  0  0  0  0
   40.5280   28.9640   42.3840 C   0  0  0  0  0  0  0  0  0  0  0  0
   40.3330   29.9300   42.9050 H   0  0  0  0  0  0  0  0  0  0  0  0
   40.8790   29.2590   41.3720 H   0  0  0  0  0  0  0  0  0  0  0  0
   41.6030   28.2620   43.1760 C   0  0  0  0  0  0  0  0  0  0  0  0
   41.2500   27.2430   43.4960 H   0  0  0  0  0  0  0  0  0  0  0  0
   42.4640   28.0430   42.4830 H   0  0  0  0  0  0  0  0  0  0  0  0
   41.9270   28.8190   44.0610 H   0  0  0  0  0  0  0  0  0  0  0  0
   38.0840   30.0730   41.8090 O   0  0  0  0  0  0  0  0  0  0  0  0
   36.9960   30.0750   39.4230 O   0  0  0  0  0  0  0  0  0  0  0  0
   37.0930   30.8760   40.7120 P   0  0  1  0  0  0  0  0  0  0  0  0
   35.5490   31.0230   41.3980 O   0  0  0  0  0  0  0  0  0  0  0  0
   35.5760   30.8960   42.3870 H   0  0  0  0  0  0  0  0  0  0  0  0
   37.6420   32.4520   40.3450 O   0  0  0  0  0  0  0  0  0  0  0  0
   39.0270   32.5200   40.2980 C   0  0  0  0  0  0  0  0  0  0  0  0
   39.5280   31.4580   39.5750 F   0  0  0  0  0  0  0  0  0  0  0  0
   39.4660   33.6730   39.6790 F   0  0  0  0  0  0  0  0  0  0  0  0
   39.4800   32.5610   41.5820 F   0  0  0  0  0  0  0  0  0  0  0  0
  1  9  1  0  0  0  0
  1  6  1  0  0  0  0
  2  1  2  0  0  0  0
  3  2  1  0  0  0  0
  3  4  2  0  0  0  0
  4  5  1  0  0  0  0
  5  6  2  0  0  0  0
  5  8  1  0  0  0  0
  7  3  1  0  0  0  0
  9 10  1  0  0  0  0
  9 12  1  0  0  0  0
 11  9  1  0  0  0  0
 12 13  1  0  0  0  0
 12 15  1  0  0  0  0
 14 12  1  0  0  0  0
 16  2  1  0  0  0  0
 18 17  2  6  0  0  0
 18 19  1  0  0  0  0
 18 16  1  0  0  0  0
 19 20  1  0  0  0  0
 21 18  1  0  0  0  0
 22 21  1  0  0  0  0
 22 25  1  0  0  0  0
 23 22  1  0  0  0  0
 24 22  1  0  0  0  0
M  END
>  <minimizedAffinity>
-4.21735764

$$$$

 OpenBabel03252500553D

 25 25  0  0  0  0  0  0  0  0999 V2000
   36.4220   29.3500   37.8250 C   0  0  0  0  0  0  0  0  0  0  0  0
   37.3570   29.9060   38.6950 C   0  0  0  0  0  0  0  0  0  0  0  0
   38.1310   30.9710   38.1970 C   0  0  0  0  0  0  0  0  0  0  0  0
   37.9230   31.3790   36.9330 N   0  0  0  0  0  0  0  0  0  0  0  0
   37.0150   30.8250   36.1190 C   0  0  0  0  0  0  0  0  0  0  0  0
   36.2740   29.8140   36.5780 N   0  0  0  0  0  0  0  0  0  0  0  0
   38.8420   31.3760   38.8970 H   0  0  0  0  0  0  0  0  0  0  0  0
   36.9540   31.2460   35.1390 H   0  0  0  0  0  0  0  0  0  0  0  0
   35.5780   28.2460   38.2510 C   0  0  0  0  0  0  0  0  0  0  0  0
   35.8870   27.8870   39.2600 H   0  0  0  0  0  0  0  0  0  0  0  0
   35.6640   27.3510   37.5990 H   0  0  0  0  0  0  0  0  0  0  0  0
   34.1510   28.7170   38.3850 C   0  0  0  0  0  0  0  0  0  0  0  0
   34.0610   29.7880   38.0520 H   0  0  0  0  0  0  0  0  0  0  0  0
   33.5220   28.1500   37.6420 H   0  0  0  0  0  0  0  0  0  0  0  0
   33.7560   28.6280   39.4020 H   0  0  0  0  0  0  0  0  0  0  0  0
   37.4250   29.3520   39.9550 O   0  0  0  0  0  0  0  0  0  0  0  0
   38.4020   31.1490   41.5940 O   0  0  0  0  0  0  0  0  0  0  0  0
   37.2530   30.1690   41.4150 P   0  0  1  0  0  0  0  0  0  0  0  0
   35.7890   31.0240   41.3760 O   0  0  0  0  0  0  0  0  0  0  0  0
   35.1780   30.6700   40.6720 H   0  0  0  0  0  0  0  0  0  0  0  0
   37.2000   29.1240   42.7650 O   0  0  0  0  0  0  0  0  0  0  0  0
   36.6090   27.9080   42.4550 C   0  0  0  0  0  0  0  0  0  0  0  0
   37.5390   27.0600   41.8900 F   0  0  0  0  0  0  0  0  0  0  0  0
   36.1140   27.2740   43.5780 F   0  0  0  0  0  0  0  0  0  0  0  0
   35.5460   28.1630   41.6420 F   0  0  0  0  0  0  0  0  0  0  0  0
  1  9  1  0  0  0  0
  1  2  1  0  0  0  0
  2 16  1  0  0  0  0
  3  2  2  0  0  0  0
  3  7  1  0  0  0  0
  4  3  1  0  0  0  0
  5  6  1  0  0  0  0
  5  4  2  0  0  0  0
  6  1  2  0  0  0  0
  8  5  1  0  0  0  0
  9 12  1  0  0  0  0
  9 10  1  0  0  0  0
 11  9  1  0  0  0  0
 12 15  1  0  0  0  0
 13 12  1  0  0  0  0
 14 12  1  0  0  0  0
 16 18  1  0  0  0  0
 18 17  2  1  0  0  0
 18 21  1  0  0  0  0
 19 18  1  0  0  0  0
 20 19  1  0  0  0  0
 22 21  1  0  0  0  0
 22 24  1  0  0  0  0
 23 22  1  0  0  0  0
 25 22  1  0  0  0  0
M  END
>  <minimizedAffinity>
-4.2071991

$$$$
