
 OpenBabel03252507303D

 40 42  0  0  1  0  0  0  0  0999 V2000
   37.5680   26.3650   39.5000 C   0  0  2  0  0  0  0  0  0  0  0  0
   36.5880   25.2140   39.3160 C   0  0  0  0  0  0  0  0  0  0  0  0
   37.3260   23.9330   39.6160 C   0  0  0  0  0  0  0  0  0  0  0  0
   38.0740   23.9430   40.9270 C   0  0  0  0  0  0  0  0  0  0  0  0
   38.8730   25.1700   41.1220 C   0  0  0  0  0  0  0  0  0  0  0  0
   38.0160   26.3880   40.9180 C   0  0  2  0  0  0  0  0  0  0  0  0
   38.4170   26.1050   38.8260 H   0  0  0  0  0  0  0  0  0  0  0  0
   36.3860   25.1780   38.2060 H   0  0  0  0  0  0  0  0  0  0  0  0
   35.6420   25.3460   39.8300 H   0  0  0  0  0  0  0  0  0  0  0  0
   36.6230   23.0840   39.6090 H   0  0  0  0  0  0  0  0  0  0  0  0
   38.0450   23.7590   38.7750 H   0  0  0  0  0  0  0  0  0  0  0  0
   38.8020   23.0830   40.8560 H   0  0  0  0  0  0  0  0  0  0  0  0
   37.3770   23.6800   41.7230 H   0  0  0  0  0  0  0  0  0  0  0  0
   39.4520   25.1480   42.0430 H   0  0  0  0  0  0  0  0  0  0  0  0
   39.6370   25.2050   40.2950 H   0  0  0  0  0  0  0  0  0  0  0  0
   38.7400   27.2350   41.0330 H   0  0  0  0  0  0  0  0  0  0  0  0
   37.0240   27.6420   39.0520 C   0  0  0  0  0  0  0  0  0  0  0  0
   35.9870   27.6300   38.0890 C   0  0  0  0  0  0  0  0  0  0  0  0
   35.4780   28.8620   37.6440 C   0  0  0  0  0  0  0  0  0  0  0  0
   36.0280   30.0140   38.1810 N   0  0  0  0  0  0  0  0  0  0  0  0
   37.0140   29.9400   39.0950 C   0  0  0  0  0  0  0  0  0  0  0  0
   37.5260   28.7790   39.5440 N   0  0  0  0  0  0  0  0  0  0  0  0
   35.5340   26.7920   37.6520 H   0  0  0  0  0  0  0  0  0  0  0  0
   34.6960   28.9410   36.9200 H   0  0  0  0  0  0  0  0  0  0  0  0
   37.5620   31.2090   39.6150 C   0  0  0  0  0  0  0  0  0  0  0  0
   37.1280   32.4100   39.1980 C   0  0  0  0  0  0  0  0  0  0  0  0
   37.6490   33.5970   39.6930 C   0  0  0  0  0  0  0  0  0  0  0  0
   38.6350   33.5140   40.6330 C   0  0  0  0  0  0  0  0  0  0  0  0
   39.0890   32.3030   41.0690 C   0  0  0  0  0  0  0  0  0  0  0  0
   38.5590   31.1480   40.5660 N   0  0  0  0  0  0  0  0  0  0  0  0
   36.3470   32.4210   38.4530 H   0  0  0  0  0  0  0  0  0  0  0  0
   37.2710   34.5540   39.3300 H   0  0  0  0  0  0  0  0  0  0  0  0
   39.0420   34.4380   41.0200 H   0  0  0  0  0  0  0  0  0  0  0  0
   39.8600   32.2980   41.8040 H   0  0  0  0  0  0  0  0  0  0  0  0
   36.9200   26.4600   41.8160 N   0  0  0  0  0  0  0  0  0  0  0  0
   36.8820   25.5170   42.3120 H   0  0  0  0  0  0  0  0  0  0  0  0
   37.0320   27.4270   42.8530 C   0  0  0  0  0  0  0  0  0  0  0  0
   38.1210   27.2660   43.6800 F   0  0  0  0  0  0  0  0  0  0  0  0
   35.9130   27.2600   43.6800 F   0  0  0  0  0  0  0  0  0  0  0  0
   37.0910   28.7240   42.3820 F   0  0  0  0  0  0  0  0  0  0  0  0
  1  7  1  6  0  0  0
  1  6  1  0  0  0  0
  2  1  1  0  0  0  0
  2  3  1  0  0  0  0
  2  9  1  0  0  0  0
  3  4  1  0  0  0  0
  4  5  1  0  0  0  0
  4 13  1  0  0  0  0
  5 14  1  0  0  0  0
  6 16  1  1  0  0  0
  6  5  1  0  0  0  0
  6 35  1  0  0  0  0
  8  2  1  0  0  0  0
 10  3  1  0  0  0  0
 11  3  1  0  0  0  0
 12  4  1  0  0  0  0
 15  5  1  0  0  0  0
 17  1  1  0  0  0  0
 17 22  1  0  0  0  0
 18 17  2  0  0  0  0
 19 18  1  0  0  0  0
 19 20  2  0  0  0  0
 20 21  1  0  0  0  0
 21 22  2  0  0  0  0
 21 25  1  0  0  0  0
 23 18  1  0  0  0  0
 24 19  1  0  0  0  0
 25 30  1  0  0  0  0
 26 25  2  0  0  0  0
 26 27  1  0  0  0  0
 27 28  2  0  0  0  0
 28 33  1  0  0  0  0
 28 29  1  0  0  0  0
 29 34  1  0  0  0  0
 30 29  2  0  0  0  0
 31 26  1  0  0  0  0
 32 27  1  0  0  0  0
 35 36  1  0  0  0  0
 35 37  1  0  0  0  0
 37 38  1  0  0  0  0
 37 39  1  0  0  0  0
 40 37  1  0  0  0  0
M  END
>  <minimizedAffinity>
-5.52890205

$$$$

 OpenBabel03252507303D

 40 42  0  0  1  0  0  0  0  0999 V2000
   38.5380   30.4690   40.1670 C   0  0  2  0  0  0  0  0  0  0  0  0
   38.4040   31.7730   40.9430 C   0  0  0  0  0  0  0  0  0  0  0  0
   38.2030   32.8830   39.9400 C   0  0  0  0  0  0  0  0  0  0  0  0
   37.1130   32.6140   38.9320 C   0  0  0  0  0  0  0  0  0  0  0  0
   37.1980   31.2630   38.3410 C   0  0  0  0  0  0  0  0  0  0  0  0
   37.2730   30.2240   39.4250 C   0  0  2  0  0  0  0  0  0  0  0  0
   39.3760   30.6630   39.4580 H   0  0  0  0  0  0  0  0  0  0  0  0
   39.4290   31.9600   41.3790 H   0  0  0  0  0  0  0  0  0  0  0  0
   37.6900   31.7370   41.7570 H   0  0  0  0  0  0  0  0  0  0  0  0
   37.9850   33.8270   40.4640 H   0  0  0  0  0  0  0  0  0  0  0  0
   39.1790   33.0310   39.4090 H   0  0  0  0  0  0  0  0  0  0  0  0
   37.2980   33.3510   38.0980 H   0  0  0  0  0  0  0  0  0  0  0  0
   36.1580   32.8970   39.3740 H   0  0  0  0  0  0  0  0  0  0  0  0
   36.4430   31.0950   37.5760 H   0  0  0  0  0  0  0  0  0  0  0  0
   38.1840   31.1980   37.8000 H   0  0  0  0  0  0  0  0  0  0  0  0
   37.3930   29.2660   38.8560 H   0  0  0  0  0  0  0  0  0  0  0  0
   38.9290   29.3490   41.0160 C   0  0  0  0  0  0  0  0  0  0  0  0
   39.8090   29.5990   42.0950 C   0  0  0  0  0  0  0  0  0  0  0  0
   40.2000   28.5160   42.9000 C   0  0  0  0  0  0  0  0  0  0  0  0
   39.6940   27.2670   42.5820 N   0  0  0  0  0  0  0  0  0  0  0  0
   38.8600   27.1120   41.5370 C   0  0  0  0  0  0  0  0  0  0  0  0
   38.4640   28.1250   40.7450 N   0  0  0  0  0  0  0  0  0  0  0  0
   40.2190   30.5200   42.3820 H   0  0  0  0  0  0  0  0  0  0  0  0
   40.8610   28.6180   43.7340 H   0  0  0  0  0  0  0  0  0  0  0  0
   38.3690   25.7490   41.2480 C   0  0  0  0  0  0  0  0  0  0  0  0
   37.0900   25.3830   41.4420 C   0  0  0  0  0  0  0  0  0  0  0  0
   36.6390   24.1010   41.1680 C   0  0  0  0  0  0  0  0  0  0  0  0
   37.5420   23.2000   40.6840 C   0  0  0  0  0  0  0  0  0  0  0  0
   38.8450   23.5530   40.4790 C   0  0  0  0  0  0  0  0  0  0  0  0
   39.2640   24.8230   40.7580 N   0  0  0  0  0  0  0  0  0  0  0  0
   36.4160   26.1340   41.8260 H   0  0  0  0  0  0  0  0  0  0  0  0
   35.5930   23.8410   41.3390 H   0  0  0  0  0  0  0  0  0  0  0  0
   37.1910   22.1990   40.4690 H   0  0  0  0  0  0  0  0  0  0  0  0
   39.5060   22.8090   40.1000 H   0  0  0  0  0  0  0  0  0  0  0  0
   36.1470   30.2290   40.2870 N   0  0  0  0  0  0  0  0  0  0  0  0
   35.5390   31.0470   39.9740 H   0  0  0  0  0  0  0  0  0  0  0  0
   35.3060   29.0850   40.2120 C   0  0  0  0  0  0  0  0  0  0  0  0
   33.9690   29.3590   40.0300 F   0  0  0  0  0  0  0  0  0  0  0  0
   35.3850   28.4470   41.4580 F   0  0  0  0  0  0  0  0  0  0  0  0
   35.6630   28.2120   39.2030 F   0  0  0  0  0  0  0  0  0  0  0  0
  1  7  1  6  0  0  0
  1  2  1  0  0  0  0
  1 17  1  0  0  0  0
  2  8  1  0  0  0  0
  2  9  1  0  0  0  0
  3 10  1  0  0  0  0
  3  2  1  0  0  0  0
  4 13  1  0  0  0  0
  4  3  1  0  0  0  0
  5  4  1  0  0  0  0
  5  6  1  0  0  0  0
  6 16  1  6  0  0  0
  6  1  1  0  0  0  0
  6 35  1  0  0  0  0
 11  3  1  0  0  0  0
 12  4  1  0  0  0  0
 14  5  1  0  0  0  0
 15  5  1  0  0  0  0
 17 18  1  0  0  0  0
 18 23  1  0  0  0  0
 18 19  2  0  0  0  0
 19 24  1  0  0  0  0
 20 19  1  0  0  0  0
 21 20  2  0  0  0  0
 22 17  2  0  0  0  0
 22 21  1  0  0  0  0
 25 26  1  0  0  0  0
 25 21  1  0  0  0  0
 26 31  1  0  0  0  0
 27 32  1  0  0  0  0
 27 26  2  0  0  0  0
 28 27  1  0  0  0  0
 29 28  2  0  0  0  0
 29 30  1  0  0  0  0
 30 25  2  0  0  0  0
 33 28  1  0  0  0  0
 34 29  1  0  0  0  0
 36 35  1  0  0  0  0
 37 35  1  0  0  0  0
 37 39  1  0  0  0  0
 38 37  1  0  0  0  0
 40 37  1  0  0  0  0
M  END
>  <minimizedAffinity>
-5.45857525

$$$$

 OpenBabel03252507303D

 40 42  0  0  1  0  0  0  0  0999 V2000
   37.5720   25.5700   40.7410 C   0  0  2  0  0  0  0  0  0  0  0  0
   36.7630   24.4130   41.3130 C   0  0  0  0  0  0  0  0  0  0  0  0
   36.7920   23.2920   40.3030 C   0  0  0  0  0  0  0  0  0  0  0  0
   38.1750   22.9360   39.8150 C   0  0  0  0  0  0  0  0  0  0  0  0
   38.9730   24.1200   39.4390 C   0  0  0  0  0  0  0  0  0  0  0  0
   38.9780   25.1230   40.5580 C   0  0  2  0  0  0  0  0  0  0  0  0
   37.0940   25.7710   39.7540 H   0  0  0  0  0  0  0  0  0  0  0  0
   35.6930   24.7760   41.3100 H   0  0  0  0  0  0  0  0  0  0  0  0
   37.0270   24.1420   42.3280 H   0  0  0  0  0  0  0  0  0  0  0  0
   36.3170   22.3940   40.7270 H   0  0  0  0  0  0  0  0  0  0  0  0
   36.1580   23.6100   39.4360 H   0  0  0  0  0  0  0  0  0  0  0  0
   38.0080   22.3370   38.8740 H   0  0  0  0  0  0  0  0  0  0  0  0
   38.6260   22.2480   40.5310 H   0  0  0  0  0  0  0  0  0  0  0  0
   39.9480   23.8540   39.0370 H   0  0  0  0  0  0  0  0  0  0  0  0
   38.4340   24.6280   38.5890 H   0  0  0  0  0  0  0  0  0  0  0  0
   39.5560   25.9840   40.1310 H   0  0  0  0  0  0  0  0  0  0  0  0
   37.4570   26.7850   41.5410 C   0  0  0  0  0  0  0  0  0  0  0  0
   37.1400   26.6570   42.9140 C   0  0  0  0  0  0  0  0  0  0  0  0
   37.0120   27.8290   43.6780 C   0  0  0  0  0  0  0  0  0  0  0  0
   37.2050   29.0390   43.0340 N   0  0  0  0  0  0  0  0  0  0  0  0
   37.5040   29.0750   41.7210 C   0  0  0  0  0  0  0  0  0  0  0  0
   37.6360   27.9740   40.9580 N   0  0  0  0  0  0  0  0  0  0  0  0
   36.9860   25.7710   43.4520 H   0  0  0  0  0  0  0  0  0  0  0  0
   36.7740   27.8220   44.7210 H   0  0  0  0  0  0  0  0  0  0  0  0
   37.6840   30.4010   41.0950 C   0  0  0  0  0  0  0  0  0  0  0  0
   36.8220   30.8980   40.1920 C   0  0  0  0  0  0  0  0  0  0  0  0
   36.9990   32.1440   39.6100 C   0  0  0  0  0  0  0  0  0  0  0  0
   38.0920   32.8700   39.9830 C   0  0  0  0  0  0  0  0  0  0  0  0
   38.9790   32.3820   40.8990 C   0  0  0  0  0  0  0  0  0  0  0  0
   38.7820   31.1510   41.4580 N   0  0  0  0  0  0  0  0  0  0  0  0
   35.9730   30.2840   39.9310 H   0  0  0  0  0  0  0  0  0  0  0  0
   36.2770   32.5150   38.8800 H   0  0  0  0  0  0  0  0  0  0  0  0
   38.2320   33.8420   39.5300 H   0  0  0  0  0  0  0  0  0  0  0  0
   39.8160   32.9910   41.1530 H   0  0  0  0  0  0  0  0  0  0  0  0
   39.5310   24.6170   41.7620 N   0  0  0  0  0  0  0  0  0  0  0  0
   39.9670   23.6760   41.5150 H   0  0  0  0  0  0  0  0  0  0  0  0
   40.5870   25.3840   42.3280 C   0  0  0  0  0  0  0  0  0  0  0  0
   41.8160   24.7640   42.3310 F   0  0  0  0  0  0  0  0  0  0  0  0
   40.2660   25.5730   43.6800 F   0  0  0  0  0  0  0  0  0  0  0  0
   40.7690   26.6030   41.7040 F   0  0  0  0  0  0  0  0  0  0  0  0
  1  7  1  6  0  0  0
  1  2  1  0  0  0  0
  1 17  1  0  0  0  0
  2  9  1  0  0  0  0
  3 10  1  0  0  0  0
  3  2  1  0  0  0  0
  4  3  1  0  0  0  0
  4 13  1  0  0  0  0
  5  4  1  0  0  0  0
  5  6  1  0  0  0  0
  6 16  1  6  0  0  0
  6  1  1  0  0  0  0
  6 35  1  0  0  0  0
  8  2  1  0  0  0  0
 11  3  1  0  0  0  0
 12  4  1  0  0  0  0
 14  5  1  0  0  0  0
 15  5  1  0  0  0  0
 17 18  1  0  0  0  0
 18 23  1  0  0  0  0
 18 19  2  0  0  0  0
 19 24  1  0  0  0  0
 20 19  1  0  0  0  0
 21 20  2  0  0  0  0
 22 17  2  0  0  0  0
 22 21  1  0  0  0  0
 25 30  1  0  0  0  0
 25 21  1  0  0  0  0
 26 25  2  0  0  0  0
 27 28  2  0  0  0  0
 27 26  1  0  0  0  0
 28 29  1  0  0  0  0
 29 34  1  0  0  0  0
 29 30  2  0  0  0  0
 31 26  1  0  0  0  0
 32 27  1  0  0  0  0
 33 28  1  0  0  0  0
 35 37  1  0  0  0  0
 36 35  1  0  0  0  0
 37 38  1  0  0  0  0
 37 39  1  0  0  0  0
 40 37  1  0  0  0  0
M  END
>  <minimizedAffinity>
-5.44045877

$$$$

 OpenBabel03252507303D

 40 42  0  0  1  0  0  0  0  0999 V2000
   39.8430   29.9610   41.4390 C   0  0  2  0  0  0  0  0  0  0  0  0
   40.4520   30.7920   42.5610 C   0  0  0  0  0  0  0  0  0  0  0  0
   41.6420   31.5240   41.9930 C   0  0  0  0  0  0  0  0  0  0  0  0
   41.3540   32.2740   40.7150 C   0  0  0  0  0  0  0  0  0  0  0  0
   40.6070   31.4650   39.7310 C   0  0  0  0  0  0  0  0  0  0  0  0
   39.3770   30.8780   40.3650 C   0  0  2  0  0  0  0  0  0  0  0  0
   40.6910   29.3350   41.0770 H   0  0  0  0  0  0  0  0  0  0  0  0
   40.8910   30.0370   43.2770 H   0  0  0  0  0  0  0  0  0  0  0  0
   39.7370   31.4000   43.1040 H   0  0  0  0  0  0  0  0  0  0  0  0
   42.0420   32.2270   42.7410 H   0  0  0  0  0  0  0  0  0  0  0  0
   42.4440   30.7630   41.8100 H   0  0  0  0  0  0  0  0  0  0  0  0
   42.3680   32.4870   40.2660 H   0  0  0  0  0  0  0  0  0  0  0  0
   40.9320   33.2450   40.9730 H   0  0  0  0  0  0  0  0  0  0  0  0
   40.4500   31.9910   38.7920 H   0  0  0  0  0  0  0  0  0  0  0  0
   41.2530   30.5800   39.4670 H   0  0  0  0  0  0  0  0  0  0  0  0
   38.9390   30.2500   39.5470 H   0  0  0  0  0  0  0  0  0  0  0  0
   38.8000   29.0580   41.9120 C   0  0  0  0  0  0  0  0  0  0  0  0
   38.2890   29.2470   43.2180 C   0  0  0  0  0  0  0  0  0  0  0  0
   37.2980   28.3640   43.6790 C   0  0  0  0  0  0  0  0  0  0  0  0
   36.8830   27.3610   42.8190 N   0  0  0  0  0  0  0  0  0  0  0  0
   37.4200   27.2490   41.5890 C   0  0  0  0  0  0  0  0  0  0  0  0
   38.3700   28.0750   41.1140 N   0  0  0  0  0  0  0  0  0  0  0  0
   38.5630   29.9860   43.9080 H   0  0  0  0  0  0  0  0  0  0  0  0
   36.8600   28.4360   44.6510 H   0  0  0  0  0  0  0  0  0  0  0  0
   36.9400   26.1480   40.7300 C   0  0  0  0  0  0  0  0  0  0  0  0
   36.5280   26.3430   39.4650 C   0  0  0  0  0  0  0  0  0  0  0  0
   36.0780   25.3030   38.6660 C   0  0  0  0  0  0  0  0  0  0  0  0
   36.0640   24.0490   39.2030 C   0  0  0  0  0  0  0  0  0  0  0  0
   36.4800   23.8300   40.4860 C   0  0  0  0  0  0  0  0  0  0  0  0
   36.9170   24.8730   41.2530 N   0  0  0  0  0  0  0  0  0  0  0  0
   36.5590   27.3540   39.0870 H   0  0  0  0  0  0  0  0  0  0  0  0
   35.7520   25.5000   37.6430 H   0  0  0  0  0  0  0  0  0  0  0  0
   35.7150   23.2360   38.5810 H   0  0  0  0  0  0  0  0  0  0  0  0
   36.4470   22.8310   40.8540 H   0  0  0  0  0  0  0  0  0  0  0  0
   38.4800   31.8580   40.8620 N   0  0  0  0  0  0  0  0  0  0  0  0
   38.9640   32.7980   40.7250 H   0  0  0  0  0  0  0  0  0  0  0  0
   37.2400   31.9680   40.1740 C   0  0  0  0  0  0  0  0  0  0  0  0
   36.8920   33.2490   39.8080 F   0  0  0  0  0  0  0  0  0  0  0  0
   36.2450   31.5590   41.0730 F   0  0  0  0  0  0  0  0  0  0  0  0
   37.1880   31.2080   39.0230 F   0  0  0  0  0  0  0  0  0  0  0  0
  1  7  1  6  0  0  0
  1 17  1  0  0  0  0
  1  2  1  0  0  0  0
  2  9  1  0  0  0  0
  2  8  1  0  0  0  0
  3  2  1  0  0  0  0
  3 10  1  0  0  0  0
  4 13  1  0  0  0  0
  4  3  1  0  0  0  0
  5  6  1  0  0  0  0
  5  4  1  0  0  0  0
  6 16  1  6  0  0  0
  6 35  1  0  0  0  0
  6  1  1  0  0  0  0
 11  3  1  0  0  0  0
 12  4  1  0  0  0  0
 14  5  1  0  0  0  0
 15  5  1  0  0  0  0
 17 18  1  0  0  0  0
 18 19  2  0  0  0  0
 18 23  1  0  0  0  0
 19 24  1  0  0  0  0
 20 19  1  0  0  0  0
 21 20  2  0  0  0  0
 22 21  1  0  0  0  0
 22 17  2  0  0  0  0
 25 30  1  0  0  0  0
 25 21  1  0  0  0  0
 26 25  2  0  0  0  0
 27 28  2  0  0  0  0
 27 26  1  0  0  0  0
 28 29  1  0  0  0  0
 29 34  1  0  0  0  0
 29 30  2  0  0  0  0
 31 26  1  0  0  0  0
 32 27  1  0  0  0  0
 33 28  1  0  0  0  0
 36 35  1  0  0  0  0
 37 35  1  0  0  0  0
 37 39  1  0  0  0  0
 38 37  1  0  0  0  0
 40 37  1  0  0  0  0
M  END
>  <minimizedAffinity>
-5.40796947

$$$$

 OpenBabel03252507303D

 40 42  0  0  1  0  0  0  0  0999 V2000
   38.2890   27.3040   42.5620 C   0  0  2  0  0  0  0  0  0  0  0  0
   39.7350   27.7310   42.7720 C   0  0  0  0  0  0  0  0  0  0  0  0
   40.3850   26.7120   43.6750 C   0  0  0  0  0  0  0  0  0  0  0  0
   40.1890   25.2820   43.2350 C   0  0  0  0  0  0  0  0  0  0  0  0
   38.7890   24.9780   42.8780 C   0  0  0  0  0  0  0  0  0  0  0  0
   38.2750   25.9810   41.8830 C   0  0  2  0  0  0  0  0  0  0  0  0
   37.8810   27.2170   43.5960 H   0  0  0  0  0  0  0  0  0  0  0  0
   39.6750   28.6710   43.3940 H   0  0  0  0  0  0  0  0  0  0  0  0
   40.2700   27.9620   41.8580 H   0  0  0  0  0  0  0  0  0  0  0  0
   41.4640   26.9190   43.7590 H   0  0  0  0  0  0  0  0  0  0  0  0
   39.9530   26.8520   44.7000 H   0  0  0  0  0  0  0  0  0  0  0  0
   40.4410   24.6590   44.1420 H   0  0  0  0  0  0  0  0  0  0  0  0
   40.9480   25.0440   42.4890 H   0  0  0  0  0  0  0  0  0  0  0  0
   38.6440   23.9330   42.6140 H   0  0  0  0  0  0  0  0  0  0  0  0
   38.1670   25.1360   43.8040 H   0  0  0  0  0  0  0  0  0  0  0  0
   37.2050   25.6810   41.7430 H   0  0  0  0  0  0  0  0  0  0  0  0
   37.5020   28.3140   41.8620 C   0  0  0  0  0  0  0  0  0  0  0  0
   36.1880   27.9800   41.4570 C   0  0  0  0  0  0  0  0  0  0  0  0
   35.4390   28.9470   40.7660 C   0  0  0  0  0  0  0  0  0  0  0  0
   36.0390   30.1710   40.5260 N   0  0  0  0  0  0  0  0  0  0  0  0
   37.2960   30.4110   40.9450 C   0  0  0  0  0  0  0  0  0  0  0  0
   38.0430   29.5100   41.6090 N   0  0  0  0  0  0  0  0  0  0  0  0
   35.6850   27.0740   41.6130 H   0  0  0  0  0  0  0  0  0  0  0  0
   34.4400   28.7760   40.4250 H   0  0  0  0  0  0  0  0  0  0  0  0
   37.8790   31.7340   40.6430 C   0  0  0  0  0  0  0  0  0  0  0  0
   37.1860   32.7070   40.0260 C   0  0  0  0  0  0  0  0  0  0  0  0
   37.7420   33.9470   39.7470 C   0  0  0  0  0  0  0  0  0  0  0  0
   39.0360   34.1610   40.1210 C   0  0  0  0  0  0  0  0  0  0  0  0
   39.7560   33.1860   40.7490 C   0  0  0  0  0  0  0  0  0  0  0  0
   39.1850   31.9730   41.0130 N   0  0  0  0  0  0  0  0  0  0  0  0
   36.1660   32.4860   39.7510 H   0  0  0  0  0  0  0  0  0  0  0  0
   37.1480   34.7120   39.2440 H   0  0  0  0  0  0  0  0  0  0  0  0
   39.4710   35.1280   39.9050 H   0  0  0  0  0  0  0  0  0  0  0  0
   40.7620   33.4080   41.0190 H   0  0  0  0  0  0  0  0  0  0  0  0
   39.0160   26.0020   40.6740 N   0  0  0  0  0  0  0  0  0  0  0  0
   39.8650   25.3780   40.8370 H   0  0  0  0  0  0  0  0  0  0  0  0
   38.3590   25.4560   39.5370 C   0  0  0  0  0  0  0  0  0  0  0  0
   38.1690   26.3390   38.4970 F   0  0  0  0  0  0  0  0  0  0  0  0
   37.0700   25.0940   39.9530 F   0  0  0  0  0  0  0  0  0  0  0  0
   39.0140   24.3640   39.0030 F   0  0  0  0  0  0  0  0  0  0  0  0
  1  2  1  0  0  0  0
  1  7  1  1  0  0  0
  2  8  1  0  0  0  0
  2  3  1  0  0  0  0
  3 10  1  0  0  0  0
  3 11  1  0  0  0  0
  4  3  1  0  0  0  0
  4 12  1  0  0  0  0
  5  4  1  0  0  0  0
  5 15  1  0  0  0  0
  6 16  1  6  0  0  0
  6  1  1  0  0  0  0
  6  5  1  0  0  0  0
  9  2  1  0  0  0  0
 13  4  1  0  0  0  0
 14  5  1  0  0  0  0
 17  1  1  0  0  0  0
 18 23  1  0  0  0  0
 18 17  2  0  0  0  0
 19 18  1  0  0  0  0
 20 19  2  0  0  0  0
 20 21  1  0  0  0  0
 21 22  2  0  0  0  0
 22 17  1  0  0  0  0
 24 19  1  0  0  0  0
 25 21  1  0  0  0  0
 25 30  1  0  0  0  0
 26 25  2  0  0  0  0
 27 26  1  0  0  0  0
 27 28  2  0  0  0  0
 28 29  1  0  0  0  0
 29 30  2  0  0  0  0
 29 34  1  0  0  0  0
 31 26  1  0  0  0  0
 32 27  1  0  0  0  0
 33 28  1  0  0  0  0
 35 36  1  0  0  0  0
 35  6  1  0  0  0  0
 37 39  1  0  0  0  0
 37 35  1  0  0  0  0
 38 37  1  0  0  0  0
 40 37  1  0  0  0  0
M  END
>  <minimizedAffinity>
-5.40265608

$$$$

 OpenBabel03252507303D

 40 42  0  0  1  0  0  0  0  0999 V2000
   38.9220   26.8910   42.5450 C   0  0  2  0  0  0  0  0  0  0  0  0
   39.8120   25.7390   42.0980 C   0  0  0  0  0  0  0  0  0  0  0  0
   39.1470   24.4550   42.5300 C   0  0  0  0  0  0  0  0  0  0  0  0
   37.6960   24.3450   42.1300 C   0  0  0  0  0  0  0  0  0  0  0  0
   36.9230   25.5670   42.4340 C   0  0  0  0  0  0  0  0  0  0  0  0
   37.6090   26.7740   41.8580 C   0  0  2  0  0  0  0  0  0  0  0  0
   38.8050   26.7310   43.6420 H   0  0  0  0  0  0  0  0  0  0  0  0
   40.7360   25.8170   42.7430 H   0  0  0  0  0  0  0  0  0  0  0  0
   40.1170   25.7870   41.0590 H   0  0  0  0  0  0  0  0  0  0  0  0
   39.6990   23.5920   42.1240 H   0  0  0  0  0  0  0  0  0  0  0  0
   39.2350   24.3940   43.6460 H   0  0  0  0  0  0  0  0  0  0  0  0
   37.2760   23.5200   42.7750 H   0  0  0  0  0  0  0  0  0  0  0  0
   37.6480   23.9770   41.1050 H   0  0  0  0  0  0  0  0  0  0  0  0
   35.8680   25.4620   42.1940 H   0  0  0  0  0  0  0  0  0  0  0  0
   36.9570   25.7130   43.5510 H   0  0  0  0  0  0  0  0  0  0  0  0
   36.9660   27.6250   42.2030 H   0  0  0  0  0  0  0  0  0  0  0  0
   39.5530   28.1930   42.3550 C   0  0  0  0  0  0  0  0  0  0  0  0
   40.8540   28.3910   42.8720 C   0  0  0  0  0  0  0  0  0  0  0  0
   41.4520   29.6510   42.7040 C   0  0  0  0  0  0  0  0  0  0  0  0
   40.7230   30.6230   42.0400 N   0  0  0  0  0  0  0  0  0  0  0  0
   39.4880   30.3540   41.5770 C   0  0  0  0  0  0  0  0  0  0  0  0
   38.8840   29.1600   41.7180 N   0  0  0  0  0  0  0  0  0  0  0  0
   41.4500   27.6940   43.3790 H   0  0  0  0  0  0  0  0  0  0  0  0
   42.4310   29.8840   43.0650 H   0  0  0  0  0  0  0  0  0  0  0  0
   38.7630   31.4420   40.8880 C   0  0  0  0  0  0  0  0  0  0  0  0
   37.6750   31.2200   40.1300 C   0  0  0  0  0  0  0  0  0  0  0  0
   37.0000   32.2480   39.4880 C   0  0  0  0  0  0  0  0  0  0  0  0
   37.4760   33.5160   39.6470 C   0  0  0  0  0  0  0  0  0  0  0  0
   38.5800   33.7620   40.4130 C   0  0  0  0  0  0  0  0  0  0  0  0
   39.2260   32.7310   41.0350 N   0  0  0  0  0  0  0  0  0  0  0  0
   37.3390   30.1980   40.0370 H   0  0  0  0  0  0  0  0  0  0  0  0
   36.1210   32.0290   38.8810 H   0  0  0  0  0  0  0  0  0  0  0  0
   36.9510   34.3200   39.1470 H   0  0  0  0  0  0  0  0  0  0  0  0
   38.9070   34.7720   40.5030 H   0  0  0  0  0  0  0  0  0  0  0  0
   37.7550   26.7160   40.4480 N   0  0  0  0  0  0  0  0  0  0  0  0
   37.7570   25.6810   40.1930 H   0  0  0  0  0  0  0  0  0  0  0  0
   36.6950   27.2890   39.6920 C   0  0  0  0  0  0  0  0  0  0  0  0
   35.9260   26.3840   38.9950 F   0  0  0  0  0  0  0  0  0  0  0  0
   37.2900   28.0970   38.7130 F   0  0  0  0  0  0  0  0  0  0  0  0
   35.8190   28.0310   40.4590 F   0  0  0  0  0  0  0  0  0  0  0  0
  1  7  1  1  0  0  0
  2  3  1  0  0  0  0
  2  1  1  0  0  0  0
  2  8  1  0  0  0  0
  3 11  1  0  0  0  0
  4  5  1  0  0  0  0
  4  3  1  0  0  0  0
  4 12  1  0  0  0  0
  5 15  1  0  0  0  0
  6 16  1  1  0  0  0
  6  5  1  0  0  0  0
  6  1  1  0  0  0  0
  9  2  1  0  0  0  0
 10  3  1  0  0  0  0
 13  4  1  0  0  0  0
 14  5  1  0  0  0  0
 17  1  1  0  0  0  0
 17 18  1  0  0  0  0
 18 23  1  0  0  0  0
 19 18  2  0  0  0  0
 19 24  1  0  0  0  0
 20 19  1  0  0  0  0
 21 22  1  0  0  0  0
 21 20  2  0  0  0  0
 22 17  2  0  0  0  0
 25 30  1  0  0  0  0
 25 21  1  0  0  0  0
 26 25  2  0  0  0  0
 27 28  2  0  0  0  0
 27 26  1  0  0  0  0
 28 29  1  0  0  0  0
 29 34  1  0  0  0  0
 29 30  2  0  0  0  0
 31 26  1  0  0  0  0
 32 27  1  0  0  0  0
 33 28  1  0  0  0  0
 35  6  1  0  0  0  0
 36 35  1  0  0  0  0
 37 35  1  0  0  0  0
 37 40  1  0  0  0  0
 38 37  1  0  0  0  0
 39 37  1  0  0  0  0
M  END
>  <minimizedAffinity>
-5.38938999

$$$$

 OpenBabel03252507303D

 40 42  0  0  1  0  0  0  0  0999 V2000
   39.1200   29.6040   42.2610 C   0  0  2  0  0  0  0  0  0  0  0  0
   39.6410   28.1990   41.9870 C   0  0  0  0  0  0  0  0  0  0  0  0
   39.2940   27.3430   43.1800 C   0  0  0  0  0  0  0  0  0  0  0  0
   37.8460   27.4260   43.6000 C   0  0  0  0  0  0  0  0  0  0  0  0
   37.3510   28.8150   43.6790 C   0  0  0  0  0  0  0  0  0  0  0  0
   37.6400   29.5460   42.3970 C   0  0  2  0  0  0  0  0  0  0  0  0
   39.5910   29.8810   43.2320 H   0  0  0  0  0  0  0  0  0  0  0  0
   40.7650   28.2940   42.0170 H   0  0  0  0  0  0  0  0  0  0  0  0
   39.3590   27.7990   41.0200 H   0  0  0  0  0  0  0  0  0  0  0  0
   39.5490   26.2910   42.9730 H   0  0  0  0  0  0  0  0  0  0  0  0
   39.9500   27.6710   44.0270 H   0  0  0  0  0  0  0  0  0  0  0  0
   37.8210   27.0070   44.6470 H   0  0  0  0  0  0  0  0  0  0  0  0
   37.2700   26.7340   42.9870 H   0  0  0  0  0  0  0  0  0  0  0  0
   36.3250   28.8720   44.0350 H   0  0  0  0  0  0  0  0  0  0  0  0
   37.9630   29.3430   44.4640 H   0  0  0  0  0  0  0  0  0  0  0  0
   37.2760   30.5850   42.6050 H   0  0  0  0  0  0  0  0  0  0  0  0
   39.5640   30.5720   41.2630 C   0  0  0  0  0  0  0  0  0  0  0  0
   39.2040   31.9290   41.4370 C   0  0  0  0  0  0  0  0  0  0  0  0
   39.6170   32.8560   40.4660 C   0  0  0  0  0  0  0  0  0  0  0  0
   40.3540   32.3780   39.3960 N   0  0  0  0  0  0  0  0  0  0  0  0
   40.6560   31.0690   39.3030 C   0  0  0  0  0  0  0  0  0  0  0  0
   40.2780   30.1530   40.2140 N   0  0  0  0  0  0  0  0  0  0  0  0
   38.6530   32.3450   42.2250 H   0  0  0  0  0  0  0  0  0  0  0  0
   39.3870   33.8990   40.5210 H   0  0  0  0  0  0  0  0  0  0  0  0
   41.4340   30.6260   38.1280 C   0  0  0  0  0  0  0  0  0  0  0  0
   41.2710   29.4160   37.5660 C   0  0  0  0  0  0  0  0  0  0  0  0
   42.0060   29.0090   36.4630 C   0  0  0  0  0  0  0  0  0  0  0  0
   42.9180   29.8840   35.9500 C   0  0  0  0  0  0  0  0  0  0  0  0
   43.0970   31.1180   36.5060 C   0  0  0  0  0  0  0  0  0  0  0  0
   42.3600   31.4950   37.5930 N   0  0  0  0  0  0  0  0  0  0  0  0
   40.5370   28.7610   38.0100 H   0  0  0  0  0  0  0  0  0  0  0  0
   41.8460   28.0180   36.0330 H   0  0  0  0  0  0  0  0  0  0  0  0
   43.4920   29.5690   35.0880 H   0  0  0  0  0  0  0  0  0  0  0  0
   43.8230   31.7610   36.0640 H   0  0  0  0  0  0  0  0  0  0  0  0
   37.0290   28.9520   41.2630 N   0  0  0  0  0  0  0  0  0  0  0  0
   36.5670   28.0560   41.6110 H   0  0  0  0  0  0  0  0  0  0  0  0
   35.9850   29.7040   40.6570 C   0  0  0  0  0  0  0  0  0  0  0  0
   36.1970   30.0300   39.3370 F   0  0  0  0  0  0  0  0  0  0  0  0
   35.9300   30.9300   41.3350 F   0  0  0  0  0  0  0  0  0  0  0  0
   34.7590   29.0720   40.7090 F   0  0  0  0  0  0  0  0  0  0  0  0
  1  6  1  0  0  0  0
  1  7  1  1  0  0  0
  2  8  1  0  0  0  0
  2  1  1  0  0  0  0
  2  3  1  0  0  0  0
  3  4  1  0  0  0  0
  3 11  1  0  0  0  0
  4  5  1  0  0  0  0
  4 12  1  0  0  0  0
  5 14  1  0  0  0  0
  5 15  1  0  0  0  0
  6 16  1  1  0  0  0
  6  5  1  0  0  0  0
  9  2  1  0  0  0  0
 10  3  1  0  0  0  0
 13  4  1  0  0  0  0
 17 18  1  0  0  0  0
 17  1  1  0  0  0  0
 18 23  1  0  0  0  0
 19 24  1  0  0  0  0
 19 18  2  0  0  0  0
 20 19  1  0  0  0  0
 21 20  2  0  0  0  0
 21 22  1  0  0  0  0
 22 17  2  0  0  0  0
 25 21  1  0  0  0  0
 26 31  1  0  0  0  0
 26 25  2  0  0  0  0
 27 26  1  0  0  0  0
 28 27  2  0  0  0  0
 28 29  1  0  0  0  0
 29 30  2  0  0  0  0
 30 25  1  0  0  0  0
 32 27  1  0  0  0  0
 33 28  1  0  0  0  0
 34 29  1  0  0  0  0
 35 36  1  0  0  0  0
 35  6  1  0  0  0  0
 37 40  1  0  0  0  0
 37 35  1  0  0  0  0
 37 39  1  0  0  0  0
 38 37  1  0  0  0  0
M  END
>  <minimizedAffinity>
-5.37497902

$$$$

 OpenBabel03252507303D

 40 42  0  0  1  0  0  0  0  0999 V2000
   38.1520   31.8740   40.8580 C   0  0  2  0  0  0  0  0  0  0  0  0
   37.4230   32.7750   39.8710 C   0  0  0  0  0  0  0  0  0  0  0  0
   38.0390   34.1500   39.9670 C   0  0  0  0  0  0  0  0  0  0  0  0
   39.5450   34.1610   39.8650 C   0  0  0  0  0  0  0  0  0  0  0  0
   40.1850   33.1420   40.7210 C   0  0  0  0  0  0  0  0  0  0  0  0
   39.5820   31.7890   40.4620 C   0  0  2  0  0  0  0  0  0  0  0  0
   38.0470   32.4030   41.8340 H   0  0  0  0  0  0  0  0  0  0  0  0
   36.3840   32.8940   40.2960 H   0  0  0  0  0  0  0  0  0  0  0  0
   37.3370   32.3650   38.8710 H   0  0  0  0  0  0  0  0  0  0  0  0
   37.6200   34.8040   39.1860 H   0  0  0  0  0  0  0  0  0  0  0  0
   37.7250   34.5860   40.9510 H   0  0  0  0  0  0  0  0  0  0  0  0
   39.8570   35.1700   40.2620 H   0  0  0  0  0  0  0  0  0  0  0  0
   39.8180   34.1570   38.8100 H   0  0  0  0  0  0  0  0  0  0  0  0
   41.2710   33.1910   40.6850 H   0  0  0  0  0  0  0  0  0  0  0  0
   39.9150   33.3860   41.7870 H   0  0  0  0  0  0  0  0  0  0  0  0
   40.1030   31.1290   41.2020 H   0  0  0  0  0  0  0  0  0  0  0  0
   37.5190   30.5660   40.9970 C   0  0  0  0  0  0  0  0  0  0  0  0
   36.1770   30.4210   40.5730 C   0  0  0  0  0  0  0  0  0  0  0  0
   35.5630   29.1670   40.7240 C   0  0  0  0  0  0  0  0  0  0  0  0
   36.3170   28.1480   41.2820 N   0  0  0  0  0  0  0  0  0  0  0  0
   37.5910   28.3680   41.6610 C   0  0  0  0  0  0  0  0  0  0  0  0
   38.2110   29.5550   41.5310 N   0  0  0  0  0  0  0  0  0  0  0  0
   35.5620   31.1540   40.1430 H   0  0  0  0  0  0  0  0  0  0  0  0
   34.5540   28.9720   40.4310 H   0  0  0  0  0  0  0  0  0  0  0  0
   38.3320   27.2400   42.2610 C   0  0  0  0  0  0  0  0  0  0  0  0
   39.3500   27.4170   43.1210 C   0  0  0  0  0  0  0  0  0  0  0  0
   40.0390   26.3510   43.6790 C   0  0  0  0  0  0  0  0  0  0  0  0
   39.6520   25.0910   43.3280 C   0  0  0  0  0  0  0  0  0  0  0  0
   38.6200   24.8900   42.4570 C   0  0  0  0  0  0  0  0  0  0  0  0
   37.9570   25.9570   41.9210 N   0  0  0  0  0  0  0  0  0  0  0  0
   39.6160   28.4340   43.3650 H   0  0  0  0  0  0  0  0  0  0  0  0
   40.8610   26.5350   44.3740 H   0  0  0  0  0  0  0  0  0  0  0  0
   40.1890   24.2580   43.7630 H   0  0  0  0  0  0  0  0  0  0  0  0
   38.3610   23.8850   42.2190 H   0  0  0  0  0  0  0  0  0  0  0  0
   39.7320   31.3560   39.1190 N   0  0  0  0  0  0  0  0  0  0  0  0
   40.2470   32.1400   38.6120 H   0  0  0  0  0  0  0  0  0  0  0  0
   40.5310   30.1950   38.9290 C   0  0  0  0  0  0  0  0  0  0  0  0
   41.3750   30.2440   37.8430 F   0  0  0  0  0  0  0  0  0  0  0  0
   39.6480   29.1400   38.6630 F   0  0  0  0  0  0  0  0  0  0  0  0
   41.3220   29.8950   40.0210 F   0  0  0  0  0  0  0  0  0  0  0  0
  1 17  1  0  0  0  0
  1  7  1  1  0  0  0
  2  3  1  0  0  0  0
  2  8  1  0  0  0  0
  2  1  1  0  0  0  0
  3 11  1  0  0  0  0
  4  3  1  0  0  0  0
  4 12  1  0  0  0  0
  4  5  1  0  0  0  0
  5 15  1  0  0  0  0
  6  5  1  0  0  0  0
  6  1  1  0  0  0  0
  6 16  1  1  0  0  0
  9  2  1  0  0  0  0
 10  3  1  0  0  0  0
 13  4  1  0  0  0  0
 14  5  1  0  0  0  0
 17 22  1  0  0  0  0
 18 19  1  0  0  0  0
 18 17  2  0  0  0  0
 19 20  2  0  0  0  0
 20 21  1  0  0  0  0
 21 25  1  0  0  0  0
 22 21  2  0  0  0  0
 23 18  1  0  0  0  0
 24 19  1  0  0  0  0
 25 26  1  0  0  0  0
 26 31  1  0  0  0  0
 26 27  2  0  0  0  0
 27 32  1  0  0  0  0
 28 27  1  0  0  0  0
 28 33  1  0  0  0  0
 29 28  2  0  0  0  0
 30 25  2  0  0  0  0
 30 29  1  0  0  0  0
 34 29  1  0  0  0  0
 35  6  1  0  0  0  0
 36 35  1  0  0  0  0
 37 35  1  0  0  0  0
 37 40  1  0  0  0  0
 38 37  1  0  0  0  0
 39 37  1  0  0  0  0
M  END
>  <minimizedAffinity>
-5.34883976

$$$$

 OpenBabel03252507303D

 40 42  0  0  1  0  0  0  0  0999 V2000
   37.1570   29.5340   38.9520 C   0  0  2  0  0  0  0  0  0  0  0  0
   35.7020   29.6630   38.5210 C   0  0  0  0  0  0  0  0  0  0  0  0
   35.3410   28.4170   37.7500 C   0  0  0  0  0  0  0  0  0  0  0  0
   35.6960   27.1300   38.4540 C   0  0  0  0  0  0  0  0  0  0  0  0
   37.0680   27.1350   39.0020 C   0  0  0  0  0  0  0  0  0  0  0  0
   37.2850   28.3560   39.8510 C   0  0  2  0  0  0  0  0  0  0  0  0
   37.7050   29.3580   37.9980 H   0  0  0  0  0  0  0  0  0  0  0  0
   35.6980   30.4900   37.7520 H   0  0  0  0  0  0  0  0  0  0  0  0
   35.0220   29.9380   39.3190 H   0  0  0  0  0  0  0  0  0  0  0  0
   34.2640   28.4170   37.5200 H   0  0  0  0  0  0  0  0  0  0  0  0
   35.8780   28.4680   36.7670 H   0  0  0  0  0  0  0  0  0  0  0  0
   35.6650   26.3380   37.6500 H   0  0  0  0  0  0  0  0  0  0  0  0
   34.8920   26.8840   39.1470 H   0  0  0  0  0  0  0  0  0  0  0  0
   37.3370   26.1860   39.4600 H   0  0  0  0  0  0  0  0  0  0  0  0
   37.7740   27.2520   38.1320 H   0  0  0  0  0  0  0  0  0  0  0  0
   38.3610   28.2730   40.1520 H   0  0  0  0  0  0  0  0  0  0  0  0
   37.6790   30.7620   39.5400 C   0  0  0  0  0  0  0  0  0  0  0  0
   36.9490   31.9600   39.3530 C   0  0  0  0  0  0  0  0  0  0  0  0
   37.4630   33.1450   39.9050 C   0  0  0  0  0  0  0  0  0  0  0  0
   38.6580   33.0630   40.5990 N   0  0  0  0  0  0  0  0  0  0  0  0
   39.2920   31.8830   40.7330 C   0  0  0  0  0  0  0  0  0  0  0  0
   38.8300   30.7280   40.2190 N   0  0  0  0  0  0  0  0  0  0  0  0
   36.0420   32.0790   38.8410 H   0  0  0  0  0  0  0  0  0  0  0  0
   36.9750   34.0920   39.8090 H   0  0  0  0  0  0  0  0  0  0  0  0
   40.5690   31.8710   41.4750 C   0  0  0  0  0  0  0  0  0  0  0  0
   40.7830   31.0740   42.5360 C   0  0  0  0  0  0  0  0  0  0  0  0
   41.9850   31.0700   43.2270 C   0  0  0  0  0  0  0  0  0  0  0  0
   42.9680   31.9120   42.7950 C   0  0  0  0  0  0  0  0  0  0  0  0
   42.7710   32.7280   41.7180 C   0  0  0  0  0  0  0  0  0  0  0  0
   41.5770   32.7130   41.0550 N   0  0  0  0  0  0  0  0  0  0  0  0
   39.9730   30.4270   42.8370 H   0  0  0  0  0  0  0  0  0  0  0  0
   42.1220   30.4090   44.0840 H   0  0  0  0  0  0  0  0  0  0  0  0
   43.9080   31.9090   43.3320 H   0  0  0  0  0  0  0  0  0  0  0  0
   43.5730   33.3650   41.4250 H   0  0  0  0  0  0  0  0  0  0  0  0
   36.3980   28.4370   40.9550 N   0  0  0  0  0  0  0  0  0  0  0  0
   35.7300   27.6110   40.8580 H   0  0  0  0  0  0  0  0  0  0  0  0
   36.9920   28.2940   42.2390 C   0  0  0  0  0  0  0  0  0  0  0  0
   37.3220   29.4770   42.8600 F   0  0  0  0  0  0  0  0  0  0  0  0
   38.2100   27.6270   42.0450 F   0  0  0  0  0  0  0  0  0  0  0  0
   36.2000   27.5950   43.1300 F   0  0  0  0  0  0  0  0  0  0  0  0
  1  7  1  6  0  0  0
  1 17  1  0  0  0  0
  1  6  1  0  0  0  0
  2  1  1  0  0  0  0
  2  9  1  0  0  0  0
  3  4  1  0  0  0  0
  3  2  1  0  0  0  0
  4  5  1  0  0  0  0
  4 13  1  0  0  0  0
  5 14  1  0  0  0  0
  5  6  1  0  0  0  0
  6 16  1  1  0  0  0
  6 35  1  0  0  0  0
  8  2  1  0  0  0  0
 10  3  1  0  0  0  0
 11  3  1  0  0  0  0
 12  4  1  0  0  0  0
 15  5  1  0  0  0  0
 17 22  1  0  0  0  0
 18 17  2  0  0  0  0
 18 19  1  0  0  0  0
 19 20  2  0  0  0  0
 20 21  1  0  0  0  0
 21 25  1  0  0  0  0
 22 21  2  0  0  0  0
 23 18  1  0  0  0  0
 24 19  1  0  0  0  0
 25 26  1  0  0  0  0
 26 31  1  0  0  0  0
 26 27  2  0  0  0  0
 27 32  1  0  0  0  0
 28 27  1  0  0  0  0
 28 33  1  0  0  0  0
 29 28  2  0  0  0  0
 30 25  2  0  0  0  0
 30 29  1  0  0  0  0
 34 29  1  0  0  0  0
 35 37  1  0  0  0  0
 36 35  1  0  0  0  0
 37 38  1  0  0  0  0
 37 40  1  0  0  0  0
 39 37  1  0  0  0  0
M  END
>  <minimizedAffinity>
-5.31118679

$$$$
