
 OpenBabel03252507543D

 39 41  0  0  1  0  0  0  0  0999 V2000
   47.0030   34.8050   41.9610 C   0  0  2  0  0  0  0  0  0  0  0  0
   46.1980   34.2270   40.7930 C   0  0  0  0  0  0  0  0  0  0  0  0
   47.3770   34.0170   39.8180 C   0  0  0  0  0  0  0  0  0  0  0  0
   48.5220   33.5910   40.6850 C   0  0  1  0  0  0  0  0  0  0  0  0
   48.0390   33.7220   42.1010 C   0  0  0  0  0  0  0  0  0  0  0  0
   47.3930   35.7710   41.6400 H   0  0  0  0  0  0  0  0  0  0  0  0
   45.4920   34.9660   40.4090 H   0  0  0  0  0  0  0  0  0  0  0  0
   45.7560   33.2650   41.0890 H   0  0  0  0  0  0  0  0  0  0  0  0
   47.6350   35.0210   39.4170 H   0  0  0  0  0  0  0  0  0  0  0  0
   47.1240   33.3100   39.0180 H   0  0  0  0  0  0  0  0  0  0  0  0
   49.4330   34.2130   40.5170 H   0  0  0  0  0  0  0  0  0  0  0  0
   47.5920   32.8270   42.5290 H   0  0  0  0  0  0  0  0  0  0  0  0
   48.8640   34.1430   42.7200 H   0  0  0  0  0  0  0  0  0  0  0  0
   44.5230   35.9870   44.5380 C   0  0  0  0  0  0  0  0  0  0  0  0
   45.2380   35.9610   43.3450 C   0  0  0  0  0  0  0  0  0  0  0  0
   46.1580   34.9300   43.1840 C   0  0  0  0  0  0  0  0  0  0  0  0
   46.3390   33.9730   44.1930 N   0  0  0  0  0  0  0  0  0  0  0  0
   45.6100   34.0550   45.3350 C   0  0  0  0  0  0  0  0  0  0  0  0
   44.7060   35.0600   45.5030 N   0  0  0  0  0  0  0  0  0  0  0  0
   43.8010   36.7820   44.6810 H   0  0  0  0  0  0  0  0  0  0  0  0
   45.1290   36.6780   42.5460 H   0  0  0  0  0  0  0  0  0  0  0  0
   45.8090   33.2870   46.0540 H   0  0  0  0  0  0  0  0  0  0  0  0
   48.9480   32.1520   40.4930 C   0  0  2  0  0  0  0  0  0  0  0  0
   49.5740   31.5090   41.6370 C   0  0  0  0  0  0  0  0  0  0  0  0
   50.3590   31.7770   40.3910 C   0  0  1  0  0  0  0  0  0  0  0  0
   48.2310   31.5620   39.8930 H   0  0  0  0  0  0  0  0  0  0  0  0
   49.8400   32.1420   42.5120 H   0  0  0  0  0  0  0  0  0  0  0  0
   49.3560   30.4600   41.9290 H   0  0  0  0  0  0  0  0  0  0  0  0
   51.0450   32.6400   40.2860 H   0  0  0  0  0  0  0  0  0  0  0  0
   50.6730   30.6600   39.5740 O   0  0  0  0  0  0  0  0  0  0  0  0
   52.2000   29.9920   37.5690 O   0  0  0  0  0  0  0  0  0  0  0  0
   51.9510   31.0900   38.5720 P   0  0  1  0  0  0  0  0  0  0  0  0
   51.5600   32.5110   37.6950 O   0  0  0  0  0  0  0  0  0  0  0  0
   50.9790   32.2530   36.9360 H   0  0  0  0  0  0  0  0  0  0  0  0
   53.3710   31.4000   39.3790 O   0  0  0  0  0  0  0  0  0  0  0  0
   53.8220   30.1700   39.9100 C   0  0  0  0  0  0  0  0  0  0  0  0
   54.4690   30.4420   41.0960 F   0  0  0  0  0  0  0  0  0  0  0  0
   52.7960   29.2930   40.1170 F   0  0  0  0  0  0  0  0  0  0  0  0
   54.7050   29.5420   39.0340 F   0  0  0  0  0  0  0  0  0  0  0  0
  1  6  1  6  0  0  0
  1  5  1  0  0  0  0
  1 16  1  0  0  0  0
  2  8  1  0  0  0  0
  2  1  1  0  0  0  0
  3  4  1  0  0  0  0
  3  2  1  0  0  0  0
  4 11  1  6  0  0  0
  4  5  1  0  0  0  0
  5 12  1  0  0  0  0
  5 13  1  0  0  0  0
  7  2  1  0  0  0  0
  9  3  1  0  0  0  0
 10  3  1  0  0  0  0
 14 20  1  0  0  0  0
 14 19  1  0  0  0  0
 15 14  2  0  0  0  0
 16 15  1  0  0  0  0
 16 17  2  0  0  0  0
 17 18  1  0  0  0  0
 18 19  2  0  0  0  0
 18 22  1  0  0  0  0
 21 15  1  0  0  0  0
 23 26  1  6  0  0  0
 23  4  1  0  0  0  0
 23 24  1  0  0  0  0
 24 28  1  0  0  0  0
 24 27  1  0  0  0  0
 25 29  1  1  0  0  0
 25 23  1  0  0  0  0
 25 24  1  0  0  0  0
 30 25  1  0  0  0  0
 32 31  2  6  0  0  0
 32 35  1  0  0  0  0
 32 30  1  0  0  0  0
 33 32  1  0  0  0  0
 34 33  1  0  0  0  0
 35 36  1  0  0  0  0
 36 38  1  0  0  0  0
 36 37  1  0  0  0  0
 39 36  1  0  0  0  0
M  END
>  <minimizedAffinity>
-5.05028534

>  <minimizedRMSD>
0.452214062

$$$$
