
 OpenBabel03252504083D

 17 17  0  0  0  0  0  0  0  0999 V2000
   38.6910   26.6420   42.5000 C   0  0  0  0  0  0  0  0  0  0  0  0
   38.6360   25.2500   42.4270 C   0  0  0  0  0  0  0  0  0  0  0  0
   39.6790   24.5180   43.0210 C   0  0  0  0  0  0  0  0  0  0  0  0
   40.6800   25.1950   43.6320 N   0  0  0  0  0  0  0  0  0  0  0  0
   40.6930   26.5490   43.6790 C   0  0  0  0  0  0  0  0  0  0  0  0
   39.7080   27.2720   43.1190 N   0  0  0  0  0  0  0  0  0  0  0  0
   39.6400   23.4280   42.9670 H   0  0  0  0  0  0  0  0  0  0  0  0
   41.5340   27.0090   44.1890 H   0  0  0  0  0  0  0  0  0  0  0  0
   37.4970   24.5980   41.7310 C   0  0  0  0  0  0  0  0  0  0  0  0
   37.7840   23.2550   41.5230 F   0  0  0  0  0  0  0  0  0  0  0  0
   36.3980   24.6430   42.5680 F   0  0  0  0  0  0  0  0  0  0  0  0
   37.1830   25.1360   40.5280 F   0  0  0  0  0  0  0  0  0  0  0  0
   37.6810   27.3330   41.9270 O   0  0  0  0  0  0  0  0  0  0  0  0
   36.7130   28.1210   42.5750 C   0  0  0  0  0  0  0  0  0  0  0  0
   36.1840   27.3420   43.6100 F   0  0  0  0  0  0  0  0  0  0  0  0
   37.2760   29.2820   43.0220 F   0  0  0  0  0  0  0  0  0  0  0  0
   35.6460   28.3460   41.7220 F   0  0  0  0  0  0  0  0  0  0  0  0
  1  6  1  0  0  0  0
  2  1  2  0  0  0  0
  2  3  1  0  0  0  0
  3  4  2  0  0  0  0
  4  5  1  0  0  0  0
  5  8  1  0  0  0  0
  6  5  2  0  0  0  0
  7  3  1  0  0  0  0
  9  2  1  0  0  0  0
  9 11  1  0  0  0  0
 10  9  1  0  0  0  0
 12  9  1  0  0  0  0
 13  1  1  0  0  0  0
 13 14  1  0  0  0  0
 14 16  1  0  0  0  0
 14 15  1  0  0  0  0
 17 14  1  0  0  0  0
M  END
>  <minimizedAffinity>
-4.49833202

$$$$

 OpenBabel03252504083D

 17 17  0  0  0  0  0  0  0  0999 V2000
   39.1630   27.2680   43.3380 C   0  0  0  0  0  0  0  0  0  0  0  0
   38.5080   26.1290   42.8680 C   0  0  0  0  0  0  0  0  0  0  0  0
   39.2510   24.9400   42.7590 C   0  0  0  0  0  0  0  0  0  0  0  0
   40.5580   24.9580   43.1150 N   0  0  0  0  0  0  0  0  0  0  0  0
   41.1530   26.0870   43.5660 C   0  0  0  0  0  0  0  0  0  0  0  0
   40.4650   27.2370   43.6800 N   0  0  0  0  0  0  0  0  0  0  0  0
   38.7430   24.0470   42.3920 H   0  0  0  0  0  0  0  0  0  0  0  0
   42.2040   26.0110   43.8280 H   0  0  0  0  0  0  0  0  0  0  0  0
   37.0710   26.2100   42.4990 C   0  0  0  0  0  0  0  0  0  0  0  0
   36.9360   26.8880   41.2940 F   0  0  0  0  0  0  0  0  0  0  0  0
   36.6090   24.9250   42.2840 F   0  0  0  0  0  0  0  0  0  0  0  0
   36.2860   26.8370   43.4070 F   0  0  0  0  0  0  0  0  0  0  0  0
   38.4360   28.4020   43.4390 O   0  0  0  0  0  0  0  0  0  0  0  0
   38.4890   29.5250   42.5940 C   0  0  0  0  0  0  0  0  0  0  0  0
   37.1650   29.9130   42.3540 F   0  0  0  0  0  0  0  0  0  0  0  0
   39.2340   30.5130   43.1720 F   0  0  0  0  0  0  0  0  0  0  0  0
   38.9770   29.1530   41.3520 F   0  0  0  0  0  0  0  0  0  0  0  0
  1 13  1  0  0  0  0
  1  6  1  0  0  0  0
  2  1  2  0  0  0  0
  3  2  1  0  0  0  0
  3  4  2  0  0  0  0
  4  5  1  0  0  0  0
  5  6  2  0  0  0  0
  5  8  1  0  0  0  0
  7  3  1  0  0  0  0
  9  2  1  0  0  0  0
  9 12  1  0  0  0  0
 10  9  1  0  0  0  0
 11  9  1  0  0  0  0
 14 16  1  0  0  0  0
 14 13  1  0  0  0  0
 15 14  1  0  0  0  0
 17 14  1  0  0  0  0
M  END
>  <minimizedAffinity>
-4.3706708

$$$$

 OpenBabel03252504083D

 17 17  0  0  0  0  0  0  0  0999 V2000
   38.1160   29.2990   42.3830 C   0  0  0  0  0  0  0  0  0  0  0  0
   38.2290   27.9270   42.6040 C   0  0  0  0  0  0  0  0  0  0  0  0
   39.5080   27.4050   42.8680 C   0  0  0  0  0  0  0  0  0  0  0  0
   40.5620   28.2560   42.8950 N   0  0  0  0  0  0  0  0  0  0  0  0
   40.4060   29.5830   42.6750 C   0  0  0  0  0  0  0  0  0  0  0  0
   39.1940   30.1070   42.4200 N   0  0  0  0  0  0  0  0  0  0  0  0
   39.6010   26.3320   43.0420 H   0  0  0  0  0  0  0  0  0  0  0  0
   41.3050   30.1910   42.7150 H   0  0  0  0  0  0  0  0  0  0  0  0
   37.0140   27.0740   42.5490 C   0  0  0  0  0  0  0  0  0  0  0  0
   36.4950   27.0820   41.2610 F   0  0  0  0  0  0  0  0  0  0  0  0
   37.3900   25.7700   42.8160 F   0  0  0  0  0  0  0  0  0  0  0  0
   36.0190   27.4480   43.3900 F   0  0  0  0  0  0  0  0  0  0  0  0
   36.8810   29.7870   42.1330 O   0  0  0  0  0  0  0  0  0  0  0  0
   36.4030   30.3100   40.9180 C   0  0  0  0  0  0  0  0  0  0  0  0
   35.1380   29.7490   40.7070 F   0  0  0  0  0  0  0  0  0  0  0  0
   36.3730   31.6740   40.9740 F   0  0  0  0  0  0  0  0  0  0  0  0
   37.1760   29.8400   39.8700 F   0  0  0  0  0  0  0  0  0  0  0  0
  1  6  2  0  0  0  0
  1  2  1  0  0  0  0
  2  3  2  0  0  0  0
  3  4  1  0  0  0  0
  3  7  1  0  0  0  0
  5  8  1  0  0  0  0
  5  4  2  0  0  0  0
  6  5  1  0  0  0  0
  9  2  1  0  0  0  0
  9 11  1  0  0  0  0
  9 12  1  0  0  0  0
 10  9  1  0  0  0  0
 13  1  1  0  0  0  0
 14 16  1  0  0  0  0
 14 13  1  0  0  0  0
 15 14  1  0  0  0  0
 17 14  1  0  0  0  0
M  END
>  <minimizedAffinity>
-4.25589943

$$$$

 OpenBabel03252504083D

 17 17  0  0  0  0  0  0  0  0999 V2000
   38.4180   25.3980   42.7120 C   0  0  0  0  0  0  0  0  0  0  0  0
   38.3070   26.7690   42.9460 C   0  0  0  0  0  0  0  0  0  0  0  0
   39.4590   27.4620   43.3590 C   0  0  0  0  0  0  0  0  0  0  0  0
   40.6130   26.7690   43.5080 N   0  0  0  0  0  0  0  0  0  0  0  0
   40.6750   25.4370   43.2710 C   0  0  0  0  0  0  0  0  0  0  0  0
   39.5890   24.7510   42.8750 N   0  0  0  0  0  0  0  0  0  0  0  0
   39.3770   28.5350   43.5430 H   0  0  0  0  0  0  0  0  0  0  0  0
   41.6410   24.9620   43.4160 H   0  0  0  0  0  0  0  0  0  0  0  0
   36.9950   27.4400   42.7580 C   0  0  0  0  0  0  0  0  0  0  0  0
   36.0720   26.9200   43.6560 F   0  0  0  0  0  0  0  0  0  0  0  0
   37.1460   28.7770   43.0760 F   0  0  0  0  0  0  0  0  0  0  0  0
   36.4670   27.3180   41.5170 F   0  0  0  0  0  0  0  0  0  0  0  0
   37.3040   24.7460   42.3140 O   0  0  0  0  0  0  0  0  0  0  0  0
   37.1030   24.0680   41.0980 C   0  0  0  0  0  0  0  0  0  0  0  0
   37.5440   24.9240   40.0810 F   0  0  0  0  0  0  0  0  0  0  0  0
   37.7660   22.8750   41.1100 F   0  0  0  0  0  0  0  0  0  0  0  0
   35.7460   23.9170   40.8660 F   0  0  0  0  0  0  0  0  0  0  0  0
  1  6  2  0  0  0  0
  1  2  1  0  0  0  0
  2  3  2  0  0  0  0
  3  4  1  0  0  0  0
  3  7  1  0  0  0  0
  5  8  1  0  0  0  0
  5  4  2  0  0  0  0
  6  5  1  0  0  0  0
  9  2  1  0  0  0  0
  9 11  1  0  0  0  0
  9 10  1  0  0  0  0
 12  9  1  0  0  0  0
 13  1  1  0  0  0  0
 14 16  1  0  0  0  0
 14 13  1  0  0  0  0
 15 14  1  0  0  0  0
 17 14  1  0  0  0  0
M  END
>  <minimizedAffinity>
-4.25493717

$$$$

 OpenBabel03252504083D

 17 17  0  0  0  0  0  0  0  0999 V2000
   37.2360   26.5090   40.7420 C   0  0  0  0  0  0  0  0  0  0  0  0
   36.8180   27.7030   41.3290 C   0  0  0  0  0  0  0  0  0  0  0  0
   36.0240   28.5720   40.5600 C   0  0  0  0  0  0  0  0  0  0  0  0
   35.7050   28.2100   39.2950 N   0  0  0  0  0  0  0  0  0  0  0  0
   36.1330   27.0400   38.7650 C   0  0  0  0  0  0  0  0  0  0  0  0
   36.8930   26.1910   39.4790 N   0  0  0  0  0  0  0  0  0  0  0  0
   35.6950   29.5080   41.0160 H   0  0  0  0  0  0  0  0  0  0  0  0
   35.8300   26.8290   37.7430 H   0  0  0  0  0  0  0  0  0  0  0  0
   37.2240   28.0140   42.7240 C   0  0  0  0  0  0  0  0  0  0  0  0
   38.5770   27.7450   42.8880 F   0  0  0  0  0  0  0  0  0  0  0  0
   37.0640   29.3730   42.9260 F   0  0  0  0  0  0  0  0  0  0  0  0
   36.5540   27.3240   43.6780 F   0  0  0  0  0  0  0  0  0  0  0  0
   37.9960   25.6820   41.4930 O   0  0  0  0  0  0  0  0  0  0  0  0
   37.6020   24.4710   42.0910 C   0  0  0  0  0  0  0  0  0  0  0  0
   38.5730   24.1600   43.0500 F   0  0  0  0  0  0  0  0  0  0  0  0
   36.3520   24.5970   42.6250 F   0  0  0  0  0  0  0  0  0  0  0  0
   37.6810   23.4450   41.1640 F   0  0  0  0  0  0  0  0  0  0  0  0
  1  2  1  0  0  0  0
  1 13  1  0  0  0  0
  2  9  1  0  0  0  0
  3  7  1  0  0  0  0
  3  2  2  0  0  0  0
  4  3  1  0  0  0  0
  5  4  2  0  0  0  0
  5  6  1  0  0  0  0
  6  1  2  0  0  0  0
  8  5  1  0  0  0  0
  9 10  1  0  0  0  0
  9 11  1  0  0  0  0
  9 12  1  0  0  0  0
 13 14  1  0  0  0  0
 14 16  1  0  0  0  0
 14 15  1  0  0  0  0
 17 14  1  0  0  0  0
M  END
>  <minimizedAffinity>
-4.13046455

$$$$

 OpenBabel03252504083D

 17 17  0  0  0  0  0  0  0  0999 V2000
   39.1420   27.2620   42.9420 C   0  0  0  0  0  0  0  0  0  0  0  0
   38.0920   28.0400   42.4540 C   0  0  0  0  0  0  0  0  0  0  0  0
   38.3760   29.3630   42.0710 C   0  0  0  0  0  0  0  0  0  0  0  0
   39.6470   29.8140   42.1930 N   0  0  0  0  0  0  0  0  0  0  0  0
   40.6360   29.0230   42.6720 C   0  0  0  0  0  0  0  0  0  0  0  0
   40.3920   27.7550   43.0450 N   0  0  0  0  0  0  0  0  0  0  0  0
   37.5570   29.9760   41.6890 H   0  0  0  0  0  0  0  0  0  0  0  0
   41.6250   29.4670   42.7350 H   0  0  0  0  0  0  0  0  0  0  0  0
   36.7290   27.4560   42.3620 C   0  0  0  0  0  0  0  0  0  0  0  0
   35.8370   28.4210   41.9130 F   0  0  0  0  0  0  0  0  0  0  0  0
   36.7520   26.4610   41.4030 F   0  0  0  0  0  0  0  0  0  0  0  0
   36.2420   26.9640   43.5270 F   0  0  0  0  0  0  0  0  0  0  0  0
   38.8560   25.9920   43.3040 O   0  0  0  0  0  0  0  0  0  0  0  0
   39.1930   24.8130   42.6140 C   0  0  0  0  0  0  0  0  0  0  0  0
   39.4910   25.1860   41.2980 F   0  0  0  0  0  0  0  0  0  0  0  0
   40.2350   24.1870   43.2360 F   0  0  0  0  0  0  0  0  0  0  0  0
   38.0760   24.0010   42.5060 F   0  0  0  0  0  0  0  0  0  0  0  0
  1  6  1  0  0  0  0
  1 13  1  0  0  0  0
  2  1  2  0  0  0  0
  3  4  2  0  0  0  0
  3  2  1  0  0  0  0
  4  5  1  0  0  0  0
  5  8  1  0  0  0  0
  5  6  2  0  0  0  0
  7  3  1  0  0  0  0
  9  2  1  0  0  0  0
  9 12  1  0  0  0  0
 10  9  1  0  0  0  0
 11  9  1  0  0  0  0
 14 16  1  0  0  0  0
 14 13  1  0  0  0  0
 15 14  1  0  0  0  0
 17 14  1  0  0  0  0
M  END
>  <minimizedAffinity>
-4.07882595

$$$$

 OpenBabel03252504083D

 17 17  0  0  0  0  0  0  0  0999 V2000
   38.0260   29.8310   40.4800 C   0  0  0  0  0  0  0  0  0  0  0  0
   37.4940   29.2020   41.6060 C   0  0  0  0  0  0  0  0  0  0  0  0
   38.1420   29.3980   42.8380 C   0  0  0  0  0  0  0  0  0  0  0  0
   39.2450   30.1830   42.8730 N   0  0  0  0  0  0  0  0  0  0  0  0
   39.7280   30.7740   41.7540 C   0  0  0  0  0  0  0  0  0  0  0  0
   39.1270   30.6040   40.5640 N   0  0  0  0  0  0  0  0  0  0  0  0
   37.7290   28.9080   43.7220 H   0  0  0  0  0  0  0  0  0  0  0  0
   40.6160   31.3870   41.8730 H   0  0  0  0  0  0  0  0  0  0  0  0
   36.2810   28.3550   41.4670 C   0  0  0  0  0  0  0  0  0  0  0  0
   36.5320   27.3220   40.5720 F   0  0  0  0  0  0  0  0  0  0  0  0
   36.0250   27.7650   42.6900 F   0  0  0  0  0  0  0  0  0  0  0  0
   35.1780   29.0100   41.0300 F   0  0  0  0  0  0  0  0  0  0  0  0
   37.3920   29.6350   39.3040 O   0  0  0  0  0  0  0  0  0  0  0  0
   36.7080   30.5950   38.5360 C   0  0  0  0  0  0  0  0  0  0  0  0
   35.5440   29.9790   38.0620 F   0  0  0  0  0  0  0  0  0  0  0  0
   36.4500   31.7030   39.2900 F   0  0  0  0  0  0  0  0  0  0  0  0
   37.4390   30.8890   37.3960 F   0  0  0  0  0  0  0  0  0  0  0  0
  1  6  2  0  0  0  0
  1  2  1  0  0  0  0
  2  3  2  0  0  0  0
  3  4  1  0  0  0  0
  3  7  1  0  0  0  0
  5  8  1  0  0  0  0
  5  4  2  0  0  0  0
  6  5  1  0  0  0  0
  9  2  1  0  0  0  0
  9 11  1  0  0  0  0
 10  9  1  0  0  0  0
 12  9  1  0  0  0  0
 13  1  1  0  0  0  0
 14 16  1  0  0  0  0
 14 13  1  0  0  0  0
 15 14  1  0  0  0  0
 17 14  1  0  0  0  0
M  END
>  <minimizedAffinity>
-4.05527878

$$$$

 OpenBabel03252504083D

 17 17  0  0  0  0  0  0  0  0999 V2000
   36.6250   29.4260   41.3200 C   0  0  0  0  0  0  0  0  0  0  0  0
   37.7830   30.1190   41.6740 C   0  0  0  0  0  0  0  0  0  0  0  0
   38.5410   29.6290   42.7520 C   0  0  0  0  0  0  0  0  0  0  0  0
   38.1130   28.5140   43.3910 N   0  0  0  0  0  0  0  0  0  0  0  0
   36.9820   27.8720   43.0140 C   0  0  0  0  0  0  0  0  0  0  0  0
   36.2390   28.3200   41.9870 N   0  0  0  0  0  0  0  0  0  0  0  0
   39.4480   30.1680   43.0320 H   0  0  0  0  0  0  0  0  0  0  0  0
   36.7130   26.9870   43.5820 H   0  0  0  0  0  0  0  0  0  0  0  0
   38.1690   31.3360   40.9130 C   0  0  0  0  0  0  0  0  0  0  0  0
   38.4850   30.9900   39.6060 F   0  0  0  0  0  0  0  0  0  0  0  0
   37.0670   32.1680   40.8460 F   0  0  0  0  0  0  0  0  0  0  0  0
   39.2270   32.0120   41.4220 F   0  0  0  0  0  0  0  0  0  0  0  0
   35.9080   29.9060   40.2810 O   0  0  0  0  0  0  0  0  0  0  0  0
   35.1490   29.1670   39.3560 C   0  0  0  0  0  0  0  0  0  0  0  0
   33.8540   29.0720   39.8790 F   0  0  0  0  0  0  0  0  0  0  0  0
   35.1830   29.7710   38.1320 F   0  0  0  0  0  0  0  0  0  0  0  0
   35.6080   27.8610   39.3140 F   0  0  0  0  0  0  0  0  0  0  0  0
  1  2  2  0  0  0  0
  1  6  1  0  0  0  0
  2  3  1  0  0  0  0
  3  7  1  0  0  0  0
  3  4  2  0  0  0  0
  5  4  1  0  0  0  0
  5  8  1  0  0  0  0
  6  5  2  0  0  0  0
  9 12  1  0  0  0  0
  9  2  1  0  0  0  0
 10  9  1  0  0  0  0
 11  9  1  0  0  0  0
 13  1  1  0  0  0  0
 14 15  1  0  0  0  0
 14 13  1  0  0  0  0
 16 14  1  0  0  0  0
 17 14  1  0  0  0  0
M  END
>  <minimizedAffinity>
-3.9977634

$$$$

 OpenBabel03252504083D

 17 17  0  0  0  0  0  0  0  0999 V2000
   37.3460   28.7920   40.9530 C   0  0  0  0  0  0  0  0  0  0  0  0
   37.9150   29.9850   41.3980 C   0  0  0  0  0  0  0  0  0  0  0  0
   37.4720   31.1850   40.8140 C   0  0  0  0  0  0  0  0  0  0  0  0
   36.5200   31.1240   39.8530 N   0  0  0  0  0  0  0  0  0  0  0  0
   35.9950   29.9430   39.4500 C   0  0  0  0  0  0  0  0  0  0  0  0
   36.4000   28.7820   39.9930 N   0  0  0  0  0  0  0  0  0  0  0  0
   37.9150   32.1210   41.1600 H   0  0  0  0  0  0  0  0  0  0  0  0
   35.2360   29.9870   38.6740 H   0  0  0  0  0  0  0  0  0  0  0  0
   38.9580   29.9490   42.4570 C   0  0  0  0  0  0  0  0  0  0  0  0
   39.5150   31.2120   42.6070 F   0  0  0  0  0  0  0  0  0  0  0  0
   38.3440   29.6420   43.6560 F   0  0  0  0  0  0  0  0  0  0  0  0
   39.9730   29.0820   42.2230 F   0  0  0  0  0  0  0  0  0  0  0  0
   37.7790   27.6470   41.5250 O   0  0  0  0  0  0  0  0  0  0  0  0
   37.1590   26.9250   42.5600 C   0  0  0  0  0  0  0  0  0  0  0  0
   38.1390   26.6860   43.5310 F   0  0  0  0  0  0  0  0  0  0  0  0
   36.0920   27.6250   43.0470 F   0  0  0  0  0  0  0  0  0  0  0  0
   36.8020   25.6670   42.1040 F   0  0  0  0  0  0  0  0  0  0  0  0
  1  2  1  0  0  0  0
  1 13  1  0  0  0  0
  2  9  1  0  0  0  0
  3  7  1  0  0  0  0
  3  2  2  0  0  0  0
  4  3  1  0  0  0  0
  5  4  2  0  0  0  0
  5  6  1  0  0  0  0
  6  1  2  0  0  0  0
  8  5  1  0  0  0  0
  9 10  1  0  0  0  0
  9 11  1  0  0  0  0
 12  9  1  0  0  0  0
 13 14  1  0  0  0  0
 14 16  1  0  0  0  0
 14 15  1  0  0  0  0
 17 14  1  0  0  0  0
M  END
>  <minimizedAffinity>
-3.99230075

$$$$
