
 OpenBabel03252509313D

 22 22  0  0  0  0  0  0  0  0999 V2000
   46.8950   34.7890   41.9670 C   0  0  0  0  0  0  0  0  0  0  0  0
   46.2000   34.3720   41.2050 H   0  0  0  0  0  0  0  0  0  0  0  0
   47.1510   35.8080   41.6360 H   0  0  0  0  0  0  0  0  0  0  0  0
   45.5390   34.0310   45.3610 C   0  0  0  0  0  0  0  0  0  0  0  0
   46.2810   33.9180   44.1700 C   0  0  0  0  0  0  0  0  0  0  0  0
   46.1270   34.8960   43.2140 C   0  0  0  0  0  0  0  0  0  0  0  0
   45.2620   35.9440   43.4480 N   0  0  0  0  0  0  0  0  0  0  0  0
   44.5590   36.0210   44.6160 C   0  0  0  0  0  0  0  0  0  0  0  0
   44.7060   35.0770   45.5420 N   0  0  0  0  0  0  0  0  0  0  0  0
   45.6040   33.3110   46.1530 H   0  0  0  0  0  0  0  0  0  0  0  0
   46.9200   33.0700   44.0870 H   0  0  0  0  0  0  0  0  0  0  0  0
   43.9190   36.8960   44.6650 H   0  0  0  0  0  0  0  0  0  0  0  0
   47.9940   33.9460   42.1170 O   0  0  0  0  0  0  0  0  0  0  0  0
   47.4290   32.2460   40.2140 O   0  0  0  0  0  0  0  0  0  0  0  0
   48.3720   33.3630   40.5740 P   0  0  2  0  0  0  0  0  0  0  0  0
   49.9910   32.8620   40.6280 O   0  0  0  0  0  0  0  0  0  0  0  0
   50.1060   31.9210   40.3240 H   0  0  0  0  0  0  0  0  0  0  0  0
   48.1860   34.6100   39.4650 O   0  0  0  0  0  0  0  0  0  0  0  0
   48.1460   34.1120   38.1560 C   0  0  0  0  0  0  0  0  0  0  0  0
   46.8700   33.6410   37.9060 F   0  0  0  0  0  0  0  0  0  0  0  0
   49.0550   33.0550   38.0390 F   0  0  0  0  0  0  0  0  0  0  0  0
   48.4960   35.0840   37.2630 F   0  0  0  0  0  0  0  0  0  0  0  0
  1 13  1  0  0  0  0
  1  6  1  0  0  0  0
  2  1  1  0  0  0  0
  3  1  1  0  0  0  0
  4  9  1  0  0  0  0
  4 10  1  0  0  0  0
  5  4  2  0  0  0  0
  6  7  2  0  0  0  0
  6  5  1  0  0  0  0
  7  8  1  0  0  0  0
  8 12  1  0  0  0  0
  8  9  2  0  0  0  0
 11  5  1  0  0  0  0
 15 14  2  6  0  0  0
 15 16  1  0  0  0  0
 15 13  1  0  0  0  0
 17 16  1  0  0  0  0
 18 15  1  0  0  0  0
 19 18  1  0  0  0  0
 20 19  1  0  0  0  0
 21 19  1  0  0  0  0
 22 19  1  0  0  0  0
M  END
>  <minimizedAffinity>
-4.3635211

>  <minimizedRMSD>
2.14630866

$$$$
