
 OpenBabel03252509313D

 22 22  0  0  0  0  0  0  0  0999 V2000
   44.9390   35.2760   42.4330 C   0  0  0  0  0  0  0  0  0  0  0  0
   45.7150   35.8090   41.8420 H   0  0  0  0  0  0  0  0  0  0  0  0
   44.6200   35.9660   43.2290 H   0  0  0  0  0  0  0  0  0  0  0  0
   42.9160   34.2180   39.4800 C   0  0  0  0  0  0  0  0  0  0  0  0
   44.0160   34.4130   40.3370 C   0  0  0  0  0  0  0  0  0  0  0  0
   43.8000   35.0650   41.5290 C   0  0  0  0  0  0  0  0  0  0  0  0
   42.5320   35.5040   41.8450 N   0  0  0  0  0  0  0  0  0  0  0  0
   41.4900   35.2970   40.9870 C   0  0  0  0  0  0  0  0  0  0  0  0
   41.6940   34.6660   39.8330 N   0  0  0  0  0  0  0  0  0  0  0  0
   43.0010   33.7180   38.5340 H   0  0  0  0  0  0  0  0  0  0  0  0
   44.9530   34.0370   40.0000 H   0  0  0  0  0  0  0  0  0  0  0  0
   40.5510   35.6940   41.3620 H   0  0  0  0  0  0  0  0  0  0  0  0
   45.4480   34.0650   42.9000 O   0  0  0  0  0  0  0  0  0  0  0  0
   47.4110   33.1090   41.4630 O   0  0  0  0  0  0  0  0  0  0  0  0
   47.1080   34.0800   42.5750 P   0  0  2  0  0  0  0  0  0  0  0  0
   47.8900   33.6790   44.0250 O   0  0  0  0  0  0  0  0  0  0  0  0
   48.5140   32.9100   43.9180 H   0  0  0  0  0  0  0  0  0  0  0  0
   47.5490   35.6230   42.0840 O   0  0  0  0  0  0  0  0  0  0  0  0
   48.7790   35.6010   41.4120 C   0  0  0  0  0  0  0  0  0  0  0  0
   48.5410   35.3490   40.0730 F   0  0  0  0  0  0  0  0  0  0  0  0
   49.5700   34.5730   41.9390 F   0  0  0  0  0  0  0  0  0  0  0  0
   49.4380   36.7850   41.5820 F   0  0  0  0  0  0  0  0  0  0  0  0
  1 13  1  0  0  0  0
  1  3  1  0  0  0  0
  2  1  1  0  0  0  0
  4  9  2  0  0  0  0
  4  5  1  0  0  0  0
  5  6  2  0  0  0  0
  6  7  1  0  0  0  0
  6  1  1  0  0  0  0
  8 12  1  0  0  0  0
  8  7  2  0  0  0  0
  9  8  1  0  0  0  0
 10  4  1  0  0  0  0
 11  5  1  0  0  0  0
 15 14  2  6  0  0  0
 15 13  1  0  0  0  0
 15 16  1  0  0  0  0
 17 16  1  0  0  0  0
 18 15  1  0  0  0  0
 19 22  1  0  0  0  0
 19 21  1  0  0  0  0
 19 18  1  0  0  0  0
 20 19  1  0  0  0  0
M  END
>  <minimizedAffinity>
-4.51198816

>  <minimizedRMSD>
3.83500385

$$$$
