
 OpenBabel03252509323D

 22 22  0  0  0  0  0  0  0  0999 V2000
   38.0320   32.3900   40.2500 C   0  0  0  0  0  0  0  0  0  0  0  0
   37.7640   33.3460   40.7490 H   0  0  0  0  0  0  0  0  0  0  0  0
   37.1850   32.1260   39.5970 H   0  0  0  0  0  0  0  0  0  0  0  0
   40.4990   32.2060   37.4560 C   0  0  0  0  0  0  0  0  0  0  0  0
   39.3830   31.9200   38.2640 C   0  0  0  0  0  0  0  0  0  0  0  0
   39.1920   32.6770   39.3970 C   0  0  0  0  0  0  0  0  0  0  0  0
   40.0880   33.6800   39.7040 N   0  0  0  0  0  0  0  0  0  0  0  0
   41.1600   33.9280   38.8950 C   0  0  0  0  0  0  0  0  0  0  0  0
   41.3480   33.1980   37.7980 N   0  0  0  0  0  0  0  0  0  0  0  0
   40.7170   31.6620   36.5570 H   0  0  0  0  0  0  0  0  0  0  0  0
   38.7530   31.1260   37.9400 H   0  0  0  0  0  0  0  0  0  0  0  0
   41.7800   34.7430   39.2560 H   0  0  0  0  0  0  0  0  0  0  0  0
   38.3320   31.4230   41.2080 O   0  0  0  0  0  0  0  0  0  0  0  0
   37.1730   29.5490   39.8040 O   0  0  0  0  0  0  0  0  0  0  0  0
   37.1030   30.2630   41.1280 P   0  0  2  0  0  0  0  0  0  0  0  0
   35.6400   31.0890   41.3510 O   0  0  0  0  0  0  0  0  0  0  0  0
   34.9910   30.9130   40.6170 H   0  0  0  0  0  0  0  0  0  0  0  0
   37.3340   29.1470   42.3600 O   0  0  0  0  0  0  0  0  0  0  0  0
   36.5340   28.0130   42.1640 C   0  0  0  0  0  0  0  0  0  0  0  0
   37.2560   27.0900   41.4290 F   0  0  0  0  0  0  0  0  0  0  0  0
   35.3900   28.3790   41.4440 F   0  0  0  0  0  0  0  0  0  0  0  0
   36.1410   27.4910   43.3630 F   0  0  0  0  0  0  0  0  0  0  0  0
  1  2  1  0  0  0  0
  1 13  1  0  0  0  0
  3  1  1  0  0  0  0
  4  9  2  0  0  0  0
  4  5  1  0  0  0  0
  5  6  2  0  0  0  0
  6  7  1  0  0  0  0
  6  1  1  0  0  0  0
  8 12  1  0  0  0  0
  8  7  2  0  0  0  0
  9  8  1  0  0  0  0
 10  4  1  0  0  0  0
 11  5  1  0  0  0  0
 15 14  2  6  0  0  0
 15 13  1  0  0  0  0
 15 16  1  0  0  0  0
 15 18  1  0  0  0  0
 17 16  1  0  0  0  0
 19 18  1  0  0  0  0
 19 22  1  0  0  0  0
 20 19  1  0  0  0  0
 21 19  1  0  0  0  0
M  END
>  <minimizedAffinity>
-4.56270313

$$$$

 OpenBabel03252509323D

 22 22  0  0  0  0  0  0  0  0999 V2000
   36.7010   27.9860   42.1960 C   0  0  0  0  0  0  0  0  0  0  0  0
   36.4640   27.9690   41.1100 H   0  0  0  0  0  0  0  0  0  0  0  0
   35.7550   27.8020   42.7290 H   0  0  0  0  0  0  0  0  0  0  0  0
   38.0900   24.5210   42.2180 C   0  0  0  0  0  0  0  0  0  0  0  0
   37.2270   25.6060   41.9730 C   0  0  0  0  0  0  0  0  0  0  0  0
   37.5930   26.8460   42.4440 C   0  0  0  0  0  0  0  0  0  0  0  0
   38.7790   26.9870   43.1340 N   0  0  0  0  0  0  0  0  0  0  0  0
   39.5910   25.9120   43.3520 C   0  0  0  0  0  0  0  0  0  0  0  0
   39.2400   24.7110   42.8980 N   0  0  0  0  0  0  0  0  0  0  0  0
   37.8760   23.5250   41.8830 H   0  0  0  0  0  0  0  0  0  0  0  0
   36.3360   25.3910   41.4310 H   0  0  0  0  0  0  0  0  0  0  0  0
   40.4880   26.1680   43.9070 H   0  0  0  0  0  0  0  0  0  0  0  0
   37.3150   29.1930   42.5270 O   0  0  0  0  0  0  0  0  0  0  0  0
   38.2110   31.2330   41.1610 O   0  0  0  0  0  0  0  0  0  0  0  0
   37.0880   30.2300   41.2100 P   0  0  2  0  0  0  0  0  0  0  0  0
   35.5700   30.9550   41.4190 O   0  0  0  0  0  0  0  0  0  0  0  0
   35.6190   31.9490   41.3880 H   0  0  0  0  0  0  0  0  0  0  0  0
   37.1090   29.3220   39.7980 O   0  0  0  0  0  0  0  0  0  0  0  0
   36.3700   29.9520   38.7880 C   0  0  0  0  0  0  0  0  0  0  0  0
   35.0410   29.5960   38.9320 F   0  0  0  0  0  0  0  0  0  0  0  0
   36.8300   29.5130   37.5410 F   0  0  0  0  0  0  0  0  0  0  0  0
   36.5270   31.3070   38.8540 F   0  0  0  0  0  0  0  0  0  0  0  0
  1  6  1  0  0  0  0
  1 13  1  0  0  0  0
  1  3  1  0  0  0  0
  2  1  1  0  0  0  0
  4  9  1  0  0  0  0
  5  4  2  0  0  0  0
  5  6  1  0  0  0  0
  6  7  2  0  0  0  0
  7  8  1  0  0  0  0
  8 12  1  0  0  0  0
  9  8  2  0  0  0  0
 10  4  1  0  0  0  0
 11  5  1  0  0  0  0
 15 14  2  6  0  0  0
 15 16  1  0  0  0  0
 15 13  1  0  0  0  0
 17 16  1  0  0  0  0
 18 15  1  0  0  0  0
 19 22  1  0  0  0  0
 19 20  1  0  0  0  0
 19 18  1  0  0  0  0
 21 19  1  0  0  0  0
M  END
>  <minimizedAffinity>
-4.45060015

$$$$

 OpenBabel03252509323D

 22 22  0  0  0  0  0  0  0  0999 V2000
   38.9060   30.0740   40.8420 C   0  0  0  0  0  0  0  0  0  0  0  0
   39.7730   29.4720   40.4960 H   0  0  0  0  0  0  0  0  0  0  0  0
   38.8220   29.9120   41.9280 H   0  0  0  0  0  0  0  0  0  0  0  0
   40.9000   33.1470   40.1250 C   0  0  0  0  0  0  0  0  0  0  0  0
   40.5720   31.7950   40.3370 C   0  0  0  0  0  0  0  0  0  0  0  0
   39.2620   31.4820   40.6180 C   0  0  0  0  0  0  0  0  0  0  0  0
   38.3210   32.4880   40.6830 N   0  0  0  0  0  0  0  0  0  0  0  0
   38.6770   33.7890   40.4710 C   0  0  0  0  0  0  0  0  0  0  0  0
   39.9430   34.0960   40.1990 N   0  0  0  0  0  0  0  0  0  0  0  0
   41.8970   33.4720   39.9010 H   0  0  0  0  0  0  0  0  0  0  0  0
   41.3710   31.0950   40.2650 H   0  0  0  0  0  0  0  0  0  0  0  0
   37.8380   34.4730   40.5520 H   0  0  0  0  0  0  0  0  0  0  0  0
   37.7660   29.7180   40.1240 O   0  0  0  0  0  0  0  0  0  0  0  0
   35.5870   28.4370   40.7890 O   0  0  0  0  0  0  0  0  0  0  0  0
   36.5220   29.5220   41.2550 P   0  0  2  0  0  0  0  0  0  0  0  0
   35.7580   31.0280   41.4020 O   0  0  0  0  0  0  0  0  0  0  0  0
   34.7750   30.9690   41.2500 H   0  0  0  0  0  0  0  0  0  0  0  0
   37.1950   29.0660   42.7240 O   0  0  0  0  0  0  0  0  0  0  0  0
   37.1990   27.6710   42.8600 C   0  0  0  0  0  0  0  0  0  0  0  0
   36.0130   27.2860   43.4570 F   0  0  0  0  0  0  0  0  0  0  0  0
   38.2700   27.2940   43.6800 F   0  0  0  0  0  0  0  0  0  0  0  0
   37.3550   27.0720   41.6420 F   0  0  0  0  0  0  0  0  0  0  0  0
  1  3  1  0  0  0  0
  2  1  1  0  0  0  0
  4  9  2  0  0  0  0
  4  5  1  0  0  0  0
  5  6  2  0  0  0  0
  6  7  1  0  0  0  0
  6  1  1  0  0  0  0
  8 12  1  0  0  0  0
  8  7  2  0  0  0  0
  9  8  1  0  0  0  0
 10  4  1  0  0  0  0
 11  5  1  0  0  0  0
 13  1  1  0  0  0  0
 13 15  1  0  0  0  0
 15 14  2  6  0  0  0
 15 16  1  0  0  0  0
 15 18  1  0  0  0  0
 17 16  1  0  0  0  0
 18 19  1  0  0  0  0
 19 20  1  0  0  0  0
 19 21  1  0  0  0  0
 22 19  1  0  0  0  0
M  END
>  <minimizedAffinity>
-4.44538975

$$$$

 OpenBabel03252509323D

 22 22  0  0  0  0  0  0  0  0999 V2000
   37.0810   28.4580   42.8880 C   0  0  0  0  0  0  0  0  0  0  0  0
   36.2080   28.1940   42.2520 H   0  0  0  0  0  0  0  0  0  0  0  0
   36.6910   28.6250   43.9050 H   0  0  0  0  0  0  0  0  0  0  0  0
   39.9440   26.1880   43.6490 C   0  0  0  0  0  0  0  0  0  0  0  0
   39.1250   27.3320   43.6260 C   0  0  0  0  0  0  0  0  0  0  0  0
   37.9450   27.2700   42.9210 C   0  0  0  0  0  0  0  0  0  0  0  0
   37.6030   26.1060   42.2670 N   0  0  0  0  0  0  0  0  0  0  0  0
   38.4240   25.0150   42.3120 C   0  0  0  0  0  0  0  0  0  0  0  0
   39.5660   25.0710   42.9930 N   0  0  0  0  0  0  0  0  0  0  0  0
   40.8780   26.1550   44.1750 H   0  0  0  0  0  0  0  0  0  0  0  0
   39.4790   28.1810   44.1620 H   0  0  0  0  0  0  0  0  0  0  0  0
   38.0310   24.1700   41.7550 H   0  0  0  0  0  0  0  0  0  0  0  0
   37.7460   29.5560   42.3470 O   0  0  0  0  0  0  0  0  0  0  0  0
   37.8650   30.6320   39.9680 O   0  0  0  0  0  0  0  0  0  0  0  0
   36.9130   29.9800   40.9360 P   0  0  2  0  0  0  0  0  0  0  0  0
   35.6520   31.0100   41.4090 O   0  0  0  0  0  0  0  0  0  0  0  0
   35.6610   31.8720   40.9100 H   0  0  0  0  0  0  0  0  0  0  0  0
   36.2940   28.5870   40.2350 O   0  0  0  0  0  0  0  0  0  0  0  0
   35.2650   28.8950   39.3350 C   0  0  0  0  0  0  0  0  0  0  0  0
   34.0960   29.0740   40.0520 F   0  0  0  0  0  0  0  0  0  0  0  0
   35.1000   27.8270   38.4450 F   0  0  0  0  0  0  0  0  0  0  0  0
   35.5780   30.0130   38.6150 F   0  0  0  0  0  0  0  0  0  0  0  0
  1  6  1  0  0  0  0
  1  3  1  0  0  0  0
  2  1  1  0  0  0  0
  4 10  1  0  0  0  0
  5  4  1  0  0  0  0
  5 11  1  0  0  0  0
  6  5  2  0  0  0  0
  7  8  2  0  0  0  0
  7  6  1  0  0  0  0
  8  9  1  0  0  0  0
  9  4  2  0  0  0  0
 12  8  1  0  0  0  0
 13  1  1  0  0  0  0
 15 14  2  6  0  0  0
 15 16  1  0  0  0  0
 15 13  1  0  0  0  0
 17 16  1  0  0  0  0
 18 15  1  0  0  0  0
 19 20  1  0  0  0  0
 19 18  1  0  0  0  0
 21 19  1  0  0  0  0
 22 19  1  0  0  0  0
M  END
>  <minimizedAffinity>
-4.42107296

$$$$

 OpenBabel03252509323D

 22 22  0  0  0  0  0  0  0  0999 V2000
   36.8880   28.1470   42.4960 C   0  0  0  0  0  0  0  0  0  0  0  0
   35.9270   27.8060   42.9370 H   0  0  0  0  0  0  0  0  0  0  0  0
   37.2100   29.0230   43.0800 H   0  0  0  0  0  0  0  0  0  0  0  0
   39.9030   26.2910   43.6770 C   0  0  0  0  0  0  0  0  0  0  0  0
   38.9830   27.3350   43.4660 C   0  0  0  0  0  0  0  0  0  0  0  0
   37.8560   27.0660   42.7240 C   0  0  0  0  0  0  0  0  0  0  0  0
   37.6630   25.7990   42.2160 N   0  0  0  0  0  0  0  0  0  0  0  0
   38.5780   24.8110   42.4410 C   0  0  0  0  0  0  0  0  0  0  0  0
   39.6700   25.0680   43.1580 N   0  0  0  0  0  0  0  0  0  0  0  0
   40.8040   26.4200   44.2440 H   0  0  0  0  0  0  0  0  0  0  0  0
   39.2250   28.2770   43.9010 H   0  0  0  0  0  0  0  0  0  0  0  0
   38.2990   23.8670   41.9830 H   0  0  0  0  0  0  0  0  0  0  0  0
   36.7220   28.4010   41.1360 O   0  0  0  0  0  0  0  0  0  0  0  0
   38.1590   30.5090   41.7050 O   0  0  0  0  0  0  0  0  0  0  0  0
   36.9520   30.0640   40.9210 P   0  0  2  0  0  0  0  0  0  0  0  0
   35.5240   30.8210   41.4320 O   0  0  0  0  0  0  0  0  0  0  0  0
   35.6930   31.5240   42.1170 H   0  0  0  0  0  0  0  0  0  0  0  0
   37.2200   30.3660   39.2930 O   0  0  0  0  0  0  0  0  0  0  0  0
   37.6920   31.6720   39.0980 C   0  0  0  0  0  0  0  0  0  0  0  0
   37.0460   32.5080   39.9910 F   0  0  0  0  0  0  0  0  0  0  0  0
   37.3930   32.0770   37.7920 F   0  0  0  0  0  0  0  0  0  0  0  0
   39.0460   31.7210   39.2670 F   0  0  0  0  0  0  0  0  0  0  0  0
  1  6  1  0  0  0  0
  1  2  1  0  0  0  0
  1  3  1  0  0  0  0
  4 10  1  0  0  0  0
  5  4  1  0  0  0  0
  5 11  1  0  0  0  0
  6  5  2  0  0  0  0
  7  8  2  0  0  0  0
  7  6  1  0  0  0  0
  8  9  1  0  0  0  0
  9  4  2  0  0  0  0
 12  8  1  0  0  0  0
 13  1  1  0  0  0  0
 15 13  1  0  0  0  0
 15 16  1  0  0  0  0
 15 14  2  1  0  0  0
 16 17  1  0  0  0  0
 18 15  1  0  0  0  0
 19 22  1  0  0  0  0
 19 18  1  0  0  0  0
 19 20  1  0  0  0  0
 21 19  1  0  0  0  0
M  END
>  <minimizedAffinity>
-4.37069798

$$$$

 OpenBabel03252509323D

 22 22  0  0  0  0  0  0  0  0999 V2000
   37.1040   30.8780   39.0610 C   0  0  0  0  0  0  0  0  0  0  0  0
   36.1290   31.3410   39.3240 H   0  0  0  0  0  0  0  0  0  0  0  0
   37.1270   30.7920   37.9640 H   0  0  0  0  0  0  0  0  0  0  0  0
   40.4120   32.5730   39.4090 C   0  0  0  0  0  0  0  0  0  0  0  0
   39.4280   31.6470   39.0150 C   0  0  0  0  0  0  0  0  0  0  0  0
   38.1410   31.8370   39.4640 C   0  0  0  0  0  0  0  0  0  0  0  0
   37.8570   32.9150   40.2770 N   0  0  0  0  0  0  0  0  0  0  0  0
   38.8390   33.7920   40.6380 C   0  0  0  0  0  0  0  0  0  0  0  0
   40.0840   33.6110   40.2050 N   0  0  0  0  0  0  0  0  0  0  0  0
   41.4360   32.4940   39.1010 H   0  0  0  0  0  0  0  0  0  0  0  0
   39.7500   30.8490   38.3870 H   0  0  0  0  0  0  0  0  0  0  0  0
   38.4740   34.5900   41.2770 H   0  0  0  0  0  0  0  0  0  0  0  0
   37.2480   29.6640   39.7300 O   0  0  0  0  0  0  0  0  0  0  0  0
   34.7130   29.0330   39.8270 O   0  0  0  0  0  0  0  0  0  0  0  0
   35.8670   29.4730   40.6890 P   0  0  2  0  0  0  0  0  0  0  0  0
   35.5900   30.9660   41.4430 O   0  0  0  0  0  0  0  0  0  0  0  0
   34.6660   31.3030   41.2860 H   0  0  0  0  0  0  0  0  0  0  0  0
   36.1680   28.2880   41.8390 O   0  0  0  0  0  0  0  0  0  0  0  0
   37.4420   28.4510   42.4020 C   0  0  0  0  0  0  0  0  0  0  0  0
   38.3640   27.8200   41.5870 F   0  0  0  0  0  0  0  0  0  0  0  0
   37.4630   27.8520   43.6670 F   0  0  0  0  0  0  0  0  0  0  0  0
   37.7360   29.7760   42.5460 F   0  0  0  0  0  0  0  0  0  0  0  0
  1  2  1  0  0  0  0
  1  6  1  0  0  0  0
  1 13  1  0  0  0  0
  3  1  1  0  0  0  0
  4  9  1  0  0  0  0
  5  4  2  0  0  0  0
  5  6  1  0  0  0  0
  6  7  2  0  0  0  0
  7  8  1  0  0  0  0
  8 12  1  0  0  0  0
  9  8  2  0  0  0  0
 10  4  1  0  0  0  0
 11  5  1  0  0  0  0
 13 15  1  0  0  0  0
 15 14  2  6  0  0  0
 15 16  1  0  0  0  0
 15 18  1  0  0  0  0
 17 16  1  0  0  0  0
 18 19  1  0  0  0  0
 19 22  1  0  0  0  0
 19 21  1  0  0  0  0
 20 19  1  0  0  0  0
M  END
>  <minimizedAffinity>
-4.32001495

$$$$

 OpenBabel03252509323D

 22 22  0  0  0  0  0  0  0  0999 V2000
   37.1070   28.0640   42.8250 C   0  0  0  0  0  0  0  0  0  0  0  0
   36.5840   27.6540   41.9340 H   0  0  0  0  0  0  0  0  0  0  0  0
   36.4890   27.8070   43.6990 H   0  0  0  0  0  0  0  0  0  0  0  0
   39.6120   25.2980   42.7680 C   0  0  0  0  0  0  0  0  0  0  0  0
   38.3890   25.9860   42.6600 C   0  0  0  0  0  0  0  0  0  0  0  0
   38.3770   27.3340   42.9340 C   0  0  0  0  0  0  0  0  0  0  0  0
   39.5470   27.9640   43.3020 N   0  0  0  0  0  0  0  0  0  0  0  0
   40.7150   27.2630   43.3970 C   0  0  0  0  0  0  0  0  0  0  0  0
   40.7310   25.9590   43.1320 N   0  0  0  0  0  0  0  0  0  0  0  0
   39.7050   24.2480   42.5710 H   0  0  0  0  0  0  0  0  0  0  0  0
   37.5430   25.4080   42.3690 H   0  0  0  0  0  0  0  0  0  0  0  0
   41.5550   27.8830   43.6950 H   0  0  0  0  0  0  0  0  0  0  0  0
   37.3200   29.4320   42.6610 O   0  0  0  0  0  0  0  0  0  0  0  0
   37.8690   30.2210   40.2310 O   0  0  0  0  0  0  0  0  0  0  0  0
   36.7230   29.8350   41.1300 P   0  0  2  0  0  0  0  0  0  0  0  0
   35.6160   31.0990   41.3580 O   0  0  0  0  0  0  0  0  0  0  0  0
   35.8250   31.8910   40.7920 H   0  0  0  0  0  0  0  0  0  0  0  0
   35.9500   28.4950   40.4810 O   0  0  0  0  0  0  0  0  0  0  0  0
   35.1130   28.8660   39.4190 C   0  0  0  0  0  0  0  0  0  0  0  0
   35.6810   29.9490   38.7730 F   0  0  0  0  0  0  0  0  0  0  0  0
   33.8640   29.2390   39.9300 F   0  0  0  0  0  0  0  0  0  0  0  0
   34.9350   27.8180   38.5620 F   0  0  0  0  0  0  0  0  0  0  0  0
  1  6  1  0  0  0  0
  1  3  1  0  0  0  0
  2  1  1  0  0  0  0
  4  9  1  0  0  0  0
  5  4  2  0  0  0  0
  5  6  1  0  0  0  0
  6  7  2  0  0  0  0
  7  8  1  0  0  0  0
  8 12  1  0  0  0  0
  9  8  2  0  0  0  0
 10  4  1  0  0  0  0
 11  5  1  0  0  0  0
 13  1  1  0  0  0  0
 15 14  2  6  0  0  0
 15 16  1  0  0  0  0
 15 13  1  0  0  0  0
 17 16  1  0  0  0  0
 18 15  1  0  0  0  0
 19 21  1  0  0  0  0
 19 18  1  0  0  0  0
 20 19  1  0  0  0  0
 22 19  1  0  0  0  0
M  END
>  <minimizedAffinity>
-4.3025732

$$$$

 OpenBabel03252509323D

 22 22  0  0  0  0  0  0  0  0999 V2000
   36.9430   28.3240   42.3990 C   0  0  0  0  0  0  0  0  0  0  0  0
   36.4830   28.1680   41.3990 H   0  0  0  0  0  0  0  0  0  0  0  0
   36.1270   28.2640   43.1350 H   0  0  0  0  0  0  0  0  0  0  0  0
   39.7670   26.2460   43.6790 C   0  0  0  0  0  0  0  0  0  0  0  0
   38.9130   27.3450   43.4730 C   0  0  0  0  0  0  0  0  0  0  0  0
   37.8430   27.1840   42.6230 C   0  0  0  0  0  0  0  0  0  0  0  0
   37.6410   25.9670   42.0070 N   0  0  0  0  0  0  0  0  0  0  0  0
   38.4920   24.9230   42.2310 C   0  0  0  0  0  0  0  0  0  0  0  0
   39.5280   25.0750   43.0520 N   0  0  0  0  0  0  0  0  0  0  0  0
   40.6220   26.2900   44.3260 H   0  0  0  0  0  0  0  0  0  0  0  0
   39.1560   28.2400   43.9960 H   0  0  0  0  0  0  0  0  0  0  0  0
   38.2140   24.0290   41.6820 H   0  0  0  0  0  0  0  0  0  0  0  0
   37.6390   29.5310   42.4170 O   0  0  0  0  0  0  0  0  0  0  0  0
   38.0440   31.5910   40.8610 O   0  0  0  0  0  0  0  0  0  0  0  0
   37.1500   30.3930   41.0460 P   0  0  2  0  0  0  0  0  0  0  0  0
   35.5270   30.8180   41.2930 O   0  0  0  0  0  0  0  0  0  0  0  0
   35.3730   31.7970   41.1900 H   0  0  0  0  0  0  0  0  0  0  0  0
   37.2910   29.3970   39.7030 O   0  0  0  0  0  0  0  0  0  0  0  0
   37.2650   30.1470   38.5190 C   0  0  0  0  0  0  0  0  0  0  0  0
   36.7960   29.3390   37.4990 F   0  0  0  0  0  0  0  0  0  0  0  0
   38.5650   30.5650   38.2130 F   0  0  0  0  0  0  0  0  0  0  0  0
   36.4800   31.2540   38.6720 F   0  0  0  0  0  0  0  0  0  0  0  0
  1 13  1  0  0  0  0
  1  6  1  0  0  0  0
  1  3  1  0  0  0  0
  2  1  1  0  0  0  0
  4 10  1  0  0  0  0
  5  4  1  0  0  0  0
  5 11  1  0  0  0  0
  6  5  2  0  0  0  0
  7  8  2  0  0  0  0
  7  6  1  0  0  0  0
  8  9  1  0  0  0  0
  9  4  2  0  0  0  0
 12  8  1  0  0  0  0
 15 14  2  6  0  0  0
 15 16  1  0  0  0  0
 15 13  1  0  0  0  0
 17 16  1  0  0  0  0
 18 15  1  0  0  0  0
 19 22  1  0  0  0  0
 19 18  1  0  0  0  0
 20 19  1  0  0  0  0
 21 19  1  0  0  0  0
M  END
>  <minimizedAffinity>
-4.23155165

$$$$

 OpenBabel03252509323D

 22 22  0  0  0  0  0  0  0  0999 V2000
   36.4430   27.9170   41.2560 C   0  0  0  0  0  0  0  0  0  0  0  0
   35.4000   27.5660   41.1040 H   0  0  0  0  0  0  0  0  0  0  0  0
   36.4890   28.3410   42.2720 H   0  0  0  0  0  0  0  0  0  0  0  0
   37.9190   24.6030   42.1350 C   0  0  0  0  0  0  0  0  0  0  0  0
   37.0980   25.7450   42.1760 C   0  0  0  0  0  0  0  0  0  0  0  0
   37.2930   26.7200   41.2240 C   0  0  0  0  0  0  0  0  0  0  0  0
   38.2750   26.5510   40.2710 N   0  0  0  0  0  0  0  0  0  0  0  0
   39.0530   25.4290   40.2630 C   0  0  0  0  0  0  0  0  0  0  0  0
   38.8660   24.4840   41.1810 N   0  0  0  0  0  0  0  0  0  0  0  0
   37.8280   23.8000   42.8400 H   0  0  0  0  0  0  0  0  0  0  0  0
   36.3700   25.7790   42.9530 H   0  0  0  0  0  0  0  0  0  0  0  0
   39.7830   25.4290   39.4590 H   0  0  0  0  0  0  0  0  0  0  0  0
   36.7920   28.8150   40.2490 O   0  0  0  0  0  0  0  0  0  0  0  0
   37.9540   30.0090   42.2640 O   0  0  0  0  0  0  0  0  0  0  0  0
   37.1600   30.2800   41.0120 P   0  0  2  0  0  0  0  0  0  0  0  0
   35.6820   31.0470   41.3280 O   0  0  0  0  0  0  0  0  0  0  0  0
   35.5820   31.2970   42.2870 H   0  0  0  0  0  0  0  0  0  0  0  0
   38.0890   31.2130   39.9710 O   0  0  0  0  0  0  0  0  0  0  0  0
   37.2970   31.7660   38.9560 C   0  0  0  0  0  0  0  0  0  0  0  0
   38.1140   32.0750   37.8830 F   0  0  0  0  0  0  0  0  0  0  0  0
   36.6990   32.9400   39.4300 F   0  0  0  0  0  0  0  0  0  0  0  0
   36.3100   30.8960   38.5900 F   0  0  0  0  0  0  0  0  0  0  0  0
  1  3  1  0  0  0  0
  2  1  1  0  0  0  0
  4  5  1  0  0  0  0
  4 10  1  0  0  0  0
  5 11  1  0  0  0  0
  6  1  1  0  0  0  0
  6  5  2  0  0  0  0
  7  6  1  0  0  0  0
  8  7  2  0  0  0  0
  8  9  1  0  0  0  0
  9  4  2  0  0  0  0
 12  8  1  0  0  0  0
 13 15  1  0  0  0  0
 13  1  1  0  0  0  0
 15 16  1  0  0  0  0
 15 14  2  1  0  0  0
 16 17  1  0  0  0  0
 18 15  1  0  0  0  0
 19 21  1  0  0  0  0
 19 18  1  0  0  0  0
 20 19  1  0  0  0  0
 22 19  1  0  0  0  0
M  END
>  <minimizedAffinity>
-4.17977619

$$$$
