
 OpenBabel03252501053D

 35 37  0  0  1  0  0  0  0  0999 V2000
   48.7260   32.3330   38.0380 O   0  0  0  0  0  0  0  0  0  0  0  0
   48.1420   33.7350   38.2110 P   0  0  2  0  0  0  0  0  0  0  0  0
   49.3040   34.7850   37.5600 O   0  0  0  0  0  0  0  0  0  0  0  0
   50.1990   34.3710   37.4750 H   0  0  0  0  0  0  0  0  0  0  0  0
   47.7250   34.0500   39.7600 O   0  0  0  0  0  0  0  0  0  0  0  0
   47.9280   35.3940   41.7610 C   0  0  1  0  0  0  0  0  0  0  0  0
   49.1950   34.6540   41.6930 C   0  0  0  0  0  0  0  0  0  0  0  0
   48.3920   35.0070   40.4290 C   0  0  1  0  0  0  0  0  0  0  0  0
   47.8360   36.4690   41.9890 H   0  0  0  0  0  0  0  0  0  0  0  0
   49.2230   33.5710   41.8630 H   0  0  0  0  0  0  0  0  0  0  0  0
   50.1000   35.2380   41.9240 H   0  0  0  0  0  0  0  0  0  0  0  0
   48.9450   35.7370   39.8110 H   0  0  0  0  0  0  0  0  0  0  0  0
   45.8980   32.9150   43.7840 C   0  0  0  0  0  0  0  0  0  0  0  0
   46.9870   33.6310   43.3000 C   0  0  0  0  0  0  0  0  0  0  0  0
   46.7700   34.6140   42.3150 C   0  0  0  0  0  0  0  0  0  0  0  0
   45.5050   34.8350   41.8620 N   0  0  0  0  0  0  0  0  0  0  0  0
   44.4600   34.1180   42.3540 C   0  0  0  0  0  0  0  0  0  0  0  0
   44.6550   33.1630   43.3110 N   0  0  0  0  0  0  0  0  0  0  0  0
   46.0690   32.1730   44.5300 H   0  0  0  0  0  0  0  0  0  0  0  0
   47.9560   33.4250   43.6820 H   0  0  0  0  0  0  0  0  0  0  0  0
   43.4560   34.2960   41.9920 H   0  0  0  0  0  0  0  0  0  0  0  0
   46.8020   33.7750   37.1980 O   0  0  0  0  0  0  0  0  0  0  0  0
   45.6660   33.0010   37.3830 C   0  0  0  0  0  0  0  0  0  0  0  0
   45.4310   31.7120   36.9330 C   0  0  0  0  0  0  0  0  0  0  0  0
   44.2510   31.0780   37.1970 C   0  0  0  0  0  0  0  0  0  0  0  0
   43.2630   31.7130   37.9210 C   0  0  0  0  0  0  0  0  0  0  0  0
   43.5400   33.0120   38.3550 C   0  0  0  0  0  0  0  0  0  0  0  0
   44.7210   33.6230   38.0810 N   0  0  0  0  0  0  0  0  0  0  0  0
   46.2540   31.2820   36.3730 H   0  0  0  0  0  0  0  0  0  0  0  0
   44.0990   30.0660   36.8290 H   0  0  0  0  0  0  0  0  0  0  0  0
   42.3200   31.2560   38.1530 H   0  0  0  0  0  0  0  0  0  0  0  0
   42.4780   33.7000   39.1350 C   0  0  0  0  0  0  0  0  0  0  0  0
   42.9350   34.9360   39.4830 F   0  0  0  0  0  0  0  0  0  0  0  0
   41.4040   33.8730   38.2580 F   0  0  0  0  0  0  0  0  0  0  0  0
   42.0440   32.9330   40.1980 F   0  0  0  0  0  0  0  0  0  0  0  0
  2  1  2  6  0  0  0
  2  5  1  0  0  0  0
  3  2  1  0  0  0  0
  4  3  1  0  0  0  0
  5  8  1  0  0  0  0
  6  9  1  1  0  0  0
  6 15  1  0  0  0  0
  7  6  1  0  0  0  0
  7 10  1  0  0  0  0
  7 11  1  0  0  0  0
  8 12  1  6  0  0  0
  8  7  1  0  0  0  0
  8  6  1  0  0  0  0
 13 19  1  0  0  0  0
 14 20  1  0  0  0  0
 14 13  2  0  0  0  0
 15 14  1  0  0  0  0
 16 15  2  0  0  0  0
 16 17  1  0  0  0  0
 17 18  2  0  0  0  0
 18 13  1  0  0  0  0
 21 17  1  0  0  0  0
 22 23  1  0  0  0  0
 22  2  1  0  0  0  0
 23 28  1  0  0  0  0
 24 25  1  0  0  0  0
 24 23  2  0  0  0  0
 25 26  2  0  0  0  0
 26 31  1  0  0  0  0
 26 27  1  0  0  0  0
 27 32  1  0  0  0  0
 28 27  2  0  0  0  0
 29 24  1  0  0  0  0
 30 25  1  0  0  0  0
 32 33  1  0  0  0  0
 32 35  1  0  0  0  0
 34 32  1  0  0  0  0
M  END
>  <minimizedAffinity>
-4.67762661

>  <minimizedRMSD>
1.06004226

$$$$
