
 OpenBabel03252501053D

 35 37  0  0  1  0  0  0  0  0999 V2000
   49.0240   32.4410   38.1740 O   0  0  0  0  0  0  0  0  0  0  0  0
   48.2130   33.6850   38.5380 P   0  0  2  0  0  0  0  0  0  0  0  0
   48.9280   34.9530   37.6680 O   0  0  0  0  0  0  0  0  0  0  0  0
   49.8430   34.7430   37.3530 H   0  0  0  0  0  0  0  0  0  0  0  0
   48.1300   33.9230   40.1530 O   0  0  0  0  0  0  0  0  0  0  0  0
   47.9880   35.6140   41.8770 C   0  0  1  0  0  0  0  0  0  0  0  0
   49.3490   35.0790   42.0070 C   0  0  0  0  0  0  0  0  0  0  0  0
   48.6000   35.0740   40.6630 C   0  0  1  0  0  0  0  0  0  0  0  0
   47.7250   36.6850   41.8970 H   0  0  0  0  0  0  0  0  0  0  0  0
   49.5200   34.0600   42.3760 H   0  0  0  0  0  0  0  0  0  0  0  0
   50.1410   35.8270   42.1680 H   0  0  0  0  0  0  0  0  0  0  0  0
   49.0880   35.7610   39.9480 H   0  0  0  0  0  0  0  0  0  0  0  0
   46.2270   33.1180   44.1200 C   0  0  0  0  0  0  0  0  0  0  0  0
   47.2370   33.8930   43.5620 C   0  0  0  0  0  0  0  0  0  0  0  0
   46.9150   34.7740   42.5100 C   0  0  0  0  0  0  0  0  0  0  0  0
   45.6290   34.8410   42.0680 N   0  0  0  0  0  0  0  0  0  0  0  0
   44.6630   34.0700   42.6330 C   0  0  0  0  0  0  0  0  0  0  0  0
   44.9590   33.2120   43.6540 N   0  0  0  0  0  0  0  0  0  0  0  0
   46.4760   32.4540   44.9150 H   0  0  0  0  0  0  0  0  0  0  0  0
   48.2260   33.8080   43.9390 H   0  0  0  0  0  0  0  0  0  0  0  0
   43.6420   34.1260   42.2790 H   0  0  0  0  0  0  0  0  0  0  0  0
   46.6910   33.4170   37.8800 O   0  0  0  0  0  0  0  0  0  0  0  0
   45.6330   32.8500   38.5760 C   0  0  0  0  0  0  0  0  0  0  0  0
   45.5840   31.6090   39.1880 C   0  0  0  0  0  0  0  0  0  0  0  0
   44.4600   31.1890   39.8400 C   0  0  0  0  0  0  0  0  0  0  0  0
   43.3440   31.9980   39.9010 C   0  0  0  0  0  0  0  0  0  0  0  0
   43.4350   33.2410   39.2700 C   0  0  0  0  0  0  0  0  0  0  0  0
   44.5630   33.6380   38.6280 N   0  0  0  0  0  0  0  0  0  0  0  0
   46.4990   31.0340   39.0970 H   0  0  0  0  0  0  0  0  0  0  0  0
   44.4550   30.2090   40.3100 H   0  0  0  0  0  0  0  0  0  0  0  0
   42.4380   31.7110   40.4010 H   0  0  0  0  0  0  0  0  0  0  0  0
   42.2350   34.1160   39.3330 C   0  0  0  0  0  0  0  0  0  0  0  0
   41.5850   34.0370   38.1380 F   0  0  0  0  0  0  0  0  0  0  0  0
   41.4020   33.5600   40.3100 F   0  0  0  0  0  0  0  0  0  0  0  0
   42.5550   35.4010   39.7230 F   0  0  0  0  0  0  0  0  0  0  0  0
  2  1  2  6  0  0  0
  2  5  1  0  0  0  0
  3  2  1  0  0  0  0
  4  3  1  0  0  0  0
  5  8  1  0  0  0  0
  6  9  1  1  0  0  0
  6  7  1  0  0  0  0
  6 15  1  0  0  0  0
  7 11  1  0  0  0  0
  7 10  1  0  0  0  0
  8 12  1  6  0  0  0
  8  6  1  0  0  0  0
  8  7  1  0  0  0  0
 13 19  1  0  0  0  0
 14 20  1  0  0  0  0
 14 13  2  0  0  0  0
 15 14  1  0  0  0  0
 16 15  2  0  0  0  0
 16 17  1  0  0  0  0
 17 18  2  0  0  0  0
 18 13  1  0  0  0  0
 21 17  1  0  0  0  0
 22  2  1  0  0  0  0
 22 23  1  0  0  0  0
 23 28  2  0  0  0  0
 23 24  1  0  0  0  0
 24 25  2  0  0  0  0
 25 26  1  0  0  0  0
 25 30  1  0  0  0  0
 26 31  1  0  0  0  0
 27 32  1  0  0  0  0
 27 26  2  0  0  0  0
 28 27  1  0  0  0  0
 29 24  1  0  0  0  0
 32 35  1  0  0  0  0
 32 34  1  0  0  0  0
 33 32  1  0  0  0  0
M  END
>  <minimizedAffinity>
-4.74317408

>  <minimizedRMSD>
1.81100416

$$$$
