
 OpenBabel03252509143D

 40 43  0  0  1  0  0  0  0  0999 V2000
   47.5090   32.7470   43.7640 C   0  0  0  0  0  0  0  0  0  0  0  0
   46.6970   33.5000   42.9210 C   0  0  0  0  0  0  0  0  0  0  0  0
   45.6110   34.2250   43.3680 C   0  0  0  0  0  0  0  0  0  0  0  0
   45.2980   34.2130   44.7360 C   0  0  0  0  0  0  0  0  0  0  0  0
   44.3570   34.7720   45.5070 N   0  0  0  0  0  0  0  0  0  0  0  0
   44.5420   34.4060   46.7900 C   0  0  0  0  0  0  0  0  0  0  0  0
   45.6170   33.6100   46.7870 N   0  0  0  0  0  0  0  0  0  0  0  0
   46.1130   33.4640   45.5440 C   0  0  0  0  0  0  0  0  0  0  0  0
   47.2130   32.7230   45.1270 C   0  0  0  0  0  0  0  0  0  0  0  0
   48.3610   32.1840   43.3830 H   0  0  0  0  0  0  0  0  0  0  0  0
   43.6210   35.3870   45.1170 H   0  0  0  0  0  0  0  0  0  0  0  0
   43.9370   34.6990   47.6610 H   0  0  0  0  0  0  0  0  0  0  0  0
   47.8180   32.1520   45.8160 H   0  0  0  0  0  0  0  0  0  0  0  0
   46.8200   32.5530   39.3800 C   0  0  0  0  0  0  0  0  0  0  0  0
   47.5960   33.5710   38.8150 C   0  0  0  0  0  0  0  0  0  0  0  0
   48.0740   34.5780   39.6560 C   0  0  0  0  0  0  0  0  0  0  0  0
   47.7660   34.5310   40.9890 N   0  0  0  0  0  0  0  0  0  0  0  0
   47.0080   33.5230   41.4950 C   0  0  0  0  0  0  0  0  0  0  0  0
   46.5160   32.5130   40.7130 N   0  0  0  0  0  0  0  0  0  0  0  0
   46.4380   31.7640   38.7530 H   0  0  0  0  0  0  0  0  0  0  0  0
   47.8210   33.5810   37.7640 H   0  0  0  0  0  0  0  0  0  0  0  0
   48.6710   35.3870   39.3030 H   0  0  0  0  0  0  0  0  0  0  0  0
   44.5900   35.1760   42.2740 S   0  0  0  0  0  0  0  0  0  0  0  0
   42.0270   34.8350   41.8010 N   0  0  0  0  0  0  0  0  0  0  0  0
   43.2940   34.2210   41.4680 C   0  0  1  0  0  0  0  0  0  0  0  0
   43.5690   34.3170   39.9670 C   0  0  0  0  0  0  0  0  0  0  0  0
   42.4650   34.0390   39.1840 O   0  0  0  0  0  0  0  0  0  0  0  0
   41.3810   33.5050   39.8510 C   0  0  0  0  0  0  0  0  0  0  0  0
   40.9620   34.4620   40.9260 C   0  0  2  0  0  0  0  0  0  0  0  0
   41.7800   34.5030   42.7760 H   0  0  0  0  0  0  0  0  0  0  0  0
   43.3300   33.1530   41.7690 H   0  0  0  0  0  0  0  0  0  0  0  0
   43.8210   35.3870   39.7790 H   0  0  0  0  0  0  0  0  0  0  0  0
   44.3250   33.6080   39.6520 H   0  0  0  0  0  0  0  0  0  0  0  0
   41.6380   32.5470   40.3410 H   0  0  0  0  0  0  0  0  0  0  0  0
   40.5720   33.3910   39.1320 H   0  0  0  0  0  0  0  0  0  0  0  0
   40.1170   33.9820   41.4810 H   0  0  0  0  0  0  0  0  0  0  0  0
   40.3440   35.7300   40.3340 C   0  0  0  0  0  0  0  0  0  0  0  0
   41.0400   36.0780   39.1950 F   0  0  0  0  0  0  0  0  0  0  0  0
   39.0080   35.5190   40.0530 F   0  0  0  0  0  0  0  0  0  0  0  0
   40.4980   36.7980   41.2160 F   0  0  0  0  0  0  0  0  0  0  0  0
  1  9  1  0  0  0  0
  2  3  1  0  0  0  0
  2  1  2  0  0  0  0
  3  4  2  0  0  0  0
  4  5  1  0  0  0  0
  4  8  1  0  0  0  0
  5  6  1  0  0  0  0
  6 12  1  0  0  0  0
  7  6  2  0  0  0  0
  8  7  1  0  0  0  0
  9  8  2  0  0  0  0
  9 13  1  0  0  0  0
 10  1  1  0  0  0  0
 11  5  1  0  0  0  0
 14 19  1  0  0  0  0
 15 14  2  0  0  0  0
 15 16  1  0  0  0  0
 16 17  2  0  0  0  0
 17 18  1  0  0  0  0
 18  2  1  0  0  0  0
 19 18  2  0  0  0  0
 20 14  1  0  0  0  0
 21 15  1  0  0  0  0
 22 16  1  0  0  0  0
 23  3  1  0  0  0  0
 24 30  1  0  0  0  0
 25 31  1  1  0  0  0
 25 24  1  0  0  0  0
 25 23  1  0  0  0  0
 26 25  1  0  0  0  0
 27 28  1  0  0  0  0
 27 26  1  0  0  0  0
 28 34  1  0  0  0  0
 28 29  1  0  0  0  0
 29 36  1  1  0  0  0
 29 24  1  0  0  0  0
 32 26  1  0  0  0  0
 33 26  1  0  0  0  0
 35 28  1  0  0  0  0
 37 29  1  0  0  0  0
 37 40  1  0  0  0  0
 38 37  1  0  0  0  0
 39 37  1  0  0  0  0
M  END
>  <minimizedAffinity>
-6.28104162

>  <minimizedRMSD>
1.18266761

$$$$
