
 OpenBabel03252509143D

 40 43  0  0  1  0  0  0  0  0999 V2000
   47.5100   32.7480   43.7640 C   0  0  0  0  0  0  0  0  0  0  0  0
   46.6980   33.5000   42.9200 C   0  0  0  0  0  0  0  0  0  0  0  0
   45.6120   34.2250   43.3670 C   0  0  0  0  0  0  0  0  0  0  0  0
   45.2990   34.2130   44.7360 C   0  0  0  0  0  0  0  0  0  0  0  0
   44.3580   34.7730   45.5070 N   0  0  0  0  0  0  0  0  0  0  0  0
   44.5430   34.4070   46.7900 C   0  0  0  0  0  0  0  0  0  0  0  0
   45.6170   33.6100   46.7870 N   0  0  0  0  0  0  0  0  0  0  0  0
   46.1130   33.4640   45.5430 C   0  0  0  0  0  0  0  0  0  0  0  0
   47.2130   32.7240   45.1270 C   0  0  0  0  0  0  0  0  0  0  0  0
   48.3620   32.1840   43.3830 H   0  0  0  0  0  0  0  0  0  0  0  0
   43.6210   35.3870   45.1160 H   0  0  0  0  0  0  0  0  0  0  0  0
   43.9370   34.7000   47.6600 H   0  0  0  0  0  0  0  0  0  0  0  0
   47.8180   32.1530   45.8160 H   0  0  0  0  0  0  0  0  0  0  0  0
   46.8200   32.5530   39.3790 C   0  0  0  0  0  0  0  0  0  0  0  0
   47.5960   33.5700   38.8150 C   0  0  0  0  0  0  0  0  0  0  0  0
   48.0740   34.5770   39.6550 C   0  0  0  0  0  0  0  0  0  0  0  0
   47.7660   34.5300   40.9890 N   0  0  0  0  0  0  0  0  0  0  0  0
   47.0090   33.5230   41.4940 C   0  0  0  0  0  0  0  0  0  0  0  0
   46.5170   32.5130   40.7120 N   0  0  0  0  0  0  0  0  0  0  0  0
   46.4390   31.7630   38.7530 H   0  0  0  0  0  0  0  0  0  0  0  0
   47.8220   33.5800   37.7640 H   0  0  0  0  0  0  0  0  0  0  0  0
   48.6720   35.3870   39.3030 H   0  0  0  0  0  0  0  0  0  0  0  0
   44.5910   35.1760   42.2730 S   0  0  0  0  0  0  0  0  0  0  0  0
   42.0270   34.8350   41.8020 N   0  0  0  0  0  0  0  0  0  0  0  0
   43.2940   34.2210   41.4680 C   0  0  1  0  0  0  0  0  0  0  0  0
   43.5690   34.3170   39.9670 C   0  0  0  0  0  0  0  0  0  0  0  0
   42.4640   34.0380   39.1840 O   0  0  0  0  0  0  0  0  0  0  0  0
   41.3810   33.5050   39.8520 C   0  0  0  0  0  0  0  0  0  0  0  0
   40.9620   34.4620   40.9270 C   0  0  2  0  0  0  0  0  0  0  0  0
   41.7810   34.5030   42.7760 H   0  0  0  0  0  0  0  0  0  0  0  0
   43.3300   33.1530   41.7700 H   0  0  0  0  0  0  0  0  0  0  0  0
   43.8200   35.3860   39.7780 H   0  0  0  0  0  0  0  0  0  0  0  0
   44.3240   33.6080   39.6520 H   0  0  0  0  0  0  0  0  0  0  0  0
   41.6380   32.5470   40.3410 H   0  0  0  0  0  0  0  0  0  0  0  0
   40.5710   33.3910   39.1340 H   0  0  0  0  0  0  0  0  0  0  0  0
   40.1170   33.9820   41.4820 H   0  0  0  0  0  0  0  0  0  0  0  0
   40.3440   35.7300   40.3350 C   0  0  0  0  0  0  0  0  0  0  0  0
   41.0400   36.0780   39.1960 F   0  0  0  0  0  0  0  0  0  0  0  0
   39.0080   35.5200   40.0540 F   0  0  0  0  0  0  0  0  0  0  0  0
   40.4980   36.7980   41.2170 F   0  0  0  0  0  0  0  0  0  0  0  0
  1  9  1  0  0  0  0
  2  3  1  0  0  0  0
  2  1  2  0  0  0  0
  3  4  2  0  0  0  0
  4  5  1  0  0  0  0
  4  8  1  0  0  0  0
  5  6  1  0  0  0  0
  6 12  1  0  0  0  0
  7  6  2  0  0  0  0
  8  7  1  0  0  0  0
  9  8  2  0  0  0  0
  9 13  1  0  0  0  0
 10  1  1  0  0  0  0
 11  5  1  0  0  0  0
 14 19  1  0  0  0  0
 15 14  2  0  0  0  0
 15 16  1  0  0  0  0
 16 17  2  0  0  0  0
 17 18  1  0  0  0  0
 18  2  1  0  0  0  0
 19 18  2  0  0  0  0
 20 14  1  0  0  0  0
 21 15  1  0  0  0  0
 22 16  1  0  0  0  0
 23  3  1  0  0  0  0
 24 30  1  0  0  0  0
 25 31  1  1  0  0  0
 25 24  1  0  0  0  0
 25 23  1  0  0  0  0
 26 25  1  0  0  0  0
 27 28  1  0  0  0  0
 27 26  1  0  0  0  0
 28 34  1  0  0  0  0
 28 29  1  0  0  0  0
 29 36  1  1  0  0  0
 29 24  1  0  0  0  0
 32 26  1  0  0  0  0
 33 26  1  0  0  0  0
 35 28  1  0  0  0  0
 37 29  1  0  0  0  0
 37 40  1  0  0  0  0
 38 37  1  0  0  0  0
 39 37  1  0  0  0  0
M  END
>  <minimizedAffinity>
-6.28092194

>  <minimizedRMSD>
1.2075671

$$$$
