
 OpenBabel03242523553D

 41 43  0  0  1  0  0  0  0  0999 V2000
   42.8150   34.5390   38.7360 C   0  0  1  0  0  0  0  0  0  0  0  0
   42.9530   35.1830   40.1060 C   0  0  1  0  0  0  0  0  0  0  0  0
   41.6620   35.3920   40.6270 O   0  0  0  0  0  0  0  0  0  0  0  0
   40.7310   35.7420   39.6390 C   0  0  0  0  0  0  0  0  0  0  0  0
   40.4350   34.5810   38.7140 C   0  0  2  0  0  0  0  0  0  0  0  0
   41.6520   33.6080   38.8350 C   0  0  1  0  0  0  0  0  0  0  0  0
   43.7580   34.0090   38.4860 H   0  0  0  0  0  0  0  0  0  0  0  0
   43.5210   36.1280   40.0830 H   0  0  0  0  0  0  0  0  0  0  0  0
   41.0310   36.6520   39.0950 H   0  0  0  0  0  0  0  0  0  0  0  0
   39.8080   35.9710   40.1770 H   0  0  0  0  0  0  0  0  0  0  0  0
   39.5090   34.0430   38.9820 H   0  0  0  0  0  0  0  0  0  0  0  0
   41.4420   33.3100   39.9150 H   0  0  0  0  0  0  0  0  0  0  0  0
   42.5930   35.5120   37.7460 O   0  0  0  0  0  0  0  0  0  0  0  0
   43.1540   36.3140   37.9730 H   0  0  0  0  0  0  0  0  0  0  0  0
   40.4470   35.0100   37.3970 O   0  0  0  0  0  0  0  0  0  0  0  0
   40.5080   34.2820   36.7470 H   0  0  0  0  0  0  0  0  0  0  0  0
   43.4970   34.1880   40.9320 O   0  0  0  0  0  0  0  0  0  0  0  0
   44.5960   34.3270   41.6800 C   0  0  0  0  0  0  0  0  0  0  0  0
   45.8590   34.4340   41.0930 C   0  0  0  0  0  0  0  0  0  0  0  0
   46.9720   34.5790   41.9000 C   0  0  0  0  0  0  0  0  0  0  0  0
   46.8000   34.6140   43.2750 N   0  0  0  0  0  0  0  0  0  0  0  0
   45.5640   34.5080   43.8120 C   0  0  0  0  0  0  0  0  0  0  0  0
   44.4720   34.3650   43.0180 N   0  0  0  0  0  0  0  0  0  0  0  0
   45.9600   34.4030   40.0290 H   0  0  0  0  0  0  0  0  0  0  0  0
   45.4350   34.5350   44.8760 H   0  0  0  0  0  0  0  0  0  0  0  0
   48.3550   34.6780   41.3380 C   0  0  0  0  0  0  0  0  0  0  0  0
   49.0690   36.0170   41.5070 C   0  0  0  0  0  0  0  0  0  0  0  0
   49.4980   34.7050   42.1940 C   0  0  0  0  0  0  0  0  0  0  0  0
   48.4140   34.2310   40.3120 H   0  0  0  0  0  0  0  0  0  0  0  0
   49.7150   36.2990   40.6720 H   0  0  0  0  0  0  0  0  0  0  0  0
   48.5130   36.7640   42.0910 H   0  0  0  0  0  0  0  0  0  0  0  0
   50.4780   34.2920   41.9340 H   0  0  0  0  0  0  0  0  0  0  0  0
   49.3440   34.7510   43.3000 H   0  0  0  0  0  0  0  0  0  0  0  0
   41.5270   32.6720   37.8710 O   0  0  0  0  0  0  0  0  0  0  0  0
   40.8780   31.5100   37.8360 C   0  0  0  0  0  0  0  0  0  0  0  0
   39.5760   31.4290   37.5850 O   0  0  0  0  0  0  0  0  0  0  0  0
   41.7770   28.1440   37.3050 H   0  0  0  0  0  0  0  0  0  0  0  0
   41.4610   29.1380   37.0240 C   0  0  0  0  0  0  0  0  0  0  0  0
   41.2240   29.4680   35.8350 O   0  0  0  0  0  0  0  0  0  0  0  0
   41.3000   30.1210   38.0240 N   0  0  0  0  0  0  0  0  0  0  0  0
   41.5030   29.8110   38.9880 H   0  0  0  0  0  0  0  0  0  0  0  0
  1  7  1  6  0  0  0
  1  6  1  0  0  0  0
  1  2  1  0  0  0  0
  2  8  1  6  0  0  0
  2  3  1  0  0  0  0
  2 17  1  0  0  0  0
  4 10  1  0  0  0  0
  4  3  1  0  0  0  0
  5  6  1  0  0  0  0
  5 11  1  1  0  0  0
  5  4  1  0  0  0  0
  6 12  1  1  0  0  0
  9  4  1  0  0  0  0
 13 14  1  0  0  0  0
 13  1  1  0  0  0  0
 15  5  1  0  0  0  0
 16 15  1  0  0  0  0
 17 18  1  0  0  0  0
 18 23  1  0  0  0  0
 19 18  2  0  0  0  0
 19 20  1  0  0  0  0
 20 21  2  0  0  0  0
 21 22  1  0  0  0  0
 22 25  1  0  0  0  0
 23 22  2  0  0  0  0
 24 19  1  0  0  0  0
 26 27  1  0  0  0  0
 26 20  1  0  0  0  0
 26 28  1  0  0  0  0
 27 31  1  0  0  0  0
 27 28  1  0  0  0  0
 28 33  1  0  0  0  0
 29 26  1  0  0  0  0
 30 27  1  0  0  0  0
 32 28  1  0  0  0  0
 34  6  1  0  0  0  0
 35 34  1  0  0  0  0
 35 40  1  0  0  0  0
 36 35  2  0  0  0  0
 38 37  1  0  0  0  0
 38 40  1  0  0  0  0
 39 38  2  0  0  0  0
 40 41  1  0  0  0  0
M  END
>  <minimizedAffinity>
-5.85254622

>  <minimizedRMSD>
0.134921923

$$$$
