
 OpenBabel03252509303D

 23 23  0  0  0  0  0  0  0  0999 V2000
   46.8960   33.0570   43.2150 C   0  0  0  0  0  0  0  0  0  0  0  0
   46.3980   32.0920   43.4840 H   0  0  0  0  0  0  0  0  0  0  0  0
   46.8330   33.1260   42.1240 H   0  0  0  0  0  0  0  0  0  0  0  0
   44.7800   35.0130   45.5730 C   0  0  0  0  0  0  0  0  0  0  0  0
   45.5720   33.9820   45.0580 C   0  0  0  0  0  0  0  0  0  0  0  0
   46.0600   34.1260   43.7800 C   0  0  0  0  0  0  0  0  0  0  0  0
   45.7560   35.2550   43.0710 N   0  0  0  0  0  0  0  0  0  0  0  0
   44.9780   36.2410   43.6070 C   0  0  0  0  0  0  0  0  0  0  0  0
   44.4990   36.1160   44.8440 N   0  0  0  0  0  0  0  0  0  0  0  0
   44.3830   34.9220   46.5800 H   0  0  0  0  0  0  0  0  0  0  0  0
   45.7530   33.1240   45.7090 H   0  0  0  0  0  0  0  0  0  0  0  0
   44.7850   37.1090   42.9730 H   0  0  0  0  0  0  0  0  0  0  0  0
   48.1790   33.0810   43.7320 O   0  0  0  0  0  0  0  0  0  0  0  0
   50.1930   32.5770   42.1480 O   0  0  0  0  0  0  0  0  0  0  0  0
   49.2040   33.6430   42.5150 P   0  0  2  0  0  0  0  0  0  0  0  0
   49.9530   35.0400   43.1190 O   0  0  0  0  0  0  0  0  0  0  0  0
   49.2740   35.5380   43.6410 H   0  0  0  0  0  0  0  0  0  0  0  0
   48.2750   34.0120   41.1680 O   0  0  0  0  0  0  0  0  0  0  0  0
   48.5800   34.9750   40.2280 C   0  0  0  0  0  0  0  0  0  0  0  0
   49.0110   36.0440   40.7800 O   0  0  0  0  0  0  0  0  0  0  0  0
   48.4670   34.8840   38.8140 N   0  0  0  0  0  0  0  0  0  0  0  0
   49.3670   34.3770   38.5660 H   0  0  0  0  0  0  0  0  0  0  0  0
   47.5410   35.3540   38.5930 H   0  0  0  0  0  0  0  0  0  0  0  0
  1  2  1  0  0  0  0
  1 13  1  0  0  0  0
  1  6  1  0  0  0  0
  3  1  1  0  0  0  0
  4 10  1  0  0  0  0
  5  4  1  0  0  0  0
  5 11  1  0  0  0  0
  6  5  2  0  0  0  0
  7  8  2  0  0  0  0
  7  6  1  0  0  0  0
  8  9  1  0  0  0  0
  9  4  2  0  0  0  0
 12  8  1  0  0  0  0
 15 14  2  6  0  0  0
 15 16  1  0  0  0  0
 15 13  1  0  0  0  0
 16 17  1  0  0  0  0
 18 15  1  0  0  0  0
 19 20  2  0  0  0  0
 19 18  1  0  0  0  0
 21 19  1  0  0  0  0
 22 21  1  0  0  0  0
 23 21  1  0  0  0  0
M  END
>  <minimizedAffinity>
-4.5250721

>  <minimizedRMSD>
1.00965607

$$$$
