
 OpenBabel03242519453D

 28 29  0  0  1  0  0  0  0  0999 V2000
   47.2810   32.2840   46.0470 C   0  0  2  0  0  0  0  0  0  0  0  0
   46.6560   32.1210   44.7050 C   0  0  1  0  0  0  0  0  0  0  0  0
   45.4550   31.3580   44.9780 O   0  0  0  0  0  0  0  0  0  0  0  0
   46.1200   30.2790   45.6470 C   0  0  0  0  0  0  0  0  0  0  0  0
   46.7580   31.0450   46.7950 C   0  0  2  0  0  0  0  0  0  0  0  0
   48.3860   32.2600   46.0490 H   0  0  0  0  0  0  0  0  0  0  0  0
   47.2590   31.5050   44.0050 H   0  0  0  0  0  0  0  0  0  0  0  0
   45.4130   29.5170   45.9560 H   0  0  0  0  0  0  0  0  0  0  0  0
   46.9350   29.9530   44.9990 H   0  0  0  0  0  0  0  0  0  0  0  0
   47.6080   30.5000   47.2410 H   0  0  0  0  0  0  0  0  0  0  0  0
   44.7490   35.1380   43.8930 C   0  0  0  0  0  0  0  0  0  0  0  0
   45.5450   35.7630   42.9040 C   0  0  0  0  0  0  0  0  0  0  0  0
   46.7460   35.1410   42.5050 C   0  0  0  0  0  0  0  0  0  0  0  0
   47.0940   33.9540   43.0910 N   0  0  0  0  0  0  0  0  0  0  0  0
   46.3060   33.3810   44.0390 C   0  0  0  0  0  0  0  0  0  0  0  0
   45.1480   33.9510   44.4450 N   0  0  0  0  0  0  0  0  0  0  0  0
   45.2200   36.7040   42.4730 H   0  0  0  0  0  0  0  0  0  0  0  0
   47.3650   35.6070   41.7480 H   0  0  0  0  0  0  0  0  0  0  0  0
   43.5540   35.7070   44.3260 O   0  0  0  0  0  0  0  0  0  0  0  0
   43.2220   36.5210   43.8330 H   0  0  0  0  0  0  0  0  0  0  0  0
   46.7970   33.4590   46.6800 O   0  0  0  0  0  0  0  0  0  0  0  0
   47.5840   33.9630   47.0460 H   0  0  0  0  0  0  0  0  0  0  0  0
   45.7650   31.4170   47.6760 O   0  0  0  0  0  0  0  0  0  0  0  0
   45.9390   31.2320   49.0400 C   0  0  0  0  0  0  0  0  0  0  0  0
   45.0360   31.4180   49.9030 O   0  0  0  0  0  0  0  0  0  0  0  0
   47.2520   30.8000   49.4450 N   0  0  0  0  0  0  0  0  0  0  0  0
   48.2180   31.1250   49.7050 H   0  0  0  0  0  0  0  0  0  0  0  0
   47.2590   29.7750   49.5050 H   0  0  0  0  0  0  0  0  0  0  0  0
  1  6  1  6  0  0  0
  1 21  1  0  0  0  0
  1  5  1  0  0  0  0
  2  7  1  6  0  0  0
  2  3  1  0  0  0  0
  2  1  1  0  0  0  0
  3  4  1  0  0  0  0
  4  8  1  0  0  0  0
  4  5  1  0  0  0  0
  5 10  1  1  0  0  0
  5 23  1  0  0  0  0
  9  4  1  0  0  0  0
 11 19  1  0  0  0  0
 11 16  1  0  0  0  0
 12 11  2  0  0  0  0
 13 12  1  0  0  0  0
 13 14  2  0  0  0  0
 14 15  1  0  0  0  0
 15 16  2  0  0  0  0
 15  2  1  0  0  0  0
 17 12  1  0  0  0  0
 18 13  1  0  0  0  0
 20 19  1  0  0  0  0
 21 22  1  0  0  0  0
 23 24  1  0  0  0  0
 24 26  1  0  0  0  0
 24 25  2  0  0  0  0
 26 28  1  0  0  0  0
 26 27  1  0  0  0  0
M  END
>  <minimizedAffinity>
-5.44996786

>  <minimizedRMSD>
1.883798

$$$$
