
 OpenBabel03252500493D

 24 25  0  0  0  0  0  0  0  0999 V2000
   44.6900   35.2210   45.1700 C   0  0  0  0  0  0  0  0  0  0  0  0
   45.3980   35.0390   43.9920 C   0  0  0  0  0  0  0  0  0  0  0  0
   46.3370   34.0220   43.8820 C   0  0  0  0  0  0  0  0  0  0  0  0
   46.5100   33.2310   44.9920 N   0  0  0  0  0  0  0  0  0  0  0  0
   45.8290   33.4100   46.1190 C   0  0  0  0  0  0  0  0  0  0  0  0
   44.9260   34.3970   46.2060 N   0  0  0  0  0  0  0  0  0  0  0  0
   43.9460   36.0000   45.3070 H   0  0  0  0  0  0  0  0  0  0  0  0
   46.9040   33.8570   42.9760 H   0  0  0  0  0  0  0  0  0  0  0  0
   46.0500   32.5460   47.2670 C   0  0  0  0  0  0  0  0  0  0  0  0
   47.2780   32.0640   47.5890 C   0  0  0  0  0  0  0  0  0  0  0  0
   47.5200   31.2450   48.6680 C   0  0  0  0  0  0  0  0  0  0  0  0
   46.4440   30.9220   49.4300 N   0  0  0  0  0  0  0  0  0  0  0  0
   45.2430   31.4010   49.1060 C   0  0  0  0  0  0  0  0  0  0  0  0
   44.9900   32.2030   48.0530 N   0  0  0  0  0  0  0  0  0  0  0  0
   48.0820   32.3720   46.9250 H   0  0  0  0  0  0  0  0  0  0  0  0
   48.5610   30.9390   48.7990 H   0  0  0  0  0  0  0  0  0  0  0  0
   44.4580   31.0760   49.7860 H   0  0  0  0  0  0  0  0  0  0  0  0
   45.1370   35.9350   42.8760 C   0  0  0  0  0  0  0  0  0  0  0  0
   45.1520   37.1680   43.0960 O   0  0  0  0  0  0  0  0  0  0  0  0
   43.2210   34.5450   40.3740 H   0  0  0  0  0  0  0  0  0  0  0  0
   43.5080   35.0170   41.3230 C   0  0  0  0  0  0  0  0  0  0  0  0
   42.5740   35.2710   42.1270 O   0  0  0  0  0  0  0  0  0  0  0  0
   44.8840   35.3210   41.6110 N   0  0  0  0  0  0  0  0  0  0  0  0
   45.5890   35.0800   40.8980 H   0  0  0  0  0  0  0  0  0  0  0  0
  1  7  1  0  0  0  0
  1  6  1  0  0  0  0
  2  1  2  0  0  0  0
  3  2  1  0  0  0  0
  3  4  2  0  0  0  0
  4  5  1  0  0  0  0
  5  6  2  0  0  0  0
  5  9  1  0  0  0  0
  8  3  1  0  0  0  0
  9 10  2  0  0  0  0
  9 14  1  0  0  0  0
 10 11  1  0  0  0  0
 11 16  1  0  0  0  0
 11 12  2  0  0  0  0
 13 12  1  0  0  0  0
 13 17  1  0  0  0  0
 14 13  2  0  0  0  0
 15 10  1  0  0  0  0
 18 19  2  0  0  0  0
 18  2  1  0  0  0  0
 20 21  1  0  0  0  0
 21 23  1  0  0  0  0
 21 22  2  0  0  0  0
 23 18  1  0  0  0  0
 24 23  1  0  0  0  0
M  END
>  <minimizedAffinity>
-5.21550035

>  <minimizedRMSD>
1.79690945

$$$$
