
 OpenBabel03252506443D

 38 40  0  0  1  0  0  0  0  0999 V2000
   49.4820   33.4050   41.3420 N   0  0  1  0  0  0  0  0  0  0  0  0
   50.6900   33.0540   42.0300 C   0  0  0  0  0  0  0  0  0  0  0  0
   51.2580   31.7110   41.6620 C   0  0  0  0  0  0  0  0  0  0  0  0
   50.2990   30.6240   42.0700 C   0  0  0  0  0  0  0  0  0  0  0  0
   48.8710   31.0690   41.9370 C   0  0  0  0  0  0  0  0  0  0  0  0
   48.8060   32.2060   40.9340 C   0  0  2  0  0  0  0  0  0  0  0  0
   50.6330   33.1130   43.1230 H   0  0  0  0  0  0  0  0  0  0  0  0
   51.4650   33.8130   41.7270 H   0  0  0  0  0  0  0  0  0  0  0  0
   51.7030   31.6250   40.6810 H   0  0  0  0  0  0  0  0  0  0  0  0
   52.1320   31.5840   42.3830 H   0  0  0  0  0  0  0  0  0  0  0  0
   50.5200   29.7180   41.4460 H   0  0  0  0  0  0  0  0  0  0  0  0
   50.4520   30.2770   43.1220 H   0  0  0  0  0  0  0  0  0  0  0  0
   48.2080   30.2840   41.5510 H   0  0  0  0  0  0  0  0  0  0  0  0
   48.4480   31.4280   42.9090 H   0  0  0  0  0  0  0  0  0  0  0  0
   47.7300   32.4740   40.8820 H   0  0  0  0  0  0  0  0  0  0  0  0
   47.3160   34.6760   41.9180 C   0  0  1  0  0  0  0  0  0  0  0  0
   48.4390   35.6250   41.7210 C   0  0  0  0  0  0  0  0  0  0  0  0
   48.7160   34.2530   42.1880 C   0  0  2  0  0  0  0  0  0  0  0  0
   46.8190   34.2750   41.0080 H   0  0  0  0  0  0  0  0  0  0  0  0
   48.4480   36.4950   42.4060 H   0  0  0  0  0  0  0  0  0  0  0  0
   48.6690   35.8820   40.6680 H   0  0  0  0  0  0  0  0  0  0  0  0
   48.9630   34.1720   43.2760 H   0  0  0  0  0  0  0  0  0  0  0  0
   45.5560   36.0310   43.1100 C   0  0  0  0  0  0  0  0  0  0  0  0
   46.3880   34.9060   43.0330 C   0  0  0  0  0  0  0  0  0  0  0  0
   46.2940   33.9750   44.0930 C   0  0  0  0  0  0  0  0  0  0  0  0
   45.4200   34.2140   45.1050 N   0  0  0  0  0  0  0  0  0  0  0  0
   44.6330   35.3190   45.1340 C   0  0  0  0  0  0  0  0  0  0  0  0
   44.6960   36.2360   44.1350 N   0  0  0  0  0  0  0  0  0  0  0  0
   45.5960   36.7670   42.3210 H   0  0  0  0  0  0  0  0  0  0  0  0
   46.8920   33.0910   44.1140 H   0  0  0  0  0  0  0  0  0  0  0  0
   43.9650   35.4340   45.9760 H   0  0  0  0  0  0  0  0  0  0  0  0
   49.2100   31.7390   39.6360 N   0  0  0  0  0  0  0  0  0  0  0  0
   49.6210   30.9300   39.1630 H   0  0  0  0  0  0  0  0  0  0  0  0
   49.0100   32.6450   38.5570 C   0  0  0  0  0  0  0  0  0  0  0  0
   47.9880   33.3690   38.2820 O   0  0  0  0  0  0  0  0  0  0  0  0
   49.8670   33.0310   37.4570 N   0  0  0  0  0  0  0  0  0  0  0  0
   49.8100   32.5980   36.5100 H   0  0  0  0  0  0  0  0  0  0  0  0
   50.5300   33.7950   37.7810 H   0  0  0  0  0  0  0  0  0  0  0  0
  1  2  1  1  0  0  0
  1 18  1  0  0  0  0
  2  7  1  0  0  0  0
  3  2  1  0  0  0  0
  3  4  1  0  0  0  0
  3 10  1  0  0  0  0
  4 12  1  0  0  0  0
  5  4  1  0  0  0  0
  5 14  1  0  0  0  0
  6 15  1  6  0  0  0
  6  1  1  0  0  0  0
  6  5  1  0  0  0  0
  8  2  1  0  0  0  0
  9  3  1  0  0  0  0
 11  4  1  0  0  0  0
 13  5  1  0  0  0  0
 16 19  1  6  0  0  0
 16 18  1  0  0  0  0
 16 24  1  0  0  0  0
 17 16  1  0  0  0  0
 17 18  1  0  0  0  0
 17 20  1  0  0  0  0
 18 22  1  1  0  0  0
 21 17  1  0  0  0  0
 23 28  1  0  0  0  0
 24 23  2  0  0  0  0
 24 25  1  0  0  0  0
 25 30  1  0  0  0  0
 25 26  2  0  0  0  0
 26 27  1  0  0  0  0
 27 31  1  0  0  0  0
 28 27  2  0  0  0  0
 29 23  1  0  0  0  0
 32  6  1  0  0  0  0
 33 32  1  0  0  0  0
 34 32  1  0  0  0  0
 35 34  2  0  0  0  0
 36 38  1  0  0  0  0
 36 34  1  0  0  0  0
 37 36  1  0  0  0  0
M  END
>  <minimizedAffinity>
-5.20991945

>  <minimizedRMSD>
1.1914221

$$$$
