
 OpenBabel03252507543D

 40 42  0  0  1  0  0  0  0  0999 V2000
   47.0610   34.8140   42.1230 C   0  0  2  0  0  0  0  0  0  0  0  0
   46.2970   34.3190   40.8960 C   0  0  0  0  0  0  0  0  0  0  0  0
   47.5070   34.1500   39.9510 C   0  0  0  0  0  0  0  0  0  0  0  0
   48.6150   33.6600   40.8310 C   0  0  1  0  0  0  0  0  0  0  0  0
   48.0860   33.7200   42.2320 C   0  0  0  0  0  0  0  0  0  0  0  0
   47.5700   35.7640   41.8730 H   0  0  0  0  0  0  0  0  0  0  0  0
   45.6070   35.0810   40.5270 H   0  0  0  0  0  0  0  0  0  0  0  0
   45.8820   33.3360   41.1160 H   0  0  0  0  0  0  0  0  0  0  0  0
   47.7590   35.1800   39.5760 H   0  0  0  0  0  0  0  0  0  0  0  0
   47.2710   33.4630   39.1160 H   0  0  0  0  0  0  0  0  0  0  0  0
   49.5100   34.3130   40.8030 H   0  0  0  0  0  0  0  0  0  0  0  0
   48.8920   33.9650   42.9510 H   0  0  0  0  0  0  0  0  0  0  0  0
   47.6100   32.7600   42.5330 H   0  0  0  0  0  0  0  0  0  0  0  0
   44.5090   35.8860   44.6740 C   0  0  0  0  0  0  0  0  0  0  0  0
   45.2440   35.9030   43.4810 C   0  0  0  0  0  0  0  0  0  0  0  0
   46.1910   34.9000   43.3250 C   0  0  0  0  0  0  0  0  0  0  0  0
   46.3870   33.9310   44.3170 N   0  0  0  0  0  0  0  0  0  0  0  0
   45.6410   33.9730   45.4500 C   0  0  0  0  0  0  0  0  0  0  0  0
   44.7080   34.9500   45.6170 N   0  0  0  0  0  0  0  0  0  0  0  0
   43.7690   36.6560   44.8140 H   0  0  0  0  0  0  0  0  0  0  0  0
   45.1230   36.6320   42.6940 H   0  0  0  0  0  0  0  0  0  0  0  0
   45.8800   33.1770   46.1420 H   0  0  0  0  0  0  0  0  0  0  0  0
   49.0340   32.2310   40.5730 C   0  0  2  0  0  0  0  0  0  0  0  0
   49.7460   31.5760   41.6680 C   0  0  0  0  0  0  0  0  0  0  0  0
   50.4370   31.8640   40.3800 C   0  0  1  0  0  0  0  0  0  0  0  0
   48.2720   31.6390   40.0380 H   0  0  0  0  0  0  0  0  0  0  0  0
   50.0030   32.1620   42.5880 H   0  0  0  0  0  0  0  0  0  0  0  0
   49.5160   30.5110   41.9040 H   0  0  0  0  0  0  0  0  0  0  0  0
   51.1460   32.6860   40.2870 H   0  0  0  0  0  0  0  0  0  0  0  0
   50.7110   30.7710   39.5200 O   0  0  0  0  0  0  0  0  0  0  0  0
   52.4620   29.9620   37.7650 O   0  0  0  0  0  0  0  0  0  0  0  0
   52.1540   31.0900   38.7170 P   0  0  1  0  0  0  0  0  0  0  0  0
   52.0000   32.5220   37.7830 O   0  0  0  0  0  0  0  0  0  0  0  0
   52.1360   33.2640   38.4290 H   0  0  0  0  0  0  0  0  0  0  0  0
   53.4650   31.3130   39.7130 O   0  0  0  0  0  0  0  0  0  0  0  0
   53.8730   30.2910   40.5850 C   0  0  0  0  0  0  0  0  0  0  0  0
   54.7140   29.4090   40.3140 O   0  0  0  0  0  0  0  0  0  0  0  0
   53.3620   30.1490   41.9010 N   0  0  0  0  0  0  0  0  0  0  0  0
   52.6910   29.3550   41.9320 H   0  0  0  0  0  0  0  0  0  0  0  0
   53.2460   30.3720   42.9070 H   0  0  0  0  0  0  0  0  0  0  0  0
  1  6  1  6  0  0  0
  1  5  1  0  0  0  0
  1 16  1  0  0  0  0
  2  8  1  0  0  0  0
  2  1  1  0  0  0  0
  3  4  1  0  0  0  0
  3  2  1  0  0  0  0
  4 11  1  6  0  0  0
  4  5  1  0  0  0  0
  5 13  1  0  0  0  0
  5 12  1  0  0  0  0
  7  2  1  0  0  0  0
  9  3  1  0  0  0  0
 10  3  1  0  0  0  0
 14 20  1  0  0  0  0
 14 19  1  0  0  0  0
 15 14  2  0  0  0  0
 16 15  1  0  0  0  0
 16 17  2  0  0  0  0
 17 18  1  0  0  0  0
 18 19  2  0  0  0  0
 18 22  1  0  0  0  0
 21 15  1  0  0  0  0
 23 26  1  6  0  0  0
 23  4  1  0  0  0  0
 23 24  1  0  0  0  0
 24 28  1  0  0  0  0
 24 27  1  0  0  0  0
 25 29  1  1  0  0  0
 25 23  1  0  0  0  0
 25 24  1  0  0  0  0
 30 25  1  0  0  0  0
 32 31  2  6  0  0  0
 32 30  1  0  0  0  0
 32 35  1  0  0  0  0
 33 34  1  0  0  0  0
 33 32  1  0  0  0  0
 35 36  1  0  0  0  0
 36 38  1  0  0  0  0
 37 36  2  0  0  0  0
 38 39  1  0  0  0  0
 38 40  1  0  0  0  0
M  END
>  <minimizedAffinity>
-5.2151022

>  <minimizedRMSD>
0.723482132

$$$$
