
 OpenBabel03252509193D

 39 41  0  0  1  0  0  0  0  0999 V2000
   47.8430   28.9390   48.0560 C   0  0  1  0  0  0  0  0  0  0  0  0
   47.4560   27.9160   47.0610 C   0  0  0  0  0  0  0  0  0  0  0  0
   48.5680   26.9860   46.6580 C   0  0  0  0  0  0  0  0  0  0  0  0
   49.3800   26.5020   47.8290 C   0  0  0  0  0  0  0  0  0  0  0  0
   49.7370   27.6100   48.7820 C   0  0  0  0  0  0  0  0  0  0  0  0
   49.3830   28.9670   48.1720 C   0  0  2  0  0  0  0  0  0  0  0  0
   47.5110   28.5960   49.0500 H   0  0  0  0  0  0  0  0  0  0  0  0
   47.1480   28.4430   46.1130 H   0  0  0  0  0  0  0  0  0  0  0  0
   46.5990   27.3150   47.4040 H   0  0  0  0  0  0  0  0  0  0  0  0
   48.0850   26.1010   46.2020 H   0  0  0  0  0  0  0  0  0  0  0  0
   49.2240   27.4160   45.8830 H   0  0  0  0  0  0  0  0  0  0  0  0
   50.2330   25.9240   47.4830 H   0  0  0  0  0  0  0  0  0  0  0  0
   48.7220   25.7830   48.3990 H   0  0  0  0  0  0  0  0  0  0  0  0
   49.1840   27.5350   49.7420 H   0  0  0  0  0  0  0  0  0  0  0  0
   50.8310   27.5840   48.9450 H   0  0  0  0  0  0  0  0  0  0  0  0
   49.8230   29.0660   47.1580 H   0  0  0  0  0  0  0  0  0  0  0  0
   46.3080   32.4230   46.5710 C   0  0  0  0  0  0  0  0  0  0  0  0
   46.3420   32.4130   47.9630 C   0  0  0  0  0  0  0  0  0  0  0  0
   46.8230   31.3240   48.5700 C   0  0  0  0  0  0  0  0  0  0  0  0
   47.2780   30.2240   47.8060 C   0  0  0  0  0  0  0  0  0  0  0  0
   46.9990   30.7790   46.0920 S   0  0  0  0  0  0  0  0  0  0  0  0
   45.9920   33.2610   48.5340 H   0  0  0  0  0  0  0  0  0  0  0  0
   46.9240   31.1400   49.6270 H   0  0  0  0  0  0  0  0  0  0  0  0
   44.6100   35.4440   45.2240 C   0  0  0  0  0  0  0  0  0  0  0  0
   45.1900   35.5300   43.9560 C   0  0  0  0  0  0  0  0  0  0  0  0
   46.1310   34.5490   43.6160 C   0  0  0  0  0  0  0  0  0  0  0  0
   46.4280   33.5720   44.5350 N   0  0  0  0  0  0  0  0  0  0  0  0
   45.8310   33.5510   45.7370 C   0  0  0  0  0  0  0  0  0  0  0  0
   44.9160   34.4900   46.0910 N   0  0  0  0  0  0  0  0  0  0  0  0
   43.8720   36.1950   45.5200 H   0  0  0  0  0  0  0  0  0  0  0  0
   44.9460   36.3050   43.2430 H   0  0  0  0  0  0  0  0  0  0  0  0
   46.6350   34.5280   42.6600 H   0  0  0  0  0  0  0  0  0  0  0  0
   49.7940   30.0280   49.0950 C   0  0  0  0  0  0  0  0  0  0  0  0
   49.5900   29.9690   50.3230 O   0  0  0  0  0  0  0  0  0  0  0  0
   51.3170   33.1660   49.5780 H   0  0  0  0  0  0  0  0  0  0  0  0
   50.8020   32.2600   49.9130 C   0  0  0  0  0  0  0  0  0  0  0  0
   50.4730   31.9820   51.0800 O   0  0  0  0  0  0  0  0  0  0  0  0
   50.4380   31.2580   49.0060 N   0  0  0  0  0  0  0  0  0  0  0  0
   50.7010   31.4700   48.0410 H   0  0  0  0  0  0  0  0  0  0  0  0
  1  6  1  0  0  0  0
  1  7  1  1  0  0  0
  2  9  1  0  0  0  0
  2  1  1  0  0  0  0
  3  2  1  0  0  0  0
  3  4  1  0  0  0  0
  4 13  1  0  0  0  0
  4  5  1  0  0  0  0
  5 15  1  0  0  0  0
  5 14  1  0  0  0  0
  6 16  1  6  0  0  0
  6  5  1  0  0  0  0
  6 33  1  0  0  0  0
  8  2  1  0  0  0  0
 10  3  1  0  0  0  0
 11  3  1  0  0  0  0
 12  4  1  0  0  0  0
 17 18  2  0  0  0  0
 18 22  1  0  0  0  0
 18 19  1  0  0  0  0
 19 23  1  0  0  0  0
 20  1  1  0  0  0  0
 20 19  2  0  0  0  0
 21 17  1  0  0  0  0
 21 20  1  0  0  0  0
 24 30  1  0  0  0  0
 24 29  1  0  0  0  0
 25 24  2  0  0  0  0
 26 25  1  0  0  0  0
 26 27  2  0  0  0  0
 27 28  1  0  0  0  0
 28 29  2  0  0  0  0
 28 17  1  0  0  0  0
 31 25  1  0  0  0  0
 32 26  1  0  0  0  0
 33 34  2  0  0  0  0
 35 36  1  0  0  0  0
 36 37  2  0  0  0  0
 38 33  1  0  0  0  0
 38 36  1  0  0  0  0
 39 38  1  0  0  0  0
M  END
>  <minimizedAffinity>
-4.90477037

>  <minimizedRMSD>
1.34729457

$$$$
