
 OpenBabel03252509303D

 23 23  0  0  0  0  0  0  0  0999 V2000
   47.1490   33.1690   43.0100 C   0  0  0  0  0  0  0  0  0  0  0  0
   46.6390   32.1920   42.8160 H   0  0  0  0  0  0  0  0  0  0  0  0
   47.1880   33.6770   42.0410 H   0  0  0  0  0  0  0  0  0  0  0  0
   45.1840   34.2520   45.9810 C   0  0  0  0  0  0  0  0  0  0  0  0
   46.0410   33.5020   45.1710 C   0  0  0  0  0  0  0  0  0  0  0  0
   46.2510   33.9390   43.8830 C   0  0  0  0  0  0  0  0  0  0  0  0
   45.6220   35.0730   43.4500 N   0  0  0  0  0  0  0  0  0  0  0  0
   44.7900   35.7800   44.2710 C   0  0  0  0  0  0  0  0  0  0  0  0
   44.5770   35.3690   45.5210 N   0  0  0  0  0  0  0  0  0  0  0  0
   45.0020   33.9270   47.0020 H   0  0  0  0  0  0  0  0  0  0  0  0
   46.4920   32.6130   45.6160 H   0  0  0  0  0  0  0  0  0  0  0  0
   44.3280   36.6730   43.8460 H   0  0  0  0  0  0  0  0  0  0  0  0
   48.3770   32.9450   43.6060 O   0  0  0  0  0  0  0  0  0  0  0  0
   50.7280   32.5100   42.5560 O   0  0  0  0  0  0  0  0  0  0  0  0
   49.5650   33.4570   42.5230 P   0  0  2  0  0  0  0  0  0  0  0  0
   49.9990   35.0290   42.9880 O   0  0  0  0  0  0  0  0  0  0  0  0
   49.1700   35.4950   43.2690 H   0  0  0  0  0  0  0  0  0  0  0  0
   48.9090   33.4620   40.9790 O   0  0  0  0  0  0  0  0  0  0  0  0
   48.5440   34.5890   40.2710 C   0  0  0  0  0  0  0  0  0  0  0  0
   47.6330   34.3280   39.4150 O   0  0  0  0  0  0  0  0  0  0  0  0
   49.0560   35.9080   40.4040 N   0  0  0  0  0  0  0  0  0  0  0  0
   48.4940   36.2650   41.2330 H   0  0  0  0  0  0  0  0  0  0  0  0
   49.7800   35.9900   39.6310 H   0  0  0  0  0  0  0  0  0  0  0  0
  1 13  1  0  0  0  0
  1  6  1  0  0  0  0
  2  1  1  0  0  0  0
  3  1  1  0  0  0  0
  4 10  1  0  0  0  0
  5 11  1  0  0  0  0
  5  4  2  0  0  0  0
  6  5  1  0  0  0  0
  7  6  2  0  0  0  0
  7  8  1  0  0  0  0
  8  9  2  0  0  0  0
  9  4  1  0  0  0  0
 12  8  1  0  0  0  0
 15 14  2  1  0  0  0
 15 16  1  0  0  0  0
 15 13  1  0  0  0  0
 16 17  1  0  0  0  0
 18 15  1  0  0  0  0
 19 21  1  0  0  0  0
 19 18  1  0  0  0  0
 20 19  2  0  0  0  0
 21 22  1  0  0  0  0
 23 21  1  0  0  0  0
M  END
>  <minimizedAffinity>
-4.32966042

>  <minimizedRMSD>
1.10596561

$$$$
