
 OpenBabel03242519453D

 28 29  0  0  1  0  0  0  0  0999 V2000
   37.0480   27.6730   41.2320 C   0  0  2  0  0  0  0  0  0  0  0  0
   36.9050   28.8650   42.1150 C   0  0  1  0  0  0  0  0  0  0  0  0
   37.4030   28.4040   43.3940 O   0  0  0  0  0  0  0  0  0  0  0  0
   36.5280   27.2730   43.4900 C   0  0  0  0  0  0  0  0  0  0  0  0
   36.9510   26.5160   42.2420 C   0  0  2  0  0  0  0  0  0  0  0  0
   36.2460   27.5560   40.4800 H   0  0  0  0  0  0  0  0  0  0  0  0
   35.8500   29.1670   42.2870 H   0  0  0  0  0  0  0  0  0  0  0  0
   36.6880   26.7330   44.4170 H   0  0  0  0  0  0  0  0  0  0  0  0
   35.5150   27.6350   43.3060 H   0  0  0  0  0  0  0  0  0  0  0  0
   36.1820   25.7990   41.9050 H   0  0  0  0  0  0  0  0  0  0  0  0
   37.5630   32.1470   40.6340 C   0  0  0  0  0  0  0  0  0  0  0  0
   38.9530   32.3160   40.8370 C   0  0  0  0  0  0  0  0  0  0  0  0
   39.6760   31.2920   41.4820 C   0  0  0  0  0  0  0  0  0  0  0  0
   39.0010   30.1720   41.8880 N   0  0  0  0  0  0  0  0  0  0  0  0
   37.6650   30.0410   41.6770 C   0  0  0  0  0  0  0  0  0  0  0  0
   36.9420   31.0050   41.0610 N   0  0  0  0  0  0  0  0  0  0  0  0
   39.4350   33.2260   40.4940 H   0  0  0  0  0  0  0  0  0  0  0  0
   40.7400   31.4080   41.6440 H   0  0  0  0  0  0  0  0  0  0  0  0
   36.8000   33.1250   40.0020 O   0  0  0  0  0  0  0  0  0  0  0  0
   37.2900   33.9080   39.5980 H   0  0  0  0  0  0  0  0  0  0  0  0
   38.3280   27.6620   40.6180 O   0  0  0  0  0  0  0  0  0  0  0  0
   38.2020   27.4770   39.6390 H   0  0  0  0  0  0  0  0  0  0  0  0
   38.2030   25.9820   42.4600 O   0  0  0  0  0  0  0  0  0  0  0  0
   38.4060   24.6140   42.3510 C   0  0  0  0  0  0  0  0  0  0  0  0
   37.7160   23.8490   41.6220 O   0  0  0  0  0  0  0  0  0  0  0  0
   39.4870   24.0830   43.1420 N   0  0  0  0  0  0  0  0  0  0  0  0
   39.7510   23.7090   44.0880 H   0  0  0  0  0  0  0  0  0  0  0  0
   40.3360   24.0550   42.5660 H   0  0  0  0  0  0  0  0  0  0  0  0
  1  6  1  6  0  0  0
  1  2  1  0  0  0  0
  1  5  1  0  0  0  0
  2  7  1  1  0  0  0
  2  3  1  0  0  0  0
  3  4  1  0  0  0  0
  4  8  1  0  0  0  0
  5 10  1  6  0  0  0
  5 23  1  0  0  0  0
  5  4  1  0  0  0  0
  9  4  1  0  0  0  0
 11 12  2  0  0  0  0
 11 16  1  0  0  0  0
 12 13  1  0  0  0  0
 13 18  1  0  0  0  0
 13 14  2  0  0  0  0
 15 14  1  0  0  0  0
 15  2  1  0  0  0  0
 16 15  2  0  0  0  0
 17 12  1  0  0  0  0
 19 11  1  0  0  0  0
 20 19  1  0  0  0  0
 21  1  1  0  0  0  0
 22 21  1  0  0  0  0
 24 23  1  0  0  0  0
 24 26  1  0  0  0  0
 25 24  2  0  0  0  0
 26 27  1  0  0  0  0
 28 26  1  0  0  0  0
M  END
>  <minimizedAffinity>
-4.96133471

$$$$

 OpenBabel03242519453D

 28 29  0  0  1  0  0  0  0  0999 V2000
   41.2200   31.4610   40.3160 C   0  0  2  0  0  0  0  0  0  0  0  0
   40.1930   31.8760   41.3130 C   0  0  1  0  0  0  0  0  0  0  0  0
   39.6240   33.0770   40.7380 O   0  0  0  0  0  0  0  0  0  0  0  0
   40.8700   33.7700   40.5910 C   0  0  0  0  0  0  0  0  0  0  0  0
   41.5910   32.8050   39.6650 C   0  0  2  0  0  0  0  0  0  0  0  0
   42.1320   31.0120   40.7510 H   0  0  0  0  0  0  0  0  0  0  0  0
   40.6200   32.1770   42.2930 H   0  0  0  0  0  0  0  0  0  0  0  0
   40.7190   34.7610   40.1760 H   0  0  0  0  0  0  0  0  0  0  0  0
   41.3810   33.7180   41.5540 H   0  0  0  0  0  0  0  0  0  0  0  0
   42.6870   32.9360   39.6940 H   0  0  0  0  0  0  0  0  0  0  0  0
   36.8310   30.4320   41.4230 C   0  0  0  0  0  0  0  0  0  0  0  0
   37.0620   29.1200   41.9000 C   0  0  0  0  0  0  0  0  0  0  0  0
   38.3830   28.7270   42.1940 C   0  0  0  0  0  0  0  0  0  0  0  0
   39.3930   29.6320   42.0070 N   0  0  0  0  0  0  0  0  0  0  0  0
   39.1360   30.8850   41.5460 C   0  0  0  0  0  0  0  0  0  0  0  0
   37.8800   31.2950   41.2540 N   0  0  0  0  0  0  0  0  0  0  0  0
   36.2230   28.4440   42.0290 H   0  0  0  0  0  0  0  0  0  0  0  0
   38.5750   27.7250   42.5610 H   0  0  0  0  0  0  0  0  0  0  0  0
   35.5470   30.8740   41.1150 O   0  0  0  0  0  0  0  0  0  0  0  0
   34.7780   30.2660   41.3490 H   0  0  0  0  0  0  0  0  0  0  0  0
   40.6450   30.6040   39.3410 O   0  0  0  0  0  0  0  0  0  0  0  0
   41.2530   29.8120   39.2260 H   0  0  0  0  0  0  0  0  0  0  0  0
   41.0190   32.8910   38.4140 O   0  0  0  0  0  0  0  0  0  0  0  0
   41.8070   32.7840   37.2770 C   0  0  0  0  0  0  0  0  0  0  0  0
   42.0450   31.7000   36.6770 O   0  0  0  0  0  0  0  0  0  0  0  0
   42.3660   34.0210   36.7930 N   0  0  0  0  0  0  0  0  0  0  0  0
   43.1720   34.6890   36.8830 H   0  0  0  0  0  0  0  0  0  0  0  0
   41.7370   34.4110   36.0810 H   0  0  0  0  0  0  0  0  0  0  0  0
  1  6  1  1  0  0  0
  1  2  1  0  0  0  0
  2 15  1  0  0  0  0
  2  7  1  1  0  0  0
  3  2  1  0  0  0  0
  4  3  1  0  0  0  0
  4  9  1  0  0  0  0
  5 10  1  6  0  0  0
  5  1  1  0  0  0  0
  5  4  1  0  0  0  0
  8  4  1  0  0  0  0
 11 12  1  0  0  0  0
 12 17  1  0  0  0  0
 12 13  2  0  0  0  0
 13 18  1  0  0  0  0
 14 13  1  0  0  0  0
 15 14  2  0  0  0  0
 16 11  2  0  0  0  0
 16 15  1  0  0  0  0
 19 20  1  0  0  0  0
 19 11  1  0  0  0  0
 21  1  1  0  0  0  0
 22 21  1  0  0  0  0
 23  5  1  0  0  0  0
 24 23  1  0  0  0  0
 25 24  2  0  0  0  0
 26 27  1  0  0  0  0
 26 24  1  0  0  0  0
 28 26  1  0  0  0  0
M  END
>  <minimizedAffinity>
-4.87538862

$$$$

 OpenBabel03242519453D

 28 29  0  0  1  0  0  0  0  0999 V2000
   38.0080   27.6810   43.2460 C   0  0  2  0  0  0  0  0  0  0  0  0
   38.7660   28.9300   42.9510 C   0  0  1  0  0  0  0  0  0  0  0  0
   40.0230   28.4470   42.4150 O   0  0  0  0  0  0  0  0  0  0  0  0
   40.3410   27.6050   43.5300 C   0  0  0  0  0  0  0  0  0  0  0  0
   39.1420   26.6710   43.4960 C   0  0  2  0  0  0  0  0  0  0  0  0
   37.3700   27.7290   44.1470 H   0  0  0  0  0  0  0  0  0  0  0  0
   39.0240   29.5170   43.8580 H   0  0  0  0  0  0  0  0  0  0  0  0
   41.2970   27.1130   43.3880 H   0  0  0  0  0  0  0  0  0  0  0  0
   40.2360   28.2130   44.4310 H   0  0  0  0  0  0  0  0  0  0  0  0
   38.9770   26.1650   44.4620 H   0  0  0  0  0  0  0  0  0  0  0  0
   36.1390   30.3110   40.8100 C   0  0  0  0  0  0  0  0  0  0  0  0
   36.7700   31.4260   40.2100 C   0  0  0  0  0  0  0  0  0  0  0  0
   38.1120   31.7050   40.5360 C   0  0  0  0  0  0  0  0  0  0  0  0
   38.7540   30.8840   41.4230 N   0  0  0  0  0  0  0  0  0  0  0  0
   38.1190   29.8200   41.9820 C   0  0  0  0  0  0  0  0  0  0  0  0
   36.8310   29.5240   41.6900 N   0  0  0  0  0  0  0  0  0  0  0  0
   36.2120   32.0430   39.5130 H   0  0  0  0  0  0  0  0  0  0  0  0
   38.6080   32.5560   40.0840 H   0  0  0  0  0  0  0  0  0  0  0  0
   34.8150   29.9880   40.5250 O   0  0  0  0  0  0  0  0  0  0  0  0
   34.3570   30.5100   39.7940 H   0  0  0  0  0  0  0  0  0  0  0  0
   37.2570   27.2790   42.1100 O   0  0  0  0  0  0  0  0  0  0  0  0
   36.3240   27.0620   42.4150 H   0  0  0  0  0  0  0  0  0  0  0  0
   39.2720   25.8370   42.4060 O   0  0  0  0  0  0  0  0  0  0  0  0
   38.8150   24.5280   42.4710 C   0  0  0  0  0  0  0  0  0  0  0  0
   37.7350   24.1270   41.9580 O   0  0  0  0  0  0  0  0  0  0  0  0
   39.6670   23.6100   43.1830 N   0  0  0  0  0  0  0  0  0  0  0  0
   39.9040   23.2210   44.1300 H   0  0  0  0  0  0  0  0  0  0  0  0
   40.2910   23.1490   42.5100 H   0  0  0  0  0  0  0  0  0  0  0  0
  1  5  1  0  0  0  0
  1  6  1  1  0  0  0
  2  1  1  0  0  0  0
  2  7  1  1  0  0  0
  3  2  1  0  0  0  0
  3  4  1  0  0  0  0
  4  9  1  0  0  0  0
  5  4  1  0  0  0  0
  5 10  1  1  0  0  0
  8  4  1  0  0  0  0
 11 16  1  0  0  0  0
 12 13  1  0  0  0  0
 12 11  2  0  0  0  0
 13 14  2  0  0  0  0
 14 15  1  0  0  0  0
 15  2  1  0  0  0  0
 16 15  2  0  0  0  0
 17 12  1  0  0  0  0
 18 13  1  0  0  0  0
 19 11  1  0  0  0  0
 20 19  1  0  0  0  0
 21 22  1  0  0  0  0
 21  1  1  0  0  0  0
 23 24  1  0  0  0  0
 23  5  1  0  0  0  0
 24 26  1  0  0  0  0
 25 24  2  0  0  0  0
 26 27  1  0  0  0  0
 28 26  1  0  0  0  0
M  END
>  <minimizedAffinity>
-4.85833693

$$$$

 OpenBabel03242519453D

 28 29  0  0  1  0  0  0  0  0999 V2000
   38.8090   30.7940   39.2630 C   0  0  2  0  0  0  0  0  0  0  0  0
   38.7950   32.2740   39.4370 C   0  0  1  0  0  0  0  0  0  0  0  0
   38.1870   32.4580   40.7400 O   0  0  0  0  0  0  0  0  0  0  0  0
   36.9990   31.7110   40.4510 C   0  0  0  0  0  0  0  0  0  0  0  0
   37.6180   30.3590   40.1340 C   0  0  2  0  0  0  0  0  0  0  0  0
   38.6370   30.4490   38.2270 H   0  0  0  0  0  0  0  0  0  0  0  0
   38.1360   32.8000   38.7140 H   0  0  0  0  0  0  0  0  0  0  0  0
   36.3240   31.7070   41.3000 H   0  0  0  0  0  0  0  0  0  0  0  0
   36.5980   32.0970   39.5120 H   0  0  0  0  0  0  0  0  0  0  0  0
   36.9430   29.7180   39.5400 H   0  0  0  0  0  0  0  0  0  0  0  0
   41.8430   33.7550   38.0550 C   0  0  0  0  0  0  0  0  0  0  0  0
   42.5770   34.1110   39.2100 C   0  0  0  0  0  0  0  0  0  0  0  0
   42.0260   33.8360   40.4780 C   0  0  0  0  0  0  0  0  0  0  0  0
   40.7990   33.2330   40.5410 N   0  0  0  0  0  0  0  0  0  0  0  0
   40.1200   32.9030   39.4110 C   0  0  0  0  0  0  0  0  0  0  0  0
   40.6200   33.1530   38.1780 N   0  0  0  0  0  0  0  0  0  0  0  0
   43.5460   34.5880   39.1000 H   0  0  0  0  0  0  0  0  0  0  0  0
   42.5770   34.1030   41.3720 H   0  0  0  0  0  0  0  0  0  0  0  0
   42.3380   34.0030   36.7770 O   0  0  0  0  0  0  0  0  0  0  0  0
   43.2830   34.3440   36.7040 H   0  0  0  0  0  0  0  0  0  0  0  0
   40.0080   30.2460   39.7910 O   0  0  0  0  0  0  0  0  0  0  0  0
   40.3840   29.6080   39.1120 H   0  0  0  0  0  0  0  0  0  0  0  0
   38.0770   29.8040   41.3100 O   0  0  0  0  0  0  0  0  0  0  0  0
   37.2110   29.1010   42.1340 C   0  0  0  0  0  0  0  0  0  0  0  0
   36.2990   28.3340   41.7170 O   0  0  0  0  0  0  0  0  0  0  0  0
   37.4070   29.2950   43.5480 N   0  0  0  0  0  0  0  0  0  0  0  0
   37.1630   29.9020   44.3710 H   0  0  0  0  0  0  0  0  0  0  0  0
   38.0270   28.5560   43.9000 H   0  0  0  0  0  0  0  0  0  0  0  0
  1  6  1  6  0  0  0
  1  2  1  0  0  0  0
  1 21  1  0  0  0  0
  1  5  1  0  0  0  0
  2  7  1  6  0  0  0
  2  3  1  0  0  0  0
  4  3  1  0  0  0  0
  4  8  1  0  0  0  0
  5 10  1  6  0  0  0
  5  4  1  0  0  0  0
  5 23  1  0  0  0  0
  9  4  1  0  0  0  0
 11 16  2  0  0  0  0
 11 12  1  0  0  0  0
 12 13  2  0  0  0  0
 13 14  1  0  0  0  0
 13 18  1  0  0  0  0
 15  2  1  0  0  0  0
 15 14  2  0  0  0  0
 16 15  1  0  0  0  0
 17 12  1  0  0  0  0
 19 11  1  0  0  0  0
 20 19  1  0  0  0  0
 22 21  1  0  0  0  0
 23 24  1  0  0  0  0
 24 26  1  0  0  0  0
 25 24  2  0  0  0  0
 26 28  1  0  0  0  0
 26 27  1  0  0  0  0
M  END
>  <minimizedAffinity>
-4.82940722

$$$$

 OpenBabel03242519453D

 28 29  0  0  1  0  0  0  0  0999 V2000
   39.7950   30.7280   40.2730 C   0  0  2  0  0  0  0  0  0  0  0  0
   39.2090   30.8690   41.6360 C   0  0  1  0  0  0  0  0  0  0  0  0
   37.9180   31.4780   41.3910 O   0  0  0  0  0  0  0  0  0  0  0  0
   38.4260   32.6000   40.6580 C   0  0  0  0  0  0  0  0  0  0  0  0
   39.1020   31.8700   39.5090 C   0  0  2  0  0  0  0  0  0  0  0  0
   40.8890   30.8790   40.2220 H   0  0  0  0  0  0  0  0  0  0  0  0
   39.7650   31.5770   42.2870 H   0  0  0  0  0  0  0  0  0  0  0  0
   37.6230   33.2640   40.3550 H   0  0  0  0  0  0  0  0  0  0  0  0
   39.2230   33.0420   41.2580 H   0  0  0  0  0  0  0  0  0  0  0  0
   39.8640   32.4910   39.0080 H   0  0  0  0  0  0  0  0  0  0  0  0
   37.5000   28.1230   43.3480 C   0  0  0  0  0  0  0  0  0  0  0  0
   38.5580   27.2450   43.6800 C   0  0  0  0  0  0  0  0  0  0  0  0
   39.8740   27.5990   43.3190 C   0  0  0  0  0  0  0  0  0  0  0  0
   40.0750   28.7830   42.6610 N   0  0  0  0  0  0  0  0  0  0  0  0
   39.0360   29.6040   42.3570 C   0  0  0  0  0  0  0  0  0  0  0  0
   37.7610   29.2930   42.6890 N   0  0  0  0  0  0  0  0  0  0  0  0
   38.3390   26.3200   44.2020 H   0  0  0  0  0  0  0  0  0  0  0  0
   40.6950   26.9370   43.5670 H   0  0  0  0  0  0  0  0  0  0  0  0
   36.1800   27.8240   43.6790 O   0  0  0  0  0  0  0  0  0  0  0  0
   36.0190   27.0150   44.2580 H   0  0  0  0  0  0  0  0  0  0  0  0
   39.4260   29.4820   39.7020 O   0  0  0  0  0  0  0  0  0  0  0  0
   40.2510   29.0580   39.3180 H   0  0  0  0  0  0  0  0  0  0  0  0
   38.1250   31.3540   38.6850 O   0  0  0  0  0  0  0  0  0  0  0  0
   38.2010   31.5380   37.3120 C   0  0  0  0  0  0  0  0  0  0  0  0
   37.3410   31.1170   36.4900 O   0  0  0  0  0  0  0  0  0  0  0  0
   39.3570   32.2610   36.8480 N   0  0  0  0  0  0  0  0  0  0  0  0
   40.3630   32.1720   36.5550 H   0  0  0  0  0  0  0  0  0  0  0  0
   39.1140   33.2560   36.7690 H   0  0  0  0  0  0  0  0  0  0  0  0
  1  6  1  1  0  0  0
  1  2  1  0  0  0  0
  2  7  1  1  0  0  0
  2 15  1  0  0  0  0
  3  2  1  0  0  0  0
  4  9  1  0  0  0  0
  4  3  1  0  0  0  0
  5 10  1  6  0  0  0
  5  1  1  0  0  0  0
  5  4  1  0  0  0  0
  8  4  1  0  0  0  0
 11 19  1  0  0  0  0
 11 12  1  0  0  0  0
 12 17  1  0  0  0  0
 13 18  1  0  0  0  0
 13 12  2  0  0  0  0
 14 13  1  0  0  0  0
 15 14  2  0  0  0  0
 15 16  1  0  0  0  0
 16 11  2  0  0  0  0
 19 20  1  0  0  0  0
 21  1  1  0  0  0  0
 22 21  1  0  0  0  0
 23  5  1  0  0  0  0
 24 23  1  0  0  0  0
 25 24  2  0  0  0  0
 26 24  1  0  0  0  0
 27 26  1  0  0  0  0
 28 26  1  0  0  0  0
M  END
>  <minimizedAffinity>
-4.77621937

$$$$

 OpenBabel03242519453D

 28 29  0  0  1  0  0  0  0  0999 V2000
   36.9920   26.8120   41.0160 C   0  0  2  0  0  0  0  0  0  0  0  0
   36.2850   28.0840   41.3340 C   0  0  1  0  0  0  0  0  0  0  0  0
   36.8530   28.4820   42.6060 O   0  0  0  0  0  0  0  0  0  0  0  0
   36.5590   27.2540   43.2840 C   0  0  0  0  0  0  0  0  0  0  0  0
   37.3500   26.2880   42.4170 C   0  0  2  0  0  0  0  0  0  0  0  0
   36.3730   26.0550   40.5010 H   0  0  0  0  0  0  0  0  0  0  0  0
   35.1960   27.9550   41.5100 H   0  0  0  0  0  0  0  0  0  0  0  0
   36.8810   27.2930   44.3190 H   0  0  0  0  0  0  0  0  0  0  0  0
   35.5040   27.0360   43.1100 H   0  0  0  0  0  0  0  0  0  0  0  0
   36.9980   25.2470   42.5210 H   0  0  0  0  0  0  0  0  0  0  0  0
   36.8410   31.4510   40.0100 C   0  0  0  0  0  0  0  0  0  0  0  0
   36.8840   31.2410   38.6110 C   0  0  0  0  0  0  0  0  0  0  0  0
   36.7140   29.9330   38.1140 C   0  0  0  0  0  0  0  0  0  0  0  0
   36.5130   28.9150   39.0070 N   0  0  0  0  0  0  0  0  0  0  0  0
   36.4770   29.1510   40.3460 C   0  0  0  0  0  0  0  0  0  0  0  0
   36.6370   30.3950   40.8550 N   0  0  0  0  0  0  0  0  0  0  0  0
   37.0460   32.0860   37.9500 H   0  0  0  0  0  0  0  0  0  0  0  0
   36.7440   29.7570   37.0460 H   0  0  0  0  0  0  0  0  0  0  0  0
   37.0030   32.7210   40.5560 O   0  0  0  0  0  0  0  0  0  0  0  0
   37.0420   33.5000   39.9180 H   0  0  0  0  0  0  0  0  0  0  0  0
   38.1830   27.0760   40.2890 O   0  0  0  0  0  0  0  0  0  0  0  0
   38.2140   26.4510   39.5040 H   0  0  0  0  0  0  0  0  0  0  0  0
   38.6930   26.4840   42.6600 O   0  0  0  0  0  0  0  0  0  0  0  0
   39.4900   25.4240   43.0670 C   0  0  0  0  0  0  0  0  0  0  0  0
   40.5960   25.5550   43.6630 O   0  0  0  0  0  0  0  0  0  0  0  0
   38.9780   24.1120   42.7660 N   0  0  0  0  0  0  0  0  0  0  0  0
   38.9300   23.3590   42.0340 H   0  0  0  0  0  0  0  0  0  0  0  0
   38.4500   23.7690   43.5770 H   0  0  0  0  0  0  0  0  0  0  0  0
  1  6  1  6  0  0  0
  1  2  1  0  0  0  0
  1  5  1  0  0  0  0
  2  7  1  1  0  0  0
  2  3  1  0  0  0  0
  3  4  1  0  0  0  0
  4  8  1  0  0  0  0
  5 10  1  1  0  0  0
  5 23  1  0  0  0  0
  5  4  1  0  0  0  0
  9  4  1  0  0  0  0
 11 19  1  0  0  0  0
 11 16  1  0  0  0  0
 12 11  2  0  0  0  0
 13 12  1  0  0  0  0
 13 14  2  0  0  0  0
 14 15  1  0  0  0  0
 15 16  2  0  0  0  0
 15  2  1  0  0  0  0
 17 12  1  0  0  0  0
 18 13  1  0  0  0  0
 20 19  1  0  0  0  0
 21  1  1  0  0  0  0
 22 21  1  0  0  0  0
 23 24  1  0  0  0  0
 24 25  2  0  0  0  0
 26 24  1  0  0  0  0
 26 28  1  0  0  0  0
 27 26  1  0  0  0  0
M  END
>  <minimizedAffinity>
-4.73431158

$$$$

 OpenBabel03242519453D

 28 29  0  0  1  0  0  0  0  0999 V2000
   37.2280   27.7070   41.2850 C   0  0  2  0  0  0  0  0  0  0  0  0
   37.1060   28.8890   42.1860 C   0  0  1  0  0  0  0  0  0  0  0  0
   37.5240   28.3780   43.4750 O   0  0  0  0  0  0  0  0  0  0  0  0
   36.5890   27.2920   43.5090 C   0  0  0  0  0  0  0  0  0  0  0  0
   37.0280   26.5380   42.2650 C   0  0  2  0  0  0  0  0  0  0  0  0
   36.4560   27.6460   40.4970 H   0  0  0  0  0  0  0  0  0  0  0  0
   36.0620   29.2410   42.3180 H   0  0  0  0  0  0  0  0  0  0  0  0
   36.6800   26.7280   44.4310 H   0  0  0  0  0  0  0  0  0  0  0  0
   35.6050   27.7090   43.2890 H   0  0  0  0  0  0  0  0  0  0  0  0
   36.2400   25.8680   41.8810 H   0  0  0  0  0  0  0  0  0  0  0  0
   39.8980   31.2540   42.2760 C   0  0  0  0  0  0  0  0  0  0  0  0
   39.6240   32.1140   41.1870 C   0  0  0  0  0  0  0  0  0  0  0  0
   38.4650   31.8860   40.4150 C   0  0  0  0  0  0  0  0  0  0  0  0
   37.6510   30.8390   40.7530 N   0  0  0  0  0  0  0  0  0  0  0  0
   37.9440   30.0320   41.8060 C   0  0  0  0  0  0  0  0  0  0  0  0
   39.0470   30.2230   42.5670 N   0  0  0  0  0  0  0  0  0  0  0  0
   40.3050   32.9280   40.9650 H   0  0  0  0  0  0  0  0  0  0  0  0
   38.2420   32.5370   39.5790 H   0  0  0  0  0  0  0  0  0  0  0  0
   41.0270   31.4310   43.0710 O   0  0  0  0  0  0  0  0  0  0  0  0
   41.5820   32.2580   42.9120 H   0  0  0  0  0  0  0  0  0  0  0  0
   38.5320   27.6420   40.7270 O   0  0  0  0  0  0  0  0  0  0  0  0
   38.4410   27.4820   39.7400 H   0  0  0  0  0  0  0  0  0  0  0  0
   38.2410   25.9360   42.5260 O   0  0  0  0  0  0  0  0  0  0  0  0
   38.3790   24.5620   42.3970 C   0  0  0  0  0  0  0  0  0  0  0  0
   37.6160   23.8330   41.7050 O   0  0  0  0  0  0  0  0  0  0  0  0
   39.4810   23.9800   43.1200 N   0  0  0  0  0  0  0  0  0  0  0  0
   39.7840   23.5860   44.0470 H   0  0  0  0  0  0  0  0  0  0  0  0
   40.2930   23.9210   42.4950 H   0  0  0  0  0  0  0  0  0  0  0  0
  1  6  1  6  0  0  0
  1  2  1  0  0  0  0
  1  5  1  0  0  0  0
  2  7  1  1  0  0  0
  2  3  1  0  0  0  0
  3  4  1  0  0  0  0
  4  8  1  0  0  0  0
  5 10  1  6  0  0  0
  5 23  1  0  0  0  0
  5  4  1  0  0  0  0
  9  4  1  0  0  0  0
 11 16  1  0  0  0  0
 11 19  1  0  0  0  0
 12 11  2  0  0  0  0
 13 14  2  0  0  0  0
 13 12  1  0  0  0  0
 14 15  1  0  0  0  0
 15  2  1  0  0  0  0
 15 16  2  0  0  0  0
 17 12  1  0  0  0  0
 18 13  1  0  0  0  0
 20 19  1  0  0  0  0
 21  1  1  0  0  0  0
 22 21  1  0  0  0  0
 24 23  1  0  0  0  0
 24 26  1  0  0  0  0
 25 24  2  0  0  0  0
 26 27  1  0  0  0  0
 28 26  1  0  0  0  0
M  END
>  <minimizedAffinity>
-4.6910491

$$$$

 OpenBabel03242519453D

 28 29  0  0  1  0  0  0  0  0999 V2000
   36.2940   29.8540   40.5970 C   0  0  2  0  0  0  0  0  0  0  0  0
   37.3300   28.9210   40.0720 C   0  0  1  0  0  0  0  0  0  0  0  0
   38.3940   29.8020   39.6380 O   0  0  0  0  0  0  0  0  0  0  0  0
   37.5770   30.6000   38.7730 C   0  0  0  0  0  0  0  0  0  0  0  0
   36.5760   31.1310   39.7860 C   0  0  2  0  0  0  0  0  0  0  0  0
   35.2510   29.5390   40.4110 H   0  0  0  0  0  0  0  0  0  0  0  0
   37.0080   28.3600   39.1690 H   0  0  0  0  0  0  0  0  0  0  0  0
   38.1640   31.3670   38.2780 H   0  0  0  0  0  0  0  0  0  0  0  0
   37.0290   29.9130   38.1250 H   0  0  0  0  0  0  0  0  0  0  0  0
   35.6420   31.4780   39.3100 H   0  0  0  0  0  0  0  0  0  0  0  0
   37.5110   25.8900   42.1160 C   0  0  0  0  0  0  0  0  0  0  0  0
   38.7060   26.0710   42.8510 C   0  0  0  0  0  0  0  0  0  0  0  0
   39.4560   27.2480   42.6500 C   0  0  0  0  0  0  0  0  0  0  0  0
   38.9960   28.1710   41.7500 N   0  0  0  0  0  0  0  0  0  0  0  0
   37.8440   27.9650   41.0590 C   0  0  0  0  0  0  0  0  0  0  0  0
   37.1010   26.8470   41.2280 N   0  0  0  0  0  0  0  0  0  0  0  0
   39.0230   25.3060   43.5520 H   0  0  0  0  0  0  0  0  0  0  0  0
   40.3730   27.4010   43.2070 H   0  0  0  0  0  0  0  0  0  0  0  0
   36.7310   24.7470   42.2730 O   0  0  0  0  0  0  0  0  0  0  0  0
   36.9890   24.1070   43.0070 H   0  0  0  0  0  0  0  0  0  0  0  0
   36.5110   30.1100   41.9760 O   0  0  0  0  0  0  0  0  0  0  0  0
   35.6330   30.0100   42.4530 H   0  0  0  0  0  0  0  0  0  0  0  0
   37.2130   32.0590   40.5830 O   0  0  0  0  0  0  0  0  0  0  0  0
   37.8110   33.1740   40.0140 C   0  0  0  0  0  0  0  0  0  0  0  0
   39.0330   33.4630   40.1340 O   0  0  0  0  0  0  0  0  0  0  0  0
   36.9350   34.0220   39.2470 N   0  0  0  0  0  0  0  0  0  0  0  0
   36.2600   34.8270   39.3000 H   0  0  0  0  0  0  0  0  0  0  0  0
   36.9810   33.7400   38.2610 H   0  0  0  0  0  0  0  0  0  0  0  0
  1  6  1  6  0  0  0
  1 21  1  0  0  0  0
  2  7  1  6  0  0  0
  2  1  1  0  0  0  0
  2 15  1  0  0  0  0
  3  2  1  0  0  0  0
  4  3  1  0  0  0  0
  4  5  1  0  0  0  0
  5 10  1  6  0  0  0
  5 23  1  0  0  0  0
  5  1  1  0  0  0  0
  8  4  1  0  0  0  0
  9  4  1  0  0  0  0
 11 19  1  0  0  0  0
 11 12  1  0  0  0  0
 12 17  1  0  0  0  0
 13 12  2  0  0  0  0
 13 18  1  0  0  0  0
 14 13  1  0  0  0  0
 15 16  1  0  0  0  0
 15 14  2  0  0  0  0
 16 11  2  0  0  0  0
 19 20  1  0  0  0  0
 21 22  1  0  0  0  0
 24 25  2  0  0  0  0
 24 23  1  0  0  0  0
 26 27  1  0  0  0  0
 26 24  1  0  0  0  0
 28 26  1  0  0  0  0
M  END
>  <minimizedAffinity>
-4.65135336

$$$$

 OpenBabel03242519453D

 28 29  0  0  1  0  0  0  0  0999 V2000
   39.2070   31.3710   41.3640 C   0  0  2  0  0  0  0  0  0  0  0  0
   37.7750   30.9580   41.3600 C   0  0  1  0  0  0  0  0  0  0  0  0
   37.3850   31.0940   39.9710 O   0  0  0  0  0  0  0  0  0  0  0  0
   37.7840   32.4640   39.8430 C   0  0  0  0  0  0  0  0  0  0  0  0
   39.2650   32.3290   40.1610 C   0  0  2  0  0  0  0  0  0  0  0  0
   39.5280   31.9180   42.2690 H   0  0  0  0  0  0  0  0  0  0  0  0
   37.1130   31.6410   41.9330 H   0  0  0  0  0  0  0  0  0  0  0  0
   37.5720   32.8410   38.8490 H   0  0  0  0  0  0  0  0  0  0  0  0
   37.3360   33.0080   40.6760 H   0  0  0  0  0  0  0  0  0  0  0  0
   39.7150   33.2860   40.4750 H   0  0  0  0  0  0  0  0  0  0  0  0
   36.9410   27.3990   41.1750 C   0  0  0  0  0  0  0  0  0  0  0  0
   37.0940   26.9650   42.5130 C   0  0  0  0  0  0  0  0  0  0  0  0
   37.4810   27.9030   43.4920 C   0  0  0  0  0  0  0  0  0  0  0  0
   37.6930   29.1990   43.1080 N   0  0  0  0  0  0  0  0  0  0  0  0
   37.5370   29.5830   41.8130 C   0  0  0  0  0  0  0  0  0  0  0  0
   37.1670   28.7080   40.8490 N   0  0  0  0  0  0  0  0  0  0  0  0
   36.9130   25.9240   42.7600 H   0  0  0  0  0  0  0  0  0  0  0  0
   37.6010   27.5850   44.5210 H   0  0  0  0  0  0  0  0  0  0  0  0
   36.5620   26.5160   40.1670 O   0  0  0  0  0  0  0  0  0  0  0  0
   36.2940   25.5840   40.4420 H   0  0  0  0  0  0  0  0  0  0  0  0
   40.0450   30.2520   41.1210 O   0  0  0  0  0  0  0  0  0  0  0  0
   40.7860   30.2640   41.7990 H   0  0  0  0  0  0  0  0  0  0  0  0
   39.8830   31.7050   39.0980 O   0  0  0  0  0  0  0  0  0  0  0  0
   40.3840   32.4560   38.0440 C   0  0  0  0  0  0  0  0  0  0  0  0
   41.3480   33.2640   38.1440 O   0  0  0  0  0  0  0  0  0  0  0  0
   39.7260   32.2630   36.7780 N   0  0  0  0  0  0  0  0  0  0  0  0
   38.9220   32.5710   36.1750 H   0  0  0  0  0  0  0  0  0  0  0  0
   40.2340   31.5440   36.2470 H   0  0  0  0  0  0  0  0  0  0  0  0
  1  6  1  1  0  0  0
  2  1  1  0  0  0  0
  2 15  1  0  0  0  0
  2  7  1  1  0  0  0
  3  2  1  0  0  0  0
  4  3  1  0  0  0  0
  4  5  1  0  0  0  0
  4  9  1  0  0  0  0
  5 10  1  1  0  0  0
  5  1  1  0  0  0  0
  8  4  1  0  0  0  0
 11 12  1  0  0  0  0
 12 17  1  0  0  0  0
 12 13  2  0  0  0  0
 13 18  1  0  0  0  0
 14 13  1  0  0  0  0
 15 14  2  0  0  0  0
 16 11  2  0  0  0  0
 16 15  1  0  0  0  0
 19 20  1  0  0  0  0
 19 11  1  0  0  0  0
 21  1  1  0  0  0  0
 21 22  1  0  0  0  0
 23  5  1  0  0  0  0
 24 25  2  0  0  0  0
 24 23  1  0  0  0  0
 26 24  1  0  0  0  0
 27 26  1  0  0  0  0
 28 26  1  0  0  0  0
M  END
>  <minimizedAffinity>
-4.50945711

$$$$
