
 OpenBabel03252506143D

 32 33  0  0  0  0  0  0  0  0999 V2000
   37.7710   27.7540   39.5580 F   0  0  0  0  0  0  0  0  0  0  0  0
   37.5810   27.7660   40.8750 C   0  0  0  0  0  0  0  0  0  0  0  0
   37.2190   26.5980   41.5090 C   0  0  0  0  0  0  0  0  0  0  0  0
   37.0010   26.5220   42.8900 C   0  0  0  0  0  0  0  0  0  0  0  0
   37.1540   27.6720   43.6650 C   0  0  0  0  0  0  0  0  0  0  0  0
   37.5170   28.8150   42.9940 C   0  0  0  0  0  0  0  0  0  0  0  0
   37.7330   28.9100   41.6560 C   0  0  0  0  0  0  0  0  0  0  0  0
   36.7140   25.5560   43.3210 H   0  0  0  0  0  0  0  0  0  0  0  0
   36.9740   27.5530   44.7170 H   0  0  0  0  0  0  0  0  0  0  0  0
   37.6080   29.6230   43.7110 H   0  0  0  0  0  0  0  0  0  0  0  0
   37.5710   23.1080   40.4430 C   0  0  0  0  0  0  0  0  0  0  0  0
   36.7320   23.0670   39.3060 C   0  0  0  0  0  0  0  0  0  0  0  0
   36.0450   24.2500   38.9100 C   0  0  0  0  0  0  0  0  0  0  0  0
   36.2510   25.3630   39.6740 N   0  0  0  0  0  0  0  0  0  0  0  0
   37.0510   25.3640   40.7410 C   0  0  0  0  0  0  0  0  0  0  0  0
   37.7010   24.2500   41.1170 N   0  0  0  0  0  0  0  0  0  0  0  0
   36.5660   22.1900   38.6980 H   0  0  0  0  0  0  0  0  0  0  0  0
   35.3980   24.2430   38.0440 H   0  0  0  0  0  0  0  0  0  0  0  0
   38.2350   21.9240   40.8100 N   0  0  0  0  0  0  0  0  0  0  0  0
   38.0880   21.0330   40.3270 H   0  0  0  0  0  0  0  0  0  0  0  0
   38.9070   21.9420   41.6040 H   0  0  0  0  0  0  0  0  0  0  0  0
   38.0910   30.1030   41.0840 O   0  0  0  0  0  0  0  0  0  0  0  0
   37.6080   32.6480   40.5290 O   0  0  0  0  0  0  0  0  0  0  0  0
   37.0450   31.2500   40.4460 P   0  0  2  0  0  0  0  0  0  0  0  0
   35.5660   31.1590   41.3120 O   0  0  0  0  0  0  0  0  0  0  0  0
   34.9440   31.8580   40.9990 H   0  0  0  0  0  0  0  0  0  0  0  0
   36.6140   30.9530   38.8360 O   0  0  0  0  0  0  0  0  0  0  0  0
   37.4750   30.9370   37.7660 C   0  0  0  0  0  0  0  0  0  0  0  0
   37.6420   29.8820   37.1090 O   0  0  0  0  0  0  0  0  0  0  0  0
   38.1230   32.1660   37.4880 N   0  0  0  0  0  0  0  0  0  0  0  0
   38.9250   32.8370   37.5520 H   0  0  0  0  0  0  0  0  0  0  0  0
   37.4290   32.6910   36.9020 H   0  0  0  0  0  0  0  0  0  0  0  0
  1  2  1  0  0  0  0
  2  3  2  0  0  0  0
  2  7  1  0  0  0  0
  3  4  1  0  0  0  0
  4  8  1  0  0  0  0
  4  5  2  0  0  0  0
  5  9  1  0  0  0  0
  6  5  1  0  0  0  0
  6 10  1  0  0  0  0
  7  6  2  0  0  0  0
 11 19  1  0  0  0  0
 11 16  1  0  0  0  0
 12 11  2  0  0  0  0
 13 12  1  0  0  0  0
 13 14  2  0  0  0  0
 14 15  1  0  0  0  0
 15 16  2  0  0  0  0
 15  3  1  0  0  0  0
 17 12  1  0  0  0  0
 18 13  1  0  0  0  0
 19 21  1  0  0  0  0
 20 19  1  0  0  0  0
 22  7  1  0  0  0  0
 24 23  2  1  0  0  0
 24 22  1  0  0  0  0
 24 25  1  0  0  0  0
 26 25  1  0  0  0  0
 27 24  1  0  0  0  0
 28 27  1  0  0  0  0
 29 28  2  0  0  0  0
 30 31  1  0  0  0  0
 30 28  1  0  0  0  0
 32 30  1  0  0  0  0
M  END
>  <minimizedAffinity>
-5.88002539

$$$$

 OpenBabel03252506143D

 32 33  0  0  0  0  0  0  0  0999 V2000
   38.6240   28.4490   39.7570 F   0  0  0  0  0  0  0  0  0  0  0  0
   38.1990   28.2610   41.0030 C   0  0  0  0  0  0  0  0  0  0  0  0
   38.1160   29.3420   41.8510 C   0  0  0  0  0  0  0  0  0  0  0  0
   37.6780   29.2340   43.1770 C   0  0  0  0  0  0  0  0  0  0  0  0
   37.3060   27.9820   43.6680 C   0  0  0  0  0  0  0  0  0  0  0  0
   37.4020   26.9300   42.7890 C   0  0  0  0  0  0  0  0  0  0  0  0
   37.8250   27.0140   41.5010 C   0  0  0  0  0  0  0  0  0  0  0  0
   37.6410   30.1410   43.7910 H   0  0  0  0  0  0  0  0  0  0  0  0
   36.9790   27.9600   44.6910 H   0  0  0  0  0  0  0  0  0  0  0  0
   37.0770   26.0270   43.2940 H   0  0  0  0  0  0  0  0  0  0  0  0
   37.8610   32.7010   40.4030 C   0  0  0  0  0  0  0  0  0  0  0  0
   39.1920   33.1640   40.5120 C   0  0  0  0  0  0  0  0  0  0  0  0
   40.1770   32.3120   41.0880 C   0  0  0  0  0  0  0  0  0  0  0  0
   39.7550   31.0800   41.5020 N   0  0  0  0  0  0  0  0  0  0  0  0
   38.4890   30.6770   41.3820 C   0  0  0  0  0  0  0  0  0  0  0  0
   37.5570   31.4790   40.8390 N   0  0  0  0  0  0  0  0  0  0  0  0
   39.5300   34.1370   40.1860 H   0  0  0  0  0  0  0  0  0  0  0  0
   41.2010   32.6450   41.1810 H   0  0  0  0  0  0  0  0  0  0  0  0
   36.9110   33.5650   39.8310 N   0  0  0  0  0  0  0  0  0  0  0  0
   37.1320   34.5250   39.5510 H   0  0  0  0  0  0  0  0  0  0  0  0
   35.9390   33.2260   39.6810 H   0  0  0  0  0  0  0  0  0  0  0  0
   37.8850   25.8990   40.7060 O   0  0  0  0  0  0  0  0  0  0  0  0
   39.2050   23.9210   39.5380 O   0  0  0  0  0  0  0  0  0  0  0  0
   38.9850   24.6390   40.8470 P   0  0  2  0  0  0  0  0  0  0  0  0
   38.3890   23.5430   42.0260 O   0  0  0  0  0  0  0  0  0  0  0  0
   38.9850   22.7600   42.0960 H   0  0  0  0  0  0  0  0  0  0  0  0
   40.4950   25.1220   41.4400 O   0  0  0  0  0  0  0  0  0  0  0  0
   40.9080   25.0350   42.7470 C   0  0  0  0  0  0  0  0  0  0  0  0
   40.0900   25.2140   43.6800 O   0  0  0  0  0  0  0  0  0  0  0  0
   42.2820   24.7380   42.9320 N   0  0  0  0  0  0  0  0  0  0  0  0
   43.2820   25.0000   43.0990 H   0  0  0  0  0  0  0  0  0  0  0  0
   42.3250   23.6920   42.8650 H   0  0  0  0  0  0  0  0  0  0  0  0
  1  2  1  0  0  0  0
  2  7  2  0  0  0  0
  2  3  1  0  0  0  0
  3  4  2  0  0  0  0
  4  5  1  0  0  0  0
  4  8  1  0  0  0  0
  5  9  1  0  0  0  0
  6 10  1  0  0  0  0
  6  5  2  0  0  0  0
  7  6  1  0  0  0  0
 11 12  2  0  0  0  0
 11 16  1  0  0  0  0
 12 13  1  0  0  0  0
 13 18  1  0  0  0  0
 13 14  2  0  0  0  0
 15 14  1  0  0  0  0
 15  3  1  0  0  0  0
 16 15  2  0  0  0  0
 17 12  1  0  0  0  0
 19 11  1  0  0  0  0
 20 19  1  0  0  0  0
 21 19  1  0  0  0  0
 22 24  1  0  0  0  0
 22  7  1  0  0  0  0
 24 23  2  6  0  0  0
 24 27  1  0  0  0  0
 24 25  1  0  0  0  0
 25 26  1  0  0  0  0
 27 28  1  0  0  0  0
 28 30  1  0  0  0  0
 28 29  2  0  0  0  0
 30 31  1  0  0  0  0
 32 30  1  0  0  0  0
M  END
>  <minimizedAffinity>
-5.79183054

$$$$

 OpenBabel03252506143D

 32 33  0  0  0  0  0  0  0  0999 V2000
   39.4350   28.6330   39.8500 F   0  0  0  0  0  0  0  0  0  0  0  0
   38.1380   28.7950   40.0950 C   0  0  0  0  0  0  0  0  0  0  0  0
   37.5650   28.1070   41.1410 C   0  0  0  0  0  0  0  0  0  0  0  0
   36.2080   28.2200   41.4690 C   0  0  0  0  0  0  0  0  0  0  0  0
   35.3940   29.0630   40.7120 C   0  0  0  0  0  0  0  0  0  0  0  0
   36.0060   29.7320   39.6780 C   0  0  0  0  0  0  0  0  0  0  0  0
   37.3180   29.6360   39.3430 C   0  0  0  0  0  0  0  0  0  0  0  0
   35.8250   27.6380   42.3160 H   0  0  0  0  0  0  0  0  0  0  0  0
   34.3640   29.1090   41.0100 H   0  0  0  0  0  0  0  0  0  0  0  0
   35.2670   30.3520   39.1830 H   0  0  0  0  0  0  0  0  0  0  0  0
   38.9940   25.0420   42.5570 C   0  0  0  0  0  0  0  0  0  0  0  0
   39.8920   25.5590   43.5180 C   0  0  0  0  0  0  0  0  0  0  0  0
   40.0020   26.9710   43.6730 C   0  0  0  0  0  0  0  0  0  0  0  0
   39.2130   27.7390   42.8660 N   0  0  0  0  0  0  0  0  0  0  0  0
   38.3760   27.2150   41.9700 C   0  0  0  0  0  0  0  0  0  0  0  0
   38.2700   25.8840   41.8200 N   0  0  0  0  0  0  0  0  0  0  0  0
   40.5180   24.9560   44.1580 H   0  0  0  0  0  0  0  0  0  0  0  0
   40.6830   27.3890   44.4010 H   0  0  0  0  0  0  0  0  0  0  0  0
   38.9080   23.6450   42.4250 N   0  0  0  0  0  0  0  0  0  0  0  0
   39.5080   23.0010   42.9490 H   0  0  0  0  0  0  0  0  0  0  0  0
   38.2100   23.2370   41.7710 H   0  0  0  0  0  0  0  0  0  0  0  0
   37.8300   30.3470   38.2890 O   0  0  0  0  0  0  0  0  0  0  0  0
   37.1700   32.9000   38.5500 O   0  0  0  0  0  0  0  0  0  0  0  0
   38.3210   31.9510   38.3210 P   0  0  2  0  0  0  0  0  0  0  0  0
   39.0840   32.3020   36.8230 O   0  0  0  0  0  0  0  0  0  0  0  0
   39.3380   33.2550   36.7850 H   0  0  0  0  0  0  0  0  0  0  0  0
   39.5050   32.2740   39.4860 O   0  0  0  0  0  0  0  0  0  0  0  0
   39.2770   32.4880   40.8230 C   0  0  0  0  0  0  0  0  0  0  0  0
   39.5180   31.5830   41.6570 O   0  0  0  0  0  0  0  0  0  0  0  0
   38.7680   33.7690   41.1550 N   0  0  0  0  0  0  0  0  0  0  0  0
   37.9960   34.4420   41.3710 H   0  0  0  0  0  0  0  0  0  0  0  0
   39.6240   34.3720   41.2210 H   0  0  0  0  0  0  0  0  0  0  0  0
  1  2  1  0  0  0  0
  2  3  1  0  0  0  0
  3  4  2  0  0  0  0
  3 15  1  0  0  0  0
  4  8  1  0  0  0  0
  5  9  1  0  0  0  0
  5  4  1  0  0  0  0
  6  5  2  0  0  0  0
  7  6  1  0  0  0  0
  7  2  2  0  0  0  0
 10  6  1  0  0  0  0
 11 12  1  0  0  0  0
 12 13  2  0  0  0  0
 12 17  1  0  0  0  0
 13 18  1  0  0  0  0
 14 13  1  0  0  0  0
 15 14  2  0  0  0  0
 16 15  1  0  0  0  0
 16 11  2  0  0  0  0
 19 11  1  0  0  0  0
 19 20  1  0  0  0  0
 21 19  1  0  0  0  0
 22 24  1  0  0  0  0
 22  7  1  0  0  0  0
 24 23  2  1  0  0  0
 24 27  1  0  0  0  0
 25 24  1  0  0  0  0
 26 25  1  0  0  0  0
 27 28  1  0  0  0  0
 28 30  1  0  0  0  0
 28 29  2  0  0  0  0
 30 32  1  0  0  0  0
 30 31  1  0  0  0  0
M  END
>  <minimizedAffinity>
-5.65824842

$$$$

 OpenBabel03252506143D

 32 33  0  0  0  0  0  0  0  0999 V2000
   39.2450   27.4300   40.2920 F   0  0  0  0  0  0  0  0  0  0  0  0
   38.5170   27.6520   41.3830 C   0  0  0  0  0  0  0  0  0  0  0  0
   37.5210   26.7600   41.7150 C   0  0  0  0  0  0  0  0  0  0  0  0
   36.7100   26.9170   42.8450 C   0  0  0  0  0  0  0  0  0  0  0  0
   36.9110   28.0190   43.6770 C   0  0  0  0  0  0  0  0  0  0  0  0
   37.9150   28.8830   43.3110 C   0  0  0  0  0  0  0  0  0  0  0  0
   38.7120   28.7500   42.2190 C   0  0  0  0  0  0  0  0  0  0  0  0
   35.9370   26.1650   43.0420 H   0  0  0  0  0  0  0  0  0  0  0  0
   36.2600   28.0870   44.5280 H   0  0  0  0  0  0  0  0  0  0  0  0
   37.9670   29.6820   44.0420 H   0  0  0  0  0  0  0  0  0  0  0  0
   37.5860   23.3050   40.4900 C   0  0  0  0  0  0  0  0  0  0  0  0
   36.8090   23.4010   39.3140 C   0  0  0  0  0  0  0  0  0  0  0  0
   36.2620   24.6640   38.9460 C   0  0  0  0  0  0  0  0  0  0  0  0
   36.5360   25.7140   39.7750 N   0  0  0  0  0  0  0  0  0  0  0  0
   37.2740   25.5850   40.8790 C   0  0  0  0  0  0  0  0  0  0  0  0
   37.7920   24.3950   41.2280 N   0  0  0  0  0  0  0  0  0  0  0  0
   36.5900   22.5730   38.6550 H   0  0  0  0  0  0  0  0  0  0  0  0
   35.6640   24.7610   38.0510 H   0  0  0  0  0  0  0  0  0  0  0  0
   38.1120   22.0450   40.8280 N   0  0  0  0  0  0  0  0  0  0  0  0
   37.9040   21.1960   40.2930 H   0  0  0  0  0  0  0  0  0  0  0  0
   38.7390   21.9590   41.6530 H   0  0  0  0  0  0  0  0  0  0  0  0
   39.6870   29.6730   41.9420 O   0  0  0  0  0  0  0  0  0  0  0  0
   40.6720   30.8340   39.7740 O   0  0  0  0  0  0  0  0  0  0  0  0
   39.5850   30.9150   40.8190 P   0  0  2  0  0  0  0  0  0  0  0  0
   39.6920   32.4050   41.6640 O   0  0  0  0  0  0  0  0  0  0  0  0
   39.6900   33.1590   41.0280 H   0  0  0  0  0  0  0  0  0  0  0  0
   38.0950   30.9850   40.0200 O   0  0  0  0  0  0  0  0  0  0  0  0
   36.9660   31.6160   40.4830 C   0  0  0  0  0  0  0  0  0  0  0  0
   36.0420   30.9510   41.0070 O   0  0  0  0  0  0  0  0  0  0  0  0
   36.9460   33.0240   40.3180 N   0  0  0  0  0  0  0  0  0  0  0  0
   36.6900   33.9040   39.8110 H   0  0  0  0  0  0  0  0  0  0  0  0
   37.4700   33.3840   41.1530 H   0  0  0  0  0  0  0  0  0  0  0  0
  1  2  1  0  0  0  0
  2  3  2  0  0  0  0
  2  7  1  0  0  0  0
  3  4  1  0  0  0  0
  4  8  1  0  0  0  0
  4  5  2  0  0  0  0
  5  9  1  0  0  0  0
  6  5  1  0  0  0  0
  6 10  1  0  0  0  0
  7  6  2  0  0  0  0
 11 19  1  0  0  0  0
 11 16  1  0  0  0  0
 12 11  2  0  0  0  0
 13 12  1  0  0  0  0
 13 14  2  0  0  0  0
 14 15  1  0  0  0  0
 15 16  2  0  0  0  0
 15  3  1  0  0  0  0
 17 12  1  0  0  0  0
 18 13  1  0  0  0  0
 19 21  1  0  0  0  0
 20 19  1  0  0  0  0
 22  7  1  0  0  0  0
 24 23  2  6  0  0  0
 24 25  1  0  0  0  0
 24 22  1  0  0  0  0
 26 25  1  0  0  0  0
 27 28  1  0  0  0  0
 27 24  1  0  0  0  0
 28 29  2  0  0  0  0
 30 28  1  0  0  0  0
 30 32  1  0  0  0  0
 31 30  1  0  0  0  0
M  END
>  <minimizedAffinity>
-5.64855003

$$$$

 OpenBabel03252506143D

 32 33  0  0  0  0  0  0  0  0999 V2000
   39.8680   28.7390   40.4500 F   0  0  0  0  0  0  0  0  0  0  0  0
   38.5560   28.9380   40.5450 C   0  0  0  0  0  0  0  0  0  0  0  0
   37.8000   28.0620   41.2910 C   0  0  0  0  0  0  0  0  0  0  0  0
   36.4150   28.1980   41.4440 C   0  0  0  0  0  0  0  0  0  0  0  0
   35.7640   29.2640   40.8210 C   0  0  0  0  0  0  0  0  0  0  0  0
   36.5560   30.1160   40.0880 C   0  0  0  0  0  0  0  0  0  0  0  0
   37.9000   30.0010   39.9260 C   0  0  0  0  0  0  0  0  0  0  0  0
   35.8810   27.4590   42.0530 H   0  0  0  0  0  0  0  0  0  0  0  0
   34.7030   29.3180   40.9740 H   0  0  0  0  0  0  0  0  0  0  0  0
   35.9300   30.8950   39.6690 H   0  0  0  0  0  0  0  0  0  0  0  0
   38.7450   24.6260   42.1510 C   0  0  0  0  0  0  0  0  0  0  0  0
   39.6230   24.8320   43.2390 C   0  0  0  0  0  0  0  0  0  0  0  0
   39.8870   26.1620   43.6730 C   0  0  0  0  0  0  0  0  0  0  0  0
   39.2580   27.1650   42.9920 N   0  0  0  0  0  0  0  0  0  0  0  0
   38.4350   26.9320   41.9690 C   0  0  0  0  0  0  0  0  0  0  0  0
   38.1830   25.6780   41.5570 N   0  0  0  0  0  0  0  0  0  0  0  0
   40.1230   24.0420   43.7800 H   0  0  0  0  0  0  0  0  0  0  0  0
   40.5560   26.3430   44.5030 H   0  0  0  0  0  0  0  0  0  0  0  0
   38.5040   23.3020   41.7440 N   0  0  0  0  0  0  0  0  0  0  0  0
   38.9820   22.4980   42.1620 H   0  0  0  0  0  0  0  0  0  0  0  0
   37.8140   23.1180   40.9880 H   0  0  0  0  0  0  0  0  0  0  0  0
   38.5980   30.9060   39.1690 O   0  0  0  0  0  0  0  0  0  0  0  0
   39.4050   32.3960   41.2050 O   0  0  0  0  0  0  0  0  0  0  0  0
   39.2380   32.3610   39.7060 P   0  0  2  0  0  0  0  0  0  0  0  0
   38.1870   33.6210   39.2010 O   0  0  0  0  0  0  0  0  0  0  0  0
   38.5050   34.4890   39.5470 H   0  0  0  0  0  0  0  0  0  0  0  0
   40.7290   32.7450   39.0030 O   0  0  0  0  0  0  0  0  0  0  0  0
   40.9930   32.7880   37.6560 C   0  0  0  0  0  0  0  0  0  0  0  0
   42.1030   33.2020   37.2440 O   0  0  0  0  0  0  0  0  0  0  0  0
   39.9430   32.3400   36.8150 N   0  0  0  0  0  0  0  0  0  0  0  0
   39.1070   32.4870   36.2030 H   0  0  0  0  0  0  0  0  0  0  0  0
   40.0660   31.2980   36.7910 H   0  0  0  0  0  0  0  0  0  0  0  0
  1  2  1  0  0  0  0
  2  3  1  0  0  0  0
  3  4  2  0  0  0  0
  3 15  1  0  0  0  0
  4  8  1  0  0  0  0
  5  9  1  0  0  0  0
  5  4  1  0  0  0  0
  6  5  2  0  0  0  0
  7  6  1  0  0  0  0
  7  2  2  0  0  0  0
 10  6  1  0  0  0  0
 11 12  1  0  0  0  0
 12 13  2  0  0  0  0
 12 17  1  0  0  0  0
 13 18  1  0  0  0  0
 14 13  1  0  0  0  0
 15 14  2  0  0  0  0
 16 15  1  0  0  0  0
 16 11  2  0  0  0  0
 19 11  1  0  0  0  0
 19 20  1  0  0  0  0
 21 19  1  0  0  0  0
 22 24  1  0  0  0  0
 22  7  1  0  0  0  0
 24 23  2  1  0  0  0
 25 26  1  0  0  0  0
 25 24  1  0  0  0  0
 27 24  1  0  0  0  0
 28 27  1  0  0  0  0
 29 28  2  0  0  0  0
 30 28  1  0  0  0  0
 31 30  1  0  0  0  0
 32 30  1  0  0  0  0
M  END
>  <minimizedAffinity>
-5.60027552

$$$$

 OpenBabel03252506143D

 32 33  0  0  0  0  0  0  0  0999 V2000
   39.5330   27.4340   40.3050 F   0  0  0  0  0  0  0  0  0  0  0  0
   38.6340   27.4910   41.2830 C   0  0  0  0  0  0  0  0  0  0  0  0
   39.0650   27.4530   42.5900 C   0  0  0  0  0  0  0  0  0  0  0  0
   38.1870   27.5100   43.6800 C   0  0  0  0  0  0  0  0  0  0  0  0
   36.8160   27.6100   43.4420 C   0  0  0  0  0  0  0  0  0  0  0  0
   36.4280   27.6460   42.1240 C   0  0  0  0  0  0  0  0  0  0  0  0
   37.2630   27.5920   41.0530 C   0  0  0  0  0  0  0  0  0  0  0  0
   38.6070   27.4720   44.6920 H   0  0  0  0  0  0  0  0  0  0  0  0
   36.1920   27.6490   44.3140 H   0  0  0  0  0  0  0  0  0  0  0  0
   35.3480   27.7330   42.0840 H   0  0  0  0  0  0  0  0  0  0  0  0
   42.3690   26.0190   43.2760 C   0  0  0  0  0  0  0  0  0  0  0  0
   43.1550   27.1790   43.4570 C   0  0  0  0  0  0  0  0  0  0  0  0
   42.5400   28.4580   43.3410 C   0  0  0  0  0  0  0  0  0  0  0  0
   41.2040   28.4710   43.0570 N   0  0  0  0  0  0  0  0  0  0  0  0
   40.4930   27.3540   42.8930 C   0  0  0  0  0  0  0  0  0  0  0  0
   41.0710   26.1460   43.0020 N   0  0  0  0  0  0  0  0  0  0  0  0
   44.2120   27.1730   43.6820 H   0  0  0  0  0  0  0  0  0  0  0  0
   43.1210   29.3590   43.4750 H   0  0  0  0  0  0  0  0  0  0  0  0
   43.0050   24.7700   43.3950 N   0  0  0  0  0  0  0  0  0  0  0  0
   44.0130   24.6740   43.5460 H   0  0  0  0  0  0  0  0  0  0  0  0
   42.4370   23.9010   43.3290 H   0  0  0  0  0  0  0  0  0  0  0  0
   36.7710   27.6340   39.7740 O   0  0  0  0  0  0  0  0  0  0  0  0
   34.7280   29.2610   39.3330 O   0  0  0  0  0  0  0  0  0  0  0  0
   36.1710   28.9880   38.9860 P   0  0  2  0  0  0  0  0  0  0  0  0
   36.3330   28.7350   37.2970 O   0  0  0  0  0  0  0  0  0  0  0  0
   35.9400   29.4910   36.7990 H   0  0  0  0  0  0  0  0  0  0  0  0
   37.0590   30.3970   39.2910 O   0  0  0  0  0  0  0  0  0  0  0  0
   36.6920   31.4070   40.1470 C   0  0  0  0  0  0  0  0  0  0  0  0
   37.0400   32.5880   39.9130 O   0  0  0  0  0  0  0  0  0  0  0  0
   35.9180   31.0060   41.2650 N   0  0  0  0  0  0  0  0  0  0  0  0
   35.7970   30.7180   42.2650 H   0  0  0  0  0  0  0  0  0  0  0  0
   34.9360   30.9810   40.8970 H   0  0  0  0  0  0  0  0  0  0  0  0
  1  2  1  0  0  0  0
  2  3  1  0  0  0  0
  3 15  1  0  0  0  0
  3  4  2  0  0  0  0
  4  8  1  0  0  0  0
  5  4  1  0  0  0  0
  5  9  1  0  0  0  0
  6  5  2  0  0  0  0
  7  2  2  0  0  0  0
  7  6  1  0  0  0  0
 10  6  1  0  0  0  0
 11 19  1  0  0  0  0
 11 12  1  0  0  0  0
 12 17  1  0  0  0  0
 13 12  2  0  0  0  0
 13 18  1  0  0  0  0
 14 13  1  0  0  0  0
 15 16  1  0  0  0  0
 15 14  2  0  0  0  0
 16 11  2  0  0  0  0
 19 20  1  0  0  0  0
 21 19  1  0  0  0  0
 22  7  1  0  0  0  0
 24 27  1  0  0  0  0
 24 23  2  1  0  0  0
 24 22  1  0  0  0  0
 25 24  1  0  0  0  0
 26 25  1  0  0  0  0
 27 28  1  0  0  0  0
 28 30  1  0  0  0  0
 29 28  2  0  0  0  0
 30 31  1  0  0  0  0
 32 30  1  0  0  0  0
M  END
>  <minimizedAffinity>
-5.56413364

$$$$

 OpenBabel03252506143D

 32 33  0  0  0  0  0  0  0  0999 V2000
   39.9300   28.6100   40.9610 F   0  0  0  0  0  0  0  0  0  0  0  0
   38.9620   28.3110   41.8240 C   0  0  0  0  0  0  0  0  0  0  0  0
   37.7430   28.9390   41.7030 C   0  0  0  0  0  0  0  0  0  0  0  0
   36.6700   28.6840   42.5660 C   0  0  0  0  0  0  0  0  0  0  0  0
   36.8340   27.7550   43.5950 C   0  0  0  0  0  0  0  0  0  0  0  0
   38.0650   27.1500   43.6800 C   0  0  0  0  0  0  0  0  0  0  0  0
   39.1180   27.3840   42.8530 C   0  0  0  0  0  0  0  0  0  0  0  0
   35.7310   29.2250   42.4070 H   0  0  0  0  0  0  0  0  0  0  0  0
   35.9780   27.6000   44.2250 H   0  0  0  0  0  0  0  0  0  0  0  0
   38.0510   26.4520   44.5090 H   0  0  0  0  0  0  0  0  0  0  0  0
   37.3100   32.1470   39.9810 C   0  0  0  0  0  0  0  0  0  0  0  0
   37.1010   31.7320   38.6460 C   0  0  0  0  0  0  0  0  0  0  0  0
   37.1110   30.3400   38.3440 C   0  0  0  0  0  0  0  0  0  0  0  0
   37.3250   29.4880   39.3900 N   0  0  0  0  0  0  0  0  0  0  0  0
   37.5190   29.9160   40.6380 C   0  0  0  0  0  0  0  0  0  0  0  0
   37.5100   31.2290   40.9260 N   0  0  0  0  0  0  0  0  0  0  0  0
   36.9310   32.4020   37.8160 H   0  0  0  0  0  0  0  0  0  0  0  0
   36.9540   30.0000   37.3300 H   0  0  0  0  0  0  0  0  0  0  0  0
   37.2960   33.5270   40.2480 N   0  0  0  0  0  0  0  0  0  0  0  0
   37.2020   34.2330   39.5130 H   0  0  0  0  0  0  0  0  0  0  0  0
   37.3840   33.8560   41.2310 H   0  0  0  0  0  0  0  0  0  0  0  0
   40.3080   26.7260   43.0260 O   0  0  0  0  0  0  0  0  0  0  0  0
   39.7370   24.1500   43.2580 O   0  0  0  0  0  0  0  0  0  0  0  0
   40.6420   25.1450   42.5740 P   0  0  2  0  0  0  0  0  0  0  0  0
   42.2800   24.8160   42.9650 O   0  0  0  0  0  0  0  0  0  0  0  0
   42.4970   23.8750   42.7620 H   0  0  0  0  0  0  0  0  0  0  0  0
   40.5420   24.8830   40.9050 O   0  0  0  0  0  0  0  0  0  0  0  0
   39.4730   24.3320   40.2420 C   0  0  0  0  0  0  0  0  0  0  0  0
   39.6520   23.4040   39.4180 O   0  0  0  0  0  0  0  0  0  0  0  0
   38.2080   24.8860   40.5620 N   0  0  0  0  0  0  0  0  0  0  0  0
   37.4020   25.5350   40.4020 H   0  0  0  0  0  0  0  0  0  0  0  0
   37.9180   24.3680   41.4280 H   0  0  0  0  0  0  0  0  0  0  0  0
  1  2  1  0  0  0  0
  2  7  1  0  0  0  0
  3  2  2  0  0  0  0
  3  4  1  0  0  0  0
  4  5  2  0  0  0  0
  5  6  1  0  0  0  0
  5  9  1  0  0  0  0
  6 10  1  0  0  0  0
  7 22  1  0  0  0  0
  7  6  2  0  0  0  0
  8  4  1  0  0  0  0
 11 19  1  0  0  0  0
 11 16  1  0  0  0  0
 12 11  2  0  0  0  0
 13 12  1  0  0  0  0
 13 14  2  0  0  0  0
 14 15  1  0  0  0  0
 15 16  2  0  0  0  0
 15  3  1  0  0  0  0
 17 12  1  0  0  0  0
 18 13  1  0  0  0  0
 19 21  1  0  0  0  0
 20 19  1  0  0  0  0
 24 25  1  0  0  0  0
 24 22  1  0  0  0  0
 24 23  2  1  0  0  0
 26 25  1  0  0  0  0
 27 24  1  0  0  0  0
 28 30  1  0  0  0  0
 28 27  1  0  0  0  0
 29 28  2  0  0  0  0
 30 32  1  0  0  0  0
 31 30  1  0  0  0  0
M  END
>  <minimizedAffinity>
-5.32739449

$$$$

 OpenBabel03252506143D

 32 33  0  0  0  0  0  0  0  0999 V2000
   38.6510   26.6840   39.2400 F   0  0  0  0  0  0  0  0  0  0  0  0
   37.6250   27.3910   39.7090 C   0  0  0  0  0  0  0  0  0  0  0  0
   37.5090   27.5780   41.0680 C   0  0  0  0  0  0  0  0  0  0  0  0
   36.4630   28.3090   41.6450 C   0  0  0  0  0  0  0  0  0  0  0  0
   35.4930   28.8760   40.8160 C   0  0  0  0  0  0  0  0  0  0  0  0
   35.6480   28.6660   39.4660 C   0  0  0  0  0  0  0  0  0  0  0  0
   36.6540   27.9610   38.8870 C   0  0  0  0  0  0  0  0  0  0  0  0
   36.4370   28.4130   42.7350 H   0  0  0  0  0  0  0  0  0  0  0  0
   34.7160   29.4240   41.3140 H   0  0  0  0  0  0  0  0  0  0  0  0
   34.8380   29.1630   38.9450 H   0  0  0  0  0  0  0  0  0  0  0  0
   39.4600   25.1260   42.9690 C   0  0  0  0  0  0  0  0  0  0  0  0
   40.3570   25.9570   43.6790 C   0  0  0  0  0  0  0  0  0  0  0  0
   40.2840   27.3680   43.4970 C   0  0  0  0  0  0  0  0  0  0  0  0
   39.3310   27.8250   42.6310 N   0  0  0  0  0  0  0  0  0  0  0  0
   38.5020   27.0090   41.9790 C   0  0  0  0  0  0  0  0  0  0  0  0
   38.5680   25.6780   42.1480 N   0  0  0  0  0  0  0  0  0  0  0  0
   41.1110   25.6000   44.3640 H   0  0  0  0  0  0  0  0  0  0  0  0
   40.9590   28.0230   44.0280 H   0  0  0  0  0  0  0  0  0  0  0  0
   39.5570   23.7370   43.1690 N   0  0  0  0  0  0  0  0  0  0  0  0
   40.2820   23.3100   43.7530 H   0  0  0  0  0  0  0  0  0  0  0  0
   38.8700   23.1070   42.7080 H   0  0  0  0  0  0  0  0  0  0  0  0
   36.7150   27.8090   37.5260 O   0  0  0  0  0  0  0  0  0  0  0  0
   37.0210   28.5680   35.0070 O   0  0  0  0  0  0  0  0  0  0  0  0
   37.3740   28.9010   36.4360 P   0  0  2  0  0  0  0  0  0  0  0  0
   39.0780   28.8900   36.6380 O   0  0  0  0  0  0  0  0  0  0  0  0
   39.5050   29.4820   35.9740 H   0  0  0  0  0  0  0  0  0  0  0  0
   36.9220   30.5050   36.7280 O   0  0  0  0  0  0  0  0  0  0  0  0
   37.6300   31.4150   37.4740 C   0  0  0  0  0  0  0  0  0  0  0  0
   37.2230   31.7500   38.6110 O   0  0  0  0  0  0  0  0  0  0  0  0
   38.8090   31.9160   36.8650 N   0  0  0  0  0  0  0  0  0  0  0  0
   39.3490   32.6200   36.3110 H   0  0  0  0  0  0  0  0  0  0  0  0
   39.5350   31.1920   37.0880 H   0  0  0  0  0  0  0  0  0  0  0  0
  1  2  1  0  0  0  0
  2  3  1  0  0  0  0
  3  4  2  0  0  0  0
  3 15  1  0  0  0  0
  4  8  1  0  0  0  0
  5  9  1  0  0  0  0
  5  4  1  0  0  0  0
  6  5  2  0  0  0  0
  7  6  1  0  0  0  0
  7  2  2  0  0  0  0
 10  6  1  0  0  0  0
 11 19  1  0  0  0  0
 11 12  1  0  0  0  0
 12 17  1  0  0  0  0
 13 12  2  0  0  0  0
 13 18  1  0  0  0  0
 14 13  1  0  0  0  0
 15 16  1  0  0  0  0
 15 14  2  0  0  0  0
 16 11  2  0  0  0  0
 19 20  1  0  0  0  0
 21 19  1  0  0  0  0
 22  7  1  0  0  0  0
 24 23  2  6  0  0  0
 24 25  1  0  0  0  0
 24 27  1  0  0  0  0
 24 22  1  0  0  0  0
 26 25  1  0  0  0  0
 27 28  1  0  0  0  0
 28 29  2  0  0  0  0
 30 32  1  0  0  0  0
 30 28  1  0  0  0  0
 31 30  1  0  0  0  0
M  END
>  <minimizedAffinity>
-5.31968594

$$$$

 OpenBabel03252506143D

 32 33  0  0  0  0  0  0  0  0999 V2000
   40.4000   29.8060   40.2160 F   0  0  0  0  0  0  0  0  0  0  0  0
   39.6190   30.8830   40.1870 C   0  0  0  0  0  0  0  0  0  0  0  0
   38.3430   30.7960   40.6960 C   0  0  0  0  0  0  0  0  0  0  0  0
   37.4560   31.8800   40.7060 C   0  0  0  0  0  0  0  0  0  0  0  0
   37.8740   33.1030   40.1820 C   0  0  0  0  0  0  0  0  0  0  0  0
   39.1550   33.1470   39.6850 C   0  0  0  0  0  0  0  0  0  0  0  0
   40.0300   32.1080   39.6650 C   0  0  0  0  0  0  0  0  0  0  0  0
   36.4550   31.7320   41.1280 H   0  0  0  0  0  0  0  0  0  0  0  0
   37.1520   33.8970   40.2160 H   0  0  0  0  0  0  0  0  0  0  0  0
   39.3500   34.1490   39.3200 H   0  0  0  0  0  0  0  0  0  0  0  0
   37.0240   27.3830   40.9290 C   0  0  0  0  0  0  0  0  0  0  0  0
   36.9580   27.1940   42.3280 C   0  0  0  0  0  0  0  0  0  0  0  0
   37.3730   28.2490   43.1900 C   0  0  0  0  0  0  0  0  0  0  0  0
   37.8120   29.3940   42.5880 N   0  0  0  0  0  0  0  0  0  0  0  0
   37.8590   29.5370   41.2630 C   0  0  0  0  0  0  0  0  0  0  0  0
   37.4690   28.5430   40.4470 N   0  0  0  0  0  0  0  0  0  0  0  0
   36.6120   26.2900   42.8080 H   0  0  0  0  0  0  0  0  0  0  0  0
   37.3320   28.1270   44.2630 H   0  0  0  0  0  0  0  0  0  0  0  0
   36.6090   26.3230   40.1030 N   0  0  0  0  0  0  0  0  0  0  0  0
   36.3240   25.4110   40.4730 H   0  0  0  0  0  0  0  0  0  0  0  0
   36.5870   26.4580   39.0730 H   0  0  0  0  0  0  0  0  0  0  0  0
   41.2880   32.2580   39.1430 O   0  0  0  0  0  0  0  0  0  0  0  0
   42.1300   34.1570   37.4990 O   0  0  0  0  0  0  0  0  0  0  0  0
   41.6630   32.7240   37.5750 P   0  0  2  0  0  0  0  0  0  0  0  0
   40.2610   32.5090   36.6090 O   0  0  0  0  0  0  0  0  0  0  0  0
   40.4290   32.8250   35.6890 H   0  0  0  0  0  0  0  0  0  0  0  0
   42.8370   31.7500   36.8420 O   0  0  0  0  0  0  0  0  0  0  0  0
   44.1660   31.7010   37.1850 C   0  0  0  0  0  0  0  0  0  0  0  0
   44.5040   31.4100   38.3570 O   0  0  0  0  0  0  0  0  0  0  0  0
   45.0760   31.9950   36.1380 N   0  0  0  0  0  0  0  0  0  0  0  0
   45.6990   32.6350   35.5920 H   0  0  0  0  0  0  0  0  0  0  0  0
   45.1870   31.0810   35.6360 H   0  0  0  0  0  0  0  0  0  0  0  0
  2  1  1  0  0  0  0
  2  3  1  0  0  0  0
  3  4  2  0  0  0  0
  3 15  1  0  0  0  0
  4  8  1  0  0  0  0
  5  9  1  0  0  0  0
  5  4  1  0  0  0  0
  6  5  2  0  0  0  0
  7  6  1  0  0  0  0
  7  2  2  0  0  0  0
 10  6  1  0  0  0  0
 11 12  1  0  0  0  0
 12 17  1  0  0  0  0
 12 13  2  0  0  0  0
 13 18  1  0  0  0  0
 14 13  1  0  0  0  0
 15 14  2  0  0  0  0
 16 11  2  0  0  0  0
 16 15  1  0  0  0  0
 19 20  1  0  0  0  0
 19 11  1  0  0  0  0
 21 19  1  0  0  0  0
 22  7  1  0  0  0  0
 24 23  2  6  0  0  0
 24 22  1  0  0  0  0
 25 24  1  0  0  0  0
 26 25  1  0  0  0  0
 27 28  1  0  0  0  0
 27 24  1  0  0  0  0
 28 29  2  0  0  0  0
 30 28  1  0  0  0  0
 31 30  1  0  0  0  0
 32 30  1  0  0  0  0
M  END
>  <minimizedAffinity>
-5.28456497

$$$$
