
 OpenBabel03242523093D

 42 45  0  0  1  0  0  0  0  0999 V2000
   45.1020   36.0080   43.5060 C   0  0  0  0  0  0  0  0  0  0  0  0
   45.9020   34.8920   43.2820 C   0  0  0  0  0  0  0  0  0  0  0  0
   46.0470   33.9620   44.2680 C   0  0  0  0  0  0  0  0  0  0  0  0
   45.3840   34.1970   45.4380 N   0  0  0  0  0  0  0  0  0  0  0  0
   44.6140   35.2720   45.6530 C   0  0  0  0  0  0  0  0  0  0  0  0
   44.4800   36.1580   44.6980 N   0  0  0  0  0  0  0  0  0  0  0  0
   44.9810   36.7480   42.7320 H   0  0  0  0  0  0  0  0  0  0  0  0
   44.0690   35.5060   46.5550 H   0  0  0  0  0  0  0  0  0  0  0  0
   46.5440   34.8030   42.0450 N   0  0  0  0  0  0  0  0  0  0  0  0
   47.8730   35.2840   41.8470 C   0  0  0  0  0  0  0  0  0  0  0  0
   48.4650   34.9530   40.5060 C   0  0  0  0  0  0  0  0  0  0  0  0
   48.1810   33.6750   40.0270 N   0  0  0  0  0  0  0  0  0  0  0  0
   46.8780   33.2370   40.1860 C   0  0  0  0  0  0  0  0  0  0  0  0
   45.9980   34.2570   40.8660 C   0  0  0  0  0  0  0  0  0  0  0  0
   47.8470   36.3930   41.9080 H   0  0  0  0  0  0  0  0  0  0  0  0
   48.5860   34.9610   42.6410 H   0  0  0  0  0  0  0  0  0  0  0  0
   49.5670   35.1130   40.5590 H   0  0  0  0  0  0  0  0  0  0  0  0
   48.0940   35.7110   39.7710 H   0  0  0  0  0  0  0  0  0  0  0  0
   48.9460   33.0030   40.3040 H   0  0  0  0  0  0  0  0  0  0  0  0
   46.8180   32.2360   40.6520 H   0  0  0  0  0  0  0  0  0  0  0  0
   46.4180   33.0900   39.1640 H   0  0  0  0  0  0  0  0  0  0  0  0
   45.0560   33.7290   41.1430 H   0  0  0  0  0  0  0  0  0  0  0  0
   45.6700   35.0270   40.1170 H   0  0  0  0  0  0  0  0  0  0  0  0
   46.4820   32.0490   45.5650 C   0  0  0  0  0  0  0  0  0  0  0  0
   46.7410   32.7570   44.3660 C   0  0  0  0  0  0  0  0  0  0  0  0
   47.6640   32.0930   43.5960 C   0  0  0  0  0  0  0  0  0  0  0  0
   48.2760   30.9190   43.8980 C   0  0  0  0  0  0  0  0  0  0  0  0
   47.9680   30.2890   45.0960 C   0  0  0  0  0  0  0  0  0  0  0  0
   47.0540   30.8680   45.9400 C   0  0  0  0  0  0  0  0  0  0  0  0
   48.7450   29.1420   45.1030 O   0  0  0  0  0  0  0  0  0  0  0  0
   49.4830   29.0400   43.9160 C   0  0  2  0  0  0  0  0  0  0  0  0
   49.2060   30.2150   43.1560 O   0  0  0  0  0  0  0  0  0  0  0  0
   45.7900   32.2950   46.3950 H   0  0  0  0  0  0  0  0  0  0  0  0
   47.8710   32.6020   42.7080 H   0  0  0  0  0  0  0  0  0  0  0  0
   46.8950   30.2940   46.8310 H   0  0  0  0  0  0  0  0  0  0  0  0
   50.5620   28.9290   44.0360 H   0  0  0  0  0  0  0  0  0  0  0  0
   48.9680   27.9310   43.1990 O   0  0  0  0  0  0  0  0  0  0  0  0
   48.6950   28.0060   41.8270 C   0  0  0  0  0  0  0  0  0  0  0  0
   47.5200   27.7560   41.4150 O   0  0  0  0  0  0  0  0  0  0  0  0
   49.6250   28.3420   40.8160 N   0  0  0  0  0  0  0  0  0  0  0  0
   49.7160   27.7550   39.9470 H   0  0  0  0  0  0  0  0  0  0  0  0
   50.3420   29.0860   40.6400 H   0  0  0  0  0  0  0  0  0  0  0  0
  1  6  1  0  0  0  0
  2  1  2  0  0  0  0
  2  3  1  0  0  0  0
  3 25  1  0  0  0  0
  3  4  2  0  0  0  0
  4  5  1  0  0  0  0
  5  8  1  0  0  0  0
  6  5  2  0  0  0  0
  7  1  1  0  0  0  0
  9  2  1  0  0  0  0
 10 15  1  0  0  0  0
 10  9  1  0  0  0  0
 10 16  1  0  0  0  0
 11 17  1  0  0  0  0
 11 10  1  0  0  0  0
 12 13  1  0  0  0  0
 12 19  1  0  0  0  0
 12 11  1  0  0  0  0
 13 20  1  0  0  0  0
 13 14  1  0  0  0  0
 14 22  1  0  0  0  0
 14  9  1  0  0  0  0
 18 11  1  0  0  0  0
 21 13  1  0  0  0  0
 23 14  1  0  0  0  0
 24 29  1  0  0  0  0
 24 33  1  0  0  0  0
 25 24  2  0  0  0  0
 26 27  2  0  0  0  0
 26 25  1  0  0  0  0
 27 28  1  0  0  0  0
 28 30  1  0  0  0  0
 28 29  2  0  0  0  0
 29 35  1  0  0  0  0
 31 36  1  1  0  0  0
 31 30  1  0  0  0  0
 32 27  1  0  0  0  0
 32 31  1  0  0  0  0
 34 26  1  0  0  0  0
 37 31  1  0  0  0  0
 38 37  1  0  0  0  0
 39 38  2  0  0  0  0
 40 38  1  0  0  0  0
 41 40  1  0  0  0  0
 42 40  1  0  0  0  0
M  END
>  <minimizedAffinity>
-4.66797733

>  <minimizedRMSD>
1.00957918

$$$$
