
     RDKit          3D

 23 23  0  0  0  0  0  0  0  0999 V2000
   47.1623   33.9596   42.4796 C   0  0  0  0  0  0  0  0  0  0  0  0
   45.2965   34.2356   45.6903 C   0  0  0  0  0  0  0  0  0  0  0  0
   46.1635   33.7474   44.7078 C   0  0  0  0  0  0  0  0  0  0  0  0
   46.2578   34.4514   43.5294 C   0  0  0  0  0  0  0  0  0  0  0  0
   45.5118   35.5850   43.3652 N   0  0  0  0  0  0  0  0  0  0  0  0
   44.6750   36.0315   44.3484 C   0  0  0  0  0  0  0  0  0  0  0  0
   44.5730   35.3607   45.4946 N   0  0  0  0  0  0  0  0  0  0  0  0
   48.3209   33.4215   43.0115 O   0  0  0  0  0  0  0  0  0  0  0  0
   50.6644   33.1145   41.9000 O   0  0  0  0  0  0  0  0  0  0  0  0
   49.6228   34.1456   42.2190 P   0  0  2  0  0  0  0  0  0  0  0  0
   50.2081   35.3545   43.2541 O   0  0  0  0  0  0  0  0  0  0  0  0
   49.0648   34.8186   40.7872 O   0  0  0  0  0  0  0  0  0  0  0  0
   46.5985   33.1693   41.9233 H   0  0  0  0  0  0  0  0  0  0  0  0
   47.3131   34.7729   41.7620 H   0  0  0  0  0  0  0  0  0  0  0  0
   45.2046   33.6974   46.6292 H   0  0  0  0  0  0  0  0  0  0  0  0
   46.7125   32.8328   44.9424 H   0  0  0  0  0  0  0  0  0  0  0  0
   44.1157   36.9450   44.1351 H   0  0  0  0  0  0  0  0  0  0  0  0
   49.4242   35.7833   43.6826 H   0  0  0  0  0  0  0  0  0  0  0  0
   48.9344   36.1702   40.5393 C   0  0  0  0  0  0  0  0  0  0  0  0
   49.2956   36.8654   41.5481 O   0  0  0  0  0  0  0  0  0  0  0  0
   48.4700   36.8004   39.3529 N   0  0  0  0  0  0  0  0  0  0  0  0
   49.3494   36.7909   38.7559 H   0  0  0  0  0  0  0  0  0  0  0  0
   47.4497   37.0170   39.5513 H   0  0  0  0  0  0  0  0  0  0  0  0
  1  8  1  0
  1  4  1  0
  3  2  2  0
  4  3  1  0
  5  4  2  0
  5  6  1  0
  6  7  2  0
  7  2  1  0
  9 10  2  0
 10  8  1  1
 10 11  1  0
 12 10  1  0
  1 13  1  0
  1 14  1  0
  2 15  1  0
  3 16  1  0
  6 17  1  0
 11 18  1  0
 19 20  2  0
 19 21  1  0
 21 22  1  0
 21 23  1  0
 12 19  1  0
M  ISO  7  13   8  14   8  15  14  16  14  17  14  18   3  22   5
M  END
>  <DihAtoms>  (1) 
9,11,18,19

>  <DihDeg>  (1) 
1.2224369190765797e-05

$$$$
