
 OpenBabel03252500243D

 33 34  0  0  1  0  0  0  0  0999 V2000
   46.9380   30.2780   48.1990 C   0  0  2  0  0  0  0  0  0  0  0  0
   45.4790   30.5070   48.2590 C   0  0  2  0  0  0  0  0  0  0  0  0
   44.9360   29.5860   47.2290 C   0  0  0  0  0  0  0  0  0  0  0  0
   45.7840   28.4990   47.1550 O   0  0  0  0  0  0  0  0  0  0  0  0
   46.9010   28.7640   47.8750 C   0  0  0  0  0  0  0  0  0  0  0  0
   47.5980   30.6320   47.4590 H   0  0  0  0  0  0  0  0  0  0  0  0
   45.1830   30.1510   49.2840 H   0  0  0  0  0  0  0  0  0  0  0  0
   43.9870   29.1400   47.6630 H   0  0  0  0  0  0  0  0  0  0  0  0
   44.5790   30.0020   46.2910 H   0  0  0  0  0  0  0  0  0  0  0  0
   47.7930   28.4150   47.3600 H   0  0  0  0  0  0  0  0  0  0  0  0
   46.9000   28.2120   48.8610 H   0  0  0  0  0  0  0  0  0  0  0  0
   45.1170   31.8190   48.0440 O   0  0  0  0  0  0  0  0  0  0  0  0
   47.3460   32.8920   47.3390 O   0  0  0  0  0  0  0  0  0  0  0  0
   46.0100   32.4640   46.7970 P   0  0  1  0  0  0  0  0  0  0  0  0
   46.2590   31.2760   45.6130 O   0  0  0  0  0  0  0  0  0  0  0  0
   46.9440   31.5470   44.9650 H   0  0  0  0  0  0  0  0  0  0  0  0
   45.2700   33.8450   46.1130 O   0  0  0  0  0  0  0  0  0  0  0  0
   45.1940   35.9000   43.2010 C   0  0  0  0  0  0  0  0  0  0  0  0
   46.2670   35.4230   42.4020 C   0  0  0  0  0  0  0  0  0  0  0  0
   47.0160   34.3500   42.9320 C   0  0  0  0  0  0  0  0  0  0  0  0
   46.6680   33.8580   44.1400 N   0  0  0  0  0  0  0  0  0  0  0  0
   45.6370   34.3490   44.8600 C   0  0  0  0  0  0  0  0  0  0  0  0
   44.9020   35.3700   44.3850 N   0  0  0  0  0  0  0  0  0  0  0  0
   46.5020   35.8540   41.4410 H   0  0  0  0  0  0  0  0  0  0  0  0
   47.8450   33.9410   42.3740 H   0  0  0  0  0  0  0  0  0  0  0  0
   44.4700   36.9400   42.6800 O   0  0  0  0  0  0  0  0  0  0  0  0
   44.5310   37.8420   43.1310 H   0  0  0  0  0  0  0  0  0  0  0  0
   47.6070   30.5210   49.3800 O   0  0  0  0  0  0  0  0  0  0  0  0
   48.9200   30.6010   49.6840 C   0  0  0  0  0  0  0  0  0  0  0  0
   49.5130   31.6760   49.4700 O   0  0  0  0  0  0  0  0  0  0  0  0
   49.6950   29.5400   50.2380 N   0  0  0  0  0  0  0  0  0  0  0  0
   50.0920   28.6370   49.9190 H   0  0  0  0  0  0  0  0  0  0  0  0
   50.0050   29.5870   51.2500 H   0  0  0  0  0  0  0  0  0  0  0  0
  1  6  1  6  0  0  0
  1  2  1  0  0  0  0
  1 28  1  0  0  0  0
  2  7  1  1  0  0  0
  3  8  1  0  0  0  0
  3  2  1  0  0  0  0
  4  3  1  0  0  0  0
  4  5  1  0  0  0  0
  5  1  1  0  0  0  0
  5 11  1  0  0  0  0
  9  3  1  0  0  0  0
 10  5  1  0  0  0  0
 12  2  1  0  0  0  0
 14 13  2  1  0  0  0
 14 12  1  0  0  0  0
 15 14  1  0  0  0  0
 16 15  1  0  0  0  0
 17 14  1  0  0  0  0
 18 23  1  0  0  0  0
 19 20  1  0  0  0  0
 19 18  2  0  0  0  0
 20 21  2  0  0  0  0
 21 22  1  0  0  0  0
 22 17  1  0  0  0  0
 23 22  2  0  0  0  0
 24 19  1  0  0  0  0
 25 20  1  0  0  0  0
 26 27  1  0  0  0  0
 26 18  1  0  0  0  0
 28 29  1  0  0  0  0
 29 31  1  0  0  0  0
 30 29  2  0  0  0  0
 31 33  1  0  0  0  0
 32 31  1  0  0  0  0
M  END
>  <minimizedAffinity>
-4.84753084

>  <minimizedRMSD>
0.310514987

$$$$
