
 OpenBabel03242521593D

 29 30  0  0  0  0  0  0  0  0999 V2000
   37.7060   28.5880   41.7550 C   0  0  0  0  0  0  0  0  0  0  0  0
   36.5240   28.0590   41.2760 C   0  0  0  0  0  0  0  0  0  0  0  0
   35.5310   28.7830   40.6250 C   0  0  0  0  0  0  0  0  0  0  0  0
   35.7390   30.1350   40.4430 C   0  0  0  0  0  0  0  0  0  0  0  0
   36.9010   30.6380   40.9150 C   0  0  0  0  0  0  0  0  0  0  0  0
   37.8310   29.9110   41.5350 N   0  0  0  0  0  0  0  0  0  0  0  0
   36.4330   26.9740   41.4600 H   0  0  0  0  0  0  0  0  0  0  0  0
   34.6830   28.1660   40.3320 H   0  0  0  0  0  0  0  0  0  0  0  0
   34.8700   30.5260   39.9460 H   0  0  0  0  0  0  0  0  0  0  0  0
   40.7120   27.3670   43.6500 C   0  0  0  0  0  0  0  0  0  0  0  0
   39.8550   28.2790   43.0290 C   0  0  0  0  0  0  0  0  0  0  0  0
   38.7130   27.8010   42.4440 C   0  0  0  0  0  0  0  0  0  0  0  0
   38.4830   26.4470   42.5050 N   0  0  0  0  0  0  0  0  0  0  0  0
   39.3180   25.5840   43.1060 C   0  0  0  0  0  0  0  0  0  0  0  0
   40.4350   26.0490   43.6790 N   0  0  0  0  0  0  0  0  0  0  0  0
   41.6180   27.7870   44.1080 H   0  0  0  0  0  0  0  0  0  0  0  0
   40.0160   29.3400   42.9700 H   0  0  0  0  0  0  0  0  0  0  0  0
   39.0700   24.5320   43.1140 H   0  0  0  0  0  0  0  0  0  0  0  0
   37.1270   31.9920   40.7370 O   0  0  0  0  0  0  0  0  0  0  0  0
   38.5450   34.0790   39.9620 O   0  0  0  0  0  0  0  0  0  0  0  0
   38.6720   32.6370   40.3720 P   0  0  1  0  0  0  0  0  0  0  0  0
   39.6510   32.5030   41.7270 O   0  0  0  0  0  0  0  0  0  0  0  0
   40.2150   31.7100   41.7560 H   0  0  0  0  0  0  0  0  0  0  0  0
   39.2970   31.7330   39.0580 O   0  0  0  0  0  0  0  0  0  0  0  0
   38.7380   31.7890   37.7950 C   0  0  0  0  0  0  0  0  0  0  0  0
   37.5920   31.4780   37.4460 O   0  0  0  0  0  0  0  0  0  0  0  0
   39.7070   32.2870   36.8500 N   0  0  0  0  0  0  0  0  0  0  0  0
   39.6940   33.3380   36.9460 H   0  0  0  0  0  0  0  0  0  0  0  0
   40.4400   32.2400   36.1010 H   0  0  0  0  0  0  0  0  0  0  0  0
  1 12  1  0  0  0  0
  2  7  1  0  0  0  0
  2  1  2  0  0  0  0
  3  2  1  0  0  0  0
  4  3  2  0  0  0  0
  4  5  1  0  0  0  0
  5  6  2  0  0  0  0
  6  1  1  0  0  0  0
  8  3  1  0  0  0  0
  9  4  1  0  0  0  0
 10 15  1  0  0  0  0
 10 16  1  0  0  0  0
 11 10  2  0  0  0  0
 12 13  2  0  0  0  0
 12 11  1  0  0  0  0
 13 14  1  0  0  0  0
 14 18  1  0  0  0  0
 14 15  2  0  0  0  0
 17 11  1  0  0  0  0
 19  5  1  0  0  0  0
 21 20  2  6  0  0  0
 21 19  1  0  0  0  0
 21 22  1  0  0  0  0
 22 23  1  0  0  0  0
 24 21  1  0  0  0  0
 25 24  1  0  0  0  0
 26 25  2  0  0  0  0
 27 28  1  0  0  0  0
 27 25  1  0  0  0  0
 29 27  1  0  0  0  0
M  END
>  <minimizedAffinity>
-5.46409893

$$$$

 OpenBabel03242521593D

 29 30  0  0  0  0  0  0  0  0999 V2000
   37.4090   26.9520   41.4930 C   0  0  0  0  0  0  0  0  0  0  0  0
   37.7360   26.8820   42.8330 C   0  0  0  0  0  0  0  0  0  0  0  0
   38.2230   27.9400   43.5930 C   0  0  0  0  0  0  0  0  0  0  0  0
   38.3950   29.1550   42.9630 C   0  0  0  0  0  0  0  0  0  0  0  0
   38.0690   29.2100   41.6530 C   0  0  0  0  0  0  0  0  0  0  0  0
   37.6040   28.1720   40.9570 N   0  0  0  0  0  0  0  0  0  0  0  0
   37.5700   25.8780   43.2630 H   0  0  0  0  0  0  0  0  0  0  0  0
   38.4140   27.6610   44.6280 H   0  0  0  0  0  0  0  0  0  0  0  0
   38.7910   29.8370   43.6920 H   0  0  0  0  0  0  0  0  0  0  0  0
   36.3360   23.5610   40.2830 C   0  0  0  0  0  0  0  0  0  0  0  0
   36.8410   24.5220   41.1620 C   0  0  0  0  0  0  0  0  0  0  0  0
   36.9160   25.8200   40.7300 C   0  0  0  0  0  0  0  0  0  0  0  0
   36.4880   26.0940   39.4530 N   0  0  0  0  0  0  0  0  0  0  0  0
   36.0060   25.1570   38.6210 C   0  0  0  0  0  0  0  0  0  0  0  0
   35.9310   23.8880   39.0400 N   0  0  0  0  0  0  0  0  0  0  0  0
   36.2910   22.5320   40.6640 H   0  0  0  0  0  0  0  0  0  0  0  0
   37.1800   24.3300   42.1630 H   0  0  0  0  0  0  0  0  0  0  0  0
   35.6880   25.4470   37.6290 H   0  0  0  0  0  0  0  0  0  0  0  0
   38.2320   30.4230   41.0060 O   0  0  0  0  0  0  0  0  0  0  0  0
   36.6170   30.8750   38.9690 O   0  0  0  0  0  0  0  0  0  0  0  0
   36.9200   31.3230   40.3720 P   0  0  1  0  0  0  0  0  0  0  0  0
   35.5800   31.0970   41.3550 O   0  0  0  0  0  0  0  0  0  0  0  0
   35.4480   31.7740   42.0410 H   0  0  0  0  0  0  0  0  0  0  0  0
   37.4030   32.9660   40.3450 O   0  0  0  0  0  0  0  0  0  0  0  0
   38.6970   33.3480   40.0440 C   0  0  0  0  0  0  0  0  0  0  0  0
   39.4480   34.0950   40.6840 O   0  0  0  0  0  0  0  0  0  0  0  0
   39.1150   32.7340   38.8080 N   0  0  0  0  0  0  0  0  0  0  0  0
   39.4180   31.7540   39.0570 H   0  0  0  0  0  0  0  0  0  0  0  0
   39.3090   32.6660   37.7790 H   0  0  0  0  0  0  0  0  0  0  0  0
  1  2  1  0  0  0  0
  2  7  1  0  0  0  0
  2  3  2  0  0  0  0
  3  8  1  0  0  0  0
  4  3  1  0  0  0  0
  4  9  1  0  0  0  0
  5  4  2  0  0  0  0
  6  1  2  0  0  0  0
  6  5  1  0  0  0  0
 10 16  1  0  0  0  0
 10 11  1  0  0  0  0
 11 17  1  0  0  0  0
 12 11  2  0  0  0  0
 12  1  1  0  0  0  0
 13 12  1  0  0  0  0
 14 15  1  0  0  0  0
 14 13  2  0  0  0  0
 15 10  2  0  0  0  0
 18 14  1  0  0  0  0
 19  5  1  0  0  0  0
 21 20  2  6  0  0  0
 21 19  1  0  0  0  0
 21 22  1  0  0  0  0
 22 23  1  0  0  0  0
 24 21  1  0  0  0  0
 25 24  1  0  0  0  0
 25 26  2  0  0  0  0
 27 28  1  0  0  0  0
 27 25  1  0  0  0  0
 29 27  1  0  0  0  0
M  END
>  <minimizedAffinity>
-5.39759398

$$$$

 OpenBabel03242521593D

 29 30  0  0  0  0  0  0  0  0999 V2000
   39.3380   27.2410   42.6170 C   0  0  0  0  0  0  0  0  0  0  0  0
   38.4570   27.0750   43.6670 C   0  0  0  0  0  0  0  0  0  0  0  0
   37.1340   27.5040   43.6760 C   0  0  0  0  0  0  0  0  0  0  0  0
   36.6620   28.1470   42.5500 C   0  0  0  0  0  0  0  0  0  0  0  0
   37.5350   28.3010   41.5300 C   0  0  0  0  0  0  0  0  0  0  0  0
   38.7970   27.8740   41.5590 N   0  0  0  0  0  0  0  0  0  0  0  0
   38.9090   26.5530   44.5290 H   0  0  0  0  0  0  0  0  0  0  0  0
   36.6200   27.2690   44.6070 H   0  0  0  0  0  0  0  0  0  0  0  0
   35.6410   28.4190   42.7440 H   0  0  0  0  0  0  0  0  0  0  0  0
   42.5590   25.4050   43.2240 C   0  0  0  0  0  0  0  0  0  0  0  0
   41.1920   25.6820   43.3020 C   0  0  0  0  0  0  0  0  0  0  0  0
   40.7170   26.7910   42.6530 C   0  0  0  0  0  0  0  0  0  0  0  0
   41.6210   27.5620   41.9620 N   0  0  0  0  0  0  0  0  0  0  0  0
   42.9330   27.2810   41.8980 C   0  0  0  0  0  0  0  0  0  0  0  0
   43.3990   26.1980   42.5320 N   0  0  0  0  0  0  0  0  0  0  0  0
   42.9030   24.5080   43.7580 H   0  0  0  0  0  0  0  0  0  0  0  0
   40.4680   25.0930   43.8350 H   0  0  0  0  0  0  0  0  0  0  0  0
   43.5840   27.9340   41.3360 H   0  0  0  0  0  0  0  0  0  0  0  0
   37.0760   28.9410   40.3910 O   0  0  0  0  0  0  0  0  0  0  0  0
   36.5450   31.0470   38.8920 O   0  0  0  0  0  0  0  0  0  0  0  0
   36.8300   30.6340   40.3100 P   0  0  1  0  0  0  0  0  0  0  0  0
   35.5430   31.0440   41.3040 O   0  0  0  0  0  0  0  0  0  0  0  0
   35.7850   31.3280   42.2030 H   0  0  0  0  0  0  0  0  0  0  0  0
   38.2820   31.3790   40.8300 O   0  0  0  0  0  0  0  0  0  0  0  0
   38.5250   32.7270   40.6450 C   0  0  0  0  0  0  0  0  0  0  0  0
   39.6060   33.3280   40.6850 O   0  0  0  0  0  0  0  0  0  0  0  0
   37.2860   33.4160   40.3780 N   0  0  0  0  0  0  0  0  0  0  0  0
   37.0860   33.2700   39.3520 H   0  0  0  0  0  0  0  0  0  0  0  0
   36.4360   33.9940   40.5880 H   0  0  0  0  0  0  0  0  0  0  0  0
  1 12  1  0  0  0  0
  1  2  1  0  0  0  0
  2  3  2  0  0  0  0
  2  7  1  0  0  0  0
  3  8  1  0  0  0  0
  4  9  1  0  0  0  0
  4  3  1  0  0  0  0
  5  6  1  0  0  0  0
  5  4  2  0  0  0  0
  6  1  2  0  0  0  0
 10 11  1  0  0  0  0
 10 16  1  0  0  0  0
 11 17  1  0  0  0  0
 12 11  2  0  0  0  0
 13 12  1  0  0  0  0
 14 13  2  0  0  0  0
 14 15  1  0  0  0  0
 15 10  2  0  0  0  0
 18 14  1  0  0  0  0
 19  5  1  0  0  0  0
 21 20  2  6  0  0  0
 21 19  1  0  0  0  0
 21 24  1  0  0  0  0
 21 22  1  0  0  0  0
 22 23  1  0  0  0  0
 25 26  2  0  0  0  0
 25 24  1  0  0  0  0
 27 29  1  0  0  0  0
 27 25  1  0  0  0  0
 28 27  1  0  0  0  0
M  END
>  <minimizedAffinity>
-5.35244703

$$$$

 OpenBabel03242521593D

 29 30  0  0  0  0  0  0  0  0999 V2000
   37.9290   30.9080   41.0800 C   0  0  0  0  0  0  0  0  0  0  0  0
   36.8920   31.4490   40.3470 C   0  0  0  0  0  0  0  0  0  0  0  0
   36.9340   32.6730   39.6860 C   0  0  0  0  0  0  0  0  0  0  0  0
   38.1000   33.4050   39.7680 C   0  0  0  0  0  0  0  0  0  0  0  0
   39.1070   32.8620   40.4870 C   0  0  0  0  0  0  0  0  0  0  0  0
   39.0290   31.6840   41.1070 N   0  0  0  0  0  0  0  0  0  0  0  0
   35.9950   30.8040   40.3290 H   0  0  0  0  0  0  0  0  0  0  0  0
   36.0040   32.9040   39.1690 H   0  0  0  0  0  0  0  0  0  0  0  0
   37.9430   34.3160   39.2200 H   0  0  0  0  0  0  0  0  0  0  0  0
   38.1790   28.0500   43.5070 C   0  0  0  0  0  0  0  0  0  0  0  0
   38.3640   29.3390   43.0000 C   0  0  0  0  0  0  0  0  0  0  0  0
   37.8410   29.6340   41.7680 C   0  0  0  0  0  0  0  0  0  0  0  0
   37.1640   28.6360   41.1080 N   0  0  0  0  0  0  0  0  0  0  0  0
   36.9950   27.4020   41.6100 C   0  0  0  0  0  0  0  0  0  0  0  0
   37.5060   27.1120   42.8130 N   0  0  0  0  0  0  0  0  0  0  0  0
   38.6130   27.8520   44.4960 H   0  0  0  0  0  0  0  0  0  0  0  0
   38.8890   30.1330   43.4990 H   0  0  0  0  0  0  0  0  0  0  0  0
   36.4510   26.6690   41.0320 H   0  0  0  0  0  0  0  0  0  0  0  0
   40.2860   33.5820   40.5760 O   0  0  0  0  0  0  0  0  0  0  0  0
   42.8020   34.1260   39.9920 O   0  0  0  0  0  0  0  0  0  0  0  0
   41.7560   33.0510   39.8750 P   0  0  1  0  0  0  0  0  0  0  0  0
   42.2630   31.6610   40.6630 O   0  0  0  0  0  0  0  0  0  0  0  0
   41.9980   30.8240   40.2420 H   0  0  0  0  0  0  0  0  0  0  0  0
   41.4430   32.7510   38.2170 O   0  0  0  0  0  0  0  0  0  0  0  0
   42.4390   32.8020   37.2600 C   0  0  0  0  0  0  0  0  0  0  0  0
   43.1250   31.8740   36.8130 O   0  0  0  0  0  0  0  0  0  0  0  0
   42.6080   34.1580   36.7990 N   0  0  0  0  0  0  0  0  0  0  0  0
   41.8520   34.3170   36.0800 H   0  0  0  0  0  0  0  0  0  0  0  0
   43.0380   35.1130   36.7400 H   0  0  0  0  0  0  0  0  0  0  0  0
  1  6  1  0  0  0  0
  1 12  1  0  0  0  0
  2  1  2  0  0  0  0
  3  4  2  0  0  0  0
  3  2  1  0  0  0  0
  4  5  1  0  0  0  0
  5 19  1  0  0  0  0
  5  6  2  0  0  0  0
  7  2  1  0  0  0  0
  8  3  1  0  0  0  0
  9  4  1  0  0  0  0
 10 16  1  0  0  0  0
 11 17  1  0  0  0  0
 11 10  1  0  0  0  0
 12 11  2  0  0  0  0
 13 14  2  0  0  0  0
 13 12  1  0  0  0  0
 14 15  1  0  0  0  0
 15 10  2  0  0  0  0
 18 14  1  0  0  0  0
 21 20  2  1  0  0  0
 21 19  1  0  0  0  0
 21 22  1  0  0  0  0
 23 22  1  0  0  0  0
 24 21  1  0  0  0  0
 25 24  1  0  0  0  0
 26 25  2  0  0  0  0
 27 25  1  0  0  0  0
 28 27  1  0  0  0  0
 29 27  1  0  0  0  0
M  END
>  <minimizedAffinity>
-5.18527222

$$$$

 OpenBabel03242521593D

 29 30  0  0  0  0  0  0  0  0999 V2000
   37.3480   27.3310   41.4400 C   0  0  0  0  0  0  0  0  0  0  0  0
   37.1190   27.3490   42.8010 C   0  0  0  0  0  0  0  0  0  0  0  0
   37.5570   28.3420   43.6720 C   0  0  0  0  0  0  0  0  0  0  0  0
   38.2770   29.3910   43.1380 C   0  0  0  0  0  0  0  0  0  0  0  0
   38.4910   29.3610   41.8040 C   0  0  0  0  0  0  0  0  0  0  0  0
   38.0550   28.3910   41.0010 N   0  0  0  0  0  0  0  0  0  0  0  0
   36.5380   26.4780   43.1510 H   0  0  0  0  0  0  0  0  0  0  0  0
   37.2640   28.1560   44.7050 H   0  0  0  0  0  0  0  0  0  0  0  0
   38.5430   30.0400   43.9510 H   0  0  0  0  0  0  0  0  0  0  0  0
   36.3910   24.0480   39.8850 C   0  0  0  0  0  0  0  0  0  0  0  0
   36.8740   24.9300   40.8550 C   0  0  0  0  0  0  0  0  0  0  0  0
   36.8870   26.2690   40.5660 C   0  0  0  0  0  0  0  0  0  0  0  0
   36.4220   26.6600   39.3340 N   0  0  0  0  0  0  0  0  0  0  0  0
   35.9610   25.7990   38.4120 C   0  0  0  0  0  0  0  0  0  0  0  0
   35.9470   24.4900   38.6920 N   0  0  0  0  0  0  0  0  0  0  0  0
   36.3960   22.9830   40.1520 H   0  0  0  0  0  0  0  0  0  0  0  0
   37.2410   24.6450   41.8240 H   0  0  0  0  0  0  0  0  0  0  0  0
   35.6110   26.1810   37.4640 H   0  0  0  0  0  0  0  0  0  0  0  0
   39.2090   30.4080   41.2510 O   0  0  0  0  0  0  0  0  0  0  0  0
   36.9730   31.7340   40.7920 O   0  0  0  0  0  0  0  0  0  0  0  0
   38.4610   31.7950   40.5800 P   0  0  1  0  0  0  0  0  0  0  0  0
   39.0950   33.1630   41.3150 O   0  0  0  0  0  0  0  0  0  0  0  0
   39.8350   33.5840   40.8420 H   0  0  0  0  0  0  0  0  0  0  0  0
   38.7900   31.7810   38.8990 O   0  0  0  0  0  0  0  0  0  0  0  0
   39.9450   32.3250   38.3700 C   0  0  0  0  0  0  0  0  0  0  0  0
   40.9250   32.7830   38.9710 O   0  0  0  0  0  0  0  0  0  0  0  0
   39.8850   32.3010   36.9300 N   0  0  0  0  0  0  0  0  0  0  0  0
   40.1650   31.3240   36.6430 H   0  0  0  0  0  0  0  0  0  0  0  0
   39.7280   32.6740   35.9610 H   0  0  0  0  0  0  0  0  0  0  0  0
  1  2  1  0  0  0  0
  2  7  1  0  0  0  0
  2  3  2  0  0  0  0
  3  8  1  0  0  0  0
  4  3  1  0  0  0  0
  4  9  1  0  0  0  0
  5  4  2  0  0  0  0
  6  1  2  0  0  0  0
  6  5  1  0  0  0  0
 10 16  1  0  0  0  0
 10 11  1  0  0  0  0
 11 17  1  0  0  0  0
 12 11  2  0  0  0  0
 12  1  1  0  0  0  0
 13 12  1  0  0  0  0
 14 15  1  0  0  0  0
 14 13  2  0  0  0  0
 15 10  2  0  0  0  0
 18 14  1  0  0  0  0
 19  5  1  0  0  0  0
 21 20  2  1  0  0  0
 21 19  1  0  0  0  0
 21 22  1  0  0  0  0
 23 22  1  0  0  0  0
 24 21  1  0  0  0  0
 25 24  1  0  0  0  0
 25 26  2  0  0  0  0
 27 25  1  0  0  0  0
 28 27  1  0  0  0  0
 29 27  1  0  0  0  0
M  END
>  <minimizedAffinity>
-5.09567785

$$$$

 OpenBabel03242521593D

 29 30  0  0  0  0  0  0  0  0999 V2000
   38.0780   26.4200   41.8790 C   0  0  0  0  0  0  0  0  0  0  0  0
   37.0140   26.4540   42.7580 C   0  0  0  0  0  0  0  0  0  0  0  0
   36.6750   27.5380   43.5620 C   0  0  0  0  0  0  0  0  0  0  0  0
   37.4610   28.6680   43.4770 C   0  0  0  0  0  0  0  0  0  0  0  0
   38.4970   28.6220   42.6100 C   0  0  0  0  0  0  0  0  0  0  0  0
   38.7910   27.5630   41.8560 N   0  0  0  0  0  0  0  0  0  0  0  0
   36.4350   25.5130   42.7690 H   0  0  0  0  0  0  0  0  0  0  0  0
   35.7990   27.3470   44.1790 H   0  0  0  0  0  0  0  0  0  0  0  0
   37.0640   29.3840   44.1730 H   0  0  0  0  0  0  0  0  0  0  0  0
   39.5510   23.9960   39.4160 C   0  0  0  0  0  0  0  0  0  0  0  0
   39.3740   25.2020   40.0980 C   0  0  0  0  0  0  0  0  0  0  0  0
   38.4080   25.2630   41.0680 C   0  0  0  0  0  0  0  0  0  0  0  0
   37.6730   24.1270   41.3100 N   0  0  0  0  0  0  0  0  0  0  0  0
   37.8570   22.9750   40.6440 C   0  0  0  0  0  0  0  0  0  0  0  0
   38.7990   22.9130   39.6960 N   0  0  0  0  0  0  0  0  0  0  0  0
   40.3330   23.9850   38.6450 H   0  0  0  0  0  0  0  0  0  0  0  0
   39.9370   26.1010   39.9250 H   0  0  0  0  0  0  0  0  0  0  0  0
   37.2400   22.1230   40.8890 H   0  0  0  0  0  0  0  0  0  0  0  0
   39.2940   29.7500   42.5100 O   0  0  0  0  0  0  0  0  0  0  0  0
   40.4920   31.6950   41.1890 O   0  0  0  0  0  0  0  0  0  0  0  0
   39.3330   30.7390   41.1120 P   0  0  1  0  0  0  0  0  0  0  0  0
   39.4760   29.7610   39.7570 O   0  0  0  0  0  0  0  0  0  0  0  0
   38.6380   29.5300   39.3210 H   0  0  0  0  0  0  0  0  0  0  0  0
   37.8710   31.6320   41.0860 O   0  0  0  0  0  0  0  0  0  0  0  0
   36.7610   31.2050   40.3810 C   0  0  0  0  0  0  0  0  0  0  0  0
   36.6410   31.0360   39.1610 O   0  0  0  0  0  0  0  0  0  0  0  0
   35.6690   30.9550   41.2900 N   0  0  0  0  0  0  0  0  0  0  0  0
   35.8370   29.9920   41.6890 H   0  0  0  0  0  0  0  0  0  0  0  0
   34.7810   31.1520   41.8130 H   0  0  0  0  0  0  0  0  0  0  0  0
  1  2  1  0  0  0  0
  2  7  1  0  0  0  0
  2  3  2  0  0  0  0
  3  8  1  0  0  0  0
  4  3  1  0  0  0  0
  4  9  1  0  0  0  0
  5  4  2  0  0  0  0
  6  1  2  0  0  0  0
  6  5  1  0  0  0  0
 10 15  2  0  0  0  0
 10 11  1  0  0  0  0
 11 12  2  0  0  0  0
 12 13  1  0  0  0  0
 12  1  1  0  0  0  0
 14 18  1  0  0  0  0
 14 13  2  0  0  0  0
 15 14  1  0  0  0  0
 16 10  1  0  0  0  0
 17 11  1  0  0  0  0
 19  5  1  0  0  0  0
 21 20  2  1  0  0  0
 21 19  1  0  0  0  0
 22 21  1  0  0  0  0
 23 22  1  0  0  0  0
 24 21  1  0  0  0  0
 25 24  1  0  0  0  0
 25 27  1  0  0  0  0
 26 25  2  0  0  0  0
 27 28  1  0  0  0  0
 27 29  1  0  0  0  0
M  END
>  <minimizedAffinity>
-5.05810118

$$$$

 OpenBabel03242521593D

 29 30  0  0  0  0  0  0  0  0999 V2000
   36.3320   28.2400   39.3700 C   0  0  0  0  0  0  0  0  0  0  0  0
   35.4670   27.8630   38.3630 C   0  0  0  0  0  0  0  0  0  0  0  0
   35.1330   28.6460   37.2620 C   0  0  0  0  0  0  0  0  0  0  0  0
   35.7070   29.8960   37.1680 C   0  0  0  0  0  0  0  0  0  0  0  0
   36.5540   30.2510   38.1610 C   0  0  0  0  0  0  0  0  0  0  0  0
   36.8500   29.4710   39.2010 N   0  0  0  0  0  0  0  0  0  0  0  0
   35.0500   26.8510   38.5100 H   0  0  0  0  0  0  0  0  0  0  0  0
   34.4320   28.1510   36.5910 H   0  0  0  0  0  0  0  0  0  0  0  0
   35.3230   30.3560   36.2770 H   0  0  0  0  0  0  0  0  0  0  0  0
   37.2370   25.4180   41.6810 C   0  0  0  0  0  0  0  0  0  0  0  0
   36.9660   26.0680   40.4740 C   0  0  0  0  0  0  0  0  0  0  0  0
   36.6440   27.3990   40.5110 C   0  0  0  0  0  0  0  0  0  0  0  0
   36.6110   28.0130   41.7410 N   0  0  0  0  0  0  0  0  0  0  0  0
   36.8750   27.3730   42.8920 C   0  0  0  0  0  0  0  0  0  0  0  0
   37.1880   26.0720   42.8570 N   0  0  0  0  0  0  0  0  0  0  0  0
   37.4900   24.3520   41.6110 H   0  0  0  0  0  0  0  0  0  0  0  0
   36.9870   25.6070   39.5030 H   0  0  0  0  0  0  0  0  0  0  0  0
   36.8280   27.9220   43.8210 H   0  0  0  0  0  0  0  0  0  0  0  0
   37.1420   31.5010   38.0790 O   0  0  0  0  0  0  0  0  0  0  0  0
   36.9740   33.9200   39.1220 O   0  0  0  0  0  0  0  0  0  0  0  0
   37.3800   32.5080   39.4440 P   0  0  1  0  0  0  0  0  0  0  0  0
   36.4660   31.9190   40.7210 O   0  0  0  0  0  0  0  0  0  0  0  0
   36.9380   31.3250   41.3310 H   0  0  0  0  0  0  0  0  0  0  0  0
   39.0540   32.4750   39.8080 O   0  0  0  0  0  0  0  0  0  0  0  0
   39.6760   33.4960   40.5020 C   0  0  0  0  0  0  0  0  0  0  0  0
   40.8610   33.8510   40.4510 O   0  0  0  0  0  0  0  0  0  0  0  0
   38.7250   34.1560   41.3610 N   0  0  0  0  0  0  0  0  0  0  0  0
   38.2020   34.8380   40.7470 H   0  0  0  0  0  0  0  0  0  0  0  0
   38.2190   34.3810   42.2530 H   0  0  0  0  0  0  0  0  0  0  0  0
  1 12  1  0  0  0  0
  2  7  1  0  0  0  0
  2  1  2  0  0  0  0
  3  2  1  0  0  0  0
  4  3  2  0  0  0  0
  4  5  1  0  0  0  0
  5  6  2  0  0  0  0
  6  1  1  0  0  0  0
  8  3  1  0  0  0  0
  9  4  1  0  0  0  0
 10 15  1  0  0  0  0
 11 12  1  0  0  0  0
 11 10  2  0  0  0  0
 12 13  2  0  0  0  0
 13 14  1  0  0  0  0
 14 18  1  0  0  0  0
 15 14  2  0  0  0  0
 16 10  1  0  0  0  0
 17 11  1  0  0  0  0
 19  5  1  0  0  0  0
 19 21  1  0  0  0  0
 21 20  2  6  0  0  0
 21 24  1  0  0  0  0
 21 22  1  0  0  0  0
 22 23  1  0  0  0  0
 24 25  1  0  0  0  0
 25 27  1  0  0  0  0
 26 25  2  0  0  0  0
 27 29  1  0  0  0  0
 28 27  1  0  0  0  0
M  END
>  <minimizedAffinity>
-4.95694923

$$$$

 OpenBabel03242521593D

 29 30  0  0  0  0  0  0  0  0999 V2000
   37.2740   27.8840   40.8660 C   0  0  0  0  0  0  0  0  0  0  0  0
   35.9120   28.0260   40.6860 C   0  0  0  0  0  0  0  0  0  0  0  0
   35.2570   29.2350   40.4710 C   0  0  0  0  0  0  0  0  0  0  0  0
   36.0220   30.3810   40.4370 C   0  0  0  0  0  0  0  0  0  0  0  0
   37.3530   30.2270   40.6140 C   0  0  0  0  0  0  0  0  0  0  0  0
   37.9460   29.0500   40.8160 N   0  0  0  0  0  0  0  0  0  0  0  0
   35.3700   27.0650   40.7260 H   0  0  0  0  0  0  0  0  0  0  0  0
   34.1800   29.1150   40.3540 H   0  0  0  0  0  0  0  0  0  0  0  0
   35.3520   31.2070   40.2830 H   0  0  0  0  0  0  0  0  0  0  0  0
   39.6310   24.9630   41.0120 C   0  0  0  0  0  0  0  0  0  0  0  0
   39.1740   26.2430   40.6900 C   0  0  0  0  0  0  0  0  0  0  0  0
   37.9190   26.6060   41.1030 C   0  0  0  0  0  0  0  0  0  0  0  0
   37.1870   25.6820   41.8100 N   0  0  0  0  0  0  0  0  0  0  0  0
   37.6430   24.4550   42.1100 C   0  0  0  0  0  0  0  0  0  0  0  0
   38.8690   24.0980   41.7080 N   0  0  0  0  0  0  0  0  0  0  0  0
   40.6420   24.7070   40.6640 H   0  0  0  0  0  0  0  0  0  0  0  0
   39.7290   26.9800   40.1390 H   0  0  0  0  0  0  0  0  0  0  0  0
   37.0100   23.7810   42.6690 H   0  0  0  0  0  0  0  0  0  0  0  0
   38.1370   31.3670   40.5780 O   0  0  0  0  0  0  0  0  0  0  0  0
   37.7250   31.9340   38.0330 O   0  0  0  0  0  0  0  0  0  0  0  0
   37.9710   32.5730   39.3730 P   0  0  1  0  0  0  0  0  0  0  0  0
   36.6900   33.5760   39.7800 O   0  0  0  0  0  0  0  0  0  0  0  0
   36.9330   34.3840   40.2660 H   0  0  0  0  0  0  0  0  0  0  0  0
   39.4490   33.4380   39.3190 O   0  0  0  0  0  0  0  0  0  0  0  0
   40.0590   33.9240   40.4600 C   0  0  0  0  0  0  0  0  0  0  0  0
   41.2600   34.1490   40.6550 O   0  0  0  0  0  0  0  0  0  0  0  0
   39.0700   34.1610   41.4820 N   0  0  0  0  0  0  0  0  0  0  0  0
   38.6420   35.1000   41.2620 H   0  0  0  0  0  0  0  0  0  0  0  0
   38.4980   33.9630   42.3400 H   0  0  0  0  0  0  0  0  0  0  0  0
  1 12  1  0  0  0  0
  2  7  1  0  0  0  0
  2  1  2  0  0  0  0
  3  2  1  0  0  0  0
  4  3  2  0  0  0  0
  4  5  1  0  0  0  0
  5  6  2  0  0  0  0
  6  1  1  0  0  0  0
  8  3  1  0  0  0  0
  9  4  1  0  0  0  0
 10 15  1  0  0  0  0
 11 10  2  0  0  0  0
 11 12  1  0  0  0  0
 12 13  2  0  0  0  0
 13 14  1  0  0  0  0
 14 18  1  0  0  0  0
 15 14  2  0  0  0  0
 16 10  1  0  0  0  0
 17 11  1  0  0  0  0
 19  5  1  0  0  0  0
 21 20  2  6  0  0  0
 21 22  1  0  0  0  0
 21 19  1  0  0  0  0
 22 23  1  0  0  0  0
 24 21  1  0  0  0  0
 24 25  1  0  0  0  0
 25 26  2  0  0  0  0
 25 27  1  0  0  0  0
 27 29  1  0  0  0  0
 28 27  1  0  0  0  0
M  END
>  <minimizedAffinity>
-4.94218731

$$$$

 OpenBabel03242521593D

 29 30  0  0  0  0  0  0  0  0999 V2000
   37.8140   28.1590   41.7670 C   0  0  0  0  0  0  0  0  0  0  0  0
   36.5160   28.2310   41.3020 C   0  0  0  0  0  0  0  0  0  0  0  0
   35.8960   29.3870   40.8380 C   0  0  0  0  0  0  0  0  0  0  0  0
   36.6310   30.5540   40.8430 C   0  0  0  0  0  0  0  0  0  0  0  0
   37.9010   30.4680   41.2990 C   0  0  0  0  0  0  0  0  0  0  0  0
   38.4610   29.3400   41.7360 N   0  0  0  0  0  0  0  0  0  0  0  0
   35.9940   27.2580   41.3300 H   0  0  0  0  0  0  0  0  0  0  0  0
   34.8690   29.2150   40.5190 H   0  0  0  0  0  0  0  0  0  0  0  0
   35.9920   31.3340   40.4740 H   0  0  0  0  0  0  0  0  0  0  0  0
   38.7540   24.5970   42.5020 C   0  0  0  0  0  0  0  0  0  0  0  0
   38.0500   25.6580   41.9280 C   0  0  0  0  0  0  0  0  0  0  0  0
   38.4200   26.9360   42.2580 C   0  0  0  0  0  0  0  0  0  0  0  0
   39.4650   27.0900   43.1370 N   0  0  0  0  0  0  0  0  0  0  0  0
   40.1310   26.0580   43.6800 C   0  0  0  0  0  0  0  0  0  0  0  0
   39.7710   24.8090   43.3590 N   0  0  0  0  0  0  0  0  0  0  0  0
   38.4290   23.5880   42.2140 H   0  0  0  0  0  0  0  0  0  0  0  0
   37.2310   25.5600   41.2390 H   0  0  0  0  0  0  0  0  0  0  0  0
   40.9430   26.2570   44.3640 H   0  0  0  0  0  0  0  0  0  0  0  0
   38.6540   31.6290   41.3070 O   0  0  0  0  0  0  0  0  0  0  0  0
   40.9400   32.8890   40.9150 O   0  0  0  0  0  0  0  0  0  0  0  0
   40.0320   31.8510   40.3140 P   0  0  1  0  0  0  0  0  0  0  0  0
   40.8390   30.3880   40.1700 O   0  0  0  0  0  0  0  0  0  0  0  0
   40.6100   29.8620   39.3840 H   0  0  0  0  0  0  0  0  0  0  0  0
   39.4740   32.4080   38.7930 O   0  0  0  0  0  0  0  0  0  0  0  0
   39.0740   31.5400   37.7940 C   0  0  0  0  0  0  0  0  0  0  0  0
   38.8890   30.3180   37.8640 O   0  0  0  0  0  0  0  0  0  0  0  0
   38.8780   32.2660   36.5640 N   0  0  0  0  0  0  0  0  0  0  0  0
   37.9170   32.6970   36.6290 H   0  0  0  0  0  0  0  0  0  0  0  0
   39.1160   32.6380   35.6110 H   0  0  0  0  0  0  0  0  0  0  0  0
  1 12  1  0  0  0  0
  2  7  1  0  0  0  0
  2  1  2  0  0  0  0
  3  4  2  0  0  0  0
  3  2  1  0  0  0  0
  4  5  1  0  0  0  0
  5 19  1  0  0  0  0
  5  6  2  0  0  0  0
  6  1  1  0  0  0  0
  8  3  1  0  0  0  0
  9  4  1  0  0  0  0
 10 15  1  0  0  0  0
 11 12  1  0  0  0  0
 11 10  2  0  0  0  0
 12 13  2  0  0  0  0
 13 14  1  0  0  0  0
 14 18  1  0  0  0  0
 15 14  2  0  0  0  0
 16 10  1  0  0  0  0
 17 11  1  0  0  0  0
 21 20  2  1  0  0  0
 21 19  1  0  0  0  0
 22 21  1  0  0  0  0
 23 22  1  0  0  0  0
 24 21  1  0  0  0  0
 25 26  2  0  0  0  0
 25 24  1  0  0  0  0
 27 28  1  0  0  0  0
 27 25  1  0  0  0  0
 29 27  1  0  0  0  0
M  END
>  <minimizedAffinity>
-4.82875967

$$$$
