
 OpenBabel03252507103D

 32 33  0  0  1  0  0  0  0  0999 V2000
   35.4240   28.9960   40.6580 C   0  0  0  0  0  0  0  0  0  0  0  0
   35.7850   30.3240   40.3450 C   0  0  0  0  0  0  0  0  0  0  0  0
   36.9440   30.8130   40.9390 C   0  0  0  0  0  0  0  0  0  0  0  0
   37.6550   30.0250   41.7630 N   0  0  0  0  0  0  0  0  0  0  0  0
   37.2970   28.7690   42.0460 C   0  0  0  0  0  0  0  0  0  0  0  0
   36.1710   28.2520   41.4880 N   0  0  0  0  0  0  0  0  0  0  0  0
   34.5250   28.5720   40.2160 H   0  0  0  0  0  0  0  0  0  0  0  0
   35.1310   30.8600   39.6670 H   0  0  0  0  0  0  0  0  0  0  0  0
   38.2780   26.4860   42.4080 C   0  0  1  0  0  0  0  0  0  0  0  0
   38.0280   27.8630   42.9480 C   0  0  1  0  0  0  0  0  0  0  0  0
   39.4860   28.3340   43.0900 C   0  0  0  0  0  0  0  0  0  0  0  0
   40.2490   27.2320   43.3130 O   0  0  0  0  0  0  0  0  0  0  0  0
   39.4370   26.0960   43.3270 C   0  0  0  0  0  0  0  0  0  0  0  0
   38.7140   26.5320   41.3760 H   0  0  0  0  0  0  0  0  0  0  0  0
   37.5440   27.8120   43.9290 H   0  0  0  0  0  0  0  0  0  0  0  0
   39.7880   29.0100   42.2930 H   0  0  0  0  0  0  0  0  0  0  0  0
   39.4930   28.9420   44.0360 H   0  0  0  0  0  0  0  0  0  0  0  0
   39.0070   25.8930   44.3200 H   0  0  0  0  0  0  0  0  0  0  0  0
   40.0220   25.2530   42.9020 H   0  0  0  0  0  0  0  0  0  0  0  0
   37.2050   25.6470   42.4660 O   0  0  0  0  0  0  0  0  0  0  0  0
   37.0560   25.1720   41.6190 H   0  0  0  0  0  0  0  0  0  0  0  0
   37.2860   32.1200   40.6210 O   0  0  0  0  0  0  0  0  0  0  0  0
   39.0360   33.9480   39.7990 O   0  0  0  0  0  0  0  0  0  0  0  0
   38.9360   32.5300   40.3480 P   0  0  1  0  0  0  0  0  0  0  0  0
   39.7540   32.3750   41.7890 O   0  0  0  0  0  0  0  0  0  0  0  0
   39.6730   31.4660   42.1190 H   0  0  0  0  0  0  0  0  0  0  0  0
   39.5070   31.4500   39.1830 O   0  0  0  0  0  0  0  0  0  0  0  0
   39.1020   31.4940   37.8580 C   0  0  0  0  0  0  0  0  0  0  0  0
   38.1780   30.7570   37.4620 O   0  0  0  0  0  0  0  0  0  0  0  0
   39.7540   32.3920   36.9520 N   0  0  0  0  0  0  0  0  0  0  0  0
   40.6080   32.9090   37.2570 H   0  0  0  0  0  0  0  0  0  0  0  0
   39.3720   32.5270   35.9890 H   0  0  0  0  0  0  0  0  0  0  0  0
  1  6  1  0  0  0  0
  2  1  2  0  0  0  0
  2  3  1  0  0  0  0
  3  4  2  0  0  0  0
  4  5  1  0  0  0  0
  5 10  1  0  0  0  0
  6  5  2  0  0  0  0
  7  1  1  0  0  0  0
  8  2  1  0  0  0  0
  9 14  1  6  0  0  0
  9 20  1  0  0  0  0
  9 10  1  0  0  0  0
  9 13  1  0  0  0  0
 10 11  1  0  0  0  0
 10 15  1  1  0  0  0
 11 12  1  0  0  0  0
 11 17  1  0  0  0  0
 12 13  1  0  0  0  0
 13 18  1  0  0  0  0
 16 11  1  0  0  0  0
 19 13  1  0  0  0  0
 21 20  1  0  0  0  0
 22  3  1  0  0  0  0
 24 23  2  6  0  0  0
 24 22  1  0  0  0  0
 24 25  1  0  0  0  0
 25 26  1  0  0  0  0
 27 24  1  0  0  0  0
 28 27  1  0  0  0  0
 29 28  2  0  0  0  0
 30 31  1  0  0  0  0
 30 28  1  0  0  0  0
 32 30  1  0  0  0  0
M  END
>  <minimizedAffinity>
-5.37863445

$$$$

 OpenBabel03252507103D

 32 33  0  0  1  0  0  0  0  0999 V2000
   38.5320   27.7450   43.5760 C   0  0  0  0  0  0  0  0  0  0  0  0
   37.9770   28.9930   43.2190 C   0  0  0  0  0  0  0  0  0  0  0  0
   37.2930   29.0490   42.0090 C   0  0  0  0  0  0  0  0  0  0  0  0
   37.1900   27.9460   41.2480 N   0  0  0  0  0  0  0  0  0  0  0  0
   37.7220   26.7740   41.6050 C   0  0  0  0  0  0  0  0  0  0  0  0
   38.3980   26.6740   42.7790 N   0  0  0  0  0  0  0  0  0  0  0  0
   39.0750   27.6540   44.5130 H   0  0  0  0  0  0  0  0  0  0  0  0
   38.1270   29.8100   43.9140 H   0  0  0  0  0  0  0  0  0  0  0  0
   37.1180   24.3370   41.5380 C   0  0  1  0  0  0  0  0  0  0  0  0
   37.6510   25.5360   40.8090 C   0  0  1  0  0  0  0  0  0  0  0  0
   36.5570   25.6680   39.7350 C   0  0  0  0  0  0  0  0  0  0  0  0
   36.0610   24.4260   39.5040 O   0  0  0  0  0  0  0  0  0  0  0  0
   36.7150   23.5020   40.3220 C   0  0  0  0  0  0  0  0  0  0  0  0
   36.1600   24.5810   42.0670 H   0  0  0  0  0  0  0  0  0  0  0  0
   38.6180   25.3100   40.3480 H   0  0  0  0  0  0  0  0  0  0  0  0
   35.8520   26.4680   39.9510 H   0  0  0  0  0  0  0  0  0  0  0  0
   37.1130   25.9820   38.8090 H   0  0  0  0  0  0  0  0  0  0  0  0
   37.6450   23.1190   39.8710 H   0  0  0  0  0  0  0  0  0  0  0  0
   35.9850   22.7130   40.5980 H   0  0  0  0  0  0  0  0  0  0  0  0
   38.0140   23.7300   42.3680 O   0  0  0  0  0  0  0  0  0  0  0  0
   37.6330   23.5410   43.2540 H   0  0  0  0  0  0  0  0  0  0  0  0
   36.7530   30.2830   41.6720 O   0  0  0  0  0  0  0  0  0  0  0  0
   37.7190   30.4910   39.2020 O   0  0  0  0  0  0  0  0  0  0  0  0
   37.5390   31.2690   40.5000 P   0  0  1  0  0  0  0  0  0  0  0  0
   36.6170   32.6350   40.2680 O   0  0  0  0  0  0  0  0  0  0  0  0
   36.5140   33.1100   41.1080 H   0  0  0  0  0  0  0  0  0  0  0  0
   39.0600   31.6380   41.1330 O   0  0  0  0  0  0  0  0  0  0  0  0
   39.6540   32.8810   40.9790 C   0  0  0  0  0  0  0  0  0  0  0  0
   40.8150   32.9690   40.5350 O   0  0  0  0  0  0  0  0  0  0  0  0
   38.9210   34.0590   41.3340 N   0  0  0  0  0  0  0  0  0  0  0  0
   38.0040   33.9740   41.8240 H   0  0  0  0  0  0  0  0  0  0  0  0
   39.3080   35.0020   41.1020 H   0  0  0  0  0  0  0  0  0  0  0  0
  1  7  1  0  0  0  0
  2  1  1  0  0  0  0
  2  8  1  0  0  0  0
  3  2  2  0  0  0  0
  4  5  2  0  0  0  0
  4  3  1  0  0  0  0
  5  6  1  0  0  0  0
  6  1  2  0  0  0  0
  9 14  1  1  0  0  0
  9 20  1  0  0  0  0
 10 15  1  6  0  0  0
 10  9  1  0  0  0  0
 10  5  1  0  0  0  0
 11 16  1  0  0  0  0
 11 10  1  0  0  0  0
 12 11  1  0  0  0  0
 12 13  1  0  0  0  0
 13 19  1  0  0  0  0
 13  9  1  0  0  0  0
 17 11  1  0  0  0  0
 18 13  1  0  0  0  0
 20 21  1  0  0  0  0
 22  3  1  0  0  0  0
 24 23  2  6  0  0  0
 24 27  1  0  0  0  0
 24 22  1  0  0  0  0
 25 24  1  0  0  0  0
 25 26  1  0  0  0  0
 28 27  1  0  0  0  0
 28 30  1  0  0  0  0
 29 28  2  0  0  0  0
 30 31  1  0  0  0  0
 32 30  1  0  0  0  0
M  END
>  <minimizedAffinity>
-5.35927391

$$$$

 OpenBabel03252507103D

 32 33  0  0  1  0  0  0  0  0999 V2000
   39.2100   28.8700   37.9970 C   0  0  0  0  0  0  0  0  0  0  0  0
   38.8680   28.0030   39.0580 C   0  0  0  0  0  0  0  0  0  0  0  0
   38.6160   28.5950   40.2910 C   0  0  0  0  0  0  0  0  0  0  0  0
   38.7060   29.9300   40.4220 N   0  0  0  0  0  0  0  0  0  0  0  0
   39.0310   30.7330   39.4050 C   0  0  0  0  0  0  0  0  0  0  0  0
   39.2850   30.1960   38.1830 N   0  0  0  0  0  0  0  0  0  0  0  0
   39.4150   28.4510   37.0150 H   0  0  0  0  0  0  0  0  0  0  0  0
   38.8280   26.9450   38.8290 H   0  0  0  0  0  0  0  0  0  0  0  0
   38.3450   32.8470   40.5740 C   0  0  1  0  0  0  0  0  0  0  0  0
   39.1550   32.1980   39.4900 C   0  0  1  0  0  0  0  0  0  0  0  0
   40.5630   32.5740   39.9860 C   0  0  0  0  0  0  0  0  0  0  0  0
   40.4540   33.7430   40.6700 O   0  0  0  0  0  0  0  0  0  0  0  0
   39.1220   34.1600   40.6730 C   0  0  0  0  0  0  0  0  0  0  0  0
   38.5000   32.3290   41.5570 H   0  0  0  0  0  0  0  0  0  0  0  0
   38.9510   32.6660   38.5220 H   0  0  0  0  0  0  0  0  0  0  0  0
   41.0720   31.7440   40.4710 H   0  0  0  0  0  0  0  0  0  0  0  0
   41.1410   32.7910   39.0460 H   0  0  0  0  0  0  0  0  0  0  0  0
   38.8610   34.7570   39.7840 H   0  0  0  0  0  0  0  0  0  0  0  0
   38.9270   34.6720   41.6390 H   0  0  0  0  0  0  0  0  0  0  0  0
   37.0200   32.9940   40.2850 O   0  0  0  0  0  0  0  0  0  0  0  0
   36.4420   32.6980   41.0220 H   0  0  0  0  0  0  0  0  0  0  0  0
   38.2800   27.7300   41.3230 O   0  0  0  0  0  0  0  0  0  0  0  0
   36.6860   26.9420   43.3020 O   0  0  0  0  0  0  0  0  0  0  0  0
   36.9560   28.1060   42.3570 P   0  0  1  0  0  0  0  0  0  0  0  0
   37.3270   29.4960   43.1930 O   0  0  0  0  0  0  0  0  0  0  0  0
   37.4970   30.2210   42.5700 H   0  0  0  0  0  0  0  0  0  0  0  0
   35.6150   28.3170   41.3520 O   0  0  0  0  0  0  0  0  0  0  0  0
   35.4480   29.4360   40.5510 C   0  0  0  0  0  0  0  0  0  0  0  0
   35.2070   29.3040   39.3350 O   0  0  0  0  0  0  0  0  0  0  0  0
   35.5540   30.7400   41.1330 N   0  0  0  0  0  0  0  0  0  0  0  0
   35.8820   30.8450   42.1180 H   0  0  0  0  0  0  0  0  0  0  0  0
   35.3030   31.5830   40.5690 H   0  0  0  0  0  0  0  0  0  0  0  0
  1  6  2  0  0  0  0
  1  2  1  0  0  0  0
  2  3  2  0  0  0  0
  3  4  1  0  0  0  0
  3 22  1  0  0  0  0
  5 10  1  0  0  0  0
  5  4  2  0  0  0  0
  6  5  1  0  0  0  0
  7  1  1  0  0  0  0
  8  2  1  0  0  0  0
  9 13  1  0  0  0  0
  9 14  1  1  0  0  0
 10 15  1  6  0  0  0
 10 11  1  0  0  0  0
 10  9  1  0  0  0  0
 11 16  1  0  0  0  0
 11 12  1  0  0  0  0
 12 13  1  0  0  0  0
 13 19  1  0  0  0  0
 17 11  1  0  0  0  0
 18 13  1  0  0  0  0
 20  9  1  0  0  0  0
 20 21  1  0  0  0  0
 22 24  1  0  0  0  0
 24 25  1  0  0  0  0
 24 23  2  1  0  0  0
 26 25  1  0  0  0  0
 27 24  1  0  0  0  0
 28 30  1  0  0  0  0
 28 27  1  0  0  0  0
 29 28  2  0  0  0  0
 30 31  1  0  0  0  0
 32 30  1  0  0  0  0
M  END
>  <minimizedAffinity>
-5.27334452

$$$$

 OpenBabel03252507103D

 32 33  0  0  1  0  0  0  0  0999 V2000
   39.6800   29.9720   42.2930 C   0  0  0  0  0  0  0  0  0  0  0  0
   40.3510   28.8840   42.8910 C   0  0  0  0  0  0  0  0  0  0  0  0
   39.6520   27.6830   42.9620 C   0  0  0  0  0  0  0  0  0  0  0  0
   38.4030   27.6070   42.4730 N   0  0  0  0  0  0  0  0  0  0  0  0
   37.7860   28.6500   41.9100 C   0  0  0  0  0  0  0  0  0  0  0  0
   38.4310   29.8420   41.8200 N   0  0  0  0  0  0  0  0  0  0  0  0
   40.1870   30.9310   42.2160 H   0  0  0  0  0  0  0  0  0  0  0  0
   41.3560   29.0680   43.2490 H   0  0  0  0  0  0  0  0  0  0  0  0
   35.9910   29.8820   40.6560 C   0  0  1  0  0  0  0  0  0  0  0  0
   36.4160   28.6300   41.3670 C   0  0  1  0  0  0  0  0  0  0  0  0
   36.3360   27.6460   40.1880 C   0  0  0  0  0  0  0  0  0  0  0  0
   35.3840   28.1070   39.3370 O   0  0  0  0  0  0  0  0  0  0  0  0
   34.8410   29.2910   39.8400 C   0  0  0  0  0  0  0  0  0  0  0  0
   36.7620   30.1990   39.9060 H   0  0  0  0  0  0  0  0  0  0  0  0
   35.6910   28.3610   42.1430 H   0  0  0  0  0  0  0  0  0  0  0  0
   37.3140   27.4040   39.7770 H   0  0  0  0  0  0  0  0  0  0  0  0
   35.9440   26.6950   40.6440 H   0  0  0  0  0  0  0  0  0  0  0  0
   34.0080   29.1130   40.5390 H   0  0  0  0  0  0  0  0  0  0  0  0
   34.5830   29.9420   38.9780 H   0  0  0  0  0  0  0  0  0  0  0  0
   35.6320   30.9100   41.4770 O   0  0  0  0  0  0  0  0  0  0  0  0
   36.0470   31.7600   41.2140 H   0  0  0  0  0  0  0  0  0  0  0  0
   40.3250   26.6220   43.5510 O   0  0  0  0  0  0  0  0  0  0  0  0
   40.8590   25.6670   41.1260 O   0  0  0  0  0  0  0  0  0  0  0  0
   40.7930   25.2690   42.5950 P   0  0  1  0  0  0  0  0  0  0  0  0
   42.2660   24.7270   43.1470 O   0  0  0  0  0  0  0  0  0  0  0  0
   42.1990   24.4830   44.0840 H   0  0  0  0  0  0  0  0  0  0  0  0
   39.5830   24.1080   42.7930 O   0  0  0  0  0  0  0  0  0  0  0  0
   38.4980   24.0030   41.9380 C   0  0  0  0  0  0  0  0  0  0  0  0
   38.5460   23.2360   40.9570 O   0  0  0  0  0  0  0  0  0  0  0  0
   37.3240   24.7840   42.1910 N   0  0  0  0  0  0  0  0  0  0  0  0
   37.3370   25.5170   42.9340 H   0  0  0  0  0  0  0  0  0  0  0  0
   36.4580   24.6180   41.6310 H   0  0  0  0  0  0  0  0  0  0  0  0
  1  2  1  0  0  0  0
  2  3  2  0  0  0  0
  2  8  1  0  0  0  0
  3 22  1  0  0  0  0
  4  3  1  0  0  0  0
  5  4  2  0  0  0  0
  6  5  1  0  0  0  0
  6  1  2  0  0  0  0
  7  1  1  0  0  0  0
  9 14  1  6  0  0  0
  9 10  1  0  0  0  0
  9 20  1  0  0  0  0
 10  5  1  0  0  0  0
 10 15  1  1  0  0  0
 11 17  1  0  0  0  0
 11 10  1  0  0  0  0
 12 13  1  0  0  0  0
 12 11  1  0  0  0  0
 13 18  1  0  0  0  0
 13  9  1  0  0  0  0
 16 11  1  0  0  0  0
 19 13  1  0  0  0  0
 21 20  1  0  0  0  0
 24 23  2  6  0  0  0
 24 27  1  0  0  0  0
 24 25  1  0  0  0  0
 24 22  1  0  0  0  0
 25 26  1  0  0  0  0
 28 30  1  0  0  0  0
 28 27  1  0  0  0  0
 29 28  2  0  0  0  0
 30 31  1  0  0  0  0
 32 30  1  0  0  0  0
M  END
>  <minimizedAffinity>
-5.20667791

$$$$

 OpenBabel03252507103D

 32 33  0  0  1  0  0  0  0  0999 V2000
   39.6020   27.6540   42.6960 C   0  0  0  0  0  0  0  0  0  0  0  0
   40.3660   28.8380   42.7850 C   0  0  0  0  0  0  0  0  0  0  0  0
   39.7550   30.0100   42.3520 C   0  0  0  0  0  0  0  0  0  0  0  0
   38.4970   29.9710   41.8790 N   0  0  0  0  0  0  0  0  0  0  0  0
   37.7910   28.8400   41.8040 C   0  0  0  0  0  0  0  0  0  0  0  0
   38.3500   27.6720   42.2160 N   0  0  0  0  0  0  0  0  0  0  0  0
   40.0400   26.7140   43.0240 H   0  0  0  0  0  0  0  0  0  0  0  0
   41.3690   28.7420   43.1830 H   0  0  0  0  0  0  0  0  0  0  0  0
   35.9220   29.9340   40.5330 C   0  0  1  0  0  0  0  0  0  0  0  0
   36.4160   28.7340   41.2860 C   0  0  1  0  0  0  0  0  0  0  0  0
   36.3650   27.6990   40.1480 C   0  0  0  0  0  0  0  0  0  0  0  0
   35.3790   28.0810   39.2960 O   0  0  0  0  0  0  0  0  0  0  0  0
   34.7880   29.2580   39.7600 C   0  0  0  0  0  0  0  0  0  0  0  0
   36.6650   30.2570   39.7580 H   0  0  0  0  0  0  0  0  0  0  0  0
   35.7160   28.4630   42.0830 H   0  0  0  0  0  0  0  0  0  0  0  0
   37.3470   27.4870   39.7300 H   0  0  0  0  0  0  0  0  0  0  0  0
   36.0250   26.7510   40.6480 H   0  0  0  0  0  0  0  0  0  0  0  0
   33.9750   29.0700   40.4800 H   0  0  0  0  0  0  0  0  0  0  0  0
   34.4860   29.8600   38.8780 H   0  0  0  0  0  0  0  0  0  0  0  0
   35.5260   30.9770   41.3180 O   0  0  0  0  0  0  0  0  0  0  0  0
   35.8970   31.8350   41.0140 H   0  0  0  0  0  0  0  0  0  0  0  0
   40.5180   31.1650   42.4460 O   0  0  0  0  0  0  0  0  0  0  0  0
   42.2680   32.7580   41.2290 O   0  0  0  0  0  0  0  0  0  0  0  0
   40.9490   32.0240   41.0180 P   0  0  1  0  0  0  0  0  0  0  0  0
   41.0540   30.9320   39.7670 O   0  0  0  0  0  0  0  0  0  0  0  0
   40.2040   30.4760   39.6540 H   0  0  0  0  0  0  0  0  0  0  0  0
   39.7260   33.1590   40.7600 O   0  0  0  0  0  0  0  0  0  0  0  0
   38.6070   32.8910   39.9870 C   0  0  0  0  0  0  0  0  0  0  0  0
   38.7230   32.2750   38.9100 O   0  0  0  0  0  0  0  0  0  0  0  0
   37.3190   33.3280   40.4390 N   0  0  0  0  0  0  0  0  0  0  0  0
   37.2440   33.9530   41.2710 H   0  0  0  0  0  0  0  0  0  0  0  0
   36.4590   33.0200   39.9320 H   0  0  0  0  0  0  0  0  0  0  0  0
  1  2  1  0  0  0  0
  1  7  1  0  0  0  0
  2  8  1  0  0  0  0
  3 22  1  0  0  0  0
  3  2  2  0  0  0  0
  4  3  1  0  0  0  0
  5  4  2  0  0  0  0
  5  6  1  0  0  0  0
  6  1  2  0  0  0  0
  9 14  1  6  0  0  0
  9 10  1  0  0  0  0
  9 20  1  0  0  0  0
 10  5  1  0  0  0  0
 10 15  1  1  0  0  0
 11 17  1  0  0  0  0
 11 10  1  0  0  0  0
 12 13  1  0  0  0  0
 12 11  1  0  0  0  0
 13 18  1  0  0  0  0
 13  9  1  0  0  0  0
 16 11  1  0  0  0  0
 19 13  1  0  0  0  0
 21 20  1  0  0  0  0
 24 23  2  1  0  0  0
 24 22  1  0  0  0  0
 25 24  1  0  0  0  0
 26 25  1  0  0  0  0
 27 24  1  0  0  0  0
 28 30  1  0  0  0  0
 28 27  1  0  0  0  0
 29 28  2  0  0  0  0
 30 31  1  0  0  0  0
 32 30  1  0  0  0  0
M  END
>  <minimizedAffinity>
-5.06395245

$$$$

 OpenBabel03252507103D

 32 33  0  0  1  0  0  0  0  0999 V2000
   37.3590   27.8150   43.6150 C   0  0  0  0  0  0  0  0  0  0  0  0
   38.0260   29.0420   43.4070 C   0  0  0  0  0  0  0  0  0  0  0  0
   39.0470   29.0450   42.4630 C   0  0  0  0  0  0  0  0  0  0  0  0
   39.3510   27.9130   41.8040 N   0  0  0  0  0  0  0  0  0  0  0  0
   38.7070   26.7620   42.0150 C   0  0  0  0  0  0  0  0  0  0  0  0
   37.7020   26.7140   42.9290 N   0  0  0  0  0  0  0  0  0  0  0  0
   36.5530   27.7650   44.3440 H   0  0  0  0  0  0  0  0  0  0  0  0
   37.6910   29.8850   43.9990 H   0  0  0  0  0  0  0  0  0  0  0  0
   38.4650   24.2620   42.0080 C   0  0  1  0  0  0  0  0  0  0  0  0
   39.0020   25.4900   41.3330 C   0  0  1  0  0  0  0  0  0  0  0  0
   38.2070   25.4070   40.0180 C   0  0  0  0  0  0  0  0  0  0  0  0
   37.9530   24.0940   39.7790 O   0  0  0  0  0  0  0  0  0  0  0  0
   38.4960   23.3180   40.8060 C   0  0  0  0  0  0  0  0  0  0  0  0
   37.3810   24.3870   42.2670 H   0  0  0  0  0  0  0  0  0  0  0  0
   40.0750   25.3880   41.1420 H   0  0  0  0  0  0  0  0  0  0  0  0
   37.3710   26.1020   39.9890 H   0  0  0  0  0  0  0  0  0  0  0  0
   38.9320   25.7540   39.2320 H   0  0  0  0  0  0  0  0  0  0  0  0
   39.5510   23.0570   40.6280 H   0  0  0  0  0  0  0  0  0  0  0  0
   37.8290   22.4440   40.9620 H   0  0  0  0  0  0  0  0  0  0  0  0
   39.1940   23.8360   43.0800 O   0  0  0  0  0  0  0  0  0  0  0  0
   38.6300   23.6350   43.8590 H   0  0  0  0  0  0  0  0  0  0  0  0
   39.6920   30.2580   42.2690 O   0  0  0  0  0  0  0  0  0  0  0  0
   40.4580   32.2550   40.6860 O   0  0  0  0  0  0  0  0  0  0  0  0
   39.4150   31.1530   40.8250 P   0  0  1  0  0  0  0  0  0  0  0  0
   39.4710   30.0960   39.5400 O   0  0  0  0  0  0  0  0  0  0  0  0
   38.8000   29.4030   39.6530 H   0  0  0  0  0  0  0  0  0  0  0  0
   37.8910   31.8600   40.9900 O   0  0  0  0  0  0  0  0  0  0  0  0
   36.7450   31.3090   40.4370 C   0  0  0  0  0  0  0  0  0  0  0  0
   36.6580   31.1530   39.2040 O   0  0  0  0  0  0  0  0  0  0  0  0
   35.6670   30.9200   41.2960 N   0  0  0  0  0  0  0  0  0  0  0  0
   35.6920   31.1700   42.3090 H   0  0  0  0  0  0  0  0  0  0  0  0
   34.8570   30.3870   40.9060 H   0  0  0  0  0  0  0  0  0  0  0  0
  1  7  1  0  0  0  0
  2  1  1  0  0  0  0
  2  8  1  0  0  0  0
  3  2  2  0  0  0  0
  4  5  2  0  0  0  0
  4  3  1  0  0  0  0
  5  6  1  0  0  0  0
  6  1  2  0  0  0  0
  9 14  1  1  0  0  0
  9 20  1  0  0  0  0
 10 15  1  6  0  0  0
 10  9  1  0  0  0  0
 10  5  1  0  0  0  0
 11 10  1  0  0  0  0
 12 11  1  0  0  0  0
 12 13  1  0  0  0  0
 13 19  1  0  0  0  0
 13  9  1  0  0  0  0
 16 11  1  0  0  0  0
 17 11  1  0  0  0  0
 18 13  1  0  0  0  0
 20 21  1  0  0  0  0
 22  3  1  0  0  0  0
 24 23  2  6  0  0  0
 24 27  1  0  0  0  0
 24 22  1  0  0  0  0
 25 26  1  0  0  0  0
 25 24  1  0  0  0  0
 28 27  1  0  0  0  0
 28 30  1  0  0  0  0
 29 28  2  0  0  0  0
 30 31  1  0  0  0  0
 32 30  1  0  0  0  0
M  END
>  <minimizedAffinity>
-5.03758764

$$$$

 OpenBabel03252507103D

 32 33  0  0  1  0  0  0  0  0999 V2000
   36.0270   26.9040   37.9120 C   0  0  0  0  0  0  0  0  0  0  0  0
   36.3590   26.0990   39.0230 C   0  0  0  0  0  0  0  0  0  0  0  0
   36.6860   26.7640   40.2000 C   0  0  0  0  0  0  0  0  0  0  0  0
   36.6750   28.1070   40.2330 N   0  0  0  0  0  0  0  0  0  0  0  0
   36.3580   28.8510   39.1690 C   0  0  0  0  0  0  0  0  0  0  0  0
   36.0320   28.2420   37.9990 N   0  0  0  0  0  0  0  0  0  0  0  0
   35.7650   26.4270   36.9700 H   0  0  0  0  0  0  0  0  0  0  0  0
   36.3330   25.0260   38.8730 H   0  0  0  0  0  0  0  0  0  0  0  0
   36.7010   30.9920   40.4360 C   0  0  1  0  0  0  0  0  0  0  0  0
   36.3390   30.3240   39.1420 C   0  0  1  0  0  0  0  0  0  0  0  0
   37.4960   30.8450   38.2720 C   0  0  0  0  0  0  0  0  0  0  0  0
   37.8690   32.0520   38.7710 O   0  0  0  0  0  0  0  0  0  0  0  0
   37.0760   32.3650   39.8770 C   0  0  0  0  0  0  0  0  0  0  0  0
   37.6500   30.5680   40.8570 H   0  0  0  0  0  0  0  0  0  0  0  0
   35.3790   30.6970   38.7700 H   0  0  0  0  0  0  0  0  0  0  0  0
   38.2700   30.0970   38.1130 H   0  0  0  0  0  0  0  0  0  0  0  0
   37.0270   31.0300   37.2660 H   0  0  0  0  0  0  0  0  0  0  0  0
   36.1360   32.8680   39.5980 H   0  0  0  0  0  0  0  0  0  0  0  0
   37.7030   32.9360   40.5950 H   0  0  0  0  0  0  0  0  0  0  0  0
   35.7030   31.0150   41.3650 O   0  0  0  0  0  0  0  0  0  0  0  0
   36.0130   30.7340   42.2540 H   0  0  0  0  0  0  0  0  0  0  0  0
   37.0080   25.9590   41.2840 O   0  0  0  0  0  0  0  0  0  0  0  0
   39.0360   24.7970   42.5550 O   0  0  0  0  0  0  0  0  0  0  0  0
   38.5300   26.1490   42.0660 P   0  0  1  0  0  0  0  0  0  0  0  0
   39.5880   26.8400   40.9850 O   0  0  0  0  0  0  0  0  0  0  0  0
   39.2430   27.6970   40.6860 H   0  0  0  0  0  0  0  0  0  0  0  0
   38.2560   27.1460   43.4020 O   0  0  0  0  0  0  0  0  0  0  0  0
   38.1630   28.5250   43.3000 C   0  0  0  0  0  0  0  0  0  0  0  0
   39.1770   29.2020   43.0440 O   0  0  0  0  0  0  0  0  0  0  0  0
   36.8940   29.1610   43.4910 N   0  0  0  0  0  0  0  0  0  0  0  0
   36.0790   28.6050   43.8300 H   0  0  0  0  0  0  0  0  0  0  0  0
   36.7880   30.1810   43.2890 H   0  0  0  0  0  0  0  0  0  0  0  0
  1  6  2  0  0  0  0
  1  2  1  0  0  0  0
  2  3  2  0  0  0  0
  3  4  1  0  0  0  0
  3 22  1  0  0  0  0
  5  4  2  0  0  0  0
  6  5  1  0  0  0  0
  7  1  1  0  0  0  0
  8  2  1  0  0  0  0
  9 14  1  1  0  0  0
  9 20  1  0  0  0  0
 10 15  1  6  0  0  0
 10  5  1  0  0  0  0
 10  9  1  0  0  0  0
 11 12  1  0  0  0  0
 11 10  1  0  0  0  0
 12 13  1  0  0  0  0
 13  9  1  0  0  0  0
 13 19  1  0  0  0  0
 16 11  1  0  0  0  0
 17 11  1  0  0  0  0
 18 13  1  0  0  0  0
 20 21  1  0  0  0  0
 22 24  1  0  0  0  0
 24 23  2  1  0  0  0
 24 27  1  0  0  0  0
 25 24  1  0  0  0  0
 26 25  1  0  0  0  0
 28 27  1  0  0  0  0
 28 30  1  0  0  0  0
 29 28  2  0  0  0  0
 30 31  1  0  0  0  0
 32 30  1  0  0  0  0
M  END
>  <minimizedAffinity>
-5.00601578

$$$$

 OpenBabel03252507103D

 32 33  0  0  1  0  0  0  0  0999 V2000
   42.0710   29.0020   41.6760 C   0  0  0  0  0  0  0  0  0  0  0  0
   41.9610   30.3570   41.2970 C   0  0  0  0  0  0  0  0  0  0  0  0
   40.7460   30.9810   41.5580 C   0  0  0  0  0  0  0  0  0  0  0  0
   39.7520   30.2910   42.1440 N   0  0  0  0  0  0  0  0  0  0  0  0
   39.8770   29.0080   42.4960 C   0  0  0  0  0  0  0  0  0  0  0  0
   41.0470   28.3600   42.2590 N   0  0  0  0  0  0  0  0  0  0  0  0
   43.0030   28.4730   41.4910 H   0  0  0  0  0  0  0  0  0  0  0  0
   42.8300   30.8050   40.8320 H   0  0  0  0  0  0  0  0  0  0  0  0
   37.4370   28.4220   42.5980 C   0  0  1  0  0  0  0  0  0  0  0  0
   38.8230   28.1990   43.1300 C   0  0  1  0  0  0  0  0  0  0  0  0
   38.9940   26.7200   42.7390 C   0  0  0  0  0  0  0  0  0  0  0  0
   37.7580   26.1560   42.7340 O   0  0  0  0  0  0  0  0  0  0  0  0
   36.8040   27.1160   43.0770 C   0  0  0  0  0  0  0  0  0  0  0  0
   37.4240   28.3720   41.4780 H   0  0  0  0  0  0  0  0  0  0  0  0
   38.8420   28.3130   44.2190 H   0  0  0  0  0  0  0  0  0  0  0  0
   39.6180   26.5900   41.8570 H   0  0  0  0  0  0  0  0  0  0  0  0
   39.5640   26.2690   43.5960 H   0  0  0  0  0  0  0  0  0  0  0  0
   36.6640   27.2050   44.1660 H   0  0  0  0  0  0  0  0  0  0  0  0
   35.8740   26.8880   42.5150 H   0  0  0  0  0  0  0  0  0  0  0  0
   36.8250   29.5500   43.0600 O   0  0  0  0  0  0  0  0  0  0  0  0
   36.4100   30.0720   42.3390 H   0  0  0  0  0  0  0  0  0  0  0  0
   40.6530   32.3140   41.1800 O   0  0  0  0  0  0  0  0  0  0  0  0
   38.1380   33.0510   40.7230 O   0  0  0  0  0  0  0  0  0  0  0  0
   39.4690   32.7950   40.0270 P   0  0  1  0  0  0  0  0  0  0  0  0
   40.0230   34.1580   39.2510 O   0  0  0  0  0  0  0  0  0  0  0  0
   40.8710   33.9710   38.8190 H   0  0  0  0  0  0  0  0  0  0  0  0
   39.2880   31.4960   38.9620 O   0  0  0  0  0  0  0  0  0  0  0  0
   38.9660   31.6640   37.6250 C   0  0  0  0  0  0  0  0  0  0  0  0
   37.8780   31.2420   37.1860 O   0  0  0  0  0  0  0  0  0  0  0  0
   39.8920   32.3250   36.7550 N   0  0  0  0  0  0  0  0  0  0  0  0
   40.8500   32.5590   37.0960 H   0  0  0  0  0  0  0  0  0  0  0  0
   39.6060   32.5700   35.7800 H   0  0  0  0  0  0  0  0  0  0  0  0
  1  6  1  0  0  0  0
  2  3  1  0  0  0  0
  2  1  2  0  0  0  0
  3  4  2  0  0  0  0
  4  5  1  0  0  0  0
  5 10  1  0  0  0  0
  6  5  2  0  0  0  0
  7  1  1  0  0  0  0
  8  2  1  0  0  0  0
  9 14  1  6  0  0  0
  9 20  1  0  0  0  0
  9 13  1  0  0  0  0
  9 10  1  0  0  0  0
 10 15  1  1  0  0  0
 11 10  1  0  0  0  0
 11 17  1  0  0  0  0
 12 11  1  0  0  0  0
 12 13  1  0  0  0  0
 13 18  1  0  0  0  0
 16 11  1  0  0  0  0
 19 13  1  0  0  0  0
 21 20  1  0  0  0  0
 22  3  1  0  0  0  0
 24 23  2  1  0  0  0
 24 22  1  0  0  0  0
 25 24  1  0  0  0  0
 26 25  1  0  0  0  0
 27 24  1  0  0  0  0
 28 27  1  0  0  0  0
 29 28  2  0  0  0  0
 30 31  1  0  0  0  0
 30 28  1  0  0  0  0
 32 30  1  0  0  0  0
M  END
>  <minimizedAffinity>
-4.9707036

$$$$

 OpenBabel03252507103D

 32 33  0  0  1  0  0  0  0  0999 V2000
   40.3070   27.1240   40.8790 C   0  0  0  0  0  0  0  0  0  0  0  0
   39.6240   28.2340   41.4230 C   0  0  0  0  0  0  0  0  0  0  0  0
   38.2350   28.1790   41.4110 C   0  0  0  0  0  0  0  0  0  0  0  0
   37.6130   27.1050   40.8960 N   0  0  0  0  0  0  0  0  0  0  0  0
   38.2780   26.0640   40.3860 C   0  0  0  0  0  0  0  0  0  0  0  0
   39.6370   26.0760   40.3780 N   0  0  0  0  0  0  0  0  0  0  0  0
   41.3940   27.1230   40.8680 H   0  0  0  0  0  0  0  0  0  0  0  0
   40.2350   29.0410   41.8080 H   0  0  0  0  0  0  0  0  0  0  0  0
   36.9840   23.9480   40.7800 C   0  0  1  0  0  0  0  0  0  0  0  0
   37.6530   24.8660   39.8000 C   0  0  1  0  0  0  0  0  0  0  0  0
   36.4210   25.2720   38.9720 C   0  0  0  0  0  0  0  0  0  0  0  0
   35.5390   24.2410   39.0230 O   0  0  0  0  0  0  0  0  0  0  0  0
   36.0690   23.2100   39.8020 C   0  0  0  0  0  0  0  0  0  0  0  0
   36.3000   24.5180   41.4620 H   0  0  0  0  0  0  0  0  0  0  0  0
   38.3680   24.3140   39.1800 H   0  0  0  0  0  0  0  0  0  0  0  0
   36.0580   26.2670   39.2220 H   0  0  0  0  0  0  0  0  0  0  0  0
   36.8020   25.3330   37.9160 H   0  0  0  0  0  0  0  0  0  0  0  0
   36.7060   22.5230   39.2210 H   0  0  0  0  0  0  0  0  0  0  0  0
   35.2280   22.7150   40.3310 H   0  0  0  0  0  0  0  0  0  0  0  0
   37.8340   23.1410   41.4770 O   0  0  0  0  0  0  0  0  0  0  0  0
   37.6410   23.1400   42.4410 H   0  0  0  0  0  0  0  0  0  0  0  0
   37.5780   29.2770   41.9490 O   0  0  0  0  0  0  0  0  0  0  0  0
   37.1060   30.1220   39.4710 O   0  0  0  0  0  0  0  0  0  0  0  0
   37.1050   30.5770   40.9250 P   0  0  1  0  0  0  0  0  0  0  0  0
   35.5960   31.0910   41.4020 O   0  0  0  0  0  0  0  0  0  0  0  0
   35.6210   31.3730   42.3300 H   0  0  0  0  0  0  0  0  0  0  0  0
   38.2700   31.7840   41.1210 O   0  0  0  0  0  0  0  0  0  0  0  0
   38.1890   33.0130   40.4870 C   0  0  0  0  0  0  0  0  0  0  0  0
   39.1810   33.7680   40.4570 O   0  0  0  0  0  0  0  0  0  0  0  0
   36.9590   33.4060   39.8680 N   0  0  0  0  0  0  0  0  0  0  0  0
   36.0990   32.8310   40.0070 H   0  0  0  0  0  0  0  0  0  0  0  0
   36.9250   34.2680   39.2780 H   0  0  0  0  0  0  0  0  0  0  0  0
  1  2  1  0  0  0  0
  2  8  1  0  0  0  0
  3  2  2  0  0  0  0
  3 22  1  0  0  0  0
  4  3  1  0  0  0  0
  5  4  2  0  0  0  0
  6  5  1  0  0  0  0
  6  1  2  0  0  0  0
  7  1  1  0  0  0  0
  9 14  1  1  0  0  0
  9 20  1  0  0  0  0
 10 15  1  6  0  0  0
 10  5  1  0  0  0  0
 10  9  1  0  0  0  0
 11 12  1  0  0  0  0
 11 16  1  0  0  0  0
 11 10  1  0  0  0  0
 12 13  1  0  0  0  0
 13 19  1  0  0  0  0
 13  9  1  0  0  0  0
 17 11  1  0  0  0  0
 18 13  1  0  0  0  0
 20 21  1  0  0  0  0
 24 23  2  6  0  0  0
 24 27  1  0  0  0  0
 24 25  1  0  0  0  0
 24 22  1  0  0  0  0
 25 26  1  0  0  0  0
 28 27  1  0  0  0  0
 29 28  2  0  0  0  0
 30 31  1  0  0  0  0
 30 28  1  0  0  0  0
 32 30  1  0  0  0  0
M  END
>  <minimizedAffinity>
-4.91069412

$$$$
