
     RDKit          3D

 24 25  0  0  0  0  0  0  0  0999 V2000
   44.5647   35.4151   45.1358 C   0  0  0  0  0  0  0  0  0  0  0  0
   45.2438   35.2682   43.9358 C   0  0  0  0  0  0  0  0  0  0  0  0
   46.1957   34.2690   43.7811 C   0  0  0  0  0  0  0  0  0  0  0  0
   46.4110   33.4593   44.8705 N   0  0  0  0  0  0  0  0  0  0  0  0
   45.7575   33.6048   46.0177 C   0  0  0  0  0  0  0  0  0  0  0  0
   44.8419   34.5748   46.1489 N   0  0  0  0  0  0  0  0  0  0  0  0
   46.0228   32.7218   47.1421 C   0  0  0  0  0  0  0  0  0  0  0  0
   47.2696   32.2672   47.4317 C   0  0  0  0  0  0  0  0  0  0  0  0
   47.5542   31.4318   48.4879 C   0  0  0  0  0  0  0  0  0  0  0  0
   46.5008   31.0634   49.2615 N   0  0  0  0  0  0  0  0  0  0  0  0
   45.2822   31.5148   48.9690 C   0  0  0  0  0  0  0  0  0  0  0  0
   44.9877   32.3325   47.9393 N   0  0  0  0  0  0  0  0  0  0  0  0
   44.9388   36.1807   42.8464 C   0  0  0  0  0  0  0  0  0  0  0  0
   44.1362   35.7977   41.9652 O   0  0  0  0  0  0  0  0  0  0  0  0
   43.8125   36.1787   45.3078 H   0  0  0  0  0  0  0  0  0  0  0  0
   46.7406   34.1311   42.8568 H   0  0  0  0  0  0  0  0  0  0  0  0
   48.0532   32.6116   46.7609 H   0  0  0  0  0  0  0  0  0  0  0  0
   48.6052   31.1516   48.5926 H   0  0  0  0  0  0  0  0  0  0  0  0
   44.5184   31.1545   49.6561 H   0  0  0  0  0  0  0  0  0  0  0  0
   46.0845   39.1025   44.2687 H   0  0  0  0  0  0  0  0  0  0  0  0
   45.6053   38.1209   44.1513 C   0  0  0  0  0  0  0  0  0  0  0  0
   45.0794   37.6281   45.1829 O   0  0  0  0  0  0  0  0  0  0  0  0
   45.5911   37.4522   42.8779 N   0  0  0  0  0  0  0  0  0  0  0  0
   46.0447   37.9243   42.0822 H   0  0  0  0  0  0  0  0  0  0  0  0
  1  6  2  0
  2  1  1  0
  3  2  2  0
  3  4  1  0
  4  5  2  0
  5  6  1  0
  5  7  1  0
  7  8  2  0
  7 12  1  0
  8  9  1  0
  9 10  2  0
 11 10  1  0
 12 11  2  0
 13  2  1  0
 14 13  2  0
  1 15  1  0
  3 16  1  0
  8 17  1  0
  9 18  1  0
 11 19  1  0
 20 21  1  0
 21 22  2  0
 21 23  1  0
 23 24  1  0
 13 23  1  0
M  ISO  6  15  14  16  14  17  14  18  14  19  14  20   1
M  END
>  <DihAtoms>  (1) 
1,12,22,20

>  <DihDeg>  (1) 
179.99979200014357

$$$$
