
 OpenBabel03242523553D

 41 43  0  0  1  0  0  0  0  0999 V2000
   42.8150   34.5470   38.7360 C   0  0  1  0  0  0  0  0  0  0  0  0
   42.9410   35.1830   40.1110 C   0  0  1  0  0  0  0  0  0  0  0  0
   41.6460   35.3720   40.6310 O   0  0  0  0  0  0  0  0  0  0  0  0
   40.7130   35.7160   39.6430 C   0  0  0  0  0  0  0  0  0  0  0  0
   40.4340   34.5570   38.7090 C   0  0  2  0  0  0  0  0  0  0  0  0
   41.6640   33.6000   38.8260 C   0  0  1  0  0  0  0  0  0  0  0  0
   43.7650   34.0310   38.4850 H   0  0  0  0  0  0  0  0  0  0  0  0
   43.4960   36.1360   40.0960 H   0  0  0  0  0  0  0  0  0  0  0  0
   41.0020   36.6340   39.1060 H   0  0  0  0  0  0  0  0  0  0  0  0
   39.7860   35.9290   40.1800 H   0  0  0  0  0  0  0  0  0  0  0  0
   39.5150   34.0050   38.9720 H   0  0  0  0  0  0  0  0  0  0  0  0
   41.4550   33.2910   39.9040 H   0  0  0  0  0  0  0  0  0  0  0  0
   42.5820   35.5230   37.7520 O   0  0  0  0  0  0  0  0  0  0  0  0
   43.1310   36.3310   37.9860 H   0  0  0  0  0  0  0  0  0  0  0  0
   40.4430   34.9950   37.3950 O   0  0  0  0  0  0  0  0  0  0  0  0
   40.5150   34.2730   36.7400 H   0  0  0  0  0  0  0  0  0  0  0  0
   43.4960   34.1900   40.9320 O   0  0  0  0  0  0  0  0  0  0  0  0
   44.5950   34.3370   41.6790 C   0  0  0  0  0  0  0  0  0  0  0  0
   45.8580   34.4380   41.0910 C   0  0  0  0  0  0  0  0  0  0  0  0
   46.9710   34.5910   41.8970 C   0  0  0  0  0  0  0  0  0  0  0  0
   46.7980   34.6400   43.2710 N   0  0  0  0  0  0  0  0  0  0  0  0
   45.5620   34.5380   43.8090 C   0  0  0  0  0  0  0  0  0  0  0  0
   44.4700   34.3880   43.0160 N   0  0  0  0  0  0  0  0  0  0  0  0
   45.9600   34.3970   40.0270 H   0  0  0  0  0  0  0  0  0  0  0  0
   45.4330   34.5750   44.8730 H   0  0  0  0  0  0  0  0  0  0  0  0
   48.3540   34.6850   41.3350 C   0  0  0  0  0  0  0  0  0  0  0  0
   49.0750   36.0200   41.5080 C   0  0  0  0  0  0  0  0  0  0  0  0
   49.4980   34.7030   42.1900 C   0  0  0  0  0  0  0  0  0  0  0  0
   48.4100   34.2410   40.3070 H   0  0  0  0  0  0  0  0  0  0  0  0
   49.7220   36.3010   40.6740 H   0  0  0  0  0  0  0  0  0  0  0  0
   48.5230   36.7670   42.0950 H   0  0  0  0  0  0  0  0  0  0  0  0
   50.4750   34.2860   41.9280 H   0  0  0  0  0  0  0  0  0  0  0  0
   49.3450   34.7450   43.2970 H   0  0  0  0  0  0  0  0  0  0  0  0
   41.5520   32.6690   37.8560 O   0  0  0  0  0  0  0  0  0  0  0  0
   40.9770   31.4690   37.8340 C   0  0  0  0  0  0  0  0  0  0  0  0
   39.6890   31.3020   37.5530 O   0  0  0  0  0  0  0  0  0  0  0  0
   42.5590   28.3380   37.4880 H   0  0  0  0  0  0  0  0  0  0  0  0
   42.2570   29.3320   37.1890 C   0  0  0  0  0  0  0  0  0  0  0  0
   42.5730   29.8330   36.0810 O   0  0  0  0  0  0  0  0  0  0  0  0
   41.4770   30.1130   38.0660 N   0  0  0  0  0  0  0  0  0  0  0  0
   41.2390   29.6660   38.9660 H   0  0  0  0  0  0  0  0  0  0  0  0
  1  7  1  6  0  0  0
  1  6  1  0  0  0  0
  1  2  1  0  0  0  0
  2  8  1  6  0  0  0
  2  3  1  0  0  0  0
  2 17  1  0  0  0  0
  4 10  1  0  0  0  0
  4  3  1  0  0  0  0
  5  6  1  0  0  0  0
  5 11  1  1  0  0  0
  5  4  1  0  0  0  0
  6 12  1  1  0  0  0
  9  4  1  0  0  0  0
 13 14  1  0  0  0  0
 13  1  1  0  0  0  0
 15  5  1  0  0  0  0
 16 15  1  0  0  0  0
 17 18  1  0  0  0  0
 18 23  1  0  0  0  0
 19 18  2  0  0  0  0
 19 20  1  0  0  0  0
 20 21  2  0  0  0  0
 21 22  1  0  0  0  0
 22 25  1  0  0  0  0
 23 22  2  0  0  0  0
 24 19  1  0  0  0  0
 26 27  1  0  0  0  0
 26 20  1  0  0  0  0
 26 28  1  0  0  0  0
 27 31  1  0  0  0  0
 27 28  1  0  0  0  0
 28 33  1  0  0  0  0
 29 26  1  0  0  0  0
 30 27  1  0  0  0  0
 32 28  1  0  0  0  0
 34  6  1  0  0  0  0
 35 34  1  0  0  0  0
 35 40  1  0  0  0  0
 36 35  2  0  0  0  0
 38 37  1  0  0  0  0
 38 40  1  0  0  0  0
 39 38  2  0  0  0  0
 40 41  1  0  0  0  0
M  END
>  <minimizedAffinity>
-5.83209229

>  <minimizedRMSD>
0.097597003

$$$$
