REMARK  Name = 
REMARK  2 active torsions:
REMARK  status: ('A' for Active; 'I' for Inactive)
REMARK    1  A    between atoms: C_1  and  C_10
REMARK    2  A    between atoms: C_2  and  C_7
REMARK                            x       y       z     vdW  Elec       q    Type
REMARK                         _______ _______ _______ _____ _____    ______ ____
ROOT
ATOM      1  C   UNL     1      46.271  34.494  43.623  0.00  0.00    +0.000 A 
ATOM      2  C   UNL     1      47.377  33.888  43.136  0.00  0.00    +0.000 A 
ATOM      3  C   UNL     1      47.764  32.738  43.819  0.00  0.00    +0.000 A 
ATOM      4  N   UNL     1      47.010  32.329  44.904  0.00  0.00    +0.000 NA
ATOM      5  C   UNL     1      45.926  32.982  45.331  0.00  0.00    +0.000 A 
ATOM      6  N   UNL     1      45.517  34.115  44.682  0.00  0.00    +0.000 NA
ATOM      7  H   UNL     1      48.626  32.150  43.542  0.00  0.00    +0.000 HD
ATOM      8  H   UNL     1      45.467  32.514  46.191  0.00  0.00    +0.000 HD
ENDROOT
BRANCH   2   9
ATOM      9  C   UNL     1      48.185  34.358  42.073  0.00  0.00    +0.000 C 
ATOM     10  C   UNL     1      48.550  35.617  41.721  0.00  0.00    +0.000 C 
ATOM     11  C   UNL     1      49.673  34.819  42.388  0.00  0.00    +0.000 C 
ATOM     12  H   UNL     1      48.469  33.423  41.410  0.00  0.00    +0.000 HD
ATOM     13  H   UNL     1      48.779  35.944  40.663  0.00  0.00    +0.000 HD
ATOM     14  H   UNL     1      48.323  36.530  42.330  0.00  0.00    +0.000 HD
ATOM     15  H   UNL     1      49.846  34.917  43.460  0.00  0.00    +0.000 HD
ATOM     16  H   UNL     1      50.478  34.489  41.757  0.00  0.00    +0.000 HD
ENDBRANCH   2   9
BRANCH   1  17
ATOM     17  C   UNL     1      45.580  35.643  43.020  0.00  0.00    +0.000 C 
ATOM     18  O   UNL     1      45.200  36.800  43.114  0.00  0.00    +0.000 OA
ATOM     19  H   UNL     1      43.627  35.295  40.006  0.00  0.00    +0.000 HD
ATOM     20  C   UNL     1      44.008  35.589  40.969  0.00  0.00    +0.000 C 
ATOM     21  O   UNL     1      43.297  36.459  41.520  0.00  0.00    +0.000 OA
ATOM     22  N   UNL     1      45.165  35.164  41.710  0.00  0.00    +0.000 N 
ATOM     23  H   UNL     1      45.596  34.442  41.054  0.00  0.00    +0.000 HD
ENDBRANCH   1  17
TORSDOF 2
