
 OpenBabel03242523553D

 41 43  0  0  1  0  0  0  0  0999 V2000
   42.8040   34.4820   38.7660 C   0  0  1  0  0  0  0  0  0  0  0  0
   42.9640   35.1760   40.1100 C   0  0  1  0  0  0  0  0  0  0  0  0
   41.6810   35.4350   40.6280 O   0  0  0  0  0  0  0  0  0  0  0  0
   40.7530   35.7670   39.6320 C   0  0  0  0  0  0  0  0  0  0  0  0
   40.4250   34.5780   38.7540 C   0  0  2  0  0  0  0  0  0  0  0  0
   41.6200   33.5830   38.9070 C   0  0  1  0  0  0  0  0  0  0  0  0
   43.7320   33.9210   38.5330 H   0  0  0  0  0  0  0  0  0  0  0  0
   43.5530   36.1060   40.0470 H   0  0  0  0  0  0  0  0  0  0  0  0
   41.0700   36.6480   39.0510 H   0  0  0  0  0  0  0  0  0  0  0  0
   39.8380   36.0380   40.1650 H   0  0  0  0  0  0  0  0  0  0  0  0
   39.4890   34.0720   39.0480 H   0  0  0  0  0  0  0  0  0  0  0  0
   41.4090   33.3320   39.9990 H   0  0  0  0  0  0  0  0  0  0  0  0
   42.5980   35.4200   37.7400 O   0  0  0  0  0  0  0  0  0  0  0  0
   43.1780   36.2180   37.9320 H   0  0  0  0  0  0  0  0  0  0  0  0
   40.4390   34.9550   37.4210 O   0  0  0  0  0  0  0  0  0  0  0  0
   40.4800   34.2010   36.8000 H   0  0  0  0  0  0  0  0  0  0  0  0
   43.4890   34.2020   40.9710 O   0  0  0  0  0  0  0  0  0  0  0  0
   44.5960   34.3450   41.7080 C   0  0  0  0  0  0  0  0  0  0  0  0
   45.8540   34.4460   41.1080 C   0  0  0  0  0  0  0  0  0  0  0  0
   46.9740   34.5960   41.9040 C   0  0  0  0  0  0  0  0  0  0  0  0
   46.8150   34.6400   43.2800 N   0  0  0  0  0  0  0  0  0  0  0  0
   45.5840   34.5380   43.8290 C   0  0  0  0  0  0  0  0  0  0  0  0
   44.4840   34.3920   43.0460 N   0  0  0  0  0  0  0  0  0  0  0  0
   45.9440   34.4090   40.0440 H   0  0  0  0  0  0  0  0  0  0  0  0
   45.4660   34.5720   44.8940 H   0  0  0  0  0  0  0  0  0  0  0  0
   48.3520   34.6900   41.3280 C   0  0  0  0  0  0  0  0  0  0  0  0
   49.0780   36.0220   41.5030 C   0  0  0  0  0  0  0  0  0  0  0  0
   49.5040   34.7000   42.1720 C   0  0  0  0  0  0  0  0  0  0  0  0
   48.3970   34.2520   40.2970 H   0  0  0  0  0  0  0  0  0  0  0  0
   49.7170   36.3070   40.6630 H   0  0  0  0  0  0  0  0  0  0  0  0
   48.5330   36.7670   42.0990 H   0  0  0  0  0  0  0  0  0  0  0  0
   50.4780   34.2830   41.8970 H   0  0  0  0  0  0  0  0  0  0  0  0
   49.3620   34.7360   43.2800 H   0  0  0  0  0  0  0  0  0  0  0  0
   41.4680   32.6130   37.9820 O   0  0  0  0  0  0  0  0  0  0  0  0
   40.7800   31.4740   37.9900 C   0  0  0  0  0  0  0  0  0  0  0  0
   39.5770   31.3640   37.4360 O   0  0  0  0  0  0  0  0  0  0  0  0
   40.8110   28.5550   39.9650 H   0  0  0  0  0  0  0  0  0  0  0  0
   40.5160   29.5570   39.6870 C   0  0  0  0  0  0  0  0  0  0  0  0
   39.7050   30.2390   40.3590 O   0  0  0  0  0  0  0  0  0  0  0  0
   41.0580   30.1380   38.5200 N   0  0  0  0  0  0  0  0  0  0  0  0
   41.7210   29.5450   37.9960 H   0  0  0  0  0  0  0  0  0  0  0  0
  1  7  1  6  0  0  0
  1  6  1  0  0  0  0
  1  2  1  0  0  0  0
  2  8  1  6  0  0  0
  2  3  1  0  0  0  0
  2 17  1  0  0  0  0
  4 10  1  0  0  0  0
  4  3  1  0  0  0  0
  5  6  1  0  0  0  0
  5 11  1  1  0  0  0
  5  4  1  0  0  0  0
  6 12  1  1  0  0  0
  9  4  1  0  0  0  0
 13 14  1  0  0  0  0
 13  1  1  0  0  0  0
 15  5  1  0  0  0  0
 16 15  1  0  0  0  0
 17 18  1  0  0  0  0
 18 23  1  0  0  0  0
 19 18  2  0  0  0  0
 19 20  1  0  0  0  0
 20 21  2  0  0  0  0
 21 22  1  0  0  0  0
 22 25  1  0  0  0  0
 23 22  2  0  0  0  0
 24 19  1  0  0  0  0
 26 27  1  0  0  0  0
 26 20  1  0  0  0  0
 26 28  1  0  0  0  0
 27 31  1  0  0  0  0
 27 28  1  0  0  0  0
 28 33  1  0  0  0  0
 29 26  1  0  0  0  0
 30 27  1  0  0  0  0
 32 28  1  0  0  0  0
 34 35  1  0  0  0  0
 34  6  1  0  0  0  0
 35 40  1  0  0  0  0
 36 35  2  0  0  0  0
 38 37  1  0  0  0  0
 38 39  2  0  0  0  0
 40 38  1  0  0  0  0
 41 40  1  0  0  0  0
M  END
>  <minimizedAffinity>
-5.91197586

>  <minimizedRMSD>
0.256838292

$$$$
