
 OpenBabel03252509303D

 23 23  0  0  0  0  0  0  0  0999 V2000
   47.1050   33.3140   42.9990 C   0  0  0  0  0  0  0  0  0  0  0  0
   46.5660   32.3900   42.6700 H   0  0  0  0  0  0  0  0  0  0  0  0
   47.1810   33.9430   42.1050 H   0  0  0  0  0  0  0  0  0  0  0  0
   45.2330   34.1470   46.1070 C   0  0  0  0  0  0  0  0  0  0  0  0
   46.0830   33.4800   45.2210 C   0  0  0  0  0  0  0  0  0  0  0  0
   46.2170   33.9950   43.9510 C   0  0  0  0  0  0  0  0  0  0  0  0
   45.5230   35.1220   43.6100 N   0  0  0  0  0  0  0  0  0  0  0  0
   44.7000   35.7470   44.5040 C   0  0  0  0  0  0  0  0  0  0  0  0
   44.5610   35.2600   45.7370 N   0  0  0  0  0  0  0  0  0  0  0  0
   45.1110   33.7590   47.1150 H   0  0  0  0  0  0  0  0  0  0  0  0
   46.5890   32.5890   45.5960 H   0  0  0  0  0  0  0  0  0  0  0  0
   44.1830   36.6410   44.1500 H   0  0  0  0  0  0  0  0  0  0  0  0
   48.3130   32.9700   43.5800 O   0  0  0  0  0  0  0  0  0  0  0  0
   50.6560   32.4600   42.5450 O   0  0  0  0  0  0  0  0  0  0  0  0
   49.5370   33.4590   42.5270 P   0  0  2  0  0  0  0  0  0  0  0  0
   50.0350   34.9950   43.0440 O   0  0  0  0  0  0  0  0  0  0  0  0
   49.2250   35.4890   43.3290 H   0  0  0  0  0  0  0  0  0  0  0  0
   48.9020   33.5390   40.9760 O   0  0  0  0  0  0  0  0  0  0  0  0
   48.6430   34.7020   40.2800 C   0  0  0  0  0  0  0  0  0  0  0  0
   47.9190   34.4770   39.2520 O   0  0  0  0  0  0  0  0  0  0  0  0
   49.0790   36.0200   40.5870 N   0  0  0  0  0  0  0  0  0  0  0  0
   48.3600   36.3120   41.3130 H   0  0  0  0  0  0  0  0  0  0  0  0
   49.9320   36.1650   39.9720 H   0  0  0  0  0  0  0  0  0  0  0  0
  1 13  1  0  0  0  0
  1  6  1  0  0  0  0
  2  1  1  0  0  0  0
  3  1  1  0  0  0  0
  4 10  1  0  0  0  0
  5 11  1  0  0  0  0
  5  4  2  0  0  0  0
  6  5  1  0  0  0  0
  7  6  2  0  0  0  0
  7  8  1  0  0  0  0
  8  9  2  0  0  0  0
  9  4  1  0  0  0  0
 12  8  1  0  0  0  0
 15 14  2  1  0  0  0
 15 16  1  0  0  0  0
 15 13  1  0  0  0  0
 16 17  1  0  0  0  0
 18 15  1  0  0  0  0
 19 21  1  0  0  0  0
 19 18  1  0  0  0  0
 20 19  2  0  0  0  0
 21 22  1  0  0  0  0
 23 21  1  0  0  0  0
M  END
>  <minimizedAffinity>
-4.32591867

>  <minimizedRMSD>
0.980027258

$$$$
