
 OpenBabel03252504013D

 30 32  0  0  0  0  0  0  0  0999 V2000
   37.4240   29.7310   41.0800 C   0  0  0  0  0  0  0  0  0  0  0  0
   38.6610   29.6330   41.7160 C   0  0  0  0  0  0  0  0  0  0  0  0
   39.4800   30.7320   41.7680 C   0  0  0  0  0  0  0  0  0  0  0  0
   39.0580   31.9110   41.1880 C   0  0  0  0  0  0  0  0  0  0  0  0
   39.6330   33.1260   41.0810 N   0  0  0  0  0  0  0  0  0  0  0  0
   38.8450   33.9790   40.4230 C   0  0  0  0  0  0  0  0  0  0  0  0
   37.7000   33.3130   40.0760 C   0  0  0  0  0  0  0  0  0  0  0  0
   37.8220   32.0140   40.5500 C   0  0  0  0  0  0  0  0  0  0  0  0
   37.0100   30.9110   40.5030 C   0  0  0  0  0  0  0  0  0  0  0  0
   36.6970   28.9120   40.9830 H   0  0  0  0  0  0  0  0  0  0  0  0
   40.4390   30.6390   42.2670 H   0  0  0  0  0  0  0  0  0  0  0  0
   40.5730   33.3270   41.4770 H   0  0  0  0  0  0  0  0  0  0  0  0
   39.1390   35.0100   40.2370 H   0  0  0  0  0  0  0  0  0  0  0  0
   36.8670   33.7400   39.5310 H   0  0  0  0  0  0  0  0  0  0  0  0
   36.0620   31.0460   39.9960 H   0  0  0  0  0  0  0  0  0  0  0  0
   38.5790   26.0800   42.5270 C   0  0  0  0  0  0  0  0  0  0  0  0
   39.6660   25.9030   43.3830 C   0  0  0  0  0  0  0  0  0  0  0  0
   40.4290   27.0300   43.6790 C   0  0  0  0  0  0  0  0  0  0  0  0
   40.0770   28.2130   43.1250 N   0  0  0  0  0  0  0  0  0  0  0  0
   39.0010   28.3340   42.2900 C   0  0  0  0  0  0  0  0  0  0  0  0
   38.2510   27.2710   41.9890 N   0  0  0  0  0  0  0  0  0  0  0  0
   39.9160   24.9400   43.8070 H   0  0  0  0  0  0  0  0  0  0  0  0
   41.2800   26.9300   44.3390 H   0  0  0  0  0  0  0  0  0  0  0  0
   37.8160   24.8770   42.2500 C   0  0  0  0  0  0  0  0  0  0  0  0
   36.5660   24.7530   42.4000 O   0  0  0  0  0  0  0  0  0  0  0  0
   39.5020   22.8170   39.9810 H   0  0  0  0  0  0  0  0  0  0  0  0
   38.9640   23.6740   40.4100 C   0  0  0  0  0  0  0  0  0  0  0  0
   38.7580   24.6490   39.6180 O   0  0  0  0  0  0  0  0  0  0  0  0
   38.5130   23.7220   41.7650 N   0  0  0  0  0  0  0  0  0  0  0  0
   38.7300   22.8720   42.3330 H   0  0  0  0  0  0  0  0  0  0  0  0
  1  2  1  0  0  0  0
  2  3  2  0  0  0  0
  2 20  1  0  0  0  0
  3 11  1  0  0  0  0
  4  3  1  0  0  0  0
  5  4  1  0  0  0  0
  5 12  1  0  0  0  0
  6  5  1  0  0  0  0
  7  6  2  0  0  0  0
  7  8  1  0  0  0  0
  8  4  2  0  0  0  0
  9  8  1  0  0  0  0
  9  1  2  0  0  0  0
 10  1  1  0  0  0  0
 13  6  1  0  0  0  0
 14  7  1  0  0  0  0
 15  9  1  0  0  0  0
 16 17  1  0  0  0  0
 17 18  2  0  0  0  0
 17 22  1  0  0  0  0
 18 23  1  0  0  0  0
 19 18  1  0  0  0  0
 20 19  2  0  0  0  0
 21 20  1  0  0  0  0
 21 16  2  0  0  0  0
 24 25  2  0  0  0  0
 24 16  1  0  0  0  0
 26 27  1  0  0  0  0
 27 29  1  0  0  0  0
 28 27  2  0  0  0  0
 29 24  1  0  0  0  0
 29 30  1  0  0  0  0
M  END
>  <minimizedAffinity>
-5.53618002

$$$$

 OpenBabel03252504013D

 30 32  0  0  0  0  0  0  0  0999 V2000
   37.0240   31.1250   40.6160 C   0  0  0  0  0  0  0  0  0  0  0  0
   37.9800   30.4170   41.3440 C   0  0  0  0  0  0  0  0  0  0  0  0
   39.2150   30.9760   41.5560 C   0  0  0  0  0  0  0  0  0  0  0  0
   39.4810   32.2290   41.0420 C   0  0  0  0  0  0  0  0  0  0  0  0
   40.5770   33.0120   41.0860 N   0  0  0  0  0  0  0  0  0  0  0  0
   40.3780   34.1610   40.4360 C   0  0  0  0  0  0  0  0  0  0  0  0
   39.1020   34.1480   39.9400 C   0  0  0  0  0  0  0  0  0  0  0  0
   38.5280   32.9400   40.3130 C   0  0  0  0  0  0  0  0  0  0  0  0
   37.2980   32.3750   40.1060 C   0  0  0  0  0  0  0  0  0  0  0  0
   36.0090   30.7670   40.3910 H   0  0  0  0  0  0  0  0  0  0  0  0
   39.9460   30.4120   42.1240 H   0  0  0  0  0  0  0  0  0  0  0  0
   41.4460   32.7180   41.5750 H   0  0  0  0  0  0  0  0  0  0  0  0
   41.1500   34.9240   40.3620 H   0  0  0  0  0  0  0  0  0  0  0  0
   38.6450   34.9450   39.3630 H   0  0  0  0  0  0  0  0  0  0  0  0
   36.5960   32.9710   39.5340 H   0  0  0  0  0  0  0  0  0  0  0  0
   37.1140   26.8770   41.4420 C   0  0  0  0  0  0  0  0  0  0  0  0
   36.8420   26.6330   42.7880 C   0  0  0  0  0  0  0  0  0  0  0  0
   36.9610   27.7090   43.6640 C   0  0  0  0  0  0  0  0  0  0  0  0
   37.3290   28.9120   43.1650 N   0  0  0  0  0  0  0  0  0  0  0  0
   37.5850   29.1000   41.8350 C   0  0  0  0  0  0  0  0  0  0  0  0
   37.4790   28.0860   40.9720 N   0  0  0  0  0  0  0  0  0  0  0  0
   36.5500   25.6550   43.1500 H   0  0  0  0  0  0  0  0  0  0  0  0
   36.7580   27.5560   44.7150 H   0  0  0  0  0  0  0  0  0  0  0  0
   36.9760   25.7250   40.5700 C   0  0  0  0  0  0  0  0  0  0  0  0
   36.2950   25.6910   39.5050 O   0  0  0  0  0  0  0  0  0  0  0  0
   39.6510   23.5100   40.9890 H   0  0  0  0  0  0  0  0  0  0  0  0
   39.0730   24.4100   40.7380 C   0  0  0  0  0  0  0  0  0  0  0  0
   39.7430   25.3820   40.2610 O   0  0  0  0  0  0  0  0  0  0  0  0
   37.6600   24.5150   40.9230 N   0  0  0  0  0  0  0  0  0  0  0  0
   37.2020   23.6640   41.3200 H   0  0  0  0  0  0  0  0  0  0  0  0
  1  2  1  0  0  0  0
  2  3  2  0  0  0  0
  2 20  1  0  0  0  0
  3 11  1  0  0  0  0
  4  5  1  0  0  0  0
  4  3  1  0  0  0  0
  5 12  1  0  0  0  0
  6  5  1  0  0  0  0
  7  8  1  0  0  0  0
  7  6  2  0  0  0  0
  8  4  2  0  0  0  0
  9  8  1  0  0  0  0
  9  1  2  0  0  0  0
 10  1  1  0  0  0  0
 13  6  1  0  0  0  0
 14  7  1  0  0  0  0
 15  9  1  0  0  0  0
 16 17  1  0  0  0  0
 17 22  1  0  0  0  0
 17 18  2  0  0  0  0
 18 23  1  0  0  0  0
 19 18  1  0  0  0  0
 20 19  2  0  0  0  0
 21 16  2  0  0  0  0
 21 20  1  0  0  0  0
 24 29  1  0  0  0  0
 24 16  1  0  0  0  0
 25 24  2  0  0  0  0
 27 29  1  0  0  0  0
 27 26  1  0  0  0  0
 28 27  2  0  0  0  0
 29 30  1  0  0  0  0
M  END
>  <minimizedAffinity>
-5.52055836

$$$$

 OpenBabel03252504013D

 30 32  0  0  0  0  0  0  0  0999 V2000
   37.4730   28.2170   42.3950 C   0  0  0  0  0  0  0  0  0  0  0  0
   38.7210   28.2200   41.7710 C   0  0  0  0  0  0  0  0  0  0  0  0
   39.2470   27.0390   41.3130 C   0  0  0  0  0  0  0  0  0  0  0  0
   38.5270   25.8740   41.4820 C   0  0  0  0  0  0  0  0  0  0  0  0
   38.7820   24.5940   41.1450 N   0  0  0  0  0  0  0  0  0  0  0  0
   37.7850   23.7880   41.5150 C   0  0  0  0  0  0  0  0  0  0  0  0
   36.8260   24.5540   42.1190 C   0  0  0  0  0  0  0  0  0  0  0  0
   37.2800   25.8660   42.1060 C   0  0  0  0  0  0  0  0  0  0  0  0
   36.7610   27.0500   42.5590 C   0  0  0  0  0  0  0  0  0  0  0  0
   36.9650   29.1070   42.7960 H   0  0  0  0  0  0  0  0  0  0  0  0
   40.2180   27.0590   40.8300 H   0  0  0  0  0  0  0  0  0  0  0  0
   39.6600   24.3160   40.6610 H   0  0  0  0  0  0  0  0  0  0  0  0
   37.8100   22.7150   41.3280 H   0  0  0  0  0  0  0  0  0  0  0  0
   35.8920   24.1840   42.5270 H   0  0  0  0  0  0  0  0  0  0  0  0
   35.7890   26.9870   43.0350 H   0  0  0  0  0  0  0  0  0  0  0  0
   39.3110   31.7730   41.2030 C   0  0  0  0  0  0  0  0  0  0  0  0
   40.6770   31.9310   41.4390 C   0  0  0  0  0  0  0  0  0  0  0  0
   41.3930   30.7910   41.7980 C   0  0  0  0  0  0  0  0  0  0  0  0
   40.7320   29.6150   41.8950 N   0  0  0  0  0  0  0  0  0  0  0  0
   39.3900   29.5130   41.6520 C   0  0  0  0  0  0  0  0  0  0  0  0
   38.6770   30.5880   41.3070 N   0  0  0  0  0  0  0  0  0  0  0  0
   41.1710   32.8890   41.3520 H   0  0  0  0  0  0  0  0  0  0  0  0
   42.4540   30.8770   41.9890 H   0  0  0  0  0  0  0  0  0  0  0  0
   38.6090   32.9880   40.8330 C   0  0  0  0  0  0  0  0  0  0  0  0
   39.0700   34.1610   40.9410 O   0  0  0  0  0  0  0  0  0  0  0  0
   36.0970   32.3200   38.4920 H   0  0  0  0  0  0  0  0  0  0  0  0
   37.0880   32.4260   38.9570 C   0  0  0  0  0  0  0  0  0  0  0  0
   38.0790   32.1200   38.2190 O   0  0  0  0  0  0  0  0  0  0  0  0
   37.2830   32.8750   40.2990 N   0  0  0  0  0  0  0  0  0  0  0  0
   36.4070   33.1030   40.8210 H   0  0  0  0  0  0  0  0  0  0  0  0
  1  9  1  0  0  0  0
  1 10  1  0  0  0  0
  2  1  2  0  0  0  0
  3  4  2  0  0  0  0
  3  2  1  0  0  0  0
  4  8  1  0  0  0  0
  5  4  1  0  0  0  0
  5  6  1  0  0  0  0
  6  7  2  0  0  0  0
  7 14  1  0  0  0  0
  8  7  1  0  0  0  0
  8  9  2  0  0  0  0
  9 15  1  0  0  0  0
 11  3  1  0  0  0  0
 12  5  1  0  0  0  0
 13  6  1  0  0  0  0
 16 21  2  0  0  0  0
 16 17  1  0  0  0  0
 17 18  2  0  0  0  0
 18 19  1  0  0  0  0
 18 23  1  0  0  0  0
 20  2  1  0  0  0  0
 20 19  2  0  0  0  0
 21 20  1  0  0  0  0
 22 17  1  0  0  0  0
 24 25  2  0  0  0  0
 24 16  1  0  0  0  0
 26 27  1  0  0  0  0
 27 29  1  0  0  0  0
 28 27  2  0  0  0  0
 29 30  1  0  0  0  0
 29 24  1  0  0  0  0
M  END
>  <minimizedAffinity>
-5.51576614

$$$$

 OpenBabel03252504013D

 30 32  0  0  0  0  0  0  0  0999 V2000
   36.5680   26.8840   39.6580 C   0  0  0  0  0  0  0  0  0  0  0  0
   35.9230   28.1120   39.5180 C   0  0  0  0  0  0  0  0  0  0  0  0
   35.9820   29.0240   40.5400 C   0  0  0  0  0  0  0  0  0  0  0  0
   36.6800   28.7030   41.6860 C   0  0  0  0  0  0  0  0  0  0  0  0
   36.9060   29.3790   42.8310 N   0  0  0  0  0  0  0  0  0  0  0  0
   37.6450   28.6630   43.6790 C   0  0  0  0  0  0  0  0  0  0  0  0
   37.9270   27.4630   43.0830 C   0  0  0  0  0  0  0  0  0  0  0  0
   37.3260   27.4750   41.8320 C   0  0  0  0  0  0  0  0  0  0  0  0
   37.2630   26.5700   40.8060 C   0  0  0  0  0  0  0  0  0  0  0  0
   36.5810   26.0870   38.9010 H   0  0  0  0  0  0  0  0  0  0  0  0
   35.4750   29.9750   40.4150 H   0  0  0  0  0  0  0  0  0  0  0  0
   36.5310   30.3360   42.9880 H   0  0  0  0  0  0  0  0  0  0  0  0
   37.9310   29.0420   44.6590 H   0  0  0  0  0  0  0  0  0  0  0  0
   38.5120   26.6640   43.5250 H   0  0  0  0  0  0  0  0  0  0  0  0
   37.7820   25.6330   40.9700 H   0  0  0  0  0  0  0  0  0  0  0  0
   35.1690   28.3180   35.9570 C   0  0  0  0  0  0  0  0  0  0  0  0
   33.8500   28.7720   35.9160 C   0  0  0  0  0  0  0  0  0  0  0  0
   33.2230   29.0060   37.1380 C   0  0  0  0  0  0  0  0  0  0  0  0
   33.9200   28.7840   38.2760 N   0  0  0  0  0  0  0  0  0  0  0  0
   35.2130   28.3380   38.2620 C   0  0  0  0  0  0  0  0  0  0  0  0
   35.8390   28.1050   37.1060 N   0  0  0  0  0  0  0  0  0  0  0  0
   33.3260   28.9380   34.9840 H   0  0  0  0  0  0  0  0  0  0  0  0
   32.2000   29.3580   37.1440 H   0  0  0  0  0  0  0  0  0  0  0  0
   35.7780   28.0880   34.6600 C   0  0  0  0  0  0  0  0  0  0  0  0
   35.4200   27.2030   33.8300 O   0  0  0  0  0  0  0  0  0  0  0  0
   37.4400   30.9510   33.5310 H   0  0  0  0  0  0  0  0  0  0  0  0
   36.6410   30.2660   33.8460 C   0  0  0  0  0  0  0  0  0  0  0  0
   35.4610   30.7460   33.8210 O   0  0  0  0  0  0  0  0  0  0  0  0
   36.8760   28.9210   34.2630 N   0  0  0  0  0  0  0  0  0  0  0  0
   37.8770   28.6220   34.2480 H   0  0  0  0  0  0  0  0  0  0  0  0
  1  9  1  0  0  0  0
  2  1  2  0  0  0  0
  2  3  1  0  0  0  0
  3  4  2  0  0  0  0
  4  8  1  0  0  0  0
  4  5  1  0  0  0  0
  5 12  1  0  0  0  0
  5  6  1  0  0  0  0
  6 13  1  0  0  0  0
  7 14  1  0  0  0  0
  7  6  2  0  0  0  0
  8  7  1  0  0  0  0
  9 15  1  0  0  0  0
  9  8  2  0  0  0  0
 10  1  1  0  0  0  0
 11  3  1  0  0  0  0
 16 21  1  0  0  0  0
 17 16  2  0  0  0  0
 17 18  1  0  0  0  0
 18 23  1  0  0  0  0
 18 19  2  0  0  0  0
 20 19  1  0  0  0  0
 20  2  1  0  0  0  0
 21 20  2  0  0  0  0
 22 17  1  0  0  0  0
 24 16  1  0  0  0  0
 25 24  2  0  0  0  0
 26 27  1  0  0  0  0
 27 29  1  0  0  0  0
 28 27  2  0  0  0  0
 29 24  1  0  0  0  0
 30 29  1  0  0  0  0
M  END
>  <minimizedAffinity>
-5.38491821

$$$$

 OpenBabel03252504013D

 30 32  0  0  0  0  0  0  0  0999 V2000
   39.7310   28.6090   42.8590 C   0  0  0  0  0  0  0  0  0  0  0  0
   38.7000   28.5180   41.9250 C   0  0  0  0  0  0  0  0  0  0  0  0
   38.2060   27.2840   41.5870 C   0  0  0  0  0  0  0  0  0  0  0  0
   38.7430   26.1600   42.1810 C   0  0  0  0  0  0  0  0  0  0  0  0
   38.4690   24.8460   42.0500 N   0  0  0  0  0  0  0  0  0  0  0  0
   39.2560   24.1070   42.8330 C   0  0  0  0  0  0  0  0  0  0  0  0
   40.0870   24.9550   43.5170 C   0  0  0  0  0  0  0  0  0  0  0  0
   39.7750   26.2460   43.1160 C   0  0  0  0  0  0  0  0  0  0  0  0
   40.2620   27.4820   43.4480 C   0  0  0  0  0  0  0  0  0  0  0  0
   40.1960   29.5470   43.1980 H   0  0  0  0  0  0  0  0  0  0  0  0
   37.4040   27.2300   40.8590 H   0  0  0  0  0  0  0  0  0  0  0  0
   37.7310   24.4990   41.4060 H   0  0  0  0  0  0  0  0  0  0  0  0
   39.1850   23.0210   42.8650 H   0  0  0  0  0  0  0  0  0  0  0  0
   40.8420   24.6510   44.2330 H   0  0  0  0  0  0  0  0  0  0  0  0
   41.0630   27.4920   44.1790 H   0  0  0  0  0  0  0  0  0  0  0  0
   38.6310   31.8310   40.4060 C   0  0  0  0  0  0  0  0  0  0  0  0
   37.2720   32.1280   40.3040 C   0  0  0  0  0  0  0  0  0  0  0  0
   36.3770   31.1660   40.7670 C   0  0  0  0  0  0  0  0  0  0  0  0
   36.8720   30.0180   41.2830 N   0  0  0  0  0  0  0  0  0  0  0  0
   38.2150   29.7740   41.3610 C   0  0  0  0  0  0  0  0  0  0  0  0
   39.0960   30.6780   40.9250 N   0  0  0  0  0  0  0  0  0  0  0  0
   36.9150   33.0600   39.8850 H   0  0  0  0  0  0  0  0  0  0  0  0
   35.3150   31.3630   40.7030 H   0  0  0  0  0  0  0  0  0  0  0  0
   39.5230   32.8630   39.9100 C   0  0  0  0  0  0  0  0  0  0  0  0
   40.2700   33.5900   40.6260 O   0  0  0  0  0  0  0  0  0  0  0  0
   40.3450   32.3020   36.5570 H   0  0  0  0  0  0  0  0  0  0  0  0
   40.2670   32.1780   37.6460 C   0  0  0  0  0  0  0  0  0  0  0  0
   40.8370   31.1440   38.1250 O   0  0  0  0  0  0  0  0  0  0  0  0
   39.5790   33.0960   38.4960 N   0  0  0  0  0  0  0  0  0  0  0  0
   39.1460   33.9110   38.0070 H   0  0  0  0  0  0  0  0  0  0  0  0
  1 10  1  0  0  0  0
  1  9  1  0  0  0  0
  2  1  2  0  0  0  0
  3  2  1  0  0  0  0
  3  4  2  0  0  0  0
  4  8  1  0  0  0  0
  5  4  1  0  0  0  0
  5  6  1  0  0  0  0
  6 13  1  0  0  0  0
  6  7  2  0  0  0  0
  7 14  1  0  0  0  0
  8  9  2  0  0  0  0
  8  7  1  0  0  0  0
  9 15  1  0  0  0  0
 11  3  1  0  0  0  0
 12  5  1  0  0  0  0
 16 21  1  0  0  0  0
 17 16  2  0  0  0  0
 17 18  1  0  0  0  0
 18 19  2  0  0  0  0
 19 20  1  0  0  0  0
 20  2  1  0  0  0  0
 21 20  2  0  0  0  0
 22 17  1  0  0  0  0
 23 18  1  0  0  0  0
 24 16  1  0  0  0  0
 24 25  2  0  0  0  0
 26 27  1  0  0  0  0
 27 28  2  0  0  0  0
 27 29  1  0  0  0  0
 29 24  1  0  0  0  0
 30 29  1  0  0  0  0
M  END
>  <minimizedAffinity>
-5.34635544

$$$$

 OpenBabel03252504013D

 30 32  0  0  0  0  0  0  0  0999 V2000
   36.8870   27.7870   42.1050 C   0  0  0  0  0  0  0  0  0  0  0  0
   37.2150   28.0020   40.7670 C   0  0  0  0  0  0  0  0  0  0  0  0
   37.5510   26.9330   39.9760 C   0  0  0  0  0  0  0  0  0  0  0  0
   37.5550   25.6670   40.5250 C   0  0  0  0  0  0  0  0  0  0  0  0
   37.8380   24.4550   40.0080 N   0  0  0  0  0  0  0  0  0  0  0  0
   37.7110   23.4940   40.9250 C   0  0  0  0  0  0  0  0  0  0  0  0
   37.3290   24.0830   42.1010 C   0  0  0  0  0  0  0  0  0  0  0  0
   37.2280   25.4470   41.8630 C   0  0  0  0  0  0  0  0  0  0  0  0
   36.8940   26.5200   42.6460 C   0  0  0  0  0  0  0  0  0  0  0  0
   36.6050   28.5730   42.8210 H   0  0  0  0  0  0  0  0  0  0  0  0
   37.8030   27.1170   38.9370 H   0  0  0  0  0  0  0  0  0  0  0  0
   38.1150   24.3310   39.0130 H   0  0  0  0  0  0  0  0  0  0  0  0
   37.8980   22.4470   40.6950 H   0  0  0  0  0  0  0  0  0  0  0  0
   37.1460   23.5610   43.0340 H   0  0  0  0  0  0  0  0  0  0  0  0
   36.6490   26.2930   43.6770 H   0  0  0  0  0  0  0  0  0  0  0  0
   37.6830   30.9690   38.7010 C   0  0  0  0  0  0  0  0  0  0  0  0
   37.0940   31.9940   39.4430 C   0  0  0  0  0  0  0  0  0  0  0  0
   36.5320   31.6460   40.6690 C   0  0  0  0  0  0  0  0  0  0  0  0
   36.5900   30.3530   41.0630 N   0  0  0  0  0  0  0  0  0  0  0  0
   37.1790   29.3850   40.2980 C   0  0  0  0  0  0  0  0  0  0  0  0
   37.7260   29.6890   39.1190 N   0  0  0  0  0  0  0  0  0  0  0  0
   37.0680   33.0180   39.0930 H   0  0  0  0  0  0  0  0  0  0  0  0
   36.0660   32.4150   41.2700 H   0  0  0  0  0  0  0  0  0  0  0  0
   38.2540   31.3820   37.4320 C   0  0  0  0  0  0  0  0  0  0  0  0
   37.6210   31.9490   36.4950 O   0  0  0  0  0  0  0  0  0  0  0  0
   41.7150   31.8130   37.6970 H   0  0  0  0  0  0  0  0  0  0  0  0
   40.6330   31.9510   37.8370 C   0  0  0  0  0  0  0  0  0  0  0  0
   40.2940   32.8970   38.6190 O   0  0  0  0  0  0  0  0  0  0  0  0
   39.6470   31.1380   37.1980 N   0  0  0  0  0  0  0  0  0  0  0  0
   40.0270   30.3900   36.5760 H   0  0  0  0  0  0  0  0  0  0  0  0
  1  9  1  0  0  0  0
  1 10  1  0  0  0  0
  2  1  2  0  0  0  0
  3  4  2  0  0  0  0
  3  2  1  0  0  0  0
  4  8  1  0  0  0  0
  5  4  1  0  0  0  0
  5  6  1  0  0  0  0
  6  7  2  0  0  0  0
  7 14  1  0  0  0  0
  8  7  1  0  0  0  0
  8  9  2  0  0  0  0
  9 15  1  0  0  0  0
 11  3  1  0  0  0  0
 12  5  1  0  0  0  0
 13  6  1  0  0  0  0
 16 21  2  0  0  0  0
 16 17  1  0  0  0  0
 17 18  2  0  0  0  0
 18 19  1  0  0  0  0
 18 23  1  0  0  0  0
 20  2  1  0  0  0  0
 20 19  2  0  0  0  0
 21 20  1  0  0  0  0
 22 17  1  0  0  0  0
 24 16  1  0  0  0  0
 25 24  2  0  0  0  0
 26 27  1  0  0  0  0
 27 28  2  0  0  0  0
 29 24  1  0  0  0  0
 29 27  1  0  0  0  0
 30 29  1  0  0  0  0
M  END
>  <minimizedAffinity>
-5.3437295

$$$$

 OpenBabel03252504013D

 30 32  0  0  0  0  0  0  0  0999 V2000
   41.1080   29.1970   42.1550 C   0  0  0  0  0  0  0  0  0  0  0  0
   40.4420   30.3770   41.8250 C   0  0  0  0  0  0  0  0  0  0  0  0
   39.1070   30.5000   42.1160 C   0  0  0  0  0  0  0  0  0  0  0  0
   38.4550   29.4500   42.7290 C   0  0  0  0  0  0  0  0  0  0  0  0
   37.1770   29.2830   43.1260 N   0  0  0  0  0  0  0  0  0  0  0  0
   36.9940   28.0830   43.6800 C   0  0  0  0  0  0  0  0  0  0  0  0
   38.1920   27.4210   43.6550 C   0  0  0  0  0  0  0  0  0  0  0  0
   39.1170   28.2670   43.0600 C   0  0  0  0  0  0  0  0  0  0  0  0
   40.4500   28.1530   42.7670 C   0  0  0  0  0  0  0  0  0  0  0  0
   42.1740   28.9990   41.9650 H   0  0  0  0  0  0  0  0  0  0  0  0
   38.6040   31.4240   41.8530 H   0  0  0  0  0  0  0  0  0  0  0  0
   36.4590   30.0240   42.9960 H   0  0  0  0  0  0  0  0  0  0  0  0
   36.0260   27.7650   44.0610 H   0  0  0  0  0  0  0  0  0  0  0  0
   38.3630   26.4190   44.0350 H   0  0  0  0  0  0  0  0  0  0  0  0
   40.9160   27.2150   43.0460 H   0  0  0  0  0  0  0  0  0  0  0  0
   41.8500   32.5710   39.2770 C   0  0  0  0  0  0  0  0  0  0  0  0
   42.7390   33.3830   39.9830 C   0  0  0  0  0  0  0  0  0  0  0  0
   42.8460   33.1610   41.3540 C   0  0  0  0  0  0  0  0  0  0  0  0
   42.0930   32.1860   41.9130 N   0  0  0  0  0  0  0  0  0  0  0  0
   41.2350   31.4170   41.1760 C   0  0  0  0  0  0  0  0  0  0  0  0
   41.1120   31.6070   39.8600 N   0  0  0  0  0  0  0  0  0  0  0  0
   43.3250   34.1530   39.5000 H   0  0  0  0  0  0  0  0  0  0  0  0
   43.5250   33.7720   41.9330 H   0  0  0  0  0  0  0  0  0  0  0  0
   41.7740   32.8410   37.8540 C   0  0  0  0  0  0  0  0  0  0  0  0
   42.0560   33.9430   37.3010 O   0  0  0  0  0  0  0  0  0  0  0  0
   41.9660   29.8770   36.0060 H   0  0  0  0  0  0  0  0  0  0  0  0
   42.2360   30.7120   36.6680 C   0  0  0  0  0  0  0  0  0  0  0  0
   43.4110   30.6720   37.1570 O   0  0  0  0  0  0  0  0  0  0  0  0
   41.3480   31.7860   36.9800 N   0  0  0  0  0  0  0  0  0  0  0  0
   40.4070   31.7270   36.5290 H   0  0  0  0  0  0  0  0  0  0  0  0
  1  9  1  0  0  0  0
  2  3  1  0  0  0  0
  2  1  2  0  0  0  0
  3  4  2  0  0  0  0
  4  8  1  0  0  0  0
  4  5  1  0  0  0  0
  5  6  1  0  0  0  0
  6 13  1  0  0  0  0
  7  6  2  0  0  0  0
  7 14  1  0  0  0  0
  8  7  1  0  0  0  0
  9 15  1  0  0  0  0
  9  8  2  0  0  0  0
 10  1  1  0  0  0  0
 11  3  1  0  0  0  0
 12  5  1  0  0  0  0
 16 21  2  0  0  0  0
 16 17  1  0  0  0  0
 17 18  2  0  0  0  0
 18 19  1  0  0  0  0
 18 23  1  0  0  0  0
 20  2  1  0  0  0  0
 20 19  2  0  0  0  0
 21 20  1  0  0  0  0
 22 17  1  0  0  0  0
 24 16  1  0  0  0  0
 25 24  2  0  0  0  0
 26 27  1  0  0  0  0
 27 29  1  0  0  0  0
 27 28  2  0  0  0  0
 29 24  1  0  0  0  0
 30 29  1  0  0  0  0
M  END
>  <minimizedAffinity>
-5.3222928

$$$$

 OpenBabel03252504013D

 30 32  0  0  0  0  0  0  0  0999 V2000
   35.0600   28.5400   38.5790 C   0  0  0  0  0  0  0  0  0  0  0  0
   36.3010   27.9290   38.7640 C   0  0  0  0  0  0  0  0  0  0  0  0
   37.1810   27.8630   37.7140 C   0  0  0  0  0  0  0  0  0  0  0  0
   36.8160   28.4040   36.4980 C   0  0  0  0  0  0  0  0  0  0  0  0
   37.4550   28.4850   35.3130 N   0  0  0  0  0  0  0  0  0  0  0  0
   36.7040   29.1010   34.3990 C   0  0  0  0  0  0  0  0  0  0  0  0
   35.5190   29.4480   34.9910 C   0  0  0  0  0  0  0  0  0  0  0  0
   35.5760   29.0150   36.3080 C   0  0  0  0  0  0  0  0  0  0  0  0
   34.7030   29.0770   37.3620 C   0  0  0  0  0  0  0  0  0  0  0  0
   34.2860   28.6440   39.3540 H   0  0  0  0  0  0  0  0  0  0  0  0
   38.1410   27.3850   37.8740 H   0  0  0  0  0  0  0  0  0  0  0  0
   38.4110   28.1010   35.1760 H   0  0  0  0  0  0  0  0  0  0  0  0
   37.0500   29.2610   33.3790 H   0  0  0  0  0  0  0  0  0  0  0  0
   34.7000   29.9630   34.5020 H   0  0  0  0  0  0  0  0  0  0  0  0
   33.7560   29.5620   37.1610 H   0  0  0  0  0  0  0  0  0  0  0  0
   37.2470   25.6490   41.4460 C   0  0  0  0  0  0  0  0  0  0  0  0
   37.0810   26.4050   42.6070 C   0  0  0  0  0  0  0  0  0  0  0  0
   36.6360   27.7160   42.4510 C   0  0  0  0  0  0  0  0  0  0  0  0
   36.3940   28.1720   41.2000 N   0  0  0  0  0  0  0  0  0  0  0  0
   36.5740   27.3900   40.0930 C   0  0  0  0  0  0  0  0  0  0  0  0
   36.9990   26.1300   40.2120 N   0  0  0  0  0  0  0  0  0  0  0  0
   37.2840   26.0040   43.5910 H   0  0  0  0  0  0  0  0  0  0  0  0
   36.4950   28.3310   43.3300 H   0  0  0  0  0  0  0  0  0  0  0  0
   37.7130   24.2920   41.6610 C   0  0  0  0  0  0  0  0  0  0  0  0
   37.4240   23.2960   40.9360 O   0  0  0  0  0  0  0  0  0  0  0  0
   40.6480   24.2590   43.5630 H   0  0  0  0  0  0  0  0  0  0  0  0
   39.9420   24.4310   42.7380 C   0  0  0  0  0  0  0  0  0  0  0  0
   40.4210   25.0190   41.7150 O   0  0  0  0  0  0  0  0  0  0  0  0
   38.5710   24.0320   42.7800 N   0  0  0  0  0  0  0  0  0  0  0  0
   38.2760   23.5560   43.6620 H   0  0  0  0  0  0  0  0  0  0  0  0
  1  2  1  0  0  0  0
  1 10  1  0  0  0  0
  2 20  1  0  0  0  0
  3 11  1  0  0  0  0
  3  2  2  0  0  0  0
  4  3  1  0  0  0  0
  5  4  1  0  0  0  0
  6  7  2  0  0  0  0
  6  5  1  0  0  0  0
  7  8  1  0  0  0  0
  8  4  2  0  0  0  0
  8  9  1  0  0  0  0
  9  1  2  0  0  0  0
 12  5  1  0  0  0  0
 13  6  1  0  0  0  0
 14  7  1  0  0  0  0
 15  9  1  0  0  0  0
 16 24  1  0  0  0  0
 16 17  1  0  0  0  0
 17 22  1  0  0  0  0
 18 17  2  0  0  0  0
 18 23  1  0  0  0  0
 19 18  1  0  0  0  0
 20 21  1  0  0  0  0
 20 19  2  0  0  0  0
 21 16  2  0  0  0  0
 24 29  1  0  0  0  0
 25 24  2  0  0  0  0
 27 29  1  0  0  0  0
 27 26  1  0  0  0  0
 28 27  2  0  0  0  0
 29 30  1  0  0  0  0
M  END
>  <minimizedAffinity>
-5.30590487

$$$$

 OpenBabel03252504013D

 30 32  0  0  0  0  0  0  0  0999 V2000
   40.1550   29.1680   37.6480 C   0  0  0  0  0  0  0  0  0  0  0  0
   40.1630   30.4910   38.0900 C   0  0  0  0  0  0  0  0  0  0  0  0
   41.1890   31.3200   37.7140 C   0  0  0  0  0  0  0  0  0  0  0  0
   42.1910   30.8230   36.9040 C   0  0  0  0  0  0  0  0  0  0  0  0
   43.3010   31.3860   36.3860 N   0  0  0  0  0  0  0  0  0  0  0  0
   43.9900   30.5100   35.6510 C   0  0  0  0  0  0  0  0  0  0  0  0
   43.3170   29.3180   35.6760 C   0  0  0  0  0  0  0  0  0  0  0  0
   42.1860   29.5010   36.4600 C   0  0  0  0  0  0  0  0  0  0  0  0
   41.1580   28.6800   36.8400 C   0  0  0  0  0  0  0  0  0  0  0  0
   39.3810   28.4260   37.8920 H   0  0  0  0  0  0  0  0  0  0  0  0
   41.1810   32.3450   38.0670 H   0  0  0  0  0  0  0  0  0  0  0  0
   43.5490   32.3790   36.5640 H   0  0  0  0  0  0  0  0  0  0  0  0
   44.9180   30.7810   35.1510 H   0  0  0  0  0  0  0  0  0  0  0  0
   43.6290   28.4110   35.1700 H   0  0  0  0  0  0  0  0  0  0  0  0
   41.2030   27.6640   36.4660 H   0  0  0  0  0  0  0  0  0  0  0  0
   37.4050   30.3830   40.4710 C   0  0  0  0  0  0  0  0  0  0  0  0
   36.9700   31.7060   40.5450 C   0  0  0  0  0  0  0  0  0  0  0  0
   37.6430   32.6390   39.7590 C   0  0  0  0  0  0  0  0  0  0  0  0
   38.6650   32.2130   38.9820 N   0  0  0  0  0  0  0  0  0  0  0  0
   39.0530   30.9020   38.9450 C   0  0  0  0  0  0  0  0  0  0  0  0
   38.4260   29.9860   39.6880 N   0  0  0  0  0  0  0  0  0  0  0  0
   36.1470   32.0090   41.1800 H   0  0  0  0  0  0  0  0  0  0  0  0
   37.3330   33.6750   39.7920 H   0  0  0  0  0  0  0  0  0  0  0  0
   36.6720   29.4500   41.3080 C   0  0  0  0  0  0  0  0  0  0  0  0
   35.8700   28.5660   40.8890 O   0  0  0  0  0  0  0  0  0  0  0  0
   38.2540   29.0320   44.3990 H   0  0  0  0  0  0  0  0  0  0  0  0
   38.0560   29.0100   43.3190 C   0  0  0  0  0  0  0  0  0  0  0  0
   38.9730   28.4980   42.5990 O   0  0  0  0  0  0  0  0  0  0  0  0
   36.8570   29.5160   42.7280 N   0  0  0  0  0  0  0  0  0  0  0  0
   36.1670   29.9140   43.4030 H   0  0  0  0  0  0  0  0  0  0  0  0
  1 10  1  0  0  0  0
  1  2  1  0  0  0  0
  2 20  1  0  0  0  0
  3 11  1  0  0  0  0
  3  2  2  0  0  0  0
  4  3  1  0  0  0  0
  5 12  1  0  0  0  0
  5  4  1  0  0  0  0
  6  7  2  0  0  0  0
  6  5  1  0  0  0  0
  7  8  1  0  0  0  0
  8  9  1  0  0  0  0
  8  4  2  0  0  0  0
  9  1  2  0  0  0  0
 13  6  1  0  0  0  0
 14  7  1  0  0  0  0
 15  9  1  0  0  0  0
 16 17  1  0  0  0  0
 16 24  1  0  0  0  0
 17 22  1  0  0  0  0
 18 23  1  0  0  0  0
 18 17  2  0  0  0  0
 19 18  1  0  0  0  0
 20 19  2  0  0  0  0
 20 21  1  0  0  0  0
 21 16  2  0  0  0  0
 24 29  1  0  0  0  0
 25 24  2  0  0  0  0
 27 26  1  0  0  0  0
 28 27  2  0  0  0  0
 29 27  1  0  0  0  0
 29 30  1  0  0  0  0
M  END
>  <minimizedAffinity>
-5.30202579

$$$$
