
 OpenBabel03252504013D

 30 32  0  0  0  0  0  0  0  0999 V2000
   46.0400   31.6400   45.1340 C   0  0  0  0  0  0  0  0  0  0  0  0
   45.8430   32.9700   45.5030 C   0  0  0  0  0  0  0  0  0  0  0  0
   45.5740   33.2730   46.8130 C   0  0  0  0  0  0  0  0  0  0  0  0
   45.5060   32.2500   47.7370 C   0  0  0  0  0  0  0  0  0  0  0  0
   45.2630   32.2400   49.0630 N   0  0  0  0  0  0  0  0  0  0  0  0
   45.2920   30.9990   49.5520 C   0  0  0  0  0  0  0  0  0  0  0  0
   45.5660   30.1450   48.5180 C   0  0  0  0  0  0  0  0  0  0  0  0
   45.7010   30.9180   47.3730 C   0  0  0  0  0  0  0  0  0  0  0  0
   45.9690   30.6240   46.0620 C   0  0  0  0  0  0  0  0  0  0  0  0
   46.2590   31.2930   44.1130 H   0  0  0  0  0  0  0  0  0  0  0  0
   45.4240   34.3120   47.0840 H   0  0  0  0  0  0  0  0  0  0  0  0
   45.0800   33.1140   49.5960 H   0  0  0  0  0  0  0  0  0  0  0  0
   45.1180   30.7890   50.6060 H   0  0  0  0  0  0  0  0  0  0  0  0
   45.6540   29.0680   48.6000 H   0  0  0  0  0  0  0  0  0  0  0  0
   46.1130   29.5750   45.8330 H   0  0  0  0  0  0  0  0  0  0  0  0
   46.9660   34.7730   42.5390 C   0  0  0  0  0  0  0  0  0  0  0  0
   46.0870   35.8520   42.4470 C   0  0  0  0  0  0  0  0  0  0  0  0
   45.0980   35.9490   43.4230 C   0  0  0  0  0  0  0  0  0  0  0  0
   45.0500   35.0050   44.3910 N   0  0  0  0  0  0  0  0  0  0  0  0
   45.9370   33.9650   44.4380 C   0  0  0  0  0  0  0  0  0  0  0  0
   46.8950   33.8460   43.5150 N   0  0  0  0  0  0  0  0  0  0  0  0
   46.1570   36.5880   41.6560 H   0  0  0  0  0  0  0  0  0  0  0  0
   44.3990   36.7730   43.3820 H   0  0  0  0  0  0  0  0  0  0  0  0
   47.9770   34.7150   41.5000 C   0  0  0  0  0  0  0  0  0  0  0  0
   48.7240   35.6740   41.1520 O   0  0  0  0  0  0  0  0  0  0  0  0
   48.4370   32.5690   38.7780 H   0  0  0  0  0  0  0  0  0  0  0  0
   48.2930   33.4800   39.3730 C   0  0  0  0  0  0  0  0  0  0  0  0
   48.2470   34.5700   38.7120 O   0  0  0  0  0  0  0  0  0  0  0  0
   48.1620   33.4800   40.7950 N   0  0  0  0  0  0  0  0  0  0  0  0
   48.2150   32.5380   41.2430 H   0  0  0  0  0  0  0  0  0  0  0  0
  1  2  2  0  0  0  0
  1  9  1  0  0  0  0
  2  3  1  0  0  0  0
  3 11  1  0  0  0  0
  3  4  2  0  0  0  0
  4  5  1  0  0  0  0
  5  6  1  0  0  0  0
  5 12  1  0  0  0  0
  6 13  1  0  0  0  0
  7 14  1  0  0  0  0
  7  6  2  0  0  0  0
  8  4  1  0  0  0  0
  8  7  1  0  0  0  0
  9  8  2  0  0  0  0
 10  1  1  0  0  0  0
 15  9  1  0  0  0  0
 16 21  1  0  0  0  0
 17 16  2  0  0  0  0
 17 18  1  0  0  0  0
 18 19  2  0  0  0  0
 19 20  1  0  0  0  0
 20  2  1  0  0  0  0
 21 20  2  0  0  0  0
 22 17  1  0  0  0  0
 23 18  1  0  0  0  0
 24 16  1  0  0  0  0
 25 24  2  0  0  0  0
 26 27  1  0  0  0  0
 27 29  1  0  0  0  0
 28 27  2  0  0  0  0
 29 30  1  0  0  0  0
 29 24  1  0  0  0  0
M  END
>  <minimizedAffinity>
-5.8551836

>  <minimizedRMSD>
0.304930925

$$$$
