
 OpenBabel03252508013D

 25 26  0  0  1  0  0  0  0  0999 V2000
   46.2550   34.7750   43.1960 C   0  0  0  0  0  0  0  0  0  0  0  0
   45.3210   35.7960   43.5460 C   0  0  0  0  0  0  0  0  0  0  0  0
   44.6760   35.6250   44.7670 C   0  0  0  0  0  0  0  0  0  0  0  0
   44.9610   34.5420   45.5250 N   0  0  0  0  0  0  0  0  0  0  0  0
   45.8740   33.5950   45.1240 C   0  0  0  0  0  0  0  0  0  0  0  0
   46.5180   33.6980   43.9800 N   0  0  0  0  0  0  0  0  0  0  0  0
   45.1640   36.6230   42.8690 H   0  0  0  0  0  0  0  0  0  0  0  0
   43.9630   36.3720   45.0710 H   0  0  0  0  0  0  0  0  0  0  0  0
   46.1400   32.4440   46.0290 C   0  0  1  0  0  0  0  0  0  0  0  0
   46.9130   32.6950   47.3080 C   0  0  0  0  0  0  0  0  0  0  0  0
   45.4240   32.4930   47.3210 C   0  0  1  0  0  0  0  0  0  0  0  0
   46.3090   31.4640   45.5450 H   0  0  0  0  0  0  0  0  0  0  0  0
   47.3380   33.7180   47.3530 H   0  0  0  0  0  0  0  0  0  0  0  0
   47.5280   31.8580   47.6880 H   0  0  0  0  0  0  0  0  0  0  0  0
   45.0590   31.6120   47.8580 H   0  0  0  0  0  0  0  0  0  0  0  0
   44.7190   33.7230   47.7060 N   0  0  0  0  0  0  0  0  0  0  0  0
   43.8210   33.5000   48.2180 H   0  0  0  0  0  0  0  0  0  0  0  0
   45.2960   34.2410   48.4090 H   0  0  0  0  0  0  0  0  0  0  0  0
   46.9380   34.9650   41.9320 C   0  0  0  0  0  0  0  0  0  0  0  0
   48.0120   35.6530   41.8110 O   0  0  0  0  0  0  0  0  0  0  0  0
   44.9350   33.4670   39.5250 H   0  0  0  0  0  0  0  0  0  0  0  0
   45.1820   33.8680   40.4950 C   0  0  0  0  0  0  0  0  0  0  0  0
   44.3790   33.8890   41.4670 O   0  0  0  0  0  0  0  0  0  0  0  0
   46.4860   34.4040   40.6980 N   0  0  0  0  0  0  0  0  0  0  0  0
   47.1960   34.4180   39.9360 H   0  0  0  0  0  0  0  0  0  0  0  0
  1  2  2  0  0  0  0
  1  6  1  0  0  0  0
  2  3  1  0  0  0  0
  3  8  1  0  0  0  0
  3  4  2  0  0  0  0
  5  4  1  0  0  0  0
  5  9  1  0  0  0  0
  6  5  2  0  0  0  0
  7  2  1  0  0  0  0
  9 12  1  6  0  0  0
  9 10  1  0  0  0  0
  9 11  1  0  0  0  0
 10 11  1  0  0  0  0
 10 13  1  0  0  0  0
 10 14  1  0  0  0  0
 11 16  1  0  0  0  0
 11 15  1  1  0  0  0
 16 17  1  0  0  0  0
 16 18  1  0  0  0  0
 19  1  1  0  0  0  0
 20 19  2  0  0  0  0
 21 22  1  0  0  0  0
 22 24  1  0  0  0  0
 22 23  2  0  0  0  0
 24 19  1  0  0  0  0
 25 24  1  0  0  0  0
M  END
>  <minimizedAffinity>
-5.29003906

>  <minimizedRMSD>
0.176570669

$$$$
