
 OpenBabel03252504013D

 30 32  0  0  0  0  0  0  0  0999 V2000
   46.0500   31.6230   45.1160 C   0  0  0  0  0  0  0  0  0  0  0  0
   45.8710   32.9560   45.4830 C   0  0  0  0  0  0  0  0  0  0  0  0
   45.6010   33.2630   46.7930 C   0  0  0  0  0  0  0  0  0  0  0  0
   45.5130   32.2420   47.7170 C   0  0  0  0  0  0  0  0  0  0  0  0
   45.2640   32.2370   49.0420 N   0  0  0  0  0  0  0  0  0  0  0  0
   45.2720   30.9960   49.5310 C   0  0  0  0  0  0  0  0  0  0  0  0
   45.5380   30.1370   48.4990 C   0  0  0  0  0  0  0  0  0  0  0  0
   45.6910   30.9070   47.3540 C   0  0  0  0  0  0  0  0  0  0  0  0
   45.9600   30.6090   46.0440 C   0  0  0  0  0  0  0  0  0  0  0  0
   46.2690   31.2720   44.0970 H   0  0  0  0  0  0  0  0  0  0  0  0
   45.4650   34.3050   47.0620 H   0  0  0  0  0  0  0  0  0  0  0  0
   45.0920   33.1140   49.5730 H   0  0  0  0  0  0  0  0  0  0  0  0
   45.0900   30.7890   50.5850 H   0  0  0  0  0  0  0  0  0  0  0  0
   45.6100   29.0590   48.5820 H   0  0  0  0  0  0  0  0  0  0  0  0
   46.0900   29.5570   45.8170 H   0  0  0  0  0  0  0  0  0  0  0  0
   47.1390   34.8500   42.6380 C   0  0  0  0  0  0  0  0  0  0  0  0
   46.1680   35.8290   42.4240 C   0  0  0  0  0  0  0  0  0  0  0  0
   45.0670   35.8270   43.2770 C   0  0  0  0  0  0  0  0  0  0  0  0
   45.0050   34.8890   44.2500 N   0  0  0  0  0  0  0  0  0  0  0  0
   45.9840   33.9490   44.4190 C   0  0  0  0  0  0  0  0  0  0  0  0
   47.0510   33.9270   43.6150 N   0  0  0  0  0  0  0  0  0  0  0  0
   46.2540   36.5630   41.6340 H   0  0  0  0  0  0  0  0  0  0  0  0
   44.2950   36.5710   43.1400 H   0  0  0  0  0  0  0  0  0  0  0  0
   48.2650   34.8940   41.7230 C   0  0  0  0  0  0  0  0  0  0  0  0
   48.9620   35.9180   41.4690 O   0  0  0  0  0  0  0  0  0  0  0  0
   47.9320   32.1120   39.6290 H   0  0  0  0  0  0  0  0  0  0  0  0
   47.7040   33.0360   40.1790 C   0  0  0  0  0  0  0  0  0  0  0  0
   46.5340   33.5090   40.0050 O   0  0  0  0  0  0  0  0  0  0  0  0
   48.6380   33.6890   41.0400 N   0  0  0  0  0  0  0  0  0  0  0  0
   49.5700   33.2230   41.1160 H   0  0  0  0  0  0  0  0  0  0  0  0
  1  2  2  0  0  0  0
  1  9  1  0  0  0  0
  2  3  1  0  0  0  0
  3 11  1  0  0  0  0
  3  4  2  0  0  0  0
  4  5  1  0  0  0  0
  5  6  1  0  0  0  0
  5 12  1  0  0  0  0
  6 13  1  0  0  0  0
  7 14  1  0  0  0  0
  7  6  2  0  0  0  0
  8  4  1  0  0  0  0
  8  7  1  0  0  0  0
  9  8  2  0  0  0  0
 10  1  1  0  0  0  0
 15  9  1  0  0  0  0
 16 21  1  0  0  0  0
 17 16  2  0  0  0  0
 17 18  1  0  0  0  0
 18 19  2  0  0  0  0
 19 20  1  0  0  0  0
 20  2  1  0  0  0  0
 21 20  2  0  0  0  0
 22 17  1  0  0  0  0
 23 18  1  0  0  0  0
 24 16  1  0  0  0  0
 25 24  2  0  0  0  0
 26 27  1  0  0  0  0
 27 29  1  0  0  0  0
 28 27  2  0  0  0  0
 29 30  1  0  0  0  0
 29 24  1  0  0  0  0
M  END
>  <minimizedAffinity>
-5.71995974

>  <minimizedRMSD>
0.457418531

$$$$
