
 OpenBabel03252508013D

 25 26  0  0  1  0  0  0  0  0999 V2000
   46.2450   34.7280   43.2430 C   0  0  0  0  0  0  0  0  0  0  0  0
   45.2840   35.7230   43.5910 C   0  0  0  0  0  0  0  0  0  0  0  0
   44.6490   35.5400   44.8160 C   0  0  0  0  0  0  0  0  0  0  0  0
   44.9670   34.4700   45.5780 N   0  0  0  0  0  0  0  0  0  0  0  0
   45.9060   33.5480   45.1780 C   0  0  0  0  0  0  0  0  0  0  0  0
   46.5420   33.6620   44.0320 N   0  0  0  0  0  0  0  0  0  0  0  0
   45.1010   36.5420   42.9110 H   0  0  0  0  0  0  0  0  0  0  0  0
   43.9160   36.2680   45.1190 H   0  0  0  0  0  0  0  0  0  0  0  0
   46.2080   32.4100   46.0890 C   0  0  1  0  0  0  0  0  0  0  0  0
   47.0410   32.6750   47.3260 C   0  0  0  0  0  0  0  0  0  0  0  0
   45.5530   32.4830   47.4110 C   0  0  1  0  0  0  0  0  0  0  0  0
   46.3490   31.4210   45.6130 H   0  0  0  0  0  0  0  0  0  0  0  0
   47.4720   33.6970   47.3350 H   0  0  0  0  0  0  0  0  0  0  0  0
   47.6680   31.8410   47.6900 H   0  0  0  0  0  0  0  0  0  0  0  0
   45.2080   31.6130   47.9790 H   0  0  0  0  0  0  0  0  0  0  0  0
   44.8730   33.7230   47.8090 N   0  0  0  0  0  0  0  0  0  0  0  0
   43.9990   33.5140   48.3660 H   0  0  0  0  0  0  0  0  0  0  0  0
   45.4840   34.2480   48.4770 H   0  0  0  0  0  0  0  0  0  0  0  0
   46.9180   34.9290   41.9760 C   0  0  0  0  0  0  0  0  0  0  0  0
   48.0730   35.4770   41.8730 O   0  0  0  0  0  0  0  0  0  0  0  0
   45.8670   32.9990   39.2890 H   0  0  0  0  0  0  0  0  0  0  0  0
   46.3020   33.1930   40.2550 C   0  0  0  0  0  0  0  0  0  0  0  0
   46.7640   32.2910   41.0070 O   0  0  0  0  0  0  0  0  0  0  0  0
   46.3650   34.5400   40.7170 N   0  0  0  0  0  0  0  0  0  0  0  0
   46.0040   35.3310   40.1450 H   0  0  0  0  0  0  0  0  0  0  0  0
  1  2  2  0  0  0  0
  1  6  1  0  0  0  0
  2  3  1  0  0  0  0
  3  8  1  0  0  0  0
  3  4  2  0  0  0  0
  5  4  1  0  0  0  0
  5  9  1  0  0  0  0
  6  5  2  0  0  0  0
  7  2  1  0  0  0  0
  9 12  1  6  0  0  0
  9 10  1  0  0  0  0
  9 11  1  0  0  0  0
 10 13  1  0  0  0  0
 10 11  1  0  0  0  0
 10 14  1  0  0  0  0
 11 16  1  0  0  0  0
 11 15  1  1  0  0  0
 16 17  1  0  0  0  0
 16 18  1  0  0  0  0
 19  1  1  0  0  0  0
 20 19  2  0  0  0  0
 21 22  1  0  0  0  0
 22 24  1  0  0  0  0
 22 23  2  0  0  0  0
 24 19  1  0  0  0  0
 25 24  1  0  0  0  0
M  END
>  <minimizedAffinity>
-5.14447737

>  <minimizedRMSD>
0.0333576873

$$$$
