
 OpenBabel03252504003D

 30 32  0  0  0  0  0  0  0  0999 V2000
   46.0550   31.7700   45.1230 C   0  0  0  0  0  0  0  0  0  0  0  0
   45.7730   33.0680   45.5510 C   0  0  0  0  0  0  0  0  0  0  0  0
   45.4850   33.2930   46.8730 C   0  0  0  0  0  0  0  0  0  0  0  0
   45.4830   32.2270   47.7500 C   0  0  0  0  0  0  0  0  0  0  0  0
   45.2410   32.1420   49.0730 N   0  0  0  0  0  0  0  0  0  0  0  0
   45.3500   30.8840   49.5060 C   0  0  0  0  0  0  0  0  0  0  0  0
   45.6780   30.0970   48.4350 C   0  0  0  0  0  0  0  0  0  0  0  0
   45.7640   30.9280   47.3260 C   0  0  0  0  0  0  0  0  0  0  0  0
   46.0500   30.7120   46.0040 C   0  0  0  0  0  0  0  0  0  0  0  0
   46.2970   31.4850   44.0890 H   0  0  0  0  0  0  0  0  0  0  0  0
   45.2690   34.3070   47.1890 H   0  0  0  0  0  0  0  0  0  0  0  0
   45.0020   32.9770   49.6440 H   0  0  0  0  0  0  0  0  0  0  0  0
   45.1890   30.6170   50.5490 H   0  0  0  0  0  0  0  0  0  0  0  0
   45.8350   29.0250   48.4690 H   0  0  0  0  0  0  0  0  0  0  0  0
   46.2620   29.6850   45.7290 H   0  0  0  0  0  0  0  0  0  0  0  0
   46.7550   35.0490   42.6520 C   0  0  0  0  0  0  0  0  0  0  0  0
   45.8320   36.0940   42.6290 C   0  0  0  0  0  0  0  0  0  0  0  0
   44.8630   36.1060   43.6300 C   0  0  0  0  0  0  0  0  0  0  0  0
   44.8750   35.1180   44.5530 N   0  0  0  0  0  0  0  0  0  0  0  0
   45.8030   34.1130   44.5320 C   0  0  0  0  0  0  0  0  0  0  0  0
   46.7430   34.0760   43.5850 N   0  0  0  0  0  0  0  0  0  0  0  0
   45.8550   36.8680   41.8730 H   0  0  0  0  0  0  0  0  0  0  0  0
   44.1310   36.9020   43.6420 H   0  0  0  0  0  0  0  0  0  0  0  0
   47.7430   35.0800   41.5890 C   0  0  0  0  0  0  0  0  0  0  0  0
   48.7770   35.8070   41.5730 O   0  0  0  0  0  0  0  0  0  0  0  0
   46.0760   32.9500   39.3720 H   0  0  0  0  0  0  0  0  0  0  0  0
   46.2830   33.6130   40.2220 C   0  0  0  0  0  0  0  0  0  0  0  0
   45.3050   33.8170   41.0140 O   0  0  0  0  0  0  0  0  0  0  0  0
   47.5520   34.2240   40.4540 N   0  0  0  0  0  0  0  0  0  0  0  0
   48.2880   33.9950   39.7490 H   0  0  0  0  0  0  0  0  0  0  0  0
  1  2  2  0  0  0  0
  1  9  1  0  0  0  0
  2  3  1  0  0  0  0
  3 11  1  0  0  0  0
  3  4  2  0  0  0  0
  4  5  1  0  0  0  0
  5  6  1  0  0  0  0
  5 12  1  0  0  0  0
  6 13  1  0  0  0  0
  7 14  1  0  0  0  0
  7  6  2  0  0  0  0
  8  4  1  0  0  0  0
  8  7  1  0  0  0  0
  9  8  2  0  0  0  0
 10  1  1  0  0  0  0
 15  9  1  0  0  0  0
 16 21  1  0  0  0  0
 17 16  2  0  0  0  0
 17 18  1  0  0  0  0
 18 23  1  0  0  0  0
 18 19  2  0  0  0  0
 20 19  1  0  0  0  0
 20  2  1  0  0  0  0
 21 20  2  0  0  0  0
 22 17  1  0  0  0  0
 24 16  1  0  0  0  0
 25 24  2  0  0  0  0
 26 27  1  0  0  0  0
 27 29  1  0  0  0  0
 27 28  2  0  0  0  0
 29 24  1  0  0  0  0
 30 29  1  0  0  0  0
M  END
>  <minimizedAffinity>
-5.82013845

>  <minimizedRMSD>
0.298126072

$$$$
