
 OpenBabel03252504013D

 30 32  0  0  0  0  0  0  0  0999 V2000
   46.0480   31.6210   45.1280 C   0  0  0  0  0  0  0  0  0  0  0  0
   45.8680   32.9560   45.4900 C   0  0  0  0  0  0  0  0  0  0  0  0
   45.5980   33.2670   46.7980 C   0  0  0  0  0  0  0  0  0  0  0  0
   45.5120   32.2500   47.7260 C   0  0  0  0  0  0  0  0  0  0  0  0
   45.2630   32.2500   49.0510 N   0  0  0  0  0  0  0  0  0  0  0  0
   45.2730   31.0100   49.5460 C   0  0  0  0  0  0  0  0  0  0  0  0
   45.5390   30.1480   48.5160 C   0  0  0  0  0  0  0  0  0  0  0  0
   45.6910   30.9130   47.3680 C   0  0  0  0  0  0  0  0  0  0  0  0
   45.9600   30.6110   46.0600 C   0  0  0  0  0  0  0  0  0  0  0  0
   46.2680   31.2670   44.1100 H   0  0  0  0  0  0  0  0  0  0  0  0
   45.4610   34.3100   47.0630 H   0  0  0  0  0  0  0  0  0  0  0  0
   45.0900   33.1280   49.5790 H   0  0  0  0  0  0  0  0  0  0  0  0
   45.0920   30.8080   50.6000 H   0  0  0  0  0  0  0  0  0  0  0  0
   45.6130   29.0700   48.6040 H   0  0  0  0  0  0  0  0  0  0  0  0
   46.0900   29.5580   45.8370 H   0  0  0  0  0  0  0  0  0  0  0  0
   47.0820   34.7800   42.5750 C   0  0  0  0  0  0  0  0  0  0  0  0
   46.1630   35.8180   42.4200 C   0  0  0  0  0  0  0  0  0  0  0  0
   45.1170   35.8810   43.3380 C   0  0  0  0  0  0  0  0  0  0  0  0
   45.0530   34.9440   44.3120 N   0  0  0  0  0  0  0  0  0  0  0  0
   45.9800   33.9440   44.4210 C   0  0  0  0  0  0  0  0  0  0  0  0
   46.9940   33.8590   43.5560 N   0  0  0  0  0  0  0  0  0  0  0  0
   46.2480   36.5490   41.6270 H   0  0  0  0  0  0  0  0  0  0  0  0
   44.3860   36.6730   43.2470 H   0  0  0  0  0  0  0  0  0  0  0  0
   48.1520   34.7570   41.5960 C   0  0  0  0  0  0  0  0  0  0  0  0
   48.8300   35.7600   41.2300 O   0  0  0  0  0  0  0  0  0  0  0  0
   48.6310   32.4280   39.0310 H   0  0  0  0  0  0  0  0  0  0  0  0
   48.3880   33.3590   39.5620 C   0  0  0  0  0  0  0  0  0  0  0  0
   48.0010   34.3270   38.8290 O   0  0  0  0  0  0  0  0  0  0  0  0
   48.4880   33.5070   40.9790 N   0  0  0  0  0  0  0  0  0  0  0  0
   48.8130   32.6570   41.4900 H   0  0  0  0  0  0  0  0  0  0  0  0
  1  2  2  0  0  0  0
  1  9  1  0  0  0  0
  2  3  1  0  0  0  0
  3 11  1  0  0  0  0
  3  4  2  0  0  0  0
  4  5  1  0  0  0  0
  5  6  1  0  0  0  0
  5 12  1  0  0  0  0
  6 13  1  0  0  0  0
  7 14  1  0  0  0  0
  7  6  2  0  0  0  0
  8  4  1  0  0  0  0
  8  7  1  0  0  0  0
  9  8  2  0  0  0  0
 10  1  1  0  0  0  0
 15  9  1  0  0  0  0
 16 21  1  0  0  0  0
 17 16  2  0  0  0  0
 17 18  1  0  0  0  0
 18 19  2  0  0  0  0
 19 20  1  0  0  0  0
 20  2  1  0  0  0  0
 21 20  2  0  0  0  0
 22 17  1  0  0  0  0
 23 18  1  0  0  0  0
 24 16  1  0  0  0  0
 25 24  2  0  0  0  0
 26 27  1  0  0  0  0
 27 29  1  0  0  0  0
 28 27  2  0  0  0  0
 29 30  1  0  0  0  0
 29 24  1  0  0  0  0
M  END
>  <minimizedAffinity>
-5.86590624

>  <minimizedRMSD>
0.418566078

$$$$
