
 OpenBabel03252504003D

 30 32  0  0  0  0  0  0  0  0999 V2000
   46.1230   31.5060   45.0880 C   0  0  0  0  0  0  0  0  0  0  0  0
   46.0000   32.8580   45.4050 C   0  0  0  0  0  0  0  0  0  0  0  0
   45.7170   33.2240   46.6960 C   0  0  0  0  0  0  0  0  0  0  0  0
   45.5620   32.2420   47.6530 C   0  0  0  0  0  0  0  0  0  0  0  0
   45.2850   32.2950   48.9710 N   0  0  0  0  0  0  0  0  0  0  0  0
   45.2240   31.0730   49.5040 C   0  0  0  0  0  0  0  0  0  0  0  0
   45.4710   30.1670   48.5080 C   0  0  0  0  0  0  0  0  0  0  0  0
   45.6830   30.8880   47.3400 C   0  0  0  0  0  0  0  0  0  0  0  0
   45.9660   30.5310   46.0480 C   0  0  0  0  0  0  0  0  0  0  0  0
   46.3460   31.1100   44.0870 H   0  0  0  0  0  0  0  0  0  0  0  0
   45.6250   34.2800   46.9260 H   0  0  0  0  0  0  0  0  0  0  0  0
   45.1440   33.1980   49.4680 H   0  0  0  0  0  0  0  0  0  0  0  0
   45.0110   30.9130   50.5590 H   0  0  0  0  0  0  0  0  0  0  0  0
   45.4890   29.0900   48.6300 H   0  0  0  0  0  0  0  0  0  0  0  0
   46.0500   29.4670   45.8610 H   0  0  0  0  0  0  0  0  0  0  0  0
   47.5010   34.7190   42.6530 C   0  0  0  0  0  0  0  0  0  0  0  0
   46.4950   35.5990   42.2520 C   0  0  0  0  0  0  0  0  0  0  0  0
   45.2890   35.5420   42.9460 C   0  0  0  0  0  0  0  0  0  0  0  0
   45.1650   34.6490   43.9550 N   0  0  0  0  0  0  0  0  0  0  0  0
   46.1820   33.8060   44.3090 C   0  0  0  0  0  0  0  0  0  0  0  0
   47.3500   33.8390   43.6620 N   0  0  0  0  0  0  0  0  0  0  0  0
   46.6330   36.3010   41.4390 H   0  0  0  0  0  0  0  0  0  0  0  0
   44.4870   36.2100   42.6620 H   0  0  0  0  0  0  0  0  0  0  0  0
   48.7370   34.8180   41.8990 C   0  0  0  0  0  0  0  0  0  0  0  0
   49.8930   34.5810   42.3550 O   0  0  0  0  0  0  0  0  0  0  0  0
   48.1370   34.5320   38.4650 H   0  0  0  0  0  0  0  0  0  0  0  0
   48.2110   34.2880   39.5340 C   0  0  0  0  0  0  0  0  0  0  0  0
   47.8570   33.1080   39.8570 O   0  0  0  0  0  0  0  0  0  0  0  0
   48.6690   35.2120   40.5220 N   0  0  0  0  0  0  0  0  0  0  0  0
   48.9360   36.1540   40.1560 H   0  0  0  0  0  0  0  0  0  0  0  0
  1  2  2  0  0  0  0
  1  9  1  0  0  0  0
  2  3  1  0  0  0  0
  3 11  1  0  0  0  0
  3  4  2  0  0  0  0
  4  5  1  0  0  0  0
  5 12  1  0  0  0  0
  5  6  1  0  0  0  0
  6 13  1  0  0  0  0
  7 14  1  0  0  0  0
  7  6  2  0  0  0  0
  8  4  1  0  0  0  0
  8  7  1  0  0  0  0
  9  8  2  0  0  0  0
 10  1  1  0  0  0  0
 15  9  1  0  0  0  0
 16 21  1  0  0  0  0
 17 16  2  0  0  0  0
 17 18  1  0  0  0  0
 18 19  2  0  0  0  0
 19 20  1  0  0  0  0
 20  2  1  0  0  0  0
 21 20  2  0  0  0  0
 22 17  1  0  0  0  0
 23 18  1  0  0  0  0
 24 25  2  0  0  0  0
 24 16  1  0  0  0  0
 26 27  1  0  0  0  0
 27 28  2  0  0  0  0
 27 29  1  0  0  0  0
 29 24  1  0  0  0  0
 30 29  1  0  0  0  0
M  END
>  <minimizedAffinity>
-6.13487911

>  <minimizedRMSD>
1.03349483

$$$$
