
 OpenBabel03252508013D

 25 26  0  0  1  0  0  0  0  0999 V2000
   46.2400   34.7010   43.2540 C   0  0  0  0  0  0  0  0  0  0  0  0
   45.2950   35.7330   43.5300 C   0  0  0  0  0  0  0  0  0  0  0  0
   44.6240   35.6220   44.7440 C   0  0  0  0  0  0  0  0  0  0  0  0
   44.8960   34.5820   45.5630 N   0  0  0  0  0  0  0  0  0  0  0  0
   45.8230   33.6210   45.2320 C   0  0  0  0  0  0  0  0  0  0  0  0
   46.4910   33.6670   44.0980 N   0  0  0  0  0  0  0  0  0  0  0  0
   45.1490   36.5240   42.8080 H   0  0  0  0  0  0  0  0  0  0  0  0
   43.9010   36.3800   44.9930 H   0  0  0  0  0  0  0  0  0  0  0  0
   46.0730   32.5200   46.2020 C   0  0  1  0  0  0  0  0  0  0  0  0
   46.8600   32.8290   47.4590 C   0  0  0  0  0  0  0  0  0  0  0  0
   45.3680   32.6570   47.4920 C   0  0  1  0  0  0  0  0  0  0  0  0
   46.2210   31.5100   45.7740 H   0  0  0  0  0  0  0  0  0  0  0  0
   47.3040   33.8460   47.4410 H   0  0  0  0  0  0  0  0  0  0  0  0
   47.4620   32.0050   47.8840 H   0  0  0  0  0  0  0  0  0  0  0  0
   44.9890   31.8170   48.0820 H   0  0  0  0  0  0  0  0  0  0  0  0
   44.6880   33.9210   47.8090 N   0  0  0  0  0  0  0  0  0  0  0  0
   43.7900   33.7450   48.3380 H   0  0  0  0  0  0  0  0  0  0  0  0
   45.2790   34.4680   48.4770 H   0  0  0  0  0  0  0  0  0  0  0  0
   46.9500   34.8280   41.9970 C   0  0  0  0  0  0  0  0  0  0  0  0
   48.1830   35.1700   41.9190 O   0  0  0  0  0  0  0  0  0  0  0  0
   45.1150   33.3680   39.4390 H   0  0  0  0  0  0  0  0  0  0  0  0
   45.5200   33.4660   40.4320 C   0  0  0  0  0  0  0  0  0  0  0  0
   45.3000   32.6380   41.3600 O   0  0  0  0  0  0  0  0  0  0  0  0
   46.3510   34.5850   40.7230 N   0  0  0  0  0  0  0  0  0  0  0  0
   46.5720   35.3040   40.0020 H   0  0  0  0  0  0  0  0  0  0  0  0
  1  2  2  0  0  0  0
  1  6  1  0  0  0  0
  2  3  1  0  0  0  0
  3  8  1  0  0  0  0
  3  4  2  0  0  0  0
  5  4  1  0  0  0  0
  5  9  1  0  0  0  0
  6  5  2  0  0  0  0
  7  2  1  0  0  0  0
  9 12  1  6  0  0  0
  9 10  1  0  0  0  0
  9 11  1  0  0  0  0
 10 11  1  0  0  0  0
 10 14  1  0  0  0  0
 11 16  1  0  0  0  0
 11 15  1  1  0  0  0
 13 10  1  0  0  0  0
 16 17  1  0  0  0  0
 16 18  1  0  0  0  0
 19  1  1  0  0  0  0
 20 19  2  0  0  0  0
 21 22  1  0  0  0  0
 22 24  1  0  0  0  0
 22 23  2  0  0  0  0
 24 19  1  0  0  0  0
 25 24  1  0  0  0  0
M  END
>  <minimizedAffinity>
-5.12083149

>  <minimizedRMSD>
0.224672228

$$$$
