
 OpenBabel03252502283D

 31 32  0  0  0  0  0  0  0  0999 V2000
   44.6190   34.3720   41.5200 C   0  0  0  0  0  0  0  0  0  0  0  0
   44.8840   35.2260   42.5780 C   0  0  0  0  0  0  0  0  0  0  0  0
   46.2200   35.5430   42.8330 C   0  0  0  0  0  0  0  0  0  0  0  0
   47.2320   35.0130   42.0470 C   0  0  0  0  0  0  0  0  0  0  0  0
   46.9690   34.1740   41.0080 C   0  0  0  0  0  0  0  0  0  0  0  0
   45.6330   33.8750   40.7750 C   0  0  0  0  0  0  0  0  0  0  0  0
   44.0700   35.6300   43.1810 H   0  0  0  0  0  0  0  0  0  0  0  0
   46.3840   36.2110   43.6610 H   0  0  0  0  0  0  0  0  0  0  0  0
   48.2570   35.2880   42.2810 H   0  0  0  0  0  0  0  0  0  0  0  0
   47.7400   33.7360   40.3680 H   0  0  0  0  0  0  0  0  0  0  0  0
   44.6490   31.7130   39.6120 C   0  0  0  0  0  0  0  0  0  0  0  0
   44.4360   30.9710   40.5290 O   0  0  0  0  0  0  0  0  0  0  0  0
   45.2520   33.0360   39.6870 N   0  0  0  0  0  0  0  0  0  0  0  0
   45.5850   33.7090   38.9030 H   0  0  0  0  0  0  0  0  0  0  0  0
   43.5240   34.0360   37.4010 H   0  0  0  0  0  0  0  0  0  0  0  0
   43.9310   33.1090   37.8470 C   0  0  0  0  0  0  0  0  0  0  0  0
   43.6440   34.0090   38.7070 O   0  0  0  0  0  0  0  0  0  0  0  0
   44.4930   31.7760   38.2170 N   0  0  0  0  0  0  0  0  0  0  0  0
   44.3830   31.8220   37.2360 H   0  0  0  0  0  0  0  0  0  0  0  0
   40.9690   34.5310   40.5670 C   0  0  0  0  0  0  0  0  0  0  0  0
   42.3050   34.9570   40.7310 C   0  0  0  0  0  0  0  0  0  0  0  0
   43.2120   34.0680   41.2790 C   0  0  0  0  0  0  0  0  0  0  0  0
   42.7560   32.8370   41.6230 N   0  0  0  0  0  0  0  0  0  0  0  0
   41.4780   32.4420   41.4610 C   0  0  0  0  0  0  0  0  0  0  0  0
   40.5750   33.3100   40.9240 N   0  0  0  0  0  0  0  0  0  0  0  0
   42.6470   35.9350   40.4510 H   0  0  0  0  0  0  0  0  0  0  0  0
   41.1660   31.4470   41.7530 H   0  0  0  0  0  0  0  0  0  0  0  0
   39.9780   35.4690   39.9820 C   0  0  0  0  0  0  0  0  0  0  0  0
   38.7610   34.7880   39.8860 F   0  0  0  0  0  0  0  0  0  0  0  0
   40.3660   35.7090   38.6790 F   0  0  0  0  0  0  0  0  0  0  0  0
   39.8250   36.6250   40.7110 F   0  0  0  0  0  0  0  0  0  0  0  0
  1  2  1  0  0  0  0
  2  3  2  0  0  0  0
  2  7  1  0  0  0  0
  3  8  1  0  0  0  0
  4  9  1  0  0  0  0
  4  3  1  0  0  0  0
  5  4  2  0  0  0  0
  6  5  1  0  0  0  0
  6  1  2  0  0  0  0
 10  5  1  0  0  0  0
 11 13  1  0  0  0  0
 11 12  2  0  0  0  0
 13  6  1  0  0  0  0
 14 13  1  0  0  0  0
 15 16  1  0  0  0  0
 16 18  1  0  0  0  0
 16 17  2  0  0  0  0
 18 11  1  0  0  0  0
 19 18  1  0  0  0  0
 20 21  2  0  0  0  0
 20 25  1  0  0  0  0
 21 22  1  0  0  0  0
 22  1  1  0  0  0  0
 22 23  2  0  0  0  0
 24 23  1  0  0  0  0
 24 27  1  0  0  0  0
 25 24  2  0  0  0  0
 26 21  1  0  0  0  0
 28 20  1  0  0  0  0
 28 31  1  0  0  0  0
 29 28  1  0  0  0  0
 30 28  1  0  0  0  0
M  END
>  <minimizedAffinity>
-5.43672752

>  <minimizedRMSD>
0.833397508

$$$$
