
 OpenBabel03252508013D

 25 26  0  0  1  0  0  0  0  0999 V2000
   46.2310   34.7260   43.2440 C   0  0  0  0  0  0  0  0  0  0  0  0
   45.2830   35.7310   43.5980 C   0  0  0  0  0  0  0  0  0  0  0  0
   44.6540   35.5550   44.8270 C   0  0  0  0  0  0  0  0  0  0  0  0
   44.9650   34.4820   45.5880 N   0  0  0  0  0  0  0  0  0  0  0  0
   45.8910   33.5490   45.1810 C   0  0  0  0  0  0  0  0  0  0  0  0
   46.5220   33.6570   44.0300 N   0  0  0  0  0  0  0  0  0  0  0  0
   45.1040   36.5520   42.9190 H   0  0  0  0  0  0  0  0  0  0  0  0
   43.9310   36.2910   45.1350 H   0  0  0  0  0  0  0  0  0  0  0  0
   46.1870   32.4080   46.0900 C   0  0  1  0  0  0  0  0  0  0  0  0
   47.0260   32.6660   47.3250 C   0  0  0  0  0  0  0  0  0  0  0  0
   45.5370   32.4850   47.4140 C   0  0  1  0  0  0  0  0  0  0  0  0
   46.3190   31.4190   45.6130 H   0  0  0  0  0  0  0  0  0  0  0  0
   47.4650   33.6840   47.3340 H   0  0  0  0  0  0  0  0  0  0  0  0
   47.6480   31.8260   47.6870 H   0  0  0  0  0  0  0  0  0  0  0  0
   45.1870   31.6170   47.9820 H   0  0  0  0  0  0  0  0  0  0  0  0
   44.8680   33.7300   47.8150 N   0  0  0  0  0  0  0  0  0  0  0  0
   43.9930   33.5270   48.3740 H   0  0  0  0  0  0  0  0  0  0  0  0
   45.4850   34.2490   48.4820 H   0  0  0  0  0  0  0  0  0  0  0  0
   46.8970   34.9200   41.9720 C   0  0  0  0  0  0  0  0  0  0  0  0
   48.0520   35.4660   41.8610 O   0  0  0  0  0  0  0  0  0  0  0  0
   44.8820   33.4000   39.5900 H   0  0  0  0  0  0  0  0  0  0  0  0
   45.2330   33.6380   40.5810 C   0  0  0  0  0  0  0  0  0  0  0  0
   44.7150   33.1730   41.6340 O   0  0  0  0  0  0  0  0  0  0  0  0
   46.3380   34.5250   40.7180 N   0  0  0  0  0  0  0  0  0  0  0  0
   46.8100   34.9440   39.8880 H   0  0  0  0  0  0  0  0  0  0  0  0
  1  2  2  0  0  0  0
  1  6  1  0  0  0  0
  2  3  1  0  0  0  0
  3  8  1  0  0  0  0
  3  4  2  0  0  0  0
  5  4  1  0  0  0  0
  5  9  1  0  0  0  0
  6  5  2  0  0  0  0
  7  2  1  0  0  0  0
  9 12  1  6  0  0  0
  9 10  1  0  0  0  0
  9 11  1  0  0  0  0
 10 13  1  0  0  0  0
 10 11  1  0  0  0  0
 10 14  1  0  0  0  0
 11 16  1  0  0  0  0
 11 15  1  1  0  0  0
 16 17  1  0  0  0  0
 16 18  1  0  0  0  0
 19  1  1  0  0  0  0
 20 19  2  0  0  0  0
 21 22  1  0  0  0  0
 22 24  1  0  0  0  0
 22 23  2  0  0  0  0
 24 19  1  0  0  0  0
 25 24  1  0  0  0  0
M  END
>  <minimizedAffinity>
-5.18875313

>  <minimizedRMSD>
0.0466444045

$$$$
