
 OpenBabel03252504003D

 30 32  0  0  0  0  0  0  0  0999 V2000
   46.0400   31.7150   45.1520 C   0  0  0  0  0  0  0  0  0  0  0  0
   45.7970   33.0240   45.5650 C   0  0  0  0  0  0  0  0  0  0  0  0
   45.5140   33.2730   46.8840 C   0  0  0  0  0  0  0  0  0  0  0  0
   45.4770   32.2180   47.7730 C   0  0  0  0  0  0  0  0  0  0  0  0
   45.2310   32.1550   49.0960 N   0  0  0  0  0  0  0  0  0  0  0  0
   45.3010   30.9000   49.5440 C   0  0  0  0  0  0  0  0  0  0  0  0
   45.6080   30.0910   48.4820 C   0  0  0  0  0  0  0  0  0  0  0  0
   45.7200   30.9060   47.3640 C   0  0  0  0  0  0  0  0  0  0  0  0
   46.0020   30.6660   46.0450 C   0  0  0  0  0  0  0  0  0  0  0  0
   46.2750   31.4100   44.1220 H   0  0  0  0  0  0  0  0  0  0  0  0
   45.3270   34.2970   47.1880 H   0  0  0  0  0  0  0  0  0  0  0  0
   45.0170   33.0040   49.6580 H   0  0  0  0  0  0  0  0  0  0  0  0
   45.1310   30.6490   50.5890 H   0  0  0  0  0  0  0  0  0  0  0  0
   45.7330   29.0150   48.5290 H   0  0  0  0  0  0  0  0  0  0  0  0
   46.1830   29.6310   45.7830 H   0  0  0  0  0  0  0  0  0  0  0  0
   46.8640   34.9620   42.6670 C   0  0  0  0  0  0  0  0  0  0  0  0
   45.9500   36.0140   42.6080 C   0  0  0  0  0  0  0  0  0  0  0  0
   44.9580   36.0460   43.5850 C   0  0  0  0  0  0  0  0  0  0  0  0
   44.9390   35.0690   44.5210 N   0  0  0  0  0  0  0  0  0  0  0  0
   45.8590   34.0570   44.5350 C   0  0  0  0  0  0  0  0  0  0  0  0
   46.8220   34.0010   43.6110 N   0  0  0  0  0  0  0  0  0  0  0  0
   45.9980   36.7780   41.8440 H   0  0  0  0  0  0  0  0  0  0  0  0
   44.2320   36.8480   43.5700 H   0  0  0  0  0  0  0  0  0  0  0  0
   47.8770   34.9720   41.6280 C   0  0  0  0  0  0  0  0  0  0  0  0
   48.7550   35.8690   41.4710 O   0  0  0  0  0  0  0  0  0  0  0  0
   46.6540   32.5920   39.3760 H   0  0  0  0  0  0  0  0  0  0  0  0
   46.6950   33.4180   40.1000 C   0  0  0  0  0  0  0  0  0  0  0  0
   45.5760   33.9520   40.3920 O   0  0  0  0  0  0  0  0  0  0  0  0
   47.9070   33.8870   40.6920 N   0  0  0  0  0  0  0  0  0  0  0  0
   48.7710   33.3840   40.3870 H   0  0  0  0  0  0  0  0  0  0  0  0
  1  2  2  0  0  0  0
  1  9  1  0  0  0  0
  2  3  1  0  0  0  0
  3 11  1  0  0  0  0
  3  4  2  0  0  0  0
  4  5  1  0  0  0  0
  5  6  1  0  0  0  0
  5 12  1  0  0  0  0
  6 13  1  0  0  0  0
  7 14  1  0  0  0  0
  7  6  2  0  0  0  0
  8  4  1  0  0  0  0
  8  7  1  0  0  0  0
  9  8  2  0  0  0  0
 10  1  1  0  0  0  0
 15  9  1  0  0  0  0
 16 21  1  0  0  0  0
 17 16  2  0  0  0  0
 17 18  1  0  0  0  0
 18 19  2  0  0  0  0
 19 20  1  0  0  0  0
 20  2  1  0  0  0  0
 21 20  2  0  0  0  0
 22 17  1  0  0  0  0
 23 18  1  0  0  0  0
 24 16  1  0  0  0  0
 25 24  2  0  0  0  0
 26 27  1  0  0  0  0
 27 28  2  0  0  0  0
 27 29  1  0  0  0  0
 29 24  1  0  0  0  0
 30 29  1  0  0  0  0
M  END
>  <minimizedAffinity>
-5.8006773

>  <minimizedRMSD>
0.0595789179

$$$$
