REMARK  Name = 
REMARK  3 active torsions:
REMARK  status: ('A' for Active; 'I' for Inactive)
REMARK    1  A    between atoms: C_1  and  C_11
REMARK    2  A    between atoms: C_5  and  C_7
REMARK    3  A    between atoms: C_9  and  N_10
REMARK                            x       y       z     vdW  Elec       q    Type
REMARK                         _______ _______ _______ _____ _____    ______ ____
ROOT
ATOM      1  C   UNL     1      46.258  34.753  43.242  0.00  0.00    +0.000 A 
ATOM      2  C   UNL     1      45.295  35.747  43.588  0.00  0.00    +0.000 A 
ATOM      3  C   UNL     1      44.652  35.559  44.808  0.00  0.00    +0.000 A 
ATOM      4  N   UNL     1      44.965  34.486  45.568  0.00  0.00    +0.000 NA
ATOM      5  C   UNL     1      45.906  33.565  45.170  0.00  0.00    +0.000 A 
ATOM      6  N   UNL     1      46.550  33.684  44.028  0.00  0.00    +0.000 NA
ATOM      7  H   UNL     1      45.116  36.569  42.910  0.00  0.00    +0.000 HD
ATOM      8  H   UNL     1      43.917  36.286  45.109  0.00  0.00    +0.000 HD
ENDROOT
BRANCH   5   9
ATOM      9  C   UNL     1      46.202  32.423  46.078  0.00  0.00    +0.000 C 
ATOM     10  C   UNL     1      47.042  32.680  47.312  0.00  0.00    +0.000 C 
ATOM     11  C   UNL     1      45.553  32.500  47.403  0.00  0.00    +0.000 C 
ATOM     12  H   UNL     1      46.333  31.434  45.600  0.00  0.00    +0.000 HD
ATOM     13  H   UNL     1      47.482  33.698  47.321  0.00  0.00    +0.000 HD
ATOM     14  H   UNL     1      47.664  31.840  47.673  0.00  0.00    +0.000 HD
ATOM     15  H   UNL     1      45.203  31.632  47.971  0.00  0.00    +0.000 HD
BRANCH  11  16
ATOM     16  N   UNL     1      44.885  33.745  47.805  0.00  0.00    +0.000 NA
ATOM     17  H   UNL     1      44.011  33.542  48.365  0.00  0.00    +0.000 HD
ATOM     18  H   UNL     1      45.503  34.264  48.471  0.00  0.00    +0.000 HD
ENDBRANCH  11  16
ENDBRANCH   5   9
BRANCH   1  19
ATOM     19  C   UNL     1      46.939  34.960  41.980  0.00  0.00    +0.000 C 
ATOM     20  O   UNL     1      48.090  35.517  41.886  0.00  0.00    +0.000 OA
ATOM     21  H   UNL     1      45.981  34.999  38.644  0.00  0.00    +0.000 HD
ATOM     22  C   UNL     1      46.412  35.386  39.553  0.00  0.00    +0.000 C 
ATOM     23  O   UNL     1      46.932  36.533  39.645  0.00  0.00    +0.000 OA
ATOM     24  N   UNL     1      46.400  34.565  40.717  0.00  0.00    +0.000 N 
ATOM     25  H   UNL     1      45.987  33.610  40.707  0.00  0.00    +0.000 HD
ENDBRANCH   1  19
TORSDOF 3
