
 OpenBabel03252508013D

 25 26  0  0  1  0  0  0  0  0999 V2000
   46.1900   34.7540   43.1970 C   0  0  0  0  0  0  0  0  0  0  0  0
   45.2780   35.8070   43.5030 C   0  0  0  0  0  0  0  0  0  0  0  0
   44.6290   35.7010   44.7290 C   0  0  0  0  0  0  0  0  0  0  0  0
   44.8900   34.6460   45.5320 N   0  0  0  0  0  0  0  0  0  0  0  0
   45.7840   33.6640   45.1720 C   0  0  0  0  0  0  0  0  0  0  0  0
   46.4310   33.7050   44.0260 N   0  0  0  0  0  0  0  0  0  0  0  0
   45.1380   36.6090   42.7920 H   0  0  0  0  0  0  0  0  0  0  0  0
   43.9310   36.4750   45.0010 H   0  0  0  0  0  0  0  0  0  0  0  0
   46.0250   32.5470   46.1260 C   0  0  1  0  0  0  0  0  0  0  0  0
   46.8280   32.8280   47.3800 C   0  0  0  0  0  0  0  0  0  0  0  0
   45.3330   32.6790   47.4240 C   0  0  1  0  0  0  0  0  0  0  0  0
   46.1520   31.5400   45.6850 H   0  0  0  0  0  0  0  0  0  0  0  0
   47.2880   33.8370   47.3710 H   0  0  0  0  0  0  0  0  0  0  0  0
   47.4200   31.9880   47.7890 H   0  0  0  0  0  0  0  0  0  0  0  0
   44.9460   31.8370   48.0070 H   0  0  0  0  0  0  0  0  0  0  0  0
   44.6770   33.9500   47.7630 N   0  0  0  0  0  0  0  0  0  0  0  0
   43.7810   33.7820   48.2980 H   0  0  0  0  0  0  0  0  0  0  0  0
   45.2830   34.4780   48.4330 H   0  0  0  0  0  0  0  0  0  0  0  0
   46.8780   34.8760   41.9280 C   0  0  0  0  0  0  0  0  0  0  0  0
   48.0150   35.4550   41.7980 O   0  0  0  0  0  0  0  0  0  0  0  0
   46.6920   33.5420   38.7290 H   0  0  0  0  0  0  0  0  0  0  0  0
   47.1750   33.9110   39.6190 C   0  0  0  0  0  0  0  0  0  0  0  0
   48.4280   33.9650   39.7620 O   0  0  0  0  0  0  0  0  0  0  0  0
   46.3620   34.3640   40.6970 N   0  0  0  0  0  0  0  0  0  0  0  0
   45.3230   34.3470   40.6430 H   0  0  0  0  0  0  0  0  0  0  0  0
  1  2  2  0  0  0  0
  1  6  1  0  0  0  0
  2  3  1  0  0  0  0
  3  8  1  0  0  0  0
  3  4  2  0  0  0  0
  5  4  1  0  0  0  0
  5  9  1  0  0  0  0
  6  5  2  0  0  0  0
  7  2  1  0  0  0  0
  9 12  1  6  0  0  0
  9 10  1  0  0  0  0
  9 11  1  0  0  0  0
 10 11  1  0  0  0  0
 10 14  1  0  0  0  0
 11 16  1  0  0  0  0
 11 15  1  1  0  0  0
 13 10  1  0  0  0  0
 16 17  1  0  0  0  0
 16 18  1  0  0  0  0
 19  1  1  0  0  0  0
 20 19  2  0  0  0  0
 21 22  1  0  0  0  0
 22 23  2  0  0  0  0
 22 24  1  0  0  0  0
 24 19  1  0  0  0  0
 25 24  1  0  0  0  0
M  END
>  <minimizedAffinity>
-5.33445692

>  <minimizedRMSD>
0.200474888

$$$$
