
 OpenBabel03252504003D

 30 32  0  0  0  0  0  0  0  0999 V2000
   46.0490   31.6780   45.1530 C   0  0  0  0  0  0  0  0  0  0  0  0
   45.8190   32.9970   45.5450 C   0  0  0  0  0  0  0  0  0  0  0  0
   45.5380   33.2690   46.8600 C   0  0  0  0  0  0  0  0  0  0  0  0
   45.4910   32.2280   47.7650 C   0  0  0  0  0  0  0  0  0  0  0  0
   45.2450   32.1880   49.0900 N   0  0  0  0  0  0  0  0  0  0  0  0
   45.3020   30.9400   49.5560 C   0  0  0  0  0  0  0  0  0  0  0  0
   45.6000   30.1110   48.5070 C   0  0  0  0  0  0  0  0  0  0  0  0
   45.7200   30.9080   47.3770 C   0  0  0  0  0  0  0  0  0  0  0  0
   46.0000   30.6450   46.0620 C   0  0  0  0  0  0  0  0  0  0  0  0
   46.2800   31.3560   44.1270 H   0  0  0  0  0  0  0  0  0  0  0  0
   45.3620   34.2990   47.1480 H   0  0  0  0  0  0  0  0  0  0  0  0
   45.0390   33.0480   49.6370 H   0  0  0  0  0  0  0  0  0  0  0  0
   45.1290   30.7070   50.6050 H   0  0  0  0  0  0  0  0  0  0  0  0
   45.7140   29.0350   48.5710 H   0  0  0  0  0  0  0  0  0  0  0  0
   46.1700   29.6030   45.8150 H   0  0  0  0  0  0  0  0  0  0  0  0
   46.9730   34.9470   42.6890 C   0  0  0  0  0  0  0  0  0  0  0  0
   46.0010   35.9360   42.5400 C   0  0  0  0  0  0  0  0  0  0  0  0
   44.9390   35.9210   43.4410 C   0  0  0  0  0  0  0  0  0  0  0  0
   44.9130   34.9620   44.3950 N   0  0  0  0  0  0  0  0  0  0  0  0
   45.8920   34.0130   44.4990 C   0  0  0  0  0  0  0  0  0  0  0  0
   46.9220   34.0030   43.6490 N   0  0  0  0  0  0  0  0  0  0  0  0
   46.0570   36.6880   41.7640 H   0  0  0  0  0  0  0  0  0  0  0  0
   44.1670   36.6740   43.3550 H   0  0  0  0  0  0  0  0  0  0  0  0
   48.0580   35.0050   41.7280 C   0  0  0  0  0  0  0  0  0  0  0  0
   49.2430   35.3680   41.9810 O   0  0  0  0  0  0  0  0  0  0  0  0
   46.5400   33.3110   39.0700 H   0  0  0  0  0  0  0  0  0  0  0  0
   46.7900   33.6450   40.0870 C   0  0  0  0  0  0  0  0  0  0  0  0
   46.1220   33.1000   41.0270 O   0  0  0  0  0  0  0  0  0  0  0  0
   47.7910   34.6220   40.3720 N   0  0  0  0  0  0  0  0  0  0  0  0
   48.2820   35.0080   39.5340 H   0  0  0  0  0  0  0  0  0  0  0  0
  1  2  2  0  0  0  0
  1  9  1  0  0  0  0
  2  3  1  0  0  0  0
  3 11  1  0  0  0  0
  3  4  2  0  0  0  0
  4  5  1  0  0  0  0
  5  6  1  0  0  0  0
  5 12  1  0  0  0  0
  6 13  1  0  0  0  0
  7 14  1  0  0  0  0
  7  6  2  0  0  0  0
  8  4  1  0  0  0  0
  8  7  1  0  0  0  0
  9  8  2  0  0  0  0
 10  1  1  0  0  0  0
 15  9  1  0  0  0  0
 16 21  1  0  0  0  0
 17 16  2  0  0  0  0
 17 18  1  0  0  0  0
 18 19  2  0  0  0  0
 19 20  1  0  0  0  0
 20  2  1  0  0  0  0
 21 20  2  0  0  0  0
 22 17  1  0  0  0  0
 23 18  1  0  0  0  0
 24 25  2  0  0  0  0
 24 16  1  0  0  0  0
 26 27  1  0  0  0  0
 27 29  1  0  0  0  0
 27 28  2  0  0  0  0
 29 24  1  0  0  0  0
 30 29  1  0  0  0  0
M  END
>  <minimizedAffinity>
-5.73661804

>  <minimizedRMSD>
0.562957823

$$$$
