
 OpenBabel03252504013D

 30 32  0  0  0  0  0  0  0  0999 V2000
   45.9780   31.7690   45.2280 C   0  0  0  0  0  0  0  0  0  0  0  0
   45.6520   33.0560   45.6550 C   0  0  0  0  0  0  0  0  0  0  0  0
   45.3750   33.2760   46.9800 C   0  0  0  0  0  0  0  0  0  0  0  0
   45.4250   32.2150   47.8610 C   0  0  0  0  0  0  0  0  0  0  0  0
   45.2060   32.1260   49.1880 N   0  0  0  0  0  0  0  0  0  0  0  0
   45.3690   30.8760   49.6240 C   0  0  0  0  0  0  0  0  0  0  0  0
   45.7120   30.0970   48.5510 C   0  0  0  0  0  0  0  0  0  0  0  0
   45.7500   30.9250   47.4380 C   0  0  0  0  0  0  0  0  0  0  0  0
   46.0260   30.7150   46.1130 C   0  0  0  0  0  0  0  0  0  0  0  0
   46.2150   31.4880   44.1910 H   0  0  0  0  0  0  0  0  0  0  0  0
   45.1240   34.2830   47.2950 H   0  0  0  0  0  0  0  0  0  0  0  0
   44.9440   32.9550   49.7590 H   0  0  0  0  0  0  0  0  0  0  0  0
   45.2340   30.6070   50.6700 H   0  0  0  0  0  0  0  0  0  0  0  0
   45.9110   29.0320   48.5880 H   0  0  0  0  0  0  0  0  0  0  0  0
   46.2720   29.6950   45.8390 H   0  0  0  0  0  0  0  0  0  0  0  0
   46.3010   34.9020   42.5780 C   0  0  0  0  0  0  0  0  0  0  0  0
   45.5590   36.0740   42.7250 C   0  0  0  0  0  0  0  0  0  0  0  0
   44.8310   36.2200   43.9030 C   0  0  0  0  0  0  0  0  0  0  0  0
   44.8840   35.2300   44.8230 N   0  0  0  0  0  0  0  0  0  0  0  0
   45.6270   34.0980   44.6320 C   0  0  0  0  0  0  0  0  0  0  0  0
   46.3360   33.9310   43.5120 N   0  0  0  0  0  0  0  0  0  0  0  0
   45.5420   36.8450   41.9650 H   0  0  0  0  0  0  0  0  0  0  0  0
   44.2440   37.1170   44.0500 H   0  0  0  0  0  0  0  0  0  0  0  0
   47.0410   34.7970   41.3350 C   0  0  0  0  0  0  0  0  0  0  0  0
   48.2150   35.2290   41.1440 O   0  0  0  0  0  0  0  0  0  0  0  0
   46.7740   33.2480   38.2100 H   0  0  0  0  0  0  0  0  0  0  0  0
   47.1970   33.7440   39.0960 C   0  0  0  0  0  0  0  0  0  0  0  0
   48.4560   33.9410   39.0700 O   0  0  0  0  0  0  0  0  0  0  0  0
   46.4140   34.1540   40.2170 N   0  0  0  0  0  0  0  0  0  0  0  0
   45.3920   33.9490   40.1420 H   0  0  0  0  0  0  0  0  0  0  0  0
  1  2  2  0  0  0  0
  1  9  1  0  0  0  0
  2  3  1  0  0  0  0
  3 11  1  0  0  0  0
  3  4  2  0  0  0  0
  4  5  1  0  0  0  0
  5  6  1  0  0  0  0
  5 12  1  0  0  0  0
  6 13  1  0  0  0  0
  7 14  1  0  0  0  0
  7  6  2  0  0  0  0
  8  4  1  0  0  0  0
  8  7  1  0  0  0  0
  9  8  2  0  0  0  0
 10  1  1  0  0  0  0
 15  9  1  0  0  0  0
 16 17  2  0  0  0  0
 16 21  1  0  0  0  0
 17 18  1  0  0  0  0
 18 23  1  0  0  0  0
 18 19  2  0  0  0  0
 20 19  1  0  0  0  0
 20  2  1  0  0  0  0
 21 20  2  0  0  0  0
 22 17  1  0  0  0  0
 24 16  1  0  0  0  0
 25 24  2  0  0  0  0
 26 27  1  0  0  0  0
 27 29  1  0  0  0  0
 28 27  2  0  0  0  0
 29 24  1  0  0  0  0
 30 29  1  0  0  0  0
M  END
>  <minimizedAffinity>
-5.7849102

>  <minimizedRMSD>
0.817224503

$$$$
