
 OpenBabel03252504003D

 30 32  0  0  0  0  0  0  0  0999 V2000
   46.0400   31.7560   45.1370 C   0  0  0  0  0  0  0  0  0  0  0  0
   45.7720   33.0570   45.5620 C   0  0  0  0  0  0  0  0  0  0  0  0
   45.4880   33.2880   46.8840 C   0  0  0  0  0  0  0  0  0  0  0  0
   45.4750   32.2250   47.7640 C   0  0  0  0  0  0  0  0  0  0  0  0
   45.2330   32.1450   49.0870 N   0  0  0  0  0  0  0  0  0  0  0  0
   45.3290   30.8870   49.5230 C   0  0  0  0  0  0  0  0  0  0  0  0
   45.6470   30.0940   48.4530 C   0  0  0  0  0  0  0  0  0  0  0  0
   45.7410   30.9220   47.3430 C   0  0  0  0  0  0  0  0  0  0  0  0
   46.0240   30.7000   46.0210 C   0  0  0  0  0  0  0  0  0  0  0  0
   46.2770   31.4660   44.1030 H   0  0  0  0  0  0  0  0  0  0  0  0
   45.2830   34.3060   47.1990 H   0  0  0  0  0  0  0  0  0  0  0  0
   45.0040   32.9840   49.6570 H   0  0  0  0  0  0  0  0  0  0  0  0
   45.1670   30.6240   50.5660 H   0  0  0  0  0  0  0  0  0  0  0  0
   45.7930   29.0210   48.4900 H   0  0  0  0  0  0  0  0  0  0  0  0
   46.2240   29.6700   45.7480 H   0  0  0  0  0  0  0  0  0  0  0  0
   46.7780   35.0260   42.6630 C   0  0  0  0  0  0  0  0  0  0  0  0
   45.8610   36.0770   42.6340 C   0  0  0  0  0  0  0  0  0  0  0  0
   44.8890   36.0970   43.6310 C   0  0  0  0  0  0  0  0  0  0  0  0
   44.8900   35.1110   44.5570 N   0  0  0  0  0  0  0  0  0  0  0  0
   45.8120   34.1010   44.5420 C   0  0  0  0  0  0  0  0  0  0  0  0
   46.7560   34.0550   43.5980 N   0  0  0  0  0  0  0  0  0  0  0  0
   45.8920   36.8490   41.8760 H   0  0  0  0  0  0  0  0  0  0  0  0
   44.1610   36.8980   43.6390 H   0  0  0  0  0  0  0  0  0  0  0  0
   47.7700   35.0480   41.6040 C   0  0  0  0  0  0  0  0  0  0  0  0
   48.7450   35.8500   41.5330 O   0  0  0  0  0  0  0  0  0  0  0  0
   46.2210   32.8770   39.3420 H   0  0  0  0  0  0  0  0  0  0  0  0
   46.3730   33.6080   40.1480 C   0  0  0  0  0  0  0  0  0  0  0  0
   45.3140   34.0120   40.7310 O   0  0  0  0  0  0  0  0  0  0  0  0
   47.6560   34.0930   40.5410 N   0  0  0  0  0  0  0  0  0  0  0  0
   48.4610   33.7010   40.0010 H   0  0  0  0  0  0  0  0  0  0  0  0
  1  2  2  0  0  0  0
  1  9  1  0  0  0  0
  2  3  1  0  0  0  0
  3 11  1  0  0  0  0
  3  4  2  0  0  0  0
  4  5  1  0  0  0  0
  5  6  1  0  0  0  0
  5 12  1  0  0  0  0
  6 13  1  0  0  0  0
  7 14  1  0  0  0  0
  7  6  2  0  0  0  0
  8  4  1  0  0  0  0
  8  7  1  0  0  0  0
  9  8  2  0  0  0  0
 10  1  1  0  0  0  0
 15  9  1  0  0  0  0
 16 21  1  0  0  0  0
 17 16  2  0  0  0  0
 17 18  1  0  0  0  0
 18 23  1  0  0  0  0
 18 19  2  0  0  0  0
 20 19  1  0  0  0  0
 20  2  1  0  0  0  0
 21 20  2  0  0  0  0
 22 17  1  0  0  0  0
 24 16  1  0  0  0  0
 25 24  2  0  0  0  0
 26 27  1  0  0  0  0
 27 29  1  0  0  0  0
 27 28  2  0  0  0  0
 29 24  1  0  0  0  0
 30 29  1  0  0  0  0
M  END
>  <minimizedAffinity>
-5.84979725

>  <minimizedRMSD>
0.199272007

$$$$
