
 OpenBabel03252508013D

 25 26  0  0  1  0  0  0  0  0999 V2000
   46.2340   34.7490   43.2490 C   0  0  0  0  0  0  0  0  0  0  0  0
   45.2830   35.7500   43.6060 C   0  0  0  0  0  0  0  0  0  0  0  0
   44.6500   35.5650   44.8320 C   0  0  0  0  0  0  0  0  0  0  0  0
   44.9620   34.4880   45.5870 N   0  0  0  0  0  0  0  0  0  0  0  0
   45.8910   33.5600   45.1780 C   0  0  0  0  0  0  0  0  0  0  0  0
   46.5250   33.6760   44.0300 N   0  0  0  0  0  0  0  0  0  0  0  0
   45.1040   36.5750   42.9310 H   0  0  0  0  0  0  0  0  0  0  0  0
   43.9240   36.2980   45.1410 H   0  0  0  0  0  0  0  0  0  0  0  0
   46.1870   32.4140   46.0810 C   0  0  1  0  0  0  0  0  0  0  0  0
   47.0260   32.6650   47.3160 C   0  0  0  0  0  0  0  0  0  0  0  0
   45.5370   32.4850   47.4060 C   0  0  1  0  0  0  0  0  0  0  0  0
   46.3180   31.4270   45.5980 H   0  0  0  0  0  0  0  0  0  0  0  0
   47.4660   33.6830   47.3300 H   0  0  0  0  0  0  0  0  0  0  0  0
   47.6480   31.8240   47.6740 H   0  0  0  0  0  0  0  0  0  0  0  0
   45.1870   31.6150   47.9700 H   0  0  0  0  0  0  0  0  0  0  0  0
   44.8690   33.7290   47.8130 N   0  0  0  0  0  0  0  0  0  0  0  0
   43.9950   33.5230   48.3720 H   0  0  0  0  0  0  0  0  0  0  0  0
   45.4870   34.2440   48.4820 H   0  0  0  0  0  0  0  0  0  0  0  0
   46.9040   34.9530   41.9810 C   0  0  0  0  0  0  0  0  0  0  0  0
   48.0330   35.5510   41.8710 O   0  0  0  0  0  0  0  0  0  0  0  0
   46.2010   32.9890   39.2070 H   0  0  0  0  0  0  0  0  0  0  0  0
   46.6440   33.2310   40.1590 C   0  0  0  0  0  0  0  0  0  0  0  0
   47.3900   32.4420   40.8020 O   0  0  0  0  0  0  0  0  0  0  0  0
   46.3780   34.5090   40.7280 N   0  0  0  0  0  0  0  0  0  0  0  0
   45.7710   35.2060   40.2480 H   0  0  0  0  0  0  0  0  0  0  0  0
  1  2  2  0  0  0  0
  1  6  1  0  0  0  0
  2  3  1  0  0  0  0
  3  8  1  0  0  0  0
  3  4  2  0  0  0  0
  5  4  1  0  0  0  0
  5  9  1  0  0  0  0
  6  5  2  0  0  0  0
  7  2  1  0  0  0  0
  9 12  1  6  0  0  0
  9 10  1  0  0  0  0
  9 11  1  0  0  0  0
 10 13  1  0  0  0  0
 10 11  1  0  0  0  0
 10 14  1  0  0  0  0
 11 16  1  0  0  0  0
 11 15  1  1  0  0  0
 16 17  1  0  0  0  0
 16 18  1  0  0  0  0
 19  1  1  0  0  0  0
 20 19  2  0  0  0  0
 21 22  1  0  0  0  0
 22 24  1  0  0  0  0
 22 23  2  0  0  0  0
 24 19  1  0  0  0  0
 25 24  1  0  0  0  0
M  END
>  <minimizedAffinity>
-5.18634462

>  <minimizedRMSD>
0.0425007008

$$$$
