
     RDKit          3D

 20 20  0  0  0  0  0  0  0  0999 V2000
   45.3063   34.5587   45.0344 C   0  0  0  0  0  0  0  0  0  0  0  0
   45.2673   33.9341   46.2728 C   0  0  0  0  0  0  0  0  0  0  0  0
   46.1667   32.8988   46.4831 C   0  0  0  0  0  0  0  0  0  0  0  0
   46.9996   32.5860   45.4742 N   0  0  0  0  0  0  0  0  0  0  0  0
   47.0216   33.2037   44.2811 C   0  0  0  0  0  0  0  0  0  0  0  0
   46.1559   34.2174   44.0468 N   0  0  0  0  0  0  0  0  0  0  0  0
   43.9762   35.3810   43.2969 C   0  0  0  0  0  0  0  0  0  0  0  0
   44.3999   34.2823   42.8422 O   0  0  0  0  0  0  0  0  0  0  0  0
   44.4537   35.6597   44.6122 N   0  0  0  0  0  0  0  0  0  0  0  0
   44.3069   34.4294   47.1853 N   0  0  0  0  0  0  0  0  0  0  0  0
   46.1204   32.4344   47.4369 H   0  0  0  0  0  0  0  0  0  0  0  0
   47.7303   32.8793   43.5312 H   0  0  0  0  0  0  0  0  0  0  0  0
   44.1883   36.5247   45.1099 H   0  0  0  0  0  0  0  0  0  0  0  0
   44.9715   35.0820   47.6104 H   0  0  0  0  0  0  0  0  0  0  0  0
   43.5215   33.8118   46.8461 H   0  0  0  0  0  0  0  0  0  0  0  0
   42.9855   37.5037   40.7331 H   0  0  0  0  0  0  0  0  0  0  0  0
   43.5575   36.8085   41.3625 C   0  0  0  0  0  0  0  0  0  0  0  0
   44.6841   36.5382   40.8402 O   0  0  0  0  0  0  0  0  0  0  0  0
   43.1128   36.2723   42.5999 N   0  0  0  0  0  0  0  0  0  0  0  0
   44.0635   35.9775   42.2662 H   0  0  0  0  0  0  0  0  0  0  0  0
  1  2  2  0
  2  3  1  0
  2 10  1  0
  4  3  2  0
  5  4  1  0
  6  5  2  0
  6  1  1  0
  7  9  1  0
  8  7  2  0
  9  1  1  0
  3 11  1  0
  5 12  1  0
  9 13  1  0
 10 14  1  0
 10 15  1  0
 16 17  1  0
 17 18  2  0
 17 19  1  0
 19 20  1  0
  7 19  1  0
M  ISO  3  11  14  12  14  16   1
M  END
>  <DihAtoms>  (1) 
8,6,18,16

>  <DihDeg>  (1) 
179.99847649320392

$$$$
