
 OpenBabel03252509333D

 36 37  0  0  1  0  0  0  0  0999 V2000
   45.6910   34.8250   42.8470 O   0  0  0  0  0  0  0  0  0  0  0  0
   45.0010   34.1680   41.8260 C   0  0  1  0  0  0  0  0  0  0  0  0
   43.9420   35.0190   41.1800 C   0  0  0  0  0  0  0  0  0  0  0  0
   43.6210   34.2240   39.9400 C   0  0  0  0  0  0  0  0  0  0  0  0
   44.9030   33.4980   39.5880 C   0  0  0  0  0  0  0  0  0  0  0  0
   45.9280   33.9450   40.6280 C   0  0  2  0  0  0  0  0  0  0  0  0
   44.6270   33.1830   42.1170 H   0  0  0  0  0  0  0  0  0  0  0  0
   43.0720   35.1620   41.8540 H   0  0  0  0  0  0  0  0  0  0  0  0
   44.3970   35.9770   40.8530 H   0  0  0  0  0  0  0  0  0  0  0  0
   42.8890   33.4320   40.2510 H   0  0  0  0  0  0  0  0  0  0  0  0
   43.2410   34.8340   39.1100 H   0  0  0  0  0  0  0  0  0  0  0  0
   44.7820   32.4000   39.5780 H   0  0  0  0  0  0  0  0  0  0  0  0
   45.2480   33.9190   38.6220 H   0  0  0  0  0  0  0  0  0  0  0  0
   46.4790   34.8380   40.3570 H   0  0  0  0  0  0  0  0  0  0  0  0
   48.6510   31.7770   40.3340 H   0  0  0  0  0  0  0  0  0  0  0  0
   48.0280   32.6580   40.1580 C   0  0  0  0  0  0  0  0  0  0  0  0
   48.4660   33.5060   39.3520 O   0  0  0  0  0  0  0  0  0  0  0  0
   46.7710   32.7830   40.8470 N   0  0  0  0  0  0  0  0  0  0  0  0
   46.4160   32.0650   41.5190 H   0  0  0  0  0  0  0  0  0  0  0  0
   44.8600   34.8510   45.3000 O   0  0  0  0  0  0  0  0  0  0  0  0
   45.4900   33.9630   44.2800 P   0  0  1  0  0  0  0  0  0  0  0  0
   44.6370   32.5400   44.0360 O   0  0  0  0  0  0  0  0  0  0  0  0
   44.7780   32.1660   43.1270 H   0  0  0  0  0  0  0  0  0  0  0  0
   47.0320   33.4960   44.8140 O   0  0  0  0  0  0  0  0  0  0  0  0
   47.0310   32.1410   44.9840 C   0  0  0  0  0  0  0  0  0  0  0  0
   46.5050   31.5240   44.2720 H   0  0  0  0  0  0  0  0  0  0  0  0
   48.1120   31.8230   44.9090 H   0  0  0  0  0  0  0  0  0  0  0  0
   46.7960   31.9710   48.6890 C   0  0  0  0  0  0  0  0  0  0  0  0
   47.2130   32.3650   47.4110 C   0  0  0  0  0  0  0  0  0  0  0  0
   46.6090   31.7450   46.3310 C   0  0  0  0  0  0  0  0  0  0  0  0
   45.6430   30.7860   46.5600 N   0  0  0  0  0  0  0  0  0  0  0  0
   45.2750   30.4420   47.8150 C   0  0  0  0  0  0  0  0  0  0  0  0
   45.8570   31.0400   48.8640 N   0  0  0  0  0  0  0  0  0  0  0  0
   47.2380   32.4260   49.5770 H   0  0  0  0  0  0  0  0  0  0  0  0
   47.9680   33.1150   47.3300 H   0  0  0  0  0  0  0  0  0  0  0  0
   44.5080   29.6780   47.9160 H   0  0  0  0  0  0  0  0  0  0  0  0
  1 21  1  0  0  0  0
  2  7  1  1  0  0  0
  2  1  1  0  0  0  0
  3  2  1  0  0  0  0
  3  8  1  0  0  0  0
  4 10  1  0  0  0  0
  4  3  1  0  0  0  0
  5  4  1  0  0  0  0
  5  6  1  0  0  0  0
  6 14  1  6  0  0  0
  6 18  1  0  0  0  0
  6  2  1  0  0  0  0
  9  3  1  0  0  0  0
 11  4  1  0  0  0  0
 12  5  1  0  0  0  0
 13  5  1  0  0  0  0
 16 15  1  0  0  0  0
 16 18  1  0  0  0  0
 17 16  2  0  0  0  0
 18 19  1  0  0  0  0
 21 24  1  0  0  0  0
 21 20  2  1  0  0  0
 22 21  1  0  0  0  0
 23 22  1  0  0  0  0
 24 25  1  0  0  0  0
 25 30  1  0  0  0  0
 26 25  1  0  0  0  0
 27 25  1  0  0  0  0
 28 33  1  0  0  0  0
 28 34  1  0  0  0  0
 29 28  2  0  0  0  0
 30 31  2  0  0  0  0
 30 29  1  0  0  0  0
 31 32  1  0  0  0  0
 32 36  1  0  0  0  0
 32 33  2  0  0  0  0
 35 29  1  0  0  0  0
M  END
>  <minimizedAffinity>
-4.3537364

>  <minimizedRMSD>
2.72932339

$$$$
