
 OpenBabel03242514543D

 40 42  0  0  1  0  0  0  0  0999 V2000
   38.3740   30.3130   39.5890 N   0  0  0  0  0  0  0  0  0  0  0  0
   38.3900   31.6860   39.1180 C   0  0  0  0  0  0  0  0  0  0  0  0
   37.7910   32.6480   40.1130 C   0  0  0  0  0  0  0  0  0  0  0  0
   36.5630   32.2250   40.6220 N   0  0  0  0  0  0  0  0  0  0  0  0
   36.3570   30.8370   40.8090 C   0  0  0  0  0  0  0  0  0  0  0  0
   37.7170   30.1210   40.8280 C   0  0  1  0  0  0  0  0  0  0  0  0
   37.9540   31.8070   38.1090 H   0  0  0  0  0  0  0  0  0  0  0  0
   39.4720   31.9570   39.0180 H   0  0  0  0  0  0  0  0  0  0  0  0
   38.5220   32.8760   40.9310 H   0  0  0  0  0  0  0  0  0  0  0  0
   37.6590   33.6160   39.5690 H   0  0  0  0  0  0  0  0  0  0  0  0
   36.3990   32.6910   41.5620 H   0  0  0  0  0  0  0  0  0  0  0  0
   35.7160   30.5320   41.6360 H   0  0  0  0  0  0  0  0  0  0  0  0
   35.8570   30.4590   39.8710 H   0  0  0  0  0  0  0  0  0  0  0  0
   38.2870   30.8050   41.5330 H   0  0  0  0  0  0  0  0  0  0  0  0
   37.6890   28.9070   41.5260 N   0  0  2  0  0  0  0  0  0  0  0  0
   36.4360   28.2490   41.7480 C   0  0  0  0  0  0  0  0  0  0  0  0
   36.8650   27.1160   42.6510 C   0  0  0  0  0  0  0  0  0  0  0  0
   37.6640   27.9120   43.6790 C   0  0  0  0  0  0  0  0  0  0  0  0
   38.3800   28.8980   42.7980 C   0  0  1  0  0  0  0  0  0  0  0  0
   36.0710   27.8640   40.7800 H   0  0  0  0  0  0  0  0  0  0  0  0
   35.6870   28.8370   42.3000 H   0  0  0  0  0  0  0  0  0  0  0  0
   35.9810   26.6520   43.1200 H   0  0  0  0  0  0  0  0  0  0  0  0
   37.4790   26.3580   42.1410 H   0  0  0  0  0  0  0  0  0  0  0  0
   37.0110   28.3640   44.4230 H   0  0  0  0  0  0  0  0  0  0  0  0
   38.4480   27.2750   44.1490 H   0  0  0  0  0  0  0  0  0  0  0  0
   38.2410   29.9030   43.2780 H   0  0  0  0  0  0  0  0  0  0  0  0
   41.8890   29.1960   42.5760 H   0  0  0  0  0  0  0  0  0  0  0  0
   40.8670   29.5410   42.6360 C   0  0  0  0  0  0  0  0  0  0  0  0
   40.6010   30.7780   42.6370 O   0  0  0  0  0  0  0  0  0  0  0  0
   39.7820   28.6460   42.7140 N   0  0  0  0  0  0  0  0  0  0  0  0
   39.9220   27.5930   42.7190 H   0  0  0  0  0  0  0  0  0  0  0  0
   38.3500   29.0160   37.5960 C   0  0  0  0  0  0  0  0  0  0  0  0
   39.0000   29.3640   38.7750 C   0  0  0  0  0  0  0  0  0  0  0  0
   40.2040   28.7420   39.0370 C   0  0  0  0  0  0  0  0  0  0  0  0
   40.7180   27.8350   38.1740 N   0  0  0  0  0  0  0  0  0  0  0  0
   40.0480   27.5250   37.0320 C   0  0  0  0  0  0  0  0  0  0  0  0
   38.8750   28.1140   36.7520 N   0  0  0  0  0  0  0  0  0  0  0  0
   37.4030   29.4300   37.2750 H   0  0  0  0  0  0  0  0  0  0  0  0
   40.6780   29.0410   39.9660 H   0  0  0  0  0  0  0  0  0  0  0  0
   40.4390   26.8050   36.3300 H   0  0  0  0  0  0  0  0  0  0  0  0
  1  6  1  0  0  0  0
  2  1  1  0  0  0  0
  2  3  1  0  0  0  0
  3  4  1  0  0  0  0
  3  9  1  0  0  0  0
  4  5  1  0  0  0  0
  4 11  1  0  0  0  0
  5  6  1  0  0  0  0
  5 12  1  0  0  0  0
  6 15  1  0  0  0  0
  6 14  1  1  0  0  0
  7  2  1  0  0  0  0
  8  2  1  0  0  0  0
 10  3  1  0  0  0  0
 13  5  1  0  0  0  0
 15 16  1  1  0  0  0
 15 19  1  0  0  0  0
 16 21  1  0  0  0  0
 16 17  1  0  0  0  0
 17 22  1  0  0  0  0
 17 18  1  0  0  0  0
 18 25  1  0  0  0  0
 18 24  1  0  0  0  0
 19 26  1  1  0  0  0
 19 18  1  0  0  0  0
 20 16  1  0  0  0  0
 23 17  1  0  0  0  0
 27 28  1  0  0  0  0
 28 29  2  0  0  0  0
 28 30  1  0  0  0  0
 30 31  1  0  0  0  0
 30 19  1  0  0  0  0
 32 33  1  0  0  0  0
 33 34  2  0  0  0  0
 33  1  1  0  0  0  0
 34 39  1  0  0  0  0
 35 34  1  0  0  0  0
 36 35  2  0  0  0  0
 37 36  1  0  0  0  0
 37 32  2  0  0  0  0
 38 32  1  0  0  0  0
 40 36  1  0  0  0  0
M  END
>  <minimizedAffinity>
-4.88104391

$$$$

 OpenBabel03242514543D

 40 42  0  0  1  0  0  0  0  0999 V2000
   38.6010   30.0470   39.1700 N   0  0  0  0  0  0  0  0  0  0  0  0
   39.0400   29.7360   37.8220 C   0  0  0  0  0  0  0  0  0  0  0  0
   39.1200   28.2520   37.5650 C   0  0  0  0  0  0  0  0  0  0  0  0
   39.7900   27.5500   38.5680 N   0  0  0  0  0  0  0  0  0  0  0  0
   39.6610   28.0040   39.9030 C   0  0  0  0  0  0  0  0  0  0  0  0
   38.4310   28.9210   40.0100 C   0  0  1  0  0  0  0  0  0  0  0  0
   39.9720   30.2570   37.5350 H   0  0  0  0  0  0  0  0  0  0  0  0
   38.2440   30.1380   37.1450 H   0  0  0  0  0  0  0  0  0  0  0  0
   38.1000   27.8290   37.3750 H   0  0  0  0  0  0  0  0  0  0  0  0
   39.6650   28.1320   36.5960 H   0  0  0  0  0  0  0  0  0  0  0  0
   39.4710   26.5380   38.5540 H   0  0  0  0  0  0  0  0  0  0  0  0
   39.6890   27.2530   40.6930 H   0  0  0  0  0  0  0  0  0  0  0  0
   40.5360   28.6900   40.0940 H   0  0  0  0  0  0  0  0  0  0  0  0
   37.6690   28.2910   39.4510 H   0  0  0  0  0  0  0  0  0  0  0  0
   37.8980   28.9760   41.3040 N   0  0  2  0  0  0  0  0  0  0  0  0
   38.6990   28.5550   42.4160 C   0  0  0  0  0  0  0  0  0  0  0  0
   37.6880   28.6280   43.5380 C   0  0  0  0  0  0  0  0  0  0  0  0
   36.5500   27.8420   42.8940 C   0  0  0  0  0  0  0  0  0  0  0  0
   36.6050   28.3490   41.4790 C   0  0  1  0  0  0  0  0  0  0  0  0
   39.5040   29.2960   42.5620 H   0  0  0  0  0  0  0  0  0  0  0  0
   39.0570   27.5150   42.3710 H   0  0  0  0  0  0  0  0  0  0  0  0
   38.0730   28.0990   44.4260 H   0  0  0  0  0  0  0  0  0  0  0  0
   37.3930   29.6570   43.7950 H   0  0  0  0  0  0  0  0  0  0  0  0
   36.7040   26.7690   42.9940 H   0  0  0  0  0  0  0  0  0  0  0  0
   35.5670   28.1590   43.3090 H   0  0  0  0  0  0  0  0  0  0  0  0
   36.5660   27.4400   40.8210 H   0  0  0  0  0  0  0  0  0  0  0  0
   33.9120   29.9460   39.8520 H   0  0  0  0  0  0  0  0  0  0  0  0
   34.7410   29.2600   39.9560 C   0  0  0  0  0  0  0  0  0  0  0  0
   35.0740   28.4980   39.0040 O   0  0  0  0  0  0  0  0  0  0  0  0
   35.4910   29.1760   41.1450 N   0  0  0  0  0  0  0  0  0  0  0  0
   35.2740   29.7810   41.9910 H   0  0  0  0  0  0  0  0  0  0  0  0
   39.4360   32.0600   40.1210 C   0  0  0  0  0  0  0  0  0  0  0  0
   38.4020   31.3980   39.4670 C   0  0  0  0  0  0  0  0  0  0  0  0
   37.2710   32.1330   39.1720 C   0  0  0  0  0  0  0  0  0  0  0  0
   37.1870   33.4410   39.5080 N   0  0  0  0  0  0  0  0  0  0  0  0
   38.2230   34.0480   40.1460 C   0  0  0  0  0  0  0  0  0  0  0  0
   39.3340   33.3580   40.4470 N   0  0  0  0  0  0  0  0  0  0  0  0
   40.3710   31.5990   40.4080 H   0  0  0  0  0  0  0  0  0  0  0  0
   36.4890   31.5800   38.6620 H   0  0  0  0  0  0  0  0  0  0  0  0
   38.1770   35.0900   40.4240 H   0  0  0  0  0  0  0  0  0  0  0  0
  1 33  1  0  0  0  0
  1  6  1  0  0  0  0
  2  1  1  0  0  0  0
  3  2  1  0  0  0  0
  3  4  1  0  0  0  0
  4  5  1  0  0  0  0
  5  6  1  0  0  0  0
  5 13  1  0  0  0  0
  5 12  1  0  0  0  0
  6 14  1  6  0  0  0
  6 15  1  0  0  0  0
  7  2  1  0  0  0  0
  8  2  1  0  0  0  0
  9  3  1  0  0  0  0
 10  3  1  0  0  0  0
 11  4  1  0  0  0  0
 15 19  1  0  0  0  0
 15 16  1  1  0  0  0
 16 20  1  0  0  0  0
 16 17  1  0  0  0  0
 17 23  1  0  0  0  0
 17 22  1  0  0  0  0
 18 24  1  0  0  0  0
 18 25  1  0  0  0  0
 18 17  1  0  0  0  0
 19 26  1  6  0  0  0
 19 18  1  0  0  0  0
 21 16  1  0  0  0  0
 27 28  1  0  0  0  0
 28 30  1  0  0  0  0
 29 28  2  0  0  0  0
 30 19  1  0  0  0  0
 30 31  1  0  0  0  0
 32 38  1  0  0  0  0
 32 37  1  0  0  0  0
 33 32  2  0  0  0  0
 34 33  1  0  0  0  0
 34 35  2  0  0  0  0
 35 36  1  0  0  0  0
 36 40  1  0  0  0  0
 36 37  2  0  0  0  0
 39 34  1  0  0  0  0
M  END
>  <minimizedAffinity>
-4.78115177

$$$$

 OpenBabel03242514543D

 40 42  0  0  1  0  0  0  0  0999 V2000
   38.9190   30.6220   40.5030 N   0  0  0  0  0  0  0  0  0  0  0  0
   39.4080   31.8860   39.9840 C   0  0  0  0  0  0  0  0  0  0  0  0
   38.6470   33.0690   40.5250 C   0  0  0  0  0  0  0  0  0  0  0  0
   37.2620   32.9150   40.4590 N   0  0  0  0  0  0  0  0  0  0  0  0
   36.7230   31.6180   40.6410 C   0  0  0  0  0  0  0  0  0  0  0  0
   37.7710   30.7260   41.3250 C   0  0  1  0  0  0  0  0  0  0  0  0
   39.4790   31.9070   38.8800 H   0  0  0  0  0  0  0  0  0  0  0  0
   40.4590   31.9790   40.3600 H   0  0  0  0  0  0  0  0  0  0  0  0
   38.9870   33.3170   41.5630 H   0  0  0  0  0  0  0  0  0  0  0  0
   38.9560   33.9480   39.9060 H   0  0  0  0  0  0  0  0  0  0  0  0
   36.8090   33.5430   41.1860 H   0  0  0  0  0  0  0  0  0  0  0  0
   35.7430   31.5440   41.1130 H   0  0  0  0  0  0  0  0  0  0  0  0
   36.6080   31.1720   39.6110 H   0  0  0  0  0  0  0  0  0  0  0  0
   38.1090   31.4230   42.1560 H   0  0  0  0  0  0  0  0  0  0  0  0
   37.2060   29.6550   42.0290 N   0  0  2  0  0  0  0  0  0  0  0  0
   37.9120   29.0890   43.1400 C   0  0  0  0  0  0  0  0  0  0  0  0
   37.0310   27.9030   43.4620 C   0  0  0  0  0  0  0  0  0  0  0  0
   36.9120   27.3010   42.0660 C   0  0  0  0  0  0  0  0  0  0  0  0
   36.7620   28.5380   41.2220 C   0  0  1  0  0  0  0  0  0  0  0  0
   37.9020   29.8230   43.9660 H   0  0  0  0  0  0  0  0  0  0  0  0
   38.9130   28.6960   42.9110 H   0  0  0  0  0  0  0  0  0  0  0  0
   37.5620   27.2130   44.1390 H   0  0  0  0  0  0  0  0  0  0  0  0
   36.0530   28.1840   43.8810 H   0  0  0  0  0  0  0  0  0  0  0  0
   37.7810   26.6930   41.8210 H   0  0  0  0  0  0  0  0  0  0  0  0
   35.9630   26.7270   41.9620 H   0  0  0  0  0  0  0  0  0  0  0  0
   37.4780   28.4190   40.3660 H   0  0  0  0  0  0  0  0  0  0  0  0
   33.9820   28.8930   39.0780 H   0  0  0  0  0  0  0  0  0  0  0  0
   35.0260   28.7910   39.3390 C   0  0  0  0  0  0  0  0  0  0  0  0
   35.9180   28.7680   38.4430 O   0  0  0  0  0  0  0  0  0  0  0  0
   35.4510   28.6780   40.6780 N   0  0  0  0  0  0  0  0  0  0  0  0
   34.7640   28.6880   41.4880 H   0  0  0  0  0  0  0  0  0  0  0  0
   40.6610   29.0730   40.9740 C   0  0  0  0  0  0  0  0  0  0  0  0
   39.6290   29.4760   40.1330 C   0  0  0  0  0  0  0  0  0  0  0  0
   39.3980   28.7090   39.0080 C   0  0  0  0  0  0  0  0  0  0  0  0
   40.1510   27.6150   38.7480 N   0  0  0  0  0  0  0  0  0  0  0  0
   41.1500   27.2580   39.5990 C   0  0  0  0  0  0  0  0  0  0  0  0
   41.3970   27.9850   40.7000 N   0  0  0  0  0  0  0  0  0  0  0  0
   40.9420   29.5860   41.8840 H   0  0  0  0  0  0  0  0  0  0  0  0
   38.5860   29.0580   38.3790 H   0  0  0  0  0  0  0  0  0  0  0  0
   41.7630   26.3900   39.4110 H   0  0  0  0  0  0  0  0  0  0  0  0
  1  6  1  0  0  0  0
  2  8  1  0  0  0  0
  2  1  1  0  0  0  0
  2  3  1  0  0  0  0
  3  9  1  0  0  0  0
  4  3  1  0  0  0  0
  4  5  1  0  0  0  0
  4 11  1  0  0  0  0
  5 12  1  0  0  0  0
  5  6  1  0  0  0  0
  6 15  1  0  0  0  0
  6 14  1  1  0  0  0
  7  2  1  0  0  0  0
 10  3  1  0  0  0  0
 13  5  1  0  0  0  0
 15 16  1  1  0  0  0
 16 17  1  0  0  0  0
 16 20  1  0  0  0  0
 17 23  1  0  0  0  0
 17 22  1  0  0  0  0
 18 17  1  0  0  0  0
 19 26  1  6  0  0  0
 19 15  1  0  0  0  0
 19 18  1  0  0  0  0
 21 16  1  0  0  0  0
 24 18  1  0  0  0  0
 25 18  1  0  0  0  0
 27 28  1  0  0  0  0
 28 30  1  0  0  0  0
 29 28  2  0  0  0  0
 30 19  1  0  0  0  0
 30 31  1  0  0  0  0
 32 38  1  0  0  0  0
 33  1  1  0  0  0  0
 33 32  2  0  0  0  0
 34 33  1  0  0  0  0
 35 34  2  0  0  0  0
 35 36  1  0  0  0  0
 36 37  2  0  0  0  0
 37 32  1  0  0  0  0
 39 34  1  0  0  0  0
 40 36  1  0  0  0  0
M  END
>  <minimizedAffinity>
-4.76433563

$$$$

 OpenBabel03242514543D

 40 42  0  0  1  0  0  0  0  0999 V2000
   37.4900   30.0100   39.0060 N   0  0  0  0  0  0  0  0  0  0  0  0
   37.4470   31.3650   38.4890 C   0  0  0  0  0  0  0  0  0  0  0  0
   37.4500   32.4040   39.5820 C   0  0  0  0  0  0  0  0  0  0  0  0
   36.5290   32.1430   40.5980 N   0  0  0  0  0  0  0  0  0  0  0  0
   36.2780   30.7930   40.9430 C   0  0  0  0  0  0  0  0  0  0  0  0
   37.4240   29.9140   40.4170 C   0  0  1  0  0  0  0  0  0  0  0  0
   36.6290   31.5290   37.7630 H   0  0  0  0  0  0  0  0  0  0  0  0
   38.3990   31.4990   37.9150 H   0  0  0  0  0  0  0  0  0  0  0  0
   38.4840   32.5480   39.9880 H   0  0  0  0  0  0  0  0  0  0  0  0
   37.1980   33.3760   39.0890 H   0  0  0  0  0  0  0  0  0  0  0  0
   36.8440   32.6350   41.4840 H   0  0  0  0  0  0  0  0  0  0  0  0
   36.0340   30.5790   41.9830 H   0  0  0  0  0  0  0  0  0  0  0  0
   35.3810   30.4710   40.3390 H   0  0  0  0  0  0  0  0  0  0  0  0
   38.3150   30.5280   40.7620 H   0  0  0  0  0  0  0  0  0  0  0  0
   37.5740   28.7200   41.1340 N   0  0  2  0  0  0  0  0  0  0  0  0
   36.4820   28.2280   41.9210 C   0  0  0  0  0  0  0  0  0  0  0  0
   37.1380   27.0570   42.6180 C   0  0  0  0  0  0  0  0  0  0  0  0
   38.3890   27.7560   43.1420 C   0  0  0  0  0  0  0  0  0  0  0  0
   38.7480   28.6360   41.9760 C   0  0  1  0  0  0  0  0  0  0  0  0
   35.6880   27.8830   41.2350 H   0  0  0  0  0  0  0  0  0  0  0  0
   36.1220   28.9100   42.7050 H   0  0  0  0  0  0  0  0  0  0  0  0
   36.5050   26.7130   43.4530 H   0  0  0  0  0  0  0  0  0  0  0  0
   37.3780   26.2230   41.9410 H   0  0  0  0  0  0  0  0  0  0  0  0
   38.1830   28.2950   44.0660 H   0  0  0  0  0  0  0  0  0  0  0  0
   39.2250   27.0300   43.2640 H   0  0  0  0  0  0  0  0  0  0  0  0
   38.9440   29.6550   42.4040 H   0  0  0  0  0  0  0  0  0  0  0  0
   41.0980   26.9810   39.9300 H   0  0  0  0  0  0  0  0  0  0  0  0
   40.1260   27.1900   40.3520 C   0  0  0  0  0  0  0  0  0  0  0  0
   39.1110   26.5220   40.0030 O   0  0  0  0  0  0  0  0  0  0  0  0
   39.9330   28.2080   41.3070 N   0  0  0  0  0  0  0  0  0  0  0  0
   40.7350   28.8140   41.6520 H   0  0  0  0  0  0  0  0  0  0  0  0
   38.7740   28.9070   37.3360 C   0  0  0  0  0  0  0  0  0  0  0  0
   37.5910   28.9830   38.0640 C   0  0  0  0  0  0  0  0  0  0  0  0
   36.6220   28.0380   37.7900 C   0  0  0  0  0  0  0  0  0  0  0  0
   36.8290   27.0840   36.8520 N   0  0  0  0  0  0  0  0  0  0  0  0
   38.0010   27.0480   36.1640 C   0  0  0  0  0  0  0  0  0  0  0  0
   38.9600   27.9540   36.4090 N   0  0  0  0  0  0  0  0  0  0  0  0
   39.6080   29.5860   37.4540 H   0  0  0  0  0  0  0  0  0  0  0  0
   35.7160   28.1320   38.3800 H   0  0  0  0  0  0  0  0  0  0  0  0
   38.1870   26.2970   35.4120 H   0  0  0  0  0  0  0  0  0  0  0  0
  1  6  1  0  0  0  0
  2  1  1  0  0  0  0
  2  3  1  0  0  0  0
  3  9  1  0  0  0  0
  3  4  1  0  0  0  0
  4  5  1  0  0  0  0
  4 11  1  0  0  0  0
  5 12  1  0  0  0  0
  6 14  1  1  0  0  0
  6  5  1  0  0  0  0
  6 15  1  0  0  0  0
  7  2  1  0  0  0  0
  8  2  1  0  0  0  0
 10  3  1  0  0  0  0
 13  5  1  0  0  0  0
 15 16  1  1  0  0  0
 15 19  1  0  0  0  0
 16 17  1  0  0  0  0
 16 21  1  0  0  0  0
 17 18  1  0  0  0  0
 17 22  1  0  0  0  0
 18 25  1  0  0  0  0
 18 24  1  0  0  0  0
 19 26  1  1  0  0  0
 19 18  1  0  0  0  0
 20 16  1  0  0  0  0
 23 17  1  0  0  0  0
 27 28  1  0  0  0  0
 28 30  1  0  0  0  0
 29 28  2  0  0  0  0
 30 31  1  0  0  0  0
 30 19  1  0  0  0  0
 32 38  1  0  0  0  0
 32 33  1  0  0  0  0
 33  1  1  0  0  0  0
 34 33  2  0  0  0  0
 34 39  1  0  0  0  0
 35 34  1  0  0  0  0
 36 37  1  0  0  0  0
 36 35  2  0  0  0  0
 37 32  2  0  0  0  0
 40 36  1  0  0  0  0
M  END
>  <minimizedAffinity>
-4.65964794

$$$$

 OpenBabel03242514543D

 40 42  0  0  1  0  0  0  0  0999 V2000
   37.2030   29.3410   39.0730 N   0  0  0  0  0  0  0  0  0  0  0  0
   36.4160   29.8700   37.9750 C   0  0  0  0  0  0  0  0  0  0  0  0
   35.0360   29.2670   37.9060 C   0  0  0  0  0  0  0  0  0  0  0  0
   35.0330   27.8740   38.0010 N   0  0  0  0  0  0  0  0  0  0  0  0
   36.0050   27.2580   38.8260 C   0  0  0  0  0  0  0  0  0  0  0  0
   36.5770   28.3000   39.8010 C   0  0  1  0  0  0  0  0  0  0  0  0
   36.9380   29.8230   37.0010 H   0  0  0  0  0  0  0  0  0  0  0  0
   36.2800   30.9590   38.1980 H   0  0  0  0  0  0  0  0  0  0  0  0
   34.3610   29.7340   38.6690 H   0  0  0  0  0  0  0  0  0  0  0  0
   34.6090   29.5760   36.9200 H   0  0  0  0  0  0  0  0  0  0  0  0
   34.0840   27.5530   38.3500 H   0  0  0  0  0  0  0  0  0  0  0  0
   35.7230   26.3320   39.3260 H   0  0  0  0  0  0  0  0  0  0  0  0
   36.8750   26.9980   38.1550 H   0  0  0  0  0  0  0  0  0  0  0  0
   35.6130   28.7780   40.1620 H   0  0  0  0  0  0  0  0  0  0  0  0
   37.0990   27.7310   40.9690 N   0  0  2  0  0  0  0  0  0  0  0  0
   37.1350   26.3040   41.1040 C   0  0  0  0  0  0  0  0  0  0  0  0
   37.6010   26.1660   42.5360 C   0  0  0  0  0  0  0  0  0  0  0  0
   36.6120   27.1130   43.2070 C   0  0  0  0  0  0  0  0  0  0  0  0
   36.5580   28.2390   42.2110 C   0  0  1  0  0  0  0  0  0  0  0  0
   37.8930   25.9100   40.4040 H   0  0  0  0  0  0  0  0  0  0  0  0
   36.1600   25.8000   41.0310 H   0  0  0  0  0  0  0  0  0  0  0  0
   37.4460   25.1310   42.8830 H   0  0  0  0  0  0  0  0  0  0  0  0
   38.6460   26.4760   42.6880 H   0  0  0  0  0  0  0  0  0  0  0  0
   35.6550   26.6250   43.3860 H   0  0  0  0  0  0  0  0  0  0  0  0
   37.0420   27.5350   44.1440 H   0  0  0  0  0  0  0  0  0  0  0  0
   35.4690   28.4630   42.0530 H   0  0  0  0  0  0  0  0  0  0  0  0
   38.8650   30.6840   43.2830 H   0  0  0  0  0  0  0  0  0  0  0  0
   38.5420   29.7230   42.9100 C   0  0  0  0  0  0  0  0  0  0  0  0
   39.3810   28.8130   42.6530 O   0  0  0  0  0  0  0  0  0  0  0  0
   37.1810   29.4290   42.6910 N   0  0  0  0  0  0  0  0  0  0  0  0
   36.4150   30.1400   42.8830 H   0  0  0  0  0  0  0  0  0  0  0  0
   38.4930   31.2590   39.6300 C   0  0  0  0  0  0  0  0  0  0  0  0
   38.4610   29.9150   39.2750 C   0  0  0  0  0  0  0  0  0  0  0  0
   39.6750   29.2670   39.1530 C   0  0  0  0  0  0  0  0  0  0  0  0
   40.8370   29.9240   39.3730 N   0  0  0  0  0  0  0  0  0  0  0  0
   40.8200   31.2400   39.7190 C   0  0  0  0  0  0  0  0  0  0  0  0
   39.6560   31.8940   39.8440 N   0  0  0  0  0  0  0  0  0  0  0  0
   37.6150   31.8780   39.7570 H   0  0  0  0  0  0  0  0  0  0  0  0
   39.6060   28.2200   38.8750 H   0  0  0  0  0  0  0  0  0  0  0  0
   41.7350   31.7840   39.8980 H   0  0  0  0  0  0  0  0  0  0  0  0
  1 33  1  0  0  0  0
  1  6  1  0  0  0  0
  2  8  1  0  0  0  0
  2  1  1  0  0  0  0
  3  2  1  0  0  0  0
  3  4  1  0  0  0  0
  3  9  1  0  0  0  0
  4 11  1  0  0  0  0
  4  5  1  0  0  0  0
  5 12  1  0  0  0  0
  5  6  1  0  0  0  0
  6 14  1  1  0  0  0
  6 15  1  0  0  0  0
  7  2  1  0  0  0  0
 10  3  1  0  0  0  0
 13  5  1  0  0  0  0
 15 16  1  6  0  0  0
 15 19  1  0  0  0  0
 16 17  1  0  0  0  0
 17 23  1  0  0  0  0
 17 22  1  0  0  0  0
 17 18  1  0  0  0  0
 18 24  1  0  0  0  0
 18 25  1  0  0  0  0
 19 26  1  6  0  0  0
 19 30  1  0  0  0  0
 19 18  1  0  0  0  0
 20 16  1  0  0  0  0
 21 16  1  0  0  0  0
 28 27  1  0  0  0  0
 29 28  2  0  0  0  0
 30 31  1  0  0  0  0
 30 28  1  0  0  0  0
 32 38  1  0  0  0  0
 32 37  1  0  0  0  0
 33 32  2  0  0  0  0
 34 33  1  0  0  0  0
 34 35  2  0  0  0  0
 35 36  1  0  0  0  0
 36 37  2  0  0  0  0
 36 40  1  0  0  0  0
 39 34  1  0  0  0  0
M  END
>  <minimizedAffinity>
-4.60991621

$$$$

 OpenBabel03242514543D

 40 42  0  0  1  0  0  0  0  0999 V2000
   37.5610   28.5280   41.3820 N   0  0  0  0  0  0  0  0  0  0  0  0
   36.1790   28.1760   41.1140 C   0  0  0  0  0  0  0  0  0  0  0  0
   35.4200   29.2840   40.4280 C   0  0  0  0  0  0  0  0  0  0  0  0
   35.5930   30.5300   41.0320 N   0  0  0  0  0  0  0  0  0  0  0  0
   36.8500   30.8250   41.6130 C   0  0  0  0  0  0  0  0  0  0  0  0
   37.9060   29.8600   41.0500 C   0  0  1  0  0  0  0  0  0  0  0  0
   35.6440   27.7960   42.0040 H   0  0  0  0  0  0  0  0  0  0  0  0
   36.2210   27.3200   40.3930 H   0  0  0  0  0  0  0  0  0  0  0  0
   35.6670   29.3150   39.3360 H   0  0  0  0  0  0  0  0  0  0  0  0
   34.3410   28.9940   40.4690 H   0  0  0  0  0  0  0  0  0  0  0  0
   35.3970   31.2900   40.3170 H   0  0  0  0  0  0  0  0  0  0  0  0
   37.1810   31.8630   41.5900 H   0  0  0  0  0  0  0  0  0  0  0  0
   36.7710   30.5450   42.7030 H   0  0  0  0  0  0  0  0  0  0  0  0
   37.6590   29.9250   39.9430 H   0  0  0  0  0  0  0  0  0  0  0  0
   39.2070   30.3760   41.1080 N   0  0  2  0  0  0  0  0  0  0  0  0
   39.7530   30.7730   42.3720 C   0  0  0  0  0  0  0  0  0  0  0  0
   41.0580   31.3980   41.9350 C   0  0  0  0  0  0  0  0  0  0  0  0
   40.5310   32.3260   40.8450 C   0  0  0  0  0  0  0  0  0  0  0  0
   39.4980   31.4530   40.1870 C   0  0  1  0  0  0  0  0  0  0  0  0
   39.9330   29.8640   42.9730 H   0  0  0  0  0  0  0  0  0  0  0  0
   39.1850   31.5500   42.9060 H   0  0  0  0  0  0  0  0  0  0  0  0
   41.4930   31.9800   42.7650 H   0  0  0  0  0  0  0  0  0  0  0  0
   41.7850   30.6690   41.5480 H   0  0  0  0  0  0  0  0  0  0  0  0
   40.1370   33.2490   41.2670 H   0  0  0  0  0  0  0  0  0  0  0  0
   41.3170   32.5240   40.0810 H   0  0  0  0  0  0  0  0  0  0  0  0
   38.5750   32.0850   40.0860 H   0  0  0  0  0  0  0  0  0  0  0  0
   39.5580   30.5550   36.7750 H   0  0  0  0  0  0  0  0  0  0  0  0
   39.1190   30.8890   37.7050 C   0  0  0  0  0  0  0  0  0  0  0  0
   37.8870   31.1650   37.7760 O   0  0  0  0  0  0  0  0  0  0  0  0
   39.8830   31.0330   38.8790 N   0  0  0  0  0  0  0  0  0  0  0  0
   40.9240   30.8210   38.9020 H   0  0  0  0  0  0  0  0  0  0  0  0
   38.9010   26.5940   41.0410 C   0  0  0  0  0  0  0  0  0  0  0  0
   38.3690   27.5250   41.9260 C   0  0  0  0  0  0  0  0  0  0  0  0
   38.6840   27.3760   43.2620 C   0  0  0  0  0  0  0  0  0  0  0  0
   39.4790   26.3630   43.6780 N   0  0  0  0  0  0  0  0  0  0  0  0
   39.9780   25.4750   42.7770 C   0  0  0  0  0  0  0  0  0  0  0  0
   39.6880   25.5950   41.4730 N   0  0  0  0  0  0  0  0  0  0  0  0
   38.7310   26.5990   39.9730 H   0  0  0  0  0  0  0  0  0  0  0  0
   38.2480   28.1230   43.9180 H   0  0  0  0  0  0  0  0  0  0  0  0
   40.6140   24.6600   43.0870 H   0  0  0  0  0  0  0  0  0  0  0  0
  1 33  1  0  0  0  0
  2  1  1  0  0  0  0
  2  7  1  0  0  0  0
  3 10  1  0  0  0  0
  3  4  1  0  0  0  0
  3  2  1  0  0  0  0
  4  5  1  0  0  0  0
  5 13  1  0  0  0  0
  6 14  1  6  0  0  0
  6 15  1  0  0  0  0
  6  1  1  0  0  0  0
  6  5  1  0  0  0  0
  8  2  1  0  0  0  0
  9  3  1  0  0  0  0
 11  4  1  0  0  0  0
 12  5  1  0  0  0  0
 15 16  1  1  0  0  0
 16 21  1  0  0  0  0
 16 20  1  0  0  0  0
 17 16  1  0  0  0  0
 17 22  1  0  0  0  0
 18 24  1  0  0  0  0
 18 17  1  0  0  0  0
 19 26  1  6  0  0  0
 19 18  1  0  0  0  0
 19 15  1  0  0  0  0
 23 17  1  0  0  0  0
 25 18  1  0  0  0  0
 27 28  1  0  0  0  0
 28 29  2  0  0  0  0
 28 30  1  0  0  0  0
 30 31  1  0  0  0  0
 30 19  1  0  0  0  0
 32 37  2  0  0  0  0
 32 33  1  0  0  0  0
 33 34  2  0  0  0  0
 34 35  1  0  0  0  0
 34 39  1  0  0  0  0
 36 40  1  0  0  0  0
 36 35  2  0  0  0  0
 37 36  1  0  0  0  0
 38 32  1  0  0  0  0
M  END
>  <minimizedAffinity>
-4.59233809

$$$$

 OpenBabel03242514543D

 40 42  0  0  1  0  0  0  0  0999 V2000
   39.4540   31.8190   39.0350 N   0  0  0  0  0  0  0  0  0  0  0  0
   39.7420   32.7440   40.1160 C   0  0  0  0  0  0  0  0  0  0  0  0
   38.5310   33.0400   40.9640 C   0  0  0  0  0  0  0  0  0  0  0  0
   37.3950   33.3580   40.2180 N   0  0  0  0  0  0  0  0  0  0  0  0
   37.2110   32.7130   38.9710 C   0  0  0  0  0  0  0  0  0  0  0  0
   38.0910   31.4540   38.9180 C   0  0  1  0  0  0  0  0  0  0  0  0
   40.2470   33.6670   39.7780 H   0  0  0  0  0  0  0  0  0  0  0  0
   40.4760   32.2160   40.7770 H   0  0  0  0  0  0  0  0  0  0  0  0
   38.3340   32.2010   41.6800 H   0  0  0  0  0  0  0  0  0  0  0  0
   38.8090   33.9090   41.6120 H   0  0  0  0  0  0  0  0  0  0  0  0
   36.5310   33.1560   40.8010 H   0  0  0  0  0  0  0  0  0  0  0  0
   36.1860   32.5170   38.6550 H   0  0  0  0  0  0  0  0  0  0  0  0
   37.6540   33.3960   38.1900 H   0  0  0  0  0  0  0  0  0  0  0  0
   37.8530   31.0060   39.9340 H   0  0  0  0  0  0  0  0  0  0  0  0
   37.6080   30.4840   38.0300 N   0  0  2  0  0  0  0  0  0  0  0  0
   37.2870   30.8570   36.6840 C   0  0  0  0  0  0  0  0  0  0  0  0
   36.6710   29.5750   36.1730 C   0  0  0  0  0  0  0  0  0  0  0  0
   35.6770   29.3150   37.3010 C   0  0  0  0  0  0  0  0  0  0  0  0
   36.4930   29.6950   38.5070 C   0  0  1  0  0  0  0  0  0  0  0  0
   38.2290   31.0800   36.1520 H   0  0  0  0  0  0  0  0  0  0  0  0
   36.5260   31.6450   36.5830 H   0  0  0  0  0  0  0  0  0  0  0  0
   36.1410   29.7630   35.2240 H   0  0  0  0  0  0  0  0  0  0  0  0
   37.3960   28.7550   36.0580 H   0  0  0  0  0  0  0  0  0  0  0  0
   34.7680   29.8990   37.1710 H   0  0  0  0  0  0  0  0  0  0  0  0
   35.4590   28.2270   37.3930 H   0  0  0  0  0  0  0  0  0  0  0  0
   35.8360   30.3600   39.1290 H   0  0  0  0  0  0  0  0  0  0  0  0
   36.7200   27.2350   41.0260 H   0  0  0  0  0  0  0  0  0  0  0  0
   36.3370   28.1180   40.5340 C   0  0  0  0  0  0  0  0  0  0  0  0
   35.3970   28.7890   41.0500 O   0  0  0  0  0  0  0  0  0  0  0  0
   36.8550   28.5700   39.3050 N   0  0  0  0  0  0  0  0  0  0  0  0
   37.6440   28.0620   38.8070 H   0  0  0  0  0  0  0  0  0  0  0  0
   41.1560   32.3760   37.4710 C   0  0  0  0  0  0  0  0  0  0  0  0
   40.5400   31.4080   38.2570 C   0  0  0  0  0  0  0  0  0  0  0  0
   41.0540   30.1280   38.1970 C   0  0  0  0  0  0  0  0  0  0  0  0
   42.1130   29.8430   37.4050 N   0  0  0  0  0  0  0  0  0  0  0  0
   42.6850   30.8210   36.6530 C   0  0  0  0  0  0  0  0  0  0  0  0
   42.2050   32.0740   36.6910 N   0  0  0  0  0  0  0  0  0  0  0  0
   40.8500   33.4130   37.4270 H   0  0  0  0  0  0  0  0  0  0  0  0
   40.5450   29.4030   38.8250 H   0  0  0  0  0  0  0  0  0  0  0  0
   43.5300   30.6160   36.0140 H   0  0  0  0  0  0  0  0  0  0  0  0
  1  2  1  0  0  0  0
  2  8  1  0  0  0  0
  2  3  1  0  0  0  0
  3 10  1  0  0  0  0
  3  9  1  0  0  0  0
  4 11  1  0  0  0  0
  4  3  1  0  0  0  0
  5  4  1  0  0  0  0
  6  5  1  0  0  0  0
  6  1  1  0  0  0  0
  6 14  1  1  0  0  0
  7  2  1  0  0  0  0
 12  5  1  0  0  0  0
 13  5  1  0  0  0  0
 15 16  1  6  0  0  0
 15 19  1  0  0  0  0
 15  6  1  0  0  0  0
 17 16  1  0  0  0  0
 17 18  1  0  0  0  0
 18 25  1  0  0  0  0
 18 19  1  0  0  0  0
 19 26  1  1  0  0  0
 19 30  1  0  0  0  0
 20 16  1  0  0  0  0
 21 16  1  0  0  0  0
 22 17  1  0  0  0  0
 23 17  1  0  0  0  0
 24 18  1  0  0  0  0
 28 27  1  0  0  0  0
 28 29  2  0  0  0  0
 30 28  1  0  0  0  0
 31 30  1  0  0  0  0
 32 33  1  0  0  0  0
 33  1  1  0  0  0  0
 34 33  2  0  0  0  0
 34 39  1  0  0  0  0
 35 34  1  0  0  0  0
 36 37  1  0  0  0  0
 36 35  2  0  0  0  0
 37 32  2  0  0  0  0
 38 32  1  0  0  0  0
 40 36  1  0  0  0  0
M  END
>  <minimizedAffinity>
-4.56193924

$$$$

 OpenBabel03242514543D

 40 42  0  0  1  0  0  0  0  0999 V2000
   36.7890   26.5350   39.2340 N   0  0  0  0  0  0  0  0  0  0  0  0
   36.1350   25.4810   38.4790 C   0  0  0  0  0  0  0  0  0  0  0  0
   35.8260   24.2700   39.3220 C   0  0  0  0  0  0  0  0  0  0  0  0
   36.9060   23.8420   40.0960 N   0  0  0  0  0  0  0  0  0  0  0  0
   37.7910   24.8210   40.6090 C   0  0  0  0  0  0  0  0  0  0  0  0
   37.1030   26.1950   40.5720 C   0  0  1  0  0  0  0  0  0  0  0  0
   36.6700   25.2140   37.5490 H   0  0  0  0  0  0  0  0  0  0  0  0
   35.1520   25.9080   38.1560 H   0  0  0  0  0  0  0  0  0  0  0  0
   34.9130   24.4450   39.9470 H   0  0  0  0  0  0  0  0  0  0  0  0
   35.5330   23.4600   38.6080 H   0  0  0  0  0  0  0  0  0  0  0  0
   36.5400   23.2900   40.9250 H   0  0  0  0  0  0  0  0  0  0  0  0
   38.2580   24.6170   41.5730 H   0  0  0  0  0  0  0  0  0  0  0  0
   38.6340   24.9110   39.8650 H   0  0  0  0  0  0  0  0  0  0  0  0
   36.0940   25.9200   41.0140 H   0  0  0  0  0  0  0  0  0  0  0  0
   37.6200   27.0940   41.5130 N   0  0  2  0  0  0  0  0  0  0  0  0
   38.6890   26.6790   42.3720 C   0  0  0  0  0  0  0  0  0  0  0  0
   38.7940   27.8730   43.2930 C   0  0  0  0  0  0  0  0  0  0  0  0
   37.3250   28.0130   43.6800 C   0  0  0  0  0  0  0  0  0  0  0  0
   36.6460   27.7410   42.3650 C   0  0  1  0  0  0  0  0  0  0  0  0
   39.6030   26.5720   41.7610 H   0  0  0  0  0  0  0  0  0  0  0  0
   38.4730   25.8030   43.0020 H   0  0  0  0  0  0  0  0  0  0  0  0
   39.4050   27.6160   44.1750 H   0  0  0  0  0  0  0  0  0  0  0  0
   39.1840   28.7760   42.7980 H   0  0  0  0  0  0  0  0  0  0  0  0
   37.0570   27.3210   44.4760 H   0  0  0  0  0  0  0  0  0  0  0  0
   37.0860   29.0670   43.9510 H   0  0  0  0  0  0  0  0  0  0  0  0
   35.8280   27.0040   42.5840 H   0  0  0  0  0  0  0  0  0  0  0  0
   36.0320   30.8810   40.8760 H   0  0  0  0  0  0  0  0  0  0  0  0
   36.6290   30.0710   41.2700 C   0  0  0  0  0  0  0  0  0  0  0  0
   37.8920   30.1350   41.2650 O   0  0  0  0  0  0  0  0  0  0  0  0
   36.0430   28.9060   41.8050 N   0  0  0  0  0  0  0  0  0  0  0  0
   34.9890   28.7750   41.8440 H   0  0  0  0  0  0  0  0  0  0  0  0
   35.9090   28.4530   38.1380 C   0  0  0  0  0  0  0  0  0  0  0  0
   37.0240   27.7360   38.5580 C   0  0  0  0  0  0  0  0  0  0  0  0
   38.2630   28.2730   38.2700 C   0  0  0  0  0  0  0  0  0  0  0  0
   38.3730   29.4480   37.6080 N   0  0  0  0  0  0  0  0  0  0  0  0
   37.2540   30.1150   37.2160 C   0  0  0  0  0  0  0  0  0  0  0  0
   36.0370   29.6170   37.4820 N   0  0  0  0  0  0  0  0  0  0  0  0
   34.8860   28.1420   38.3010 H   0  0  0  0  0  0  0  0  0  0  0  0
   39.1060   27.6820   38.6150 H   0  0  0  0  0  0  0  0  0  0  0  0
   37.3180   31.0540   36.6860 H   0  0  0  0  0  0  0  0  0  0  0  0
  1  6  1  0  0  0  0
  2  1  1  0  0  0  0
  2  3  1  0  0  0  0
  3  9  1  0  0  0  0
  3  4  1  0  0  0  0
  4  5  1  0  0  0  0
  4 11  1  0  0  0  0
  5 12  1  0  0  0  0
  6  5  1  0  0  0  0
  6 14  1  1  0  0  0
  6 15  1  0  0  0  0
  7  2  1  0  0  0  0
  8  2  1  0  0  0  0
 10  3  1  0  0  0  0
 13  5  1  0  0  0  0
 15 19  1  0  0  0  0
 15 16  1  1  0  0  0
 16 21  1  0  0  0  0
 16 17  1  0  0  0  0
 17 18  1  0  0  0  0
 17 22  1  0  0  0  0
 18 25  1  0  0  0  0
 18 24  1  0  0  0  0
 19 26  1  1  0  0  0
 19 18  1  0  0  0  0
 20 16  1  0  0  0  0
 23 17  1  0  0  0  0
 27 28  1  0  0  0  0
 28 30  1  0  0  0  0
 29 28  2  0  0  0  0
 30 31  1  0  0  0  0
 30 19  1  0  0  0  0
 32 38  1  0  0  0  0
 32 33  1  0  0  0  0
 33  1  1  0  0  0  0
 34 33  2  0  0  0  0
 34 39  1  0  0  0  0
 35 34  1  0  0  0  0
 36 37  1  0  0  0  0
 36 35  2  0  0  0  0
 37 32  2  0  0  0  0
 40 36  1  0  0  0  0
M  END
>  <minimizedAffinity>
-4.51508904

$$$$

 OpenBabel03242514543D

 40 42  0  0  1  0  0  0  0  0999 V2000
   39.0740   29.2000   39.3630 N   0  0  0  0  0  0  0  0  0  0  0  0
   39.0540   29.0030   37.9250 C   0  0  0  0  0  0  0  0  0  0  0  0
   38.3770   27.7170   37.5250 C   0  0  0  0  0  0  0  0  0  0  0  0
   38.8140   26.6100   38.2540 N   0  0  0  0  0  0  0  0  0  0  0  0
   39.1660   26.8000   39.6120 C   0  0  0  0  0  0  0  0  0  0  0  0
   38.5560   28.1180   40.1140 C   0  0  1  0  0  0  0  0  0  0  0  0
   40.0490   29.1130   37.4560 H   0  0  0  0  0  0  0  0  0  0  0  0
   38.4290   29.8370   37.5150 H   0  0  0  0  0  0  0  0  0  0  0  0
   37.2630   27.8260   37.5660 H   0  0  0  0  0  0  0  0  0  0  0  0
   38.6090   27.5670   36.4410 H   0  0  0  0  0  0  0  0  0  0  0  0
   38.0610   25.8620   38.2310 H   0  0  0  0  0  0  0  0  0  0  0  0
   38.9850   25.9710   40.2970 H   0  0  0  0  0  0  0  0  0  0  0  0
   40.2790   26.9840   39.6310 H   0  0  0  0  0  0  0  0  0  0  0  0
   37.4980   28.0070   39.7160 H   0  0  0  0  0  0  0  0  0  0  0  0
   38.3640   28.1420   41.5020 N   0  0  2  0  0  0  0  0  0  0  0  0
   38.8080   27.0330   42.2940 C   0  0  0  0  0  0  0  0  0  0  0  0
   38.2580   27.4140   43.6500 C   0  0  0  0  0  0  0  0  0  0  0  0
   36.8180   27.7220   43.2510 C   0  0  0  0  0  0  0  0  0  0  0  0
   37.0200   28.4420   41.9460 C   0  0  1  0  0  0  0  0  0  0  0  0
   39.9130   27.0340   42.3030 H   0  0  0  0  0  0  0  0  0  0  0  0
   38.3690   26.0590   42.0290 H   0  0  0  0  0  0  0  0  0  0  0  0
   38.2960   26.5460   44.3290 H   0  0  0  0  0  0  0  0  0  0  0  0
   38.7630   28.2830   44.0990 H   0  0  0  0  0  0  0  0  0  0  0  0
   36.2250   26.8130   43.1760 H   0  0  0  0  0  0  0  0  0  0  0  0
   36.3620   28.4560   43.9530 H   0  0  0  0  0  0  0  0  0  0  0  0
   36.3010   27.9770   41.2200 H   0  0  0  0  0  0  0  0  0  0  0  0
   35.9430   31.7400   41.3050 H   0  0  0  0  0  0  0  0  0  0  0  0
   36.1100   30.6940   41.0940 C   0  0  0  0  0  0  0  0  0  0  0  0
   35.7630   30.1940   39.9860 O   0  0  0  0  0  0  0  0  0  0  0  0
   36.7160   29.8330   42.0300 N   0  0  0  0  0  0  0  0  0  0  0  0
   37.0360   30.1760   42.9840 H   0  0  0  0  0  0  0  0  0  0  0  0
   39.1320   31.5720   39.2040 C   0  0  0  0  0  0  0  0  0  0  0  0
   39.5930   30.4140   39.8220 C   0  0  0  0  0  0  0  0  0  0  0  0
   40.5220   30.5670   40.8320 C   0  0  0  0  0  0  0  0  0  0  0  0
   40.9560   31.7960   41.1960 N   0  0  0  0  0  0  0  0  0  0  0  0
   40.4770   32.9010   40.5640 C   0  0  0  0  0  0  0  0  0  0  0  0
   39.5750   32.7830   39.5780 N   0  0  0  0  0  0  0  0  0  0  0  0
   38.4070   31.5890   38.4020 H   0  0  0  0  0  0  0  0  0  0  0  0
   40.8550   29.6400   41.2870 H   0  0  0  0  0  0  0  0  0  0  0  0
   40.8100   33.8910   40.8370 H   0  0  0  0  0  0  0  0  0  0  0  0
  1 33  1  0  0  0  0
  1  6  1  0  0  0  0
  2  1  1  0  0  0  0
  3  9  1  0  0  0  0
  3  2  1  0  0  0  0
  3  4  1  0  0  0  0
  4  5  1  0  0  0  0
  5 13  1  0  0  0  0
  5  6  1  0  0  0  0
  5 12  1  0  0  0  0
  6 14  1  6  0  0  0
  6 15  1  0  0  0  0
  7  2  1  0  0  0  0
  8  2  1  0  0  0  0
 10  3  1  0  0  0  0
 11  4  1  0  0  0  0
 15 19  1  0  0  0  0
 15 16  1  6  0  0  0
 16 20  1  0  0  0  0
 16 17  1  0  0  0  0
 17 23  1  0  0  0  0
 17 22  1  0  0  0  0
 18 17  1  0  0  0  0
 18 25  1  0  0  0  0
 19 26  1  6  0  0  0
 19 30  1  0  0  0  0
 19 18  1  0  0  0  0
 21 16  1  0  0  0  0
 24 18  1  0  0  0  0
 28 27  1  0  0  0  0
 28 30  1  0  0  0  0
 29 28  2  0  0  0  0
 30 31  1  0  0  0  0
 32 37  2  0  0  0  0
 32 33  1  0  0  0  0
 33 34  2  0  0  0  0
 34 35  1  0  0  0  0
 34 39  1  0  0  0  0
 36 40  1  0  0  0  0
 36 35  2  0  0  0  0
 37 36  1  0  0  0  0
 38 32  1  0  0  0  0
M  END
>  <minimizedAffinity>
-4.4777112

$$$$
