
 OpenBabel03252509333D

 36 37  0  0  1  0  0  0  0  0999 V2000
   35.8580   28.3160   41.5870 O   0  0  0  0  0  0  0  0  0  0  0  0
   37.1390   27.9190   41.9760 C   0  0  1  0  0  0  0  0  0  0  0  0
   37.4270   28.1780   43.4290 C   0  0  0  0  0  0  0  0  0  0  0  0
   38.6780   27.3660   43.6460 C   0  0  0  0  0  0  0  0  0  0  0  0
   38.5800   26.2130   42.6690 C   0  0  0  0  0  0  0  0  0  0  0  0
   37.2430   26.3910   41.9540 C   0  0  2  0  0  0  0  0  0  0  0  0
   37.9290   28.2930   41.3190 H   0  0  0  0  0  0  0  0  0  0  0  0
   37.5600   29.2620   43.6280 H   0  0  0  0  0  0  0  0  0  0  0  0
   36.6230   27.7230   44.0450 H   0  0  0  0  0  0  0  0  0  0  0  0
   39.5340   28.0010   43.2950 H   0  0  0  0  0  0  0  0  0  0  0  0
   38.8120   27.0290   44.6820 H   0  0  0  0  0  0  0  0  0  0  0  0
   39.4240   26.1850   41.9570 H   0  0  0  0  0  0  0  0  0  0  0  0
   38.4780   25.2920   43.2770 H   0  0  0  0  0  0  0  0  0  0  0  0
   36.4050   25.9120   42.4470 H   0  0  0  0  0  0  0  0  0  0  0  0
   37.0860   24.3260   39.1420 H   0  0  0  0  0  0  0  0  0  0  0  0
   36.9030   24.6700   40.1630 C   0  0  0  0  0  0  0  0  0  0  0  0
   36.1970   23.9350   40.8860 O   0  0  0  0  0  0  0  0  0  0  0  0
   37.4730   25.9170   40.6020 N   0  0  0  0  0  0  0  0  0  0  0  0
   38.0630   26.5200   39.9860 H   0  0  0  0  0  0  0  0  0  0  0  0
   35.1510   29.4510   39.3690 O   0  0  0  0  0  0  0  0  0  0  0  0
   35.9880   29.6640   40.5860 P   0  0  1  0  0  0  0  0  0  0  0  0
   35.6110   31.0820   41.3980 O   0  0  0  0  0  0  0  0  0  0  0  0
   35.8270   31.0320   42.3660 H   0  0  0  0  0  0  0  0  0  0  0  0
   37.6170   29.8060   40.1310 O   0  0  0  0  0  0  0  0  0  0  0  0
   37.6890   30.6610   39.0680 C   0  0  0  0  0  0  0  0  0  0  0  0
   38.0460   30.2880   38.1200 H   0  0  0  0  0  0  0  0  0  0  0  0
   36.6280   30.9970   38.8730 H   0  0  0  0  0  0  0  0  0  0  0  0
   40.3900   33.2110   39.1740 C   0  0  0  0  0  0  0  0  0  0  0  0
   39.7000   32.0330   38.8610 C   0  0  0  0  0  0  0  0  0  0  0  0
   38.4270   31.8870   39.3830 C   0  0  0  0  0  0  0  0  0  0  0  0
   37.9060   32.8920   40.1740 N   0  0  0  0  0  0  0  0  0  0  0  0
   38.6130   34.0120   40.4470 C   0  0  0  0  0  0  0  0  0  0  0  0
   39.8460   34.1570   39.9430 N   0  0  0  0  0  0  0  0  0  0  0  0
   41.3960   33.3800   38.7900 H   0  0  0  0  0  0  0  0  0  0  0  0
   40.1840   31.3100   38.2410 H   0  0  0  0  0  0  0  0  0  0  0  0
   38.1360   34.7590   41.0780 H   0  0  0  0  0  0  0  0  0  0  0  0
  1  2  1  0  0  0  0
  2  7  1  6  0  0  0
  2  3  1  0  0  0  0
  3  8  1  0  0  0  0
  3  4  1  0  0  0  0
  3  9  1  0  0  0  0
  4 11  1  0  0  0  0
  5 13  1  0  0  0  0
  5  4  1  0  0  0  0
  6  2  1  0  0  0  0
  6 14  1  1  0  0  0
  6  5  1  0  0  0  0
 10  4  1  0  0  0  0
 12  5  1  0  0  0  0
 15 16  1  0  0  0  0
 16 18  1  0  0  0  0
 16 17  2  0  0  0  0
 18  6  1  0  0  0  0
 19 18  1  0  0  0  0
 21 20  2  6  0  0  0
 21 22  1  0  0  0  0
 21  1  1  0  0  0  0
 22 23  1  0  0  0  0
 24 21  1  0  0  0  0
 25 30  1  0  0  0  0
 25 24  1  0  0  0  0
 26 25  1  0  0  0  0
 27 25  1  0  0  0  0
 28 33  1  0  0  0  0
 29 28  2  0  0  0  0
 29 30  1  0  0  0  0
 30 31  2  0  0  0  0
 31 32  1  0  0  0  0
 32 36  1  0  0  0  0
 33 32  2  0  0  0  0
 34 28  1  0  0  0  0
 35 29  1  0  0  0  0
M  END
>  <minimizedAffinity>
-5.08866787

$$$$

 OpenBabel03252509333D

 36 37  0  0  1  0  0  0  0  0999 V2000
   37.2020   28.9220   40.3550 O   0  0  0  0  0  0  0  0  0  0  0  0
   37.0520   28.4060   41.6440 C   0  0  1  0  0  0  0  0  0  0  0  0
   36.9310   26.9060   41.6740 C   0  0  0  0  0  0  0  0  0  0  0  0
   37.1340   26.6090   43.1370 C   0  0  0  0  0  0  0  0  0  0  0  0
   38.0380   27.7120   43.6470 C   0  0  0  0  0  0  0  0  0  0  0  0
   38.3530   28.5810   42.4320 C   0  0  2  0  0  0  0  0  0  0  0  0
   36.2690   28.9010   42.2240 H   0  0  0  0  0  0  0  0  0  0  0  0
   35.9460   26.5730   41.2840 H   0  0  0  0  0  0  0  0  0  0  0  0
   37.7850   26.4630   41.1220 H   0  0  0  0  0  0  0  0  0  0  0  0
   36.1400   26.7660   43.6340 H   0  0  0  0  0  0  0  0  0  0  0  0
   37.5390   25.6080   43.3330 H   0  0  0  0  0  0  0  0  0  0  0  0
   37.5780   28.2980   44.4620 H   0  0  0  0  0  0  0  0  0  0  0  0
   38.9950   27.2280   43.9300 H   0  0  0  0  0  0  0  0  0  0  0  0
   39.2250   28.2640   41.8700 H   0  0  0  0  0  0  0  0  0  0  0  0
   39.6460   31.7710   43.0180 H   0  0  0  0  0  0  0  0  0  0  0  0
   39.5850   30.7570   42.6180 C   0  0  0  0  0  0  0  0  0  0  0  0
   40.5250   30.3840   41.8840 O   0  0  0  0  0  0  0  0  0  0  0  0
   38.4540   29.9320   42.9530 N   0  0  0  0  0  0  0  0  0  0  0  0
   37.6760   30.2580   43.5690 H   0  0  0  0  0  0  0  0  0  0  0  0
   34.7460   29.3940   39.6840 O   0  0  0  0  0  0  0  0  0  0  0  0
   36.0070   30.0790   40.0920 P   0  0  1  0  0  0  0  0  0  0  0  0
   35.8050   31.0810   41.4230 O   0  0  0  0  0  0  0  0  0  0  0  0
   36.6450   31.1940   41.9410 H   0  0  0  0  0  0  0  0  0  0  0  0
   36.5370   31.0830   38.8310 O   0  0  0  0  0  0  0  0  0  0  0  0
   37.8880   30.9290   38.7030 C   0  0  0  0  0  0  0  0  0  0  0  0
   38.3470   30.0190   39.0580 H   0  0  0  0  0  0  0  0  0  0  0  0
   38.0950   30.9510   37.5930 H   0  0  0  0  0  0  0  0  0  0  0  0
   40.6520   33.3140   39.3970 C   0  0  0  0  0  0  0  0  0  0  0  0
   39.9530   32.2260   38.8590 C   0  0  0  0  0  0  0  0  0  0  0  0
   38.6370   32.0630   39.2540 C   0  0  0  0  0  0  0  0  0  0  0  0
   38.0840   32.9630   40.1420 N   0  0  0  0  0  0  0  0  0  0  0  0
   38.8020   33.9990   40.6330 C   0  0  0  0  0  0  0  0  0  0  0  0
   40.0770   34.1610   40.2530 N   0  0  0  0  0  0  0  0  0  0  0  0
   41.6920   33.4920   39.1220 H   0  0  0  0  0  0  0  0  0  0  0  0
   40.4630   31.5810   38.1780 H   0  0  0  0  0  0  0  0  0  0  0  0
   38.2990   34.6670   41.3290 H   0  0  0  0  0  0  0  0  0  0  0  0
  1  2  1  0  0  0  0
  2  3  1  0  0  0  0
  2  7  1  1  0  0  0
  2  6  1  0  0  0  0
  3  4  1  0  0  0  0
  4 11  1  0  0  0  0
  4 10  1  0  0  0  0
  4  5  1  0  0  0  0
  5 13  1  0  0  0  0
  5 12  1  0  0  0  0
  6 14  1  6  0  0  0
  6 18  1  0  0  0  0
  6  5  1  0  0  0  0
  8  3  1  0  0  0  0
  9  3  1  0  0  0  0
 16 18  1  0  0  0  0
 16 15  1  0  0  0  0
 17 16  2  0  0  0  0
 18 19  1  0  0  0  0
 21 20  2  6  0  0  0
 21  1  1  0  0  0  0
 21 22  1  0  0  0  0
 22 23  1  0  0  0  0
 24 21  1  0  0  0  0
 25 24  1  0  0  0  0
 25 26  1  0  0  0  0
 25 30  1  0  0  0  0
 27 25  1  0  0  0  0
 28 33  1  0  0  0  0
 29 30  1  0  0  0  0
 29 28  2  0  0  0  0
 30 31  2  0  0  0  0
 31 32  1  0  0  0  0
 32 36  1  0  0  0  0
 33 32  2  0  0  0  0
 34 28  1  0  0  0  0
 35 29  1  0  0  0  0
M  END
>  <minimizedAffinity>
-4.955441

$$$$

 OpenBabel03252509333D

 36 37  0  0  1  0  0  0  0  0999 V2000
   37.2150   28.6600   40.2810 O   0  0  0  0  0  0  0  0  0  0  0  0
   36.7270   27.3860   40.5830 C   0  0  1  0  0  0  0  0  0  0  0  0
   37.1280   26.3420   39.5770 C   0  0  0  0  0  0  0  0  0  0  0  0
   36.7880   25.0660   40.3040 C   0  0  0  0  0  0  0  0  0  0  0  0
   36.9550   25.3880   41.7740 C   0  0  0  0  0  0  0  0  0  0  0  0
   37.4300   26.8380   41.8270 C   0  0  2  0  0  0  0  0  0  0  0  0
   35.6560   27.3700   40.7990 H   0  0  0  0  0  0  0  0  0  0  0  0
   36.5780   26.4690   38.6210 H   0  0  0  0  0  0  0  0  0  0  0  0
   38.2300   26.3680   39.4470 H   0  0  0  0  0  0  0  0  0  0  0  0
   35.6910   24.8930   40.1450 H   0  0  0  0  0  0  0  0  0  0  0  0
   37.3910   24.2050   39.9900 H   0  0  0  0  0  0  0  0  0  0  0  0
   36.0260   25.2400   42.3520 H   0  0  0  0  0  0  0  0  0  0  0  0
   37.8080   24.7770   42.1350 H   0  0  0  0  0  0  0  0  0  0  0  0
   38.5070   26.9580   41.7820 H   0  0  0  0  0  0  0  0  0  0  0  0
   36.9590   28.9270   44.5860 H   0  0  0  0  0  0  0  0  0  0  0  0
   37.4200   28.5280   43.6800 C   0  0  0  0  0  0  0  0  0  0  0  0
   38.4480   29.1080   43.2690 O   0  0  0  0  0  0  0  0  0  0  0  0
   36.8320   27.3850   43.0320 N   0  0  0  0  0  0  0  0  0  0  0  0
   35.9730   26.9100   43.3880 H   0  0  0  0  0  0  0  0  0  0  0  0
   34.6620   28.9180   39.9280 O   0  0  0  0  0  0  0  0  0  0  0  0
   35.9120   29.7130   40.1100 P   0  0  1  0  0  0  0  0  0  0  0  0
   35.8160   30.7990   41.3850 O   0  0  0  0  0  0  0  0  0  0  0  0
   36.7060   31.0060   41.7720 H   0  0  0  0  0  0  0  0  0  0  0  0
   36.1910   30.6480   38.7220 O   0  0  0  0  0  0  0  0  0  0  0  0
   37.5380   30.6870   38.4980 C   0  0  0  0  0  0  0  0  0  0  0  0
   38.1430   29.8460   38.8000 H   0  0  0  0  0  0  0  0  0  0  0  0
   37.6600   30.7530   37.3780 H   0  0  0  0  0  0  0  0  0  0  0  0
   40.1150   33.1530   39.5420 C   0  0  0  0  0  0  0  0  0  0  0  0
   39.5410   31.9790   39.0370 C   0  0  0  0  0  0  0  0  0  0  0  0
   38.1590   31.9070   39.0230 C   0  0  0  0  0  0  0  0  0  0  0  0
   37.4250   32.9750   39.4990 N   0  0  0  0  0  0  0  0  0  0  0  0
   38.0280   34.0870   39.9770 C   0  0  0  0  0  0  0  0  0  0  0  0
   39.3660   34.1610   39.9920 N   0  0  0  0  0  0  0  0  0  0  0  0
   41.1990   33.2650   39.5780 H   0  0  0  0  0  0  0  0  0  0  0  0
   40.1880   31.2050   38.6900 H   0  0  0  0  0  0  0  0  0  0  0  0
   37.3830   34.8870   40.3350 H   0  0  0  0  0  0  0  0  0  0  0  0
  1  2  1  0  0  0  0
  2  7  1  1  0  0  0
  2  6  1  0  0  0  0
  3  4  1  0  0  0  0
  3  2  1  0  0  0  0
  4  5  1  0  0  0  0
  5  6  1  0  0  0  0
  5 13  1  0  0  0  0
  5 12  1  0  0  0  0
  6 14  1  6  0  0  0
  6 18  1  0  0  0  0
  8  3  1  0  0  0  0
  9  3  1  0  0  0  0
 10  4  1  0  0  0  0
 11  4  1  0  0  0  0
 16 15  1  0  0  0  0
 17 16  2  0  0  0  0
 18 19  1  0  0  0  0
 18 16  1  0  0  0  0
 21 20  2  6  0  0  0
 21  1  1  0  0  0  0
 21 22  1  0  0  0  0
 22 23  1  0  0  0  0
 24 21  1  0  0  0  0
 25 24  1  0  0  0  0
 25 26  1  0  0  0  0
 25 30  1  0  0  0  0
 27 25  1  0  0  0  0
 28 34  1  0  0  0  0
 28 33  1  0  0  0  0
 29 28  2  0  0  0  0
 30 29  1  0  0  0  0
 30 31  2  0  0  0  0
 31 32  1  0  0  0  0
 32 33  2  0  0  0  0
 32 36  1  0  0  0  0
 35 29  1  0  0  0  0
M  END
>  <minimizedAffinity>
-4.88980722

$$$$

 OpenBabel03252509333D

 36 37  0  0  1  0  0  0  0  0999 V2000
   37.2400   29.0360   40.4760 O   0  0  0  0  0  0  0  0  0  0  0  0
   37.4780   28.7570   41.8240 C   0  0  1  0  0  0  0  0  0  0  0  0
   36.5770   27.6870   42.3780 C   0  0  0  0  0  0  0  0  0  0  0  0
   37.2600   27.3520   43.6790 C   0  0  0  0  0  0  0  0  0  0  0  0
   38.7300   27.6220   43.4390 C   0  0  0  0  0  0  0  0  0  0  0  0
   38.8360   28.0660   41.9820 C   0  0  2  0  0  0  0  0  0  0  0  0
   37.5080   29.6490   42.4550 H   0  0  0  0  0  0  0  0  0  0  0  0
   35.5380   28.0590   42.5030 H   0  0  0  0  0  0  0  0  0  0  0  0
   36.6380   26.7890   41.7280 H   0  0  0  0  0  0  0  0  0  0  0  0
   36.9190   28.1190   44.4240 H   0  0  0  0  0  0  0  0  0  0  0  0
   37.0710   26.3270   44.0250 H   0  0  0  0  0  0  0  0  0  0  0  0
   39.1430   28.3800   44.1290 H   0  0  0  0  0  0  0  0  0  0  0  0
   39.2440   26.6410   43.4940 H   0  0  0  0  0  0  0  0  0  0  0  0
   38.9740   27.2550   41.2760 H   0  0  0  0  0  0  0  0  0  0  0  0
   42.0360   29.4020   41.5720 H   0  0  0  0  0  0  0  0  0  0  0  0
   41.2400   28.6540   41.5800 C   0  0  0  0  0  0  0  0  0  0  0  0
   41.5560   27.4920   41.2480 O   0  0  0  0  0  0  0  0  0  0  0  0
   39.9080   29.0440   41.9640 N   0  0  0  0  0  0  0  0  0  0  0  0
   39.6590   30.0200   42.2400 H   0  0  0  0  0  0  0  0  0  0  0  0
   36.5280   30.9590   38.8940 O   0  0  0  0  0  0  0  0  0  0  0  0
   36.8470   30.6670   40.3220 P   0  0  1  0  0  0  0  0  0  0  0  0
   35.6170   31.1130   41.3700 O   0  0  0  0  0  0  0  0  0  0  0  0
   35.6160   30.5740   42.2040 H   0  0  0  0  0  0  0  0  0  0  0  0
   38.2080   31.5660   40.7910 O   0  0  0  0  0  0  0  0  0  0  0  0
   38.1900   32.7500   40.1120 C   0  0  0  0  0  0  0  0  0  0  0  0
   37.3410   32.9850   39.4890 H   0  0  0  0  0  0  0  0  0  0  0  0
   38.2080   33.5570   40.9020 H   0  0  0  0  0  0  0  0  0  0  0  0
   41.4250   34.1610   38.9460 C   0  0  0  0  0  0  0  0  0  0  0  0
   40.2680   33.9730   39.7130 C   0  0  0  0  0  0  0  0  0  0  0  0
   39.4070   32.9630   39.3230 C   0  0  0  0  0  0  0  0  0  0  0  0
   39.7230   32.2000   38.2160 N   0  0  0  0  0  0  0  0  0  0  0  0
   40.8540   32.4210   37.5080 C   0  0  0  0  0  0  0  0  0  0  0  0
   41.6900   33.3990   37.8830 N   0  0  0  0  0  0  0  0  0  0  0  0
   42.1390   34.9430   39.2060 H   0  0  0  0  0  0  0  0  0  0  0  0
   40.1060   34.6120   40.5530 H   0  0  0  0  0  0  0  0  0  0  0  0
   41.0350   31.7800   36.6480 H   0  0  0  0  0  0  0  0  0  0  0  0
  1  2  1  0  0  0  0
  2  6  1  0  0  0  0
  2  3  1  0  0  0  0
  2  7  1  1  0  0  0
  3  8  1  0  0  0  0
  3  4  1  0  0  0  0
  4 11  1  0  0  0  0
  4 10  1  0  0  0  0
  5 13  1  0  0  0  0
  5  4  1  0  0  0  0
  5 12  1  0  0  0  0
  6 14  1  6  0  0  0
  6  5  1  0  0  0  0
  9  3  1  0  0  0  0
 15 16  1  0  0  0  0
 16 18  1  0  0  0  0
 17 16  2  0  0  0  0
 18  6  1  0  0  0  0
 18 19  1  0  0  0  0
 21 20  2  6  0  0  0
 21  1  1  0  0  0  0
 21 24  1  0  0  0  0
 21 22  1  0  0  0  0
 22 23  1  0  0  0  0
 25 24  1  0  0  0  0
 25 27  1  0  0  0  0
 26 25  1  0  0  0  0
 28 34  1  0  0  0  0
 28 29  1  0  0  0  0
 29 35  1  0  0  0  0
 30 29  2  0  0  0  0
 30 25  1  0  0  0  0
 31 30  1  0  0  0  0
 32 33  1  0  0  0  0
 32 31  2  0  0  0  0
 33 28  2  0  0  0  0
 36 32  1  0  0  0  0
M  END
>  <minimizedAffinity>
-4.86074162

$$$$

 OpenBabel03252509333D

 36 37  0  0  1  0  0  0  0  0999 V2000
   37.1760   27.9110   39.9510 O   0  0  0  0  0  0  0  0  0  0  0  0
   36.7150   26.7490   40.5740 C   0  0  1  0  0  0  0  0  0  0  0  0
   37.1650   25.4880   39.8890 C   0  0  0  0  0  0  0  0  0  0  0  0
   36.8420   24.4420   40.9250 C   0  0  0  0  0  0  0  0  0  0  0  0
   36.9680   25.1480   42.2580 C   0  0  0  0  0  0  0  0  0  0  0  0
   37.4040   26.5740   41.9300 C   0  0  2  0  0  0  0  0  0  0  0  0
   35.6400   26.7590   40.7710 H   0  0  0  0  0  0  0  0  0  0  0  0
   36.6330   25.3390   38.9260 H   0  0  0  0  0  0  0  0  0  0  0  0
   38.2680   25.5120   39.7730 H   0  0  0  0  0  0  0  0  0  0  0  0
   35.7530   24.1990   40.8020 H   0  0  0  0  0  0  0  0  0  0  0  0
   37.4730   23.5470   40.8610 H   0  0  0  0  0  0  0  0  0  0  0  0
   36.0300   25.1310   42.8410 H   0  0  0  0  0  0  0  0  0  0  0  0
   37.8270   24.6820   42.7810 H   0  0  0  0  0  0  0  0  0  0  0  0
   38.4780   26.7100   41.8700 H   0  0  0  0  0  0  0  0  0  0  0  0
   36.9490   29.1750   44.2140 H   0  0  0  0  0  0  0  0  0  0  0  0
   37.4430   28.5620   43.4570 C   0  0  0  0  0  0  0  0  0  0  0  0
   38.5830   28.9220   43.0970 O   0  0  0  0  0  0  0  0  0  0  0  0
   36.7660   27.4040   42.9350 N   0  0  0  0  0  0  0  0  0  0  0  0
   35.8120   27.1140   43.2480 H   0  0  0  0  0  0  0  0  0  0  0  0
   35.0980   28.3710   38.4760 O   0  0  0  0  0  0  0  0  0  0  0  0
   35.8620   28.9160   39.6360 P   0  0  1  0  0  0  0  0  0  0  0  0
   34.9110   29.1430   40.9980 O   0  0  0  0  0  0  0  0  0  0  0  0
   35.4360   29.0900   41.8390 H   0  0  0  0  0  0  0  0  0  0  0  0
   36.4760   30.4480   39.2370 O   0  0  0  0  0  0  0  0  0  0  0  0
   36.5270   31.1960   40.3780 C   0  0  0  0  0  0  0  0  0  0  0  0
   35.6790   31.8110   40.6390 H   0  0  0  0  0  0  0  0  0  0  0  0
   36.6270   30.4560   41.2250 H   0  0  0  0  0  0  0  0  0  0  0  0
   38.8130   34.1110   40.0800 C   0  0  0  0  0  0  0  0  0  0  0  0
   37.6500   33.3340   40.0030 C   0  0  0  0  0  0  0  0  0  0  0  0
   37.7320   32.0270   40.4510 C   0  0  0  0  0  0  0  0  0  0  0  0
   38.9340   31.5590   40.9430 N   0  0  0  0  0  0  0  0  0  0  0  0
   40.0290   32.3500   40.9960 C   0  0  0  0  0  0  0  0  0  0  0  0
   39.9540   33.6170   40.5640 N   0  0  0  0  0  0  0  0  0  0  0  0
   38.8070   35.1480   39.7420 H   0  0  0  0  0  0  0  0  0  0  0  0
   36.7650   33.7810   39.6070 H   0  0  0  0  0  0  0  0  0  0  0  0
   40.9410   31.9110   41.3960 H   0  0  0  0  0  0  0  0  0  0  0  0
  1  2  1  0  0  0  0
  2  7  1  1  0  0  0
  2  6  1  0  0  0  0
  3  2  1  0  0  0  0
  3  4  1  0  0  0  0
  4  5  1  0  0  0  0
  5 13  1  0  0  0  0
  5 12  1  0  0  0  0
  6 14  1  6  0  0  0
  6  5  1  0  0  0  0
  6 18  1  0  0  0  0
  8  3  1  0  0  0  0
  9  3  1  0  0  0  0
 10  4  1  0  0  0  0
 11  4  1  0  0  0  0
 16 15  1  0  0  0  0
 17 16  2  0  0  0  0
 18 19  1  0  0  0  0
 18 16  1  0  0  0  0
 21 20  2  6  0  0  0
 21  1  1  0  0  0  0
 21 22  1  0  0  0  0
 22 23  1  0  0  0  0
 24 21  1  0  0  0  0
 24 25  1  0  0  0  0
 25 30  1  0  0  0  0
 25 26  1  0  0  0  0
 25 27  1  0  0  0  0
 28 33  1  0  0  0  0
 29 28  2  0  0  0  0
 29 30  1  0  0  0  0
 30 31  2  0  0  0  0
 31 32  1  0  0  0  0
 32 36  1  0  0  0  0
 33 32  2  0  0  0  0
 34 28  1  0  0  0  0
 35 29  1  0  0  0  0
M  END
>  <minimizedAffinity>
-4.84593058

$$$$

 OpenBabel03252509333D

 36 37  0  0  1  0  0  0  0  0999 V2000
   38.3240   28.8900   41.2830 O   0  0  0  0  0  0  0  0  0  0  0  0
   38.0630   30.2610   41.3340 C   0  0  1  0  0  0  0  0  0  0  0  0
   39.1890   31.1010   40.7960 C   0  0  0  0  0  0  0  0  0  0  0  0
   38.5260   32.4460   40.6470 C   0  0  0  0  0  0  0  0  0  0  0  0
   37.0680   32.1450   40.3710 C   0  0  0  0  0  0  0  0  0  0  0  0
   36.9630   30.6220   40.3330 C   0  0  2  0  0  0  0  0  0  0  0  0
   37.7160   30.6020   42.3130 H   0  0  0  0  0  0  0  0  0  0  0  0
   40.0560   31.1070   41.4900 H   0  0  0  0  0  0  0  0  0  0  0  0
   39.4540   30.7450   39.7790 H   0  0  0  0  0  0  0  0  0  0  0  0
   38.5590   32.9310   41.6580 H   0  0  0  0  0  0  0  0  0  0  0  0
   38.9790   33.0780   39.8720 H   0  0  0  0  0  0  0  0  0  0  0  0
   36.3920   32.5830   41.1260 H   0  0  0  0  0  0  0  0  0  0  0  0
   36.8660   32.4890   39.3370 H   0  0  0  0  0  0  0  0  0  0  0  0
   37.1330   30.1870   39.3540 H   0  0  0  0  0  0  0  0  0  0  0  0
   33.8980   29.0120   40.7920 H   0  0  0  0  0  0  0  0  0  0  0  0
   34.8810   29.2240   40.3660 C   0  0  0  0  0  0  0  0  0  0  0  0
   35.2650   28.4810   39.4380 O   0  0  0  0  0  0  0  0  0  0  0  0
   35.6540   30.3220   40.8850 N   0  0  0  0  0  0  0  0  0  0  0  0
   35.3190   30.9360   41.6610 H   0  0  0  0  0  0  0  0  0  0  0  0
   39.1290   27.7540   43.4660 O   0  0  0  0  0  0  0  0  0  0  0  0
   37.8940   28.2000   42.7580 P   0  0  1  0  0  0  0  0  0  0  0  0
   36.9510   29.2380   43.6800 O   0  0  0  0  0  0  0  0  0  0  0  0
   36.4010   29.8450   43.1200 H   0  0  0  0  0  0  0  0  0  0  0  0
   36.9160   26.8540   42.4270 O   0  0  0  0  0  0  0  0  0  0  0  0
   37.7280   25.7680   42.2630 C   0  0  0  0  0  0  0  0  0  0  0  0
   38.7960   25.9150   42.2140 H   0  0  0  0  0  0  0  0  0  0  0  0
   37.5610   25.1210   43.1740 H   0  0  0  0  0  0  0  0  0  0  0  0
   37.2630   22.8120   40.0590 C   0  0  0  0  0  0  0  0  0  0  0  0
   37.6520   23.5900   41.1570 C   0  0  0  0  0  0  0  0  0  0  0  0
   37.3290   24.9350   41.1240 C   0  0  0  0  0  0  0  0  0  0  0  0
   36.6510   25.4380   40.0320 N   0  0  0  0  0  0  0  0  0  0  0  0
   36.2970   24.6440   38.9960 C   0  0  0  0  0  0  0  0  0  0  0  0
   36.6080   23.3400   39.0240 N   0  0  0  0  0  0  0  0  0  0  0  0
   37.4900   21.7460   40.0310 H   0  0  0  0  0  0  0  0  0  0  0  0
   38.1730   23.1150   41.9580 H   0  0  0  0  0  0  0  0  0  0  0  0
   35.7660   25.1120   38.1700 H   0  0  0  0  0  0  0  0  0  0  0  0
  1  2  1  0  0  0  0
  1 21  1  0  0  0  0
  2  7  1  1  0  0  0
  3  2  1  0  0  0  0
  3  8  1  0  0  0  0
  4  3  1  0  0  0  0
  4 10  1  0  0  0  0
  5  4  1  0  0  0  0
  5 12  1  0  0  0  0
  6 14  1  6  0  0  0
  6  5  1  0  0  0  0
  6 18  1  0  0  0  0
  6  2  1  0  0  0  0
  9  3  1  0  0  0  0
 11  4  1  0  0  0  0
 13  5  1  0  0  0  0
 16 15  1  0  0  0  0
 16 18  1  0  0  0  0
 17 16  2  0  0  0  0
 18 19  1  0  0  0  0
 21 20  2  1  0  0  0
 21 22  1  0  0  0  0
 23 22  1  0  0  0  0
 24 21  1  0  0  0  0
 25 24  1  0  0  0  0
 25 27  1  0  0  0  0
 26 25  1  0  0  0  0
 28 29  1  0  0  0  0
 29 35  1  0  0  0  0
 30 29  2  0  0  0  0
 30 25  1  0  0  0  0
 31 30  1  0  0  0  0
 32 33  1  0  0  0  0
 32 31  2  0  0  0  0
 33 28  2  0  0  0  0
 34 28  1  0  0  0  0
 36 32  1  0  0  0  0
M  END
>  <minimizedAffinity>
-4.74486351

$$$$

 OpenBabel03252509333D

 36 37  0  0  1  0  0  0  0  0999 V2000
   37.5490   27.4350   40.9050 O   0  0  0  0  0  0  0  0  0  0  0  0
   37.5550   26.1830   41.5260 C   0  0  1  0  0  0  0  0  0  0  0  0
   37.3590   25.0420   40.5650 C   0  0  0  0  0  0  0  0  0  0  0  0
   37.7500   23.8570   41.4100 C   0  0  0  0  0  0  0  0  0  0  0  0
   38.7750   24.3860   42.3900 C   0  0  0  0  0  0  0  0  0  0  0  0
   38.9620   25.8590   42.0360 C   0  0  2  0  0  0  0  0  0  0  0  0
   36.8900   26.1220   42.3910 H   0  0  0  0  0  0  0  0  0  0  0  0
   36.3120   25.0000   40.1970 H   0  0  0  0  0  0  0  0  0  0  0  0
   38.1010   25.1270   39.7450 H   0  0  0  0  0  0  0  0  0  0  0  0
   36.8460   23.5880   42.0180 H   0  0  0  0  0  0  0  0  0  0  0  0
   38.1240   23.0040   40.8280 H   0  0  0  0  0  0  0  0  0  0  0  0
   38.4670   24.2540   43.4420 H   0  0  0  0  0  0  0  0  0  0  0  0
   39.7350   23.8900   42.1400 H   0  0  0  0  0  0  0  0  0  0  0  0
   39.7270   26.0460   41.2900 H   0  0  0  0  0  0  0  0  0  0  0  0
   40.3280   28.0930   44.3470 H   0  0  0  0  0  0  0  0  0  0  0  0
   40.1540   27.6050   43.3850 C   0  0  0  0  0  0  0  0  0  0  0  0
   40.8060   28.0340   42.4100 O   0  0  0  0  0  0  0  0  0  0  0  0
   39.2080   26.5230   43.3030 N   0  0  0  0  0  0  0  0  0  0  0  0
   38.6710   26.1740   44.1290 H   0  0  0  0  0  0  0  0  0  0  0  0
   35.4150   28.8990   41.0060 O   0  0  0  0  0  0  0  0  0  0  0  0
   36.5990   28.4860   41.8160 P   0  0  1  0  0  0  0  0  0  0  0  0
   36.1780   27.8220   43.2970 O   0  0  0  0  0  0  0  0  0  0  0  0
   36.8640   27.1900   43.6360 H   0  0  0  0  0  0  0  0  0  0  0  0
   37.5440   29.8510   42.1690 O   0  0  0  0  0  0  0  0  0  0  0  0
   38.3210   30.1240   41.0800 C   0  0  0  0  0  0  0  0  0  0  0  0
   39.3560   29.8190   41.0840 H   0  0  0  0  0  0  0  0  0  0  0  0
   37.8510   29.5630   40.2200 H   0  0  0  0  0  0  0  0  0  0  0  0
   37.1570   33.3090   39.5580 C   0  0  0  0  0  0  0  0  0  0  0  0
   37.1930   31.9560   39.9210 C   0  0  0  0  0  0  0  0  0  0  0  0
   38.2640   31.5370   40.6900 C   0  0  0  0  0  0  0  0  0  0  0  0
   39.2280   32.4530   41.0580 N   0  0  0  0  0  0  0  0  0  0  0  0
   39.1470   33.7500   40.6820 C   0  0  0  0  0  0  0  0  0  0  0  0
   38.1120   34.1610   39.9370 N   0  0  0  0  0  0  0  0  0  0  0  0
   36.3370   33.6960   38.9520 H   0  0  0  0  0  0  0  0  0  0  0  0
   36.4030   31.3200   39.5900 H   0  0  0  0  0  0  0  0  0  0  0  0
   39.9450   34.4130   41.0100 H   0  0  0  0  0  0  0  0  0  0  0  0
  1  2  1  0  0  0  0
  1 21  1  0  0  0  0
  2  6  1  0  0  0  0
  2  7  1  1  0  0  0
  3  4  1  0  0  0  0
  3  2  1  0  0  0  0
  4 10  1  0  0  0  0
  4  5  1  0  0  0  0
  5 12  1  0  0  0  0
  6 14  1  6  0  0  0
  6  5  1  0  0  0  0
  6 18  1  0  0  0  0
  8  3  1  0  0  0  0
  9  3  1  0  0  0  0
 11  4  1  0  0  0  0
 13  5  1  0  0  0  0
 16 15  1  0  0  0  0
 17 16  2  0  0  0  0
 18 16  1  0  0  0  0
 18 19  1  0  0  0  0
 21 20  2  6  0  0  0
 21 24  1  0  0  0  0
 21 22  1  0  0  0  0
 22 23  1  0  0  0  0
 25 26  1  0  0  0  0
 25 24  1  0  0  0  0
 27 25  1  0  0  0  0
 28 29  2  0  0  0  0
 28 33  1  0  0  0  0
 29 30  1  0  0  0  0
 30 31  2  0  0  0  0
 30 25  1  0  0  0  0
 32 36  1  0  0  0  0
 32 31  1  0  0  0  0
 33 32  2  0  0  0  0
 34 28  1  0  0  0  0
 35 29  1  0  0  0  0
M  END
>  <minimizedAffinity>
-4.74076128

$$$$

 OpenBabel03252509333D

 36 37  0  0  1  0  0  0  0  0999 V2000
   38.1210   30.2710   39.8900 O   0  0  0  0  0  0  0  0  0  0  0  0
   37.2050   29.2160   39.8650 C   0  0  1  0  0  0  0  0  0  0  0  0
   37.4150   28.2730   38.7120 C   0  0  0  0  0  0  0  0  0  0  0  0
   36.5630   27.0970   39.1170 C   0  0  0  0  0  0  0  0  0  0  0  0
   36.5710   27.1000   40.6310 C   0  0  0  0  0  0  0  0  0  0  0  0
   37.4710   28.2650   41.0360 C   0  0  2  0  0  0  0  0  0  0  0  0
   36.1650   29.5400   39.9590 H   0  0  0  0  0  0  0  0  0  0  0  0
   37.1070   28.7360   37.7510 H   0  0  0  0  0  0  0  0  0  0  0  0
   38.4710   27.9340   38.7080 H   0  0  0  0  0  0  0  0  0  0  0  0
   35.5120   27.3450   38.8090 H   0  0  0  0  0  0  0  0  0  0  0  0
   36.9010   26.1410   38.6960 H   0  0  0  0  0  0  0  0  0  0  0  0
   35.5590   27.1950   41.0630 H   0  0  0  0  0  0  0  0  0  0  0  0
   37.1060   26.1810   40.9450 H   0  0  0  0  0  0  0  0  0  0  0  0
   38.5200   28.0080   41.1310 H   0  0  0  0  0  0  0  0  0  0  0  0
   37.0110   28.8670   44.4450 H   0  0  0  0  0  0  0  0  0  0  0  0
   37.4650   28.4670   43.5350 C   0  0  0  0  0  0  0  0  0  0  0  0
   38.4760   27.7470   43.6790 O   0  0  0  0  0  0  0  0  0  0  0  0
   36.8840   28.7860   42.2570 N   0  0  0  0  0  0  0  0  0  0  0  0
   36.0380   29.3900   42.1520 H   0  0  0  0  0  0  0  0  0  0  0  0
   36.9710   32.3350   38.8310 O   0  0  0  0  0  0  0  0  0  0  0  0
   37.2850   31.7090   40.1480 P   0  0  1  0  0  0  0  0  0  0  0  0
   35.9240   31.4770   41.1020 O   0  0  0  0  0  0  0  0  0  0  0  0
   36.0350   30.7260   41.7410 H   0  0  0  0  0  0  0  0  0  0  0  0
   38.3030   32.7390   41.0340 O   0  0  0  0  0  0  0  0  0  0  0  0
   38.8700   33.6270   40.1650 C   0  0  0  0  0  0  0  0  0  0  0  0
   38.4930   33.6860   39.1550 H   0  0  0  0  0  0  0  0  0  0  0  0
   38.6880   34.6490   40.6090 H   0  0  0  0  0  0  0  0  0  0  0  0
   42.3920   34.0200   39.0430 C   0  0  0  0  0  0  0  0  0  0  0  0
   40.9990   34.1610   39.0900 C   0  0  0  0  0  0  0  0  0  0  0  0
   40.3290   33.4930   40.0990 C   0  0  0  0  0  0  0  0  0  0  0  0
   41.0510   32.7320   40.9970 N   0  0  0  0  0  0  0  0  0  0  0  0
   42.3960   32.6290   40.9090 C   0  0  0  0  0  0  0  0  0  0  0  0
   43.0490   33.2740   39.9330 N   0  0  0  0  0  0  0  0  0  0  0  0
   42.9720   34.5230   38.2690 H   0  0  0  0  0  0  0  0  0  0  0  0
   40.5250   34.7700   38.3520 H   0  0  0  0  0  0  0  0  0  0  0  0
   42.8960   32.0110   41.6530 H   0  0  0  0  0  0  0  0  0  0  0  0
  1 21  1  0  0  0  0
  2  1  1  0  0  0  0
  2  7  1  1  0  0  0
  2  6  1  0  0  0  0
  3  4  1  0  0  0  0
  3  2  1  0  0  0  0
  4  5  1  0  0  0  0
  5 13  1  0  0  0  0
  5  6  1  0  0  0  0
  5 12  1  0  0  0  0
  6 14  1  1  0  0  0
  6 18  1  0  0  0  0
  8  3  1  0  0  0  0
  9  3  1  0  0  0  0
 10  4  1  0  0  0  0
 11  4  1  0  0  0  0
 16 17  2  0  0  0  0
 16 15  1  0  0  0  0
 18 16  1  0  0  0  0
 19 18  1  0  0  0  0
 21 20  2  6  0  0  0
 21 24  1  0  0  0  0
 21 22  1  0  0  0  0
 22 23  1  0  0  0  0
 25 27  1  0  0  0  0
 25 24  1  0  0  0  0
 26 25  1  0  0  0  0
 28 29  2  0  0  0  0
 28 33  1  0  0  0  0
 29 30  1  0  0  0  0
 30 25  1  0  0  0  0
 30 31  2  0  0  0  0
 32 31  1  0  0  0  0
 32 36  1  0  0  0  0
 33 32  2  0  0  0  0
 34 28  1  0  0  0  0
 35 29  1  0  0  0  0
M  END
>  <minimizedAffinity>
-4.56291771

$$$$

 OpenBabel03252509333D

 36 37  0  0  1  0  0  0  0  0999 V2000
   38.7410   30.3000   40.3670 O   0  0  0  0  0  0  0  0  0  0  0  0
   37.3480   30.1820   40.3540 C   0  0  1  0  0  0  0  0  0  0  0  0
   36.8040   29.7090   39.0330 C   0  0  0  0  0  0  0  0  0  0  0  0
   35.3880   29.3450   39.3970 C   0  0  0  0  0  0  0  0  0  0  0  0
   35.4440   28.9200   40.8490 C   0  0  0  0  0  0  0  0  0  0  0  0
   36.9140   29.0190   41.2500 C   0  0  2  0  0  0  0  0  0  0  0  0
   36.8330   31.0710   40.7260 H   0  0  0  0  0  0  0  0  0  0  0  0
   36.8750   30.5020   38.2590 H   0  0  0  0  0  0  0  0  0  0  0  0
   37.3240   28.7730   38.7410 H   0  0  0  0  0  0  0  0  0  0  0  0
   34.7980   30.3000   39.3730 H   0  0  0  0  0  0  0  0  0  0  0  0
   34.9500   28.5740   38.7490 H   0  0  0  0  0  0  0  0  0  0  0  0
   34.7990   29.5370   41.4990 H   0  0  0  0  0  0  0  0  0  0  0  0
   35.1970   27.8390   40.8710 H   0  0  0  0  0  0  0  0  0  0  0  0
   37.4880   28.1180   41.0690 H   0  0  0  0  0  0  0  0  0  0  0  0
   37.4420   28.9060   44.7000 H   0  0  0  0  0  0  0  0  0  0  0  0
   37.4640   28.5820   43.6570 C   0  0  0  0  0  0  0  0  0  0  0  0
   37.9920   27.4740   43.4220 O   0  0  0  0  0  0  0  0  0  0  0  0
   36.8960   29.4300   42.6420 N   0  0  0  0  0  0  0  0  0  0  0  0
   36.4570   30.3540   42.8540 H   0  0  0  0  0  0  0  0  0  0  0  0
   37.9310   32.7520   40.5640 O   0  0  0  0  0  0  0  0  0  0  0  0
   39.1460   31.8980   40.7100 P   0  0  1  0  0  0  0  0  0  0  0  0
   39.8730   32.0470   42.2140 O   0  0  0  0  0  0  0  0  0  0  0  0
   40.3790   31.2330   42.4710 H   0  0  0  0  0  0  0  0  0  0  0  0
   40.3150   32.3810   39.5780 O   0  0  0  0  0  0  0  0  0  0  0  0
   39.8770   32.0240   38.3350 C   0  0  0  0  0  0  0  0  0  0  0  0
   38.8900   31.6010   38.2280 H   0  0  0  0  0  0  0  0  0  0  0  0
   39.8560   32.9790   37.7310 H   0  0  0  0  0  0  0  0  0  0  0  0
   42.8530   30.8750   36.4280 C   0  0  0  0  0  0  0  0  0  0  0  0
   41.9600   31.7260   37.0930 C   0  0  0  0  0  0  0  0  0  0  0  0
   40.8250   31.1510   37.6360 C   0  0  0  0  0  0  0  0  0  0  0  0
   40.6280   29.7910   37.4990 N   0  0  0  0  0  0  0  0  0  0  0  0
   41.5220   29.0130   36.8480 C   0  0  0  0  0  0  0  0  0  0  0  0
   42.6230   29.5650   36.3210 N   0  0  0  0  0  0  0  0  0  0  0  0
   43.7650   31.2730   35.9810 H   0  0  0  0  0  0  0  0  0  0  0  0
   42.1950   32.7660   37.1490 H   0  0  0  0  0  0  0  0  0  0  0  0
   41.2980   27.9500   36.7810 H   0  0  0  0  0  0  0  0  0  0  0  0
  1 21  1  0  0  0  0
  2  1  1  0  0  0  0
  2  7  1  1  0  0  0
  2  6  1  0  0  0  0
  3  4  1  0  0  0  0
  3  2  1  0  0  0  0
  4  5  1  0  0  0  0
  5 13  1  0  0  0  0
  5  6  1  0  0  0  0
  5 12  1  0  0  0  0
  6 14  1  6  0  0  0
  6 18  1  0  0  0  0
  8  3  1  0  0  0  0
  9  3  1  0  0  0  0
 10  4  1  0  0  0  0
 11  4  1  0  0  0  0
 16 15  1  0  0  0  0
 17 16  2  0  0  0  0
 18 19  1  0  0  0  0
 18 16  1  0  0  0  0
 21 20  2  6  0  0  0
 21 22  1  0  0  0  0
 22 23  1  0  0  0  0
 24 21  1  0  0  0  0
 25 24  1  0  0  0  0
 26 25  1  0  0  0  0
 27 25  1  0  0  0  0
 28 29  1  0  0  0  0
 29 35  1  0  0  0  0
 29 30  2  0  0  0  0
 30 25  1  0  0  0  0
 31 30  1  0  0  0  0
 32 31  2  0  0  0  0
 33 28  2  0  0  0  0
 33 32  1  0  0  0  0
 34 28  1  0  0  0  0
 36 32  1  0  0  0  0
M  END
>  <minimizedAffinity>
-4.53328896

$$$$
