
 OpenBabel03252509333D

 36 37  0  0  1  0  0  0  0  0999 V2000
   45.9590   34.8810   43.0490 O   0  0  0  0  0  0  0  0  0  0  0  0
   46.1720   34.0150   41.9730 C   0  0  1  0  0  0  0  0  0  0  0  0
   45.3200   34.3330   40.7760 C   0  0  0  0  0  0  0  0  0  0  0  0
   45.9820   33.5110   39.6990 C   0  0  0  0  0  0  0  0  0  0  0  0
   47.4400   33.4300   40.0980 C   0  0  0  0  0  0  0  0  0  0  0  0
   47.5630   34.2530   41.3790 C   0  0  2  0  0  0  0  0  0  0  0  0
   46.1300   32.9590   42.2500 H   0  0  0  0  0  0  0  0  0  0  0  0
   44.2570   34.0620   40.9520 H   0  0  0  0  0  0  0  0  0  0  0  0
   45.4530   35.4020   40.5090 H   0  0  0  0  0  0  0  0  0  0  0  0
   45.5730   32.4710   39.7970 H   0  0  0  0  0  0  0  0  0  0  0  0
   45.8430   33.9150   38.6880 H   0  0  0  0  0  0  0  0  0  0  0  0
   47.7850   32.3920   40.2440 H   0  0  0  0  0  0  0  0  0  0  0  0
   48.0090   33.9860   39.3260 H   0  0  0  0  0  0  0  0  0  0  0  0
   47.7700   35.3050   41.2160 H   0  0  0  0  0  0  0  0  0  0  0  0
   50.4640   33.7730   43.2630 H   0  0  0  0  0  0  0  0  0  0  0  0
   49.7100   34.2990   42.6710 C   0  0  0  0  0  0  0  0  0  0  0  0
   49.8980   35.5190   42.4770 O   0  0  0  0  0  0  0  0  0  0  0  0
   48.5760   33.5740   42.1660 N   0  0  0  0  0  0  0  0  0  0  0  0
   48.4310   32.5520   42.3370 H   0  0  0  0  0  0  0  0  0  0  0  0
   44.8650   34.8690   45.3960 O   0  0  0  0  0  0  0  0  0  0  0  0
   45.5160   33.9730   44.3960 P   0  0  1  0  0  0  0  0  0  0  0  0
   44.5610   32.6590   43.9770 O   0  0  0  0  0  0  0  0  0  0  0  0
   44.7650   32.3190   43.0670 H   0  0  0  0  0  0  0  0  0  0  0  0
   46.9350   33.3230   45.0620 O   0  0  0  0  0  0  0  0  0  0  0  0
   46.7680   31.9730   45.1870 C   0  0  0  0  0  0  0  0  0  0  0  0
   46.1010   31.4630   44.5080 H   0  0  0  0  0  0  0  0  0  0  0  0
   47.7850   31.5190   44.9990 H   0  0  0  0  0  0  0  0  0  0  0  0
   46.6660   31.8620   48.9000 C   0  0  0  0  0  0  0  0  0  0  0  0
   47.0120   32.2570   47.6010 C   0  0  0  0  0  0  0  0  0  0  0  0
   46.4180   31.5750   46.5540 C   0  0  0  0  0  0  0  0  0  0  0  0
   45.5300   30.5560   46.8320 N   0  0  0  0  0  0  0  0  0  0  0  0
   45.2290   30.2130   48.1050 C   0  0  0  0  0  0  0  0  0  0  0  0
   45.8010   30.8710   49.1220 N   0  0  0  0  0  0  0  0  0  0  0  0
   47.1020   32.3640   49.7640 H   0  0  0  0  0  0  0  0  0  0  0  0
   47.7090   33.0570   47.4820 H   0  0  0  0  0  0  0  0  0  0  0  0
   44.5200   29.3990   48.2450 H   0  0  0  0  0  0  0  0  0  0  0  0
  1 21  1  0  0  0  0
  2  7  1  1  0  0  0
  2  1  1  0  0  0  0
  3  8  1  0  0  0  0
  3  2  1  0  0  0  0
  4 10  1  0  0  0  0
  4  5  1  0  0  0  0
  4  3  1  0  0  0  0
  5 12  1  0  0  0  0
  5  6  1  0  0  0  0
  6 14  1  6  0  0  0
  6  2  1  0  0  0  0
  6 18  1  0  0  0  0
  9  3  1  0  0  0  0
 11  4  1  0  0  0  0
 13  5  1  0  0  0  0
 16 15  1  0  0  0  0
 17 16  2  0  0  0  0
 18 19  1  0  0  0  0
 18 16  1  0  0  0  0
 21 24  1  0  0  0  0
 21 20  2  1  0  0  0
 22 21  1  0  0  0  0
 23 22  1  0  0  0  0
 24 25  1  0  0  0  0
 25 30  1  0  0  0  0
 26 25  1  0  0  0  0
 27 25  1  0  0  0  0
 28 33  1  0  0  0  0
 28 34  1  0  0  0  0
 29 28  2  0  0  0  0
 30 31  2  0  0  0  0
 30 29  1  0  0  0  0
 31 32  1  0  0  0  0
 32 36  1  0  0  0  0
 32 33  2  0  0  0  0
 35 29  1  0  0  0  0
M  END
>  <minimizedAffinity>
-4.71831656

>  <minimizedRMSD>
1.28368664

$$$$
