
 OpenBabel03242514533D

 40 42  0  0  1  0  0  0  0  0999 V2000
   45.5580   34.0910   42.3380 N   0  0  0  0  0  0  0  0  0  0  0  0
   46.0100   34.6220   43.6110 C   0  0  0  0  0  0  0  0  0  0  0  0
   44.8690   35.0420   44.5030 C   0  0  0  0  0  0  0  0  0  0  0  0
   43.9180   35.8300   43.8520 N   0  0  0  0  0  0  0  0  0  0  0  0
   43.6540   35.5700   42.4860 C   0  0  0  0  0  0  0  0  0  0  0  0
   44.1600   34.1620   42.1310 C   0  0  1  0  0  0  0  0  0  0  0  0
   46.7700   35.4180   43.5080 H   0  0  0  0  0  0  0  0  0  0  0  0
   46.5240   33.7710   44.1270 H   0  0  0  0  0  0  0  0  0  0  0  0
   44.4010   34.1500   44.9930 H   0  0  0  0  0  0  0  0  0  0  0  0
   45.3260   35.6230   45.3420 H   0  0  0  0  0  0  0  0  0  0  0  0
   42.9920   35.7500   44.3660 H   0  0  0  0  0  0  0  0  0  0  0  0
   42.6400   35.7490   42.1280 H   0  0  0  0  0  0  0  0  0  0  0  0
   44.3210   36.2620   41.8940 H   0  0  0  0  0  0  0  0  0  0  0  0
   43.7370   33.5770   43.0080 H   0  0  0  0  0  0  0  0  0  0  0  0
   43.4950   33.6000   41.0340 N   0  0  2  0  0  0  0  0  0  0  0  0
   43.6370   34.2000   39.7400 C   0  0  0  0  0  0  0  0  0  0  0  0
   42.6470   33.3860   38.9390 C   0  0  0  0  0  0  0  0  0  0  0  0
   41.4360   33.4990   39.8600 C   0  0  0  0  0  0  0  0  0  0  0  0
   42.0800   33.3580   41.2130 C   0  0  1  0  0  0  0  0  0  0  0  0
   44.6690   34.0220   39.3880 H   0  0  0  0  0  0  0  0  0  0  0  0
   43.3220   35.2520   39.6720 H   0  0  0  0  0  0  0  0  0  0  0  0
   42.4480   33.8790   37.9730 H   0  0  0  0  0  0  0  0  0  0  0  0
   42.9600   32.3420   38.7860 H   0  0  0  0  0  0  0  0  0  0  0  0
   40.9100   34.4390   39.7080 H   0  0  0  0  0  0  0  0  0  0  0  0
   40.7610   32.6220   39.7350 H   0  0  0  0  0  0  0  0  0  0  0  0
   41.6610   34.1870   41.8440 H   0  0  0  0  0  0  0  0  0  0  0  0
   40.4320   30.6270   42.7210 H   0  0  0  0  0  0  0  0  0  0  0  0
   40.5160   31.5910   42.2420 C   0  0  0  0  0  0  0  0  0  0  0  0
   39.4890   32.2910   42.0120 O   0  0  0  0  0  0  0  0  0  0  0  0
   41.7610   32.1220   41.8490 N   0  0  0  0  0  0  0  0  0  0  0  0
   42.6710   31.5960   42.0070 H   0  0  0  0  0  0  0  0  0  0  0  0
   47.3100   34.5090   40.7850 C   0  0  0  0  0  0  0  0  0  0  0  0
   46.5440   33.5840   41.4860 C   0  0  0  0  0  0  0  0  0  0  0  0
   46.8230   32.2480   41.2780 C   0  0  0  0  0  0  0  0  0  0  0  0
   47.8040   31.8690   40.4270 N   0  0  0  0  0  0  0  0  0  0  0  0
   48.5290   32.8080   39.7620 C   0  0  0  0  0  0  0  0  0  0  0  0
   48.2790   34.1140   39.9450 N   0  0  0  0  0  0  0  0  0  0  0  0
   47.1920   35.5810   40.8590 H   0  0  0  0  0  0  0  0  0  0  0  0
   46.2030   31.5600   41.8440 H   0  0  0  0  0  0  0  0  0  0  0  0
   49.3160   32.5280   39.0780 H   0  0  0  0  0  0  0  0  0  0  0  0
  1  2  1  0  0  0  0
  2  8  1  0  0  0  0
  2  3  1  0  0  0  0
  3  9  1  0  0  0  0
  3 10  1  0  0  0  0
  4 11  1  0  0  0  0
  4  3  1  0  0  0  0
  5  4  1  0  0  0  0
  6  1  1  0  0  0  0
  6  5  1  0  0  0  0
  6 14  1  1  0  0  0
  7  2  1  0  0  0  0
 12  5  1  0  0  0  0
 13  5  1  0  0  0  0
 15 16  1  6  0  0  0
 15 19  1  0  0  0  0
 15  6  1  0  0  0  0
 17 16  1  0  0  0  0
 17 18  1  0  0  0  0
 18 19  1  0  0  0  0
 19 26  1  1  0  0  0
 19 30  1  0  0  0  0
 20 16  1  0  0  0  0
 21 16  1  0  0  0  0
 22 17  1  0  0  0  0
 23 17  1  0  0  0  0
 24 18  1  0  0  0  0
 25 18  1  0  0  0  0
 28 27  1  0  0  0  0
 29 28  2  0  0  0  0
 30 31  1  0  0  0  0
 30 28  1  0  0  0  0
 32 38  1  0  0  0  0
 32 33  1  0  0  0  0
 33  1  1  0  0  0  0
 34 33  2  0  0  0  0
 34 39  1  0  0  0  0
 35 34  1  0  0  0  0
 36 37  1  0  0  0  0
 36 35  2  0  0  0  0
 37 32  2  0  0  0  0
 40 36  1  0  0  0  0
M  END
>  <minimizedAffinity>
-4.751194

>  <minimizedRMSD>
5.58493471

$$$$
