
 OpenBabel03252507373D

 34 37  0  0  0  0  0  0  0  0999 V2000
   45.4930   34.8460   43.5190 C   0  0  0  0  0  0  0  0  0  0  0  0
   46.2040   33.7590   44.0900 C   0  0  0  0  0  0  0  0  0  0  0  0
   46.0180   33.5290   45.4520 C   0  0  0  0  0  0  0  0  0  0  0  0
   45.1900   34.3330   46.1470 N   0  0  0  0  0  0  0  0  0  0  0  0
   44.5200   35.3690   45.5740 C   0  0  0  0  0  0  0  0  0  0  0  0
   44.6760   35.6120   44.2820 N   0  0  0  0  0  0  0  0  0  0  0  0
   46.8570   33.1250   43.5460 H   0  0  0  0  0  0  0  0  0  0  0  0
   43.8720   35.9730   46.1910 H   0  0  0  0  0  0  0  0  0  0  0  0
   46.9970   32.6920   47.5180 C   0  0  0  0  0  0  0  0  0  0  0  0
   46.6780   32.4510   46.1840 C   0  0  0  0  0  0  0  0  0  0  0  0
   46.9980   31.2360   45.6510 C   0  0  0  0  0  0  0  0  0  0  0  0
   47.6210   30.2520   46.3870 C   0  0  0  0  0  0  0  0  0  0  0  0
   48.0230   28.9920   46.0620 N   0  0  0  0  0  0  0  0  0  0  0  0
   48.5950   28.4450   47.1990 C   0  0  0  0  0  0  0  0  0  0  0  0
   48.5290   29.3690   48.1730 N   0  0  0  0  0  0  0  0  0  0  0  0
   47.9390   30.4720   47.6920 C   0  0  0  0  0  0  0  0  0  0  0  0
   47.6270   31.6950   48.2620 C   0  0  0  0  0  0  0  0  0  0  0  0
   46.8030   33.6050   48.0660 H   0  0  0  0  0  0  0  0  0  0  0  0
   46.7370   31.0870   44.6190 H   0  0  0  0  0  0  0  0  0  0  0  0
   47.8920   28.5790   45.1130 H   0  0  0  0  0  0  0  0  0  0  0  0
   48.9880   27.4380   47.1730 H   0  0  0  0  0  0  0  0  0  0  0  0
   47.8960   31.8320   49.3020 H   0  0  0  0  0  0  0  0  0  0  0  0
   45.6700   35.0850   42.1610 O   0  0  0  0  0  0  0  0  0  0  0  0
   44.6040   34.8910   41.2810 C   0  0  0  0  0  0  0  0  0  0  0  0
   45.0910   33.8940   40.5190 C   0  0  0  0  0  0  0  0  0  0  0  0
   43.6510   33.5950   39.3000 S   0  0  0  0  0  0  0  0  0  0  0  0
   42.6770   34.9710   40.1580 C   0  0  0  0  0  0  0  0  0  0  0  0
   43.3900   35.2790   40.9320 N   0  0  0  0  0  0  0  0  0  0  0  0
   45.8470   33.0490   40.0900 H   0  0  0  0  0  0  0  0  0  0  0  0
   39.2770   35.4130   40.8670 H   0  0  0  0  0  0  0  0  0  0  0  0
   40.3290   35.1730   40.7890 C   0  0  0  0  0  0  0  0  0  0  0  0
   40.0750   34.4990   41.8230 O   0  0  0  0  0  0  0  0  0  0  0  0
   41.3700   35.5110   39.9180 N   0  0  0  0  0  0  0  0  0  0  0  0
   41.0390   36.1370   39.1800 H   0  0  0  0  0  0  0  0  0  0  0  0
  1  2  2  0  0  0  0
  1  6  1  0  0  0  0
  2  3  1  0  0  0  0
  3  4  2  0  0  0  0
  3 10  1  0  0  0  0
  5  4  1  0  0  0  0
  5  8  1  0  0  0  0
  6  5  2  0  0  0  0
  7  2  1  0  0  0  0
  9 18  1  0  0  0  0
  9 17  1  0  0  0  0
 10  9  2  0  0  0  0
 11 10  1  0  0  0  0
 11 12  2  0  0  0  0
 12 16  1  0  0  0  0
 13 12  1  0  0  0  0
 13 14  1  0  0  0  0
 14 15  2  0  0  0  0
 16 15  1  0  0  0  0
 16 17  2  0  0  0  0
 17 22  1  0  0  0  0
 19 11  1  0  0  0  0
 20 13  1  0  0  0  0
 21 14  1  0  0  0  0
 23  1  1  0  0  0  0
 24 23  1  0  0  0  0
 25 24  2  0  0  0  0
 26 27  1  0  0  0  0
 26 25  1  0  0  0  0
 27 28  2  0  0  0  0
 28 24  1  0  0  0  0
 29 25  1  0  0  0  0
 31 30  1  0  0  0  0
 31 32  2  0  0  0  0
 33 27  1  0  0  0  0
 33 31  1  0  0  0  0
 34 33  1  0  0  0  0
M  END
>  <minimizedAffinity>
-6.11987495

>  <minimizedRMSD>
0.151158035

$$$$
