
 OpenBabel03242520403D

 35 37  0  0  1  0  0  0  0  0999 V2000
   45.9740   33.5110   45.8700 C   0  0  0  0  0  0  0  0  0  0  0  0
   46.7160   33.6210   44.6860 C   0  0  0  0  0  0  0  0  0  0  0  0
   47.3110   32.4370   44.1570 C   0  0  0  0  0  0  0  0  0  0  0  0
   47.1320   31.2550   44.8220 N   0  0  0  0  0  0  0  0  0  0  0  0
   46.4090   31.2100   45.9570 C   0  0  0  0  0  0  0  0  0  0  0  0
   45.8380   32.3270   46.4710 N   0  0  0  0  0  0  0  0  0  0  0  0
   46.2780   29.9600   46.5760 N   0  0  0  0  0  0  0  0  0  0  0  0
   47.4290   29.2400   47.0080 C   0  0  2  0  0  0  0  0  0  0  0  0
   47.1770   27.8240   47.3910 C   0  0  0  0  0  0  0  0  0  0  0  0
   45.9030   27.5250   47.9320 N   0  0  0  0  0  0  0  0  0  0  0  0
   45.0390   28.6400   48.0800 C   0  0  0  0  0  0  0  0  0  0  0  0
   44.9650   29.3900   46.7830 C   0  0  0  0  0  0  0  0  0  0  0  0
   45.5480   34.4420   46.2210 H   0  0  0  0  0  0  0  0  0  0  0  0
   46.9070   34.5070   44.0990 H   0  0  0  0  0  0  0  0  0  0  0  0
   47.9000   32.4250   43.2490 H   0  0  0  0  0  0  0  0  0  0  0  0
   48.0940   29.1710   46.0930 H   0  0  0  0  0  0  0  0  0  0  0  0
   47.3300   27.1350   46.5340 H   0  0  0  0  0  0  0  0  0  0  0  0
   48.0000   27.5300   48.1030 H   0  0  0  0  0  0  0  0  0  0  0  0
   46.0120   27.0300   48.8610 H   0  0  0  0  0  0  0  0  0  0  0  0
   45.2190   29.3100   48.9170 H   0  0  0  0  0  0  0  0  0  0  0  0
   43.9990   28.2310   48.2510 H   0  0  0  0  0  0  0  0  0  0  0  0
   44.2790   30.2650   46.9670 H   0  0  0  0  0  0  0  0  0  0  0  0
   44.6040   28.7680   45.9530 H   0  0  0  0  0  0  0  0  0  0  0  0
   48.2040   29.9910   48.0310 C   0  0  0  0  0  0  0  0  0  0  0  0
   47.8250   30.8070   49.0720 C   0  0  0  0  0  0  0  0  0  0  0  0
   48.8800   31.2710   49.7520 N   0  0  0  0  0  0  0  0  0  0  0  0
   49.9520   30.7420   49.1380 C   0  0  0  0  0  0  0  0  0  0  0  0
   49.5450   29.9840   48.1190 N   0  0  0  0  0  0  0  0  0  0  0  0
   46.8000   31.0500   49.3100 H   0  0  0  0  0  0  0  0  0  0  0  0
   48.8220   31.9150   50.5900 H   0  0  0  0  0  0  0  0  0  0  0  0
   52.6820   32.5550   50.3650 H   0  0  0  0  0  0  0  0  0  0  0  0
   51.6840   32.3640   49.9960 C   0  0  0  0  0  0  0  0  0  0  0  0
   50.8570   33.3030   49.8760 O   0  0  0  0  0  0  0  0  0  0  0  0
   51.2680   31.0490   49.6330 N   0  0  0  0  0  0  0  0  0  0  0  0
   51.9400   30.2540   49.7270 H   0  0  0  0  0  0  0  0  0  0  0  0
  1 13  1  0  0  0  0
  1  6  1  0  0  0  0
  2  1  2  0  0  0  0
  3  2  1  0  0  0  0
  3  4  2  0  0  0  0
  4  5  1  0  0  0  0
  5  6  2  0  0  0  0
  5  7  1  0  0  0  0
  7 12  1  0  0  0  0
  7  8  1  0  0  0  0
  8 16  1  6  0  0  0
  8  9  1  0  0  0  0
  8 24  1  0  0  0  0
  9 10  1  0  0  0  0
  9 18  1  0  0  0  0
 10 11  1  0  0  0  0
 10 19  1  0  0  0  0
 11 21  1  0  0  0  0
 11 20  1  0  0  0  0
 12 22  1  0  0  0  0
 12 11  1  0  0  0  0
 14  2  1  0  0  0  0
 15  3  1  0  0  0  0
 17  9  1  0  0  0  0
 23 12  1  0  0  0  0
 24 28  1  0  0  0  0
 24 25  2  0  0  0  0
 25 29  1  0  0  0  0
 25 26  1  0  0  0  0
 26 30  1  0  0  0  0
 27 34  1  0  0  0  0
 27 26  1  0  0  0  0
 28 27  2  0  0  0  0
 32 31  1  0  0  0  0
 33 32  2  0  0  0  0
 34 35  1  0  0  0  0
 34 32  1  0  0  0  0
M  END
>  <minimizedAffinity>
-4.9071064

>  <minimizedRMSD>
0.0387724228

$$$$
