
 OpenBabel03252509323D

 36 37  0  0  1  0  0  0  0  0999 V2000
   46.1370   35.1470   43.3290 O   0  0  0  0  0  0  0  0  0  0  0  0
   46.8080   34.4720   42.3060 C   0  0  1  0  0  0  0  0  0  0  0  0
   46.0350   34.4260   41.0170 C   0  0  0  0  0  0  0  0  0  0  0  0
   47.0910   33.9790   40.0390 C   0  0  0  0  0  0  0  0  0  0  0  0
   48.3970   34.5100   40.5920 C   0  0  0  0  0  0  0  0  0  0  0  0
   48.0260   35.2830   41.8550 C   0  0  2  0  0  0  0  0  0  0  0  0
   47.1830   33.4900   42.6060 H   0  0  0  0  0  0  0  0  0  0  0  0
   45.1720   33.7310   41.0880 H   0  0  0  0  0  0  0  0  0  0  0  0
   45.7360   35.4570   40.7360 H   0  0  0  0  0  0  0  0  0  0  0  0
   47.1490   32.8610   40.1220 H   0  0  0  0  0  0  0  0  0  0  0  0
   46.9060   34.3070   39.0080 H   0  0  0  0  0  0  0  0  0  0  0  0
   49.1280   33.7100   40.8020 H   0  0  0  0  0  0  0  0  0  0  0  0
   48.7600   35.2680   39.8690 H   0  0  0  0  0  0  0  0  0  0  0  0
   47.7890   36.3280   41.6870 H   0  0  0  0  0  0  0  0  0  0  0  0
   50.7790   33.7480   43.3580 H   0  0  0  0  0  0  0  0  0  0  0  0
   49.9450   33.8870   42.6660 C   0  0  0  0  0  0  0  0  0  0  0  0
   49.7520   32.9840   41.8250 O   0  0  0  0  0  0  0  0  0  0  0  0
   49.1390   35.0760   42.7640 N   0  0  0  0  0  0  0  0  0  0  0  0
   49.3120   35.8240   43.4730 H   0  0  0  0  0  0  0  0  0  0  0  0
   44.9220   34.7380   45.5790 O   0  0  0  0  0  0  0  0  0  0  0  0
   45.5920   34.0200   44.4560 P   0  0  1  0  0  0  0  0  0  0  0  0
   44.6130   32.8550   43.7490 O   0  0  0  0  0  0  0  0  0  0  0  0
   44.8530   32.6860   42.8010 H   0  0  0  0  0  0  0  0  0  0  0  0
   46.9500   33.1910   45.0460 O   0  0  0  0  0  0  0  0  0  0  0  0
   46.6110   31.8770   45.2040 C   0  0  0  0  0  0  0  0  0  0  0  0
   45.8680   31.4460   44.5510 H   0  0  0  0  0  0  0  0  0  0  0  0
   47.5560   31.2920   45.0040 H   0  0  0  0  0  0  0  0  0  0  0  0
   46.4040   32.0190   48.9120 C   0  0  0  0  0  0  0  0  0  0  0  0
   46.7640   32.3450   47.5980 C   0  0  0  0  0  0  0  0  0  0  0  0
   46.2460   31.5540   46.5870 C   0  0  0  0  0  0  0  0  0  0  0  0
   45.4150   30.5020   46.9140 N   0  0  0  0  0  0  0  0  0  0  0  0
   45.0980   30.2290   48.2000 C   0  0  0  0  0  0  0  0  0  0  0  0
   45.5970   30.9920   49.1830 N   0  0  0  0  0  0  0  0  0  0  0  0
   46.7820   32.6070   49.7490 H   0  0  0  0  0  0  0  0  0  0  0  0
   47.4130   33.1770   47.4400 H   0  0  0  0  0  0  0  0  0  0  0  0
   44.4370   29.3830   48.3800 H   0  0  0  0  0  0  0  0  0  0  0  0
  1 21  1  0  0  0  0
  2  7  1  1  0  0  0
  2  1  1  0  0  0  0
  3  8  1  0  0  0  0
  3  2  1  0  0  0  0
  4 10  1  0  0  0  0
  4  5  1  0  0  0  0
  4  3  1  0  0  0  0
  5 12  1  0  0  0  0
  5  6  1  0  0  0  0
  6 14  1  6  0  0  0
  6  2  1  0  0  0  0
  6 18  1  0  0  0  0
  9  3  1  0  0  0  0
 11  4  1  0  0  0  0
 13  5  1  0  0  0  0
 16 18  1  0  0  0  0
 16 15  1  0  0  0  0
 17 16  2  0  0  0  0
 18 19  1  0  0  0  0
 21 24  1  0  0  0  0
 21 20  2  1  0  0  0
 22 21  1  0  0  0  0
 23 22  1  0  0  0  0
 24 25  1  0  0  0  0
 25 30  1  0  0  0  0
 26 25  1  0  0  0  0
 27 25  1  0  0  0  0
 28 33  1  0  0  0  0
 28 34  1  0  0  0  0
 29 28  2  0  0  0  0
 30 31  2  0  0  0  0
 30 29  1  0  0  0  0
 31 32  1  0  0  0  0
 32 36  1  0  0  0  0
 32 33  2  0  0  0  0
 35 29  1  0  0  0  0
M  END
>  <minimizedAffinity>
-5.21695614

>  <minimizedRMSD>
0.918127775

$$$$
