REMARK  Name = 
REMARK  3 active torsions:
REMARK  status: ('A' for Active; 'I' for Inactive)
REMARK    1  A    between atoms: C_1  and  C_7
REMARK    2  A    between atoms: C_6  and  N_19
REMARK    3  A    between atoms: C_11  and  C_13
REMARK                            x       y       z     vdW  Elec       q    Type
REMARK                         _______ _______ _______ _____ _____    ______ ____
ROOT
ATOM      1  C   UNL     1      47.558  31.967  46.413  0.00  0.00    +0.000 C 
ATOM      2  C   UNL     1      47.300  30.501  45.960  0.00  0.00    +0.000 C 
ATOM      3  C   UNL     1      48.107  29.569  46.799  0.00  0.00    +0.000 C 
ATOM      4  C   UNL     1      48.120  29.851  48.261  0.00  0.00    +0.000 C 
ATOM      5  C   UNL     1      48.123  31.248  48.608  0.00  0.00    +0.000 C 
ATOM      6  C   UNL     1      47.127  32.101  47.791  0.00  0.00    +0.000 C 
ATOM      7  H   UNL     1      48.652  32.058  46.296  0.00  0.00    +0.000 HD
ATOM      8  H   UNL     1      47.644  30.484  44.906  0.00  0.00    +0.000 HD
ATOM      9  H   UNL     1      46.242  30.248  45.963  0.00  0.00    +0.000 HD
ATOM     10  H   UNL     1      49.088  29.474  46.296  0.00  0.00    +0.000 HD
ATOM     11  H   UNL     1      47.634  28.552  46.676  0.00  0.00    +0.000 HD
ATOM     12  H   UNL     1      49.234  29.603  48.483  0.00  0.00    +0.000 HD
ATOM     13  H   UNL     1      47.756  29.073  48.939  0.00  0.00    +0.000 HD
ATOM     14  H   UNL     1      49.079  31.824  48.554  0.00  0.00    +0.000 HD
ATOM     15  H   UNL     1      47.790  31.381  49.676  0.00  0.00    +0.000 HD
ATOM     16  H   UNL     1      47.236  33.070  48.281  0.00  0.00    +0.000 HD
ENDROOT
BRANCH   1  17
ATOM     17  C   UNL     1      46.912  32.916  45.528  0.00  0.00    +0.000 A 
ATOM     18  C   UNL     1      45.804  33.596  46.020  0.00  0.00    +0.000 A 
ATOM     19  C   UNL     1      45.127  34.515  45.184  0.00  0.00    +0.000 A 
ATOM     20  N   UNL     1      45.636  34.676  43.897  0.00  0.00    +0.000 NA
ATOM     21  C   UNL     1      46.710  33.990  43.489  0.00  0.00    +0.000 A 
ATOM     22  N   UNL     1      47.334  33.128  44.287  0.00  0.00    +0.000 NA
ATOM     23  H   UNL     1      45.282  33.653  46.949  0.00  0.00    +0.000 HD
ATOM     24  H   UNL     1      44.277  35.113  45.381  0.00  0.00    +0.000 HD
BRANCH  21  25
ATOM     25  C   UNL     1      47.203  34.224  42.128  0.00  0.00    +0.000 A 
ATOM     26  C   UNL     1      48.192  35.149  41.880  0.00  0.00    +0.000 A 
ATOM     27  C   UNL     1      48.720  35.443  40.648  0.00  0.00    +0.000 A 
ATOM     28  C   UNL     1      48.172  34.717  39.622  0.00  0.00    +0.000 A 
ATOM     29  C   UNL     1      47.168  33.770  39.834  0.00  0.00    +0.000 A 
ATOM     30  N   UNL     1      46.689  33.531  41.099  0.00  0.00    +0.000 NA
ATOM     31  H   UNL     1      48.570  35.682  42.763  0.00  0.00    +0.000 HD
ATOM     32  H   UNL     1      49.486  36.161  40.464  0.00  0.00    +0.000 HD
ATOM     33  H   UNL     1      48.500  34.852  38.599  0.00  0.00    +0.000 HD
ATOM     34  H   UNL     1      47.584  32.419  36.761  0.00  0.00    +0.000 HD
ATOM     35  C   UNL     1      47.683  32.925  37.733  0.00  0.00    +0.000 C 
ATOM     36  O   UNL     1      48.825  33.420  37.952  0.00  0.00    +0.000 OA
ATOM     37  N   UNL     1      46.643  33.052  38.724  0.00  0.00    +0.000 N 
ATOM     38  H   UNL     1      45.734  32.632  38.494  0.00  0.00    +0.000 HD
ENDBRANCH  21  25
ENDBRANCH   1  17
BRANCH   6  39
ATOM     39  N   UNL     1      45.787  31.532  47.953  0.00  0.00    +0.000 N 
ATOM     40  C   UNL     1      45.189  30.845  49.023  0.00  0.00    +0.000 C 
ATOM     41  O   UNL     1      44.753  31.437  50.075  0.00  0.00    +0.000 OA
ATOM     42  N   UNL     1      45.095  29.431  48.852  0.00  0.00    +0.000 N 
ATOM     43  H   UNL     1      45.064  31.533  47.138  0.00  0.00    +0.000 HD
ATOM     44  H   UNL     1      44.667  28.873  48.078  0.00  0.00    +0.000 HD
ATOM     45  H   UNL     1      45.438  28.654  49.472  0.00  0.00    +0.000 HD
ENDBRANCH   6  39
TORSDOF 3
