
 OpenBabel03252506323D

 28 29  0  0  1  0  0  0  0  0999 V2000
   37.9460   29.1420   42.8680 C   0  0  0  0  0  0  0  0  0  0  0  0
   36.8940   28.3260   42.4210 C   0  0  0  0  0  0  0  0  0  0  0  0
   36.2280   28.6720   41.2510 C   0  0  0  0  0  0  0  0  0  0  0  0
   36.6370   29.7890   40.6040 N   0  0  0  0  0  0  0  0  0  0  0  0
   37.6360   30.5500   41.0430 C   0  0  0  0  0  0  0  0  0  0  0  0
   38.2890   30.2370   42.1630 N   0  0  0  0  0  0  0  0  0  0  0  0
   38.0010   31.7070   40.3010 N   0  0  0  0  0  0  0  0  0  0  0  0
   39.2430   32.4600   40.4680 C   0  0  0  0  0  0  0  0  0  0  0  0
   38.7790   33.8740   40.2500 C   0  0  0  0  0  0  0  0  0  0  0  0
   37.3800   33.8010   39.6800 C   0  0  0  0  0  0  0  0  0  0  0  0
   37.2470   32.3730   39.2510 C   0  0  1  0  0  0  0  0  0  0  0  0
   38.5240   28.9540   43.7690 H   0  0  0  0  0  0  0  0  0  0  0  0
   35.4400   28.0340   40.9410 H   0  0  0  0  0  0  0  0  0  0  0  0
   39.9680   32.1620   39.6910 H   0  0  0  0  0  0  0  0  0  0  0  0
   39.5950   32.3230   41.4930 H   0  0  0  0  0  0  0  0  0  0  0  0
   39.4260   34.3740   39.5160 H   0  0  0  0  0  0  0  0  0  0  0  0
   38.7460   34.4220   41.2210 H   0  0  0  0  0  0  0  0  0  0  0  0
   37.2400   34.4750   38.8250 H   0  0  0  0  0  0  0  0  0  0  0  0
   36.6090   33.9930   40.4820 H   0  0  0  0  0  0  0  0  0  0  0  0
   36.2010   32.0540   39.2890 H   0  0  0  0  0  0  0  0  0  0  0  0
   38.1090   31.0630   36.0900 H   0  0  0  0  0  0  0  0  0  0  0  0
   37.5950   31.1430   37.0340 C   0  0  0  0  0  0  0  0  0  0  0  0
   36.6980   30.3050   37.3700 O   0  0  0  0  0  0  0  0  0  0  0  0
   37.8750   32.1710   37.9570 N   0  0  0  0  0  0  0  0  0  0  0  0
   38.5950   32.8860   37.7460 H   0  0  0  0  0  0  0  0  0  0  0  0
   36.5940   27.1780   43.2330 N   0  0  0  0  0  0  0  0  0  0  0  0
   37.4130   26.5300   43.1830 H   0  0  0  0  0  0  0  0  0  0  0  0
   35.7490   26.9580   43.7930 H   0  0  0  0  0  0  0  0  0  0  0  0
  1 12  1  0  0  0  0
  2  1  1  0  0  0  0
  2 26  1  0  0  0  0
  3  2  2  0  0  0  0
  4  5  2  0  0  0  0
  4  3  1  0  0  0  0
  5  6  1  0  0  0  0
  6  1  2  0  0  0  0
  7  8  1  0  0  0  0
  7  5  1  0  0  0  0
  8 15  1  0  0  0  0
  9  8  1  0  0  0  0
  9 17  1  0  0  0  0
 10  9  1  0  0  0  0
 10 19  1  0  0  0  0
 11 20  1  6  0  0  0
 11 10  1  0  0  0  0
 11  7  1  0  0  0  0
 13  3  1  0  0  0  0
 14  8  1  0  0  0  0
 16  9  1  0  0  0  0
 18 10  1  0  0  0  0
 21 22  1  0  0  0  0
 22 23  2  0  0  0  0
 22 24  1  0  0  0  0
 24 11  1  0  0  0  0
 25 24  1  0  0  0  0
 26 28  1  0  0  0  0
 27 26  1  0  0  0  0
M  END
>  <minimizedAffinity>
-4.61710453

$$$$

 OpenBabel03252506323D

 28 29  0  0  1  0  0  0  0  0999 V2000
   36.9490   31.9870   39.8380 C   0  0  0  0  0  0  0  0  0  0  0  0
   37.9960   32.8620   40.1740 C   0  0  0  0  0  0  0  0  0  0  0  0
   38.9750   32.4270   41.0590 C   0  0  0  0  0  0  0  0  0  0  0  0
   38.8610   31.1700   41.5520 N   0  0  0  0  0  0  0  0  0  0  0  0
   37.8620   30.3560   41.2220 C   0  0  0  0  0  0  0  0  0  0  0  0
   36.9120   30.7530   40.3750 N   0  0  0  0  0  0  0  0  0  0  0  0
   37.8190   29.0510   41.7870 N   0  0  0  0  0  0  0  0  0  0  0  0
   36.9880   27.9500   41.3050 C   0  0  0  0  0  0  0  0  0  0  0  0
   36.6000   27.2700   42.5900 C   0  0  0  0  0  0  0  0  0  0  0  0
   37.4770   27.8450   43.6800 C   0  0  0  0  0  0  0  0  0  0  0  0
   38.5660   28.5430   42.9270 C   0  0  1  0  0  0  0  0  0  0  0  0
   36.1410   32.2360   39.1570 H   0  0  0  0  0  0  0  0  0  0  0  0
   39.7510   33.1120   41.2910 H   0  0  0  0  0  0  0  0  0  0  0  0
   37.5900   27.2760   40.6730 H   0  0  0  0  0  0  0  0  0  0  0  0
   36.1100   28.3710   40.8110 H   0  0  0  0  0  0  0  0  0  0  0  0
   36.7970   26.1920   42.5200 H   0  0  0  0  0  0  0  0  0  0  0  0
   35.5330   27.4860   42.8320 H   0  0  0  0  0  0  0  0  0  0  0  0
   37.8960   27.0690   44.3340 H   0  0  0  0  0  0  0  0  0  0  0  0
   36.9170   28.6230   44.2760 H   0  0  0  0  0  0  0  0  0  0  0  0
   38.9630   29.3790   43.5090 H   0  0  0  0  0  0  0  0  0  0  0  0
   41.6570   27.0410   42.1260 H   0  0  0  0  0  0  0  0  0  0  0  0
   40.9700   27.8020   42.4590 C   0  0  0  0  0  0  0  0  0  0  0  0
   41.3850   28.9450   42.8370 O   0  0  0  0  0  0  0  0  0  0  0  0
   39.5770   27.5920   42.4990 N   0  0  0  0  0  0  0  0  0  0  0  0
   39.1730   26.6840   42.2040 H   0  0  0  0  0  0  0  0  0  0  0  0
   37.9590   34.1600   39.5570 N   0  0  0  0  0  0  0  0  0  0  0  0
   38.1030   34.0280   38.5300 H   0  0  0  0  0  0  0  0  0  0  0  0
   37.8210   35.0980   39.9790 H   0  0  0  0  0  0  0  0  0  0  0  0
  1  2  2  0  0  0  0
  1  6  1  0  0  0  0
  2  3  1  0  0  0  0
  3 13  1  0  0  0  0
  3  4  2  0  0  0  0
  5  4  1  0  0  0  0
  5  7  1  0  0  0  0
  6  5  2  0  0  0  0
  7 11  1  0  0  0  0
  8  7  1  0  0  0  0
  8  9  1  0  0  0  0
  9 17  1  0  0  0  0
  9 10  1  0  0  0  0
 10 19  1  0  0  0  0
 10 18  1  0  0  0  0
 11 20  1  1  0  0  0
 11 10  1  0  0  0  0
 12  1  1  0  0  0  0
 14  8  1  0  0  0  0
 15  8  1  0  0  0  0
 16  9  1  0  0  0  0
 21 22  1  0  0  0  0
 22 24  1  0  0  0  0
 22 23  2  0  0  0  0
 24 11  1  0  0  0  0
 25 24  1  0  0  0  0
 26 28  1  0  0  0  0
 26  2  1  0  0  0  0
 27 26  1  0  0  0  0
M  END
>  <minimizedAffinity>
-4.53413868

$$$$

 OpenBabel03252506323D

 28 29  0  0  1  0  0  0  0  0999 V2000
   36.1740   29.6600   39.9160 C   0  0  0  0  0  0  0  0  0  0  0  0
   36.8290   30.5060   40.8260 C   0  0  0  0  0  0  0  0  0  0  0  0
   37.6610   29.9420   41.7860 C   0  0  0  0  0  0  0  0  0  0  0  0
   37.7940   28.5940   41.7870 N   0  0  0  0  0  0  0  0  0  0  0  0
   37.1650   27.8080   40.9160 C   0  0  0  0  0  0  0  0  0  0  0  0
   36.3620   28.3280   39.9870 N   0  0  0  0  0  0  0  0  0  0  0  0
   37.3610   26.4010   40.9880 N   0  0  0  0  0  0  0  0  0  0  0  0
   37.0040   25.4450   39.9430 C   0  0  0  0  0  0  0  0  0  0  0  0
   36.5380   24.2640   40.7500 C   0  0  0  0  0  0  0  0  0  0  0  0
   36.9460   24.5160   42.1840 C   0  0  0  0  0  0  0  0  0  0  0  0
   37.9380   25.6320   42.0790 C   0  0  1  0  0  0  0  0  0  0  0  0
   35.5060   30.0070   39.1330 H   0  0  0  0  0  0  0  0  0  0  0  0
   38.1400   30.6090   42.4570 H   0  0  0  0  0  0  0  0  0  0  0  0
   37.8980   25.1860   39.3510 H   0  0  0  0  0  0  0  0  0  0  0  0
   36.1800   25.8630   39.3590 H   0  0  0  0  0  0  0  0  0  0  0  0
   37.0400   23.3500   40.4030 H   0  0  0  0  0  0  0  0  0  0  0  0
   35.4280   24.1770   40.6980 H   0  0  0  0  0  0  0  0  0  0  0  0
   37.4040   23.6350   42.6510 H   0  0  0  0  0  0  0  0  0  0  0  0
   36.0700   24.8900   42.7900 H   0  0  0  0  0  0  0  0  0  0  0  0
   37.9420   26.2330   42.9930 H   0  0  0  0  0  0  0  0  0  0  0  0
   41.3410   24.6990   42.1610 H   0  0  0  0  0  0  0  0  0  0  0  0
   40.4050   25.1030   42.5110 C   0  0  0  0  0  0  0  0  0  0  0  0
   40.2950   25.5950   43.6800 O   0  0  0  0  0  0  0  0  0  0  0  0
   39.2450   25.1160   41.7100 N   0  0  0  0  0  0  0  0  0  0  0  0
   39.2660   24.7300   40.7480 H   0  0  0  0  0  0  0  0  0  0  0  0
   36.5730   31.9130   40.6800 N   0  0  0  0  0  0  0  0  0  0  0  0
   36.9780   32.2170   39.7660 H   0  0  0  0  0  0  0  0  0  0  0  0
   36.0850   32.5740   41.3150 H   0  0  0  0  0  0  0  0  0  0  0  0
  1  6  2  0  0  0  0
  1  2  1  0  0  0  0
  2  3  2  0  0  0  0
  3  4  1  0  0  0  0
  3 13  1  0  0  0  0
  5  7  1  0  0  0  0
  5  4  2  0  0  0  0
  6  5  1  0  0  0  0
  7 11  1  0  0  0  0
  8  9  1  0  0  0  0
  8  7  1  0  0  0  0
  9 10  1  0  0  0  0
 10 18  1  0  0  0  0
 10 19  1  0  0  0  0
 11 10  1  0  0  0  0
 11 20  1  1  0  0  0
 12  1  1  0  0  0  0
 14  8  1  0  0  0  0
 15  8  1  0  0  0  0
 16  9  1  0  0  0  0
 17  9  1  0  0  0  0
 21 22  1  0  0  0  0
 22 23  2  0  0  0  0
 24 11  1  0  0  0  0
 24 22  1  0  0  0  0
 25 24  1  0  0  0  0
 26  2  1  0  0  0  0
 26 28  1  0  0  0  0
 27 26  1  0  0  0  0
M  END
>  <minimizedAffinity>
-4.45781422

$$$$

 OpenBabel03252506323D

 28 29  0  0  1  0  0  0  0  0999 V2000
   36.1210   28.5840   40.8680 C   0  0  0  0  0  0  0  0  0  0  0  0
   36.5780   29.7810   41.4440 C   0  0  0  0  0  0  0  0  0  0  0  0
   37.7980   29.7830   42.1080 C   0  0  0  0  0  0  0  0  0  0  0  0
   38.4840   28.6160   42.1620 N   0  0  0  0  0  0  0  0  0  0  0  0
   38.0360   27.4910   41.6100 C   0  0  0  0  0  0  0  0  0  0  0  0
   36.8670   27.4670   40.9680 N   0  0  0  0  0  0  0  0  0  0  0  0
   38.8210   26.3100   41.7140 N   0  0  0  0  0  0  0  0  0  0  0  0
   38.6310   25.0980   40.9190 C   0  0  0  0  0  0  0  0  0  0  0  0
   38.9520   24.0200   41.9190 C   0  0  0  0  0  0  0  0  0  0  0  0
   39.5900   24.6940   43.1120 C   0  0  0  0  0  0  0  0  0  0  0  0
   39.9450   26.0560   42.6010 C   0  0  1  0  0  0  0  0  0  0  0  0
   35.1830   28.4840   40.3300 H   0  0  0  0  0  0  0  0  0  0  0  0
   38.1130   30.7030   42.5310 H   0  0  0  0  0  0  0  0  0  0  0  0
   39.3510   25.0820   40.0830 H   0  0  0  0  0  0  0  0  0  0  0  0
   37.5830   25.0450   40.6160 H   0  0  0  0  0  0  0  0  0  0  0  0
   39.6770   23.3140   41.4910 H   0  0  0  0  0  0  0  0  0  0  0  0
   38.0160   23.5110   42.2480 H   0  0  0  0  0  0  0  0  0  0  0  0
   40.4870   24.1670   43.4620 H   0  0  0  0  0  0  0  0  0  0  0  0
   38.8410   24.8240   43.9470 H   0  0  0  0  0  0  0  0  0  0  0  0
   39.9440   26.7870   43.4160 H   0  0  0  0  0  0  0  0  0  0  0  0
   43.0440   26.9290   41.1580 H   0  0  0  0  0  0  0  0  0  0  0  0
   42.1400   27.0440   41.7330 C   0  0  0  0  0  0  0  0  0  0  0  0
   41.8780   28.1320   42.3380 O   0  0  0  0  0  0  0  0  0  0  0  0
   41.1900   26.0100   41.8560 N   0  0  0  0  0  0  0  0  0  0  0  0
   41.3420   25.0970   41.3870 H   0  0  0  0  0  0  0  0  0  0  0  0
   35.7200   30.9250   41.2900 N   0  0  0  0  0  0  0  0  0  0  0  0
   35.6900   31.1660   40.2740 H   0  0  0  0  0  0  0  0  0  0  0  0
   35.1930   31.4660   42.0020 H   0  0  0  0  0  0  0  0  0  0  0  0
  1  6  2  0  0  0  0
  1  2  1  0  0  0  0
  2  3  2  0  0  0  0
  3  4  1  0  0  0  0
  3 13  1  0  0  0  0
  5  7  1  0  0  0  0
  5  4  2  0  0  0  0
  6  5  1  0  0  0  0
  7 11  1  0  0  0  0
  8  7  1  0  0  0  0
  8  9  1  0  0  0  0
  9 17  1  0  0  0  0
  9 10  1  0  0  0  0
 10 18  1  0  0  0  0
 10 19  1  0  0  0  0
 11 10  1  0  0  0  0
 11 20  1  1  0  0  0
 12  1  1  0  0  0  0
 14  8  1  0  0  0  0
 15  8  1  0  0  0  0
 16  9  1  0  0  0  0
 21 22  1  0  0  0  0
 22 24  1  0  0  0  0
 22 23  2  0  0  0  0
 24 11  1  0  0  0  0
 25 24  1  0  0  0  0
 26  2  1  0  0  0  0
 26 28  1  0  0  0  0
 27 26  1  0  0  0  0
M  END
>  <minimizedAffinity>
-4.34194851

$$$$

 OpenBabel03252506323D

 28 29  0  0  1  0  0  0  0  0999 V2000
   38.8370   32.0200   39.0470 C   0  0  0  0  0  0  0  0  0  0  0  0
   39.3190   31.4100   37.8770 C   0  0  0  0  0  0  0  0  0  0  0  0
   39.3850   30.0230   37.8230 C   0  0  0  0  0  0  0  0  0  0  0  0
   38.9770   29.3330   38.9150 N   0  0  0  0  0  0  0  0  0  0  0  0
   38.5230   29.9290   40.0150 C   0  0  0  0  0  0  0  0  0  0  0  0
   38.4510   31.2580   40.0880 N   0  0  0  0  0  0  0  0  0  0  0  0
   38.1140   29.1270   41.1160 N   0  0  0  0  0  0  0  0  0  0  0  0
   37.3210   29.5940   42.2510 C   0  0  0  0  0  0  0  0  0  0  0  0
   37.9250   28.8190   43.3900 C   0  0  0  0  0  0  0  0  0  0  0  0
   38.8070   27.7510   42.7840 C   0  0  0  0  0  0  0  0  0  0  0  0
   38.3870   27.7170   41.3490 C   0  0  1  0  0  0  0  0  0  0  0  0
   38.7480   33.0940   39.1830 H   0  0  0  0  0  0  0  0  0  0  0  0
   39.7540   29.5950   36.9260 H   0  0  0  0  0  0  0  0  0  0  0  0
   36.2630   29.3160   42.1070 H   0  0  0  0  0  0  0  0  0  0  0  0
   37.4950   30.6650   42.3770 H   0  0  0  0  0  0  0  0  0  0  0  0
   37.1350   28.3260   43.9720 H   0  0  0  0  0  0  0  0  0  0  0  0
   38.5520   29.4910   44.0220 H   0  0  0  0  0  0  0  0  0  0  0  0
   38.6600   26.7690   43.2530 H   0  0  0  0  0  0  0  0  0  0  0  0
   39.8930   28.0610   42.8180 H   0  0  0  0  0  0  0  0  0  0  0  0
   39.2140   27.3920   40.7110 H   0  0  0  0  0  0  0  0  0  0  0  0
   35.8760   25.6260   40.0170 H   0  0  0  0  0  0  0  0  0  0  0  0
   36.7930   26.1900   40.0540 C   0  0  0  0  0  0  0  0  0  0  0  0
   37.5870   26.2220   39.0590 O   0  0  0  0  0  0  0  0  0  0  0  0
   37.1780   26.9260   41.1920 N   0  0  0  0  0  0  0  0  0  0  0  0
   36.5770   26.9430   42.0360 H   0  0  0  0  0  0  0  0  0  0  0  0
   39.7090   32.2970   36.8150 N   0  0  0  0  0  0  0  0  0  0  0  0
   38.8480   32.7820   36.4730 H   0  0  0  0  0  0  0  0  0  0  0  0
   40.6460   32.4800   36.4060 H   0  0  0  0  0  0  0  0  0  0  0  0
  1 12  1  0  0  0  0
  1  6  1  0  0  0  0
  2  1  2  0  0  0  0
  3  2  1  0  0  0  0
  3  4  2  0  0  0  0
  4  5  1  0  0  0  0
  5  6  2  0  0  0  0
  5  7  1  0  0  0  0
  7 11  1  0  0  0  0
  7  8  1  0  0  0  0
  8 15  1  0  0  0  0
  8  9  1  0  0  0  0
  9 16  1  0  0  0  0
  9 17  1  0  0  0  0
 10 19  1  0  0  0  0
 10 18  1  0  0  0  0
 10  9  1  0  0  0  0
 11 20  1  6  0  0  0
 11 10  1  0  0  0  0
 13  3  1  0  0  0  0
 14  8  1  0  0  0  0
 21 22  1  0  0  0  0
 22 24  1  0  0  0  0
 23 22  2  0  0  0  0
 24 11  1  0  0  0  0
 24 25  1  0  0  0  0
 26  2  1  0  0  0  0
 27 26  1  0  0  0  0
 28 26  1  0  0  0  0
M  END
>  <minimizedAffinity>
-4.32690907

$$$$

 OpenBabel03252506323D

 28 29  0  0  1  0  0  0  0  0999 V2000
   37.4910   30.1370   38.2360 C   0  0  0  0  0  0  0  0  0  0  0  0
   38.4650   31.1480   38.2190 C   0  0  0  0  0  0  0  0  0  0  0  0
   39.2950   31.2980   39.3240 C   0  0  0  0  0  0  0  0  0  0  0  0
   39.1130   30.4520   40.3640 N   0  0  0  0  0  0  0  0  0  0  0  0
   38.1830   29.4990   40.3630 C   0  0  0  0  0  0  0  0  0  0  0  0
   37.3770   29.3370   39.3140 N   0  0  0  0  0  0  0  0  0  0  0  0
   38.0600   28.6520   41.4990 N   0  0  0  0  0  0  0  0  0  0  0  0
   37.3230   27.3910   41.5360 C   0  0  0  0  0  0  0  0  0  0  0  0
   36.7410   27.4140   42.9230 C   0  0  0  0  0  0  0  0  0  0  0  0
   37.4300   28.5280   43.6770 C   0  0  0  0  0  0  0  0  0  0  0  0
   38.6200   28.8470   42.8270 C   0  0  1  0  0  0  0  0  0  0  0  0
   36.7980   29.9430   37.4220 H   0  0  0  0  0  0  0  0  0  0  0  0
   40.0200   32.0710   39.2780 H   0  0  0  0  0  0  0  0  0  0  0  0
   38.0210   26.5460   41.4190 H   0  0  0  0  0  0  0  0  0  0  0  0
   36.5310   27.4320   40.7840 H   0  0  0  0  0  0  0  0  0  0  0  0
   36.9540   26.4660   43.4360 H   0  0  0  0  0  0  0  0  0  0  0  0
   35.6480   27.6290   42.8780 H   0  0  0  0  0  0  0  0  0  0  0  0
   37.7460   28.2210   44.6830 H   0  0  0  0  0  0  0  0  0  0  0  0
   36.7780   29.4490   43.7170 H   0  0  0  0  0  0  0  0  0  0  0  0
   38.9160   29.8930   42.9530 H   0  0  0  0  0  0  0  0  0  0  0  0
   41.8120   27.4030   43.2500 H   0  0  0  0  0  0  0  0  0  0  0  0
   41.0770   28.1650   43.0510 C   0  0  0  0  0  0  0  0  0  0  0  0
   41.4230   29.3590   42.7760 O   0  0  0  0  0  0  0  0  0  0  0  0
   39.6930   27.9000   43.0790 N   0  0  0  0  0  0  0  0  0  0  0  0
   39.3430   26.9490   43.2960 H   0  0  0  0  0  0  0  0  0  0  0  0
   38.5180   31.9560   37.0310 N   0  0  0  0  0  0  0  0  0  0  0  0
   38.8240   31.3420   36.2420 H   0  0  0  0  0  0  0  0  0  0  0  0
   38.3100   32.9640   36.8970 H   0  0  0  0  0  0  0  0  0  0  0  0
  1  6  1  0  0  0  0
  2  1  2  0  0  0  0
  2  3  1  0  0  0  0
  3  4  2  0  0  0  0
  5  4  1  0  0  0  0
  5  7  1  0  0  0  0
  6  5  2  0  0  0  0
  7  8  1  0  0  0  0
  7 11  1  0  0  0  0
  8  9  1  0  0  0  0
  9 16  1  0  0  0  0
  9 10  1  0  0  0  0
 10 19  1  0  0  0  0
 10 18  1  0  0  0  0
 11 20  1  1  0  0  0
 11 24  1  0  0  0  0
 11 10  1  0  0  0  0
 12  1  1  0  0  0  0
 13  3  1  0  0  0  0
 14  8  1  0  0  0  0
 15  8  1  0  0  0  0
 17  9  1  0  0  0  0
 22 24  1  0  0  0  0
 22 21  1  0  0  0  0
 23 22  2  0  0  0  0
 24 25  1  0  0  0  0
 26  2  1  0  0  0  0
 27 26  1  0  0  0  0
 28 26  1  0  0  0  0
M  END
>  <minimizedAffinity>
-4.31203842

$$$$

 OpenBabel03252506323D

 28 29  0  0  1  0  0  0  0  0999 V2000
   37.0040   29.1230   42.1400 C   0  0  0  0  0  0  0  0  0  0  0  0
   36.1710   29.5990   41.1140 C   0  0  0  0  0  0  0  0  0  0  0  0
   35.7940   28.7280   40.0990 C   0  0  0  0  0  0  0  0  0  0  0  0
   36.2570   27.4570   40.1580 N   0  0  0  0  0  0  0  0  0  0  0  0
   37.0460   27.0240   41.1380 C   0  0  0  0  0  0  0  0  0  0  0  0
   37.4200   27.8430   42.1230 N   0  0  0  0  0  0  0  0  0  0  0  0
   37.4870   25.6720   41.1240 N   0  0  0  0  0  0  0  0  0  0  0  0
   38.0850   24.9670   42.2560 C   0  0  0  0  0  0  0  0  0  0  0  0
   39.1140   24.1060   41.5750 C   0  0  0  0  0  0  0  0  0  0  0  0
   38.8240   24.1540   40.0920 C   0  0  0  0  0  0  0  0  0  0  0  0
   37.4430   24.7270   40.0190 C   0  0  1  0  0  0  0  0  0  0  0  0
   37.3510   29.7270   42.9730 H   0  0  0  0  0  0  0  0  0  0  0  0
   35.1640   29.1200   39.3400 H   0  0  0  0  0  0  0  0  0  0  0  0
   37.3230   24.3460   42.7550 H   0  0  0  0  0  0  0  0  0  0  0  0
   38.5660   25.7020   42.9050 H   0  0  0  0  0  0  0  0  0  0  0  0
   39.0160   23.0650   41.9130 H   0  0  0  0  0  0  0  0  0  0  0  0
   40.1360   24.5110   41.7580 H   0  0  0  0  0  0  0  0  0  0  0  0
   38.8550   23.1610   39.6260 H   0  0  0  0  0  0  0  0  0  0  0  0
   39.5220   24.8720   39.5700 H   0  0  0  0  0  0  0  0  0  0  0  0
   37.2970   25.2660   39.0790 H   0  0  0  0  0  0  0  0  0  0  0  0
   34.6090   22.6420   39.7480 H   0  0  0  0  0  0  0  0  0  0  0  0
   35.2980   23.4320   39.4980 C   0  0  0  0  0  0  0  0  0  0  0  0
   35.1050   24.1790   38.4860 O   0  0  0  0  0  0  0  0  0  0  0  0
   36.4520   23.6940   40.2640 N   0  0  0  0  0  0  0  0  0  0  0  0
   36.6680   23.1230   41.1020 H   0  0  0  0  0  0  0  0  0  0  0  0
   35.7740   30.9780   41.2090 N   0  0  0  0  0  0  0  0  0  0  0  0
   35.1640   31.0750   42.0530 H   0  0  0  0  0  0  0  0  0  0  0  0
   36.0050   31.7840   40.5980 H   0  0  0  0  0  0  0  0  0  0  0  0
  1 12  1  0  0  0  0
  2 26  1  0  0  0  0
  2  1  2  0  0  0  0
  3  4  2  0  0  0  0
  3  2  1  0  0  0  0
  4  5  1  0  0  0  0
  5  6  2  0  0  0  0
  6  1  1  0  0  0  0
  7  5  1  0  0  0  0
  7  8  1  0  0  0  0
  8 14  1  0  0  0  0
  8 15  1  0  0  0  0
  9 17  1  0  0  0  0
  9 16  1  0  0  0  0
  9  8  1  0  0  0  0
 10  9  1  0  0  0  0
 11 20  1  6  0  0  0
 11 10  1  0  0  0  0
 11 24  1  0  0  0  0
 11  7  1  0  0  0  0
 13  3  1  0  0  0  0
 18 10  1  0  0  0  0
 19 10  1  0  0  0  0
 22 21  1  0  0  0  0
 22 24  1  0  0  0  0
 23 22  2  0  0  0  0
 24 25  1  0  0  0  0
 26 27  1  0  0  0  0
 28 26  1  0  0  0  0
M  END
>  <minimizedAffinity>
-4.29526043

$$$$

 OpenBabel03252506323D

 28 29  0  0  1  0  0  0  0  0999 V2000
   40.5640   32.2850   37.0240 C   0  0  0  0  0  0  0  0  0  0  0  0
   41.3580   33.1850   37.7540 C   0  0  0  0  0  0  0  0  0  0  0  0
   41.1390   33.3150   39.1200 C   0  0  0  0  0  0  0  0  0  0  0  0
   40.1620   32.5580   39.6740 N   0  0  0  0  0  0  0  0  0  0  0  0
   39.4190   31.7110   38.9650 C   0  0  0  0  0  0  0  0  0  0  0  0
   39.6130   31.5700   37.6530 N   0  0  0  0  0  0  0  0  0  0  0  0
   38.4140   30.9530   39.6270 N   0  0  0  0  0  0  0  0  0  0  0  0
   37.7380   29.7820   39.0730 C   0  0  0  0  0  0  0  0  0  0  0  0
   36.3410   29.9510   39.6030 C   0  0  0  0  0  0  0  0  0  0  0  0
   36.3930   31.0310   40.6600 C   0  0  0  0  0  0  0  0  0  0  0  0
   37.8550   31.1700   40.9520 C   0  0  1  0  0  0  0  0  0  0  0  0
   40.6610   32.1150   35.9550 H   0  0  0  0  0  0  0  0  0  0  0  0
   41.7560   34.0020   39.6420 H   0  0  0  0  0  0  0  0  0  0  0  0
   38.1980   28.8620   39.4700 H   0  0  0  0  0  0  0  0  0  0  0  0
   37.7490   29.8600   37.9830 H   0  0  0  0  0  0  0  0  0  0  0  0
   36.0030   29.0200   40.0770 H   0  0  0  0  0  0  0  0  0  0  0  0
   35.6560   30.2770   38.7860 H   0  0  0  0  0  0  0  0  0  0  0  0
   35.8430   30.7560   41.5700 H   0  0  0  0  0  0  0  0  0  0  0  0
   36.0300   32.0160   40.2460 H   0  0  0  0  0  0  0  0  0  0  0  0
   38.0870   32.1850   41.2880 H   0  0  0  0  0  0  0  0  0  0  0  0
   39.6520   29.3700   43.3980 H   0  0  0  0  0  0  0  0  0  0  0  0
   39.3950   30.1870   42.7450 C   0  0  0  0  0  0  0  0  0  0  0  0
   40.0830   31.2580   42.7260 O   0  0  0  0  0  0  0  0  0  0  0  0
   38.2900   30.1320   41.8710 N   0  0  0  0  0  0  0  0  0  0  0  0
   37.6880   29.2890   41.8360 H   0  0  0  0  0  0  0  0  0  0  0  0
   42.3490   33.9070   37.0050 N   0  0  0  0  0  0  0  0  0  0  0  0
   43.0560   33.2170   36.6630 H   0  0  0  0  0  0  0  0  0  0  0  0
   42.4220   34.9220   36.7960 H   0  0  0  0  0  0  0  0  0  0  0  0
  1  6  2  0  0  0  0
  1  2  1  0  0  0  0
  2  3  2  0  0  0  0
  3 13  1  0  0  0  0
  3  4  1  0  0  0  0
  5  7  1  0  0  0  0
  5  4  2  0  0  0  0
  6  5  1  0  0  0  0
  7 11  1  0  0  0  0
  8 14  1  0  0  0  0
  8  9  1  0  0  0  0
  8  7  1  0  0  0  0
  9 16  1  0  0  0  0
  9 10  1  0  0  0  0
 10 11  1  0  0  0  0
 10 18  1  0  0  0  0
 11 20  1  1  0  0  0
 11 24  1  0  0  0  0
 12  1  1  0  0  0  0
 15  8  1  0  0  0  0
 17  9  1  0  0  0  0
 19 10  1  0  0  0  0
 22 21  1  0  0  0  0
 23 22  2  0  0  0  0
 24 22  1  0  0  0  0
 25 24  1  0  0  0  0
 26  2  1  0  0  0  0
 27 26  1  0  0  0  0
 28 26  1  0  0  0  0
M  END
>  <minimizedAffinity>
-4.28417921

$$$$

 OpenBabel03252506323D

 28 29  0  0  1  0  0  0  0  0999 V2000
   38.1580   25.2790   38.5550 C   0  0  0  0  0  0  0  0  0  0  0  0
   37.0240   25.5280   37.7650 C   0  0  0  0  0  0  0  0  0  0  0  0
   36.0710   26.4290   38.2250 C   0  0  0  0  0  0  0  0  0  0  0  0
   36.2950   27.0210   39.4220 N   0  0  0  0  0  0  0  0  0  0  0  0
   37.3760   26.7720   40.1580 C   0  0  0  0  0  0  0  0  0  0  0  0
   38.3020   25.9110   39.7350 N   0  0  0  0  0  0  0  0  0  0  0  0
   37.5320   27.4390   41.4040 N   0  0  0  0  0  0  0  0  0  0  0  0
   38.7740   27.5170   42.1700 C   0  0  0  0  0  0  0  0  0  0  0  0
   38.2710   27.4310   43.5850 C   0  0  0  0  0  0  0  0  0  0  0  0
   36.7710   27.6160   43.5360 C   0  0  0  0  0  0  0  0  0  0  0  0
   36.5260   28.1640   42.1650 C   0  0  1  0  0  0  0  0  0  0  0  0
   38.9540   24.5930   38.2810 H   0  0  0  0  0  0  0  0  0  0  0  0
   35.2270   26.5940   37.6040 H   0  0  0  0  0  0  0  0  0  0  0  0
   39.2660   28.4870   41.9880 H   0  0  0  0  0  0  0  0  0  0  0  0
   39.3860   26.6460   41.9240 H   0  0  0  0  0  0  0  0  0  0  0  0
   38.7000   28.2430   44.1870 H   0  0  0  0  0  0  0  0  0  0  0  0
   38.4980   26.4270   44.0140 H   0  0  0  0  0  0  0  0  0  0  0  0
   36.4090   28.3150   44.3010 H   0  0  0  0  0  0  0  0  0  0  0  0
   36.2420   26.6210   43.6090 H   0  0  0  0  0  0  0  0  0  0  0  0
   35.5280   27.8890   41.8110 H   0  0  0  0  0  0  0  0  0  0  0  0
   36.5280   31.5720   41.2500 H   0  0  0  0  0  0  0  0  0  0  0  0
   36.2860   30.5230   41.2030 C   0  0  0  0  0  0  0  0  0  0  0  0
   35.5250   30.0630   40.2920 O   0  0  0  0  0  0  0  0  0  0  0  0
   36.7870   29.5920   42.1350 N   0  0  0  0  0  0  0  0  0  0  0  0
   37.4130   29.9010   42.9020 H   0  0  0  0  0  0  0  0  0  0  0  0
   36.9490   24.8100   36.5210 N   0  0  0  0  0  0  0  0  0  0  0  0
   37.7240   25.1530   35.9090 H   0  0  0  0  0  0  0  0  0  0  0  0
   36.2820   24.0770   36.2110 H   0  0  0  0  0  0  0  0  0  0  0  0
  1  6  1  0  0  0  0
  2  3  1  0  0  0  0
  2  1  2  0  0  0  0
  3  4  2  0  0  0  0
  4  5  1  0  0  0  0
  5  7  1  0  0  0  0
  6  5  2  0  0  0  0
  7 11  1  0  0  0  0
  7  8  1  0  0  0  0
  8  9  1  0  0  0  0
  9 17  1  0  0  0  0
  9 16  1  0  0  0  0
 10  9  1  0  0  0  0
 10 19  1  0  0  0  0
 10 18  1  0  0  0  0
 11 20  1  6  0  0  0
 11 10  1  0  0  0  0
 12  1  1  0  0  0  0
 13  3  1  0  0  0  0
 14  8  1  0  0  0  0
 15  8  1  0  0  0  0
 22 21  1  0  0  0  0
 22 24  1  0  0  0  0
 23 22  2  0  0  0  0
 24 11  1  0  0  0  0
 24 25  1  0  0  0  0
 26  2  1  0  0  0  0
 27 26  1  0  0  0  0
 28 26  1  0  0  0  0
M  END
>  <minimizedAffinity>
-4.12462139

$$$$
