REMARK  Name = 
REMARK  3 active torsions:
REMARK  status: ('A' for Active; 'I' for Inactive)
REMARK    1  A    between atoms: C_3  and  C_9
REMARK    2  A    between atoms: C_8  and  C_15
REMARK    3  A    between atoms: C_13  and  N_26
REMARK                            x       y       z     vdW  Elec       q    Type
REMARK                         _______ _______ _______ _____ _____    ______ ____
ROOT
ATOM      1  C   UNL     1      47.972  34.639  40.102  0.00  0.00    +0.000 A 
ATOM      2  C   UNL     1      46.812  33.987  40.483  0.00  0.00    +0.000 A 
ATOM      3  C   UNL     1      46.161  33.257  39.534  0.00  0.00    +0.000 A 
ATOM      4  C   UNL     1      46.600  33.140  38.226  0.00  0.00    +0.000 A 
ATOM      5  C   UNL     1      47.766  33.807  37.879  0.00  0.00    +0.000 A 
ATOM      6  C   UNL     1      48.445  34.548  38.807  0.00  0.00    +0.000 A 
ATOM      7  H   UNL     1      45.253  32.742  39.818  0.00  0.00    +0.000 HD
ATOM      8  H   UNL     1      46.032  32.542  37.525  0.00  0.00    +0.000 HD
ATOM      9  H   UNL     1      48.130  33.730  36.860  0.00  0.00    +0.000 HD
ENDROOT
BRANCH   2  12
ATOM     10  C   UNL     1      44.904  35.035  43.565  0.00  0.00    +0.000 A 
ATOM     11  C   UNL     1      45.284  34.916  42.211  0.00  0.00    +0.000 A 
ATOM     12  C   UNL     1      46.386  34.136  41.866  0.00  0.00    +0.000 A 
ATOM     13  N   UNL     1      47.032  33.531  42.889  0.00  0.00    +0.000 NA
ATOM     14  C   UNL     1      46.661  33.652  44.166  0.00  0.00    +0.000 A 
ATOM     15  N   UNL     1      45.602  34.402  44.499  0.00  0.00    +0.000 NA
ATOM     16  N   UNL     1      43.773  35.844  43.855  0.00  0.00    +0.000 N 
ATOM     17  H   UNL     1      44.756  35.410  41.392  0.00  0.00    +0.000 HD
ATOM     18  H   UNL     1      47.199  33.153  44.975  0.00  0.00    +0.000 HD
ATOM     19  H   UNL     1      44.041  36.632  44.510  0.00  0.00    +0.000 HD
ATOM     20  H   UNL     1      42.938  35.458  43.344  0.00  0.00    +0.000 HD
ENDBRANCH   2  12
BRANCH   6  24
ATOM     21  H   UNL     1      50.365  37.309  38.367  0.00  0.00    +0.000 HD
ATOM     22  C   UNL     1      49.542  36.639  38.608  0.00  0.00    +0.000 C 
ATOM     23  O   UNL     1      48.712  37.496  39.009  0.00  0.00    +0.000 OA
ATOM     24  N   UNL     1      49.629  35.218  38.429  0.00  0.00    +0.000 N 
ATOM     25  H   UNL     1      50.546  34.907  38.052  0.00  0.00    +0.000 HD
ENDBRANCH   6  24
BRANCH   1  27
ATOM     26  N   UNL     1      49.321  36.077  41.807  0.00  0.00    +0.000 NA
ATOM     27  C   UNL     1      48.715  35.430  41.047  0.00  0.00    +0.000 C 
ENDBRANCH   1  27
TORSDOF 3
