
 OpenBabel03252509323D

 36 37  0  0  1  0  0  0  0  0999 V2000
   45.9820   34.8690   43.0470 O   0  0  0  0  0  0  0  0  0  0  0  0
   46.1850   34.0020   41.9710 C   0  0  1  0  0  0  0  0  0  0  0  0
   45.3340   34.3300   40.7740 C   0  0  0  0  0  0  0  0  0  0  0  0
   45.9860   33.5020   39.6960 C   0  0  0  0  0  0  0  0  0  0  0  0
   47.4440   33.4060   40.0930 C   0  0  0  0  0  0  0  0  0  0  0  0
   47.5770   34.2270   41.3740 C   0  0  2  0  0  0  0  0  0  0  0  0
   46.1330   32.9460   42.2470 H   0  0  0  0  0  0  0  0  0  0  0  0
   44.2700   34.0690   40.9520 H   0  0  0  0  0  0  0  0  0  0  0  0
   45.4780   35.3970   40.5080 H   0  0  0  0  0  0  0  0  0  0  0  0
   45.5670   32.4660   39.7940 H   0  0  0  0  0  0  0  0  0  0  0  0
   45.8510   33.9080   38.6850 H   0  0  0  0  0  0  0  0  0  0  0  0
   47.7800   32.3640   40.2380 H   0  0  0  0  0  0  0  0  0  0  0  0
   48.0180   33.9570   39.3200 H   0  0  0  0  0  0  0  0  0  0  0  0
   47.7950   35.2770   41.2120 H   0  0  0  0  0  0  0  0  0  0  0  0
   50.4660   33.7210   43.2690 H   0  0  0  0  0  0  0  0  0  0  0  0
   49.7170   34.2560   42.6800 C   0  0  0  0  0  0  0  0  0  0  0  0
   49.9080   35.4770   42.5010 O   0  0  0  0  0  0  0  0  0  0  0  0
   48.5840   33.5370   42.1600 N   0  0  0  0  0  0  0  0  0  0  0  0
   48.4390   32.5140   42.3170 H   0  0  0  0  0  0  0  0  0  0  0  0
   44.8610   34.8670   45.3820 O   0  0  0  0  0  0  0  0  0  0  0  0
   45.5180   33.9660   44.3910 P   0  0  1  0  0  0  0  0  0  0  0  0
   44.5610   32.6570   43.9620 O   0  0  0  0  0  0  0  0  0  0  0  0
   44.7730   32.3140   43.0550 H   0  0  0  0  0  0  0  0  0  0  0  0
   46.9260   33.3080   45.0740 O   0  0  0  0  0  0  0  0  0  0  0  0
   46.7370   31.9640   45.2270 C   0  0  0  0  0  0  0  0  0  0  0  0
   46.0970   31.4420   44.5320 H   0  0  0  0  0  0  0  0  0  0  0  0
   47.7560   31.4950   45.1000 H   0  0  0  0  0  0  0  0  0  0  0  0
   46.3770   32.0240   48.9250 C   0  0  0  0  0  0  0  0  0  0  0  0
   46.7870   32.3810   47.6340 C   0  0  0  0  0  0  0  0  0  0  0  0
   46.3190   31.6080   46.5860 C   0  0  0  0  0  0  0  0  0  0  0  0
   45.4860   30.5410   46.8570 N   0  0  0  0  0  0  0  0  0  0  0  0
   45.1190   30.2380   48.1230 C   0  0  0  0  0  0  0  0  0  0  0  0
   45.5690   30.9840   49.1410 N   0  0  0  0  0  0  0  0  0  0  0  0
   46.7150   32.5970   49.7900 H   0  0  0  0  0  0  0  0  0  0  0  0
   47.4340   33.2230   47.5210 H   0  0  0  0  0  0  0  0  0  0  0  0
   44.4600   29.3830   48.2580 H   0  0  0  0  0  0  0  0  0  0  0  0
  1 21  1  0  0  0  0
  2  7  1  1  0  0  0
  2  1  1  0  0  0  0
  3  8  1  0  0  0  0
  3  2  1  0  0  0  0
  4 10  1  0  0  0  0
  4  5  1  0  0  0  0
  4  3  1  0  0  0  0
  5 12  1  0  0  0  0
  5  6  1  0  0  0  0
  6 14  1  6  0  0  0
  6  2  1  0  0  0  0
  6 18  1  0  0  0  0
  9  3  1  0  0  0  0
 11  4  1  0  0  0  0
 13  5  1  0  0  0  0
 16 15  1  0  0  0  0
 17 16  2  0  0  0  0
 18 19  1  0  0  0  0
 18 16  1  0  0  0  0
 21 24  1  0  0  0  0
 21 20  2  1  0  0  0
 22 21  1  0  0  0  0
 23 22  1  0  0  0  0
 24 25  1  0  0  0  0
 25 30  1  0  0  0  0
 26 25  1  0  0  0  0
 27 25  1  0  0  0  0
 28 33  1  0  0  0  0
 28 34  1  0  0  0  0
 29 28  2  0  0  0  0
 30 31  2  0  0  0  0
 30 29  1  0  0  0  0
 31 32  1  0  0  0  0
 32 36  1  0  0  0  0
 32 33  2  0  0  0  0
 35 29  1  0  0  0  0
M  END
>  <minimizedAffinity>
-4.74415541

>  <minimizedRMSD>
1.29293096

$$$$
