
 OpenBabel03252509323D

 36 37  0  0  1  0  0  0  0  0999 V2000
   46.1370   35.1710   43.2160 O   0  0  0  0  0  0  0  0  0  0  0  0
   46.7220   34.4400   42.1800 C   0  0  1  0  0  0  0  0  0  0  0  0
   45.8370   34.3070   40.9710 C   0  0  0  0  0  0  0  0  0  0  0  0
   46.8070   33.8100   39.9310 C   0  0  0  0  0  0  0  0  0  0  0  0
   48.1500   34.3850   40.3290 C   0  0  0  0  0  0  0  0  0  0  0  0
   47.8830   35.2320   41.5720 C   0  0  2  0  0  0  0  0  0  0  0  0
   47.1360   33.4810   42.5030 H   0  0  0  0  0  0  0  0  0  0  0  0
   44.9930   33.6110   41.1620 H   0  0  0  0  0  0  0  0  0  0  0  0
   45.4990   35.3170   40.6560 H   0  0  0  0  0  0  0  0  0  0  0  0
   46.8870   32.7000   40.0760 H   0  0  0  0  0  0  0  0  0  0  0  0
   46.5250   34.0720   38.9020 H   0  0  0  0  0  0  0  0  0  0  0  0
   48.9080   33.6050   40.5210 H   0  0  0  0  0  0  0  0  0  0  0  0
   48.4360   35.1000   39.5310 H   0  0  0  0  0  0  0  0  0  0  0  0
   47.6180   36.2620   41.3620 H   0  0  0  0  0  0  0  0  0  0  0  0
   50.4460   33.6950   43.3790 H   0  0  0  0  0  0  0  0  0  0  0  0
   49.5460   33.7840   42.7650 C   0  0  0  0  0  0  0  0  0  0  0  0
   48.9830   32.7180   42.4340 O   0  0  0  0  0  0  0  0  0  0  0  0
   49.0760   35.0910   42.3860 N   0  0  0  0  0  0  0  0  0  0  0  0
   49.5580   35.9720   42.6710 H   0  0  0  0  0  0  0  0  0  0  0  0
   44.8530   34.8670   45.4450 O   0  0  0  0  0  0  0  0  0  0  0  0
   45.5560   34.0980   44.3770 P   0  0  1  0  0  0  0  0  0  0  0  0
   44.5990   32.9010   43.6960 O   0  0  0  0  0  0  0  0  0  0  0  0
   44.8670   32.6870   42.7640 H   0  0  0  0  0  0  0  0  0  0  0  0
   46.8950   33.2980   45.0460 O   0  0  0  0  0  0  0  0  0  0  0  0
   46.5810   31.9750   45.1720 C   0  0  0  0  0  0  0  0  0  0  0  0
   45.8420   31.5460   44.5120 H   0  0  0  0  0  0  0  0  0  0  0  0
   47.5350   31.4120   44.9510 H   0  0  0  0  0  0  0  0  0  0  0  0
   46.3910   32.0200   48.8830 C   0  0  0  0  0  0  0  0  0  0  0  0
   46.7350   32.3860   47.5750 C   0  0  0  0  0  0  0  0  0  0  0  0
   46.2320   31.6090   46.5480 C   0  0  0  0  0  0  0  0  0  0  0  0
   45.4290   30.5280   46.8530 N   0  0  0  0  0  0  0  0  0  0  0  0
   45.1250   30.2160   48.1330 C   0  0  0  0  0  0  0  0  0  0  0  0
   45.6100   30.9670   49.1320 N   0  0  0  0  0  0  0  0  0  0  0  0
   46.7590   32.5960   49.7320 H   0  0  0  0  0  0  0  0  0  0  0  0
   47.3630   33.2380   47.4350 H   0  0  0  0  0  0  0  0  0  0  0  0
   44.4860   29.3500   48.2950 H   0  0  0  0  0  0  0  0  0  0  0  0
  1 21  1  0  0  0  0
  2  7  1  1  0  0  0
  2  1  1  0  0  0  0
  3  8  1  0  0  0  0
  3  2  1  0  0  0  0
  4 10  1  0  0  0  0
  4  5  1  0  0  0  0
  4  3  1  0  0  0  0
  5 12  1  0  0  0  0
  5  6  1  0  0  0  0
  6 14  1  6  0  0  0
  6  2  1  0  0  0  0
  6 18  1  0  0  0  0
  9  3  1  0  0  0  0
 11  4  1  0  0  0  0
 13  5  1  0  0  0  0
 16 15  1  0  0  0  0
 17 16  2  0  0  0  0
 18 19  1  0  0  0  0
 18 16  1  0  0  0  0
 21 24  1  0  0  0  0
 21 20  2  1  0  0  0
 22 21  1  0  0  0  0
 23 22  1  0  0  0  0
 24 25  1  0  0  0  0
 25 30  1  0  0  0  0
 26 25  1  0  0  0  0
 27 25  1  0  0  0  0
 28 33  1  0  0  0  0
 28 34  1  0  0  0  0
 29 28  2  0  0  0  0
 30 31  2  0  0  0  0
 30 29  1  0  0  0  0
 31 32  1  0  0  0  0
 32 36  1  0  0  0  0
 32 33  2  0  0  0  0
 35 29  1  0  0  0  0
M  END
>  <minimizedAffinity>
-5.06197882

>  <minimizedRMSD>
1.00720251

$$$$
