
 OpenBabel03252506073D

 39 42  0  0  0  0  0  0  0  0999 V2000
   36.9220   26.1600   38.7580 Cl  0  0  0  0  0  0  0  0  0  0  0  0
   35.5870   27.1230   38.2390 C   0  0  0  0  0  0  0  0  0  0  0  0
   35.4380   28.4170   38.6890 C   0  0  0  0  0  0  0  0  0  0  0  0
   34.3400   29.1100   38.2190 C   0  0  0  0  0  0  0  0  0  0  0  0
   33.4090   28.5790   37.3430 C   0  0  0  0  0  0  0  0  0  0  0  0
   33.5850   27.2940   36.9170 C   0  0  0  0  0  0  0  0  0  0  0  0
   32.3820   26.6620   35.8080 Cl  0  0  0  0  0  0  0  0  0  0  0  0
   34.6690   26.5680   37.3610 C   0  0  0  0  0  0  0  0  0  0  0  0
   34.2400   30.1260   38.5850 H   0  0  0  0  0  0  0  0  0  0  0  0
   34.7850   25.5560   37.0100 H   0  0  0  0  0  0  0  0  0  0  0  0
   32.3100   29.4660   36.9560 C   0  0  0  0  0  0  0  0  0  0  0  0
   31.2610   29.7830   37.7850 C   0  0  0  0  0  0  0  0  0  0  0  0
   30.2180   30.6160   37.4380 C   0  0  0  0  0  0  0  0  0  0  0  0
   30.2060   31.1780   36.1830 C   0  0  0  0  0  0  0  0  0  0  0  0
   29.1770   31.9850   35.8750 N   0  0  0  0  0  0  0  0  0  0  0  0
   29.0850   32.5810   34.6590 C   0  0  0  0  0  0  0  0  0  0  0  0
   30.1110   32.3150   33.7500 C   0  0  0  0  0  0  0  0  0  0  0  0
   31.1570   31.4880   34.0800 C   0  0  0  0  0  0  0  0  0  0  0  0
   31.2360   30.8940   35.3100 C   0  0  0  0  0  0  0  0  0  0  0  0
   32.2540   30.0590   35.6950 C   0  0  0  0  0  0  0  0  0  0  0  0
   31.2350   29.3580   38.7860 H   0  0  0  0  0  0  0  0  0  0  0  0
   29.4130   30.8310   38.1400 H   0  0  0  0  0  0  0  0  0  0  0  0
   28.2680   33.2340   34.3860 H   0  0  0  0  0  0  0  0  0  0  0  0
   30.1150   32.7510   32.7580 H   0  0  0  0  0  0  0  0  0  0  0  0
   31.9310   31.3020   33.3610 H   0  0  0  0  0  0  0  0  0  0  0  0
   33.0550   29.8610   34.9660 H   0  0  0  0  0  0  0  0  0  0  0  0
   38.2940   30.3250   39.9240 C   0  0  0  0  0  0  0  0  0  0  0  0
   38.1950   30.1990   41.3090 C   0  0  0  0  0  0  0  0  0  0  0  0
   37.1270   29.4430   41.8360 C   0  0  0  0  0  0  0  0  0  0  0  0
   36.2640   28.8880   40.9430 N   0  0  0  0  0  0  0  0  0  0  0  0
   36.3850   29.0280   39.6100 C   0  0  0  0  0  0  0  0  0  0  0  0
   37.4000   29.7460   39.1000 N   0  0  0  0  0  0  0  0  0  0  0  0
   39.1300   30.9120   39.6100 H   0  0  0  0  0  0  0  0  0  0  0  0
   38.8530   30.6200   42.0330 H   0  0  0  0  0  0  0  0  0  0  0  0
   37.2980   27.9460   44.9440 H   0  0  0  0  0  0  0  0  0  0  0  0
   37.4520   28.0970   43.8670 C   0  0  0  0  0  0  0  0  0  0  0  0
   38.1200   27.0970   43.4930 O   0  0  0  0  0  0  0  0  0  0  0  0
   36.9260   29.2470   43.2290 N   0  0  0  0  0  0  0  0  0  0  0  0
   36.4010   29.9110   43.8410 H   0  0  0  0  0  0  0  0  0  0  0  0
  2  3  1  0  0  0  0
  2  1  1  0  0  0  0
  3 31  1  0  0  0  0
  4  9  1  0  0  0  0
  4  3  2  0  0  0  0
  5  4  1  0  0  0  0
  6  5  2  0  0  0  0
  6  8  1  0  0  0  0
  7  6  1  0  0  0  0
  8  2  2  0  0  0  0
 10  8  1  0  0  0  0
 11  5  1  0  0  0  0
 11 12  1  0  0  0  0
 12 21  1  0  0  0  0
 13 12  2  0  0  0  0
 13 22  1  0  0  0  0
 14 13  1  0  0  0  0
 15 14  1  0  0  0  0
 16 15  2  0  0  0  0
 17 18  2  0  0  0  0
 17 16  1  0  0  0  0
 18 19  1  0  0  0  0
 19 20  1  0  0  0  0
 19 14  2  0  0  0  0
 20 11  2  0  0  0  0
 23 16  1  0  0  0  0
 24 17  1  0  0  0  0
 25 18  1  0  0  0  0
 26 20  1  0  0  0  0
 27 28  1  0  0  0  0
 28 29  2  0  0  0  0
 28 34  1  0  0  0  0
 29 38  1  0  0  0  0
 30 29  1  0  0  0  0
 31 30  2  0  0  0  0
 32 31  1  0  0  0  0
 32 27  2  0  0  0  0
 33 27  1  0  0  0  0
 36 35  1  0  0  0  0
 37 36  2  0  0  0  0
 38 39  1  0  0  0  0
 38 36  1  0  0  0  0
M  END
>  <minimizedAffinity>
-6.71550226

$$$$

 OpenBabel03252506073D

 39 42  0  0  0  0  0  0  0  0999 V2000
   40.7990   31.3470   42.7880 Cl  0  0  0  0  0  0  0  0  0  0  0  0
   39.4820   30.8520   41.7880 C   0  0  0  0  0  0  0  0  0  0  0  0
   38.9760   31.6980   40.8240 C   0  0  0  0  0  0  0  0  0  0  0  0
   37.9220   31.2140   40.0730 C   0  0  0  0  0  0  0  0  0  0  0  0
   37.3670   29.9580   40.2410 C   0  0  0  0  0  0  0  0  0  0  0  0
   37.8910   29.1450   41.2050 C   0  0  0  0  0  0  0  0  0  0  0  0
   37.1580   27.5620   41.3820 Cl  0  0  0  0  0  0  0  0  0  0  0  0
   38.9440   29.5880   41.9760 C   0  0  0  0  0  0  0  0  0  0  0  0
   37.5380   31.8930   39.3210 H   0  0  0  0  0  0  0  0  0  0  0  0
   39.3390   28.9280   42.7300 H   0  0  0  0  0  0  0  0  0  0  0  0
   36.2550   29.6210   39.3510 C   0  0  0  0  0  0  0  0  0  0  0  0
   34.9800   29.3620   39.7920 C   0  0  0  0  0  0  0  0  0  0  0  0
   33.9200   29.0440   38.9680 C   0  0  0  0  0  0  0  0  0  0  0  0
   34.1300   28.9750   37.6110 C   0  0  0  0  0  0  0  0  0  0  0  0
   33.0780   28.6630   36.8360 N   0  0  0  0  0  0  0  0  0  0  0  0
   33.1960   28.5740   35.4860 C   0  0  0  0  0  0  0  0  0  0  0  0
   34.4600   28.8230   34.9490 C   0  0  0  0  0  0  0  0  0  0  0  0
   35.5260   29.1410   35.7550 C   0  0  0  0  0  0  0  0  0  0  0  0
   35.3920   29.2280   37.1130 C   0  0  0  0  0  0  0  0  0  0  0  0
   36.4190   29.5400   37.9680 C   0  0  0  0  0  0  0  0  0  0  0  0
   34.7740   29.4050   40.8590 H   0  0  0  0  0  0  0  0  0  0  0  0
   32.9290   28.8480   39.3780 H   0  0  0  0  0  0  0  0  0  0  0  0
   32.3660   28.3250   34.8410 H   0  0  0  0  0  0  0  0  0  0  0  0
   34.6400   28.7730   33.8810 H   0  0  0  0  0  0  0  0  0  0  0  0
   36.4860   29.3280   35.3130 H   0  0  0  0  0  0  0  0  0  0  0  0
   37.4090   29.7340   37.5260 H   0  0  0  0  0  0  0  0  0  0  0  0
   39.2130   35.3360   40.6840 C   0  0  0  0  0  0  0  0  0  0  0  0
   40.5010   35.5600   40.2010 C   0  0  0  0  0  0  0  0  0  0  0  0
   41.3110   34.4410   39.9150 C   0  0  0  0  0  0  0  0  0  0  0  0
   40.7680   33.2130   40.1350 N   0  0  0  0  0  0  0  0  0  0  0  0
   39.5190   33.0290   40.6030 C   0  0  0  0  0  0  0  0  0  0  0  0
   38.7410   34.0900   40.8770 N   0  0  0  0  0  0  0  0  0  0  0  0
   38.6690   36.2370   40.8740 H   0  0  0  0  0  0  0  0  0  0  0  0
   40.9550   36.5070   40.0180 H   0  0  0  0  0  0  0  0  0  0  0  0
   43.9430   34.3280   37.6820 H   0  0  0  0  0  0  0  0  0  0  0  0
   42.9180   34.2450   38.0640 C   0  0  0  0  0  0  0  0  0  0  0  0
   42.2340   33.8670   37.0770 O   0  0  0  0  0  0  0  0  0  0  0  0
   42.6390   34.5480   39.4200 N   0  0  0  0  0  0  0  0  0  0  0  0
   43.4540   34.8440   40.0000 H   0  0  0  0  0  0  0  0  0  0  0  0
  2  8  1  0  0  0  0
  2  1  1  0  0  0  0
  3  2  2  0  0  0  0
  4  5  2  0  0  0  0
  4  3  1  0  0  0  0
  5  6  1  0  0  0  0
  6  7  1  0  0  0  0
  6  8  2  0  0  0  0
  8 10  1  0  0  0  0
  9  4  1  0  0  0  0
 11 12  1  0  0  0  0
 11  5  1  0  0  0  0
 12 21  1  0  0  0  0
 13 22  1  0  0  0  0
 13 12  2  0  0  0  0
 14 13  1  0  0  0  0
 15 14  2  0  0  0  0
 16 15  1  0  0  0  0
 17 16  2  0  0  0  0
 17 18  1  0  0  0  0
 18 19  2  0  0  0  0
 19 14  1  0  0  0  0
 19 20  1  0  0  0  0
 20 11  2  0  0  0  0
 23 16  1  0  0  0  0
 24 17  1  0  0  0  0
 25 18  1  0  0  0  0
 26 20  1  0  0  0  0
 27 33  1  0  0  0  0
 27 32  1  0  0  0  0
 28 27  2  0  0  0  0
 29 30  2  0  0  0  0
 29 28  1  0  0  0  0
 30 31  1  0  0  0  0
 31  3  1  0  0  0  0
 31 32  2  0  0  0  0
 34 28  1  0  0  0  0
 35 36  1  0  0  0  0
 36 38  1  0  0  0  0
 37 36  2  0  0  0  0
 38 29  1  0  0  0  0
 38 39  1  0  0  0  0
M  END
>  <minimizedAffinity>
-6.70004082

$$$$

 OpenBabel03252506073D

 39 42  0  0  0  0  0  0  0  0999 V2000
   37.3260   34.3720   39.5010 Cl  0  0  0  0  0  0  0  0  0  0  0  0
   37.6510   32.7180   39.8700 C   0  0  0  0  0  0  0  0  0  0  0  0
   38.9450   32.2470   39.9030 C   0  0  0  0  0  0  0  0  0  0  0  0
   39.1060   30.9090   40.2080 C   0  0  0  0  0  0  0  0  0  0  0  0
   38.0570   30.0460   40.4730 C   0  0  0  0  0  0  0  0  0  0  0  0
   36.7860   30.5440   40.4320 C   0  0  0  0  0  0  0  0  0  0  0  0
   35.4880   29.4160   40.7740 Cl  0  0  0  0  0  0  0  0  0  0  0  0
   36.5820   31.8740   40.1320 C   0  0  0  0  0  0  0  0  0  0  0  0
   40.1310   30.5580   40.2290 H   0  0  0  0  0  0  0  0  0  0  0  0
   35.5700   32.2430   40.1060 H   0  0  0  0  0  0  0  0  0  0  0  0
   38.4240   28.6620   40.7760 C   0  0  0  0  0  0  0  0  0  0  0  0
   38.3300   27.6340   39.8690 C   0  0  0  0  0  0  0  0  0  0  0  0
   38.6700   26.3250   40.1370 C   0  0  0  0  0  0  0  0  0  0  0  0
   39.1370   26.0030   41.3900 C   0  0  0  0  0  0  0  0  0  0  0  0
   39.4600   24.7190   41.6200 N   0  0  0  0  0  0  0  0  0  0  0  0
   39.9280   24.3130   42.8280 C   0  0  0  0  0  0  0  0  0  0  0  0
   40.0560   25.2940   43.8130 C   0  0  0  0  0  0  0  0  0  0  0  0
   39.7220   26.6020   43.5630 C   0  0  0  0  0  0  0  0  0  0  0  0
   39.2520   26.9960   42.3400 C   0  0  0  0  0  0  0  0  0  0  0  0
   38.9020   28.2870   42.0320 C   0  0  0  0  0  0  0  0  0  0  0  0
   37.9640   27.8500   38.8680 H   0  0  0  0  0  0  0  0  0  0  0  0
   38.5740   25.5520   39.3750 H   0  0  0  0  0  0  0  0  0  0  0  0
   40.1950   23.2870   43.0380 H   0  0  0  0  0  0  0  0  0  0  0  0
   40.4230   25.0540   44.8050 H   0  0  0  0  0  0  0  0  0  0  0  0
   39.8320   27.3340   44.3390 H   0  0  0  0  0  0  0  0  0  0  0  0
   39.0090   29.0470   42.8210 H   0  0  0  0  0  0  0  0  0  0  0  0
   41.7300   33.8160   38.1420 C   0  0  0  0  0  0  0  0  0  0  0  0
   42.2430   34.7120   39.0790 C   0  0  0  0  0  0  0  0  0  0  0  0
   41.6240   34.7830   40.3450 C   0  0  0  0  0  0  0  0  0  0  0  0
   40.5610   33.9630   40.5580 N   0  0  0  0  0  0  0  0  0  0  0  0
   40.0870   33.1070   39.6330 C   0  0  0  0  0  0  0  0  0  0  0  0
   40.6720   33.0330   38.4250 N   0  0  0  0  0  0  0  0  0  0  0  0
   42.2570   33.8260   37.2120 H   0  0  0  0  0  0  0  0  0  0  0  0
   43.0740   35.3660   38.9420 H   0  0  0  0  0  0  0  0  0  0  0  0
   43.5580   36.0230   42.9240 H   0  0  0  0  0  0  0  0  0  0  0  0
   43.2210   35.3470   42.1280 C   0  0  0  0  0  0  0  0  0  0  0  0
   44.0560   34.4050   42.1280 O   0  0  0  0  0  0  0  0  0  0  0  0
   42.0610   35.6580   41.3750 N   0  0  0  0  0  0  0  0  0  0  0  0
   41.5750   36.5460   41.6310 H   0  0  0  0  0  0  0  0  0  0  0  0
  1  2  1  0  0  0  0
  2  3  2  0  0  0  0
  2  8  1  0  0  0  0
  3  4  1  0  0  0  0
  4  9  1  0  0  0  0
  4  5  2  0  0  0  0
  5 11  1  0  0  0  0
  6  5  1  0  0  0  0
  6  7  1  0  0  0  0
  8  6  2  0  0  0  0
 10  8  1  0  0  0  0
 11 20  1  0  0  0  0
 12 13  1  0  0  0  0
 12 11  2  0  0  0  0
 13 14  2  0  0  0  0
 14 15  1  0  0  0  0
 14 19  1  0  0  0  0
 15 16  2  0  0  0  0
 16 23  1  0  0  0  0
 16 17  1  0  0  0  0
 17 24  1  0  0  0  0
 18 17  2  0  0  0  0
 18 25  1  0  0  0  0
 19 18  1  0  0  0  0
 20 19  2  0  0  0  0
 20 26  1  0  0  0  0
 21 12  1  0  0  0  0
 22 13  1  0  0  0  0
 27 32  2  0  0  0  0
 27 28  1  0  0  0  0
 28 29  2  0  0  0  0
 29 30  1  0  0  0  0
 29 38  1  0  0  0  0
 31  3  1  0  0  0  0
 31 30  2  0  0  0  0
 32 31  1  0  0  0  0
 33 27  1  0  0  0  0
 34 28  1  0  0  0  0
 36 37  2  0  0  0  0
 36 35  1  0  0  0  0
 38 39  1  0  0  0  0
 38 36  1  0  0  0  0
M  END
>  <minimizedAffinity>
-6.515944

$$$$

 OpenBabel03252506073D

 39 42  0  0  0  0  0  0  0  0999 V2000
   39.7230   35.3040   39.9950 Cl  0  0  0  0  0  0  0  0  0  0  0  0
   39.4750   33.6590   40.4550 C   0  0  0  0  0  0  0  0  0  0  0  0
   40.5430   32.8550   40.7890 C   0  0  0  0  0  0  0  0  0  0  0  0
   40.2470   31.5530   41.1440 C   0  0  0  0  0  0  0  0  0  0  0  0
   38.9630   31.0350   41.1780 C   0  0  0  0  0  0  0  0  0  0  0  0
   37.9270   31.8590   40.8410 C   0  0  0  0  0  0  0  0  0  0  0  0
   36.3190   31.1610   40.8980 Cl  0  0  0  0  0  0  0  0  0  0  0  0
   38.1800   33.1650   40.4810 C   0  0  0  0  0  0  0  0  0  0  0  0
   41.1000   30.9360   41.4040 H   0  0  0  0  0  0  0  0  0  0  0  0
   37.3450   33.7940   40.2200 H   0  0  0  0  0  0  0  0  0  0  0  0
   38.8460   29.6330   41.5790 C   0  0  0  0  0  0  0  0  0  0  0  0
   38.6430   29.2280   42.8770 C   0  0  0  0  0  0  0  0  0  0  0  0
   38.5300   27.9110   43.2730 C   0  0  0  0  0  0  0  0  0  0  0  0
   38.6240   26.9210   42.3240 C   0  0  0  0  0  0  0  0  0  0  0  0
   38.5090   25.6490   42.7420 N   0  0  0  0  0  0  0  0  0  0  0  0
   38.5900   24.6090   41.8720 C   0  0  0  0  0  0  0  0  0  0  0  0
   38.7950   24.9280   40.5290 C   0  0  0  0  0  0  0  0  0  0  0  0
   38.9100   26.2340   40.1180 C   0  0  0  0  0  0  0  0  0  0  0  0
   38.8270   27.2720   41.0050 C   0  0  0  0  0  0  0  0  0  0  0  0
   38.9340   28.5930   40.6530 C   0  0  0  0  0  0  0  0  0  0  0  0
   38.5640   29.9820   43.6560 H   0  0  0  0  0  0  0  0  0  0  0  0
   38.3700   27.6520   44.3200 H   0  0  0  0  0  0  0  0  0  0  0  0
   38.5010   23.5780   42.1830 H   0  0  0  0  0  0  0  0  0  0  0  0
   38.8700   24.1580   39.7700 H   0  0  0  0  0  0  0  0  0  0  0  0
   39.0670   26.4490   39.0780 H   0  0  0  0  0  0  0  0  0  0  0  0
   39.0960   28.8270   39.5890 H   0  0  0  0  0  0  0  0  0  0  0  0
   43.8420   33.8870   41.9590 C   0  0  0  0  0  0  0  0  0  0  0  0
   44.4990   34.2620   40.7880 C   0  0  0  0  0  0  0  0  0  0  0  0
   43.8000   34.1610   39.5670 C   0  0  0  0  0  0  0  0  0  0  0  0
   42.5210   33.7000   39.6250 N   0  0  0  0  0  0  0  0  0  0  0  0
   41.9130   33.3440   40.7720 C   0  0  0  0  0  0  0  0  0  0  0  0
   42.5730   33.4380   41.9390 N   0  0  0  0  0  0  0  0  0  0  0  0
   44.4440   33.9940   42.8360 H   0  0  0  0  0  0  0  0  0  0  0  0
   45.4980   34.6270   40.7100 H   0  0  0  0  0  0  0  0  0  0  0  0
   45.3900   33.7910   36.5240 H   0  0  0  0  0  0  0  0  0  0  0  0
   44.9510   33.5180   37.4920 C   0  0  0  0  0  0  0  0  0  0  0  0
   45.1180   32.2740   37.5830 O   0  0  0  0  0  0  0  0  0  0  0  0
   44.3680   34.5140   38.3140 N   0  0  0  0  0  0  0  0  0  0  0  0
   44.3910   35.4880   37.9380 H   0  0  0  0  0  0  0  0  0  0  0  0
  1  2  1  0  0  0  0
  2  8  2  0  0  0  0
  2  3  1  0  0  0  0
  3  4  2  0  0  0  0
  4  5  1  0  0  0  0
  4  9  1  0  0  0  0
  5 11  1  0  0  0  0
  6  7  1  0  0  0  0
  6  5  2  0  0  0  0
  8  6  1  0  0  0  0
 10  8  1  0  0  0  0
 11 12  1  0  0  0  0
 12 13  2  0  0  0  0
 12 21  1  0  0  0  0
 13 22  1  0  0  0  0
 14 15  1  0  0  0  0
 14 13  1  0  0  0  0
 16 23  1  0  0  0  0
 16 15  2  0  0  0  0
 17 16  1  0  0  0  0
 18 17  2  0  0  0  0
 18 19  1  0  0  0  0
 19 14  2  0  0  0  0
 20 19  1  0  0  0  0
 20 11  2  0  0  0  0
 24 17  1  0  0  0  0
 25 18  1  0  0  0  0
 26 20  1  0  0  0  0
 27 33  1  0  0  0  0
 28 27  2  0  0  0  0
 29 30  2  0  0  0  0
 29 28  1  0  0  0  0
 30 31  1  0  0  0  0
 31  3  1  0  0  0  0
 31 32  2  0  0  0  0
 32 27  1  0  0  0  0
 34 28  1  0  0  0  0
 35 36  1  0  0  0  0
 36 37  2  0  0  0  0
 36 38  1  0  0  0  0
 38 29  1  0  0  0  0
 39 38  1  0  0  0  0
M  END
>  <minimizedAffinity>
-6.34236145

$$$$

 OpenBabel03252506073D

 39 42  0  0  0  0  0  0  0  0999 V2000
   40.5350   35.6540   39.6980 Cl  0  0  0  0  0  0  0  0  0  0  0  0
   40.0910   34.0670   40.2110 C   0  0  0  0  0  0  0  0  0  0  0  0
   41.0230   33.2270   40.7810 C   0  0  0  0  0  0  0  0  0  0  0  0
   40.5750   31.9770   41.1600 C   0  0  0  0  0  0  0  0  0  0  0  0
   39.2710   31.5420   40.9980 C   0  0  0  0  0  0  0  0  0  0  0  0
   38.3720   32.3990   40.4310 C   0  0  0  0  0  0  0  0  0  0  0  0
   36.7320   31.8070   40.2450 Cl  0  0  0  0  0  0  0  0  0  0  0  0
   38.7780   33.6560   40.0380 C   0  0  0  0  0  0  0  0  0  0  0  0
   41.3230   31.3310   41.6050 H   0  0  0  0  0  0  0  0  0  0  0  0
   38.0490   34.3130   39.5930 H   0  0  0  0  0  0  0  0  0  0  0  0
   38.9840   30.1840   41.4610 C   0  0  0  0  0  0  0  0  0  0  0  0
   38.7750   29.8580   42.7800 C   0  0  0  0  0  0  0  0  0  0  0  0
   38.5030   28.5850   43.2340 C   0  0  0  0  0  0  0  0  0  0  0  0
   38.4320   27.5560   42.3250 C   0  0  0  0  0  0  0  0  0  0  0  0
   38.1650   26.3270   42.7990 N   0  0  0  0  0  0  0  0  0  0  0  0
   38.0770   25.2540   41.9720 C   0  0  0  0  0  0  0  0  0  0  0  0
   38.2760   25.4920   40.6110 C   0  0  0  0  0  0  0  0  0  0  0  0
   38.5470   26.7540   40.1420 C   0  0  0  0  0  0  0  0  0  0  0  0
   38.6330   27.8260   40.9870 C   0  0  0  0  0  0  0  0  0  0  0  0
   38.9010   29.1080   40.5770 C   0  0  0  0  0  0  0  0  0  0  0  0
   38.8230   30.6450   43.5290 H   0  0  0  0  0  0  0  0  0  0  0  0
   38.3460   28.3880   44.2950 H   0  0  0  0  0  0  0  0  0  0  0  0
   37.8640   24.2560   42.3280 H   0  0  0  0  0  0  0  0  0  0  0  0
   38.2220   24.6910   39.8830 H   0  0  0  0  0  0  0  0  0  0  0  0
   38.6950   26.9070   39.0900 H   0  0  0  0  0  0  0  0  0  0  0  0
   39.0550   29.2770   39.5000 H   0  0  0  0  0  0  0  0  0  0  0  0
   44.5340   33.9300   40.0730 C   0  0  0  0  0  0  0  0  0  0  0  0
   45.0280   34.3790   41.2970 C   0  0  0  0  0  0  0  0  0  0  0  0
   44.1430   34.4430   42.3930 C   0  0  0  0  0  0  0  0  0  0  0  0
   42.8570   34.0580   42.1700 N   0  0  0  0  0  0  0  0  0  0  0  0
   42.4080   33.6290   40.9750 C   0  0  0  0  0  0  0  0  0  0  0  0
   43.2460   33.5650   39.9270 N   0  0  0  0  0  0  0  0  0  0  0  0
   45.2700   33.9130   39.2980 H   0  0  0  0  0  0  0  0  0  0  0  0
   46.0280   34.6860   41.5020 H   0  0  0  0  0  0  0  0  0  0  0  0
   45.6050   34.3760   45.5200 H   0  0  0  0  0  0  0  0  0  0  0  0
   45.3010   34.0350   44.5220 C   0  0  0  0  0  0  0  0  0  0  0  0
   45.7780   32.8740   44.4180 O   0  0  0  0  0  0  0  0  0  0  0  0
   44.5360   34.8830   43.6850 N   0  0  0  0  0  0  0  0  0  0  0  0
   44.2940   35.8190   44.0790 H   0  0  0  0  0  0  0  0  0  0  0  0
  1  2  1  0  0  0  0
  2  3  1  0  0  0  0
  3 31  1  0  0  0  0
  3  4  2  0  0  0  0
  4  9  1  0  0  0  0
  5  4  1  0  0  0  0
  5 11  1  0  0  0  0
  6  5  2  0  0  0  0
  7  6  1  0  0  0  0
  8  2  2  0  0  0  0
  8  6  1  0  0  0  0
 10  8  1  0  0  0  0
 11 12  1  0  0  0  0
 12 13  2  0  0  0  0
 12 21  1  0  0  0  0
 13 22  1  0  0  0  0
 14 15  1  0  0  0  0
 14 13  1  0  0  0  0
 16 23  1  0  0  0  0
 16 15  2  0  0  0  0
 17 16  1  0  0  0  0
 18 17  2  0  0  0  0
 18 19  1  0  0  0  0
 19 14  2  0  0  0  0
 20 19  1  0  0  0  0
 20 11  2  0  0  0  0
 24 17  1  0  0  0  0
 25 18  1  0  0  0  0
 26 20  1  0  0  0  0
 27 28  1  0  0  0  0
 28 34  1  0  0  0  0
 28 29  2  0  0  0  0
 29 38  1  0  0  0  0
 30 29  1  0  0  0  0
 31 30  2  0  0  0  0
 32 27  2  0  0  0  0
 32 31  1  0  0  0  0
 33 27  1  0  0  0  0
 36 35  1  0  0  0  0
 37 36  2  0  0  0  0
 38 39  1  0  0  0  0
 38 36  1  0  0  0  0
M  END
>  <minimizedAffinity>
-6.32574749

$$$$

 OpenBabel03252506073D

 39 42  0  0  0  0  0  0  0  0999 V2000
   39.9730   30.8400   42.8290 Cl  0  0  0  0  0  0  0  0  0  0  0  0
   39.4650   29.2830   42.2860 C   0  0  0  0  0  0  0  0  0  0  0  0
   38.7320   29.1490   41.1260 C   0  0  0  0  0  0  0  0  0  0  0  0
   38.3700   27.8640   40.7710 C   0  0  0  0  0  0  0  0  0  0  0  0
   38.7010   26.7380   41.5060 C   0  0  0  0  0  0  0  0  0  0  0  0
   39.4280   26.9050   42.6490 C   0  0  0  0  0  0  0  0  0  0  0  0
   39.8240   25.4530   43.5480 Cl  0  0  0  0  0  0  0  0  0  0  0  0
   39.8090   28.1710   43.0390 C   0  0  0  0  0  0  0  0  0  0  0  0
   37.7940   27.7790   39.8570 H   0  0  0  0  0  0  0  0  0  0  0  0
   40.3820   28.2760   43.9460 H   0  0  0  0  0  0  0  0  0  0  0  0
   38.2290   25.4600   40.9710 C   0  0  0  0  0  0  0  0  0  0  0  0
   36.9870   24.9370   41.2380 C   0  0  0  0  0  0  0  0  0  0  0  0
   36.5260   23.7340   40.7430 C   0  0  0  0  0  0  0  0  0  0  0  0
   37.3480   22.9920   39.9270 C   0  0  0  0  0  0  0  0  0  0  0  0
   36.8690   21.8260   39.4620 N   0  0  0  0  0  0  0  0  0  0  0  0
   37.6130   21.0300   38.6510 C   0  0  0  0  0  0  0  0  0  0  0  0
   38.8920   21.4850   38.3270 C   0  0  0  0  0  0  0  0  0  0  0  0
   39.3670   22.6800   38.8100 C   0  0  0  0  0  0  0  0  0  0  0  0
   38.6060   23.4710   39.6270 C   0  0  0  0  0  0  0  0  0  0  0  0
   39.0260   24.6720   40.1400 C   0  0  0  0  0  0  0  0  0  0  0  0
   36.3090   25.4940   41.8790 H   0  0  0  0  0  0  0  0  0  0  0  0
   35.5280   23.3710   40.9900 H   0  0  0  0  0  0  0  0  0  0  0  0
   37.2520   20.0890   38.2630 H   0  0  0  0  0  0  0  0  0  0  0  0
   39.5500   20.9110   37.6840 H   0  0  0  0  0  0  0  0  0  0  0  0
   40.3540   23.0030   38.5440 H   0  0  0  0  0  0  0  0  0  0  0  0
   40.0380   25.0150   39.8740 H   0  0  0  0  0  0  0  0  0  0  0  0
   36.9200   32.0970   39.9660 C   0  0  0  0  0  0  0  0  0  0  0  0
   37.6090   32.4680   38.8130 C   0  0  0  0  0  0  0  0  0  0  0  0
   38.7200   31.6940   38.4190 C   0  0  0  0  0  0  0  0  0  0  0  0
   39.0400   30.6300   39.2040 N   0  0  0  0  0  0  0  0  0  0  0  0
   38.3550   30.2960   40.3140 C   0  0  0  0  0  0  0  0  0  0  0  0
   37.2950   31.0290   40.6950 N   0  0  0  0  0  0  0  0  0  0  0  0
   36.0940   32.7360   40.1920 H   0  0  0  0  0  0  0  0  0  0  0  0
   37.3830   33.2940   38.1780 H   0  0  0  0  0  0  0  0  0  0  0  0
   41.4390   32.6270   36.5040 H   0  0  0  0  0  0  0  0  0  0  0  0
   40.8390   32.4070   37.3970 C   0  0  0  0  0  0  0  0  0  0  0  0
   41.6120   32.6250   38.3670 O   0  0  0  0  0  0  0  0  0  0  0  0
   39.4960   31.9780   37.2630 N   0  0  0  0  0  0  0  0  0  0  0  0
   39.1380   31.8940   36.2860 H   0  0  0  0  0  0  0  0  0  0  0  0
  2  1  1  0  0  0  0
  2  8  1  0  0  0  0
  3  2  2  0  0  0  0
  4  3  1  0  0  0  0
  4  5  2  0  0  0  0
  5  6  1  0  0  0  0
  6  8  2  0  0  0  0
  6  7  1  0  0  0  0
  8 10  1  0  0  0  0
  9  4  1  0  0  0  0
 11 12  1  0  0  0  0
 11  5  1  0  0  0  0
 12 21  1  0  0  0  0
 13 22  1  0  0  0  0
 13 12  2  0  0  0  0
 14 13  1  0  0  0  0
 15 14  2  0  0  0  0
 16 15  1  0  0  0  0
 17 16  2  0  0  0  0
 17 18  1  0  0  0  0
 18 19  2  0  0  0  0
 19 14  1  0  0  0  0
 19 20  1  0  0  0  0
 20 11  2  0  0  0  0
 23 16  1  0  0  0  0
 24 17  1  0  0  0  0
 25 18  1  0  0  0  0
 26 20  1  0  0  0  0
 27 33  1  0  0  0  0
 27 32  1  0  0  0  0
 28 27  2  0  0  0  0
 29 28  1  0  0  0  0
 29 30  2  0  0  0  0
 30 31  1  0  0  0  0
 31 32  2  0  0  0  0
 31  3  1  0  0  0  0
 34 28  1  0  0  0  0
 35 36  1  0  0  0  0
 36 37  2  0  0  0  0
 38 36  1  0  0  0  0
 38 29  1  0  0  0  0
 39 38  1  0  0  0  0
M  END
>  <minimizedAffinity>
-6.13665342

$$$$

 OpenBabel03252506073D

 39 42  0  0  0  0  0  0  0  0999 V2000
   31.3220   27.5630   35.1960 Cl  0  0  0  0  0  0  0  0  0  0  0  0
   32.5720   27.9400   36.3240 C   0  0  0  0  0  0  0  0  0  0  0  0
   32.5120   29.0910   37.0800 C   0  0  0  0  0  0  0  0  0  0  0  0
   33.5580   29.3080   37.9560 C   0  0  0  0  0  0  0  0  0  0  0  0
   34.6330   28.4480   38.1030 C   0  0  0  0  0  0  0  0  0  0  0  0
   34.6620   27.3170   37.3390 C   0  0  0  0  0  0  0  0  0  0  0  0
   36.0420   26.2560   37.5580 Cl  0  0  0  0  0  0  0  0  0  0  0  0
   33.6380   27.0620   36.4530 C   0  0  0  0  0  0  0  0  0  0  0  0
   33.4930   30.2180   38.5410 H   0  0  0  0  0  0  0  0  0  0  0  0
   33.6850   26.1630   35.8610 H   0  0  0  0  0  0  0  0  0  0  0  0
   35.6460   28.8460   39.0810 C   0  0  0  0  0  0  0  0  0  0  0  0
   36.6000   29.8050   38.8400 C   0  0  0  0  0  0  0  0  0  0  0  0
   37.5620   30.1930   39.7500 C   0  0  0  0  0  0  0  0  0  0  0  0
   37.5880   29.5920   40.9860 C   0  0  0  0  0  0  0  0  0  0  0  0
   38.5370   29.9920   41.8500 N   0  0  0  0  0  0  0  0  0  0  0  0
   38.6350   29.4520   43.0920 C   0  0  0  0  0  0  0  0  0  0  0  0
   37.7040   28.4670   43.4240 C   0  0  0  0  0  0  0  0  0  0  0  0
   36.7390   28.0700   42.5300 C   0  0  0  0  0  0  0  0  0  0  0  0
   36.6520   28.6230   41.2820 C   0  0  0  0  0  0  0  0  0  0  0  0
   35.7120   28.2660   40.3480 C   0  0  0  0  0  0  0  0  0  0  0  0
   36.6120   30.3020   37.8730 H   0  0  0  0  0  0  0  0  0  0  0  0
   38.2940   30.9610   39.5000 H   0  0  0  0  0  0  0  0  0  0  0  0
   39.3880   29.7560   43.8040 H   0  0  0  0  0  0  0  0  0  0  0  0
   37.7120   27.9860   44.3950 H   0  0  0  0  0  0  0  0  0  0  0  0
   36.0360   27.3100   42.8140 H   0  0  0  0  0  0  0  0  0  0  0  0
   34.9850   27.4870   40.6270 H   0  0  0  0  0  0  0  0  0  0  0  0
   29.4420   30.9000   37.8650 C   0  0  0  0  0  0  0  0  0  0  0  0
   29.3070   31.7880   36.7990 C   0  0  0  0  0  0  0  0  0  0  0  0
   30.2870   31.7700   35.7850 C   0  0  0  0  0  0  0  0  0  0  0  0
   31.3030   30.8770   35.9260 N   0  0  0  0  0  0  0  0  0  0  0  0
   31.4080   30.0310   36.9680 C   0  0  0  0  0  0  0  0  0  0  0  0
   30.4770   30.0430   37.9380 N   0  0  0  0  0  0  0  0  0  0  0  0
   28.6570   30.9810   38.5870 H   0  0  0  0  0  0  0  0  0  0  0  0
   28.5240   32.4980   36.6600 H   0  0  0  0  0  0  0  0  0  0  0  0
   30.0950   32.7470   32.4780 H   0  0  0  0  0  0  0  0  0  0  0  0
   30.1230   32.0840   33.3520 C   0  0  0  0  0  0  0  0  0  0  0  0
   30.0200   30.9210   32.8790 O   0  0  0  0  0  0  0  0  0  0  0  0
   30.2520   32.6290   34.6540 N   0  0  0  0  0  0  0  0  0  0  0  0
   30.3160   33.6690   34.7100 H   0  0  0  0  0  0  0  0  0  0  0  0
  1  2  1  0  0  0  0
  2  8  2  0  0  0  0
  2  3  1  0  0  0  0
  3  4  2  0  0  0  0
  4  5  1  0  0  0  0
  4  9  1  0  0  0  0
  5 11  1  0  0  0  0
  6  7  1  0  0  0  0
  6  5  2  0  0  0  0
  8  6  1  0  0  0  0
 10  8  1  0  0  0  0
 11 20  1  0  0  0  0
 12 11  2  0  0  0  0
 12 13  1  0  0  0  0
 13 14  2  0  0  0  0
 14 19  1  0  0  0  0
 14 15  1  0  0  0  0
 15 16  2  0  0  0  0
 16 17  1  0  0  0  0
 16 23  1  0  0  0  0
 17 24  1  0  0  0  0
 18 25  1  0  0  0  0
 18 17  2  0  0  0  0
 19 18  1  0  0  0  0
 20 26  1  0  0  0  0
 20 19  2  0  0  0  0
 21 12  1  0  0  0  0
 22 13  1  0  0  0  0
 27 32  1  0  0  0  0
 27 33  1  0  0  0  0
 28 27  2  0  0  0  0
 29 30  2  0  0  0  0
 29 28  1  0  0  0  0
 30 31  1  0  0  0  0
 31  3  1  0  0  0  0
 31 32  2  0  0  0  0
 34 28  1  0  0  0  0
 35 36  1  0  0  0  0
 36 38  1  0  0  0  0
 37 36  2  0  0  0  0
 38 39  1  0  0  0  0
 38 29  1  0  0  0  0
M  END
>  <minimizedAffinity>
-6.06780195

$$$$

 OpenBabel03252506073D

 39 42  0  0  0  0  0  0  0  0999 V2000
   37.8970   33.7610   39.7380 Cl  0  0  0  0  0  0  0  0  0  0  0  0
   37.8120   32.0640   40.0420 C   0  0  0  0  0  0  0  0  0  0  0  0
   38.9620   31.3190   40.1940 C   0  0  0  0  0  0  0  0  0  0  0  0
   38.7940   29.9690   40.4340 C   0  0  0  0  0  0  0  0  0  0  0  0
   37.5600   29.3490   40.5250 C   0  0  0  0  0  0  0  0  0  0  0  0
   36.4400   30.1150   40.3700 C   0  0  0  0  0  0  0  0  0  0  0  0
   34.8990   29.2880   40.4930 Cl  0  0  0  0  0  0  0  0  0  0  0  0
   36.5640   31.4670   40.1290 C   0  0  0  0  0  0  0  0  0  0  0  0
   39.7100   29.4010   40.5500 H   0  0  0  0  0  0  0  0  0  0  0  0
   35.6650   32.0490   40.0100 H   0  0  0  0  0  0  0  0  0  0  0  0
   37.5820   27.9090   40.7840 C   0  0  0  0  0  0  0  0  0  0  0  0
   37.5370   27.3620   42.0450 C   0  0  0  0  0  0  0  0  0  0  0  0
   37.5570   26.0080   42.3080 C   0  0  0  0  0  0  0  0  0  0  0  0
   37.6260   25.1280   41.2540 C   0  0  0  0  0  0  0  0  0  0  0  0
   37.6430   23.8150   41.5440 N   0  0  0  0  0  0  0  0  0  0  0  0
   37.7110   22.8770   40.5660 C   0  0  0  0  0  0  0  0  0  0  0  0
   37.7600   23.3420   39.2510 C   0  0  0  0  0  0  0  0  0  0  0  0
   37.7410   24.6870   38.9710 C   0  0  0  0  0  0  0  0  0  0  0  0
   37.6730   25.6220   39.9670 C   0  0  0  0  0  0  0  0  0  0  0  0
   37.6510   26.9760   39.7490 C   0  0  0  0  0  0  0  0  0  0  0  0
   37.4830   28.0270   42.9030 H   0  0  0  0  0  0  0  0  0  0  0  0
   37.5190   25.6350   43.3310 H   0  0  0  0  0  0  0  0  0  0  0  0
   37.7260   21.8160   40.7720 H   0  0  0  0  0  0  0  0  0  0  0  0
   37.8140   22.6590   38.4110 H   0  0  0  0  0  0  0  0  0  0  0  0
   37.7790   25.0150   37.9500 H   0  0  0  0  0  0  0  0  0  0  0  0
   37.6910   27.3260   38.7060 H   0  0  0  0  0  0  0  0  0  0  0  0
   42.0860   32.5720   38.7840 C   0  0  0  0  0  0  0  0  0  0  0  0
   42.7810   33.0380   39.8990 C   0  0  0  0  0  0  0  0  0  0  0  0
   42.1700   32.9220   41.1650 C   0  0  0  0  0  0  0  0  0  0  0  0
   40.9330   32.3580   41.2030 N   0  0  0  0  0  0  0  0  0  0  0  0
   40.2850   31.9170   40.1080 C   0  0  0  0  0  0  0  0  0  0  0  0
   40.8620   32.0240   38.8980 N   0  0  0  0  0  0  0  0  0  0  0  0
   42.6200   32.6990   37.8670 H   0  0  0  0  0  0  0  0  0  0  0  0
   43.7500   33.4840   39.9010 H   0  0  0  0  0  0  0  0  0  0  0  0
   44.3130   32.9500   43.8730 H   0  0  0  0  0  0  0  0  0  0  0  0
   43.8380   32.6100   42.9440 C   0  0  0  0  0  0  0  0  0  0  0  0
   44.4390   31.5450   42.6450 O   0  0  0  0  0  0  0  0  0  0  0  0
   42.7850   33.3620   42.3680 N   0  0  0  0  0  0  0  0  0  0  0  0
   42.5090   34.2290   42.8790 H   0  0  0  0  0  0  0  0  0  0  0  0
  1  2  1  0  0  0  0
  2  8  2  0  0  0  0
  2  3  1  0  0  0  0
  3  4  2  0  0  0  0
  4  5  1  0  0  0  0
  4  9  1  0  0  0  0
  5 11  1  0  0  0  0
  6  7  1  0  0  0  0
  6  5  2  0  0  0  0
  8  6  1  0  0  0  0
 10  8  1  0  0  0  0
 11 12  1  0  0  0  0
 12 13  2  0  0  0  0
 12 21  1  0  0  0  0
 13 22  1  0  0  0  0
 14 15  1  0  0  0  0
 14 13  1  0  0  0  0
 16 23  1  0  0  0  0
 16 15  2  0  0  0  0
 17 16  1  0  0  0  0
 18 17  2  0  0  0  0
 18 19  1  0  0  0  0
 19 14  2  0  0  0  0
 20 19  1  0  0  0  0
 20 11  2  0  0  0  0
 24 17  1  0  0  0  0
 25 18  1  0  0  0  0
 26 20  1  0  0  0  0
 27 32  2  0  0  0  0
 27 28  1  0  0  0  0
 28 34  1  0  0  0  0
 28 29  2  0  0  0  0
 29 30  1  0  0  0  0
 29 38  1  0  0  0  0
 31  3  1  0  0  0  0
 31 30  2  0  0  0  0
 32 31  1  0  0  0  0
 33 27  1  0  0  0  0
 36 35  1  0  0  0  0
 37 36  2  0  0  0  0
 38 39  1  0  0  0  0
 38 36  1  0  0  0  0
M  END
>  <minimizedAffinity>
-5.94122982

$$$$

 OpenBabel03252506073D

 39 42  0  0  0  0  0  0  0  0999 V2000
   40.5830   31.1680   42.8490 Cl  0  0  0  0  0  0  0  0  0  0  0  0
   39.3500   30.4670   41.8660 C   0  0  0  0  0  0  0  0  0  0  0  0
   39.1140   30.9390   40.5920 C   0  0  0  0  0  0  0  0  0  0  0  0
   38.1070   30.3150   39.8810 C   0  0  0  0  0  0  0  0  0  0  0  0
   37.3470   29.2690   40.3750 C   0  0  0  0  0  0  0  0  0  0  0  0
   37.6070   28.8250   41.6410 C   0  0  0  0  0  0  0  0  0  0  0  0
   36.6200   27.4990   42.2260 Cl  0  0  0  0  0  0  0  0  0  0  0  0
   38.6030   29.4200   42.3840 C   0  0  0  0  0  0  0  0  0  0  0  0
   37.9370   30.7000   38.8830 H   0  0  0  0  0  0  0  0  0  0  0  0
   38.7880   29.0520   43.3800 H   0  0  0  0  0  0  0  0  0  0  0  0
   36.3250   28.7350   39.4740 C   0  0  0  0  0  0  0  0  0  0  0  0
   35.1100   29.3400   39.2600 C   0  0  0  0  0  0  0  0  0  0  0  0
   34.1350   28.8510   38.4150 C   0  0  0  0  0  0  0  0  0  0  0  0
   34.3730   27.6820   37.7320 C   0  0  0  0  0  0  0  0  0  0  0  0
   33.4030   27.2320   36.9170 N   0  0  0  0  0  0  0  0  0  0  0  0
   33.5540   26.0860   36.2050 C   0  0  0  0  0  0  0  0  0  0  0  0
   34.7610   25.4030   36.3620 C   0  0  0  0  0  0  0  0  0  0  0  0
   35.7420   25.8760   37.1990 C   0  0  0  0  0  0  0  0  0  0  0  0
   35.5770   27.0330   37.9100 C   0  0  0  0  0  0  0  0  0  0  0  0
   36.5200   27.5520   38.7600 C   0  0  0  0  0  0  0  0  0  0  0  0
   34.8850   30.2670   39.7820 H   0  0  0  0  0  0  0  0  0  0  0  0
   33.1890   29.3770   38.2850 H   0  0  0  0  0  0  0  0  0  0  0  0
   32.7900   25.7030   35.5430 H   0  0  0  0  0  0  0  0  0  0  0  0
   34.9620   24.4800   35.8300 H   0  0  0  0  0  0  0  0  0  0  0  0
   36.6600   25.3290   37.2990 H   0  0  0  0  0  0  0  0  0  0  0  0
   37.4660   27.0000   38.8720 H   0  0  0  0  0  0  0  0  0  0  0  0
   41.1130   32.8740   38.2310 C   0  0  0  0  0  0  0  0  0  0  0  0
   41.3350   34.0760   38.9020 C   0  0  0  0  0  0  0  0  0  0  0  0
   40.7890   34.2320   40.1930 C   0  0  0  0  0  0  0  0  0  0  0  0
   40.0790   33.1840   40.6930 N   0  0  0  0  0  0  0  0  0  0  0  0
   39.8810   32.0350   40.0210 C   0  0  0  0  0  0  0  0  0  0  0  0
   40.3990   31.8790   38.7900 N   0  0  0  0  0  0  0  0  0  0  0  0
   41.5610   32.8400   37.2610 H   0  0  0  0  0  0  0  0  0  0  0  0
   41.8860   34.9130   38.5390 H   0  0  0  0  0  0  0  0  0  0  0  0
   42.2990   36.5730   42.2340 H   0  0  0  0  0  0  0  0  0  0  0  0
   42.1750   35.6610   41.6350 C   0  0  0  0  0  0  0  0  0  0  0  0
   43.2740   35.0560   41.7350 O   0  0  0  0  0  0  0  0  0  0  0  0
   40.9500   35.4110   40.9690 N   0  0  0  0  0  0  0  0  0  0  0  0
   40.2070   36.1340   41.0900 H   0  0  0  0  0  0  0  0  0  0  0  0
  2  8  1  0  0  0  0
  2  1  1  0  0  0  0
  3  2  2  0  0  0  0
  4  5  2  0  0  0  0
  4  3  1  0  0  0  0
  5  6  1  0  0  0  0
  6  7  1  0  0  0  0
  6  8  2  0  0  0  0
  8 10  1  0  0  0  0
  9  4  1  0  0  0  0
 11  5  1  0  0  0  0
 12 11  1  0  0  0  0
 12 21  1  0  0  0  0
 13 12  2  0  0  0  0
 14 19  1  0  0  0  0
 14 13  1  0  0  0  0
 15 14  2  0  0  0  0
 16 17  2  0  0  0  0
 16 15  1  0  0  0  0
 17 18  1  0  0  0  0
 18 25  1  0  0  0  0
 18 19  2  0  0  0  0
 19 20  1  0  0  0  0
 20 26  1  0  0  0  0
 20 11  2  0  0  0  0
 22 13  1  0  0  0  0
 23 16  1  0  0  0  0
 24 17  1  0  0  0  0
 27 32  2  0  0  0  0
 27 28  1  0  0  0  0
 28 29  2  0  0  0  0
 29 30  1  0  0  0  0
 29 38  1  0  0  0  0
 31  3  1  0  0  0  0
 31 30  2  0  0  0  0
 32 31  1  0  0  0  0
 33 27  1  0  0  0  0
 34 28  1  0  0  0  0
 36 37  2  0  0  0  0
 36 35  1  0  0  0  0
 38 39  1  0  0  0  0
 38 36  1  0  0  0  0
M  END
>  <minimizedAffinity>
-5.92474222

$$$$
