
 OpenBabel03252507013D

 33 34  0  0  0  0  0  0  0  0999 V2000
   39.0490   29.4080   42.0640 N   0  0  0  0  0  0  0  0  0  0  0  0
   39.7700   28.2540   41.6820 C   0  0  0  0  0  0  0  0  0  0  0  0
   39.8920   27.5160   43.0220 C   0  0  0  0  0  0  0  0  0  0  0  0
   38.6030   27.2200   43.6790 C   0  0  0  0  0  0  0  0  0  0  0  0
   37.4130   27.9680   43.2120 C   0  0  0  0  0  0  0  0  0  0  0  0
   37.6390   29.1710   42.3520 C   0  0  0  0  0  0  0  0  0  0  0  0
   40.7530   28.3400   41.2520 H   0  0  0  0  0  0  0  0  0  0  0  0
   39.1860   27.6070   41.0290 H   0  0  0  0  0  0  0  0  0  0  0  0
   40.4190   26.5620   42.8030 H   0  0  0  0  0  0  0  0  0  0  0  0
   40.5830   28.1320   43.6390 H   0  0  0  0  0  0  0  0  0  0  0  0
   38.3080   26.1510   43.6260 H   0  0  0  0  0  0  0  0  0  0  0  0
   38.7110   27.4440   44.7630 H   0  0  0  0  0  0  0  0  0  0  0  0
   36.4050   27.7440   43.4500 H   0  0  0  0  0  0  0  0  0  0  0  0
   35.0780   30.6850   40.6890 H   0  0  0  0  0  0  0  0  0  0  0  0
   35.8630   29.9420   40.6950 C   0  0  0  0  0  0  0  0  0  0  0  0
   36.1570   29.1510   39.7680 O   0  0  0  0  0  0  0  0  0  0  0  0
   36.5480   29.9820   41.9420 N   0  0  0  0  0  0  0  0  0  0  0  0
   36.3640   30.5980   42.7420 H   0  0  0  0  0  0  0  0  0  0  0  0
   39.5310   30.6240   42.3900 C   0  0  0  0  0  0  0  0  0  0  0  0
   38.7290   31.3670   42.6760 H   0  0  0  0  0  0  0  0  0  0  0  0
   40.2540   30.7090   43.2550 H   0  0  0  0  0  0  0  0  0  0  0  0
   40.2390   31.2500   41.2140 C   0  0  0  0  0  0  0  0  0  0  0  0
   41.0760   30.7190   40.7990 H   0  0  0  0  0  0  0  0  0  0  0  0
   40.6780   32.2090   41.5990 H   0  0  0  0  0  0  0  0  0  0  0  0
   39.1990   31.7070   40.2680 C   0  0  0  0  0  0  0  0  0  0  0  0
   39.1140   31.1950   38.9910 C   0  0  0  0  0  0  0  0  0  0  0  0
   38.1090   31.6620   38.1370 C   0  0  0  0  0  0  0  0  0  0  0  0
   37.2580   32.6070   38.6260 N   0  0  0  0  0  0  0  0  0  0  0  0
   37.3740   33.0770   39.8710 C   0  0  0  0  0  0  0  0  0  0  0  0
   38.3400   32.6190   40.6660 N   0  0  0  0  0  0  0  0  0  0  0  0
   39.8030   30.4440   38.6270 H   0  0  0  0  0  0  0  0  0  0  0  0
   37.9770   31.3110   37.1250 H   0  0  0  0  0  0  0  0  0  0  0  0
   36.7040   33.8360   40.2860 H   0  0  0  0  0  0  0  0  0  0  0  0
  1  6  1  0  0  0  0
  1 19  1  0  0  0  0
  2  1  1  0  0  0  0
  2  3  1  0  0  0  0
  3 10  1  0  0  0  0
  3  4  1  0  0  0  0
  4 12  1  0  0  0  0
  5 13  1  0  0  0  0
  5  4  1  0  0  0  0
  6  5  2  0  0  0  0
  7  2  1  0  0  0  0
  8  2  1  0  0  0  0
  9  3  1  0  0  0  0
 11  4  1  0  0  0  0
 14 15  1  0  0  0  0
 15 17  1  0  0  0  0
 16 15  2  0  0  0  0
 17  6  1  0  0  0  0
 17 18  1  0  0  0  0
 19 20  1  0  0  0  0
 19 21  1  0  0  0  0
 22 24  1  0  0  0  0
 22 19  1  0  0  0  0
 23 22  1  0  0  0  0
 25 30  1  0  0  0  0
 25 22  1  0  0  0  0
 26 25  2  0  0  0  0
 27 28  2  0  0  0  0
 27 26  1  0  0  0  0
 28 29  1  0  0  0  0
 29 33  1  0  0  0  0
 29 30  2  0  0  0  0
 31 26  1  0  0  0  0
 32 27  1  0  0  0  0
M  END
>  <minimizedAffinity>
-4.38802147

$$$$

 OpenBabel03252507013D

 33 34  0  0  0  0  0  0  0  0999 V2000
   39.2460   31.8900   40.4680 N   0  0  0  0  0  0  0  0  0  0  0  0
   38.7300   31.4670   39.2210 C   0  0  0  0  0  0  0  0  0  0  0  0
   37.2900   31.9940   39.2960 C   0  0  0  0  0  0  0  0  0  0  0  0
   37.1800   33.4490   39.5190 C   0  0  0  0  0  0  0  0  0  0  0  0
   38.3830   34.1550   40.0190 C   0  0  0  0  0  0  0  0  0  0  0  0
   39.5050   33.3220   40.5580 C   0  0  0  0  0  0  0  0  0  0  0  0
   38.6940   30.4200   38.9710 H   0  0  0  0  0  0  0  0  0  0  0  0
   39.2020   31.9840   38.3880 H   0  0  0  0  0  0  0  0  0  0  0  0
   36.8150   31.7360   38.3240 H   0  0  0  0  0  0  0  0  0  0  0  0
   36.7870   31.3780   40.0740 H   0  0  0  0  0  0  0  0  0  0  0  0
   36.8690   34.0190   38.6180 H   0  0  0  0  0  0  0  0  0  0  0  0
   36.3780   33.6220   40.2700 H   0  0  0  0  0  0  0  0  0  0  0  0
   38.5190   35.2050   40.0540 H   0  0  0  0  0  0  0  0  0  0  0  0
   42.5870   34.6130   41.2260 H   0  0  0  0  0  0  0  0  0  0  0  0
   41.9290   34.1080   40.5330 C   0  0  0  0  0  0  0  0  0  0  0  0
   42.2100   33.7180   39.3750 O   0  0  0  0  0  0  0  0  0  0  0  0
   40.6480   33.9380   41.1310 N   0  0  0  0  0  0  0  0  0  0  0  0
   40.3470   34.2300   42.0680 H   0  0  0  0  0  0  0  0  0  0  0  0
   39.3280   31.1930   41.6180 C   0  0  0  0  0  0  0  0  0  0  0  0
   40.1140   31.5850   42.3290 H   0  0  0  0  0  0  0  0  0  0  0  0
   38.4160   31.1300   42.2820 H   0  0  0  0  0  0  0  0  0  0  0  0
   39.7260   29.7640   41.3470 C   0  0  0  0  0  0  0  0  0  0  0  0
   40.7340   29.4760   41.5850 H   0  0  0  0  0  0  0  0  0  0  0  0
   39.6520   29.6330   40.2340 H   0  0  0  0  0  0  0  0  0  0  0  0
   38.6430   28.9000   41.8640 C   0  0  0  0  0  0  0  0  0  0  0  0
   38.0090   27.9810   41.0550 C   0  0  0  0  0  0  0  0  0  0  0  0
   36.9920   27.1870   41.5970 C   0  0  0  0  0  0  0  0  0  0  0  0
   36.6860   27.3690   42.9110 N   0  0  0  0  0  0  0  0  0  0  0  0
   37.3250   28.2700   43.6610 C   0  0  0  0  0  0  0  0  0  0  0  0
   38.2890   29.0160   43.1240 N   0  0  0  0  0  0  0  0  0  0  0  0
   38.2720   27.8560   40.0130 H   0  0  0  0  0  0  0  0  0  0  0  0
   36.4490   26.4470   41.0290 H   0  0  0  0  0  0  0  0  0  0  0  0
   37.0960   28.4350   44.7190 H   0  0  0  0  0  0  0  0  0  0  0  0
  1  6  1  0  0  0  0
  1 19  1  0  0  0  0
  2  3  1  0  0  0  0
  2  1  1  0  0  0  0
  3  4  1  0  0  0  0
  3 10  1  0  0  0  0
  4  5  1  0  0  0  0
  4 12  1  0  0  0  0
  5 13  1  0  0  0  0
  5  6  2  0  0  0  0
  6 17  1  0  0  0  0
  7  2  1  0  0  0  0
  8  2  1  0  0  0  0
  9  3  1  0  0  0  0
 11  4  1  0  0  0  0
 15 17  1  0  0  0  0
 15 14  1  0  0  0  0
 16 15  2  0  0  0  0
 17 18  1  0  0  0  0
 19 21  1  0  0  0  0
 19 20  1  0  0  0  0
 22 23  1  0  0  0  0
 22 19  1  0  0  0  0
 22 25  1  0  0  0  0
 24 22  1  0  0  0  0
 25 30  1  0  0  0  0
 26 27  1  0  0  0  0
 26 25  2  0  0  0  0
 27 28  2  0  0  0  0
 28 29  1  0  0  0  0
 29 33  1  0  0  0  0
 30 29  2  0  0  0  0
 31 26  1  0  0  0  0
 32 27  1  0  0  0  0
M  END
>  <minimizedAffinity>
-4.38087511

$$$$

 OpenBabel03252507013D

 33 34  0  0  0  0  0  0  0  0999 V2000
   37.2350   31.2330   40.3040 N   0  0  0  0  0  0  0  0  0  0  0  0
   37.1940   31.8890   39.0530 C   0  0  0  0  0  0  0  0  0  0  0  0
   37.2360   33.3620   39.4830 C   0  0  0  0  0  0  0  0  0  0  0  0
   38.4060   33.7280   40.3060 C   0  0  0  0  0  0  0  0  0  0  0  0
   39.1690   32.6250   40.9340 C   0  0  0  0  0  0  0  0  0  0  0  0
   38.5370   31.2680   40.9610 C   0  0  0  0  0  0  0  0  0  0  0  0
   36.3550   31.7530   38.3910 H   0  0  0  0  0  0  0  0  0  0  0  0
   38.0980   31.7150   38.4710 H   0  0  0  0  0  0  0  0  0  0  0  0
   37.2470   33.9580   38.5450 H   0  0  0  0  0  0  0  0  0  0  0  0
   36.2570   33.5560   39.9760 H   0  0  0  0  0  0  0  0  0  0  0  0
   39.1660   34.3280   39.7630 H   0  0  0  0  0  0  0  0  0  0  0  0
   38.0510   34.3800   41.1350 H   0  0  0  0  0  0  0  0  0  0  0  0
   40.1190   32.7090   41.3930 H   0  0  0  0  0  0  0  0  0  0  0  0
   40.1700   28.3970   41.8010 H   0  0  0  0  0  0  0  0  0  0  0  0
   39.7650   29.0360   41.0290 C   0  0  0  0  0  0  0  0  0  0  0  0
   39.7910   28.8320   39.7920 O   0  0  0  0  0  0  0  0  0  0  0  0
   39.1760   30.1880   41.6240 N   0  0  0  0  0  0  0  0  0  0  0  0
   39.1180   30.4210   42.6220 H   0  0  0  0  0  0  0  0  0  0  0  0
   36.2050   30.7750   41.0410 C   0  0  0  0  0  0  0  0  0  0  0  0
   36.5160   30.3640   42.0470 H   0  0  0  0  0  0  0  0  0  0  0  0
   35.3760   31.4900   41.3220 H   0  0  0  0  0  0  0  0  0  0  0  0
   35.5220   29.6240   40.3450 C   0  0  0  0  0  0  0  0  0  0  0  0
   35.3620   29.7090   39.2860 H   0  0  0  0  0  0  0  0  0  0  0  0
   34.4880   29.5750   40.7820 H   0  0  0  0  0  0  0  0  0  0  0  0
   36.1540   28.3790   40.8310 C   0  0  0  0  0  0  0  0  0  0  0  0
   36.4700   27.3500   39.9690 C   0  0  0  0  0  0  0  0  0  0  0  0
   37.0700   26.1950   40.4820 C   0  0  0  0  0  0  0  0  0  0  0  0
   37.3130   26.1550   41.8210 N   0  0  0  0  0  0  0  0  0  0  0  0
   36.9920   27.1740   42.6220 C   0  0  0  0  0  0  0  0  0  0  0  0
   36.4210   28.2630   42.1130 N   0  0  0  0  0  0  0  0  0  0  0  0
   36.2660   27.4070   38.9080 H   0  0  0  0  0  0  0  0  0  0  0  0
   37.3470   25.3470   39.8720 H   0  0  0  0  0  0  0  0  0  0  0  0
   37.1770   27.1640   43.7010 H   0  0  0  0  0  0  0  0  0  0  0  0
  1  6  1  0  0  0  0
  1 19  1  0  0  0  0
  2  3  1  0  0  0  0
  2  1  1  0  0  0  0
  3 10  1  0  0  0  0
  3  4  1  0  0  0  0
  4  5  1  0  0  0  0
  4 12  1  0  0  0  0
  5  6  2  0  0  0  0
  5 13  1  0  0  0  0
  6 17  1  0  0  0  0
  7  2  1  0  0  0  0
  8  2  1  0  0  0  0
  9  3  1  0  0  0  0
 11  4  1  0  0  0  0
 15 17  1  0  0  0  0
 15 14  1  0  0  0  0
 16 15  2  0  0  0  0
 17 18  1  0  0  0  0
 19 21  1  0  0  0  0
 19 20  1  0  0  0  0
 22 24  1  0  0  0  0
 22 25  1  0  0  0  0
 22 19  1  0  0  0  0
 23 22  1  0  0  0  0
 25 30  1  0  0  0  0
 26 27  1  0  0  0  0
 26 25  2  0  0  0  0
 27 28  2  0  0  0  0
 28 29  1  0  0  0  0
 29 33  1  0  0  0  0
 30 29  2  0  0  0  0
 31 26  1  0  0  0  0
 32 27  1  0  0  0  0
M  END
>  <minimizedAffinity>
-4.3431406

$$$$

 OpenBabel03252507013D

 33 34  0  0  0  0  0  0  0  0999 V2000
   37.3160   26.6860   41.6980 N   0  0  0  0  0  0  0  0  0  0  0  0
   38.1770   25.6550   42.1380 C   0  0  0  0  0  0  0  0  0  0  0  0
   37.2180   24.4560   42.1750 C   0  0  0  0  0  0  0  0  0  0  0  0
   36.5520   24.1640   40.8910 C   0  0  0  0  0  0  0  0  0  0  0  0
   36.5620   25.2280   39.8600 C   0  0  0  0  0  0  0  0  0  0  0  0
   36.9530   26.6080   40.2880 C   0  0  0  0  0  0  0  0  0  0  0  0
   38.6700   25.7240   43.0930 H   0  0  0  0  0  0  0  0  0  0  0  0
   38.9380   25.4150   41.3970 H   0  0  0  0  0  0  0  0  0  0  0  0
   37.8320   23.5800   42.4780 H   0  0  0  0  0  0  0  0  0  0  0  0
   36.5160   24.6630   43.0130 H   0  0  0  0  0  0  0  0  0  0  0  0
   36.9470   23.2640   40.3750 H   0  0  0  0  0  0  0  0  0  0  0  0
   35.4830   23.9390   41.1020 H   0  0  0  0  0  0  0  0  0  0  0  0
   36.2920   25.1110   38.8430 H   0  0  0  0  0  0  0  0  0  0  0  0
   37.6280   29.1760   38.1500 H   0  0  0  0  0  0  0  0  0  0  0  0
   37.9970   28.4090   38.8170 C   0  0  0  0  0  0  0  0  0  0  0  0
   39.1950   28.1580   39.0870 O   0  0  0  0  0  0  0  0  0  0  0  0
   36.8990   27.6900   39.3700 N   0  0  0  0  0  0  0  0  0  0  0  0
   35.8990   27.8380   39.1970 H   0  0  0  0  0  0  0  0  0  0  0  0
   36.6400   27.5840   42.4420 C   0  0  0  0  0  0  0  0  0  0  0  0
   35.9460   28.2400   41.8380 H   0  0  0  0  0  0  0  0  0  0  0  0
   35.9590   27.2090   43.2620 H   0  0  0  0  0  0  0  0  0  0  0  0
   37.5900   28.5400   43.1170 C   0  0  0  0  0  0  0  0  0  0  0  0
   38.4970   28.1330   43.5260 H   0  0  0  0  0  0  0  0  0  0  0  0
   37.0370   28.9400   44.0090 H   0  0  0  0  0  0  0  0  0  0  0  0
   37.7220   29.7230   42.2400 C   0  0  0  0  0  0  0  0  0  0  0  0
   38.9320   30.3610   42.0700 C   0  0  0  0  0  0  0  0  0  0  0  0
   39.0000   31.4740   41.2250 C   0  0  0  0  0  0  0  0  0  0  0  0
   37.8500   31.8670   40.6090 N   0  0  0  0  0  0  0  0  0  0  0  0
   36.6970   31.2200   40.8010 C   0  0  0  0  0  0  0  0  0  0  0  0
   36.6550   30.1640   41.6100 N   0  0  0  0  0  0  0  0  0  0  0  0
   39.8310   30.0280   42.5710 H   0  0  0  0  0  0  0  0  0  0  0  0
   39.9090   32.0270   41.0410 H   0  0  0  0  0  0  0  0  0  0  0  0
   35.7610   31.5180   40.3180 H   0  0  0  0  0  0  0  0  0  0  0  0
  1  2  1  0  0  0  0
  1 19  1  0  0  0  0
  2  3  1  0  0  0  0
  2  7  1  0  0  0  0
  3  9  1  0  0  0  0
  3 10  1  0  0  0  0
  4 12  1  0  0  0  0
  4  3  1  0  0  0  0
  5  6  2  0  0  0  0
  5  4  1  0  0  0  0
  6  1  1  0  0  0  0
  8  2  1  0  0  0  0
 11  4  1  0  0  0  0
 13  5  1  0  0  0  0
 14 15  1  0  0  0  0
 15 16  2  0  0  0  0
 15 17  1  0  0  0  0
 17  6  1  0  0  0  0
 18 17  1  0  0  0  0
 19 22  1  0  0  0  0
 19 21  1  0  0  0  0
 20 19  1  0  0  0  0
 22 23  1  0  0  0  0
 22 24  1  0  0  0  0
 25 22  1  0  0  0  0
 26 25  1  0  0  0  0
 26 31  1  0  0  0  0
 27 26  2  0  0  0  0
 28 29  2  0  0  0  0
 28 27  1  0  0  0  0
 29 30  1  0  0  0  0
 30 25  2  0  0  0  0
 32 27  1  0  0  0  0
 33 29  1  0  0  0  0
M  END
>  <minimizedAffinity>
-4.29746199

$$$$

 OpenBabel03252507013D

 33 34  0  0  0  0  0  0  0  0999 V2000
   37.1170   28.8540   40.2480 N   0  0  0  0  0  0  0  0  0  0  0  0
   38.0270   29.3170   39.2710 C   0  0  0  0  0  0  0  0  0  0  0  0
   37.2050   30.4200   38.5910 C   0  0  0  0  0  0  0  0  0  0  0  0
   36.7260   31.4780   39.5020 C   0  0  0  0  0  0  0  0  0  0  0  0
   36.7410   31.1840   40.9540 C   0  0  0  0  0  0  0  0  0  0  0  0
   36.9300   29.7610   41.3750 C   0  0  0  0  0  0  0  0  0  0  0  0
   38.3960   28.6510   38.5080 H   0  0  0  0  0  0  0  0  0  0  0  0
   38.8900   29.8090   39.7170 H   0  0  0  0  0  0  0  0  0  0  0  0
   37.8700   30.8720   37.8220 H   0  0  0  0  0  0  0  0  0  0  0  0
   36.3930   29.8920   38.0430 H   0  0  0  0  0  0  0  0  0  0  0  0
   37.2720   32.4390   39.4000 H   0  0  0  0  0  0  0  0  0  0  0  0
   35.6710   31.7080   39.2370 H   0  0  0  0  0  0  0  0  0  0  0  0
   36.6050   31.8900   41.7320 H   0  0  0  0  0  0  0  0  0  0  0  0
   37.4590   28.4950   44.4950 H   0  0  0  0  0  0  0  0  0  0  0  0
   37.7840   28.5830   43.4670 C   0  0  0  0  0  0  0  0  0  0  0  0
   38.8030   28.0650   42.9530 O   0  0  0  0  0  0  0  0  0  0  0  0
   36.8670   29.3990   42.7460 N   0  0  0  0  0  0  0  0  0  0  0  0
   36.0170   29.8540   43.0990 H   0  0  0  0  0  0  0  0  0  0  0  0
   36.2680   27.8110   40.1710 C   0  0  0  0  0  0  0  0  0  0  0  0
   35.9940   27.3750   41.1780 H   0  0  0  0  0  0  0  0  0  0  0  0
   35.2540   27.9680   39.6960 H   0  0  0  0  0  0  0  0  0  0  0  0
   36.8940   26.6690   39.4100 C   0  0  0  0  0  0  0  0  0  0  0  0
   37.3850   26.9010   38.4820 H   0  0  0  0  0  0  0  0  0  0  0  0
   36.0430   25.9970   39.1160 H   0  0  0  0  0  0  0  0  0  0  0  0
   37.6500   25.8530   40.3840 C   0  0  0  0  0  0  0  0  0  0  0  0
   37.0120   25.1610   41.3910 C   0  0  0  0  0  0  0  0  0  0  0  0
   37.7760   24.4020   42.2840 C   0  0  0  0  0  0  0  0  0  0  0  0
   39.1260   24.3900   42.1020 N   0  0  0  0  0  0  0  0  0  0  0  0
   39.7060   25.0750   41.1120 C   0  0  0  0  0  0  0  0  0  0  0  0
   38.9580   25.7910   40.2750 N   0  0  0  0  0  0  0  0  0  0  0  0
   35.9370   25.1880   41.5130 H   0  0  0  0  0  0  0  0  0  0  0  0
   37.3510   23.8340   43.0970 H   0  0  0  0  0  0  0  0  0  0  0  0
   40.7880   25.0810   40.9470 H   0  0  0  0  0  0  0  0  0  0  0  0
  1  6  1  0  0  0  0
  2  8  1  0  0  0  0
  2  1  1  0  0  0  0
  3  2  1  0  0  0  0
  3  4  1  0  0  0  0
  4  5  1  0  0  0  0
  5  6  2  0  0  0  0
  5 13  1  0  0  0  0
  6 17  1  0  0  0  0
  7  2  1  0  0  0  0
  9  3  1  0  0  0  0
 10  3  1  0  0  0  0
 11  4  1  0  0  0  0
 12  4  1  0  0  0  0
 15 14  1  0  0  0  0
 16 15  2  0  0  0  0
 17 18  1  0  0  0  0
 17 15  1  0  0  0  0
 19  1  1  0  0  0  0
 19 20  1  0  0  0  0
 21 19  1  0  0  0  0
 22 19  1  0  0  0  0
 22 25  1  0  0  0  0
 23 22  1  0  0  0  0
 24 22  1  0  0  0  0
 25 26  1  0  0  0  0
 26 31  1  0  0  0  0
 26 27  2  0  0  0  0
 27 32  1  0  0  0  0
 28 27  1  0  0  0  0
 29 28  2  0  0  0  0
 30 25  2  0  0  0  0
 30 29  1  0  0  0  0
 33 29  1  0  0  0  0
M  END
>  <minimizedAffinity>
-4.29703093

$$$$

 OpenBabel03252507013D

 33 34  0  0  0  0  0  0  0  0999 V2000
   37.5480   29.6370   41.0810 N   0  0  0  0  0  0  0  0  0  0  0  0
   38.6140   29.3440   40.1990 C   0  0  0  0  0  0  0  0  0  0  0  0
   39.4520   30.6250   40.3020 C   0  0  0  0  0  0  0  0  0  0  0  0
   39.8920   30.9620   41.6700 C   0  0  0  0  0  0  0  0  0  0  0  0
   39.1910   30.2980   42.7940 C   0  0  0  0  0  0  0  0  0  0  0  0
   37.9060   29.5920   42.4940 C   0  0  0  0  0  0  0  0  0  0  0  0
   38.4230   29.1470   39.1580 H   0  0  0  0  0  0  0  0  0  0  0  0
   39.2420   28.5370   40.5720 H   0  0  0  0  0  0  0  0  0  0  0  0
   40.3450   30.4630   39.6600 H   0  0  0  0  0  0  0  0  0  0  0  0
   38.8440   31.4190   39.8130 H   0  0  0  0  0  0  0  0  0  0  0  0
   40.9700   30.7740   41.8540 H   0  0  0  0  0  0  0  0  0  0  0  0
   39.7540   32.0570   41.8150 H   0  0  0  0  0  0  0  0  0  0  0  0
   39.5040   30.2940   43.8060 H   0  0  0  0  0  0  0  0  0  0  0  0
   36.1850   27.5180   44.5790 H   0  0  0  0  0  0  0  0  0  0  0  0
   36.7650   27.6440   43.6760 C   0  0  0  0  0  0  0  0  0  0  0  0
   37.0790   26.7530   42.8520 O   0  0  0  0  0  0  0  0  0  0  0  0
   37.1420   29.0100   43.5390 N   0  0  0  0  0  0  0  0  0  0  0  0
   36.9230   29.7900   44.1700 H   0  0  0  0  0  0  0  0  0  0  0  0
   36.3350   30.1420   40.7860 C   0  0  0  0  0  0  0  0  0  0  0  0
   35.8930   30.7710   41.6150 H   0  0  0  0  0  0  0  0  0  0  0  0
   36.2320   30.8240   39.8900 H   0  0  0  0  0  0  0  0  0  0  0  0
   35.3360   29.0350   40.5630 C   0  0  0  0  0  0  0  0  0  0  0  0
   34.3310   29.1950   40.9110 H   0  0  0  0  0  0  0  0  0  0  0  0
   35.7070   28.1640   41.1680 H   0  0  0  0  0  0  0  0  0  0  0  0
   35.4960   28.5720   39.1680 C   0  0  0  0  0  0  0  0  0  0  0  0
   35.2930   29.4210   38.1010 C   0  0  0  0  0  0  0  0  0  0  0  0
   35.4620   28.9310   36.8010 C   0  0  0  0  0  0  0  0  0  0  0  0
   35.8240   27.6250   36.6640 N   0  0  0  0  0  0  0  0  0  0  0  0
   36.0120   26.8360   37.7250 C   0  0  0  0  0  0  0  0  0  0  0  0
   35.8450   27.3230   38.9520 N   0  0  0  0  0  0  0  0  0  0  0  0
   35.0050   30.4550   38.2370 H   0  0  0  0  0  0  0  0  0  0  0  0
   35.3210   29.5330   35.9160 H   0  0  0  0  0  0  0  0  0  0  0  0
   36.3020   25.7840   37.6390 H   0  0  0  0  0  0  0  0  0  0  0  0
  1  6  1  0  0  0  0
  2  3  1  0  0  0  0
  2  8  1  0  0  0  0
  2  1  1  0  0  0  0
  3  4  1  0  0  0  0
  4 12  1  0  0  0  0
  4 11  1  0  0  0  0
  4  5  1  0  0  0  0
  5 13  1  0  0  0  0
  6  5  2  0  0  0  0
  6 17  1  0  0  0  0
  7  2  1  0  0  0  0
  9  3  1  0  0  0  0
 10  3  1  0  0  0  0
 15 14  1  0  0  0  0
 16 15  2  0  0  0  0
 17 15  1  0  0  0  0
 17 18  1  0  0  0  0
 19  1  1  0  0  0  0
 19 20  1  0  0  0  0
 21 19  1  0  0  0  0
 22 19  1  0  0  0  0
 22 23  1  0  0  0  0
 22 24  1  0  0  0  0
 25 22  1  0  0  0  0
 26 31  1  0  0  0  0
 26 25  2  0  0  0  0
 27 26  1  0  0  0  0
 28 27  2  0  0  0  0
 28 29  1  0  0  0  0
 29 30  2  0  0  0  0
 30 25  1  0  0  0  0
 32 27  1  0  0  0  0
 33 29  1  0  0  0  0
M  END
>  <minimizedAffinity>
-4.21709824

$$$$

 OpenBabel03252507013D

 33 34  0  0  0  0  0  0  0  0999 V2000
   38.8760   28.3320   41.8510 N   0  0  0  0  0  0  0  0  0  0  0  0
   38.9920   27.9750   43.2140 C   0  0  0  0  0  0  0  0  0  0  0  0
   37.5320   28.0760   43.6780 C   0  0  0  0  0  0  0  0  0  0  0  0
   36.5890   27.2280   42.9220 C   0  0  0  0  0  0  0  0  0  0  0  0
   37.0430   26.7030   41.6140 C   0  0  0  0  0  0  0  0  0  0  0  0
   38.2720   27.3070   41.0090 C   0  0  0  0  0  0  0  0  0  0  0  0
   39.6010   28.5600   43.8830 H   0  0  0  0  0  0  0  0  0  0  0  0
   39.2820   26.9330   43.3390 H   0  0  0  0  0  0  0  0  0  0  0  0
   37.5260   27.7680   44.7470 H   0  0  0  0  0  0  0  0  0  0  0  0
   37.2860   29.1600   43.6540 H   0  0  0  0  0  0  0  0  0  0  0  0
   36.2390   26.3360   43.4820 H   0  0  0  0  0  0  0  0  0  0  0  0
   35.6740   27.8290   42.7210 H   0  0  0  0  0  0  0  0  0  0  0  0
   36.5630   25.9470   41.0470 H   0  0  0  0  0  0  0  0  0  0  0  0
   39.9190   25.9970   38.3280 H   0  0  0  0  0  0  0  0  0  0  0  0
   39.8570   26.1280   39.3990 C   0  0  0  0  0  0  0  0  0  0  0  0
   40.6490   25.6770   40.2600 O   0  0  0  0  0  0  0  0  0  0  0  0
   38.7100   26.9090   39.7190 N   0  0  0  0  0  0  0  0  0  0  0  0
   38.0210   27.3100   39.0720 H   0  0  0  0  0  0  0  0  0  0  0  0
   39.0540   29.5430   41.2870 C   0  0  0  0  0  0  0  0  0  0  0  0
   39.5490   30.2930   41.9740 H   0  0  0  0  0  0  0  0  0  0  0  0
   39.6860   29.6220   40.3540 H   0  0  0  0  0  0  0  0  0  0  0  0
   37.7270   30.1630   40.9260 C   0  0  0  0  0  0  0  0  0  0  0  0
   36.8920   29.9570   41.5700 H   0  0  0  0  0  0  0  0  0  0  0  0
   37.4390   29.7090   39.9390 H   0  0  0  0  0  0  0  0  0  0  0  0
   37.9810   31.5790   40.5870 C   0  0  0  0  0  0  0  0  0  0  0  0
   37.0840   32.3110   39.8390 C   0  0  0  0  0  0  0  0  0  0  0  0
   37.3730   33.6490   39.5500 C   0  0  0  0  0  0  0  0  0  0  0  0
   38.5400   34.1590   40.0350 N   0  0  0  0  0  0  0  0  0  0  0  0
   39.3820   33.4150   40.7580 C   0  0  0  0  0  0  0  0  0  0  0  0
   39.0870   32.1440   41.0190 N   0  0  0  0  0  0  0  0  0  0  0  0
   36.1640   31.8820   39.4660 H   0  0  0  0  0  0  0  0  0  0  0  0
   36.7230   34.2870   38.9700 H   0  0  0  0  0  0  0  0  0  0  0  0
   40.3250   33.8020   41.1560 H   0  0  0  0  0  0  0  0  0  0  0  0
  1  2  1  0  0  0  0
  2  8  1  0  0  0  0
  2  3  1  0  0  0  0
  2  7  1  0  0  0  0
  3  9  1  0  0  0  0
  4 11  1  0  0  0  0
  4  3  1  0  0  0  0
  5  4  1  0  0  0  0
  6  5  2  0  0  0  0
  6  1  1  0  0  0  0
 10  3  1  0  0  0  0
 12  4  1  0  0  0  0
 13  5  1  0  0  0  0
 14 15  1  0  0  0  0
 15 17  1  0  0  0  0
 15 16  2  0  0  0  0
 17  6  1  0  0  0  0
 18 17  1  0  0  0  0
 19  1  1  0  0  0  0
 19 20  1  0  0  0  0
 21 19  1  0  0  0  0
 22 19  1  0  0  0  0
 22 23  1  0  0  0  0
 24 22  1  0  0  0  0
 25 22  1  0  0  0  0
 25 30  1  0  0  0  0
 26 25  2  0  0  0  0
 27 26  1  0  0  0  0
 27 28  2  0  0  0  0
 28 29  1  0  0  0  0
 29 30  2  0  0  0  0
 29 33  1  0  0  0  0
 31 26  1  0  0  0  0
 32 27  1  0  0  0  0
M  END
>  <minimizedAffinity>
-4.19537926

$$$$

 OpenBabel03252507013D

 33 34  0  0  0  0  0  0  0  0999 V2000
   38.5420   27.3680   41.5440 N   0  0  0  0  0  0  0  0  0  0  0  0
   39.4910   27.9850   42.3910 C   0  0  0  0  0  0  0  0  0  0  0  0
   38.6660   29.1370   42.9810 C   0  0  0  0  0  0  0  0  0  0  0  0
   37.4350   28.7150   43.6790 C   0  0  0  0  0  0  0  0  0  0  0  0
   36.9370   27.3460   43.4130 C   0  0  0  0  0  0  0  0  0  0  0  0
   37.5120   26.6100   42.2440 C   0  0  0  0  0  0  0  0  0  0  0  0
   40.4010   28.3940   41.9860 H   0  0  0  0  0  0  0  0  0  0  0  0
   39.7660   27.3460   43.2280 H   0  0  0  0  0  0  0  0  0  0  0  0
   39.3340   29.6590   43.7000 H   0  0  0  0  0  0  0  0  0  0  0  0
   38.4900   29.8400   42.1370 H   0  0  0  0  0  0  0  0  0  0  0  0
   37.5000   28.7860   44.7840 H   0  0  0  0  0  0  0  0  0  0  0  0
   36.6190   29.4120   43.3840 H   0  0  0  0  0  0  0  0  0  0  0  0
   36.1860   26.8400   43.9640 H   0  0  0  0  0  0  0  0  0  0  0  0
   37.0830   23.3070   41.5210 H   0  0  0  0  0  0  0  0  0  0  0  0
   37.7420   24.1050   41.8320 C   0  0  0  0  0  0  0  0  0  0  0  0
   38.9600   24.0100   42.1130 O   0  0  0  0  0  0  0  0  0  0  0  0
   37.0170   25.3290   41.8830 N   0  0  0  0  0  0  0  0  0  0  0  0
   36.0250   25.4820   41.6690 H   0  0  0  0  0  0  0  0  0  0  0  0
   38.3510   27.5610   40.2240 C   0  0  0  0  0  0  0  0  0  0  0  0
   39.1630   28.1770   39.7350 H   0  0  0  0  0  0  0  0  0  0  0  0
   38.2940   26.6590   39.5450 H   0  0  0  0  0  0  0  0  0  0  0  0
   37.0770   28.3300   39.9760 C   0  0  0  0  0  0  0  0  0  0  0  0
   36.2790   28.2080   40.6850 H   0  0  0  0  0  0  0  0  0  0  0  0
   36.6610   27.9270   39.0140 H   0  0  0  0  0  0  0  0  0  0  0  0
   37.4600   29.7150   39.6280 C   0  0  0  0  0  0  0  0  0  0  0  0
   36.6380   30.7820   39.9180 C   0  0  0  0  0  0  0  0  0  0  0  0
   37.0510   32.0730   39.5690 C   0  0  0  0  0  0  0  0  0  0  0  0
   38.2610   32.2010   38.9570 N   0  0  0  0  0  0  0  0  0  0  0  0
   39.0290   31.1400   38.6950 C   0  0  0  0  0  0  0  0  0  0  0  0
   38.6150   29.9210   39.0350 N   0  0  0  0  0  0  0  0  0  0  0  0
   35.6810   30.6530   40.4050 H   0  0  0  0  0  0  0  0  0  0  0  0
   36.4640   32.9580   39.7610 H   0  0  0  0  0  0  0  0  0  0  0  0
   40.0040   31.2180   38.2030 H   0  0  0  0  0  0  0  0  0  0  0  0
  1  6  1  0  0  0  0
  1  2  1  0  0  0  0
  2  3  1  0  0  0  0
  2  8  1  0  0  0  0
  3  4  1  0  0  0  0
  3  9  1  0  0  0  0
  4 11  1  0  0  0  0
  5  4  1  0  0  0  0
  5 13  1  0  0  0  0
  6  5  2  0  0  0  0
  7  2  1  0  0  0  0
 10  3  1  0  0  0  0
 12  4  1  0  0  0  0
 14 15  1  0  0  0  0
 15 17  1  0  0  0  0
 15 16  2  0  0  0  0
 17  6  1  0  0  0  0
 18 17  1  0  0  0  0
 19  1  1  0  0  0  0
 20 19  1  0  0  0  0
 21 19  1  0  0  0  0
 22 19  1  0  0  0  0
 22 23  1  0  0  0  0
 24 22  1  0  0  0  0
 25 26  1  0  0  0  0
 25 22  1  0  0  0  0
 26 31  1  0  0  0  0
 27 32  1  0  0  0  0
 27 26  2  0  0  0  0
 28 27  1  0  0  0  0
 29 28  2  0  0  0  0
 29 30  1  0  0  0  0
 30 25  2  0  0  0  0
 33 29  1  0  0  0  0
M  END
>  <minimizedAffinity>
-4.19329453

$$$$

 OpenBabel03252507013D

 33 34  0  0  0  0  0  0  0  0999 V2000
   38.5880   28.4540   41.7600 N   0  0  0  0  0  0  0  0  0  0  0  0
   38.7170   27.3090   40.9420 C   0  0  0  0  0  0  0  0  0  0  0  0
   38.4640   26.1830   41.9550 C   0  0  0  0  0  0  0  0  0  0  0  0
   37.1670   26.2680   42.6540 C   0  0  0  0  0  0  0  0  0  0  0  0
   36.4530   27.5660   42.6110 C   0  0  0  0  0  0  0  0  0  0  0  0
   37.2180   28.7660   42.1490 C   0  0  0  0  0  0  0  0  0  0  0  0
   39.6430   27.1030   40.4310 H   0  0  0  0  0  0  0  0  0  0  0  0
   37.9180   27.2420   40.2050 H   0  0  0  0  0  0  0  0  0  0  0  0
   38.5080   25.2330   41.3780 H   0  0  0  0  0  0  0  0  0  0  0  0
   39.3460   26.1890   42.6330 H   0  0  0  0  0  0  0  0  0  0  0  0
   36.4220   25.5210   42.3100 H   0  0  0  0  0  0  0  0  0  0  0  0
   37.3410   26.0390   43.7290 H   0  0  0  0  0  0  0  0  0  0  0  0
   35.4480   27.7320   42.9020 H   0  0  0  0  0  0  0  0  0  0  0  0
   35.7870   31.7650   41.3890 H   0  0  0  0  0  0  0  0  0  0  0  0
   36.2070   30.8290   41.0460 C   0  0  0  0  0  0  0  0  0  0  0  0
   36.3290   30.4490   39.8580 O   0  0  0  0  0  0  0  0  0  0  0  0
   36.6190   30.0530   42.1660 N   0  0  0  0  0  0  0  0  0  0  0  0
   36.5510   30.2980   43.1610 H   0  0  0  0  0  0  0  0  0  0  0  0
   39.5600   29.1500   42.3820 C   0  0  0  0  0  0  0  0  0  0  0  0
   39.1870   30.0810   42.9030 H   0  0  0  0  0  0  0  0  0  0  0  0
   40.1560   28.6430   43.1980 H   0  0  0  0  0  0  0  0  0  0  0  0
   40.5820   29.6430   41.3880 C   0  0  0  0  0  0  0  0  0  0  0  0
   41.0420   28.9130   40.7460 H   0  0  0  0  0  0  0  0  0  0  0  0
   41.4290   30.0530   42.0000 H   0  0  0  0  0  0  0  0  0  0  0  0
   40.0190   30.8460   40.7390 C   0  0  0  0  0  0  0  0  0  0  0  0
   39.6810   31.9650   41.4690 C   0  0  0  0  0  0  0  0  0  0  0  0
   39.1540   33.0770   40.8040 C   0  0  0  0  0  0  0  0  0  0  0  0
   39.0060   32.9890   39.4530 N   0  0  0  0  0  0  0  0  0  0  0  0
   39.3470   31.8860   38.7810 C   0  0  0  0  0  0  0  0  0  0  0  0
   39.8450   30.8390   39.4360 N   0  0  0  0  0  0  0  0  0  0  0  0
   39.8090   32.0090   42.5430 H   0  0  0  0  0  0  0  0  0  0  0  0
   38.8650   33.9890   41.3050 H   0  0  0  0  0  0  0  0  0  0  0  0
   39.2360   31.7910   37.6970 H   0  0  0  0  0  0  0  0  0  0  0  0
  1  6  1  0  0  0  0
  1 19  1  0  0  0  0
  2  1  1  0  0  0  0
  2  3  1  0  0  0  0
  3 10  1  0  0  0  0
  3  4  1  0  0  0  0
  4 12  1  0  0  0  0
  5  4  1  0  0  0  0
  5 13  1  0  0  0  0
  6 17  1  0  0  0  0
  6  5  2  0  0  0  0
  7  2  1  0  0  0  0
  8  2  1  0  0  0  0
  9  3  1  0  0  0  0
 11  4  1  0  0  0  0
 15 14  1  0  0  0  0
 15 17  1  0  0  0  0
 16 15  2  0  0  0  0
 17 18  1  0  0  0  0
 19 20  1  0  0  0  0
 19 21  1  0  0  0  0
 22 24  1  0  0  0  0
 22 19  1  0  0  0  0
 23 22  1  0  0  0  0
 25 22  1  0  0  0  0
 25 26  1  0  0  0  0
 26 31  1  0  0  0  0
 27 32  1  0  0  0  0
 27 26  2  0  0  0  0
 28 27  1  0  0  0  0
 29 30  1  0  0  0  0
 29 28  2  0  0  0  0
 30 25  2  0  0  0  0
 33 29  1  0  0  0  0
M  END
>  <minimizedAffinity>
-4.19104385

$$$$
