
 OpenBabel03252508533D

 39 41  0  0  1  0  0  0  0  0999 V2000
   43.3480   34.5030   40.7260 C   0  0  0  0  0  0  0  0  0  0  0  0
   43.1130   35.7440   40.7860 O   0  0  0  0  0  0  0  0  0  0  0  0
   42.1760   34.0640   39.9800 N   0  0  0  0  0  0  0  0  0  0  0  0
   42.0390   34.6610   38.6640 C   0  0  0  0  0  0  0  0  0  0  0  0
   41.0110   35.7770   38.8470 C   0  0  0  0  0  0  0  0  0  0  0  0
   39.9920   35.2870   39.8690 C   0  0  0  0  0  0  0  0  0  0  0  0
   39.8520   33.7640   39.8360 C   0  0  0  0  0  0  0  0  0  0  0  0
   41.1290   33.1200   40.3680 C   0  0  2  0  0  0  0  0  0  0  0  0
   42.9980   35.0380   38.2690 H   0  0  0  0  0  0  0  0  0  0  0  0
   41.6010   33.9280   37.9440 H   0  0  0  0  0  0  0  0  0  0  0  0
   40.5100   36.0340   37.8830 H   0  0  0  0  0  0  0  0  0  0  0  0
   41.5630   36.6480   39.2520 H   0  0  0  0  0  0  0  0  0  0  0  0
   40.2280   35.6110   40.8920 H   0  0  0  0  0  0  0  0  0  0  0  0
   39.0020   35.6770   39.5320 H   0  0  0  0  0  0  0  0  0  0  0  0
   39.0610   33.5130   40.5490 H   0  0  0  0  0  0  0  0  0  0  0  0
   39.6140   33.4290   38.8130 H   0  0  0  0  0  0  0  0  0  0  0  0
   41.2680   32.1740   39.8260 H   0  0  0  0  0  0  0  0  0  0  0  0
   40.5790   31.3250   43.3370 H   0  0  0  0  0  0  0  0  0  0  0  0
   40.6610   31.6270   42.2950 C   0  0  0  0  0  0  0  0  0  0  0  0
   40.3510   30.7590   41.4090 O   0  0  0  0  0  0  0  0  0  0  0  0
   41.0820   32.9020   41.7800 N   0  0  0  0  0  0  0  0  0  0  0  0
   41.3330   33.6020   42.4860 H   0  0  0  0  0  0  0  0  0  0  0  0
   44.4140   33.8120   41.2310 O   0  0  0  0  0  0  0  0  0  0  0  0
   45.7400   34.1320   41.0860 C   0  0  0  0  0  0  0  0  0  0  0  0
   46.3830   34.7500   42.1650 C   0  0  0  0  0  0  0  0  0  0  0  0
   47.7440   35.0720   41.9990 C   0  0  0  0  0  0  0  0  0  0  0  0
   48.3450   34.7650   40.8140 N   0  0  0  0  0  0  0  0  0  0  0  0
   47.6840   34.1750   39.8180 C   0  0  0  0  0  0  0  0  0  0  0  0
   46.3750   33.8540   39.9470 N   0  0  0  0  0  0  0  0  0  0  0  0
   48.2310   35.5440   42.8270 H   0  0  0  0  0  0  0  0  0  0  0  0
   48.1680   33.9370   38.8850 H   0  0  0  0  0  0  0  0  0  0  0  0
   45.6500   35.0360   43.3910 C   0  0  0  0  0  0  0  0  0  0  0  0
   45.0400   36.2500   43.6330 C   0  0  0  0  0  0  0  0  0  0  0  0
   44.4770   36.0810   44.8870 C   0  0  0  0  0  0  0  0  0  0  0  0
   44.7350   34.8480   45.3590 N   0  0  0  0  0  0  0  0  0  0  0  0
   45.4460   34.2300   44.4390 N   0  0  0  0  0  0  0  0  0  0  0  0
   44.9930   37.1540   43.0050 H   0  0  0  0  0  0  0  0  0  0  0  0
   43.9060   36.8490   45.4090 H   0  0  0  0  0  0  0  0  0  0  0  0
   44.4210   34.4700   46.2840 H   0  0  0  0  0  0  0  0  0  0  0  0
  1  2  2  0  0  0  0
  1 23  1  0  0  0  0
  3  8  1  0  0  0  0
  3  1  1  0  0  0  0
  4  5  1  0  0  0  0
  4  3  1  0  0  0  0
  5 12  1  0  0  0  0
  5  6  1  0  0  0  0
  6 13  1  0  0  0  0
  7  6  1  0  0  0  0
  7  8  1  0  0  0  0
  7 15  1  0  0  0  0
  8 17  1  6  0  0  0
  8 21  1  0  0  0  0
  9  4  1  0  0  0  0
 10  4  1  0  0  0  0
 11  5  1  0  0  0  0
 14  6  1  0  0  0  0
 16  7  1  0  0  0  0
 19 18  1  0  0  0  0
 20 19  2  0  0  0  0
 21 19  1  0  0  0  0
 21 22  1  0  0  0  0
 24 23  1  0  0  0  0
 24 25  1  0  0  0  0
 25 32  1  0  0  0  0
 26 25  2  0  0  0  0
 26 30  1  0  0  0  0
 27 26  1  0  0  0  0
 28 29  1  0  0  0  0
 28 27  2  0  0  0  0
 29 24  2  0  0  0  0
 31 28  1  0  0  0  0
 32 33  1  0  0  0  0
 32 36  2  0  0  0  0
 33 34  2  0  0  0  0
 34 35  1  0  0  0  0
 34 38  1  0  0  0  0
 35 39  1  0  0  0  0
 36 35  1  0  0  0  0
 37 33  1  0  0  0  0
M  END
>  <minimizedAffinity>
-6.39552355

>  <minimizedRMSD>
1.0655309

$$$$
