
 OpenBabel03252504353D

 38 39  0  0  0  0  0  0  0  0999 V2000
   43.6880   35.0510   40.9110 C   0  0  0  0  0  0  0  0  0  0  0  0
   43.9310   35.5360   42.1360 C   0  0  0  0  0  0  0  0  0  0  0  0
   45.3120   35.5990   42.7520 C   0  0  0  0  0  0  0  0  0  0  0  0
   45.6550   36.6470   42.8360 H   0  0  0  0  0  0  0  0  0  0  0  0
   45.9630   35.0790   42.0140 H   0  0  0  0  0  0  0  0  0  0  0  0
   45.2560   34.9420   43.9620 O   0  0  0  0  0  0  0  0  0  0  0  0
   45.9350   32.7410   42.6170 O   0  0  0  0  0  0  0  0  0  0  0  0
   46.1410   33.5190   43.9060 P   0  0  1  0  0  0  0  0  0  0  0  0
   47.8110   33.8830   43.9680 O   0  0  0  0  0  0  0  0  0  0  0  0
   47.8890   34.7910   44.3700 H   0  0  0  0  0  0  0  0  0  0  0  0
   45.8160   32.5340   45.2230 O   0  0  0  0  0  0  0  0  0  0  0  0
   46.0680   33.1810   46.4300 C   0  0  0  0  0  0  0  0  0  0  0  0
   46.9680   32.4520   47.4020 C   0  0  0  0  0  0  0  0  0  0  0  0
   45.4760   32.5650   47.6610 C   0  0  0  0  0  0  0  0  0  0  0  0
   46.2070   34.2750   46.3280 H   0  0  0  0  0  0  0  0  0  0  0  0
   47.3910   31.4840   47.0760 H   0  0  0  0  0  0  0  0  0  0  0  0
   47.5870   33.1070   48.0260 H   0  0  0  0  0  0  0  0  0  0  0  0
   45.1400   33.2850   48.4350 H   0  0  0  0  0  0  0  0  0  0  0  0
   44.9350   31.6080   47.5560 H   0  0  0  0  0  0  0  0  0  0  0  0
   42.3740   35.0740   40.5120 O   0  0  0  0  0  0  0  0  0  0  0  0
   41.2440   35.2730   41.2320 C   0  0  0  0  0  0  0  0  0  0  0  0
   41.2900   35.5630   42.2770 H   0  0  0  0  0  0  0  0  0  0  0  0
   40.7190   36.1650   40.7440 H   0  0  0  0  0  0  0  0  0  0  0  0
   40.2220   33.2050   42.0600 C   0  0  0  0  0  0  0  0  0  0  0  0
   40.2230   34.1940   41.0630 C   0  0  0  0  0  0  0  0  0  0  0  0
   39.3220   34.0800   40.0490 C   0  0  0  0  0  0  0  0  0  0  0  0
   38.5010   33.0280   40.0830 N   0  0  0  0  0  0  0  0  0  0  0  0
   38.5070   32.1130   41.0160 C   0  0  0  0  0  0  0  0  0  0  0  0
   39.3930   32.1630   42.0760 N   0  0  0  0  0  0  0  0  0  0  0  0
   37.5760   31.0300   40.9410 N   0  0  0  0  0  0  0  0  0  0  0  0
   40.9190   33.2540   42.8860 H   0  0  0  0  0  0  0  0  0  0  0  0
   36.8130   30.9240   41.6390 H   0  0  0  0  0  0  0  0  0  0  0  0
   37.6800   30.3420   40.1610 H   0  0  0  0  0  0  0  0  0  0  0  0
   40.2370   35.3160   36.9660 H   0  0  0  0  0  0  0  0  0  0  0  0
   40.0640   34.7210   37.8700 C   0  0  0  0  0  0  0  0  0  0  0  0
   40.5660   33.5470   37.8320 O   0  0  0  0  0  0  0  0  0  0  0  0
   39.3570   35.1010   39.0610 N   0  0  0  0  0  0  0  0  0  0  0  0
   38.9690   36.0710   39.0360 H   0  0  0  0  0  0  0  0  0  0  0  0
  1  2  2  0  0  0  0
  2  3  1  0  0  0  0
  3  4  1  0  0  0  0
  3  6  1  0  0  0  0
  5  3  1  0  0  0  0
  8  7  2  6  0  0  0
  8  6  1  0  0  0  0
  8  9  1  0  0  0  0
  8 11  1  0  0  0  0
  9 10  1  0  0  0  0
 11 12  1  0  0  0  0
 12 13  1  0  0  0  0
 12 14  1  0  0  0  0
 13 14  1  0  0  0  0
 13 17  1  0  0  0  0
 14 18  1  0  0  0  0
 15 12  1  0  0  0  0
 16 13  1  0  0  0  0
 19 14  1  0  0  0  0
 20  1  1  0  0  0  0
 20 21  1  0  0  0  0
 21 22  1  0  0  0  0
 23 21  1  0  0  0  0
 24 29  1  0  0  0  0
 24 31  1  0  0  0  0
 25 21  1  0  0  0  0
 25 24  2  0  0  0  0
 26 27  2  0  0  0  0
 26 25  1  0  0  0  0
 27 28  1  0  0  0  0
 28 29  2  0  0  0  0
 30 28  1  0  0  0  0
 30 32  1  0  0  0  0
 33 30  1  0  0  0  0
 34 35  1  0  0  0  0
 35 37  1  0  0  0  0
 36 35  2  0  0  0  0
 37 26  1  0  0  0  0
 38 37  1  0  0  0  0
M  END
>  <minimizedAffinity>
-4.90399981

>  <minimizedRMSD>
0.712024689

$$$$
