
 OpenBabel03252508313D

 28 29  0  0  1  0  0  0  0  0999 V2000
   44.2100   34.4310   41.3320 N   0  0  0  0  0  0  0  0  0  0  0  0
   45.0200   33.6950   40.4620 C   0  0  1  0  0  0  0  0  0  0  0  0
   44.5020   33.4810   39.0770 C   0  0  0  0  0  0  0  0  0  0  0  0
   43.1190   33.3420   38.9350 N   0  0  0  0  0  0  0  0  0  0  0  0
   42.3220   34.0900   39.8240 C   0  0  0  0  0  0  0  0  0  0  0  0
   43.1190   35.0570   40.6720 C   0  0  0  0  0  0  0  0  0  0  0  0
   45.1540   32.6510   40.8830 H   0  0  0  0  0  0  0  0  0  0  0  0
   44.8440   34.3530   38.4430 H   0  0  0  0  0  0  0  0  0  0  0  0
   45.0490   32.6180   38.6380 H   0  0  0  0  0  0  0  0  0  0  0  0
   42.8420   33.3530   37.9490 H   0  0  0  0  0  0  0  0  0  0  0  0
   41.6020   34.7170   39.2320 H   0  0  0  0  0  0  0  0  0  0  0  0
   41.7020   33.4450   40.4880 H   0  0  0  0  0  0  0  0  0  0  0  0
   43.5660   35.8150   39.9610 H   0  0  0  0  0  0  0  0  0  0  0  0
   42.3890   35.5970   41.2520 H   0  0  0  0  0  0  0  0  0  0  0  0
   44.2890   35.7000   43.3570 C   0  0  0  0  0  0  0  0  0  0  0  0
   44.5290   34.4850   42.7090 C   0  0  0  0  0  0  0  0  0  0  0  0
   45.0560   33.4380   43.4550 C   0  0  0  0  0  0  0  0  0  0  0  0
   45.3250   33.6050   44.7720 N   0  0  0  0  0  0  0  0  0  0  0  0
   45.0770   34.8060   45.3670 C   0  0  0  0  0  0  0  0  0  0  0  0
   44.5720   35.8260   44.6750 N   0  0  0  0  0  0  0  0  0  0  0  0
   43.8900   36.6010   42.9360 H   0  0  0  0  0  0  0  0  0  0  0  0
   45.2410   32.4930   42.9830 H   0  0  0  0  0  0  0  0  0  0  0  0
   45.3050   34.9090   46.4310 H   0  0  0  0  0  0  0  0  0  0  0  0
   48.4360   34.6050   40.1100 H   0  0  0  0  0  0  0  0  0  0  0  0
   47.7050   33.9320   40.5250 C   0  0  0  0  0  0  0  0  0  0  0  0
   47.7510   32.8930   41.2680 O   0  0  0  0  0  0  0  0  0  0  0  0
   46.3550   34.2140   40.2070 N   0  0  0  0  0  0  0  0  0  0  0  0
   46.1250   35.0510   39.5880 H   0  0  0  0  0  0  0  0  0  0  0  0
  1 16  1  0  0  0  0
  2  7  1  1  0  0  0
  2  1  1  0  0  0  0
  3  2  1  0  0  0  0
  4  3  1  0  0  0  0
  4  5  1  0  0  0  0
  5 12  1  0  0  0  0
  5  6  1  0  0  0  0
  6 14  1  0  0  0  0
  6  1  1  0  0  0  0
  8  3  1  0  0  0  0
  9  3  1  0  0  0  0
 10  4  1  0  0  0  0
 11  5  1  0  0  0  0
 13  6  1  0  0  0  0
 15 20  1  0  0  0  0
 16 15  2  0  0  0  0
 16 17  1  0  0  0  0
 17 18  2  0  0  0  0
 18 19  1  0  0  0  0
 19 23  1  0  0  0  0
 20 19  2  0  0  0  0
 21 15  1  0  0  0  0
 22 17  1  0  0  0  0
 24 25  1  0  0  0  0
 25 26  2  0  0  0  0
 27  2  1  0  0  0  0
 27 25  1  0  0  0  0
 28 27  1  0  0  0  0
M  END
>  <minimizedAffinity>
-3.89060402

>  <minimizedRMSD>
1.50306797

$$$$
