
 OpenBabel03252500503D

 31 32  0  0  0  0  0  0  0  0999 V2000
   44.9950   34.8350   44.7460 C   0  0  0  0  0  0  0  0  0  0  0  0
   45.6070   34.3860   43.6020 C   0  0  0  0  0  0  0  0  0  0  0  0
   46.4490   33.2480   43.6150 C   0  0  0  0  0  0  0  0  0  0  0  0
   46.6180   32.6210   44.8280 N   0  0  0  0  0  0  0  0  0  0  0  0
   46.0190   33.0690   45.9220 C   0  0  0  0  0  0  0  0  0  0  0  0
   45.2210   34.1550   45.8840 N   0  0  0  0  0  0  0  0  0  0  0  0
   44.3530   35.6820   44.7990 H   0  0  0  0  0  0  0  0  0  0  0  0
   46.9390   32.8800   42.7230 H   0  0  0  0  0  0  0  0  0  0  0  0
   46.2090   32.3910   47.2010 C   0  0  0  0  0  0  0  0  0  0  0  0
   47.4310   31.9640   47.6220 C   0  0  0  0  0  0  0  0  0  0  0  0
   47.6250   31.3240   48.8250 C   0  0  0  0  0  0  0  0  0  0  0  0
   46.5360   31.1270   49.5940 N   0  0  0  0  0  0  0  0  0  0  0  0
   45.3510   31.5450   49.1770 C   0  0  0  0  0  0  0  0  0  0  0  0
   45.1150   32.1740   48.0100 N   0  0  0  0  0  0  0  0  0  0  0  0
   48.2960   32.1320   46.9870 H   0  0  0  0  0  0  0  0  0  0  0  0
   48.6020   30.9980   49.1300 H   0  0  0  0  0  0  0  0  0  0  0  0
   44.5390   31.3380   49.8720 H   0  0  0  0  0  0  0  0  0  0  0  0
   45.3880   35.0940   42.3450 C   0  0  0  0  0  0  0  0  0  0  0  0
   46.2880   35.0590   41.4800 O   0  0  0  0  0  0  0  0  0  0  0  0
   44.3480   35.8400   41.8660 O   0  0  0  0  0  0  0  0  0  0  0  0
   43.4630   35.3960   40.9120 C   0  0  0  0  0  0  0  0  0  0  0  0
   43.8240   34.6560   40.1770 H   0  0  0  0  0  0  0  0  0  0  0  0
   43.2400   36.2970   40.2630 H   0  0  0  0  0  0  0  0  0  0  0  0
   42.0920   35.0220   41.4570 C   0  0  0  0  0  0  0  0  0  0  0  0
   42.2510   34.6180   42.4790 H   0  0  0  0  0  0  0  0  0  0  0  0
   41.6900   34.1980   40.8410 H   0  0  0  0  0  0  0  0  0  0  0  0
   39.4990   37.1740   40.6370 H   0  0  0  0  0  0  0  0  0  0  0  0
   40.1960   36.3250   40.6120 C   0  0  0  0  0  0  0  0  0  0  0  0
   40.1200   35.4340   39.7250 O   0  0  0  0  0  0  0  0  0  0  0  0
   41.2360   36.1590   41.5730 N   0  0  0  0  0  0  0  0  0  0  0  0
   41.2900   36.9070   42.3060 H   0  0  0  0  0  0  0  0  0  0  0  0
  1  7  1  0  0  0  0
  1  6  1  0  0  0  0
  2  3  1  0  0  0  0
  2  1  2  0  0  0  0
  3  4  2  0  0  0  0
  4  5  1  0  0  0  0
  5  9  1  0  0  0  0
  6  5  2  0  0  0  0
  8  3  1  0  0  0  0
  9 10  2  0  0  0  0
  9 14  1  0  0  0  0
 10 11  1  0  0  0  0
 11 16  1  0  0  0  0
 11 12  2  0  0  0  0
 13 12  1  0  0  0  0
 13 17  1  0  0  0  0
 14 13  2  0  0  0  0
 15 10  1  0  0  0  0
 18  2  1  0  0  0  0
 19 18  2  0  0  0  0
 20 18  1  0  0  0  0
 21 24  1  0  0  0  0
 21 20  1  0  0  0  0
 22 21  1  0  0  0  0
 23 21  1  0  0  0  0
 24 30  1  0  0  0  0
 24 25  1  0  0  0  0
 26 24  1  0  0  0  0
 28 27  1  0  0  0  0
 28 30  1  0  0  0  0
 29 28  2  0  0  0  0
 30 31  1  0  0  0  0
M  END
>  <minimizedAffinity>
-5.07180309

>  <minimizedRMSD>
0.906710625

$$$$
