
 OpenBabel03252505093D

 39 41  0  0  1  0  0  0  0  0999 V2000
   37.5330   32.7290   40.0370 C   0  0  0  0  0  0  0  0  0  0  0  0
   37.1160   31.5460   40.6930 C   0  0  0  0  0  0  0  0  0  0  0  0
   38.0660   30.5000   40.7940 C   0  0  0  0  0  0  0  0  0  0  0  0
   39.3120   30.6660   40.2700 N   0  0  0  0  0  0  0  0  0  0  0  0
   39.6570   31.8160   39.6540 C   0  0  0  0  0  0  0  0  0  0  0  0
   38.7720   32.8530   39.5340 N   0  0  0  0  0  0  0  0  0  0  0  0
   36.8520   33.5520   39.9340 H   0  0  0  0  0  0  0  0  0  0  0  0
   36.1260   31.4540   41.0920 H   0  0  0  0  0  0  0  0  0  0  0  0
   41.0270   31.9530   39.0930 C   0  0  2  0  0  0  0  0  0  0  0  0
   41.8690   32.5030   40.2130 C   0  0  0  0  0  0  0  0  0  0  0  0
   42.2410   33.9180   40.1170 C   0  0  0  0  0  0  0  0  0  0  0  0
   42.9200   34.0780   38.7580 C   0  0  0  0  0  0  0  0  0  0  0  0
   42.0010   33.8340   37.6550 C   0  0  0  0  0  0  0  0  0  0  0  0
   41.0380   32.7250   37.8710 C   0  0  0  0  0  0  0  0  0  0  0  0
   41.3490   30.9070   38.8660 H   0  0  0  0  0  0  0  0  0  0  0  0
   41.4070   32.3470   41.2180 H   0  0  0  0  0  0  0  0  0  0  0  0
   42.8100   31.8910   40.2680 H   0  0  0  0  0  0  0  0  0  0  0  0
   41.4050   34.6180   40.2360 H   0  0  0  0  0  0  0  0  0  0  0  0
   43.0020   34.1450   40.8740 H   0  0  0  0  0  0  0  0  0  0  0  0
   43.8550   33.5230   38.7340 H   0  0  0  0  0  0  0  0  0  0  0  0
   43.1400   35.1820   38.7120 H   0  0  0  0  0  0  0  0  0  0  0  0
   41.8470   34.2670   36.7080 H   0  0  0  0  0  0  0  0  0  0  0  0
   40.0820   32.3860   36.8650 N   0  0  0  0  0  0  0  0  0  0  0  0
   40.3400   31.4910   36.4090 H   0  0  0  0  0  0  0  0  0  0  0  0
   39.2340   32.8940   36.5720 H   0  0  0  0  0  0  0  0  0  0  0  0
   37.6830   29.2640   41.4620 C   0  0  0  0  0  0  0  0  0  0  0  0
   37.5850   29.2580   42.8150 C   0  0  0  0  0  0  0  0  0  0  0  0
   37.2120   28.0370   43.4080 C   0  0  0  0  0  0  0  0  0  0  0  0
   36.9820   26.9700   42.5650 C   0  0  0  0  0  0  0  0  0  0  0  0
   37.0820   26.9840   41.2050 C   0  0  0  0  0  0  0  0  0  0  0  0
   37.4460   28.1860   40.6910 N   0  0  0  0  0  0  0  0  0  0  0  0
   37.7730   30.1120   43.4240 H   0  0  0  0  0  0  0  0  0  0  0  0
   37.1130   27.9590   44.4910 H   0  0  0  0  0  0  0  0  0  0  0  0
   36.6980   26.0620   43.0790 H   0  0  0  0  0  0  0  0  0  0  0  0
   36.5890   23.6890   40.4070 H   0  0  0  0  0  0  0  0  0  0  0  0
   36.7810   24.5610   41.0370 C   0  0  0  0  0  0  0  0  0  0  0  0
   36.9600   24.5100   42.2960 O   0  0  0  0  0  0  0  0  0  0  0  0
   36.8330   25.8460   40.3870 N   0  0  0  0  0  0  0  0  0  0  0  0
   36.7030   26.0130   39.3780 H   0  0  0  0  0  0  0  0  0  0  0  0
  1  2  1  0  0  0  0
  2  3  2  0  0  0  0
  2  8  1  0  0  0  0
  3 26  1  0  0  0  0
  4  3  1  0  0  0  0
  5  4  2  0  0  0  0
  6  5  1  0  0  0  0
  6  1  2  0  0  0  0
  7  1  1  0  0  0  0
  9 15  1  6  0  0  0
  9  5  1  0  0  0  0
  9 10  1  0  0  0  0
 10 17  1  0  0  0  0
 10 16  1  0  0  0  0
 11 10  1  0  0  0  0
 11 18  1  0  0  0  0
 11 19  1  0  0  0  0
 12 11  1  0  0  0  0
 13 14  2  0  0  0  0
 13 12  1  0  0  0  0
 14  9  1  0  0  0  0
 20 12  1  0  0  0  0
 21 12  1  0  0  0  0
 22 13  1  0  0  0  0
 23 14  1  0  0  0  0
 24 23  1  0  0  0  0
 25 23  1  0  0  0  0
 26 27  1  0  0  0  0
 27 28  2  0  0  0  0
 27 32  1  0  0  0  0
 28 33  1  0  0  0  0
 29 34  1  0  0  0  0
 29 28  1  0  0  0  0
 30 29  2  0  0  0  0
 31 30  1  0  0  0  0
 31 26  2  0  0  0  0
 35 36  1  0  0  0  0
 36 37  2  0  0  0  0
 38 36  1  0  0  0  0
 38 30  1  0  0  0  0
 39 38  1  0  0  0  0
M  END
>  <minimizedAffinity>
-6.52608252

$$$$

 OpenBabel03252505093D

 39 41  0  0  1  0  0  0  0  0999 V2000
   35.2360   29.3550   40.4160 C   0  0  0  0  0  0  0  0  0  0  0  0
   36.0840   30.4760   40.2480 C   0  0  0  0  0  0  0  0  0  0  0  0
   37.3370   30.4360   40.9070 C   0  0  0  0  0  0  0  0  0  0  0  0
   37.6710   29.3500   41.6570 N   0  0  0  0  0  0  0  0  0  0  0  0
   36.8230   28.3080   41.7840 C   0  0  0  0  0  0  0  0  0  0  0  0
   35.6030   28.3040   41.1650 N   0  0  0  0  0  0  0  0  0  0  0  0
   34.2750   29.3350   39.9380 H   0  0  0  0  0  0  0  0  0  0  0  0
   35.7840   31.3120   39.6480 H   0  0  0  0  0  0  0  0  0  0  0  0
   37.2270   27.1430   42.6160 C   0  0  2  0  0  0  0  0  0  0  0  0
   38.1340   27.7020   43.6800 C   0  0  0  0  0  0  0  0  0  0  0  0
   39.5670   27.4360   43.5220 C   0  0  0  0  0  0  0  0  0  0  0  0
   39.6960   25.9190   43.3980 C   0  0  0  0  0  0  0  0  0  0  0  0
   39.0650   25.4130   42.1870 C   0  0  0  0  0  0  0  0  0  0  0  0
   37.7880   26.0760   41.8190 C   0  0  0  0  0  0  0  0  0  0  0  0
   36.2780   26.7870   43.0880 H   0  0  0  0  0  0  0  0  0  0  0  0
   38.0120   28.8040   43.8160 H   0  0  0  0  0  0  0  0  0  0  0  0
   37.8010   27.2860   44.6690 H   0  0  0  0  0  0  0  0  0  0  0  0
   40.0360   27.9520   42.6760 H   0  0  0  0  0  0  0  0  0  0  0  0
   40.0920   27.7180   44.4440 H   0  0  0  0  0  0  0  0  0  0  0  0
   39.4050   25.4360   44.3280 H   0  0  0  0  0  0  0  0  0  0  0  0
   40.8010   25.7710   43.2310 H   0  0  0  0  0  0  0  0  0  0  0  0
   39.2990   24.6660   41.4850 H   0  0  0  0  0  0  0  0  0  0  0  0
   37.0690   25.6730   40.6520 N   0  0  0  0  0  0  0  0  0  0  0  0
   36.2150   25.1480   40.9170 H   0  0  0  0  0  0  0  0  0  0  0  0
   37.2920   25.8360   39.6590 H   0  0  0  0  0  0  0  0  0  0  0  0
   38.2450   31.5650   40.7610 C   0  0  0  0  0  0  0  0  0  0  0  0
   37.8190   32.6610   40.0850 C   0  0  0  0  0  0  0  0  0  0  0  0
   38.7380   33.7220   39.9760 C   0  0  0  0  0  0  0  0  0  0  0  0
   39.9750   33.5500   40.5610 C   0  0  0  0  0  0  0  0  0  0  0  0
   40.3960   32.4440   41.2400 C   0  0  0  0  0  0  0  0  0  0  0  0
   39.4690   31.4560   41.3120 N   0  0  0  0  0  0  0  0  0  0  0  0
   36.8500   32.7470   39.6500 H   0  0  0  0  0  0  0  0  0  0  0  0
   38.4640   34.6350   39.4470 H   0  0  0  0  0  0  0  0  0  0  0  0
   40.6350   34.3980   40.4440 H   0  0  0  0  0  0  0  0  0  0  0  0
   43.6830   33.1810   41.8590 H   0  0  0  0  0  0  0  0  0  0  0  0
   42.6920   33.2750   41.4110 C   0  0  0  0  0  0  0  0  0  0  0  0
   42.3730   34.1610   40.5550 O   0  0  0  0  0  0  0  0  0  0  0  0
   41.6890   32.3250   41.8230 N   0  0  0  0  0  0  0  0  0  0  0  0
   41.8270   31.5650   42.5050 H   0  0  0  0  0  0  0  0  0  0  0  0
  1  6  1  0  0  0  0
  2  1  2  0  0  0  0
  2  3  1  0  0  0  0
  3  4  2  0  0  0  0
  4  5  1  0  0  0  0
  5  9  1  0  0  0  0
  6  5  2  0  0  0  0
  7  1  1  0  0  0  0
  8  2  1  0  0  0  0
  9 15  1  1  0  0  0
  9 10  1  0  0  0  0
 10 16  1  0  0  0  0
 10 17  1  0  0  0  0
 11 10  1  0  0  0  0
 11 19  1  0  0  0  0
 12 11  1  0  0  0  0
 12 20  1  0  0  0  0
 13 12  1  0  0  0  0
 14 13  2  0  0  0  0
 14  9  1  0  0  0  0
 18 11  1  0  0  0  0
 21 12  1  0  0  0  0
 22 13  1  0  0  0  0
 23 24  1  0  0  0  0
 23 14  1  0  0  0  0
 25 23  1  0  0  0  0
 26  3  1  0  0  0  0
 26 31  1  0  0  0  0
 27 26  2  0  0  0  0
 28 27  1  0  0  0  0
 28 29  2  0  0  0  0
 29 30  1  0  0  0  0
 30 31  2  0  0  0  0
 30 38  1  0  0  0  0
 32 27  1  0  0  0  0
 33 28  1  0  0  0  0
 34 29  1  0  0  0  0
 36 38  1  0  0  0  0
 36 35  1  0  0  0  0
 37 36  2  0  0  0  0
 38 39  1  0  0  0  0
M  END
>  <minimizedAffinity>
-6.23185062

$$$$

 OpenBabel03252505093D

 39 41  0  0  1  0  0  0  0  0999 V2000
   38.8010   32.6450   40.5720 C   0  0  0  0  0  0  0  0  0  0  0  0
   37.9950   32.1030   39.5430 C   0  0  0  0  0  0  0  0  0  0  0  0
   37.6170   30.7440   39.6730 C   0  0  0  0  0  0  0  0  0  0  0  0
   38.0320   30.0280   40.7550 N   0  0  0  0  0  0  0  0  0  0  0  0
   38.8010   30.5960   41.7070 C   0  0  0  0  0  0  0  0  0  0  0  0
   39.1900   31.9050   41.6220 N   0  0  0  0  0  0  0  0  0  0  0  0
   39.1160   33.6700   40.5210 H   0  0  0  0  0  0  0  0  0  0  0  0
   37.6880   32.6990   38.7070 H   0  0  0  0  0  0  0  0  0  0  0  0
   39.2350   29.7760   42.8700 C   0  0  2  0  0  0  0  0  0  0  0  0
   40.5910   29.2370   42.5010 C   0  0  0  0  0  0  0  0  0  0  0  0
   40.6520   27.8200   42.1300 C   0  0  0  0  0  0  0  0  0  0  0  0
   40.0320   27.0580   43.3000 C   0  0  0  0  0  0  0  0  0  0  0  0
   38.6170   27.3640   43.4640 C   0  0  0  0  0  0  0  0  0  0  0  0
   38.2490   28.7830   43.2320 C   0  0  0  0  0  0  0  0  0  0  0  0
   39.3430   30.5070   43.7100 H   0  0  0  0  0  0  0  0  0  0  0  0
   41.0780   29.8180   41.6800 H   0  0  0  0  0  0  0  0  0  0  0  0
   41.2780   29.4070   43.3740 H   0  0  0  0  0  0  0  0  0  0  0  0
   40.1590   27.5750   41.1820 H   0  0  0  0  0  0  0  0  0  0  0  0
   41.7020   27.5040   42.0750 H   0  0  0  0  0  0  0  0  0  0  0  0
   40.6500   27.1590   44.1890 H   0  0  0  0  0  0  0  0  0  0  0  0
   40.0570   25.9880   42.9480 H   0  0  0  0  0  0  0  0  0  0  0  0
   37.7620   26.8050   43.7160 H   0  0  0  0  0  0  0  0  0  0  0  0
   36.8930   29.2130   43.3590 N   0  0  0  0  0  0  0  0  0  0  0  0
   36.7720   29.7770   44.2210 H   0  0  0  0  0  0  0  0  0  0  0  0
   36.0900   29.0360   42.7360 H   0  0  0  0  0  0  0  0  0  0  0  0
   36.7840   30.1430   38.6400 C   0  0  0  0  0  0  0  0  0  0  0  0
   35.6680   29.4690   39.0130 C   0  0  0  0  0  0  0  0  0  0  0  0
   34.9020   28.9090   37.9740 C   0  0  0  0  0  0  0  0  0  0  0  0
   35.3540   29.0960   36.6840 C   0  0  0  0  0  0  0  0  0  0  0  0
   36.4780   29.7760   36.3170 C   0  0  0  0  0  0  0  0  0  0  0  0
   37.1750   30.2920   37.3610 N   0  0  0  0  0  0  0  0  0  0  0  0
   35.3600   29.3510   40.0270 H   0  0  0  0  0  0  0  0  0  0  0  0
   33.9910   28.3540   38.1990 H   0  0  0  0  0  0  0  0  0  0  0  0
   34.7230   28.6440   35.9310 H   0  0  0  0  0  0  0  0  0  0  0  0
   36.6000   29.2070   32.9410 H   0  0  0  0  0  0  0  0  0  0  0  0
   36.2790   29.0830   33.9780 C   0  0  0  0  0  0  0  0  0  0  0  0
   35.4060   28.2410   34.3620 O   0  0  0  0  0  0  0  0  0  0  0  0
   36.8940   29.9350   34.9650 N   0  0  0  0  0  0  0  0  0  0  0  0
   37.6090   30.6520   34.7760 H   0  0  0  0  0  0  0  0  0  0  0  0
  1  6  1  0  0  0  0
  2  3  1  0  0  0  0
  2  1  2  0  0  0  0
  3  4  2  0  0  0  0
  4  5  1  0  0  0  0
  5  9  1  0  0  0  0
  6  5  2  0  0  0  0
  7  1  1  0  0  0  0
  8  2  1  0  0  0  0
  9 14  1  0  0  0  0
  9 15  1  1  0  0  0
 10  9  1  0  0  0  0
 10 17  1  0  0  0  0
 11 10  1  0  0  0  0
 11 12  1  0  0  0  0
 12 13  1  0  0  0  0
 12 20  1  0  0  0  0
 13 22  1  0  0  0  0
 14 23  1  0  0  0  0
 14 13  2  0  0  0  0
 16 10  1  0  0  0  0
 18 11  1  0  0  0  0
 19 11  1  0  0  0  0
 21 12  1  0  0  0  0
 23 24  1  0  0  0  0
 25 23  1  0  0  0  0
 26 27  1  0  0  0  0
 26  3  1  0  0  0  0
 27 32  1  0  0  0  0
 28 33  1  0  0  0  0
 28 27  2  0  0  0  0
 29 28  1  0  0  0  0
 30 29  2  0  0  0  0
 30 31  1  0  0  0  0
 31 26  2  0  0  0  0
 34 29  1  0  0  0  0
 35 36  1  0  0  0  0
 36 37  2  0  0  0  0
 36 38  1  0  0  0  0
 38 30  1  0  0  0  0
 39 38  1  0  0  0  0
M  END
>  <minimizedAffinity>
-6.20222044

$$$$

 OpenBabel03252505093D

 39 41  0  0  1  0  0  0  0  0999 V2000
   33.2540   26.9180   36.2800 C   0  0  0  0  0  0  0  0  0  0  0  0
   34.3250   27.3930   37.0730 C   0  0  0  0  0  0  0  0  0  0  0  0
   34.1390   28.6360   37.7250 C   0  0  0  0  0  0  0  0  0  0  0  0
   32.9660   29.3120   37.5690 N   0  0  0  0  0  0  0  0  0  0  0  0
   31.9770   28.8120   36.7990 C   0  0  0  0  0  0  0  0  0  0  0  0
   32.1140   27.6150   36.1510 N   0  0  0  0  0  0  0  0  0  0  0  0
   33.3440   25.9810   35.7640 H   0  0  0  0  0  0  0  0  0  0  0  0
   35.2330   26.8310   37.1710 H   0  0  0  0  0  0  0  0  0  0  0  0
   30.7140   29.5850   36.6540 C   0  0  2  0  0  0  0  0  0  0  0  0
   30.8410   30.3230   35.3480 C   0  0  0  0  0  0  0  0  0  0  0  0
   31.1110   31.7610   35.4340 C   0  0  0  0  0  0  0  0  0  0  0  0
   30.0050   32.3400   36.3140 C   0  0  0  0  0  0  0  0  0  0  0  0
   30.0760   31.8420   37.6810 C   0  0  0  0  0  0  0  0  0  0  0  0
   30.4470   30.4090   37.8100 C   0  0  0  0  0  0  0  0  0  0  0  0
   29.9140   28.8090   36.5650 H   0  0  0  0  0  0  0  0  0  0  0  0
   31.6120   29.8780   34.6730 H   0  0  0  0  0  0  0  0  0  0  0  0
   29.8860   30.1730   34.7750 H   0  0  0  0  0  0  0  0  0  0  0  0
   32.1060   32.0160   35.8160 H   0  0  0  0  0  0  0  0  0  0  0  0
   30.9870   32.2130   34.4420 H   0  0  0  0  0  0  0  0  0  0  0  0
   29.0410   32.2480   35.8200 H   0  0  0  0  0  0  0  0  0  0  0  0
   30.2830   33.4290   36.3890 H   0  0  0  0  0  0  0  0  0  0  0  0
   29.9230   32.2630   38.6330 H   0  0  0  0  0  0  0  0  0  0  0  0
   30.5530   29.7990   39.0970 N   0  0  0  0  0  0  0  0  0  0  0  0
   29.7550   29.1570   39.2590 H   0  0  0  0  0  0  0  0  0  0  0  0
   31.2780   29.9200   39.8210 H   0  0  0  0  0  0  0  0  0  0  0  0
   35.2130   29.1640   38.5550 C   0  0  0  0  0  0  0  0  0  0  0  0
   36.1170   30.0040   37.9930 C   0  0  0  0  0  0  0  0  0  0  0  0
   37.1330   30.4840   38.8420 C   0  0  0  0  0  0  0  0  0  0  0  0
   37.1140   30.0580   40.1540 C   0  0  0  0  0  0  0  0  0  0  0  0
   36.2010   29.2130   40.7110 C   0  0  0  0  0  0  0  0  0  0  0  0
   35.2470   28.7840   39.8460 N   0  0  0  0  0  0  0  0  0  0  0  0
   36.0890   30.3050   36.9710 H   0  0  0  0  0  0  0  0  0  0  0  0
   37.8940   31.1640   38.4590 H   0  0  0  0  0  0  0  0  0  0  0  0
   37.9180   30.4610   40.7540 H   0  0  0  0  0  0  0  0  0  0  0  0
   37.4750   28.7370   43.8540 H   0  0  0  0  0  0  0  0  0  0  0  0
   37.4520   29.0490   42.8080 C   0  0  0  0  0  0  0  0  0  0  0  0
   38.4240   29.6040   42.2040 O   0  0  0  0  0  0  0  0  0  0  0  0
   36.2340   28.8080   42.0750 N   0  0  0  0  0  0  0  0  0  0  0  0
   35.3830   28.3680   42.4550 H   0  0  0  0  0  0  0  0  0  0  0  0
  1  2  1  0  0  0  0
  2  8  1  0  0  0  0
  2  3  2  0  0  0  0
  3 26  1  0  0  0  0
  4  3  1  0  0  0  0
  5  4  2  0  0  0  0
  6  1  2  0  0  0  0
  6  5  1  0  0  0  0
  7  1  1  0  0  0  0
  9 15  1  6  0  0  0
  9  5  1  0  0  0  0
  9 14  1  0  0  0  0
 10 11  1  0  0  0  0
 10  9  1  0  0  0  0
 11 18  1  0  0  0  0
 11 12  1  0  0  0  0
 12 21  1  0  0  0  0
 12 13  1  0  0  0  0
 13 14  2  0  0  0  0
 13 22  1  0  0  0  0
 14 23  1  0  0  0  0
 16 10  1  0  0  0  0
 17 10  1  0  0  0  0
 19 11  1  0  0  0  0
 20 12  1  0  0  0  0
 23 24  1  0  0  0  0
 23 25  1  0  0  0  0
 26 31  1  0  0  0  0
 27 26  2  0  0  0  0
 27 28  1  0  0  0  0
 28 29  2  0  0  0  0
 29 30  1  0  0  0  0
 29 34  1  0  0  0  0
 30 38  1  0  0  0  0
 31 30  2  0  0  0  0
 32 27  1  0  0  0  0
 33 28  1  0  0  0  0
 36 35  1  0  0  0  0
 37 36  2  0  0  0  0
 38 39  1  0  0  0  0
 38 36  1  0  0  0  0
M  END
>  <minimizedAffinity>
-5.96706629

$$$$

 OpenBabel03252505093D

 39 41  0  0  1  0  0  0  0  0999 V2000
   37.9510   24.5370   41.9860 C   0  0  0  0  0  0  0  0  0  0  0  0
   39.2750   24.8180   42.4010 C   0  0  0  0  0  0  0  0  0  0  0  0
   39.6500   26.1820   42.4680 C   0  0  0  0  0  0  0  0  0  0  0  0
   38.7480   27.1480   42.1390 N   0  0  0  0  0  0  0  0  0  0  0  0
   37.4980   26.8240   41.7490 C   0  0  0  0  0  0  0  0  0  0  0  0
   37.0920   25.5190   41.6700 N   0  0  0  0  0  0  0  0  0  0  0  0
   37.6170   23.5200   41.9180 H   0  0  0  0  0  0  0  0  0  0  0  0
   39.9560   24.0290   42.6520 H   0  0  0  0  0  0  0  0  0  0  0  0
   36.5460   27.9100   41.3960 C   0  0  2  0  0  0  0  0  0  0  0  0
   36.5750   28.0010   39.8940 C   0  0  0  0  0  0  0  0  0  0  0  0
   37.2950   29.1420   39.3220 C   0  0  0  0  0  0  0  0  0  0  0  0
   36.6750   30.3850   39.9580 C   0  0  0  0  0  0  0  0  0  0  0  0
   36.9170   30.4430   41.3940 C   0  0  0  0  0  0  0  0  0  0  0  0
   36.8400   29.1390   42.0980 C   0  0  0  0  0  0  0  0  0  0  0  0
   35.5460   27.5320   41.7250 H   0  0  0  0  0  0  0  0  0  0  0  0
   36.9790   27.0760   39.4140 H   0  0  0  0  0  0  0  0  0  0  0  0
   35.5120   28.0310   39.5310 H   0  0  0  0  0  0  0  0  0  0  0  0
   38.3810   29.1140   39.4650 H   0  0  0  0  0  0  0  0  0  0  0  0
   37.0810   29.2040   38.2470 H   0  0  0  0  0  0  0  0  0  0  0  0
   35.6410   30.4970   39.6420 H   0  0  0  0  0  0  0  0  0  0  0  0
   37.2900   31.2250   39.5280 H   0  0  0  0  0  0  0  0  0  0  0  0
   37.1400   31.2110   42.0780 H   0  0  0  0  0  0  0  0  0  0  0  0
   37.0590   29.0600   43.5080 N   0  0  0  0  0  0  0  0  0  0  0  0
   36.1650   28.8850   44.0030 H   0  0  0  0  0  0  0  0  0  0  0  0
   37.9390   29.1500   44.0380 H   0  0  0  0  0  0  0  0  0  0  0  0
   41.0020   26.5200   42.8930 C   0  0  0  0  0  0  0  0  0  0  0  0
   41.3080   27.8220   43.1160 C   0  0  0  0  0  0  0  0  0  0  0  0
   42.6280   28.0910   43.5250 C   0  0  0  0  0  0  0  0  0  0  0  0
   43.4800   27.0140   43.6590 C   0  0  0  0  0  0  0  0  0  0  0  0
   43.1640   25.7070   43.4320 C   0  0  0  0  0  0  0  0  0  0  0  0
   41.8800   25.5100   43.0400 N   0  0  0  0  0  0  0  0  0  0  0  0
   40.6120   28.6210   42.9990 H   0  0  0  0  0  0  0  0  0  0  0  0
   42.9450   29.1150   43.7240 H   0  0  0  0  0  0  0  0  0  0  0  0
   44.4780   27.2840   43.9750 H   0  0  0  0  0  0  0  0  0  0  0  0
   46.1950   24.1540   43.7980 H   0  0  0  0  0  0  0  0  0  0  0  0
   45.4870   24.9770   43.6790 C   0  0  0  0  0  0  0  0  0  0  0  0
   45.8180   26.2040   43.6180 O   0  0  0  0  0  0  0  0  0  0  0  0
   44.0890   24.6370   43.5870 N   0  0  0  0  0  0  0  0  0  0  0  0
   43.7010   23.6830   43.6240 H   0  0  0  0  0  0  0  0  0  0  0  0
  1  2  1  0  0  0  0
  2  3  2  0  0  0  0
  2  8  1  0  0  0  0
  3 26  1  0  0  0  0
  4  3  1  0  0  0  0
  5  4  2  0  0  0  0
  6  5  1  0  0  0  0
  6  1  2  0  0  0  0
  7  1  1  0  0  0  0
  9 15  1  1  0  0  0
  9  5  1  0  0  0  0
  9 14  1  0  0  0  0
 10  9  1  0  0  0  0
 11 18  1  0  0  0  0
 11 10  1  0  0  0  0
 11 12  1  0  0  0  0
 12 13  1  0  0  0  0
 13 22  1  0  0  0  0
 13 14  2  0  0  0  0
 14 23  1  0  0  0  0
 16 10  1  0  0  0  0
 17 10  1  0  0  0  0
 19 11  1  0  0  0  0
 20 12  1  0  0  0  0
 21 12  1  0  0  0  0
 23 24  1  0  0  0  0
 23 25  1  0  0  0  0
 26 31  2  0  0  0  0
 26 27  1  0  0  0  0
 27 28  2  0  0  0  0
 28 29  1  0  0  0  0
 28 33  1  0  0  0  0
 29 34  1  0  0  0  0
 30 38  1  0  0  0  0
 30 29  2  0  0  0  0
 31 30  1  0  0  0  0
 32 27  1  0  0  0  0
 36 35  1  0  0  0  0
 37 36  2  0  0  0  0
 38 39  1  0  0  0  0
 38 36  1  0  0  0  0
M  END
>  <minimizedAffinity>
-5.92557955

$$$$

 OpenBabel03252505093D

 39 41  0  0  1  0  0  0  0  0999 V2000
   35.9640   24.3620   39.2250 C   0  0  0  0  0  0  0  0  0  0  0  0
   35.9980   25.4880   38.3690 C   0  0  0  0  0  0  0  0  0  0  0  0
   36.5490   26.6800   38.8990 C   0  0  0  0  0  0  0  0  0  0  0  0
   37.0130   26.6980   40.1800 N   0  0  0  0  0  0  0  0  0  0  0  0
   36.9560   25.5940   40.9520 C   0  0  0  0  0  0  0  0  0  0  0  0
   36.4320   24.4210   40.4810 N   0  0  0  0  0  0  0  0  0  0  0  0
   35.5560   23.4330   38.8710 H   0  0  0  0  0  0  0  0  0  0  0  0
   35.6220   25.4340   37.3670 H   0  0  0  0  0  0  0  0  0  0  0  0
   37.4720   25.6590   42.3460 C   0  0  2  0  0  0  0  0  0  0  0  0
   37.5020   27.1220   42.6980 C   0  0  0  0  0  0  0  0  0  0  0  0
   38.8220   27.7600   42.7230 C   0  0  0  0  0  0  0  0  0  0  0  0
   39.6690   26.9240   43.6800 C   0  0  0  0  0  0  0  0  0  0  0  0
   39.8920   25.5750   43.1770 C   0  0  0  0  0  0  0  0  0  0  0  0
   38.7270   24.9580   42.4930 C   0  0  0  0  0  0  0  0  0  0  0  0
   36.6930   25.1450   42.9630 H   0  0  0  0  0  0  0  0  0  0  0  0
   36.8460   27.7380   42.0370 H   0  0  0  0  0  0  0  0  0  0  0  0
   37.0290   27.2420   43.7100 H   0  0  0  0  0  0  0  0  0  0  0  0
   39.2990   27.8600   41.7420 H   0  0  0  0  0  0  0  0  0  0  0  0
   38.7340   28.7560   43.1760 H   0  0  0  0  0  0  0  0  0  0  0  0
   39.2840   26.9990   44.6930 H   0  0  0  0  0  0  0  0  0  0  0  0
   40.6790   27.4210   43.6270 H   0  0  0  0  0  0  0  0  0  0  0  0
   40.7050   24.9070   43.1800 H   0  0  0  0  0  0  0  0  0  0  0  0
   38.8160   23.6390   41.9530 N   0  0  0  0  0  0  0  0  0  0  0  0
   38.2740   22.9730   42.5340 H   0  0  0  0  0  0  0  0  0  0  0  0
   39.3210   23.3080   41.1160 H   0  0  0  0  0  0  0  0  0  0  0  0
   36.6070   27.8660   38.0550 C   0  0  0  0  0  0  0  0  0  0  0  0
   36.5590   29.0870   38.6420 C   0  0  0  0  0  0  0  0  0  0  0  0
   36.6200   30.1970   37.7780 C   0  0  0  0  0  0  0  0  0  0  0  0
   36.7220   29.9410   36.4270 C   0  0  0  0  0  0  0  0  0  0  0  0
   36.7710   28.7080   35.8440 C   0  0  0  0  0  0  0  0  0  0  0  0
   36.7080   27.6790   36.7250 N   0  0  0  0  0  0  0  0  0  0  0  0
   36.4800   29.2340   39.6950 H   0  0  0  0  0  0  0  0  0  0  0  0
   36.5860   31.2100   38.1800 H   0  0  0  0  0  0  0  0  0  0  0  0
   36.7650   30.8320   35.8160 H   0  0  0  0  0  0  0  0  0  0  0  0
   36.6860   29.4800   32.5070 H   0  0  0  0  0  0  0  0  0  0  0  0
   36.6040   29.6370   33.5850 C   0  0  0  0  0  0  0  0  0  0  0  0
   36.2870   30.7440   34.1260 O   0  0  0  0  0  0  0  0  0  0  0  0
   36.8760   28.5070   34.4390 N   0  0  0  0  0  0  0  0  0  0  0  0
   37.1420   27.5650   34.1180 H   0  0  0  0  0  0  0  0  0  0  0  0
  1  6  1  0  0  0  0
  2  3  1  0  0  0  0
  2  1  2  0  0  0  0
  3  4  2  0  0  0  0
  4  5  1  0  0  0  0
  5  9  1  0  0  0  0
  6  5  2  0  0  0  0
  7  1  1  0  0  0  0
  8  2  1  0  0  0  0
  9 14  1  0  0  0  0
  9 10  1  0  0  0  0
  9 15  1  1  0  0  0
 10 11  1  0  0  0  0
 10 17  1  0  0  0  0
 11 19  1  0  0  0  0
 11 12  1  0  0  0  0
 12 20  1  0  0  0  0
 13 22  1  0  0  0  0
 13 12  1  0  0  0  0
 14 13  2  0  0  0  0
 16 10  1  0  0  0  0
 18 11  1  0  0  0  0
 21 12  1  0  0  0  0
 23 14  1  0  0  0  0
 23 24  1  0  0  0  0
 25 23  1  0  0  0  0
 26 27  1  0  0  0  0
 26  3  1  0  0  0  0
 27 32  1  0  0  0  0
 28 33  1  0  0  0  0
 28 27  2  0  0  0  0
 29 28  1  0  0  0  0
 30 29  2  0  0  0  0
 30 31  1  0  0  0  0
 31 26  2  0  0  0  0
 34 29  1  0  0  0  0
 35 36  1  0  0  0  0
 36 37  2  0  0  0  0
 36 38  1  0  0  0  0
 38 30  1  0  0  0  0
 39 38  1  0  0  0  0
M  END
>  <minimizedAffinity>
-5.81721973

$$$$

 OpenBabel03252505093D

 39 41  0  0  1  0  0  0  0  0999 V2000
   32.9480   26.9160   36.1340 C   0  0  0  0  0  0  0  0  0  0  0  0
   34.0930   27.3980   36.8120 C   0  0  0  0  0  0  0  0  0  0  0  0
   33.9960   28.6820   37.4030 C   0  0  0  0  0  0  0  0  0  0  0  0
   32.8350   29.3860   37.2990 N   0  0  0  0  0  0  0  0  0  0  0  0
   31.7730   28.8790   36.6400 C   0  0  0  0  0  0  0  0  0  0  0  0
   31.8230   27.6430   36.0540 N   0  0  0  0  0  0  0  0  0  0  0  0
   32.9700   25.9490   35.6690 H   0  0  0  0  0  0  0  0  0  0  0  0
   34.9890   26.8120   36.8720 H   0  0  0  0  0  0  0  0  0  0  0  0
   30.5260   29.6840   36.5480 C   0  0  2  0  0  0  0  0  0  0  0  0
   30.6120   30.4130   35.2340 C   0  0  0  0  0  0  0  0  0  0  0  0
   30.9240   31.8440   35.3000 C   0  0  0  0  0  0  0  0  0  0  0  0
   29.8750   32.4550   36.2270 C   0  0  0  0  0  0  0  0  0  0  0  0
   29.9950   31.9610   37.5910 C   0  0  0  0  0  0  0  0  0  0  0  0
   30.3340   30.5200   37.7110 C   0  0  0  0  0  0  0  0  0  0  0  0
   29.7020   28.9300   36.5000 H   0  0  0  0  0  0  0  0  0  0  0  0
   31.3400   29.9450   34.5270 H   0  0  0  0  0  0  0  0  0  0  0  0
   29.6280   30.2870   34.7060 H   0  0  0  0  0  0  0  0  0  0  0  0
   31.9420   32.0730   35.6350 H   0  0  0  0  0  0  0  0  0  0  0  0
   30.7670   32.2950   34.3120 H   0  0  0  0  0  0  0  0  0  0  0  0
   28.8870   32.3880   35.7780 H   0  0  0  0  0  0  0  0  0  0  0  0
   30.1850   33.5370   36.2840 H   0  0  0  0  0  0  0  0  0  0  0  0
   29.8970   32.3890   38.5470 H   0  0  0  0  0  0  0  0  0  0  0  0
   30.4820   29.9120   38.9950 N   0  0  0  0  0  0  0  0  0  0  0  0
   29.6760   29.2920   39.1960 H   0  0  0  0  0  0  0  0  0  0  0  0
   31.2420   30.0170   39.6840 H   0  0  0  0  0  0  0  0  0  0  0  0
   35.1480   29.2180   38.1140 C   0  0  0  0  0  0  0  0  0  0  0  0
   35.1360   29.2150   39.4700 C   0  0  0  0  0  0  0  0  0  0  0  0
   36.2750   29.7460   40.1050 C   0  0  0  0  0  0  0  0  0  0  0  0
   37.2880   30.2150   39.2950 C   0  0  0  0  0  0  0  0  0  0  0  0
   37.2930   30.2140   37.9320 C   0  0  0  0  0  0  0  0  0  0  0  0
   36.1700   29.6920   37.3770 N   0  0  0  0  0  0  0  0  0  0  0  0
   34.3260   28.8390   40.0530 H   0  0  0  0  0  0  0  0  0  0  0  0
   36.3350   29.7750   41.1930 H   0  0  0  0  0  0  0  0  0  0  0  0
   38.1350   30.6090   39.8400 H   0  0  0  0  0  0  0  0  0  0  0  0
   40.1760   31.9190   37.2150 H   0  0  0  0  0  0  0  0  0  0  0  0
   39.3500   31.5360   37.8170 C   0  0  0  0  0  0  0  0  0  0  0  0
   39.2000   31.7690   39.0590 O   0  0  0  0  0  0  0  0  0  0  0  0
   38.3710   30.7150   37.1490 N   0  0  0  0  0  0  0  0  0  0  0  0
   38.3850   30.4580   36.1510 H   0  0  0  0  0  0  0  0  0  0  0  0
  1  2  1  0  0  0  0
  2  8  1  0  0  0  0
  2  3  2  0  0  0  0
  3 26  1  0  0  0  0
  4  3  1  0  0  0  0
  5  4  2  0  0  0  0
  6  1  2  0  0  0  0
  6  5  1  0  0  0  0
  7  1  1  0  0  0  0
  9 15  1  6  0  0  0
  9  5  1  0  0  0  0
  9 14  1  0  0  0  0
 10 11  1  0  0  0  0
 10  9  1  0  0  0  0
 11 18  1  0  0  0  0
 11 12  1  0  0  0  0
 12 21  1  0  0  0  0
 12 13  1  0  0  0  0
 13 14  2  0  0  0  0
 13 22  1  0  0  0  0
 14 23  1  0  0  0  0
 16 10  1  0  0  0  0
 17 10  1  0  0  0  0
 19 11  1  0  0  0  0
 20 12  1  0  0  0  0
 23 24  1  0  0  0  0
 23 25  1  0  0  0  0
 26 27  1  0  0  0  0
 27 32  1  0  0  0  0
 27 28  2  0  0  0  0
 28 33  1  0  0  0  0
 29 34  1  0  0  0  0
 29 28  1  0  0  0  0
 30 29  2  0  0  0  0
 31 30  1  0  0  0  0
 31 26  2  0  0  0  0
 35 36  1  0  0  0  0
 36 37  2  0  0  0  0
 38 36  1  0  0  0  0
 38 30  1  0  0  0  0
 39 38  1  0  0  0  0
M  END
>  <minimizedAffinity>
-5.70356131

$$$$

 OpenBabel03252505093D

 39 41  0  0  1  0  0  0  0  0999 V2000
   36.6350   30.7410   38.4950 C   0  0  0  0  0  0  0  0  0  0  0  0
   36.8000   29.7450   39.4870 C   0  0  0  0  0  0  0  0  0  0  0  0
   37.9220   29.8710   40.3420 C   0  0  0  0  0  0  0  0  0  0  0  0
   38.7780   30.9180   40.1820 N   0  0  0  0  0  0  0  0  0  0  0  0
   38.5730   31.8400   39.2190 C   0  0  0  0  0  0  0  0  0  0  0  0
   37.5020   31.7570   38.3710 N   0  0  0  0  0  0  0  0  0  0  0  0
   35.8000   30.6920   37.8220 H   0  0  0  0  0  0  0  0  0  0  0  0
   36.1030   28.9360   39.5810 H   0  0  0  0  0  0  0  0  0  0  0  0
   39.5350   32.9650   39.0780 C   0  0  2  0  0  0  0  0  0  0  0  0
   40.6650   32.4290   38.2410 C   0  0  0  0  0  0  0  0  0  0  0  0
   41.9130   32.1230   38.9470 C   0  0  0  0  0  0  0  0  0  0  0  0
   42.3010   33.4070   39.6770 C   0  0  0  0  0  0  0  0  0  0  0  0
   41.3390   33.7610   40.7110 C   0  0  0  0  0  0  0  0  0  0  0  0
   39.9170   33.5160   40.3580 C   0  0  0  0  0  0  0  0  0  0  0  0
   38.9810   33.7440   38.4970 H   0  0  0  0  0  0  0  0  0  0  0  0
   40.3780   31.5180   37.6610 H   0  0  0  0  0  0  0  0  0  0  0  0
   40.8860   33.1820   37.4370 H   0  0  0  0  0  0  0  0  0  0  0  0
   41.8510   31.2700   39.6330 H   0  0  0  0  0  0  0  0  0  0  0  0
   42.7060   31.9300   38.2140 H   0  0  0  0  0  0  0  0  0  0  0  0
   42.5480   34.1890   38.9640 H   0  0  0  0  0  0  0  0  0  0  0  0
   43.2310   33.1080   40.2400 H   0  0  0  0  0  0  0  0  0  0  0  0
   41.4060   34.1630   41.6810 H   0  0  0  0  0  0  0  0  0  0  0  0
   38.8750   33.8190   41.2860 N   0  0  0  0  0  0  0  0  0  0  0  0
   38.3520   34.6610   40.9800 H   0  0  0  0  0  0  0  0  0  0  0  0
   38.6100   33.3300   42.1550 H   0  0  0  0  0  0  0  0  0  0  0  0
   38.1320   28.8720   41.3800 C   0  0  0  0  0  0  0  0  0  0  0  0
   37.9020   29.2150   42.6720 C   0  0  0  0  0  0  0  0  0  0  0  0
   38.1210   28.2100   43.6330 C   0  0  0  0  0  0  0  0  0  0  0  0
   38.5450   26.9800   43.1750 C   0  0  0  0  0  0  0  0  0  0  0  0
   38.7740   26.6420   41.8730 C   0  0  0  0  0  0  0  0  0  0  0  0
   38.5470   27.6500   40.9940 N   0  0  0  0  0  0  0  0  0  0  0  0
   37.5740   30.1820   42.9760 H   0  0  0  0  0  0  0  0  0  0  0  0
   37.9560   28.4150   44.6910 H   0  0  0  0  0  0  0  0  0  0  0  0
   38.6950   26.2500   43.9590 H   0  0  0  0  0  0  0  0  0  0  0  0
   40.0710   23.4840   42.1610 H   0  0  0  0  0  0  0  0  0  0  0  0
   39.7350   24.4740   42.4790 C   0  0  0  0  0  0  0  0  0  0  0  0
   39.7760   24.8930   43.6800 O   0  0  0  0  0  0  0  0  0  0  0  0
   39.2120   25.3520   41.4620 N   0  0  0  0  0  0  0  0  0  0  0  0
   39.1290   25.1260   40.4600 H   0  0  0  0  0  0  0  0  0  0  0  0
  1  2  1  0  0  0  0
  2  8  1  0  0  0  0
  2  3  2  0  0  0  0
  3 26  1  0  0  0  0
  4  3  1  0  0  0  0
  5  4  2  0  0  0  0
  6  1  2  0  0  0  0
  6  5  1  0  0  0  0
  7  1  1  0  0  0  0
  9 15  1  6  0  0  0
  9  5  1  0  0  0  0
  9 14  1  0  0  0  0
 10 11  1  0  0  0  0
 10  9  1  0  0  0  0
 11 18  1  0  0  0  0
 11 12  1  0  0  0  0
 12 21  1  0  0  0  0
 12 13  1  0  0  0  0
 13 22  1  0  0  0  0
 14 13  2  0  0  0  0
 14 23  1  0  0  0  0
 16 10  1  0  0  0  0
 17 10  1  0  0  0  0
 19 11  1  0  0  0  0
 20 12  1  0  0  0  0
 23 25  1  0  0  0  0
 24 23  1  0  0  0  0
 26 27  1  0  0  0  0
 27 32  1  0  0  0  0
 27 28  2  0  0  0  0
 28 33  1  0  0  0  0
 29 28  1  0  0  0  0
 29 34  1  0  0  0  0
 30 29  2  0  0  0  0
 31 26  2  0  0  0  0
 31 30  1  0  0  0  0
 35 36  1  0  0  0  0
 36 37  2  0  0  0  0
 38 30  1  0  0  0  0
 38 36  1  0  0  0  0
 39 38  1  0  0  0  0
M  END
>  <minimizedAffinity>
-5.65760088

$$$$

 OpenBabel03252505093D

 39 41  0  0  1  0  0  0  0  0999 V2000
   36.1570   26.1720   38.8170 C   0  0  0  0  0  0  0  0  0  0  0  0
   37.1470   25.8580   39.7790 C   0  0  0  0  0  0  0  0  0  0  0  0
   37.7620   26.9470   40.4440 C   0  0  0  0  0  0  0  0  0  0  0  0
   37.3890   28.2220   40.1400 N   0  0  0  0  0  0  0  0  0  0  0  0
   36.4390   28.4630   39.2130 C   0  0  0  0  0  0  0  0  0  0  0  0
   35.8180   27.4420   38.5470 N   0  0  0  0  0  0  0  0  0  0  0  0
   35.6600   25.3830   38.2850 H   0  0  0  0  0  0  0  0  0  0  0  0
   37.4120   24.8420   39.9900 H   0  0  0  0  0  0  0  0  0  0  0  0
   36.0650   29.8710   38.9110 C   0  0  2  0  0  0  0  0  0  0  0  0
   36.8490   30.2420   37.6810 C   0  0  0  0  0  0  0  0  0  0  0  0
   37.9990   31.1280   37.8810 C   0  0  0  0  0  0  0  0  0  0  0  0
   37.4540   32.3580   38.6050 C   0  0  0  0  0  0  0  0  0  0  0  0
   36.9650   32.0360   39.9390 C   0  0  0  0  0  0  0  0  0  0  0  0
   36.2510   30.7380   40.0510 C   0  0  0  0  0  0  0  0  0  0  0  0
   34.9770   29.8290   38.6580 H   0  0  0  0  0  0  0  0  0  0  0  0
   37.2100   29.3490   37.1140 H   0  0  0  0  0  0  0  0  0  0  0  0
   36.1430   30.7320   36.9580 H   0  0  0  0  0  0  0  0  0  0  0  0
   38.8340   30.6750   38.4280 H   0  0  0  0  0  0  0  0  0  0  0  0
   38.3630   31.4770   36.9070 H   0  0  0  0  0  0  0  0  0  0  0  0
   36.7670   32.9030   37.9620 H   0  0  0  0  0  0  0  0  0  0  0  0
   38.3760   32.9810   38.7790 H   0  0  0  0  0  0  0  0  0  0  0  0
   36.9930   32.5150   40.8750 H   0  0  0  0  0  0  0  0  0  0  0  0
   35.7240   30.3050   41.3060 N   0  0  0  0  0  0  0  0  0  0  0  0
   34.6900   30.3760   41.3070 H   0  0  0  0  0  0  0  0  0  0  0  0
   36.2230   29.9580   42.1400 H   0  0  0  0  0  0  0  0  0  0  0  0
   38.7850   26.6740   41.4440 C   0  0  0  0  0  0  0  0  0  0  0  0
   38.4760   26.8420   42.7540 C   0  0  0  0  0  0  0  0  0  0  0  0
   39.5020   26.5630   43.6770 C   0  0  0  0  0  0  0  0  0  0  0  0
   40.7150   26.1500   43.1670 C   0  0  0  0  0  0  0  0  0  0  0  0
   41.0180   25.9830   41.8480 C   0  0  0  0  0  0  0  0  0  0  0  0
   39.9910   26.2670   41.0070 N   0  0  0  0  0  0  0  0  0  0  0  0
   37.5210   27.1640   43.0990 H   0  0  0  0  0  0  0  0  0  0  0  0
   39.3250   26.6750   44.7470 H   0  0  0  0  0  0  0  0  0  0  0  0
   41.4610   25.9510   43.9240 H   0  0  0  0  0  0  0  0  0  0  0  0
   44.3660   25.2700   41.9560 H   0  0  0  0  0  0  0  0  0  0  0  0
   43.3900   25.6000   42.3160 C   0  0  0  0  0  0  0  0  0  0  0  0
   43.1650   26.0200   43.4950 O   0  0  0  0  0  0  0  0  0  0  0  0
   42.2920   25.5530   41.3820 N   0  0  0  0  0  0  0  0  0  0  0  0
   42.3510   25.2340   40.4040 H   0  0  0  0  0  0  0  0  0  0  0  0
  1  2  1  0  0  0  0
  2  8  1  0  0  0  0
  2  3  2  0  0  0  0
  3 26  1  0  0  0  0
  4  3  1  0  0  0  0
  5  4  2  0  0  0  0
  6  1  2  0  0  0  0
  6  5  1  0  0  0  0
  7  1  1  0  0  0  0
  9 15  1  6  0  0  0
  9  5  1  0  0  0  0
  9 14  1  0  0  0  0
 10 11  1  0  0  0  0
 10  9  1  0  0  0  0
 11 18  1  0  0  0  0
 11 12  1  0  0  0  0
 12 21  1  0  0  0  0
 12 13  1  0  0  0  0
 13 14  2  0  0  0  0
 13 22  1  0  0  0  0
 14 23  1  0  0  0  0
 16 10  1  0  0  0  0
 17 10  1  0  0  0  0
 19 11  1  0  0  0  0
 20 12  1  0  0  0  0
 23 24  1  0  0  0  0
 23 25  1  0  0  0  0
 26 27  1  0  0  0  0
 27 32  1  0  0  0  0
 27 28  2  0  0  0  0
 28 33  1  0  0  0  0
 29 28  1  0  0  0  0
 29 34  1  0  0  0  0
 30 29  2  0  0  0  0
 31 26  2  0  0  0  0
 31 30  1  0  0  0  0
 35 36  1  0  0  0  0
 36 37  2  0  0  0  0
 38 30  1  0  0  0  0
 38 36  1  0  0  0  0
 39 38  1  0  0  0  0
M  END
>  <minimizedAffinity>
-5.59937811

$$$$
