
 OpenBabel03252506483D

 25 26  0  0  0  0  0  0  0  0999 V2000
   44.8010   33.8430   40.7380 C   0  0  0  0  0  0  0  0  0  0  0  0
   46.1620   33.8600   40.4220 C   0  0  0  0  0  0  0  0  0  0  0  0
   47.0890   34.0560   41.4630 C   0  0  0  0  0  0  0  0  0  0  0  0
   46.6070   34.2160   42.7140 N   0  0  0  0  0  0  0  0  0  0  0  0
   45.2860   34.1930   42.9830 C   0  0  0  0  0  0  0  0  0  0  0  0
   44.3570   34.0070   42.0030 N   0  0  0  0  0  0  0  0  0  0  0  0
   46.5230   33.7300   39.4180 H   0  0  0  0  0  0  0  0  0  0  0  0
   48.1240   34.0650   41.2020 H   0  0  0  0  0  0  0  0  0  0  0  0
   44.3240   35.3650   46.1370 H   0  0  0  0  0  0  0  0  0  0  0  0
   44.5940   35.5150   45.1000 C   0  0  0  0  0  0  0  0  0  0  0  0
   44.6970   36.5670   44.3900 O   0  0  0  0  0  0  0  0  0  0  0  0
   44.9000   34.3740   44.3400 N   0  0  0  0  0  0  0  0  0  0  0  0
   44.8610   33.4180   44.7840 H   0  0  0  0  0  0  0  0  0  0  0  0
   43.6920   33.5880   39.3520 S   0  0  0  0  0  0  0  0  0  0  0  0
   41.3850   31.5200   40.1670 Cl  0  0  0  0  0  0  0  0  0  0  0  0
   40.9820   33.2300   40.0540 C   0  0  0  0  0  0  0  0  0  0  0  0
   42.0160   34.0420   39.7040 C   0  0  0  0  0  0  0  0  0  0  0  0
   41.7640   35.4080   39.5970 C   0  0  0  0  0  0  0  0  0  0  0  0
   40.4820   35.8950   39.8480 C   0  0  0  0  0  0  0  0  0  0  0  0
   39.4290   35.0560   40.2070 C   0  0  0  0  0  0  0  0  0  0  0  0
   39.7080   33.7030   40.3050 C   0  0  0  0  0  0  0  0  0  0  0  0
   38.4690   32.5460   40.7480 Cl  0  0  0  0  0  0  0  0  0  0  0  0
   42.4900   36.1360   39.3310 H   0  0  0  0  0  0  0  0  0  0  0  0
   40.2580   36.9560   39.7720 H   0  0  0  0  0  0  0  0  0  0  0  0
   38.4330   35.3750   40.4100 H   0  0  0  0  0  0  0  0  0  0  0  0
  1  6  1  0  0  0  0
  2  1  2  0  0  0  0
  2  3  1  0  0  0  0
  3  4  2  0  0  0  0
  4  5  1  0  0  0  0
  5 12  1  0  0  0  0
  6  5  2  0  0  0  0
  7  2  1  0  0  0  0
  8  3  1  0  0  0  0
 10  9  1  0  0  0  0
 11 10  2  0  0  0  0
 12 13  1  0  0  0  0
 12 10  1  0  0  0  0
 14 17  1  0  0  0  0
 14  1  1  0  0  0  0
 16 15  1  0  0  0  0
 16 21  1  0  0  0  0
 17 16  2  0  0  0  0
 18 17  1  0  0  0  0
 18 19  2  0  0  0  0
 19 20  1  0  0  0  0
 20 21  2  0  0  0  0
 20 25  1  0  0  0  0
 21 22  1  0  0  0  0
 23 18  1  0  0  0  0
 24 19  1  0  0  0  0
M  END
>  <minimizedAffinity>
-5.30566168

>  <minimizedRMSD>
2.0820508

$$$$
