
 OpenBabel03252503183D

 35 37  0  0  0  0  0  0  0  0999 V2000
   46.2360   34.7410   41.8600 C   0  0  0  0  0  0  0  0  0  0  0  0
   47.4420   35.0900   41.7320 O   0  0  0  0  0  0  0  0  0  0  0  0
   45.3710   34.2020   40.7690 C   0  0  0  0  0  0  0  0  0  0  0  0
   44.0320   34.4180   40.5970 C   0  0  0  0  0  0  0  0  0  0  0  0
   43.6900   33.7290   39.4780 N   0  0  0  0  0  0  0  0  0  0  0  0
   44.7740   33.1240   38.9950 C   0  0  0  0  0  0  0  0  0  0  0  0
   45.8090   33.4160   39.7900 N   0  0  0  0  0  0  0  0  0  0  0  0
   44.9330   32.2980   37.8580 N   0  0  0  0  0  0  0  0  0  0  0  0
   43.3730   35.0010   41.2020 H   0  0  0  0  0  0  0  0  0  0  0  0
   44.7260   31.2660   37.9520 H   0  0  0  0  0  0  0  0  0  0  0  0
   45.2410   32.5700   36.8930 H   0  0  0  0  0  0  0  0  0  0  0  0
   42.3810   33.6210   38.8490 C   0  0  0  0  0  0  0  0  0  0  0  0
   41.5860   33.6750   39.6080 H   0  0  0  0  0  0  0  0  0  0  0  0
   42.3300   32.6250   38.3800 H   0  0  0  0  0  0  0  0  0  0  0  0
   41.0590   36.4950   37.5430 H   0  0  0  0  0  0  0  0  0  0  0  0
   41.2870   35.6720   38.2100 C   0  0  0  0  0  0  0  0  0  0  0  0
   40.7090   35.6710   39.3310 O   0  0  0  0  0  0  0  0  0  0  0  0
   42.1900   34.6480   37.8370 N   0  0  0  0  0  0  0  0  0  0  0  0
   42.6740   34.6320   36.9180 H   0  0  0  0  0  0  0  0  0  0  0  0
   45.0660   36.0950   43.5380 C   0  0  0  0  0  0  0  0  0  0  0  0
   45.7010   34.8940   43.1720 C   0  0  0  0  0  0  0  0  0  0  0  0
   45.7400   33.9380   44.1860 C   0  0  0  0  0  0  0  0  0  0  0  0
   45.2290   34.1290   45.3880 N   0  0  0  0  0  0  0  0  0  0  0  0
   44.6220   35.3130   45.6920 C   0  0  0  0  0  0  0  0  0  0  0  0
   44.5490   36.2780   44.7660 N   0  0  0  0  0  0  0  0  0  0  0  0
   44.9880   36.9050   42.8050 H   0  0  0  0  0  0  0  0  0  0  0  0
   44.2080   35.4550   46.6830 H   0  0  0  0  0  0  0  0  0  0  0  0
   46.3720   32.6920   43.8910 C   0  0  0  0  0  0  0  0  0  0  0  0
   47.6310   32.1960   43.9480 C   0  0  0  0  0  0  0  0  0  0  0  0
   47.9490   30.9710   43.6060 C   0  0  0  0  0  0  0  0  0  0  0  0
   46.9300   30.2090   43.1850 C   0  0  0  0  0  0  0  0  0  0  0  0
   45.4660   31.2810   43.2800 S   0  0  0  0  0  0  0  0  0  0  0  0
   48.3650   32.9440   44.3150 H   0  0  0  0  0  0  0  0  0  0  0  0
   48.9380   30.5320   43.6350 H   0  0  0  0  0  0  0  0  0  0  0  0
   46.9550   29.0890   42.8270 H   0  0  0  0  0  0  0  0  0  0  0  0
  1 21  1  0  0  0  0
  2  1  2  0  0  0  0
  3  1  1  0  0  0  0
  4  3  2  0  0  0  0
  4  9  1  0  0  0  0
  5  4  1  0  0  0  0
  6  5  1  0  0  0  0
  6  7  2  0  0  0  0
  7  3  1  0  0  0  0
  8 10  1  0  0  0  0
  8  6  1  0  0  0  0
 11  8  1  0  0  0  0
 12  5  1  0  0  0  0
 12 13  1  0  0  0  0
 14 12  1  0  0  0  0
 15 16  1  0  0  0  0
 16 17  2  0  0  0  0
 18 16  1  0  0  0  0
 18 12  1  0  0  0  0
 19 18  1  0  0  0  0
 20 25  1  0  0  0  0
 21 20  2  0  0  0  0
 21 22  1  0  0  0  0
 22 23  2  0  0  0  0
 23 24  1  0  0  0  0
 24 27  1  0  0  0  0
 25 24  2  0  0  0  0
 26 20  1  0  0  0  0
 28 29  2  0  0  0  0
 28 22  1  0  0  0  0
 29 33  1  0  0  0  0
 30 34  1  0  0  0  0
 30 29  1  0  0  0  0
 31 32  1  0  0  0  0
 31 30  2  0  0  0  0
 32 28  1  0  0  0  0
 35 31  1  0  0  0  0
M  END
>  <minimizedAffinity>
-5.03600264

>  <minimizedRMSD>
1.85599136

$$$$
