
 OpenBabel03252509253D

 26 27  0  0  1  0  0  0  0  0999 V2000
   46.5560   35.0450   41.9140 C   0  0  1  0  0  0  0  0  0  0  0  0
   48.0920   35.2810   41.9240 C   0  0  0  0  0  0  0  0  0  0  0  0
   47.3490   34.0470   41.3270 C   0  0  2  0  0  0  0  0  0  0  0  0
   46.0010   35.8070   41.3290 H   0  0  0  0  0  0  0  0  0  0  0  0
   48.4430   36.0260   41.2140 H   0  0  0  0  0  0  0  0  0  0  0  0
   48.6490   35.1540   42.8480 H   0  0  0  0  0  0  0  0  0  0  0  0
   47.5670   33.1170   41.9390 H   0  0  0  0  0  0  0  0  0  0  0  0
   44.6330   35.4490   45.1110 C   0  0  0  0  0  0  0  0  0  0  0  0
   45.1100   35.7240   43.8020 C   0  0  0  0  0  0  0  0  0  0  0  0
   46.0470   34.8680   43.3270 C   0  0  0  0  0  0  0  0  0  0  0  0
   46.5110   33.8050   44.0670 N   0  0  0  0  0  0  0  0  0  0  0  0
   46.0340   33.5740   45.3100 C   0  0  0  0  0  0  0  0  0  0  0  0
   45.0890   34.4020   45.8340 N   0  0  0  0  0  0  0  0  0  0  0  0
   43.8820   36.0970   45.5410 H   0  0  0  0  0  0  0  0  0  0  0  0
   46.4810   32.7110   45.7800 H   0  0  0  0  0  0  0  0  0  0  0  0
   44.6600   36.8360   43.0720 N   0  0  0  0  0  0  0  0  0  0  0  0
   44.7640   37.7540   43.5720 H   0  0  0  0  0  0  0  0  0  0  0  0
   44.2910   36.5900   42.1430 H   0  0  0  0  0  0  0  0  0  0  0  0
   47.3830   33.8410   39.8310 C   0  0  0  0  0  0  0  0  0  0  0  0
   47.9160   32.8930   39.6030 H   0  0  0  0  0  0  0  0  0  0  0  0
   47.8730   34.7090   39.3380 H   0  0  0  0  0  0  0  0  0  0  0  0
   44.7630   32.7940   37.7490 H   0  0  0  0  0  0  0  0  0  0  0  0
   45.7520   32.9200   38.1810 C   0  0  0  0  0  0  0  0  0  0  0  0
   46.7350   32.3120   37.6450 O   0  0  0  0  0  0  0  0  0  0  0  0
   46.0270   33.7290   39.3180 N   0  0  0  0  0  0  0  0  0  0  0  0
   45.1950   34.2260   39.7490 H   0  0  0  0  0  0  0  0  0  0  0  0
  1  4  1  6  0  0  0
  1  2  1  0  0  0  0
  1 10  1  0  0  0  0
  2  6  1  0  0  0  0
  3  1  1  0  0  0  0
  3  2  1  0  0  0  0
  3  7  1  1  0  0  0
  5  2  1  0  0  0  0
  8 14  1  0  0  0  0
  8 13  1  0  0  0  0
  9  8  2  0  0  0  0
 10  9  1  0  0  0  0
 10 11  2  0  0  0  0
 11 12  1  0  0  0  0
 12 15  1  0  0  0  0
 12 13  2  0  0  0  0
 16 17  1  0  0  0  0
 16  9  1  0  0  0  0
 18 16  1  0  0  0  0
 19  3  1  0  0  0  0
 20 19  1  0  0  0  0
 21 19  1  0  0  0  0
 22 23  1  0  0  0  0
 23 25  1  0  0  0  0
 24 23  2  0  0  0  0
 25 26  1  0  0  0  0
 25 19  1  0  0  0  0
M  END
>  <minimizedAffinity>
-4.43776226

>  <minimizedRMSD>
1.81791484

$$$$
