REMARK  Name = 
REMARK  4 active torsions:
REMARK  status: ('A' for Active; 'I' for Inactive)
REMARK    1  A    between atoms: C_2  and  N_11
REMARK    2  A    between atoms: C_3  and  C_7
REMARK    3  A    between atoms: C_9  and  C_10
REMARK    4  A    between atoms: C_10  and  N_25
REMARK                            x       y       z     vdW  Elec       q    Type
REMARK                         _______ _______ _______ _____ _____    ______ ____
ROOT
ATOM      1  C   UNL     1      46.572  35.061  41.925  0.00  0.00    +0.000 C 
ATOM      2  C   UNL     1      48.107  35.303  41.927  0.00  0.00    +0.000 C 
ATOM      3  C   UNL     1      47.363  34.079  41.309  0.00  0.00    +0.000 C 
ATOM      4  H   UNL     1      46.009  35.834  41.361  0.00  0.00    +0.000 HD
ATOM      5  H   UNL     1      48.450  36.064  41.231  0.00  0.00    +0.000 HD
ATOM      6  H   UNL     1      48.672  35.157  42.844  0.00  0.00    +0.000 HD
ATOM      7  H   UNL     1      47.590  33.137  41.899  0.00  0.00    +0.000 HD
ENDROOT
BRANCH   1  10
ATOM      8  C   UNL     1      44.669  35.383  45.143  0.00  0.00    +0.000 A 
ATOM      9  C   UNL     1      45.133  35.688  43.836  0.00  0.00    +0.000 A 
ATOM     10  C   UNL     1      46.075  34.852  43.338  0.00  0.00    +0.000 A 
ATOM     11  N   UNL     1      46.555  33.779  44.053  0.00  0.00    +0.000 NA
ATOM     12  C   UNL     1      46.090  33.519  45.295  0.00  0.00    +0.000 A 
ATOM     13  N   UNL     1      45.141  34.327  45.842  0.00  0.00    +0.000 NA
ATOM     14  H   UNL     1      43.915  36.015  45.591  0.00  0.00    +0.000 HD
ATOM     15  H   UNL     1      46.549  32.651  45.744  0.00  0.00    +0.000 HD
BRANCH   9  16
ATOM     16  N   UNL     1      44.667  36.810  43.132  0.00  0.00    +0.000 N 
ATOM     17  H   UNL     1      44.765  37.719  43.649  0.00  0.00    +0.000 HD
ATOM     18  H   UNL     1      44.293  36.579  42.201  0.00  0.00    +0.000 HD
ENDBRANCH   9  16
ENDBRANCH   1  10
BRANCH   3  19
ATOM     19  C   UNL     1      47.385  33.907  39.809  0.00  0.00    +0.000 C 
ATOM     20  H   UNL     1      47.765  34.840  39.339  0.00  0.00    +0.000 HD
ATOM     21  H   UNL     1      46.367  33.654  39.439  0.00  0.00    +0.000 HD
BRANCH  19  25
ATOM     22  H   UNL     1      50.285  31.936  39.833  0.00  0.00    +0.000 HD
ATOM     23  C   UNL     1      49.567  32.721  40.057  0.00  0.00    +0.000 C 
ATOM     24  O   UNL     1      49.880  33.610  40.913  0.00  0.00    +0.000 OA
ATOM     25  N   UNL     1      48.285  32.823  39.450  0.00  0.00    +0.000 N 
ATOM     26  H   UNL     1      48.043  32.072  38.740  0.00  0.00    +0.000 HD
ENDBRANCH  19  25
ENDBRANCH   3  19
TORSDOF 4
