
 OpenBabel03252504363D

 38 39  0  0  0  0  0  0  0  0999 V2000
   38.1140   29.1490   41.8300 C   0  0  0  0  0  3  0  0  0  0  0  0
   38.2700   28.5860   43.0360 C   0  0  0  0  0  3  0  0  0  0  0  0
   39.2040   27.4240   43.3020 C   0  0  0  0  0  0  0  0  0  0  0  0
   39.5540   27.4390   44.3510 H   0  0  0  0  0  0  0  0  0  0  0  0
   40.0780   27.6210   42.6410 H   0  0  0  0  0  0  0  0  0  0  0  0
   38.5350   26.2690   42.9630 O   0  0  0  0  0  0  0  0  0  0  0  0
   40.9900   25.7020   42.0890 O   0  0  0  0  0  0  0  0  0  0  0  0
   39.5790   25.1650   42.2540 P   0  0  1  0  0  0  0  0  0  0  0  0
   39.7200   23.7870   43.2590 O   0  0  0  0  0  0  0  0  0  0  0  0
   38.9130   23.7780   43.8430 H   0  0  0  0  0  0  0  0  0  0  0  0
   39.0000   24.6220   40.7770 O   0  0  0  0  0  0  0  0  0  0  0  0
   38.0280   23.6380   40.9310 C   0  0  0  0  0  0  0  0  0  0  0  0
   36.9350   23.6130   39.8860 C   0  0  0  0  0  0  0  0  0  0  0  0
   36.6500   24.1020   41.2940 C   0  0  0  0  0  0  0  0  0  0  0  0
   38.4290   22.6650   41.2730 H   0  0  0  0  0  0  0  0  0  0  0  0
   37.0030   24.3440   39.0600 H   0  0  0  0  0  0  0  0  0  0  0  0
   36.5410   22.6130   39.6660 H   0  0  0  0  0  0  0  0  0  0  0  0
   36.0870   23.4280   41.9710 H   0  0  0  0  0  0  0  0  0  0  0  0
   36.4660   25.1900   41.3550 H   0  0  0  0  0  0  0  0  0  0  0  0
   37.2260   30.1950   41.7730 O   0  0  0  0  0  0  0  0  0  0  0  0
   36.2310   30.4520   40.8910 C   0  0  0  0  0  0  0  0  0  0  0  0
   35.4530   29.7200   40.6960 H   0  0  0  0  0  0  0  0  0  0  0  0
   35.6470   31.3320   41.3290 H   0  0  0  0  0  0  0  0  0  0  0  0
   36.5620   30.1850   38.4760 C   0  0  0  0  0  0  0  0  0  0  0  0
   36.7080   31.0230   39.5930 C   0  0  0  0  0  0  0  0  0  0  0  0
   37.2660   32.2500   39.4030 C   0  0  0  0  0  0  0  0  0  0  0  0
   37.6350   32.5620   38.1590 N   0  0  0  0  0  0  0  0  0  0  0  0
   37.4950   31.7750   37.1260 C   0  0  0  0  0  0  0  0  0  0  0  0
   36.9360   30.5150   37.2420 N   0  0  0  0  0  0  0  0  0  0  0  0
   37.9310   32.2230   35.8400 N   0  0  0  0  0  0  0  0  0  0  0  0
   36.1230   29.2010   38.5790 H   0  0  0  0  0  0  0  0  0  0  0  0
   37.2530   32.4070   35.0730 H   0  0  0  0  0  0  0  0  0  0  0  0
   38.9550   32.3660   35.6870 H   0  0  0  0  0  0  0  0  0  0  0  0
   39.1250   33.7900   41.8620 H   0  0  0  0  0  0  0  0  0  0  0  0
   38.7540   33.2190   41.0040 C   0  0  0  0  0  0  0  0  0  0  0  0
   39.6630   32.6240   40.3330 O   0  0  0  0  0  0  0  0  0  0  0  0
   37.3960   33.0670   40.5600 N   0  0  0  0  0  0  0  0  0  0  0  0
   36.6960   33.5730   41.1460 H   0  0  0  0  0  0  0  0  0  0  0  0
  1  2  2  0  0  0  0
  2  3  1  0  0  0  0
  3  4  1  0  0  0  0
  5  3  1  0  0  0  0
  6  3  1  0  0  0  0
  8  7  2  6  0  0  0
  8  6  1  0  0  0  0
  8  9  1  0  0  0  0
  9 10  1  0  0  0  0
 11 12  1  0  0  0  0
 11  8  1  0  0  0  0
 12 15  1  0  0  0  0
 12 14  1  0  0  0  0
 13 12  1  0  0  0  0
 13 14  1  0  0  0  0
 14 19  1  0  0  0  0
 14 18  1  0  0  0  0
 16 13  1  0  0  0  0
 17 13  1  0  0  0  0
 20  1  1  0  0  0  0
 21 23  1  0  0  0  0
 21 20  1  0  0  0  0
 22 21  1  0  0  0  0
 24 31  1  0  0  0  0
 24 25  1  0  0  0  0
 25 21  1  0  0  0  0
 26 25  2  0  0  0  0
 26 37  1  0  0  0  0
 27 26  1  0  0  0  0
 28 29  1  0  0  0  0
 28 27  2  0  0  0  0
 29 24  2  0  0  0  0
 30 28  1  0  0  0  0
 32 30  1  0  0  0  0
 33 30  1  0  0  0  0
 35 34  1  0  0  0  0
 36 35  2  0  0  0  0
 37 35  1  0  0  0  0
 37 38  1  0  0  0  0
M  END
>  <minimizedAffinity>
-5.2625289

$$$$

 OpenBabel03252504363D

 38 39  0  0  0  0  0  0  0  0999 V2000
   38.8410   30.6540   41.8280 C   0  0  0  0  0  3  0  0  0  0  0  0
   37.6800   30.4140   41.2020 C   0  0  0  0  0  3  0  0  0  0  0  0
   36.7480   29.2800   41.5730 C   0  0  0  0  0  0  0  0  0  0  0  0
   35.8320   29.3100   40.9540 H   0  0  0  0  0  0  0  0  0  0  0  0
   36.4630   29.4960   42.6270 H   0  0  0  0  0  0  0  0  0  0  0  0
   37.4560   28.1050   41.4470 O   0  0  0  0  0  0  0  0  0  0  0  0
   38.6550   27.1380   43.6250 O   0  0  0  0  0  0  0  0  0  0  0  0
   37.3480   27.1950   42.8520 P   0  0  1  0  0  0  0  0  0  0  0  0
   36.2120   27.9130   43.9110 O   0  0  0  0  0  0  0  0  0  0  0  0
   35.6210   28.4840   43.3480 H   0  0  0  0  0  0  0  0  0  0  0  0
   36.7990   25.6410   42.5450 O   0  0  0  0  0  0  0  0  0  0  0  0
   37.2770   25.1520   41.3330 C   0  0  0  0  0  0  0  0  0  0  0  0
   36.5070   24.0000   40.7290 C   0  0  0  0  0  0  0  0  0  0  0  0
   37.8740   23.7770   41.3480 C   0  0  0  0  0  0  0  0  0  0  0  0
   37.6370   25.9410   40.6440 H   0  0  0  0  0  0  0  0  0  0  0  0
   35.6040   23.6540   41.2650 H   0  0  0  0  0  0  0  0  0  0  0  0
   36.4980   23.9850   39.6320 H   0  0  0  0  0  0  0  0  0  0  0  0
   38.7330   23.6270   40.6630 H   0  0  0  0  0  0  0  0  0  0  0  0
   37.8440   23.2070   42.2940 H   0  0  0  0  0  0  0  0  0  0  0  0
   39.5580   31.7270   41.3590 O   0  0  0  0  0  0  0  0  0  0  0  0
   39.1680   32.7730   40.5930 C   0  0  0  0  0  0  0  0  0  0  0  0
   38.1540   32.8400   40.2110 H   0  0  0  0  0  0  0  0  0  0  0  0
   39.2490   33.6960   41.2630 H   0  0  0  0  0  0  0  0  0  0  0  0
   40.8540   34.3000   39.6770 C   0  0  0  0  0  0  0  0  0  0  0  0
   40.1300   33.1100   39.4980 C   0  0  0  0  0  0  0  0  0  0  0  0
   40.3560   32.3890   38.3660 C   0  0  0  0  0  0  0  0  0  0  0  0
   41.2560   32.8740   37.5080 N   0  0  0  0  0  0  0  0  0  0  0  0
   41.9240   33.9820   37.6840 C   0  0  0  0  0  0  0  0  0  0  0  0
   41.7480   34.7670   38.8080 N   0  0  0  0  0  0  0  0  0  0  0  0
   42.8630   34.4000   36.6880 N   0  0  0  0  0  0  0  0  0  0  0  0
   40.7080   34.9060   40.5620 H   0  0  0  0  0  0  0  0  0  0  0  0
   43.8830   34.4230   36.8840 H   0  0  0  0  0  0  0  0  0  0  0  0
   42.4960   34.6810   35.7500 H   0  0  0  0  0  0  0  0  0  0  0  0
   40.0360   28.9580   38.4220 H   0  0  0  0  0  0  0  0  0  0  0  0
   40.3720   30.0010   38.4660 C   0  0  0  0  0  0  0  0  0  0  0  0
   41.6030   30.1460   38.7720 O   0  0  0  0  0  0  0  0  0  0  0  0
   39.6030   31.1900   38.2240 N   0  0  0  0  0  0  0  0  0  0  0  0
   38.6050   31.0120   37.9780 H   0  0  0  0  0  0  0  0  0  0  0  0
  2  3  1  0  0  0  0
  2  1  2  0  0  0  0
  3  5  1  0  0  0  0
  4  3  1  0  0  0  0
  6  3  1  0  0  0  0
  6  8  1  0  0  0  0
  8  7  2  1  0  0  0
  8  9  1  0  0  0  0
 10  9  1  0  0  0  0
 11  8  1  0  0  0  0
 12 14  1  0  0  0  0
 12 11  1  0  0  0  0
 13 16  1  0  0  0  0
 13 12  1  0  0  0  0
 13 14  1  0  0  0  0
 14 19  1  0  0  0  0
 15 12  1  0  0  0  0
 17 13  1  0  0  0  0
 18 14  1  0  0  0  0
 20  1  1  0  0  0  0
 21 23  1  0  0  0  0
 21 20  1  0  0  0  0
 22 21  1  0  0  0  0
 24 31  1  0  0  0  0
 25 24  1  0  0  0  0
 25 21  1  0  0  0  0
 26 25  2  0  0  0  0
 27 28  2  0  0  0  0
 27 26  1  0  0  0  0
 28 29  1  0  0  0  0
 29 24  2  0  0  0  0
 30 32  1  0  0  0  0
 30 28  1  0  0  0  0
 33 30  1  0  0  0  0
 34 35  1  0  0  0  0
 35 36  2  0  0  0  0
 37 26  1  0  0  0  0
 37 35  1  0  0  0  0
 38 37  1  0  0  0  0
M  END
>  <minimizedAffinity>
-5.09896135

$$$$

 OpenBabel03252504363D

 38 39  0  0  0  0  0  0  0  0999 V2000
   40.2070   30.4470   41.6240 C   0  0  0  0  0  3  0  0  0  0  0  0
   40.5060   29.3390   42.3170 C   0  0  0  0  0  3  0  0  0  0  0  0
   39.9310   27.9740   42.0010 C   0  0  0  0  0  0  0  0  0  0  0  0
   40.7390   27.2580   41.7590 H   0  0  0  0  0  0  0  0  0  0  0  0
   39.3270   28.1400   41.0810 H   0  0  0  0  0  0  0  0  0  0  0  0
   39.1620   27.5900   43.0770 O   0  0  0  0  0  0  0  0  0  0  0  0
   36.6300   26.7510   43.1010 O   0  0  0  0  0  0  0  0  0  0  0  0
   37.5430   27.9260   42.7980 P   0  0  1  0  0  0  0  0  0  0  0  0
   37.0350   29.1890   43.8350 O   0  0  0  0  0  0  0  0  0  0  0  0
   37.8590   29.6760   44.1130 H   0  0  0  0  0  0  0  0  0  0  0  0
   37.2810   28.4620   41.2300 O   0  0  0  0  0  0  0  0  0  0  0  0
   36.4910   29.6080   41.1990 C   0  0  0  0  0  0  0  0  0  0  0  0
   35.2970   29.5680   40.2730 C   0  0  0  0  0  0  0  0  0  0  0  0
   36.5150   30.4080   39.9320 C   0  0  0  0  0  0  0  0  0  0  0  0
   36.3520   30.0810   42.1900 H   0  0  0  0  0  0  0  0  0  0  0  0
   35.1120   28.6290   39.7190 H   0  0  0  0  0  0  0  0  0  0  0  0
   34.4320   30.1450   40.6220 H   0  0  0  0  0  0  0  0  0  0  0  0
   36.4380   31.5070   40.0650 H   0  0  0  0  0  0  0  0  0  0  0  0
   37.0980   30.0170   39.0800 H   0  0  0  0  0  0  0  0  0  0  0  0
   40.8230   31.5980   42.0490 O   0  0  0  0  0  0  0  0  0  0  0  0
   42.0520   32.0890   41.7650 C   0  0  0  0  0  0  0  0  0  0  0  0
   42.6090   32.6610   42.5010 H   0  0  0  0  0  0  0  0  0  0  0  0
   42.7200   31.1760   41.5950 H   0  0  0  0  0  0  0  0  0  0  0  0
   43.0880   32.2540   39.5490 C   0  0  0  0  0  0  0  0  0  0  0  0
   42.1360   32.7760   40.4400 C   0  0  0  0  0  0  0  0  0  0  0  0
   41.3960   33.8430   40.0310 C   0  0  0  0  0  0  0  0  0  0  0  0
   41.6370   34.3130   38.8040 N   0  0  0  0  0  0  0  0  0  0  0  0
   42.5250   33.8190   37.9830 C   0  0  0  0  0  0  0  0  0  0  0  0
   43.3120   32.7370   38.3290 N   0  0  0  0  0  0  0  0  0  0  0  0
   42.6910   34.4120   36.6920 N   0  0  0  0  0  0  0  0  0  0  0  0
   43.6980   31.4060   39.8310 H   0  0  0  0  0  0  0  0  0  0  0  0
   42.4390   33.8980   35.8250 H   0  0  0  0  0  0  0  0  0  0  0  0
   43.0730   35.3840   36.6400 H   0  0  0  0  0  0  0  0  0  0  0  0
   38.1740   34.2500   41.1810 H   0  0  0  0  0  0  0  0  0  0  0  0
   39.0890   33.9940   40.6350 C   0  0  0  0  0  0  0  0  0  0  0  0
   38.8960   33.2980   39.5810 O   0  0  0  0  0  0  0  0  0  0  0  0
   40.4440   34.3410   40.9620 N   0  0  0  0  0  0  0  0  0  0  0  0
   40.5420   34.9100   41.8320 H   0  0  0  0  0  0  0  0  0  0  0  0
  1 20  1  0  0  0  0
  1  2  2  0  0  0  0
  3  2  1  0  0  0  0
  3  6  1  0  0  0  0
  4  3  1  0  0  0  0
  5  3  1  0  0  0  0
  8  6  1  0  0  0  0
  8  7  2  1  0  0  0
  8  9  1  0  0  0  0
  9 10  1  0  0  0  0
 11  8  1  0  0  0  0
 12 11  1  0  0  0  0
 12 15  1  0  0  0  0
 13 17  1  0  0  0  0
 13 12  1  0  0  0  0
 14 18  1  0  0  0  0
 14 13  1  0  0  0  0
 14 12  1  0  0  0  0
 16 13  1  0  0  0  0
 19 14  1  0  0  0  0
 21 20  1  0  0  0  0
 21 22  1  0  0  0  0
 23 21  1  0  0  0  0
 24 31  1  0  0  0  0
 24 25  1  0  0  0  0
 25 21  1  0  0  0  0
 26 25  2  0  0  0  0
 26 37  1  0  0  0  0
 27 26  1  0  0  0  0
 28 29  1  0  0  0  0
 28 27  2  0  0  0  0
 29 24  2  0  0  0  0
 30 28  1  0  0  0  0
 32 30  1  0  0  0  0
 33 30  1  0  0  0  0
 35 37  1  0  0  0  0
 35 34  1  0  0  0  0
 36 35  2  0  0  0  0
 37 38  1  0  0  0  0
M  END
>  <minimizedAffinity>
-5.09122372

$$$$

 OpenBabel03252504363D

 38 39  0  0  0  0  0  0  0  0999 V2000
   36.8990   27.6580   40.8420 C   0  0  0  0  0  3  0  0  0  0  0  0
   36.0160   28.6320   41.1040 C   0  0  0  0  0  3  0  0  0  0  0  0
   35.7000   29.7560   40.1400 C   0  0  0  0  0  0  0  0  0  0  0  0
   35.4150   30.6730   40.6910 H   0  0  0  0  0  0  0  0  0  0  0  0
   34.8070   29.3940   39.5830 H   0  0  0  0  0  0  0  0  0  0  0  0
   36.7980   29.9250   39.3270 O   0  0  0  0  0  0  0  0  0  0  0  0
   37.3250   32.2950   38.2220 O   0  0  0  0  0  0  0  0  0  0  0  0
   37.4280   31.4700   39.4940 P   0  0  1  0  0  0  0  0  0  0  0  0
   36.5350   32.3250   40.6760 O   0  0  0  0  0  0  0  0  0  0  0  0
   36.0870   31.6400   41.2440 H   0  0  0  0  0  0  0  0  0  0  0  0
   39.0180   31.4390   40.0250 O   0  0  0  0  0  0  0  0  0  0  0  0
   39.1090   31.6220   41.4020 C   0  0  0  0  0  0  0  0  0  0  0  0
   40.3840   31.1390   42.0550 C   0  0  0  0  0  0  0  0  0  0  0  0
   39.0800   30.3870   42.2500 C   0  0  0  0  0  0  0  0  0  0  0  0
   38.6890   32.5850   41.7520 H   0  0  0  0  0  0  0  0  0  0  0  0
   41.1640   30.7140   41.3980 H   0  0  0  0  0  0  0  0  0  0  0  0
   40.7000   31.7290   42.9240 H   0  0  0  0  0  0  0  0  0  0  0  0
   38.5620   30.4940   43.2250 H   0  0  0  0  0  0  0  0  0  0  0  0
   39.0550   29.4070   41.7410 H   0  0  0  0  0  0  0  0  0  0  0  0
   37.0580   26.7190   41.8310 O   0  0  0  0  0  0  0  0  0  0  0  0
   37.6420   26.8190   43.0490 C   0  0  0  0  0  0  0  0  0  0  0  0
   37.6470   27.7600   43.5910 H   0  0  0  0  0  0  0  0  0  0  0  0
   37.0420   26.1310   43.7380 H   0  0  0  0  0  0  0  0  0  0  0  0
   40.0350   27.0640   43.5200 C   0  0  0  0  0  0  0  0  0  0  0  0
   39.0030   26.2020   43.1170 C   0  0  0  0  0  0  0  0  0  0  0  0
   39.3250   24.9130   42.8230 C   0  0  0  0  0  0  0  0  0  0  0  0
   40.6080   24.5660   42.9410 N   0  0  0  0  0  0  0  0  0  0  0  0
   41.5620   25.3760   43.3170 C   0  0  0  0  0  0  0  0  0  0  0  0
   41.3110   26.6980   43.6320 N   0  0  0  0  0  0  0  0  0  0  0  0
   42.9030   24.8860   43.4040 N   0  0  0  0  0  0  0  0  0  0  0  0
   39.8270   28.0970   43.7650 H   0  0  0  0  0  0  0  0  0  0  0  0
   43.3900   24.8050   44.3190 H   0  0  0  0  0  0  0  0  0  0  0  0
   43.3860   24.6070   42.5200 H   0  0  0  0  0  0  0  0  0  0  0  0
   37.6070   23.0670   40.4750 H   0  0  0  0  0  0  0  0  0  0  0  0
   38.3050   23.7000   41.0330 C   0  0  0  0  0  0  0  0  0  0  0  0
   39.2810   24.1470   40.3410 O   0  0  0  0  0  0  0  0  0  0  0  0
   38.2500   24.0730   42.4190 N   0  0  0  0  0  0  0  0  0  0  0  0
   37.4320   23.6800   42.9360 H   0  0  0  0  0  0  0  0  0  0  0  0
  1  2  2  0  0  0  0
  1 20  1  0  0  0  0
  3  4  1  0  0  0  0
  3  2  1  0  0  0  0
  5  3  1  0  0  0  0
  6  8  1  0  0  0  0
  6  3  1  0  0  0  0
  8  7  2  6  0  0  0
  8 11  1  0  0  0  0
  8  9  1  0  0  0  0
  9 10  1  0  0  0  0
 11 12  1  0  0  0  0
 12 15  1  0  0  0  0
 12 13  1  0  0  0  0
 12 14  1  0  0  0  0
 13 14  1  0  0  0  0
 13 17  1  0  0  0  0
 14 18  1  0  0  0  0
 16 13  1  0  0  0  0
 19 14  1  0  0  0  0
 20 21  1  0  0  0  0
 21 25  1  0  0  0  0
 21 22  1  0  0  0  0
 21 23  1  0  0  0  0
 24 29  1  0  0  0  0
 24 31  1  0  0  0  0
 25 24  2  0  0  0  0
 26 27  2  0  0  0  0
 26 25  1  0  0  0  0
 27 28  1  0  0  0  0
 28 30  1  0  0  0  0
 28 29  2  0  0  0  0
 30 32  1  0  0  0  0
 33 30  1  0  0  0  0
 34 35  1  0  0  0  0
 35 37  1  0  0  0  0
 36 35  2  0  0  0  0
 37 26  1  0  0  0  0
 37 38  1  0  0  0  0
M  END
>  <minimizedAffinity>
-5.06672382

$$$$

 OpenBabel03252504363D

 38 39  0  0  0  0  0  0  0  0999 V2000
   39.0500   31.0650   38.0960 C   0  0  0  0  0  3  0  0  0  0  0  0
   37.7190   31.0380   37.9410 C   0  0  0  0  0  3  0  0  0  0  0  0
   36.8330   29.9520   38.5140 C   0  0  0  0  0  0  0  0  0  0  0  0
   36.6490   29.1620   37.7620 H   0  0  0  0  0  0  0  0  0  0  0  0
   35.8680   30.4680   38.7190 H   0  0  0  0  0  0  0  0  0  0  0  0
   37.4370   29.4870   39.6610 O   0  0  0  0  0  0  0  0  0  0  0  0
   36.1820   31.4020   41.0300 O   0  0  0  0  0  0  0  0  0  0  0  0
   36.5550   29.9290   41.0170 P   0  0  1  0  0  0  0  0  0  0  0  0
   35.0730   29.0740   41.0370 O   0  0  0  0  0  0  0  0  0  0  0  0
   35.2010   28.2700   40.4630 H   0  0  0  0  0  0  0  0  0  0  0  0
   37.3550   29.5310   42.4360 O   0  0  0  0  0  0  0  0  0  0  0  0
   37.1150   28.2140   42.8150 C   0  0  0  0  0  0  0  0  0  0  0  0
   36.9390   27.9680   44.2960 C   0  0  0  0  0  0  0  0  0  0  0  0
   38.2020   27.5240   43.5820 C   0  0  0  0  0  0  0  0  0  0  0  0
   36.4450   27.6660   42.1240 H   0  0  0  0  0  0  0  0  0  0  0  0
   36.9730   28.8470   44.9660 H   0  0  0  0  0  0  0  0  0  0  0  0
   36.2470   27.1530   44.5420 H   0  0  0  0  0  0  0  0  0  0  0  0
   38.3200   26.4420   43.3660 H   0  0  0  0  0  0  0  0  0  0  0  0
   39.0960   28.1100   43.8590 H   0  0  0  0  0  0  0  0  0  0  0  0
   39.6950   32.1260   37.5100 O   0  0  0  0  0  0  0  0  0  0  0  0
   40.9940   32.5040   37.5710 C   0  0  0  0  0  0  0  0  0  0  0  0
   41.7550   31.9880   36.9930 H   0  0  0  0  0  0  0  0  0  0  0  0
   41.0290   33.5660   37.1460 H   0  0  0  0  0  0  0  0  0  0  0  0
   42.5170   31.8520   39.3780 C   0  0  0  0  0  0  0  0  0  0  0  0
   41.4940   32.7200   38.9640 C   0  0  0  0  0  0  0  0  0  0  0  0
   41.0510   33.6540   39.8490 C   0  0  0  0  0  0  0  0  0  0  0  0
   41.6290   33.6720   41.0520 N   0  0  0  0  0  0  0  0  0  0  0  0
   42.5810   32.8600   41.4280 C   0  0  0  0  0  0  0  0  0  0  0  0
   43.0820   31.8870   40.5840 N   0  0  0  0  0  0  0  0  0  0  0  0
   43.1210   32.9770   42.7470 N   0  0  0  0  0  0  0  0  0  0  0  0
   42.9020   31.0950   38.7080 H   0  0  0  0  0  0  0  0  0  0  0  0
   44.1020   33.2850   42.9040 H   0  0  0  0  0  0  0  0  0  0  0  0
   42.5020   32.7470   43.5570 H   0  0  0  0  0  0  0  0  0  0  0  0
   37.8080   34.8190   39.8890 H   0  0  0  0  0  0  0  0  0  0  0  0
   38.7580   34.2980   40.0530 C   0  0  0  0  0  0  0  0  0  0  0  0
   38.7130   33.3910   40.9510 O   0  0  0  0  0  0  0  0  0  0  0  0
   40.0140   34.5130   39.3900 N   0  0  0  0  0  0  0  0  0  0  0  0
   39.9920   35.2650   38.6660 H   0  0  0  0  0  0  0  0  0  0  0  0
  2  1  2  0  0  0  0
  2  3  1  0  0  0  0
  3  5  1  0  0  0  0
  3  6  1  0  0  0  0
  4  3  1  0  0  0  0
  6  8  1  0  0  0  0
  8  7  2  6  0  0  0
  8  9  1  0  0  0  0
  8 11  1  0  0  0  0
 10  9  1  0  0  0  0
 11 12  1  0  0  0  0
 12 14  1  0  0  0  0
 12 13  1  0  0  0  0
 13 17  1  0  0  0  0
 13 16  1  0  0  0  0
 14 19  1  0  0  0  0
 14 13  1  0  0  0  0
 15 12  1  0  0  0  0
 18 14  1  0  0  0  0
 20 21  1  0  0  0  0
 20  1  1  0  0  0  0
 21 25  1  0  0  0  0
 22 21  1  0  0  0  0
 23 21  1  0  0  0  0
 24 29  1  0  0  0  0
 25 24  2  0  0  0  0
 25 26  1  0  0  0  0
 26 27  2  0  0  0  0
 27 28  1  0  0  0  0
 28 30  1  0  0  0  0
 29 28  2  0  0  0  0
 30 32  1  0  0  0  0
 30 33  1  0  0  0  0
 31 24  1  0  0  0  0
 34 35  1  0  0  0  0
 35 36  2  0  0  0  0
 37 26  1  0  0  0  0
 37 35  1  0  0  0  0
 38 37  1  0  0  0  0
M  END
>  <minimizedAffinity>
-5.05036402

$$$$

 OpenBabel03252504363D

 38 39  0  0  0  0  0  0  0  0999 V2000
   39.1760   29.7550   42.8430 C   0  0  0  0  0  3  0  0  0  0  0  0
   39.0630   28.4550   42.5340 C   0  0  0  0  0  3  0  0  0  0  0  0
   38.4670   27.4220   43.4680 C   0  0  0  0  0  0  0  0  0  0  0  0
   37.6220   26.8990   42.9820 H   0  0  0  0  0  0  0  0  0  0  0  0
   38.0640   28.0220   44.3150 H   0  0  0  0  0  0  0  0  0  0  0  0
   39.4850   26.5790   43.8550 O   0  0  0  0  0  0  0  0  0  0  0  0
   40.9770   25.3400   42.0230 O   0  0  0  0  0  0  0  0  0  0  0  0
   39.6520   25.3140   42.7660 P   0  0  1  0  0  0  0  0  0  0  0  0
   39.6220   23.8260   43.6110 O   0  0  0  0  0  0  0  0  0  0  0  0
   39.1700   24.0040   44.4810 H   0  0  0  0  0  0  0  0  0  0  0  0
   38.3840   25.2670   41.6690 O   0  0  0  0  0  0  0  0  0  0  0  0
   37.6040   24.1250   41.8280 C   0  0  0  0  0  0  0  0  0  0  0  0
   37.6890   23.1010   40.7190 C   0  0  0  0  0  0  0  0  0  0  0  0
   36.4500   23.9610   40.8860 C   0  0  0  0  0  0  0  0  0  0  0  0
   37.5710   23.7480   42.8690 H   0  0  0  0  0  0  0  0  0  0  0  0
   38.3870   23.3080   39.8870 H   0  0  0  0  0  0  0  0  0  0  0  0
   37.5680   22.0620   41.0500 H   0  0  0  0  0  0  0  0  0  0  0  0
   35.5470   23.4870   41.3220 H   0  0  0  0  0  0  0  0  0  0  0  0
   36.3210   24.7110   40.0850 H   0  0  0  0  0  0  0  0  0  0  0  0
   39.7390   30.5490   41.8740 O   0  0  0  0  0  0  0  0  0  0  0  0
   39.4100   31.7970   41.4650 C   0  0  0  0  0  0  0  0  0  0  0  0
   38.8150   32.4530   42.0940 H   0  0  0  0  0  0  0  0  0  0  0  0
   40.4000   32.3630   41.3720 H   0  0  0  0  0  0  0  0  0  0  0  0
   39.8770   31.8430   39.0590 C   0  0  0  0  0  0  0  0  0  0  0  0
   38.8950   31.8560   40.0630 C   0  0  0  0  0  0  0  0  0  0  0  0
   37.5910   31.9300   39.6800 C   0  0  0  0  0  0  0  0  0  0  0  0
   37.3460   31.9840   38.3690 N   0  0  0  0  0  0  0  0  0  0  0  0
   38.2670   31.9700   37.4420 C   0  0  0  0  0  0  0  0  0  0  0  0
   39.6120   31.8970   37.7550 N   0  0  0  0  0  0  0  0  0  0  0  0
   37.8790   32.0350   36.0680 N   0  0  0  0  0  0  0  0  0  0  0  0
   40.9270   31.7850   39.3160 H   0  0  0  0  0  0  0  0  0  0  0  0
   38.0280   31.2310   35.4260 H   0  0  0  0  0  0  0  0  0  0  0  0
   37.4360   32.9150   35.7200 H   0  0  0  0  0  0  0  0  0  0  0  0
   35.3200   30.3800   41.7560 H   0  0  0  0  0  0  0  0  0  0  0  0
   36.0730   30.6460   41.0060 C   0  0  0  0  0  0  0  0  0  0  0  0
   36.4920   29.6610   40.3080 O   0  0  0  0  0  0  0  0  0  0  0  0
   36.6290   31.9410   40.7270 N   0  0  0  0  0  0  0  0  0  0  0  0
   36.2500   32.7070   41.3260 H   0  0  0  0  0  0  0  0  0  0  0  0
  2  1  2  0  0  0  0
  2  3  1  0  0  0  0
  3  6  1  0  0  0  0
  3  5  1  0  0  0  0
  4  3  1  0  0  0  0
  8  7  2  6  0  0  0
  8  9  1  0  0  0  0
  8  6  1  0  0  0  0
  9 10  1  0  0  0  0
 11 12  1  0  0  0  0
 11  8  1  0  0  0  0
 12 15  1  0  0  0  0
 13 14  1  0  0  0  0
 13 17  1  0  0  0  0
 13 12  1  0  0  0  0
 14 18  1  0  0  0  0
 14 12  1  0  0  0  0
 16 13  1  0  0  0  0
 19 14  1  0  0  0  0
 20  1  1  0  0  0  0
 21 20  1  0  0  0  0
 21 22  1  0  0  0  0
 23 21  1  0  0  0  0
 24 31  1  0  0  0  0
 24 25  1  0  0  0  0
 25 21  1  0  0  0  0
 26 25  2  0  0  0  0
 26 37  1  0  0  0  0
 27 26  1  0  0  0  0
 28 29  1  0  0  0  0
 28 27  2  0  0  0  0
 29 24  2  0  0  0  0
 30 28  1  0  0  0  0
 32 30  1  0  0  0  0
 33 30  1  0  0  0  0
 35 34  1  0  0  0  0
 36 35  2  0  0  0  0
 37 35  1  0  0  0  0
 37 38  1  0  0  0  0
M  END
>  <minimizedAffinity>
-5.04651117

$$$$

 OpenBabel03252504363D

 38 39  0  0  0  0  0  0  0  0999 V2000
   37.6250   30.3790   39.3820 C   0  0  0  0  0  3  0  0  0  0  0  0
   36.9060   31.4990   39.5420 C   0  0  0  0  0  3  0  0  0  0  0  0
   37.5100   32.8880   39.5340 C   0  0  0  0  0  0  0  0  0  0  0  0
   37.3040   33.4070   40.4900 H   0  0  0  0  0  0  0  0  0  0  0  0
   36.9600   33.4190   38.7250 H   0  0  0  0  0  0  0  0  0  0  0  0
   38.8530   32.7540   39.2610 O   0  0  0  0  0  0  0  0  0  0  0  0
   40.3580   34.9410   39.5180 O   0  0  0  0  0  0  0  0  0  0  0  0
   39.7620   33.7530   40.2540 P   0  0  1  0  0  0  0  0  0  0  0  0
   38.7580   34.4160   41.4710 O   0  0  0  0  0  0  0  0  0  0  0  0
   37.9680   33.8140   41.5450 H   0  0  0  0  0  0  0  0  0  0  0  0
   40.9750   32.9070   41.0440 O   0  0  0  0  0  0  0  0  0  0  0  0
   40.6580   31.5590   41.1900 C   0  0  0  0  0  0  0  0  0  0  0  0
   39.7710   31.2060   42.3620 C   0  0  0  0  0  0  0  0  0  0  0  0
   41.2460   30.8510   42.3720 C   0  0  0  0  0  0  0  0  0  0  0  0
   40.4650   31.0410   40.2300 H   0  0  0  0  0  0  0  0  0  0  0  0
   39.4070   32.0370   42.9940 H   0  0  0  0  0  0  0  0  0  0  0  0
   39.1010   30.3560   42.1840 H   0  0  0  0  0  0  0  0  0  0  0  0
   41.5230   29.7910   42.1990 H   0  0  0  0  0  0  0  0  0  0  0  0
   41.8390   31.4440   43.0910 H   0  0  0  0  0  0  0  0  0  0  0  0
   36.9110   29.2060   39.4140 O   0  0  0  0  0  0  0  0  0  0  0  0
   36.1720   28.6570   40.4070 C   0  0  0  0  0  0  0  0  0  0  0  0
   35.8730   29.2430   41.2710 H   0  0  0  0  0  0  0  0  0  0  0  0
   35.1700   28.3780   39.9300 H   0  0  0  0  0  0  0  0  0  0  0  0
   37.0560   26.4410   39.8400 C   0  0  0  0  0  0  0  0  0  0  0  0
   36.6710   27.3230   40.8630 C   0  0  0  0  0  0  0  0  0  0  0  0
   36.7760   26.8930   42.1500 C   0  0  0  0  0  0  0  0  0  0  0  0
   37.2390   25.6560   42.3410 N   0  0  0  0  0  0  0  0  0  0  0  0
   37.5950   24.8430   41.3820 C   0  0  0  0  0  0  0  0  0  0  0  0
   37.5170   25.2100   40.0510 N   0  0  0  0  0  0  0  0  0  0  0  0
   38.0770   23.5380   41.7130 N   0  0  0  0  0  0  0  0  0  0  0  0
   36.9910   26.7400   38.8020 H   0  0  0  0  0  0  0  0  0  0  0  0
   39.0640   23.2650   41.5350 H   0  0  0  0  0  0  0  0  0  0  0  0
   37.4080   22.8590   42.1430 H   0  0  0  0  0  0  0  0  0  0  0  0
   37.4490   29.1570   44.6590 H   0  0  0  0  0  0  0  0  0  0  0  0
   37.4800   28.4200   43.8480 C   0  0  0  0  0  0  0  0  0  0  0  0
   38.6580   28.0740   43.4960 O   0  0  0  0  0  0  0  0  0  0  0  0
   36.3760   27.8160   43.1560 N   0  0  0  0  0  0  0  0  0  0  0  0
   35.4390   28.1360   43.4850 H   0  0  0  0  0  0  0  0  0  0  0  0
  1 20  1  0  0  0  0
  1  2  2  0  0  0  0
  3  2  1  0  0  0  0
  3  4  1  0  0  0  0
  5  3  1  0  0  0  0
  6  3  1  0  0  0  0
  6  8  1  0  0  0  0
  8  7  2  6  0  0  0
  8 11  1  0  0  0  0
  8  9  1  0  0  0  0
  9 10  1  0  0  0  0
 11 12  1  0  0  0  0
 12 13  1  0  0  0  0
 12 14  1  0  0  0  0
 13 14  1  0  0  0  0
 13 16  1  0  0  0  0
 14 19  1  0  0  0  0
 15 12  1  0  0  0  0
 17 13  1  0  0  0  0
 18 14  1  0  0  0  0
 20 21  1  0  0  0  0
 21 25  1  0  0  0  0
 21 22  1  0  0  0  0
 23 21  1  0  0  0  0
 24 29  2  0  0  0  0
 24 25  1  0  0  0  0
 25 26  2  0  0  0  0
 26 27  1  0  0  0  0
 26 37  1  0  0  0  0
 28 30  1  0  0  0  0
 28 27  2  0  0  0  0
 29 28  1  0  0  0  0
 30 33  1  0  0  0  0
 31 24  1  0  0  0  0
 32 30  1  0  0  0  0
 35 34  1  0  0  0  0
 36 35  2  0  0  0  0
 37 38  1  0  0  0  0
 37 35  1  0  0  0  0
M  END
>  <minimizedAffinity>
-5.01417923

$$$$

 OpenBabel03252504363D

 38 39  0  0  0  0  0  0  0  0999 V2000
   37.0110   29.4780   41.9510 C   0  0  0  0  0  3  0  0  0  0  0  0
   36.5680   29.9490   40.7770 C   0  0  0  0  0  3  0  0  0  0  0  0
   36.7610   31.3820   40.3260 C   0  0  0  0  0  0  0  0  0  0  0  0
   35.8630   31.9860   40.5540 H   0  0  0  0  0  0  0  0  0  0  0  0
   36.8570   31.3070   39.2190 H   0  0  0  0  0  0  0  0  0  0  0  0
   37.9070   31.8540   40.9250 O   0  0  0  0  0  0  0  0  0  0  0  0
   37.2320   34.0000   39.4910 O   0  0  0  0  0  0  0  0  0  0  0  0
   38.3520   33.3320   40.2710 P   0  0  1  0  0  0  0  0  0  0  0  0
   38.7510   34.4180   41.5320 O   0  0  0  0  0  0  0  0  0  0  0  0
   38.9730   33.8600   42.3270 H   0  0  0  0  0  0  0  0  0  0  0  0
   39.7170   33.1990   39.3060 O   0  0  0  0  0  0  0  0  0  0  0  0
   40.4690   32.0720   39.6230 C   0  0  0  0  0  0  0  0  0  0  0  0
   41.4860   32.2390   40.7290 C   0  0  0  0  0  0  0  0  0  0  0  0
   41.9280   32.1160   39.2830 C   0  0  0  0  0  0  0  0  0  0  0  0
   39.8890   31.1280   39.6020 H   0  0  0  0  0  0  0  0  0  0  0  0
   41.5350   33.2230   41.2310 H   0  0  0  0  0  0  0  0  0  0  0  0
   41.6530   31.3380   41.3320 H   0  0  0  0  0  0  0  0  0  0  0  0
   42.3670   31.1510   38.9570 H   0  0  0  0  0  0  0  0  0  0  0  0
   42.3360   33.0530   38.8640 H   0  0  0  0  0  0  0  0  0  0  0  0
   36.7500   28.1520   42.1950 O   0  0  0  0  0  0  0  0  0  0  0  0
   37.0480   27.3830   43.2700 C   0  0  0  0  0  0  0  0  0  0  0  0
   36.9900   27.7850   44.2770 H   0  0  0  0  0  0  0  0  0  0  0  0
   36.2640   26.5500   43.2830 H   0  0  0  0  0  0  0  0  0  0  0  0
   39.4140   27.0960   43.8440 C   0  0  0  0  0  0  0  0  0  0  0  0
   38.3150   26.6040   43.1210 C   0  0  0  0  0  0  0  0  0  0  0  0
   38.4990   25.4920   42.3580 C   0  0  0  0  0  0  0  0  0  0  0  0
   39.7190   24.9510   42.3580 N   0  0  0  0  0  0  0  0  0  0  0  0
   40.7360   25.4170   43.0340 C   0  0  0  0  0  0  0  0  0  0  0  0
   40.6250   26.5420   43.8300 N   0  0  0  0  0  0  0  0  0  0  0  0
   41.9970   24.7490   42.9510 N   0  0  0  0  0  0  0  0  0  0  0  0
   39.3150   27.9770   44.4640 H   0  0  0  0  0  0  0  0  0  0  0  0
   42.4050   24.2600   43.7730 H   0  0  0  0  0  0  0  0  0  0  0  0
   42.5040   24.7620   42.0370 H   0  0  0  0  0  0  0  0  0  0  0  0
   36.6490   25.1140   39.4760 H   0  0  0  0  0  0  0  0  0  0  0  0
   37.3940   25.3520   40.2440 C   0  0  0  0  0  0  0  0  0  0  0  0
   38.4060   26.0010   39.8120 O   0  0  0  0  0  0  0  0  0  0  0  0
   37.3620   25.0260   41.6420 N   0  0  0  0  0  0  0  0  0  0  0  0
   36.5120   24.4970   41.9380 H   0  0  0  0  0  0  0  0  0  0  0  0
  1 20  1  0  0  0  0
  2  1  2  0  0  0  0
  3  4  1  0  0  0  0
  3  2  1  0  0  0  0
  3  6  1  0  0  0  0
  5  3  1  0  0  0  0
  8  7  2  6  0  0  0
  8  6  1  0  0  0  0
  8  9  1  0  0  0  0
  9 10  1  0  0  0  0
 11 12  1  0  0  0  0
 11  8  1  0  0  0  0
 12 13  1  0  0  0  0
 13 16  1  0  0  0  0
 13 17  1  0  0  0  0
 14 12  1  0  0  0  0
 14 13  1  0  0  0  0
 15 12  1  0  0  0  0
 18 14  1  0  0  0  0
 19 14  1  0  0  0  0
 20 21  1  0  0  0  0
 21 23  1  0  0  0  0
 21 22  1  0  0  0  0
 24 31  1  0  0  0  0
 25 21  1  0  0  0  0
 25 24  2  0  0  0  0
 26 27  2  0  0  0  0
 26 25  1  0  0  0  0
 27 28  1  0  0  0  0
 28 29  2  0  0  0  0
 29 24  1  0  0  0  0
 30 28  1  0  0  0  0
 30 32  1  0  0  0  0
 33 30  1  0  0  0  0
 34 35  1  0  0  0  0
 35 37  1  0  0  0  0
 36 35  2  0  0  0  0
 37 38  1  0  0  0  0
 37 26  1  0  0  0  0
M  END
>  <minimizedAffinity>
-4.91683054

$$$$

 OpenBabel03252504363D

 38 39  0  0  0  0  0  0  0  0999 V2000
   37.8770   29.0640   38.9730 C   0  0  0  0  0  3  0  0  0  0  0  0
   36.7340   28.6210   39.5140 C   0  0  0  0  0  3  0  0  0  0  0  0
   36.6800   27.6530   40.6780 C   0  0  0  0  0  0  0  0  0  0  0  0
   37.6520   27.1410   40.8030 H   0  0  0  0  0  0  0  0  0  0  0  0
   35.9260   26.8960   40.3660 H   0  0  0  0  0  0  0  0  0  0  0  0
   36.2870   28.3650   41.7900 O   0  0  0  0  0  0  0  0  0  0  0  0
   38.6800   29.2520   42.5640 O   0  0  0  0  0  0  0  0  0  0  0  0
   37.5000   28.3740   42.9460 P   0  0  1  0  0  0  0  0  0  0  0  0
   36.8910   29.0240   44.4070 O   0  0  0  0  0  0  0  0  0  0  0  0
   35.9000   28.9260   44.3700 H   0  0  0  0  0  0  0  0  0  0  0  0
   38.0350   26.8250   43.2990 O   0  0  0  0  0  0  0  0  0  0  0  0
   39.3710   26.6450   42.9530 C   0  0  0  0  0  0  0  0  0  0  0  0
   39.9600   25.2850   43.2510 C   0  0  0  0  0  0  0  0  0  0  0  0
   40.3460   26.4960   44.0810 C   0  0  0  0  0  0  0  0  0  0  0  0
   39.6510   27.1230   41.9940 H   0  0  0  0  0  0  0  0  0  0  0  0
   39.2860   24.5220   43.6830 H   0  0  0  0  0  0  0  0  0  0  0  0
   40.7290   24.9580   42.5410 H   0  0  0  0  0  0  0  0  0  0  0  0
   41.3450   26.9440   43.9050 H   0  0  0  0  0  0  0  0  0  0  0  0
   39.9500   26.4700   45.1110 H   0  0  0  0  0  0  0  0  0  0  0  0
   37.7370   29.9410   37.9240 O   0  0  0  0  0  0  0  0  0  0  0  0
   37.4310   31.2600   37.9210 C   0  0  0  0  0  0  0  0  0  0  0  0
   37.1550   31.7670   37.0010 H   0  0  0  0  0  0  0  0  0  0  0  0
   36.4870   31.3610   38.5600 H   0  0  0  0  0  0  0  0  0  0  0  0
   37.8810   32.7500   39.8140 C   0  0  0  0  0  0  0  0  0  0  0  0
   38.4020   32.1060   38.6790 C   0  0  0  0  0  0  0  0  0  0  0  0
   39.7110   32.3120   38.3720 C   0  0  0  0  0  0  0  0  0  0  0  0
   40.4040   33.1170   39.1810 N   0  0  0  0  0  0  0  0  0  0  0  0
   39.9110   33.7110   40.2340 C   0  0  0  0  0  0  0  0  0  0  0  0
   38.5900   33.5490   40.6090 N   0  0  0  0  0  0  0  0  0  0  0  0
   40.7560   34.5530   41.0230 N   0  0  0  0  0  0  0  0  0  0  0  0
   36.8460   32.6150   40.0980 H   0  0  0  0  0  0  0  0  0  0  0  0
   41.0190   34.2970   41.9960 H   0  0  0  0  0  0  0  0  0  0  0  0
   41.1090   35.4400   40.5960 H   0  0  0  0  0  0  0  0  0  0  0  0
   41.5870   29.8760   36.8170 H   0  0  0  0  0  0  0  0  0  0  0  0
   41.0800   30.5490   37.5180 C   0  0  0  0  0  0  0  0  0  0  0  0
   41.3190   30.3070   38.7490 O   0  0  0  0  0  0  0  0  0  0  0  0
   40.1980   31.6420   37.2160 N   0  0  0  0  0  0  0  0  0  0  0  0
   40.0390   31.7940   36.1950 H   0  0  0  0  0  0  0  0  0  0  0  0
  1  2  2  0  0  0  0
  2  3  1  0  0  0  0
  3  4  1  0  0  0  0
  3  6  1  0  0  0  0
  5  3  1  0  0  0  0
  6  8  1  0  0  0  0
  8  7  2  6  0  0  0
  8 11  1  0  0  0  0
  8  9  1  0  0  0  0
 10  9  1  0  0  0  0
 12 13  1  0  0  0  0
 12 11  1  0  0  0  0
 12 14  1  0  0  0  0
 13 16  1  0  0  0  0
 13 14  1  0  0  0  0
 14 19  1  0  0  0  0
 15 12  1  0  0  0  0
 17 13  1  0  0  0  0
 18 14  1  0  0  0  0
 20  1  1  0  0  0  0
 21 20  1  0  0  0  0
 21 23  1  0  0  0  0
 21 25  1  0  0  0  0
 22 21  1  0  0  0  0
 24 31  1  0  0  0  0
 24 29  1  0  0  0  0
 25 24  2  0  0  0  0
 26 25  1  0  0  0  0
 26 27  2  0  0  0  0
 27 28  1  0  0  0  0
 28 29  2  0  0  0  0
 28 30  1  0  0  0  0
 30 32  1  0  0  0  0
 33 30  1  0  0  0  0
 34 35  1  0  0  0  0
 35 36  2  0  0  0  0
 37 35  1  0  0  0  0
 37 26  1  0  0  0  0
 38 37  1  0  0  0  0
M  END
>  <minimizedAffinity>
-4.91030741

$$$$
