
 OpenBabel03242522253D

 38 40  0  0  1  0  0  0  0  0999 V2000
   45.0140   34.7290   45.4320 C   0  0  0  0  0  0  0  0  0  0  0  0
   45.5490   34.9410   44.1490 C   0  0  0  0  0  0  0  0  0  0  0  0
   46.4870   34.0660   43.5950 C   0  0  0  0  0  0  0  0  0  0  0  0
   46.8520   33.0070   44.3640 N   0  0  0  0  0  0  0  0  0  0  0  0
   46.3420   32.8100   45.5830 C   0  0  0  0  0  0  0  0  0  0  0  0
   45.4410   33.6520   46.1100 N   0  0  0  0  0  0  0  0  0  0  0  0
   44.2880   35.4570   45.7910 H   0  0  0  0  0  0  0  0  0  0  0  0
   45.2450   35.7890   43.5540 H   0  0  0  0  0  0  0  0  0  0  0  0
   46.7950   31.6290   46.3560 C   0  0  2  0  0  0  0  0  0  0  0  0
   47.8140   30.8300   45.5690 C   0  0  0  0  0  0  0  0  0  0  0  0
   47.0440   29.7320   44.8480 C   0  0  0  0  0  0  0  0  0  0  0  0
   46.5050   28.8100   45.7090 O   0  0  0  0  0  0  0  0  0  0  0  0
   45.9910   29.3430   46.8870 C   0  0  0  0  0  0  0  0  0  0  0  0
   45.5670   30.7720   46.5980 C   0  0  1  0  0  0  0  0  0  0  0  0
   47.2070   31.9420   47.3380 H   0  0  0  0  0  0  0  0  0  0  0  0
   48.4600   30.3070   46.3140 H   0  0  0  0  0  0  0  0  0  0  0  0
   48.3550   31.4310   44.8380 H   0  0  0  0  0  0  0  0  0  0  0  0
   47.8220   29.2080   44.2200 H   0  0  0  0  0  0  0  0  0  0  0  0
   46.3260   30.1400   44.1070 H   0  0  0  0  0  0  0  0  0  0  0  0
   46.7150   29.2780   47.7220 H   0  0  0  0  0  0  0  0  0  0  0  0
   45.0620   28.7820   47.1280 H   0  0  0  0  0  0  0  0  0  0  0  0
   45.0260   30.7080   45.6150 H   0  0  0  0  0  0  0  0  0  0  0  0
   44.3360   31.7640   49.7040 H   0  0  0  0  0  0  0  0  0  0  0  0
   45.0090   31.3790   48.9760 C   0  0  0  0  0  0  0  0  0  0  0  0
   46.0550   31.0710   49.6370 O   0  0  0  0  0  0  0  0  0  0  0  0
   44.6710   31.2880   47.5780 N   0  0  0  0  0  0  0  0  0  0  0  0
   43.7120   31.6340   47.3590 H   0  0  0  0  0  0  0  0  0  0  0  0
   45.0590   32.5510   41.5140 Cl  0  0  0  0  0  0  0  0  0  0  0  0
   46.4450   33.5970   41.2050 C   0  0  0  0  0  0  0  0  0  0  0  0
   47.0510   34.2710   42.2640 C   0  0  0  0  0  0  0  0  0  0  0  0
   48.1210   35.0710   41.9740 C   0  0  0  0  0  0  0  0  0  0  0  0
   48.5930   35.2100   40.6830 C   0  0  0  0  0  0  0  0  0  0  0  0
   47.9400   34.5060   39.6670 C   0  0  0  0  0  0  0  0  0  0  0  0
   48.5590   34.7000   38.0330 Cl  0  0  0  0  0  0  0  0  0  0  0  0
   46.8620   33.6900   39.9000 C   0  0  0  0  0  0  0  0  0  0  0  0
   48.5750   35.5830   42.8040 H   0  0  0  0  0  0  0  0  0  0  0  0
   49.4320   35.8400   40.4750 H   0  0  0  0  0  0  0  0  0  0  0  0
   46.3850   33.1640   39.0900 H   0  0  0  0  0  0  0  0  0  0  0  0
  1  7  1  0  0  0  0
  1  6  1  0  0  0  0
  2  1  2  0  0  0  0
  3  2  1  0  0  0  0
  3  4  2  0  0  0  0
  4  5  1  0  0  0  0
  5  6  2  0  0  0  0
  5  9  1  0  0  0  0
  8  2  1  0  0  0  0
  9 14  1  0  0  0  0
  9 15  1  1  0  0  0
 10 16  1  0  0  0  0
 10  9  1  0  0  0  0
 11 10  1  0  0  0  0
 11 12  1  0  0  0  0
 12 13  1  0  0  0  0
 13 21  1  0  0  0  0
 13 20  1  0  0  0  0
 14 22  1  6  0  0  0
 14 13  1  0  0  0  0
 14 26  1  0  0  0  0
 17 10  1  0  0  0  0
 18 11  1  0  0  0  0
 19 11  1  0  0  0  0
 24 25  2  0  0  0  0
 24 23  1  0  0  0  0
 26 24  1  0  0  0  0
 27 26  1  0  0  0  0
 29 28  1  0  0  0  0
 29 30  1  0  0  0  0
 30  3  1  0  0  0  0
 31 30  2  0  0  0  0
 31 36  1  0  0  0  0
 32 31  1  0  0  0  0
 33 35  1  0  0  0  0
 33 32  2  0  0  0  0
 34 33  1  0  0  0  0
 35 29  2  0  0  0  0
 37 32  1  0  0  0  0
 38 35  1  0  0  0  0
M  END
>  <minimizedAffinity>
-5.96025181

>  <minimizedRMSD>
1.44789457

$$$$
