
 OpenBabel03252509253D

 26 27  0  0  1  0  0  0  0  0999 V2000
   46.5580   35.0490   41.9190 C   0  0  1  0  0  0  0  0  0  0  0  0
   48.0960   35.2750   41.9310 C   0  0  0  0  0  0  0  0  0  0  0  0
   47.3450   34.0480   41.3290 C   0  0  2  0  0  0  0  0  0  0  0  0
   46.0080   35.8170   41.3360 H   0  0  0  0  0  0  0  0  0  0  0  0
   48.4530   36.0200   41.2240 H   0  0  0  0  0  0  0  0  0  0  0  0
   48.6510   35.1410   42.8560 H   0  0  0  0  0  0  0  0  0  0  0  0
   47.5570   33.1150   41.9390 H   0  0  0  0  0  0  0  0  0  0  0  0
   44.6300   35.4510   45.1130 C   0  0  0  0  0  0  0  0  0  0  0  0
   45.1080   35.7270   43.8050 C   0  0  0  0  0  0  0  0  0  0  0  0
   46.0460   34.8720   43.3310 C   0  0  0  0  0  0  0  0  0  0  0  0
   46.5090   33.8080   44.0710 N   0  0  0  0  0  0  0  0  0  0  0  0
   46.0300   33.5760   45.3130 C   0  0  0  0  0  0  0  0  0  0  0  0
   45.0840   34.4040   45.8360 N   0  0  0  0  0  0  0  0  0  0  0  0
   43.8780   36.0990   45.5420 H   0  0  0  0  0  0  0  0  0  0  0  0
   46.4760   32.7130   45.7830 H   0  0  0  0  0  0  0  0  0  0  0  0
   44.6600   36.8390   43.0750 N   0  0  0  0  0  0  0  0  0  0  0  0
   44.7630   37.7570   43.5760 H   0  0  0  0  0  0  0  0  0  0  0  0
   44.2920   36.5940   42.1450 H   0  0  0  0  0  0  0  0  0  0  0  0
   47.3780   33.8470   39.8330 C   0  0  0  0  0  0  0  0  0  0  0  0
   48.3620   34.1860   39.4400 H   0  0  0  0  0  0  0  0  0  0  0  0
   46.5400   34.4000   39.3550 H   0  0  0  0  0  0  0  0  0  0  0  0
   48.3330   30.5750   39.0080 H   0  0  0  0  0  0  0  0  0  0  0  0
   48.3740   31.6340   39.2460 C   0  0  0  0  0  0  0  0  0  0  0  0
   49.5110   32.2080   39.2860 O   0  0  0  0  0  0  0  0  0  0  0  0
   47.2310   32.4340   39.5210 N   0  0  0  0  0  0  0  0  0  0  0  0
   46.2930   31.9370   39.4840 H   0  0  0  0  0  0  0  0  0  0  0  0
  1  4  1  6  0  0  0
  1  2  1  0  0  0  0
  1 10  1  0  0  0  0
  2  6  1  0  0  0  0
  3  1  1  0  0  0  0
  3  2  1  0  0  0  0
  3  7  1  1  0  0  0
  5  2  1  0  0  0  0
  8 14  1  0  0  0  0
  8 13  1  0  0  0  0
  9  8  2  0  0  0  0
 10  9  1  0  0  0  0
 10 11  2  0  0  0  0
 11 12  1  0  0  0  0
 12 15  1  0  0  0  0
 12 13  2  0  0  0  0
 16 17  1  0  0  0  0
 16  9  1  0  0  0  0
 18 16  1  0  0  0  0
 19  3  1  0  0  0  0
 20 19  1  0  0  0  0
 21 19  1  0  0  0  0
 22 23  1  0  0  0  0
 23 24  2  0  0  0  0
 23 25  1  0  0  0  0
 25 19  1  0  0  0  0
 26 25  1  0  0  0  0
M  END
>  <minimizedAffinity>
-4.19250059

>  <minimizedRMSD>
0.823557556

$$$$
