
 OpenBabel03252505063D

 39 41  0  0  1  0  0  0  0  0999 V2000
   44.5460   35.5430   44.6030 C   0  0  0  0  0  0  0  0  0  0  0  0
   45.2430   35.6180   43.3730 C   0  0  0  0  0  0  0  0  0  0  0  0
   46.3580   34.7590   43.2150 C   0  0  0  0  0  0  0  0  0  0  0  0
   46.7100   33.9160   44.2260 N   0  0  0  0  0  0  0  0  0  0  0  0
   46.0100   33.8860   45.3780 C   0  0  0  0  0  0  0  0  0  0  0  0
   44.9250   34.6980   45.5740 N   0  0  0  0  0  0  0  0  0  0  0  0
   43.6940   36.1730   44.7740 H   0  0  0  0  0  0  0  0  0  0  0  0
   44.9350   36.2950   42.6020 H   0  0  0  0  0  0  0  0  0  0  0  0
   46.4310   32.9520   46.4570 C   0  0  2  0  0  0  0  0  0  0  0  0
   46.9430   31.7250   45.7520 C   0  0  0  0  0  0  0  0  0  0  0  0
   46.0710   30.5470   45.7740 C   0  0  0  0  0  0  0  0  0  0  0  0
   45.7740   30.2790   47.2480 C   0  0  0  0  0  0  0  0  0  0  0  0
   45.0020   31.3540   47.8560 C   0  0  0  0  0  0  0  0  0  0  0  0
   45.3750   32.7230   47.4170 C   0  0  0  0  0  0  0  0  0  0  0  0
   47.2810   33.4700   46.9660 H   0  0  0  0  0  0  0  0  0  0  0  0
   47.2120   31.9210   44.6850 H   0  0  0  0  0  0  0  0  0  0  0  0
   47.9280   31.4480   46.2160 H   0  0  0  0  0  0  0  0  0  0  0  0
   45.1500   30.6510   45.1890 H   0  0  0  0  0  0  0  0  0  0  0  0
   46.6280   29.6760   45.4060 H   0  0  0  0  0  0  0  0  0  0  0  0
   46.6810   29.9860   47.7710 H   0  0  0  0  0  0  0  0  0  0  0  0
   45.0670   29.4020   47.2100 H   0  0  0  0  0  0  0  0  0  0  0  0
   44.2170   31.4000   48.5550 H   0  0  0  0  0  0  0  0  0  0  0  0
   44.6930   33.8650   47.9370 N   0  0  0  0  0  0  0  0  0  0  0  0
   45.3040   34.3810   48.5970 H   0  0  0  0  0  0  0  0  0  0  0  0
   43.7380   34.2010   47.7410 H   0  0  0  0  0  0  0  0  0  0  0  0
   47.1050   34.7980   41.9660 C   0  0  0  0  0  0  0  0  0  0  0  0
   48.2650   35.4990   41.9210 C   0  0  0  0  0  0  0  0  0  0  0  0
   48.9450   35.5020   40.6890 C   0  0  0  0  0  0  0  0  0  0  0  0
   48.3730   34.7980   39.6500 C   0  0  0  0  0  0  0  0  0  0  0  0
   47.2060   34.0940   39.7030 C   0  0  0  0  0  0  0  0  0  0  0  0
   46.5960   34.1290   40.9140 N   0  0  0  0  0  0  0  0  0  0  0  0
   48.6680   36.0280   42.7540 H   0  0  0  0  0  0  0  0  0  0  0  0
   49.8850   36.0440   40.5800 H   0  0  0  0  0  0  0  0  0  0  0  0
   48.9420   34.8370   38.7310 H   0  0  0  0  0  0  0  0  0  0  0  0
   46.7870   33.1380   36.4400 H   0  0  0  0  0  0  0  0  0  0  0  0
   47.2040   33.6830   37.2900 C   0  0  0  0  0  0  0  0  0  0  0  0
   48.1270   34.5540   37.1990 O   0  0  0  0  0  0  0  0  0  0  0  0
   46.6640   33.3860   38.5930 N   0  0  0  0  0  0  0  0  0  0  0  0
   45.9190   32.7030   38.7920 H   0  0  0  0  0  0  0  0  0  0  0  0
  1  7  1  0  0  0  0
  1  6  1  0  0  0  0
  2  1  2  0  0  0  0
  3  2  1  0  0  0  0
  3  4  2  0  0  0  0
  4  5  1  0  0  0  0
  5  6  2  0  0  0  0
  5  9  1  0  0  0  0
  8  2  1  0  0  0  0
  9 15  1  1  0  0  0
  9 14  1  0  0  0  0
 10 11  1  0  0  0  0
 10 17  1  0  0  0  0
 10  9  1  0  0  0  0
 11 12  1  0  0  0  0
 12 20  1  0  0  0  0
 12 13  1  0  0  0  0
 13 22  1  0  0  0  0
 14 13  2  0  0  0  0
 14 23  1  0  0  0  0
 16 10  1  0  0  0  0
 18 11  1  0  0  0  0
 19 11  1  0  0  0  0
 21 12  1  0  0  0  0
 23 24  1  0  0  0  0
 25 23  1  0  0  0  0
 26  3  1  0  0  0  0
 27 26  1  0  0  0  0
 27 32  1  0  0  0  0
 28 27  2  0  0  0  0
 29 30  2  0  0  0  0
 29 28  1  0  0  0  0
 30 31  1  0  0  0  0
 31 26  2  0  0  0  0
 33 28  1  0  0  0  0
 34 29  1  0  0  0  0
 35 36  1  0  0  0  0
 36 38  1  0  0  0  0
 37 36  2  0  0  0  0
 38 39  1  0  0  0  0
 38 30  1  0  0  0  0
M  END
>  <minimizedAffinity>
-7.61546659

>  <minimizedRMSD>
0.234966725

$$$$
