
 OpenBabel03252501213D

 28 28  0  0  0  0  0  0  0  0999 V2000
   36.6500   27.2950   42.9990 C   0  0  0  0  0  0  0  0  0  0  0  0
   35.9020   26.6200   42.6180 H   0  0  0  0  0  0  0  0  0  0  0  0
   36.4070   27.4540   44.0910 H   0  0  0  0  0  0  0  0  0  0  0  0
   39.0400   27.6230   43.4420 C   0  0  0  0  0  0  0  0  0  0  0  0
   38.0220   26.8330   42.9290 C   0  0  0  0  0  0  0  0  0  0  0  0
   38.4010   25.6180   42.3700 C   0  0  0  0  0  0  0  0  0  0  0  0
   39.7340   25.2550   42.3440 N   0  0  0  0  0  0  0  0  0  0  0  0
   40.6760   26.0690   42.8590 C   0  0  0  0  0  0  0  0  0  0  0  0
   40.3330   27.2700   43.4170 N   0  0  0  0  0  0  0  0  0  0  0  0
   38.8640   28.5980   43.9050 H   0  0  0  0  0  0  0  0  0  0  0  0
   41.6660   25.6320   42.7560 H   0  0  0  0  0  0  0  0  0  0  0  0
   37.3060   24.8020   41.8360 C   0  0  0  0  0  0  0  0  0  0  0  0
   37.7950   23.5250   41.5550 F   0  0  0  0  0  0  0  0  0  0  0  0
   36.9330   25.3650   40.6480 F   0  0  0  0  0  0  0  0  0  0  0  0
   36.3110   24.6340   42.7420 F   0  0  0  0  0  0  0  0  0  0  0  0
   36.5460   28.6510   42.4260 N   0  0  0  0  0  0  0  0  0  0  0  0
   37.4630   29.1340   42.4620 H   0  0  0  0  0  0  0  0  0  0  0  0
   36.1350   28.4780   41.0690 C   0  0  0  0  0  0  0  0  0  0  0  0
   37.0020   28.3400   40.3650 H   0  0  0  0  0  0  0  0  0  0  0  0
   35.5040   27.5760   40.9470 H   0  0  0  0  0  0  0  0  0  0  0  0
   35.4110   29.7000   40.5300 C   0  0  0  0  0  0  0  0  0  0  0  0
   35.7850   29.8280   39.4730 H   0  0  0  0  0  0  0  0  0  0  0  0
   34.3320   29.5700   40.4950 H   0  0  0  0  0  0  0  0  0  0  0  0
   37.1690   32.6190   40.9360 H   0  0  0  0  0  0  0  0  0  0  0  0
   36.7970   31.7010   40.5460 C   0  0  0  0  0  0  0  0  0  0  0  0
   37.3370   31.3850   39.4540 O   0  0  0  0  0  0  0  0  0  0  0  0
   35.7980   30.9230   41.2040 N   0  0  0  0  0  0  0  0  0  0  0  0
   35.3870   31.2270   42.1010 H   0  0  0  0  0  0  0  0  0  0  0  0
  1  3  1  0  0  0  0
  2  1  1  0  0  0  0
  4 10  1  0  0  0  0
  5  1  1  0  0  0  0
  5  4  2  0  0  0  0
  6  5  1  0  0  0  0
  7  6  2  0  0  0  0
  7  8  1  0  0  0  0
  8  9  2  0  0  0  0
  9  4  1  0  0  0  0
 11  8  1  0  0  0  0
 12  6  1  0  0  0  0
 12 15  1  0  0  0  0
 13 12  1  0  0  0  0
 14 12  1  0  0  0  0
 16 17  1  0  0  0  0
 16  1  1  0  0  0  0
 18 16  1  0  0  0  0
 19 18  1  0  0  0  0
 20 18  1  0  0  0  0
 21 18  1  0  0  0  0
 21 27  1  0  0  0  0
 22 21  1  0  0  0  0
 23 21  1  0  0  0  0
 25 24  1  0  0  0  0
 25 27  1  0  0  0  0
 26 25  2  0  0  0  0
 27 28  1  0  0  0  0
M  END
>  <minimizedAffinity>
-4.71203089

$$$$

 OpenBabel03252501213D

 28 28  0  0  0  0  0  0  0  0999 V2000
   37.8680   29.1710   42.9500 C   0  0  0  0  0  0  0  0  0  0  0  0
   36.8420   28.9820   43.2180 H   0  0  0  0  0  0  0  0  0  0  0  0
   38.2680   29.8980   43.7150 H   0  0  0  0  0  0  0  0  0  0  0  0
   40.1160   28.2000   43.1060 C   0  0  0  0  0  0  0  0  0  0  0  0
   38.7500   28.0190   42.9510 C   0  0  0  0  0  0  0  0  0  0  0  0
   38.3090   26.7090   42.8040 C   0  0  0  0  0  0  0  0  0  0  0  0
   39.2190   25.6690   42.8170 N   0  0  0  0  0  0  0  0  0  0  0  0
   40.5350   25.9110   42.9710 C   0  0  0  0  0  0  0  0  0  0  0  0
   40.9980   27.1910   43.1180 N   0  0  0  0  0  0  0  0  0  0  0  0
   40.5770   29.1840   43.2290 H   0  0  0  0  0  0  0  0  0  0  0  0
   41.1060   24.9870   42.9580 H   0  0  0  0  0  0  0  0  0  0  0  0
   36.8610   26.5460   42.6430 C   0  0  0  0  0  0  0  0  0  0  0  0
   36.5610   25.1810   42.6500 F   0  0  0  0  0  0  0  0  0  0  0  0
   36.5420   27.0260   41.4040 F   0  0  0  0  0  0  0  0  0  0  0  0
   36.1710   27.0880   43.6770 F   0  0  0  0  0  0  0  0  0  0  0  0
   38.0030   29.9060   41.6780 N   0  0  0  0  0  0  0  0  0  0  0  0
   38.3460   29.2770   40.9260 H   0  0  0  0  0  0  0  0  0  0  0  0
   36.6970   30.3870   41.3560 C   0  0  0  0  0  0  0  0  0  0  0  0
   35.9710   29.5590   41.1230 H   0  0  0  0  0  0  0  0  0  0  0  0
   36.2510   30.9480   42.2010 H   0  0  0  0  0  0  0  0  0  0  0  0
   36.6950   31.2430   40.1010 C   0  0  0  0  0  0  0  0  0  0  0  0
   37.6300   30.9550   39.5400 H   0  0  0  0  0  0  0  0  0  0  0  0
   35.8390   31.0480   39.4590 H   0  0  0  0  0  0  0  0  0  0  0  0
   38.4570   34.1610   40.4990 H   0  0  0  0  0  0  0  0  0  0  0  0
   38.1990   33.1450   40.3130 C   0  0  0  0  0  0  0  0  0  0  0  0
   39.2000   32.4370   40.0270 O   0  0  0  0  0  0  0  0  0  0  0  0
   36.8610   32.6540   40.3840 N   0  0  0  0  0  0  0  0  0  0  0  0
   36.0740   33.2780   40.6240 H   0  0  0  0  0  0  0  0  0  0  0  0
  1  5  1  0  0  0  0
  1  2  1  0  0  0  0
  1  3  1  0  0  0  0
  4  9  1  0  0  0  0
  4 10  1  0  0  0  0
  5  4  2  0  0  0  0
  6  7  2  0  0  0  0
  6  5  1  0  0  0  0
  7  8  1  0  0  0  0
  8  9  2  0  0  0  0
 11  8  1  0  0  0  0
 12 13  1  0  0  0  0
 12  6  1  0  0  0  0
 12 15  1  0  0  0  0
 14 12  1  0  0  0  0
 16  1  1  0  0  0  0
 17 16  1  0  0  0  0
 18 16  1  0  0  0  0
 18 20  1  0  0  0  0
 19 18  1  0  0  0  0
 21 27  1  0  0  0  0
 21 18  1  0  0  0  0
 22 21  1  0  0  0  0
 23 21  1  0  0  0  0
 25 27  1  0  0  0  0
 25 24  1  0  0  0  0
 26 25  2  0  0  0  0
 27 28  1  0  0  0  0
M  END
>  <minimizedAffinity>
-4.60526752

$$$$

 OpenBabel03252501213D

 28 28  0  0  0  0  0  0  0  0999 V2000
   37.3530   29.1260   41.9640 C   0  0  0  0  0  0  0  0  0  0  0  0
   36.4700   29.1840   41.3500 H   0  0  0  0  0  0  0  0  0  0  0  0
   37.8420   28.1370   41.7250 H   0  0  0  0  0  0  0  0  0  0  0  0
   39.5760   30.0730   42.3890 C   0  0  0  0  0  0  0  0  0  0  0  0
   38.3480   30.1590   41.7510 C   0  0  0  0  0  0  0  0  0  0  0  0
   38.1520   31.2610   40.9270 C   0  0  0  0  0  0  0  0  0  0  0  0
   39.1540   32.2010   40.7790 N   0  0  0  0  0  0  0  0  0  0  0  0
   40.3270   32.0590   41.4270 C   0  0  0  0  0  0  0  0  0  0  0  0
   40.5490   30.9840   42.2450 N   0  0  0  0  0  0  0  0  0  0  0  0
   39.8440   29.2520   43.0600 H   0  0  0  0  0  0  0  0  0  0  0  0
   41.0000   32.8820   41.2010 H   0  0  0  0  0  0  0  0  0  0  0  0
   36.8460   31.3280   40.2640 C   0  0  0  0  0  0  0  0  0  0  0  0
   36.7530   32.5420   39.5790 F   0  0  0  0  0  0  0  0  0  0  0  0
   35.9000   31.3440   41.2500 F   0  0  0  0  0  0  0  0  0  0  0  0
   36.7010   30.3560   39.3300 F   0  0  0  0  0  0  0  0  0  0  0  0
   37.0460   29.0140   43.4030 N   0  0  0  0  0  0  0  0  0  0  0  0
   36.1970   29.5620   43.6400 H   0  0  0  0  0  0  0  0  0  0  0  0
   36.8200   27.6260   43.6550 C   0  0  0  0  0  0  0  0  0  0  0  0
   37.1110   27.3190   44.6980 H   0  0  0  0  0  0  0  0  0  0  0  0
   35.7490   27.3630   43.5530 H   0  0  0  0  0  0  0  0  0  0  0  0
   37.6650   26.7370   42.7580 C   0  0  0  0  0  0  0  0  0  0  0  0
   37.8670   27.3490   41.8330 H   0  0  0  0  0  0  0  0  0  0  0  0
   38.6200   26.4710   43.2060 H   0  0  0  0  0  0  0  0  0  0  0  0
   37.2850   23.4490   41.8530 H   0  0  0  0  0  0  0  0  0  0  0  0
   37.6970   24.3700   42.1920 C   0  0  0  0  0  0  0  0  0  0  0  0
   38.9130   24.2710   42.5020 O   0  0  0  0  0  0  0  0  0  0  0  0
   36.9420   25.5780   42.2770 N   0  0  0  0  0  0  0  0  0  0  0  0
   35.9450   25.6060   42.0090 H   0  0  0  0  0  0  0  0  0  0  0  0
  1 16  1  0  0  0  0
  2  1  1  0  0  0  0
  3  1  1  0  0  0  0
  4 10  1  0  0  0  0
  5  1  1  0  0  0  0
  5  4  2  0  0  0  0
  6  5  1  0  0  0  0
  7  6  2  0  0  0  0
  7  8  1  0  0  0  0
  8  9  2  0  0  0  0
  9  4  1  0  0  0  0
 11  8  1  0  0  0  0
 12  6  1  0  0  0  0
 12 14  1  0  0  0  0
 13 12  1  0  0  0  0
 15 12  1  0  0  0  0
 16 17  1  0  0  0  0
 16 18  1  0  0  0  0
 18 19  1  0  0  0  0
 20 18  1  0  0  0  0
 21 23  1  0  0  0  0
 21 18  1  0  0  0  0
 22 21  1  0  0  0  0
 24 25  1  0  0  0  0
 25 27  1  0  0  0  0
 25 26  2  0  0  0  0
 27 21  1  0  0  0  0
 28 27  1  0  0  0  0
M  END
>  <minimizedAffinity>
-4.21435452

$$$$

 OpenBabel03252501213D

 28 28  0  0  0  0  0  0  0  0999 V2000
   38.2150   29.1650   40.6960 C   0  0  0  0  0  0  0  0  0  0  0  0
   37.7220   29.7590   41.4470 H   0  0  0  0  0  0  0  0  0  0  0  0
   39.2690   29.5620   40.6170 H   0  0  0  0  0  0  0  0  0  0  0  0
   39.1990   26.9630   40.2440 C   0  0  0  0  0  0  0  0  0  0  0  0
   38.3120   27.7440   40.9690 C   0  0  0  0  0  0  0  0  0  0  0  0
   37.5560   27.0900   41.9360 C   0  0  0  0  0  0  0  0  0  0  0  0
   37.7110   25.7320   42.1320 N   0  0  0  0  0  0  0  0  0  0  0  0
   38.5920   25.0280   41.3940 C   0  0  0  0  0  0  0  0  0  0  0  0
   39.3500   25.6450   40.4350 N   0  0  0  0  0  0  0  0  0  0  0  0
   39.8450   27.3670   39.4600 H   0  0  0  0  0  0  0  0  0  0  0  0
   38.5870   23.9790   41.6750 H   0  0  0  0  0  0  0  0  0  0  0  0
   36.6260   27.9380   42.6880 C   0  0  0  0  0  0  0  0  0  0  0  0
   36.0160   27.1650   43.6790 F   0  0  0  0  0  0  0  0  0  0  0  0
   35.6480   28.3270   41.8160 F   0  0  0  0  0  0  0  0  0  0  0  0
   37.2670   28.9430   43.3360 F   0  0  0  0  0  0  0  0  0  0  0  0
   37.6680   29.3800   39.3420 N   0  0  0  0  0  0  0  0  0  0  0  0
   37.2470   28.5050   38.9750 H   0  0  0  0  0  0  0  0  0  0  0  0
   36.6660   30.3890   39.4740 C   0  0  0  0  0  0  0  0  0  0  0  0
   36.6470   31.1020   38.6030 H   0  0  0  0  0  0  0  0  0  0  0  0
   35.6500   29.9500   39.5230 H   0  0  0  0  0  0  0  0  0  0  0  0
   36.9080   31.2830   40.6790 C   0  0  0  0  0  0  0  0  0  0  0  0
   36.0530   31.0750   41.3830 H   0  0  0  0  0  0  0  0  0  0  0  0
   37.8380   31.0530   41.1950 H   0  0  0  0  0  0  0  0  0  0  0  0
   38.0610   34.4060   39.8460 H   0  0  0  0  0  0  0  0  0  0  0  0
   38.0120   33.3710   40.0900 C   0  0  0  0  0  0  0  0  0  0  0  0
   39.1450   32.8240   40.1090 O   0  0  0  0  0  0  0  0  0  0  0  0
   36.7870   32.6910   40.3640 N   0  0  0  0  0  0  0  0  0  0  0  0
   35.8820   33.1880   40.3350 H   0  0  0  0  0  0  0  0  0  0  0  0
  1  5  1  0  0  0  0
  1  2  1  0  0  0  0
  3  1  1  0  0  0  0
  4  9  2  0  0  0  0
  4  5  1  0  0  0  0
  5  6  2  0  0  0  0
  6  7  1  0  0  0  0
  6 12  1  0  0  0  0
  8 11  1  0  0  0  0
  8  7  2  0  0  0  0
  9  8  1  0  0  0  0
 10  4  1  0  0  0  0
 12 15  1  0  0  0  0
 12 13  1  0  0  0  0
 14 12  1  0  0  0  0
 16 18  1  0  0  0  0
 16  1  1  0  0  0  0
 17 16  1  0  0  0  0
 18 20  1  0  0  0  0
 18 21  1  0  0  0  0
 19 18  1  0  0  0  0
 21 23  1  0  0  0  0
 21 22  1  0  0  0  0
 24 25  1  0  0  0  0
 25 26  2  0  0  0  0
 25 27  1  0  0  0  0
 27 21  1  0  0  0  0
 28 27  1  0  0  0  0
M  END
>  <minimizedAffinity>
-4.18495464

$$$$

 OpenBabel03252501213D

 28 28  0  0  0  0  0  0  0  0999 V2000
   38.6820   27.8680   43.3160 C   0  0  0  0  0  0  0  0  0  0  0  0
   38.8640   28.0110   44.3680 H   0  0  0  0  0  0  0  0  0  0  0  0
   37.7460   27.2410   43.2380 H   0  0  0  0  0  0  0  0  0  0  0  0
   39.4090   30.0800   42.5440 C   0  0  0  0  0  0  0  0  0  0  0  0
   38.4570   29.0720   42.5390 C   0  0  0  0  0  0  0  0  0  0  0  0
   37.3230   29.2920   41.7660 C   0  0  0  0  0  0  0  0  0  0  0  0
   37.1880   30.4690   41.0560 N   0  0  0  0  0  0  0  0  0  0  0  0
   38.1500   31.4110   41.1010 C   0  0  0  0  0  0  0  0  0  0  0  0
   39.2780   31.2220   41.8530 N   0  0  0  0  0  0  0  0  0  0  0  0
   40.3400   30.0200   43.1130 H   0  0  0  0  0  0  0  0  0  0  0  0
   37.8860   32.2680   40.4880 H   0  0  0  0  0  0  0  0  0  0  0  0
   36.3330   28.2100   41.7790 C   0  0  0  0  0  0  0  0  0  0  0  0
   36.8460   27.1270   41.0610 F   0  0  0  0  0  0  0  0  0  0  0  0
   35.2370   28.6650   41.1000 F   0  0  0  0  0  0  0  0  0  0  0  0
   36.0970   27.7530   43.0330 F   0  0  0  0  0  0  0  0  0  0  0  0
   39.7070   27.0330   42.6630 N   0  0  0  0  0  0  0  0  0  0  0  0
   40.5300   27.6060   42.3950 H   0  0  0  0  0  0  0  0  0  0  0  0
   40.0890   26.0480   43.6250 C   0  0  0  0  0  0  0  0  0  0  0  0
   40.8730   26.4200   44.3430 H   0  0  0  0  0  0  0  0  0  0  0  0
   39.2310   25.7380   44.2530 H   0  0  0  0  0  0  0  0  0  0  0  0
   40.7290   24.8320   42.9770 C   0  0  0  0  0  0  0  0  0  0  0  0
   40.4180   23.9540   43.6140 H   0  0  0  0  0  0  0  0  0  0  0  0
   40.3750   24.6590   41.9630 H   0  0  0  0  0  0  0  0  0  0  0  0
   43.9070   25.5890   41.9280 H   0  0  0  0  0  0  0  0  0  0  0  0
   42.8480   25.5070   41.9880 C   0  0  0  0  0  0  0  0  0  0  0  0
   42.2660   26.0490   41.0120 O   0  0  0  0  0  0  0  0  0  0  0  0
   42.1750   24.8490   43.0600 N   0  0  0  0  0  0  0  0  0  0  0  0
   42.7000   24.4180   43.8380 H   0  0  0  0  0  0  0  0  0  0  0  0
  1  2  1  0  0  0  0
  3  1  1  0  0  0  0
  4 10  1  0  0  0  0
  5  4  1  0  0  0  0
  5  1  1  0  0  0  0
  6 12  1  0  0  0  0
  6  5  2  0  0  0  0
  7  8  2  0  0  0  0
  7  6  1  0  0  0  0
  8  9  1  0  0  0  0
  9  4  2  0  0  0  0
 11  8  1  0  0  0  0
 12 15  1  0  0  0  0
 13 12  1  0  0  0  0
 14 12  1  0  0  0  0
 16  1  1  0  0  0  0
 16 18  1  0  0  0  0
 17 16  1  0  0  0  0
 18 20  1  0  0  0  0
 18 19  1  0  0  0  0
 21 27  1  0  0  0  0
 21 22  1  0  0  0  0
 21 18  1  0  0  0  0
 23 21  1  0  0  0  0
 24 25  1  0  0  0  0
 25 27  1  0  0  0  0
 26 25  2  0  0  0  0
 27 28  1  0  0  0  0
M  END
>  <minimizedAffinity>
-4.05698109

$$$$

 OpenBabel03252501213D

 28 28  0  0  0  0  0  0  0  0999 V2000
   37.5010   28.2560   41.1040 C   0  0  0  0  0  0  0  0  0  0  0  0
   38.3690   28.7620   41.4920 H   0  0  0  0  0  0  0  0  0  0  0  0
   37.4350   28.5300   40.0110 H   0  0  0  0  0  0  0  0  0  0  0  0
   36.7120   26.0630   40.3360 C   0  0  0  0  0  0  0  0  0  0  0  0
   37.5200   26.8080   41.1820 C   0  0  0  0  0  0  0  0  0  0  0  0
   38.3140   26.0920   42.0710 C   0  0  0  0  0  0  0  0  0  0  0  0
   38.2710   24.7120   42.0790 N   0  0  0  0  0  0  0  0  0  0  0  0
   37.4640   24.0460   41.2300 C   0  0  0  0  0  0  0  0  0  0  0  0
   36.6710   24.7230   40.3440 N   0  0  0  0  0  0  0  0  0  0  0  0
   36.0460   26.5150   39.5960 H   0  0  0  0  0  0  0  0  0  0  0  0
   37.5520   22.9720   41.3690 H   0  0  0  0  0  0  0  0  0  0  0  0
   39.1580   26.9030   42.9540 C   0  0  0  0  0  0  0  0  0  0  0  0
   40.0250   27.6660   42.1680 F   0  0  0  0  0  0  0  0  0  0  0  0
   39.9250   26.0350   43.6790 F   0  0  0  0  0  0  0  0  0  0  0  0
   38.4310   27.7880   43.6790 F   0  0  0  0  0  0  0  0  0  0  0  0
   36.2360   28.7720   41.6610 N   0  0  0  0  0  0  0  0  0  0  0  0
   36.3650   29.0690   42.6480 H   0  0  0  0  0  0  0  0  0  0  0  0
   35.8760   29.8950   40.8550 C   0  0  0  0  0  0  0  0  0  0  0  0
   35.9190   29.6720   39.7520 H   0  0  0  0  0  0  0  0  0  0  0  0
   34.8370   30.2230   41.0540 H   0  0  0  0  0  0  0  0  0  0  0  0
   36.8350   31.0600   41.0330 C   0  0  0  0  0  0  0  0  0  0  0  0
   36.5830   31.5050   42.0380 H   0  0  0  0  0  0  0  0  0  0  0  0
   37.8780   30.7490   41.0510 H   0  0  0  0  0  0  0  0  0  0  0  0
   37.5430   33.9890   39.3930 H   0  0  0  0  0  0  0  0  0  0  0  0
   37.5980   33.1470   40.0420 C   0  0  0  0  0  0  0  0  0  0  0  0
   38.6360   33.1530   40.7540 O   0  0  0  0  0  0  0  0  0  0  0  0
   36.5970   32.1320   40.0900 N   0  0  0  0  0  0  0  0  0  0  0  0
   35.7620   32.1750   39.4830 H   0  0  0  0  0  0  0  0  0  0  0  0
  1  5  1  0  0  0  0
  1  2  1  0  0  0  0
  1 16  1  0  0  0  0
  3  1  1  0  0  0  0
  4  9  2  0  0  0  0
  4  5  1  0  0  0  0
  5  6  2  0  0  0  0
  6  7  1  0  0  0  0
  6 12  1  0  0  0  0
  8 11  1  0  0  0  0
  8  7  2  0  0  0  0
  9  8  1  0  0  0  0
 10  4  1  0  0  0  0
 12 15  1  0  0  0  0
 12 14  1  0  0  0  0
 13 12  1  0  0  0  0
 16 17  1  0  0  0  0
 18 21  1  0  0  0  0
 18 20  1  0  0  0  0
 18 16  1  0  0  0  0
 19 18  1  0  0  0  0
 21 23  1  0  0  0  0
 21 22  1  0  0  0  0
 24 25  1  0  0  0  0
 25 27  1  0  0  0  0
 25 26  2  0  0  0  0
 27 21  1  0  0  0  0
 28 27  1  0  0  0  0
M  END
>  <minimizedAffinity>
-4.04830313

$$$$

 OpenBabel03252501213D

 28 28  0  0  0  0  0  0  0  0999 V2000
   38.7160   30.4720   39.8940 C   0  0  0  0  0  0  0  0  0  0  0  0
   37.6500   30.4910   39.7430 H   0  0  0  0  0  0  0  0  0  0  0  0
   39.1580   29.9750   38.9820 H   0  0  0  0  0  0  0  0  0  0  0  0
   40.6970   31.8250   40.4080 C   0  0  0  0  0  0  0  0  0  0  0  0
   39.3630   31.7620   40.0350 C   0  0  0  0  0  0  0  0  0  0  0  0
   38.7220   32.9760   39.8150 C   0  0  0  0  0  0  0  0  0  0  0  0
   39.4140   34.1610   39.9720 N   0  0  0  0  0  0  0  0  0  0  0  0
   40.7110   34.1550   40.3370 C   0  0  0  0  0  0  0  0  0  0  0  0
   41.3680   32.9750   40.5600 N   0  0  0  0  0  0  0  0  0  0  0  0
   41.3030   30.9370   40.6080 H   0  0  0  0  0  0  0  0  0  0  0  0
   41.0990   35.1670   40.4140 H   0  0  0  0  0  0  0  0  0  0  0  0
   37.3130   32.8810   39.4210 C   0  0  0  0  0  0  0  0  0  0  0  0
   37.2400   32.2880   38.1590 F   0  0  0  0  0  0  0  0  0  0  0  0
   36.8480   34.1610   39.2970 F   0  0  0  0  0  0  0  0  0  0  0  0
   36.6050   32.0800   40.2560 F   0  0  0  0  0  0  0  0  0  0  0  0
   39.1250   29.5820   40.9980 N   0  0  0  0  0  0  0  0  0  0  0  0
   40.1430   29.6680   41.1800 H   0  0  0  0  0  0  0  0  0  0  0  0
   38.3840   30.0050   42.1440 C   0  0  0  0  0  0  0  0  0  0  0  0
   38.8400   30.9010   42.6520 H   0  0  0  0  0  0  0  0  0  0  0  0
   37.3530   30.3060   41.8750 H   0  0  0  0  0  0  0  0  0  0  0  0
   38.3530   28.9430   43.2300 C   0  0  0  0  0  0  0  0  0  0  0  0
   39.3260   29.0570   43.7890 H   0  0  0  0  0  0  0  0  0  0  0  0
   37.5370   29.0840   43.9350 H   0  0  0  0  0  0  0  0  0  0  0  0
   37.1110   25.8200   42.5380 H   0  0  0  0  0  0  0  0  0  0  0  0
   37.2100   26.8220   42.8810 C   0  0  0  0  0  0  0  0  0  0  0  0
   36.1740   27.2390   43.4610 O   0  0  0  0  0  0  0  0  0  0  0  0
   38.3950   27.5960   42.6980 N   0  0  0  0  0  0  0  0  0  0  0  0
   39.2190   27.2060   42.2140 H   0  0  0  0  0  0  0  0  0  0  0  0
  1  5  1  0  0  0  0
  1 16  1  0  0  0  0
  2  1  1  0  0  0  0
  3  1  1  0  0  0  0
  4  9  1  0  0  0  0
  4 10  1  0  0  0  0
  5  4  2  0  0  0  0
  6  7  2  0  0  0  0
  6  5  1  0  0  0  0
  7  8  1  0  0  0  0
  8 11  1  0  0  0  0
  8  9  2  0  0  0  0
 12  6  1  0  0  0  0
 12 15  1  0  0  0  0
 13 12  1  0  0  0  0
 14 12  1  0  0  0  0
 16 17  1  0  0  0  0
 16 18  1  0  0  0  0
 18 19  1  0  0  0  0
 18 21  1  0  0  0  0
 20 18  1  0  0  0  0
 21 22  1  0  0  0  0
 21 23  1  0  0  0  0
 24 25  1  0  0  0  0
 25 26  2  0  0  0  0
 27 25  1  0  0  0  0
 27 21  1  0  0  0  0
 28 27  1  0  0  0  0
M  END
>  <minimizedAffinity>
-3.99615455

$$$$

 OpenBabel03252501213D

 28 28  0  0  0  0  0  0  0  0999 V2000
   37.5610   30.8800   40.1290 C   0  0  0  0  0  0  0  0  0  0  0  0
   38.5530   30.9890   39.7230 H   0  0  0  0  0  0  0  0  0  0  0  0
   36.8830   30.6550   39.2550 H   0  0  0  0  0  0  0  0  0  0  0  0
   38.0050   29.8960   42.3330 C   0  0  0  0  0  0  0  0  0  0  0  0
   37.3810   29.8150   41.0970 C   0  0  0  0  0  0  0  0  0  0  0  0
   36.6030   28.6860   40.8670 C   0  0  0  0  0  0  0  0  0  0  0  0
   36.4850   27.7170   41.8450 N   0  0  0  0  0  0  0  0  0  0  0  0
   37.1180   27.8550   43.0270 C   0  0  0  0  0  0  0  0  0  0  0  0
   37.8900   28.9560   43.2810 N   0  0  0  0  0  0  0  0  0  0  0  0
   38.6410   30.7360   42.6260 H   0  0  0  0  0  0  0  0  0  0  0  0
   36.9190   27.0080   43.6770 H   0  0  0  0  0  0  0  0  0  0  0  0
   35.9540   28.6250   39.5540 C   0  0  0  0  0  0  0  0  0  0  0  0
   36.9100   28.8880   38.5690 F   0  0  0  0  0  0  0  0  0  0  0  0
   35.0410   29.6420   39.5140 F   0  0  0  0  0  0  0  0  0  0  0  0
   35.4660   27.3890   39.2850 F   0  0  0  0  0  0  0  0  0  0  0  0
   37.0180   32.1430   40.6650 N   0  0  0  0  0  0  0  0  0  0  0  0
   37.5090   32.4110   41.5400 H   0  0  0  0  0  0  0  0  0  0  0  0
   37.2390   33.1300   39.6570 C   0  0  0  0  0  0  0  0  0  0  0  0
   37.6490   32.6960   38.7030 H   0  0  0  0  0  0  0  0  0  0  0  0
   36.2970   33.6400   39.3730 H   0  0  0  0  0  0  0  0  0  0  0  0
   38.2820   34.1530   40.0750 C   0  0  0  0  0  0  0  0  0  0  0  0
   37.8920   35.1460   39.7080 H   0  0  0  0  0  0  0  0  0  0  0  0
   38.4040   34.2140   41.1540 H   0  0  0  0  0  0  0  0  0  0  0  0
   41.4670   32.9490   39.6530 H   0  0  0  0  0  0  0  0  0  0  0  0
   40.5020   33.1560   40.0510 C   0  0  0  0  0  0  0  0  0  0  0  0
   40.3080   32.5980   41.1620 O   0  0  0  0  0  0  0  0  0  0  0  0
   39.5440   33.9800   39.3870 N   0  0  0  0  0  0  0  0  0  0  0  0
   39.7540   34.4150   38.4750 H   0  0  0  0  0  0  0  0  0  0  0  0
  1 16  1  0  0  0  0
  1  5  1  0  0  0  0
  2  1  1  0  0  0  0
  3  1  1  0  0  0  0
  4 10  1  0  0  0  0
  4  9  1  0  0  0  0
  5  4  2  0  0  0  0
  6  5  1  0  0  0  0
  6  7  2  0  0  0  0
  7  8  1  0  0  0  0
  8  9  2  0  0  0  0
  8 11  1  0  0  0  0
 12  6  1  0  0  0  0
 13 12  1  0  0  0  0
 14 12  1  0  0  0  0
 15 12  1  0  0  0  0
 16 17  1  0  0  0  0
 18 21  1  0  0  0  0
 18 16  1  0  0  0  0
 19 18  1  0  0  0  0
 20 18  1  0  0  0  0
 21 23  1  0  0  0  0
 22 21  1  0  0  0  0
 24 25  1  0  0  0  0
 25 26  2  0  0  0  0
 27 25  1  0  0  0  0
 27 21  1  0  0  0  0
 28 27  1  0  0  0  0
M  END
>  <minimizedAffinity>
-3.9920156

$$$$

 OpenBabel03252501213D

 28 28  0  0  0  0  0  0  0  0999 V2000
   37.1180   30.1810   41.2890 C   0  0  0  0  0  0  0  0  0  0  0  0
   37.5250   29.2690   40.8830 H   0  0  0  0  0  0  0  0  0  0  0  0
   37.1830   30.0860   42.4120 H   0  0  0  0  0  0  0  0  0  0  0  0
   37.1580   32.3450   40.1340 C   0  0  0  0  0  0  0  0  0  0  0  0
   37.8040   31.4040   40.9220 C   0  0  0  0  0  0  0  0  0  0  0  0
   39.1010   31.7110   41.3170 C   0  0  0  0  0  0  0  0  0  0  0  0
   39.6810   32.9010   40.9230 N   0  0  0  0  0  0  0  0  0  0  0  0
   38.9990   33.7740   40.1550 C   0  0  0  0  0  0  0  0  0  0  0  0
   37.7210   33.5000   39.7510 N   0  0  0  0  0  0  0  0  0  0  0  0
   36.1380   32.2130   39.7630 H   0  0  0  0  0  0  0  0  0  0  0  0
   39.6000   34.6530   39.9380 H   0  0  0  0  0  0  0  0  0  0  0  0
   39.7610   30.7000   42.1500 C   0  0  0  0  0  0  0  0  0  0  0  0
   38.9070   30.3610   43.2030 F   0  0  0  0  0  0  0  0  0  0  0  0
   40.8640   31.2940   42.6970 F   0  0  0  0  0  0  0  0  0  0  0  0
   39.9910   29.5520   41.4680 F   0  0  0  0  0  0  0  0  0  0  0  0
   35.6700   30.3230   41.0430 N   0  0  0  0  0  0  0  0  0  0  0  0
   35.4910   31.0480   40.3220 H   0  0  0  0  0  0  0  0  0  0  0  0
   35.2180   29.0500   40.5800 C   0  0  0  0  0  0  0  0  0  0  0  0
   35.5100   28.2070   41.2670 H   0  0  0  0  0  0  0  0  0  0  0  0
   34.1130   29.0100   40.5110 H   0  0  0  0  0  0  0  0  0  0  0  0
   35.8400   28.6710   39.2460 C   0  0  0  0  0  0  0  0  0  0  0  0
   36.9350   28.9220   39.3440 H   0  0  0  0  0  0  0  0  0  0  0  0
   35.7520   27.6100   39.0260 H   0  0  0  0  0  0  0  0  0  0  0  0
   33.9250   29.4320   36.5020 H   0  0  0  0  0  0  0  0  0  0  0  0
   34.3530   28.9280   37.3360 C   0  0  0  0  0  0  0  0  0  0  0  0
   33.8640   27.7810   37.5110 O   0  0  0  0  0  0  0  0  0  0  0  0
   35.3730   29.5000   38.1550 N   0  0  0  0  0  0  0  0  0  0  0  0
   35.7410   30.4470   37.9670 H   0  0  0  0  0  0  0  0  0  0  0  0
  1  3  1  0  0  0  0
  2  1  1  0  0  0  0
  4  5  1  0  0  0  0
  5  1  1  0  0  0  0
  5  6  2  0  0  0  0
  6 12  1  0  0  0  0
  7  6  1  0  0  0  0
  8  7  2  0  0  0  0
  9  4  2  0  0  0  0
  9  8  1  0  0  0  0
 10  4  1  0  0  0  0
 11  8  1  0  0  0  0
 12 14  1  0  0  0  0
 12 13  1  0  0  0  0
 15 12  1  0  0  0  0
 16  1  1  0  0  0  0
 17 16  1  0  0  0  0
 18 16  1  0  0  0  0
 18 19  1  0  0  0  0
 20 18  1  0  0  0  0
 21 22  1  0  0  0  0
 21 18  1  0  0  0  0
 23 21  1  0  0  0  0
 24 25  1  0  0  0  0
 25 26  2  0  0  0  0
 25 27  1  0  0  0  0
 27 21  1  0  0  0  0
 28 27  1  0  0  0  0
M  END
>  <minimizedAffinity>
-3.91378331

$$$$
