
 OpenBabel03252509253D

 26 27  0  0  1  0  0  0  0  0999 V2000
   46.6330   35.0930   41.8690 C   0  0  1  0  0  0  0  0  0  0  0  0
   48.1720   35.3100   41.8680 C   0  0  0  0  0  0  0  0  0  0  0  0
   47.4030   34.1230   41.2090 C   0  0  2  0  0  0  0  0  0  0  0  0
   46.0790   35.8970   41.3400 H   0  0  0  0  0  0  0  0  0  0  0  0
   48.5230   36.0910   41.1990 H   0  0  0  0  0  0  0  0  0  0  0  0
   48.7410   35.1190   42.7740 H   0  0  0  0  0  0  0  0  0  0  0  0
   47.6180   33.1550   41.7610 H   0  0  0  0  0  0  0  0  0  0  0  0
   44.7190   35.2820   45.0910 C   0  0  0  0  0  0  0  0  0  0  0  0
   45.1720   35.6300   43.7910 C   0  0  0  0  0  0  0  0  0  0  0  0
   46.1430   34.8380   43.2770 C   0  0  0  0  0  0  0  0  0  0  0  0
   46.6610   33.7690   43.9700 N   0  0  0  0  0  0  0  0  0  0  0  0
   46.2050   33.4670   45.2060 C   0  0  0  0  0  0  0  0  0  0  0  0
   45.2280   34.2300   45.7690 N   0  0  0  0  0  0  0  0  0  0  0  0
   43.9430   35.8780   45.5500 H   0  0  0  0  0  0  0  0  0  0  0  0
   46.6940   32.6070   45.6380 H   0  0  0  0  0  0  0  0  0  0  0  0
   44.6670   36.7490   43.1090 N   0  0  0  0  0  0  0  0  0  0  0  0
   44.7330   37.6500   43.6440 H   0  0  0  0  0  0  0  0  0  0  0  0
   44.3020   36.5240   42.1730 H   0  0  0  0  0  0  0  0  0  0  0  0
   47.4110   34.0090   39.7030 C   0  0  0  0  0  0  0  0  0  0  0  0
   47.8000   34.9540   39.2660 H   0  0  0  0  0  0  0  0  0  0  0  0
   46.3860   33.7840   39.3330 H   0  0  0  0  0  0  0  0  0  0  0  0
   49.5140   32.1280   37.6220 H   0  0  0  0  0  0  0  0  0  0  0  0
   48.8500   32.9060   37.9880 C   0  0  0  0  0  0  0  0  0  0  0  0
   48.5450   33.8660   37.2080 O   0  0  0  0  0  0  0  0  0  0  0  0
   48.2920   32.9270   39.2960 N   0  0  0  0  0  0  0  0  0  0  0  0
   48.5600   32.1180   39.9300 H   0  0  0  0  0  0  0  0  0  0  0  0
  1  4  1  6  0  0  0
  1 10  1  0  0  0  0
  2  1  1  0  0  0  0
  2  6  1  0  0  0  0
  3  7  1  1  0  0  0
  3  2  1  0  0  0  0
  3  1  1  0  0  0  0
  5  2  1  0  0  0  0
  8 14  1  0  0  0  0
  8 13  1  0  0  0  0
  9  8  2  0  0  0  0
 10  9  1  0  0  0  0
 10 11  2  0  0  0  0
 11 12  1  0  0  0  0
 12 15  1  0  0  0  0
 12 13  2  0  0  0  0
 16 17  1  0  0  0  0
 16  9  1  0  0  0  0
 18 16  1  0  0  0  0
 19  3  1  0  0  0  0
 20 19  1  0  0  0  0
 21 19  1  0  0  0  0
 22 23  1  0  0  0  0
 23 25  1  0  0  0  0
 24 23  2  0  0  0  0
 25 19  1  0  0  0  0
 25 26  1  0  0  0  0
M  END
>  <minimizedAffinity>
-4.31281948

>  <minimizedRMSD>
0.181544572

$$$$
