
 OpenBabel03252508273D

 37 40  0  0  1  0  0  0  0  0999 V2000
   38.4670   29.3620   42.8460 C   0  0  1  0  0  0  0  0  0  0  0  0
   37.3660   28.8540   43.6790 C   0  0  0  0  0  0  0  0  0  0  0  0
   37.9750   28.0570   42.4600 C   0  0  2  0  0  0  0  0  0  0  0  0
   39.3230   29.5640   43.5820 H   0  0  0  0  0  0  0  0  0  0  0  0
   37.5100   28.2580   44.5940 H   0  0  0  0  0  0  0  0  0  0  0  0
   36.3370   29.2250   43.5610 H   0  0  0  0  0  0  0  0  0  0  0  0
   37.0550   27.8940   41.8090 H   0  0  0  0  0  0  0  0  0  0  0  0
   38.6620   26.7830   42.6940 C   0  0  0  0  0  0  0  0  0  0  0  0
   39.7380   26.5590   43.4980 C   0  0  0  0  0  0  0  0  0  0  0  0
   40.4410   25.3660   43.5990 C   0  0  0  0  0  0  0  0  0  0  0  0
   39.9850   24.3060   42.7910 C   0  0  0  0  0  0  0  0  0  0  0  0
   38.8820   24.5090   41.9580 C   0  0  0  0  0  0  0  0  0  0  0  0
   38.4380   23.4170   41.2310 C   0  0  0  0  0  0  0  0  0  0  0  0
   37.3050   23.5580   40.4450 C   0  0  0  0  0  0  0  0  0  0  0  0
   36.6280   24.7580   40.3880 C   0  0  0  0  0  0  0  0  0  0  0  0
   37.1140   25.8070   41.1310 C   0  0  0  0  0  0  0  0  0  0  0  0
   38.2460   25.7250   41.9260 C   0  0  0  0  0  0  0  0  0  0  0  0
   40.0530   27.4000   44.1010 H   0  0  0  0  0  0  0  0  0  0  0  0
   41.2870   25.2560   44.2590 H   0  0  0  0  0  0  0  0  0  0  0  0
   40.5170   23.3730   42.8520 H   0  0  0  0  0  0  0  0  0  0  0  0
   38.9960   22.4810   41.2990 H   0  0  0  0  0  0  0  0  0  0  0  0
   37.0490   22.6310   39.9110 H   0  0  0  0  0  0  0  0  0  0  0  0
   35.7900   24.6640   39.7380 H   0  0  0  0  0  0  0  0  0  0  0  0
   36.3990   26.5650   40.9940 H   0  0  0  0  0  0  0  0  0  0  0  0
   36.9720   31.5990   40.3130 C   0  0  0  0  0  0  0  0  0  0  0  0
   37.9670   32.6290   40.2000 C   0  0  0  0  0  0  0  0  0  0  0  0
   39.1360   32.5310   41.0200 C   0  0  0  0  0  0  0  0  0  0  0  0
   39.2550   31.4800   41.8620 N   0  0  0  0  0  0  0  0  0  0  0  0
   38.2650   30.5210   41.9250 C   0  0  0  0  0  0  0  0  0  0  0  0
   37.1670   30.5800   41.1790 N   0  0  0  0  0  0  0  0  0  0  0  0
   36.1220   31.7430   39.6630 H   0  0  0  0  0  0  0  0  0  0  0  0
   37.9090   33.4660   39.5530 H   0  0  0  0  0  0  0  0  0  0  0  0
   42.0240   33.8560   39.7210 H   0  0  0  0  0  0  0  0  0  0  0  0
   41.1690   33.2770   39.9920 C   0  0  0  0  0  0  0  0  0  0  0  0
   41.0960   32.1640   39.3690 O   0  0  0  0  0  0  0  0  0  0  0  0
   40.1230   33.5440   40.9160 N   0  0  0  0  0  0  0  0  0  0  0  0
   40.2150   34.4610   41.4070 H   0  0  0  0  0  0  0  0  0  0  0  0
  1  4  1  1  0  0  0
  1  2  1  0  0  0  0
  2  5  1  0  0  0  0
  3  7  1  6  0  0  0
  3  8  1  0  0  0  0
  3  1  1  0  0  0  0
  3  2  1  0  0  0  0
  6  2  1  0  0  0  0
  8  9  1  0  0  0  0
  9 10  2  0  0  0  0
  9 18  1  0  0  0  0
 10 19  1  0  0  0  0
 11 20  1  0  0  0  0
 11 10  1  0  0  0  0
 12 11  2  0  0  0  0
 13 21  1  0  0  0  0
 13 12  1  0  0  0  0
 14 13  2  0  0  0  0
 15 14  1  0  0  0  0
 15 16  2  0  0  0  0
 16 17  1  0  0  0  0
 17 12  1  0  0  0  0
 17  8  2  0  0  0  0
 22 14  1  0  0  0  0
 23 15  1  0  0  0  0
 24 16  1  0  0  0  0
 25 30  1  0  0  0  0
 26 25  2  0  0  0  0
 26 27  1  0  0  0  0
 27 28  2  0  0  0  0
 28 29  1  0  0  0  0
 29  1  1  0  0  0  0
 30 29  2  0  0  0  0
 31 25  1  0  0  0  0
 32 26  1  0  0  0  0
 33 34  1  0  0  0  0
 34 36  1  0  0  0  0
 35 34  2  0  0  0  0
 36 27  1  0  0  0  0
 36 37  1  0  0  0  0
M  END
>  <minimizedAffinity>
-6.17875719

$$$$

 OpenBabel03252508273D

 37 40  0  0  1  0  0  0  0  0999 V2000
   36.9130   29.6370   38.6180 C   0  0  1  0  0  0  0  0  0  0  0  0
   36.7610   30.8850   39.3830 C   0  0  0  0  0  0  0  0  0  0  0  0
   36.2270   29.4860   39.8820 C   0  0  2  0  0  0  0  0  0  0  0  0
   38.0430   29.5310   38.4520 H   0  0  0  0  0  0  0  0  0  0  0  0
   37.5000   31.2570   40.1080 H   0  0  0  0  0  0  0  0  0  0  0  0
   36.0010   31.6350   39.1140 H   0  0  0  0  0  0  0  0  0  0  0  0
   35.1190   29.7020   40.0320 H   0  0  0  0  0  0  0  0  0  0  0  0
   36.7920   28.8820   41.0930 C   0  0  0  0  0  0  0  0  0  0  0  0
   37.2610   29.5260   42.1970 C   0  0  0  0  0  0  0  0  0  0  0  0
   37.9050   28.9280   43.2730 C   0  0  0  0  0  0  0  0  0  0  0  0
   38.0770   27.5330   43.1960 C   0  0  0  0  0  0  0  0  0  0  0  0
   37.6030   26.8470   42.0760 C   0  0  0  0  0  0  0  0  0  0  0  0
   37.7430   25.4700   42.0790 C   0  0  0  0  0  0  0  0  0  0  0  0
   37.2250   24.7460   41.0170 C   0  0  0  0  0  0  0  0  0  0  0  0
   36.5780   25.3800   39.9770 C   0  0  0  0  0  0  0  0  0  0  0  0
   36.4680   26.7490   40.0270 C   0  0  0  0  0  0  0  0  0  0  0  0
   36.9740   27.5230   41.0580 C   0  0  0  0  0  0  0  0  0  0  0  0
   37.1070   30.5970   42.2130 H   0  0  0  0  0  0  0  0  0  0  0  0
   38.2520   29.5000   44.1190 H   0  0  0  0  0  0  0  0  0  0  0  0
   38.5750   27.0500   44.0180 H   0  0  0  0  0  0  0  0  0  0  0  0
   38.2590   24.9990   42.9170 H   0  0  0  0  0  0  0  0  0  0  0  0
   37.3980   23.6650   41.1230 H   0  0  0  0  0  0  0  0  0  0  0  0
   36.2520   24.6570   39.2660 H   0  0  0  0  0  0  0  0  0  0  0  0
   35.8760   26.9840   39.1900 H   0  0  0  0  0  0  0  0  0  0  0  0
   34.1690   28.8710   36.2650 C   0  0  0  0  0  0  0  0  0  0  0  0
   34.8350   28.9510   34.9930 C   0  0  0  0  0  0  0  0  0  0  0  0
   36.2270   29.2830   34.9810 C   0  0  0  0  0  0  0  0  0  0  0  0
   36.8540   29.5080   36.1580 N   0  0  0  0  0  0  0  0  0  0  0  0
   36.1610   29.4160   37.3470 C   0  0  0  0  0  0  0  0  0  0  0  0
   34.8680   29.1100   37.3970 N   0  0  0  0  0  0  0  0  0  0  0  0
   33.1230   28.6160   36.1910 H   0  0  0  0  0  0  0  0  0  0  0  0
   34.3780   28.7810   34.0530 H   0  0  0  0  0  0  0  0  0  0  0  0
   37.0160   30.8690   32.0410 H   0  0  0  0  0  0  0  0  0  0  0  0
   36.6500   30.5530   32.9930 C   0  0  0  0  0  0  0  0  0  0  0  0
   35.8660   31.4020   33.5370 O   0  0  0  0  0  0  0  0  0  0  0  0
   36.8930   29.3650   33.7320 N   0  0  0  0  0  0  0  0  0  0  0  0
   37.5380   28.6950   33.2560 H   0  0  0  0  0  0  0  0  0  0  0  0
  1  4  1  6  0  0  0
  1  2  1  0  0  0  0
  1  3  1  0  0  0  0
  2  3  1  0  0  0  0
  2  5  1  0  0  0  0
  3  7  1  6  0  0  0
  3  8  1  0  0  0  0
  6  2  1  0  0  0  0
  8  9  1  0  0  0  0
  9 18  1  0  0  0  0
  9 10  2  0  0  0  0
 10 19  1  0  0  0  0
 11 10  1  0  0  0  0
 11 20  1  0  0  0  0
 12 13  1  0  0  0  0
 12 11  2  0  0  0  0
 13 21  1  0  0  0  0
 14 22  1  0  0  0  0
 14 13  2  0  0  0  0
 15 16  2  0  0  0  0
 15 14  1  0  0  0  0
 16 17  1  0  0  0  0
 17  8  2  0  0  0  0
 17 12  1  0  0  0  0
 23 15  1  0  0  0  0
 24 16  1  0  0  0  0
 25 30  1  0  0  0  0
 26 25  2  0  0  0  0
 27 26  1  0  0  0  0
 27 28  2  0  0  0  0
 28 29  1  0  0  0  0
 29 30  2  0  0  0  0
 29  1  1  0  0  0  0
 31 25  1  0  0  0  0
 32 26  1  0  0  0  0
 33 34  1  0  0  0  0
 34 35  2  0  0  0  0
 34 36  1  0  0  0  0
 36 27  1  0  0  0  0
 37 36  1  0  0  0  0
M  END
>  <minimizedAffinity>
-6.11434412

$$$$

 OpenBabel03252508273D

 37 40  0  0  1  0  0  0  0  0999 V2000
   38.2440   29.4570   41.6320 C   0  0  1  0  0  0  0  0  0  0  0  0
   37.8850   29.2020   43.0360 C   0  0  0  0  0  0  0  0  0  0  0  0
   37.0450   28.6670   41.8110 C   0  0  2  0  0  0  0  0  0  0  0  0
   39.3080   29.0450   41.5220 H   0  0  0  0  0  0  0  0  0  0  0  0
   38.2460   28.3400   43.6170 H   0  0  0  0  0  0  0  0  0  0  0  0
   37.4100   29.9760   43.6580 H   0  0  0  0  0  0  0  0  0  0  0  0
   36.0190   29.1110   42.0240 H   0  0  0  0  0  0  0  0  0  0  0  0
   36.9340   27.2230   41.5810 C   0  0  0  0  0  0  0  0  0  0  0  0
   37.2360   26.2210   42.4520 C   0  0  0  0  0  0  0  0  0  0  0  0
   37.2380   24.8640   42.1580 C   0  0  0  0  0  0  0  0  0  0  0  0
   36.8930   24.5130   40.8390 C   0  0  0  0  0  0  0  0  0  0  0  0
   36.5760   25.5220   39.9260 C   0  0  0  0  0  0  0  0  0  0  0  0
   36.1860   25.1200   38.6590 C   0  0  0  0  0  0  0  0  0  0  0  0
   35.7980   26.0860   37.7450 C   0  0  0  0  0  0  0  0  0  0  0  0
   35.7950   27.4230   38.0850 C   0  0  0  0  0  0  0  0  0  0  0  0
   36.1930   27.7630   39.3570 C   0  0  0  0  0  0  0  0  0  0  0  0
   36.5980   26.8410   40.3070 C   0  0  0  0  0  0  0  0  0  0  0  0
   37.4950   26.5360   43.4540 H   0  0  0  0  0  0  0  0  0  0  0  0
   37.4880   24.1200   42.8990 H   0  0  0  0  0  0  0  0  0  0  0  0
   36.8900   23.4670   40.5890 H   0  0  0  0  0  0  0  0  0  0  0  0
   36.1980   24.0540   38.4220 H   0  0  0  0  0  0  0  0  0  0  0  0
   35.5130   25.6530   36.7750 H   0  0  0  0  0  0  0  0  0  0  0  0
   35.4650   28.0010   37.2550 H   0  0  0  0  0  0  0  0  0  0  0  0
   36.0270   28.8010   39.4020 H   0  0  0  0  0  0  0  0  0  0  0  0
   37.0190   32.3310   39.6570 C   0  0  0  0  0  0  0  0  0  0  0  0
   38.0130   33.3310   39.9390 C   0  0  0  0  0  0  0  0  0  0  0  0
   39.0830   32.9880   40.8240 C   0  0  0  0  0  0  0  0  0  0  0  0
   39.1180   31.7450   41.3550 N   0  0  0  0  0  0  0  0  0  0  0  0
   38.1350   30.8270   41.0460 C   0  0  0  0  0  0  0  0  0  0  0  0
   37.1260   31.1100   40.2290 N   0  0  0  0  0  0  0  0  0  0  0  0
   36.2460   32.6650   38.9830 H   0  0  0  0  0  0  0  0  0  0  0  0
   38.0190   34.3130   39.5420 H   0  0  0  0  0  0  0  0  0  0  0  0
   42.0820   34.5570   40.2520 H   0  0  0  0  0  0  0  0  0  0  0  0
   41.2090   33.9440   40.2620 C   0  0  0  0  0  0  0  0  0  0  0  0
   41.2130   33.0480   39.3510 O   0  0  0  0  0  0  0  0  0  0  0  0
   40.0680   33.9680   41.1080 N   0  0  0  0  0  0  0  0  0  0  0  0
   40.0990   34.7140   41.8390 H   0  0  0  0  0  0  0  0  0  0  0  0
  1  4  1  6  0  0  0
  1  3  1  0  0  0  0
  1  2  1  0  0  0  0
  2  5  1  0  0  0  0
  2  6  1  0  0  0  0
  3  7  1  6  0  0  0
  3  2  1  0  0  0  0
  8  3  1  0  0  0  0
  8  9  1  0  0  0  0
  9 18  1  0  0  0  0
 10  9  2  0  0  0  0
 10 19  1  0  0  0  0
 11 10  1  0  0  0  0
 12 17  1  0  0  0  0
 12 11  2  0  0  0  0
 13 12  1  0  0  0  0
 14 15  1  0  0  0  0
 14 13  2  0  0  0  0
 15 16  2  0  0  0  0
 16 24  1  0  0  0  0
 16 17  1  0  0  0  0
 17  8  2  0  0  0  0
 20 11  1  0  0  0  0
 21 13  1  0  0  0  0
 22 14  1  0  0  0  0
 23 15  1  0  0  0  0
 25 26  2  0  0  0  0
 25 30  1  0  0  0  0
 26 27  1  0  0  0  0
 27 36  1  0  0  0  0
 27 28  2  0  0  0  0
 29 28  1  0  0  0  0
 29  1  1  0  0  0  0
 30 29  2  0  0  0  0
 31 25  1  0  0  0  0
 32 26  1  0  0  0  0
 33 34  1  0  0  0  0
 34 36  1  0  0  0  0
 35 34  2  0  0  0  0
 36 37  1  0  0  0  0
M  END
>  <minimizedAffinity>
-6.09260511

$$$$

 OpenBabel03252508273D

 37 40  0  0  1  0  0  0  0  0999 V2000
   34.2670   28.7940   36.7200 C   0  0  1  0  0  0  0  0  0  0  0  0
   33.5870   27.7490   35.9380 C   0  0  0  0  0  0  0  0  0  0  0  0
   32.8230   28.8610   36.7560 C   0  0  2  0  0  0  0  0  0  0  0  0
   34.9440   29.3310   35.9660 H   0  0  0  0  0  0  0  0  0  0  0  0
   33.3210   27.8510   34.8750 H   0  0  0  0  0  0  0  0  0  0  0  0
   33.5020   26.7170   36.3100 H   0  0  0  0  0  0  0  0  0  0  0  0
   32.1760   28.2320   37.4510 H   0  0  0  0  0  0  0  0  0  0  0  0
   31.9970   29.8460   36.0500 C   0  0  0  0  0  0  0  0  0  0  0  0
   32.1940   30.3450   34.7990 C   0  0  0  0  0  0  0  0  0  0  0  0
   31.4640   31.3690   34.2090 C   0  0  0  0  0  0  0  0  0  0  0  0
   30.4330   31.9250   34.9900 C   0  0  0  0  0  0  0  0  0  0  0  0
   30.2070   31.4290   36.2760 C   0  0  0  0  0  0  0  0  0  0  0  0
   29.1420   31.9700   36.9780 C   0  0  0  0  0  0  0  0  0  0  0  0
   28.8420   31.4580   38.2300 C   0  0  0  0  0  0  0  0  0  0  0  0
   29.5850   30.4280   38.7700 C   0  0  0  0  0  0  0  0  0  0  0  0
   30.6300   29.9310   38.0280 C   0  0  0  0  0  0  0  0  0  0  0  0
   30.9790   30.4100   36.7770 C   0  0  0  0  0  0  0  0  0  0  0  0
   32.9970   29.8890   34.2350 H   0  0  0  0  0  0  0  0  0  0  0  0
   31.6740   31.7180   33.2100 H   0  0  0  0  0  0  0  0  0  0  0  0
   29.8560   32.7210   34.5530 H   0  0  0  0  0  0  0  0  0  0  0  0
   28.5740   32.7820   36.5210 H   0  0  0  0  0  0  0  0  0  0  0  0
   27.9830   31.9630   38.6940 H   0  0  0  0  0  0  0  0  0  0  0  0
   29.1990   30.1760   39.7300 H   0  0  0  0  0  0  0  0  0  0  0  0
   30.9780   29.1190   38.5980 H   0  0  0  0  0  0  0  0  0  0  0  0
   36.2950   26.9420   39.1920 C   0  0  0  0  0  0  0  0  0  0  0  0
   36.3170   27.8540   40.3040 C   0  0  0  0  0  0  0  0  0  0  0  0
   35.6340   29.1030   40.1640 C   0  0  0  0  0  0  0  0  0  0  0  0
   35.0010   29.3740   39.0000 N   0  0  0  0  0  0  0  0  0  0  0  0
   35.0150   28.4580   37.9690 C   0  0  0  0  0  0  0  0  0  0  0  0
   35.6390   27.2880   38.0620 N   0  0  0  0  0  0  0  0  0  0  0  0
   36.8310   26.0230   39.3740 H   0  0  0  0  0  0  0  0  0  0  0  0
   36.8010   27.6760   41.2280 H   0  0  0  0  0  0  0  0  0  0  0  0
   36.8780   31.8170   41.8590 H   0  0  0  0  0  0  0  0  0  0  0  0
   36.6470   31.0200   41.1870 C   0  0  0  0  0  0  0  0  0  0  0  0
   37.4040   30.9940   40.1580 O   0  0  0  0  0  0  0  0  0  0  0  0
   35.6510   30.0100   41.2540 N   0  0  0  0  0  0  0  0  0  0  0  0
   35.0500   30.0630   42.1080 H   0  0  0  0  0  0  0  0  0  0  0  0
  1  4  1  6  0  0  0
  1  3  1  0  0  0  0
  1 29  1  0  0  0  0
  2  6  1  0  0  0  0
  2  1  1  0  0  0  0
  2  3  1  0  0  0  0
  3  7  1  1  0  0  0
  5  2  1  0  0  0  0
  8  3  1  0  0  0  0
  8 17  1  0  0  0  0
  9  8  2  0  0  0  0
 10  9  1  0  0  0  0
 10 11  2  0  0  0  0
 11 12  1  0  0  0  0
 12 17  2  0  0  0  0
 12 13  1  0  0  0  0
 13 14  2  0  0  0  0
 14 22  1  0  0  0  0
 14 15  1  0  0  0  0
 15 23  1  0  0  0  0
 16 24  1  0  0  0  0
 16 15  2  0  0  0  0
 17 16  1  0  0  0  0
 18  9  1  0  0  0  0
 19 10  1  0  0  0  0
 20 11  1  0  0  0  0
 21 13  1  0  0  0  0
 25 31  1  0  0  0  0
 25 26  1  0  0  0  0
 26 32  1  0  0  0  0
 27 26  2  0  0  0  0
 27 36  1  0  0  0  0
 28 27  1  0  0  0  0
 29 30  1  0  0  0  0
 29 28  2  0  0  0  0
 30 25  2  0  0  0  0
 34 36  1  0  0  0  0
 34 33  1  0  0  0  0
 35 34  2  0  0  0  0
 36 37  1  0  0  0  0
M  END
>  <minimizedAffinity>
-5.98521042

$$$$

 OpenBabel03252508273D

 37 40  0  0  1  0  0  0  0  0999 V2000
   37.8750   31.4680   40.8470 C   0  0  1  0  0  0  0  0  0  0  0  0
   36.6060   31.1630   40.1680 C   0  0  0  0  0  0  0  0  0  0  0  0
   37.7020   30.0760   40.4950 C   0  0  2  0  0  0  0  0  0  0  0  0
   37.5680   31.9510   41.8410 H   0  0  0  0  0  0  0  0  0  0  0  0
   35.6770   30.8930   40.6930 H   0  0  0  0  0  0  0  0  0  0  0  0
   36.4510   31.4030   39.1050 H   0  0  0  0  0  0  0  0  0  0  0  0
   37.9210   29.6510   39.4610 H   0  0  0  0  0  0  0  0  0  0  0  0
   37.3940   28.9910   41.4320 C   0  0  0  0  0  0  0  0  0  0  0  0
   37.3650   29.0550   42.7910 C   0  0  0  0  0  0  0  0  0  0  0  0
   37.1920   27.9790   43.6520 C   0  0  0  0  0  0  0  0  0  0  0  0
   37.0340   26.7180   43.0450 C   0  0  0  0  0  0  0  0  0  0  0  0
   37.0580   26.6240   41.6510 C   0  0  0  0  0  0  0  0  0  0  0  0
   36.8370   25.3710   41.1050 C   0  0  0  0  0  0  0  0  0  0  0  0
   36.7840   25.2460   39.7260 C   0  0  0  0  0  0  0  0  0  0  0  0
   36.9450   26.3470   38.9090 C   0  0  0  0  0  0  0  0  0  0  0  0
   37.1600   27.5650   39.5070 C   0  0  0  0  0  0  0  0  0  0  0  0
   37.2310   27.7460   40.8790 C   0  0  0  0  0  0  0  0  0  0  0  0
   37.4900   30.0440   43.2140 H   0  0  0  0  0  0  0  0  0  0  0  0
   37.1790   28.1010   44.7240 H   0  0  0  0  0  0  0  0  0  0  0  0
   36.9010   25.8700   43.6930 H   0  0  0  0  0  0  0  0  0  0  0  0
   36.7130   24.5210   41.7790 H   0  0  0  0  0  0  0  0  0  0  0  0
   36.6090   24.2090   39.4060 H   0  0  0  0  0  0  0  0  0  0  0  0
   36.8690   26.0480   37.8900 H   0  0  0  0  0  0  0  0  0  0  0  0
   37.1650   28.2430   38.7020 H   0  0  0  0  0  0  0  0  0  0  0  0
   40.3610   34.1150   40.1600 C   0  0  0  0  0  0  0  0  0  0  0  0
   40.8420   33.7410   38.8580 C   0  0  0  0  0  0  0  0  0  0  0  0
   40.3000   32.5650   38.2500 C   0  0  0  0  0  0  0  0  0  0  0  0
   39.3630   31.8570   38.9210 N   0  0  0  0  0  0  0  0  0  0  0  0
   38.9400   32.2670   40.1690 C   0  0  0  0  0  0  0  0  0  0  0  0
   39.4220   33.3530   40.7640 N   0  0  0  0  0  0  0  0  0  0  0  0
   40.8180   35.0110   40.5510 H   0  0  0  0  0  0  0  0  0  0  0  0
   41.5740   34.2700   38.3030 H   0  0  0  0  0  0  0  0  0  0  0  0
   42.4810   30.9460   36.1520 H   0  0  0  0  0  0  0  0  0  0  0  0
   41.9280   31.3670   36.9620 C   0  0  0  0  0  0  0  0  0  0  0  0
   42.4080   31.0680   38.1080 O   0  0  0  0  0  0  0  0  0  0  0  0
   40.7690   32.1880   36.9660 N   0  0  0  0  0  0  0  0  0  0  0  0
   40.4050   32.4110   36.0130 H   0  0  0  0  0  0  0  0  0  0  0  0
  1  4  1  1  0  0  0
  2  3  1  0  0  0  0
  2  5  1  0  0  0  0
  2  1  1  0  0  0  0
  3  7  1  6  0  0  0
  3  1  1  0  0  0  0
  3  8  1  0  0  0  0
  6  2  1  0  0  0  0
  8  9  1  0  0  0  0
  9 18  1  0  0  0  0
  9 10  2  0  0  0  0
 10 19  1  0  0  0  0
 11 10  1  0  0  0  0
 11 20  1  0  0  0  0
 12 11  2  0  0  0  0
 13 12  1  0  0  0  0
 13 21  1  0  0  0  0
 14 13  2  0  0  0  0
 15 16  2  0  0  0  0
 15 14  1  0  0  0  0
 16 17  1  0  0  0  0
 17  8  2  0  0  0  0
 17 12  1  0  0  0  0
 22 14  1  0  0  0  0
 23 15  1  0  0  0  0
 24 16  1  0  0  0  0
 25 31  1  0  0  0  0
 25 30  1  0  0  0  0
 26 25  2  0  0  0  0
 27 26  1  0  0  0  0
 27 28  2  0  0  0  0
 28 29  1  0  0  0  0
 29 30  2  0  0  0  0
 29  1  1  0  0  0  0
 32 26  1  0  0  0  0
 33 34  1  0  0  0  0
 34 36  1  0  0  0  0
 34 35  2  0  0  0  0
 36 27  1  0  0  0  0
 37 36  1  0  0  0  0
M  END
>  <minimizedAffinity>
-5.98492002

$$$$

 OpenBabel03252508273D

 37 40  0  0  1  0  0  0  0  0999 V2000
   38.8380   29.5000   41.6820 C   0  0  1  0  0  0  0  0  0  0  0  0
   38.3050   29.6260   43.0480 C   0  0  0  0  0  0  0  0  0  0  0  0
   38.0340   28.3800   42.1180 C   0  0  2  0  0  0  0  0  0  0  0  0
   39.9750   29.5950   41.8010 H   0  0  0  0  0  0  0  0  0  0  0  0
   38.8340   29.2820   43.9490 H   0  0  0  0  0  0  0  0  0  0  0  0
   37.4420   30.2720   43.2700 H   0  0  0  0  0  0  0  0  0  0  0  0
   36.8960   28.3640   42.0810 H   0  0  0  0  0  0  0  0  0  0  0  0
   38.5450   27.0600   42.5030 C   0  0  0  0  0  0  0  0  0  0  0  0
   39.5030   26.7830   43.4300 C   0  0  0  0  0  0  0  0  0  0  0  0
   40.0530   25.5330   43.6790 C   0  0  0  0  0  0  0  0  0  0  0  0
   39.5630   24.4710   42.8950 C   0  0  0  0  0  0  0  0  0  0  0  0
   38.5780   24.7280   41.9380 C   0  0  0  0  0  0  0  0  0  0  0  0
   38.0890   23.6390   41.2350 C   0  0  0  0  0  0  0  0  0  0  0  0
   37.0630   23.8410   40.3260 C   0  0  0  0  0  0  0  0  0  0  0  0
   36.5350   25.0990   40.1220 C   0  0  0  0  0  0  0  0  0  0  0  0
   37.0610   26.1420   40.8470 C   0  0  0  0  0  0  0  0  0  0  0  0
   38.0900   25.9990   41.7620 C   0  0  0  0  0  0  0  0  0  0  0  0
   39.8500   27.6280   44.0100 H   0  0  0  0  0  0  0  0  0  0  0  0
   40.8110   25.3820   44.4320 H   0  0  0  0  0  0  0  0  0  0  0  0
   39.9770   23.4940   43.0700 H   0  0  0  0  0  0  0  0  0  0  0  0
   38.5270   22.6570   41.4210 H   0  0  0  0  0  0  0  0  0  0  0  0
   36.7580   22.9110   39.8260 H   0  0  0  0  0  0  0  0  0  0  0  0
   35.7610   25.0470   39.3930 H   0  0  0  0  0  0  0  0  0  0  0  0
   36.4530   26.9600   40.5870 H   0  0  0  0  0  0  0  0  0  0  0  0
   37.3290   32.3570   39.8890 C   0  0  0  0  0  0  0  0  0  0  0  0
   37.3730   31.9100   38.5240 C   0  0  0  0  0  0  0  0  0  0  0  0
   37.9420   30.6250   38.2540 C   0  0  0  0  0  0  0  0  0  0  0  0
   38.4110   29.8890   39.2860 N   0  0  0  0  0  0  0  0  0  0  0  0
   38.3390   30.3720   40.5760 C   0  0  0  0  0  0  0  0  0  0  0  0
   37.8190   31.5610   40.8650 N   0  0  0  0  0  0  0  0  0  0  0  0
   36.8870   33.3340   40.0120 H   0  0  0  0  0  0  0  0  0  0  0  0
   37.0160   32.4580   37.6910 H   0  0  0  0  0  0  0  0  0  0  0  0
   36.6230   29.0140   35.5250 H   0  0  0  0  0  0  0  0  0  0  0  0
   36.8470   29.4560   36.4700 C   0  0  0  0  0  0  0  0  0  0  0  0
   35.9160   29.3010   37.3310 O   0  0  0  0  0  0  0  0  0  0  0  0
   37.9910   30.1750   36.9100 N   0  0  0  0  0  0  0  0  0  0  0  0
   38.7300   30.2830   36.1790 H   0  0  0  0  0  0  0  0  0  0  0  0
  1  4  1  6  0  0  0
  1  3  1  0  0  0  0
  1  2  1  0  0  0  0
  2  6  1  0  0  0  0
  2  5  1  0  0  0  0
  3  7  1  6  0  0  0
  3  8  1  0  0  0  0
  3  2  1  0  0  0  0
  8  9  1  0  0  0  0
  9 10  2  0  0  0  0
  9 18  1  0  0  0  0
 10 19  1  0  0  0  0
 11 20  1  0  0  0  0
 11 10  1  0  0  0  0
 12 11  2  0  0  0  0
 13 21  1  0  0  0  0
 13 12  1  0  0  0  0
 14 13  2  0  0  0  0
 15 14  1  0  0  0  0
 15 16  2  0  0  0  0
 16 17  1  0  0  0  0
 17 12  1  0  0  0  0
 17  8  2  0  0  0  0
 22 14  1  0  0  0  0
 23 15  1  0  0  0  0
 24 16  1  0  0  0  0
 25 31  1  0  0  0  0
 25 30  1  0  0  0  0
 26 25  2  0  0  0  0
 27 26  1  0  0  0  0
 27 28  2  0  0  0  0
 28 29  1  0  0  0  0
 29 30  2  0  0  0  0
 29  1  1  0  0  0  0
 32 26  1  0  0  0  0
 33 34  1  0  0  0  0
 34 36  1  0  0  0  0
 34 35  2  0  0  0  0
 36 27  1  0  0  0  0
 37 36  1  0  0  0  0
M  END
>  <minimizedAffinity>
-5.94253492

$$$$

 OpenBabel03252508273D

 37 40  0  0  1  0  0  0  0  0999 V2000
   37.0500   28.8990   40.9870 C   0  0  1  0  0  0  0  0  0  0  0  0
   35.7610   28.2780   41.3280 C   0  0  0  0  0  0  0  0  0  0  0  0
   36.9150   27.5240   40.5580 C   0  0  2  0  0  0  0  0  0  0  0  0
   37.4820   29.2490   41.9900 H   0  0  0  0  0  0  0  0  0  0  0  0
   35.5630   27.7460   42.2710 H   0  0  0  0  0  0  0  0  0  0  0  0
   34.8480   28.4980   40.7540 H   0  0  0  0  0  0  0  0  0  0  0  0
   36.3850   27.2080   39.6010 H   0  0  0  0  0  0  0  0  0  0  0  0
   37.5690   26.3680   41.1800 C   0  0  0  0  0  0  0  0  0  0  0  0
   38.4830   26.3790   42.1890 C   0  0  0  0  0  0  0  0  0  0  0  0
   39.1760   25.2760   42.6680 C   0  0  0  0  0  0  0  0  0  0  0  0
   38.8950   24.0460   42.0420 C   0  0  0  0  0  0  0  0  0  0  0  0
   37.9590   24.0060   41.0050 C   0  0  0  0  0  0  0  0  0  0  0  0
   37.6750   22.7630   40.4660 C   0  0  0  0  0  0  0  0  0  0  0  0
   36.7030   22.6710   39.4820 C   0  0  0  0  0  0  0  0  0  0  0  0
   36.0270   23.7930   39.0480 C   0  0  0  0  0  0  0  0  0  0  0  0
   36.3510   25.0000   39.6200 C   0  0  0  0  0  0  0  0  0  0  0  0
   37.3190   25.1510   40.5990 C   0  0  0  0  0  0  0  0  0  0  0  0
   38.6680   27.3450   42.6400 H   0  0  0  0  0  0  0  0  0  0  0  0
   39.8890   25.3550   43.4740 H   0  0  0  0  0  0  0  0  0  0  0  0
   39.4220   23.1780   42.3960 H   0  0  0  0  0  0  0  0  0  0  0  0
   38.2270   21.8960   40.8320 H   0  0  0  0  0  0  0  0  0  0  0  0
   36.5650   21.6400   39.1260 H   0  0  0  0  0  0  0  0  0  0  0  0
   35.3240   23.5170   38.2970 H   0  0  0  0  0  0  0  0  0  0  0  0
   35.6590   25.6710   39.1980 H   0  0  0  0  0  0  0  0  0  0  0  0
   37.3660   30.6100   37.7270 C   0  0  0  0  0  0  0  0  0  0  0  0
   37.3630   31.9940   38.1150 C   0  0  0  0  0  0  0  0  0  0  0  0
   37.2370   32.3040   39.5060 C   0  0  0  0  0  0  0  0  0  0  0  0
   37.1270   31.2900   40.3930 N   0  0  0  0  0  0  0  0  0  0  0  0
   37.1370   29.9800   39.9590 C   0  0  0  0  0  0  0  0  0  0  0  0
   37.2520   29.6540   38.6760 N   0  0  0  0  0  0  0  0  0  0  0  0
   37.4640   30.4580   36.6630 H   0  0  0  0  0  0  0  0  0  0  0  0
   37.4480   32.8140   37.4490 H   0  0  0  0  0  0  0  0  0  0  0  0
   38.7450   35.1290   40.7430 H   0  0  0  0  0  0  0  0  0  0  0  0
   38.4720   34.1600   40.3880 C   0  0  0  0  0  0  0  0  0  0  0  0
   39.4370   33.3240   40.4160 O   0  0  0  0  0  0  0  0  0  0  0  0
   37.2330   33.6670   39.8980 N   0  0  0  0  0  0  0  0  0  0  0  0
   36.4680   34.3790   39.8890 H   0  0  0  0  0  0  0  0  0  0  0  0
  1  2  1  0  0  0  0
  1  4  1  1  0  0  0
  2  5  1  0  0  0  0
  3  7  1  6  0  0  0
  3  1  1  0  0  0  0
  3  8  1  0  0  0  0
  3  2  1  0  0  0  0
  6  2  1  0  0  0  0
  8  9  1  0  0  0  0
  9 18  1  0  0  0  0
  9 10  2  0  0  0  0
 10 19  1  0  0  0  0
 11 20  1  0  0  0  0
 11 10  1  0  0  0  0
 12 11  2  0  0  0  0
 13 21  1  0  0  0  0
 13 12  1  0  0  0  0
 14 13  2  0  0  0  0
 15 14  1  0  0  0  0
 15 16  2  0  0  0  0
 16 17  1  0  0  0  0
 17 12  1  0  0  0  0
 17  8  2  0  0  0  0
 22 14  1  0  0  0  0
 23 15  1  0  0  0  0
 24 16  1  0  0  0  0
 25 26  2  0  0  0  0
 25 30  1  0  0  0  0
 26 27  1  0  0  0  0
 27 36  1  0  0  0  0
 27 28  2  0  0  0  0
 29 28  1  0  0  0  0
 29  1  1  0  0  0  0
 30 29  2  0  0  0  0
 31 25  1  0  0  0  0
 32 26  1  0  0  0  0
 34 35  2  0  0  0  0
 34 33  1  0  0  0  0
 36 34  1  0  0  0  0
 37 36  1  0  0  0  0
M  END
>  <minimizedAffinity>
-5.83530617

$$$$

 OpenBabel03252508273D

 37 40  0  0  1  0  0  0  0  0999 V2000
   41.7420   30.3660   41.2120 C   0  0  1  0  0  0  0  0  0  0  0  0
   42.8310   30.2930   42.1980 C   0  0  0  0  0  0  0  0  0  0  0  0
   41.3170   30.0190   42.5500 C   0  0  2  0  0  0  0  0  0  0  0  0
   42.0400   29.6240   40.3900 H   0  0  0  0  0  0  0  0  0  0  0  0
   43.4100   29.3810   42.4090 H   0  0  0  0  0  0  0  0  0  0  0  0
   43.2800   31.2020   42.6270 H   0  0  0  0  0  0  0  0  0  0  0  0
   41.1300   30.7830   43.3740 H   0  0  0  0  0  0  0  0  0  0  0  0
   40.9040   28.6840   42.9950 C   0  0  0  0  0  0  0  0  0  0  0  0
   41.7070   27.6550   43.3790 C   0  0  0  0  0  0  0  0  0  0  0  0
   41.2880   26.3640   43.6740 C   0  0  0  0  0  0  0  0  0  0  0  0
   39.9060   26.1190   43.5600 C   0  0  0  0  0  0  0  0  0  0  0  0
   39.0580   27.1590   43.1700 C   0  0  0  0  0  0  0  0  0  0  0  0
   37.7020   26.8810   43.1330 C   0  0  0  0  0  0  0  0  0  0  0  0
   36.8220   27.9030   42.8170 C   0  0  0  0  0  0  0  0  0  0  0  0
   37.2820   29.1760   42.5470 C   0  0  0  0  0  0  0  0  0  0  0  0
   38.6380   29.3930   42.5990 C   0  0  0  0  0  0  0  0  0  0  0  0
   39.5630   28.4070   42.9010 C   0  0  0  0  0  0  0  0  0  0  0  0
   42.7610   27.8880   43.4530 H   0  0  0  0  0  0  0  0  0  0  0  0
   41.9800   25.5930   43.9740 H   0  0  0  0  0  0  0  0  0  0  0  0
   39.5590   25.1260   43.7820 H   0  0  0  0  0  0  0  0  0  0  0  0
   37.3710   25.8640   43.3530 H   0  0  0  0  0  0  0  0  0  0  0  0
   35.7750   27.5680   42.8130 H   0  0  0  0  0  0  0  0  0  0  0  0
   36.4580   29.8140   42.3310 H   0  0  0  0  0  0  0  0  0  0  0  0
   38.7320   30.4300   42.4460 H   0  0  0  0  0  0  0  0  0  0  0  0
   41.8410   33.5780   39.3870 C   0  0  0  0  0  0  0  0  0  0  0  0
   40.5230   34.0990   39.6290 C   0  0  0  0  0  0  0  0  0  0  0  0
   39.6210   33.3130   40.4130 C   0  0  0  0  0  0  0  0  0  0  0  0
   40.0410   32.1200   40.8910 N   0  0  0  0  0  0  0  0  0  0  0  0
   41.3190   31.6740   40.6260 C   0  0  0  0  0  0  0  0  0  0  0  0
   42.1840   32.3760   39.9020 N   0  0  0  0  0  0  0  0  0  0  0  0
   42.4620   34.2280   38.7890 H   0  0  0  0  0  0  0  0  0  0  0  0
   40.1600   35.0280   39.2720 H   0  0  0  0  0  0  0  0  0  0  0  0
   36.2850   33.6390   39.6700 H   0  0  0  0  0  0  0  0  0  0  0  0
   37.3270   33.4110   39.7240 C   0  0  0  0  0  0  0  0  0  0  0  0
   37.7230   32.6430   38.7830 O   0  0  0  0  0  0  0  0  0  0  0  0
   38.3180   33.8190   40.6560 N   0  0  0  0  0  0  0  0  0  0  0  0
   37.9580   34.4450   41.4110 H   0  0  0  0  0  0  0  0  0  0  0  0
  1  4  1  6  0  0  0
  1  2  1  0  0  0  0
  1  3  1  0  0  0  0
  2  5  1  0  0  0  0
  2  3  1  0  0  0  0
  2  6  1  0  0  0  0
  3  8  1  0  0  0  0
  3  7  1  1  0  0  0
  8  9  1  0  0  0  0
  9 18  1  0  0  0  0
  9 10  2  0  0  0  0
 10 19  1  0  0  0  0
 11 10  1  0  0  0  0
 11 20  1  0  0  0  0
 12 11  2  0  0  0  0
 13 12  1  0  0  0  0
 13 21  1  0  0  0  0
 14 13  2  0  0  0  0
 15 16  2  0  0  0  0
 15 14  1  0  0  0  0
 16 17  1  0  0  0  0
 17  8  2  0  0  0  0
 17 12  1  0  0  0  0
 22 14  1  0  0  0  0
 23 15  1  0  0  0  0
 24 16  1  0  0  0  0
 25 26  2  0  0  0  0
 25 30  1  0  0  0  0
 26 27  1  0  0  0  0
 27 36  1  0  0  0  0
 27 28  2  0  0  0  0
 29 28  1  0  0  0  0
 29  1  1  0  0  0  0
 30 29  2  0  0  0  0
 31 25  1  0  0  0  0
 32 26  1  0  0  0  0
 33 34  1  0  0  0  0
 34 36  1  0  0  0  0
 35 34  2  0  0  0  0
 36 37  1  0  0  0  0
M  END
>  <minimizedAffinity>
-5.79906225

$$$$

 OpenBabel03252508273D

 37 40  0  0  1  0  0  0  0  0999 V2000
   35.5870   28.4620   38.6860 C   0  0  1  0  0  0  0  0  0  0  0  0
   34.8100   27.7990   37.6270 C   0  0  0  0  0  0  0  0  0  0  0  0
   36.1780   27.2420   38.1820 C   0  0  2  0  0  0  0  0  0  0  0  0
   34.8660   28.5410   39.5730 H   0  0  0  0  0  0  0  0  0  0  0  0
   34.0250   27.0520   37.8160 H   0  0  0  0  0  0  0  0  0  0  0  0
   34.8140   28.1720   36.5910 H   0  0  0  0  0  0  0  0  0  0  0  0
   36.8060   27.1850   37.2340 H   0  0  0  0  0  0  0  0  0  0  0  0
   36.2080   25.9550   38.8850 C   0  0  0  0  0  0  0  0  0  0  0  0
   35.5940   24.7970   38.5170 C   0  0  0  0  0  0  0  0  0  0  0  0
   35.5400   23.6320   39.2710 C   0  0  0  0  0  0  0  0  0  0  0  0
   36.1820   23.6720   40.5230 C   0  0  0  0  0  0  0  0  0  0  0  0
   36.8220   24.8480   40.9240 C   0  0  0  0  0  0  0  0  0  0  0  0
   37.4890   24.8140   42.1370 C   0  0  0  0  0  0  0  0  0  0  0  0
   38.1940   25.9370   42.5400 C   0  0  0  0  0  0  0  0  0  0  0  0
   38.2350   27.0680   41.7510 C   0  0  0  0  0  0  0  0  0  0  0  0
   37.5530   27.0440   40.5570 C   0  0  0  0  0  0  0  0  0  0  0  0
   36.8270   25.9530   40.1100 C   0  0  0  0  0  0  0  0  0  0  0  0
   35.1140   24.8120   37.5480 H   0  0  0  0  0  0  0  0  0  0  0  0
   35.0350   22.7460   38.9170 H   0  0  0  0  0  0  0  0  0  0  0  0
   36.1500   22.7810   41.1240 H   0  0  0  0  0  0  0  0  0  0  0  0
   37.4380   23.9040   42.7370 H   0  0  0  0  0  0  0  0  0  0  0  0
   38.6790   25.7990   43.5170 H   0  0  0  0  0  0  0  0  0  0  0  0
   38.8240   27.8150   42.2280 H   0  0  0  0  0  0  0  0  0  0  0  0
   37.8000   27.9630   40.1090 H   0  0  0  0  0  0  0  0  0  0  0  0
   37.4100   31.1850   36.9770 C   0  0  0  0  0  0  0  0  0  0  0  0
   37.5900   32.1370   38.0390 C   0  0  0  0  0  0  0  0  0  0  0  0
   37.0590   31.8150   39.3290 C   0  0  0  0  0  0  0  0  0  0  0  0
   36.4150   30.6380   39.4940 N   0  0  0  0  0  0  0  0  0  0  0  0
   36.2750   29.7650   38.4360 C   0  0  0  0  0  0  0  0  0  0  0  0
   36.7540   30.0290   37.2240 N   0  0  0  0  0  0  0  0  0  0  0  0
   37.8370   31.4990   36.0360 H   0  0  0  0  0  0  0  0  0  0  0  0
   38.0880   33.0660   37.9470 H   0  0  0  0  0  0  0  0  0  0  0  0
   38.8860   33.2860   41.8350 H   0  0  0  0  0  0  0  0  0  0  0  0
   38.4960   32.7070   41.0280 C   0  0  0  0  0  0  0  0  0  0  0  0
   39.3240   31.8400   40.5840 O   0  0  0  0  0  0  0  0  0  0  0  0
   37.2310   32.7480   40.3830 N   0  0  0  0  0  0  0  0  0  0  0  0
   36.5810   33.4680   40.7710 H   0  0  0  0  0  0  0  0  0  0  0  0
  1  4  1  1  0  0  0
  2  5  1  0  0  0  0
  2  3  1  0  0  0  0
  2  1  1  0  0  0  0
  3  7  1  6  0  0  0
  3  1  1  0  0  0  0
  3  8  1  0  0  0  0
  6  2  1  0  0  0  0
  8 17  1  0  0  0  0
  9  8  2  0  0  0  0
  9 10  1  0  0  0  0
 10 11  2  0  0  0  0
 11 12  1  0  0  0  0
 11 20  1  0  0  0  0
 12 13  1  0  0  0  0
 13 14  2  0  0  0  0
 13 21  1  0  0  0  0
 14 22  1  0  0  0  0
 15 23  1  0  0  0  0
 15 14  1  0  0  0  0
 16 15  2  0  0  0  0
 17 16  1  0  0  0  0
 17 12  2  0  0  0  0
 18  9  1  0  0  0  0
 19 10  1  0  0  0  0
 24 16  1  0  0  0  0
 25 30  2  0  0  0  0
 25 26  1  0  0  0  0
 26 27  2  0  0  0  0
 27 28  1  0  0  0  0
 27 36  1  0  0  0  0
 29  1  1  0  0  0  0
 29 28  2  0  0  0  0
 30 29  1  0  0  0  0
 31 25  1  0  0  0  0
 32 26  1  0  0  0  0
 34 33  1  0  0  0  0
 35 34  2  0  0  0  0
 36 37  1  0  0  0  0
 36 34  1  0  0  0  0
M  END
>  <minimizedAffinity>
-5.72844362

$$$$
