
 OpenBabel03252509103D

 27 29  0  0  0  0  0  0  0  0999 V2000
   47.6430   31.9620   44.0530 C   0  0  0  0  0  0  0  0  0  0  0  0
   47.1380   33.1850   43.6710 C   0  0  0  0  0  0  0  0  0  0  0  0
   46.2730   33.8950   44.4730 C   0  0  0  0  0  0  0  0  0  0  0  0
   45.8720   33.4040   45.7060 C   0  0  0  0  0  0  0  0  0  0  0  0
   45.0550   33.8360   46.7120 N   0  0  0  0  0  0  0  0  0  0  0  0
   45.0720   32.8740   47.6910 C   0  0  0  0  0  0  0  0  0  0  0  0
   45.8990   31.8710   47.2640 N   0  0  0  0  0  0  0  0  0  0  0  0
   46.3970   32.1730   46.0600 C   0  0  0  0  0  0  0  0  0  0  0  0
   47.2580   31.4410   45.2880 C   0  0  0  0  0  0  0  0  0  0  0  0
   48.3210   31.4590   43.3680 H   0  0  0  0  0  0  0  0  0  0  0  0
   44.5480   34.7420   46.6680 H   0  0  0  0  0  0  0  0  0  0  0  0
   44.4790   33.0450   48.5720 H   0  0  0  0  0  0  0  0  0  0  0  0
   47.6550   30.4820   45.5850 H   0  0  0  0  0  0  0  0  0  0  0  0
   47.4580   33.6780   40.0450 C   0  0  0  0  0  0  0  0  0  0  0  0
   48.2720   34.8310   39.9770 C   0  0  0  0  0  0  0  0  0  0  0  0
   48.7110   35.4400   41.1840 C   0  0  0  0  0  0  0  0  0  0  0  0
   48.2950   34.8390   42.3400 N   0  0  0  0  0  0  0  0  0  0  0  0
   47.5250   33.7490   42.3880 C   0  0  0  0  0  0  0  0  0  0  0  0
   47.1080   33.1690   41.2420 N   0  0  0  0  0  0  0  0  0  0  0  0
   47.1400   33.2370   39.1110 H   0  0  0  0  0  0  0  0  0  0  0  0
   48.5810   35.2790   39.0270 H   0  0  0  0  0  0  0  0  0  0  0  0
   49.3290   36.3170   41.1770 H   0  0  0  0  0  0  0  0  0  0  0  0
   44.0390   35.9900   42.8420 H   0  0  0  0  0  0  0  0  0  0  0  0
   44.6070   35.1650   43.2370 C   0  0  0  0  0  0  0  0  0  0  0  0
   44.0450   34.1480   42.7220 O   0  0  0  0  0  0  0  0  0  0  0  0
   45.7220   35.1690   44.1230 N   0  0  0  0  0  0  0  0  0  0  0  0
   46.0190   36.1250   44.4240 H   0  0  0  0  0  0  0  0  0  0  0  0
  1  9  1  0  0  0  0
  2  1  2  0  0  0  0
  2  3  1  0  0  0  0
  3  4  2  0  0  0  0
  4  8  1  0  0  0  0
  4  5  1  0  0  0  0
  5  6  1  0  0  0  0
  6 12  1  0  0  0  0
  7  6  2  0  0  0  0
  8  7  1  0  0  0  0
  9 13  1  0  0  0  0
  9  8  2  0  0  0  0
 10  1  1  0  0  0  0
 11  5  1  0  0  0  0
 14 19  1  0  0  0  0
 15 14  2  0  0  0  0
 15 16  1  0  0  0  0
 16 17  2  0  0  0  0
 17 18  1  0  0  0  0
 18  2  1  0  0  0  0
 19 18  2  0  0  0  0
 20 14  1  0  0  0  0
 21 15  1  0  0  0  0
 22 16  1  0  0  0  0
 23 24  1  0  0  0  0
 24 26  1  0  0  0  0
 25 24  2  0  0  0  0
 26 27  1  0  0  0  0
 26  3  1  0  0  0  0
M  END
>  <minimizedAffinity>
-4.94267893

>  <minimizedRMSD>
2.0805738

$$$$
