
 OpenBabel03252503263D

 17 17  0  0  0  0  0  0  0  0999 V2000
   45.4230   35.2020   43.0960 C   0  0  0  0  0  0  0  0  0  0  0  0
   46.4590   35.5600   42.2080 C   0  0  0  0  0  0  0  0  0  0  0  0
   47.6810   34.8800   42.3820 C   0  0  0  0  0  0  0  0  0  0  0  0
   47.7690   33.9530   43.3640 N   0  0  0  0  0  0  0  0  0  0  0  0
   46.7430   33.6480   44.1860 C   0  0  0  0  0  0  0  0  0  0  0  0
   45.5660   34.2790   44.0480 N   0  0  0  0  0  0  0  0  0  0  0  0
   46.2580   36.3230   41.4620 H   0  0  0  0  0  0  0  0  0  0  0  0
   46.9120   32.8920   44.9410 H   0  0  0  0  0  0  0  0  0  0  0  0
   42.4020   35.6230   41.5390 H   0  0  0  0  0  0  0  0  0  0  0  0
   43.4050   35.3480   41.8880 C   0  0  0  0  0  0  0  0  0  0  0  0
   43.9480   34.4600   41.1540 O   0  0  0  0  0  0  0  0  0  0  0  0
   44.1470   35.8330   43.0030 N   0  0  0  0  0  0  0  0  0  0  0  0
   43.6520   36.5480   43.5540 H   0  0  0  0  0  0  0  0  0  0  0  0
   48.7400   35.2680   41.4500 C   0  0  0  0  0  0  0  0  0  0  0  0
   49.8500   34.4460   41.6700 F   0  0  0  0  0  0  0  0  0  0  0  0
   49.1520   36.5410   41.8070 F   0  0  0  0  0  0  0  0  0  0  0  0
   48.3890   35.1540   40.1400 F   0  0  0  0  0  0  0  0  0  0  0  0
  1  6  1  0  0  0  0
  2  3  1  0  0  0  0
  2  1  2  0  0  0  0
  3  4  2  0  0  0  0
  4  5  1  0  0  0  0
  5  8  1  0  0  0  0
  6  5  2  0  0  0  0
  7  2  1  0  0  0  0
  9 10  1  0  0  0  0
 10 12  1  0  0  0  0
 11 10  2  0  0  0  0
 12  1  1  0  0  0  0
 12 13  1  0  0  0  0
 14 15  1  0  0  0  0
 14 16  1  0  0  0  0
 14  3  1  0  0  0  0
 17 14  1  0  0  0  0
M  END
>  <minimizedAffinity>
-4.72248697

>  <minimizedRMSD>
1.96267569

$$$$
