
 OpenBabel03252509253D

 26 27  0  0  1  0  0  0  0  0999 V2000
   46.5650   35.0160   41.9420 C   0  0  1  0  0  0  0  0  0  0  0  0
   48.0880   35.3240   41.9660 C   0  0  0  0  0  0  0  0  0  0  0  0
   47.4130   34.0370   41.4000 C   0  0  2  0  0  0  0  0  0  0  0  0
   45.9850   35.7320   41.3240 H   0  0  0  0  0  0  0  0  0  0  0  0
   48.4160   36.0610   41.2370 H   0  0  0  0  0  0  0  0  0  0  0  0
   48.6350   35.2530   42.9030 H   0  0  0  0  0  0  0  0  0  0  0  0
   47.6640   33.1400   42.0460 H   0  0  0  0  0  0  0  0  0  0  0  0
   44.6110   35.4720   45.1130 C   0  0  0  0  0  0  0  0  0  0  0  0
   45.1010   35.7250   43.8040 C   0  0  0  0  0  0  0  0  0  0  0  0
   46.0420   34.8620   43.3530 C   0  0  0  0  0  0  0  0  0  0  0  0
   46.4980   33.8100   44.1140 N   0  0  0  0  0  0  0  0  0  0  0  0
   46.0080   33.6000   45.3560 C   0  0  0  0  0  0  0  0  0  0  0  0
   45.0590   34.4360   45.8570 N   0  0  0  0  0  0  0  0  0  0  0  0
   43.8560   36.1270   45.5250 H   0  0  0  0  0  0  0  0  0  0  0  0
   46.4500   32.7430   45.8430 H   0  0  0  0  0  0  0  0  0  0  0  0
   44.6590   36.8260   43.0530 N   0  0  0  0  0  0  0  0  0  0  0  0
   44.7580   37.7520   43.5390 H   0  0  0  0  0  0  0  0  0  0  0  0
   44.2990   36.5660   42.1250 H   0  0  0  0  0  0  0  0  0  0  0  0
   47.4800   33.7850   39.9130 C   0  0  0  0  0  0  0  0  0  0  0  0
   48.4690   34.1180   39.5290 H   0  0  0  0  0  0  0  0  0  0  0  0
   46.6480   34.3150   39.3980 H   0  0  0  0  0  0  0  0  0  0  0  0
   48.4780   30.4880   39.2540 H   0  0  0  0  0  0  0  0  0  0  0  0
   48.5060   31.5570   39.4550 C   0  0  0  0  0  0  0  0  0  0  0  0
   49.6380   32.1350   39.5240 O   0  0  0  0  0  0  0  0  0  0  0  0
   47.3500   32.3620   39.6470 N   0  0  0  0  0  0  0  0  0  0  0  0
   46.4160   31.8600   39.5860 H   0  0  0  0  0  0  0  0  0  0  0  0
  1  4  1  6  0  0  0
  1  2  1  0  0  0  0
  1 10  1  0  0  0  0
  2  6  1  0  0  0  0
  3  1  1  0  0  0  0
  3  2  1  0  0  0  0
  3  7  1  1  0  0  0
  5  2  1  0  0  0  0
  8 14  1  0  0  0  0
  8 13  1  0  0  0  0
  9  8  2  0  0  0  0
 10  9  1  0  0  0  0
 10 11  2  0  0  0  0
 11 12  1  0  0  0  0
 12 15  1  0  0  0  0
 12 13  2  0  0  0  0
 16 17  1  0  0  0  0
 16  9  1  0  0  0  0
 18 16  1  0  0  0  0
 19  3  1  0  0  0  0
 20 19  1  0  0  0  0
 21 19  1  0  0  0  0
 22 23  1  0  0  0  0
 23 24  2  0  0  0  0
 23 25  1  0  0  0  0
 25 19  1  0  0  0  0
 26 25  1  0  0  0  0
M  END
>  <minimizedAffinity>
-4.2001462

>  <minimizedRMSD>
0.785413384

$$$$
