
 OpenBabel03252500223D

 32 33  0  0  1  0  0  0  0  0999 V2000
   36.6330   28.4210   40.3340 C   0  0  1  0  0  0  0  0  0  0  0  0
   36.1200   27.8620   38.9910 C   0  0  0  0  0  0  0  0  0  0  0  0
   36.1350   26.4220   38.7460 C   0  0  0  0  0  0  0  0  0  0  0  0
   36.7100   25.6020   39.8970 C   0  0  0  0  0  0  0  0  0  0  0  0
   37.9910   26.3280   40.2380 C   0  0  0  0  0  0  0  0  0  0  0  0
   37.5100   27.5360   41.0670 C   0  0  2  0  0  0  0  0  0  0  0  0
   35.6480   28.6010   40.8190 H   0  0  0  0  0  0  0  0  0  0  0  0
   35.7540   28.4920   38.2330 H   0  0  0  0  0  0  0  0  0  0  0  0
   35.7730   26.0550   37.8120 H   0  0  0  0  0  0  0  0  0  0  0  0
   37.0120   24.6650   39.4040 H   0  0  0  0  0  0  0  0  0  0  0  0
   36.0080   25.4800   40.7140 H   0  0  0  0  0  0  0  0  0  0  0  0
   38.6780   25.7350   40.8760 H   0  0  0  0  0  0  0  0  0  0  0  0
   38.4580   26.6720   39.3100 H   0  0  0  0  0  0  0  0  0  0  0  0
   38.4480   28.0240   41.4450 H   0  0  0  0  0  0  0  0  0  0  0  0
   38.2490   29.8890   39.0550 C   0  0  0  0  0  0  0  0  0  0  0  0
   37.1880   29.7600   39.9850 C   0  0  0  0  0  0  0  0  0  0  0  0
   36.7500   30.9420   40.6070 C   0  0  0  0  0  0  0  0  0  0  0  0
   37.3490   32.1370   40.2970 N   0  0  0  0  0  0  0  0  0  0  0  0
   38.3470   32.1740   39.4020 C   0  0  0  0  0  0  0  0  0  0  0  0
   38.8030   31.0660   38.7820 N   0  0  0  0  0  0  0  0  0  0  0  0
   38.9440   33.3940   39.0480 N   0  0  0  0  0  0  0  0  0  0  0  0
   38.6310   29.0190   38.5440 H   0  0  0  0  0  0  0  0  0  0  0  0
   39.5480   33.5210   38.2060 H   0  0  0  0  0  0  0  0  0  0  0  0
   38.8160   34.2790   39.6260 H   0  0  0  0  0  0  0  0  0  0  0  0
   35.6730   30.8320   41.5110 N   0  0  0  0  0  0  0  0  0  0  0  0
   35.8640   30.9250   42.5500 H   0  0  0  0  0  0  0  0  0  0  0  0
   34.6900   30.6630   41.2640 H   0  0  0  0  0  0  0  0  0  0  0  0
   36.4950   27.5450   44.4670 H   0  0  0  0  0  0  0  0  0  0  0  0
   36.9010   27.7710   43.4770 C   0  0  0  0  0  0  0  0  0  0  0  0
   37.4190   28.9320   43.6120 O   0  0  0  0  0  0  0  0  0  0  0  0
   36.8870   26.9890   42.2660 N   0  0  0  0  0  0  0  0  0  0  0  0
   36.3880   26.1120   42.5230 H   0  0  0  0  0  0  0  0  0  0  0  0
  1  7  1  1  0  0  0
  1  6  1  0  0  0  0
  2  1  1  0  0  0  0
  3  2  2  0  0  0  0
  3  4  1  0  0  0  0
  4  5  1  0  0  0  0
  4 11  1  0  0  0  0
  5 12  1  0  0  0  0
  5  6  1  0  0  0  0
  6 14  1  1  0  0  0
  6 31  1  0  0  0  0
  8  2  1  0  0  0  0
  9  3  1  0  0  0  0
 10  4  1  0  0  0  0
 13  5  1  0  0  0  0
 15 16  1  0  0  0  0
 16  1  1  0  0  0  0
 16 17  2  0  0  0  0
 17 25  1  0  0  0  0
 18 17  1  0  0  0  0
 19 18  2  0  0  0  0
 20 15  2  0  0  0  0
 20 19  1  0  0  0  0
 21 19  1  0  0  0  0
 21 24  1  0  0  0  0
 22 15  1  0  0  0  0
 23 21  1  0  0  0  0
 25 26  1  0  0  0  0
 27 25  1  0  0  0  0
 29 30  2  0  0  0  0
 29 28  1  0  0  0  0
 31 32  1  0  0  0  0
 31 29  1  0  0  0  0
M  END
>  <minimizedAffinity>
-5.12675333

$$$$

 OpenBabel03252500223D

 32 33  0  0  1  0  0  0  0  0999 V2000
   38.9330   29.4850   42.4220 C   0  0  1  0  0  0  0  0  0  0  0  0
   37.7350   29.0990   43.3130 C   0  0  0  0  0  0  0  0  0  0  0  0
   37.5180   27.7020   43.6800 C   0  0  0  0  0  0  0  0  0  0  0  0
   38.5410   26.7380   43.0880 C   0  0  0  0  0  0  0  0  0  0  0  0
   38.6000   27.1410   41.6310 C   0  0  0  0  0  0  0  0  0  0  0  0
   39.4870   28.4020   41.6420 C   0  0  2  0  0  0  0  0  0  0  0  0
   39.6070   29.8720   43.2190 H   0  0  0  0  0  0  0  0  0  0  0  0
   37.0570   29.8190   43.6700 H   0  0  0  0  0  0  0  0  0  0  0  0
   36.6850   27.4560   44.2990 H   0  0  0  0  0  0  0  0  0  0  0  0
   38.0140   25.7720   43.1160 H   0  0  0  0  0  0  0  0  0  0  0  0
   39.4870   26.7560   43.6170 H   0  0  0  0  0  0  0  0  0  0  0  0
   39.0930   26.3870   40.9840 H   0  0  0  0  0  0  0  0  0  0  0  0
   37.5890   27.3960   41.2970 H   0  0  0  0  0  0  0  0  0  0  0  0
   39.6560   28.6500   40.5600 H   0  0  0  0  0  0  0  0  0  0  0  0
   37.1890   30.6650   41.0190 C   0  0  0  0  0  0  0  0  0  0  0  0
   38.4550   30.6710   41.6560 C   0  0  0  0  0  0  0  0  0  0  0  0
   39.2500   31.8140   41.4620 C   0  0  0  0  0  0  0  0  0  0  0  0
   38.7820   32.8450   40.6870 N   0  0  0  0  0  0  0  0  0  0  0  0
   37.5700   32.7610   40.1200 C   0  0  0  0  0  0  0  0  0  0  0  0
   36.7720   31.6840   40.2770 N   0  0  0  0  0  0  0  0  0  0  0  0
   37.0640   33.8240   39.3560 N   0  0  0  0  0  0  0  0  0  0  0  0
   36.5310   29.8160   41.1290 H   0  0  0  0  0  0  0  0  0  0  0  0
   36.0590   33.9190   39.0900 H   0  0  0  0  0  0  0  0  0  0  0  0
   37.6840   34.6100   38.9920 H   0  0  0  0  0  0  0  0  0  0  0  0
   40.4980   31.8470   42.1170 N   0  0  0  0  0  0  0  0  0  0  0  0
   41.3820   31.7230   41.5430 H   0  0  0  0  0  0  0  0  0  0  0  0
   40.6510   31.9810   43.1250 H   0  0  0  0  0  0  0  0  0  0  0  0
   43.0320   28.4340   41.7900 H   0  0  0  0  0  0  0  0  0  0  0  0
   41.9750   28.6060   41.5710 C   0  0  0  0  0  0  0  0  0  0  0  0
   41.9870   29.5300   40.6870 O   0  0  0  0  0  0  0  0  0  0  0  0
   40.7990   27.9760   42.1160 N   0  0  0  0  0  0  0  0  0  0  0  0
   41.1640   27.2810   42.8010 H   0  0  0  0  0  0  0  0  0  0  0  0
  1  7  1  1  0  0  0
  1  2  1  0  0  0  0
  2  8  1  0  0  0  0
  2  3  2  0  0  0  0
  3  9  1  0  0  0  0
  4 10  1  0  0  0  0
  4 11  1  0  0  0  0
  4  3  1  0  0  0  0
  5  6  1  0  0  0  0
  5  4  1  0  0  0  0
  6 14  1  6  0  0  0
  6 31  1  0  0  0  0
  6  1  1  0  0  0  0
 12  5  1  0  0  0  0
 13  5  1  0  0  0  0
 15 22  1  0  0  0  0
 15 16  1  0  0  0  0
 16  1  1  0  0  0  0
 17 16  2  0  0  0  0
 17 25  1  0  0  0  0
 18 17  1  0  0  0  0
 19 20  1  0  0  0  0
 19 18  2  0  0  0  0
 20 15  2  0  0  0  0
 21 19  1  0  0  0  0
 23 21  1  0  0  0  0
 24 21  1  0  0  0  0
 25 27  1  0  0  0  0
 26 25  1  0  0  0  0
 29 28  1  0  0  0  0
 29 31  1  0  0  0  0
 30 29  2  0  0  0  0
 31 32  1  0  0  0  0
M  END
>  <minimizedAffinity>
-4.97252941

$$$$

 OpenBabel03252500223D

 32 33  0  0  1  0  0  0  0  0999 V2000
   38.5830   31.5400   39.7600 C   0  0  1  0  0  0  0  0  0  0  0  0
   37.3800   31.4920   38.7960 C   0  0  0  0  0  0  0  0  0  0  0  0
   36.4610   30.3570   38.8320 C   0  0  0  0  0  0  0  0  0  0  0  0
   36.8350   29.2870   39.8520 C   0  0  0  0  0  0  0  0  0  0  0  0
   38.3090   29.0640   39.6010 C   0  0  0  0  0  0  0  0  0  0  0  0
   38.9790   30.2610   40.3050 C   0  0  2  0  0  0  0  0  0  0  0  0
   38.1620   32.2500   40.5060 H   0  0  0  0  0  0  0  0  0  0  0  0
   37.1950   32.2610   38.1030 H   0  0  0  0  0  0  0  0  0  0  0  0
   35.6330   30.3440   38.1590 H   0  0  0  0  0  0  0  0  0  0  0  0
   36.3210   28.3910   39.4680 H   0  0  0  0  0  0  0  0  0  0  0  0
   36.5680   29.5640   40.8650 H   0  0  0  0  0  0  0  0  0  0  0  0
   38.7010   28.1370   40.0680 H   0  0  0  0  0  0  0  0  0  0  0  0
   38.4930   29.1110   38.5230 H   0  0  0  0  0  0  0  0  0  0  0  0
   40.0810   30.0550   40.2480 H   0  0  0  0  0  0  0  0  0  0  0  0
   40.0300   31.8700   37.7110 C   0  0  0  0  0  0  0  0  0  0  0  0
   39.6290   32.2860   39.0040 C   0  0  0  0  0  0  0  0  0  0  0  0
   40.3190   33.3810   39.5530 C   0  0  0  0  0  0  0  0  0  0  0  0
   41.3210   33.9830   38.8360 N   0  0  0  0  0  0  0  0  0  0  0  0
   41.6390   33.5280   37.6160 C   0  0  0  0  0  0  0  0  0  0  0  0
   41.0070   32.4800   37.0480 N   0  0  0  0  0  0  0  0  0  0  0  0
   42.6380   34.1580   36.8560 N   0  0  0  0  0  0  0  0  0  0  0  0
   39.5390   31.0350   37.2340 H   0  0  0  0  0  0  0  0  0  0  0  0
   42.7670   34.0070   35.8310 H   0  0  0  0  0  0  0  0  0  0  0  0
   43.3360   34.8380   37.2850 H   0  0  0  0  0  0  0  0  0  0  0  0
   39.9080   33.8260   40.8270 N   0  0  0  0  0  0  0  0  0  0  0  0
   40.5290   33.6290   41.6640 H   0  0  0  0  0  0  0  0  0  0  0  0
   39.0420   34.3370   41.0400 H   0  0  0  0  0  0  0  0  0  0  0  0
   39.5410   30.6710   43.7840 H   0  0  0  0  0  0  0  0  0  0  0  0
   39.5900   30.6660   42.6920 C   0  0  0  0  0  0  0  0  0  0  0  0
   40.6880   31.2640   42.4280 O   0  0  0  0  0  0  0  0  0  0  0  0
   38.6670   30.1300   41.7240 N   0  0  0  0  0  0  0  0  0  0  0  0
   37.8950   29.7220   42.2910 H   0  0  0  0  0  0  0  0  0  0  0  0
  1  6  1  0  0  0  0
  1  7  1  1  0  0  0
  2  3  2  0  0  0  0
  2  1  1  0  0  0  0
  3  4  1  0  0  0  0
  4 11  1  0  0  0  0
  5  4  1  0  0  0  0
  5 12  1  0  0  0  0
  5  6  1  0  0  0  0
  6 14  1  6  0  0  0
  6 31  1  0  0  0  0
  8  2  1  0  0  0  0
  9  3  1  0  0  0  0
 10  4  1  0  0  0  0
 13  5  1  0  0  0  0
 15 16  1  0  0  0  0
 16 17  2  0  0  0  0
 16  1  1  0  0  0  0
 17 25  1  0  0  0  0
 18 17  1  0  0  0  0
 19 18  2  0  0  0  0
 20 19  1  0  0  0  0
 20 15  2  0  0  0  0
 21 24  1  0  0  0  0
 21 19  1  0  0  0  0
 22 15  1  0  0  0  0
 23 21  1  0  0  0  0
 25 27  1  0  0  0  0
 25 26  1  0  0  0  0
 29 28  1  0  0  0  0
 30 29  2  0  0  0  0
 31 32  1  0  0  0  0
 31 29  1  0  0  0  0
M  END
>  <minimizedAffinity>
-4.88606787

$$$$

 OpenBabel03252500223D

 32 33  0  0  1  0  0  0  0  0999 V2000
   37.6540   28.8690   41.9770 C   0  0  1  0  0  0  0  0  0  0  0  0
   37.4970   27.5870   42.8210 C   0  0  0  0  0  0  0  0  0  0  0  0
   38.6490   27.0340   43.5290 C   0  0  0  0  0  0  0  0  0  0  0  0
   39.9410   27.8140   43.3180 C   0  0  0  0  0  0  0  0  0  0  0  0
   39.9930   28.0100   41.8200 C   0  0  0  0  0  0  0  0  0  0  0  0
   39.0090   29.1710   41.5740 C   0  0  2  0  0  0  0  0  0  0  0  0
   37.2150   29.5910   42.7010 H   0  0  0  0  0  0  0  0  0  0  0  0
   36.5740   27.0900   42.9050 H   0  0  0  0  0  0  0  0  0  0  0  0
   38.5180   26.1480   44.1090 H   0  0  0  0  0  0  0  0  0  0  0  0
   40.7190   27.0720   43.5560 H   0  0  0  0  0  0  0  0  0  0  0  0
   39.9830   28.7210   43.9110 H   0  0  0  0  0  0  0  0  0  0  0  0
   40.9890   28.3290   41.4500 H   0  0  0  0  0  0  0  0  0  0  0  0
   39.6260   27.0990   41.3340 H   0  0  0  0  0  0  0  0  0  0  0  0
   39.1220   29.4260   40.4870 H   0  0  0  0  0  0  0  0  0  0  0  0
   36.6360   27.5380   40.0820 C   0  0  0  0  0  0  0  0  0  0  0  0
   36.6600   28.7090   40.8780 C   0  0  0  0  0  0  0  0  0  0  0  0
   35.7550   29.7260   40.5270 C   0  0  0  0  0  0  0  0  0  0  0  0
   34.9120   29.5480   39.4590 N   0  0  0  0  0  0  0  0  0  0  0  0
   34.9510   28.4060   38.7560 C   0  0  0  0  0  0  0  0  0  0  0  0
   35.8030   27.4030   39.0560 N   0  0  0  0  0  0  0  0  0  0  0  0
   34.0690   28.1960   37.6850 N   0  0  0  0  0  0  0  0  0  0  0  0
   37.3060   26.7200   40.3010 H   0  0  0  0  0  0  0  0  0  0  0  0
   33.8890   27.2600   37.2580 H   0  0  0  0  0  0  0  0  0  0  0  0
   33.5210   28.9900   37.2350 H   0  0  0  0  0  0  0  0  0  0  0  0
   35.7460   30.8840   41.3310 N   0  0  0  0  0  0  0  0  0  0  0  0
   36.1610   31.7810   40.9440 H   0  0  0  0  0  0  0  0  0  0  0  0
   35.3700   30.9570   42.2840 H   0  0  0  0  0  0  0  0  0  0  0  0
   39.6660   32.6220   42.0760 H   0  0  0  0  0  0  0  0  0  0  0  0
   39.3420   31.6420   41.7140 C   0  0  0  0  0  0  0  0  0  0  0  0
   38.6950   31.9040   40.6440 O   0  0  0  0  0  0  0  0  0  0  0  0
   39.5600   30.3290   42.2690 N   0  0  0  0  0  0  0  0  0  0  0  0
   40.1180   30.4950   43.1320 H   0  0  0  0  0  0  0  0  0  0  0  0
  1  7  1  1  0  0  0
  1  2  1  0  0  0  0
  2  8  1  0  0  0  0
  2  3  2  0  0  0  0
  3  9  1  0  0  0  0
  4  3  1  0  0  0  0
  4 10  1  0  0  0  0
  4 11  1  0  0  0  0
  5  4  1  0  0  0  0
  6 14  1  6  0  0  0
  6  5  1  0  0  0  0
  6  1  1  0  0  0  0
  6 31  1  0  0  0  0
 12  5  1  0  0  0  0
 13  5  1  0  0  0  0
 15 22  1  0  0  0  0
 15 16  1  0  0  0  0
 16  1  1  0  0  0  0
 17 16  2  0  0  0  0
 17 25  1  0  0  0  0
 18 17  1  0  0  0  0
 19 20  1  0  0  0  0
 19 18  2  0  0  0  0
 20 15  2  0  0  0  0
 21 19  1  0  0  0  0
 23 21  1  0  0  0  0
 24 21  1  0  0  0  0
 25 27  1  0  0  0  0
 26 25  1  0  0  0  0
 29 28  1  0  0  0  0
 29 31  1  0  0  0  0
 30 29  2  0  0  0  0
 31 32  1  0  0  0  0
M  END
>  <minimizedAffinity>
-4.83551121

$$$$

 OpenBabel03252500223D

 32 33  0  0  1  0  0  0  0  0999 V2000
   37.4570   29.3980   41.3960 C   0  0  1  0  0  0  0  0  0  0  0  0
   36.3750   28.3530   41.7390 C   0  0  0  0  0  0  0  0  0  0  0  0
   36.6130   27.3750   42.7980 C   0  0  0  0  0  0  0  0  0  0  0  0
   37.9840   27.4940   43.4560 C   0  0  0  0  0  0  0  0  0  0  0  0
   38.9300   27.5860   42.2800 C   0  0  0  0  0  0  0  0  0  0  0  0
   38.7940   29.0520   41.8220 C   0  0  2  0  0  0  0  0  0  0  0  0
   37.0130   30.2680   41.9280 H   0  0  0  0  0  0  0  0  0  0  0  0
   35.4570   28.3200   41.2270 H   0  0  0  0  0  0  0  0  0  0  0  0
   35.8510   26.6630   43.0210 H   0  0  0  0  0  0  0  0  0  0  0  0
   38.1350   26.4940   43.8910 H   0  0  0  0  0  0  0  0  0  0  0  0
   38.0380   28.3110   44.1650 H   0  0  0  0  0  0  0  0  0  0  0  0
   39.9920   27.4150   42.5530 H   0  0  0  0  0  0  0  0  0  0  0  0
   38.5770   26.9130   41.4910 H   0  0  0  0  0  0  0  0  0  0  0  0
   39.5810   29.1860   41.0320 H   0  0  0  0  0  0  0  0  0  0  0  0
   37.4060   28.6020   38.9950 C   0  0  0  0  0  0  0  0  0  0  0  0
   37.2750   29.6510   39.9390 C   0  0  0  0  0  0  0  0  0  0  0  0
   37.0410   30.9360   39.4200 C   0  0  0  0  0  0  0  0  0  0  0  0
   36.9530   31.1180   38.0630 N   0  0  0  0  0  0  0  0  0  0  0  0
   37.0880   30.0710   37.2370 C   0  0  0  0  0  0  0  0  0  0  0  0
   37.3140   28.8190   37.6870 N   0  0  0  0  0  0  0  0  0  0  0  0
   36.9630   30.2360   35.8480 N   0  0  0  0  0  0  0  0  0  0  0  0
   37.5870   27.5920   39.3290 H   0  0  0  0  0  0  0  0  0  0  0  0
   36.8240   29.4450   35.1810 H   0  0  0  0  0  0  0  0  0  0  0  0
   37.0050   31.1930   35.3830 H   0  0  0  0  0  0  0  0  0  0  0  0
   36.8760   31.9840   40.3500 N   0  0  0  0  0  0  0  0  0  0  0  0
   37.6550   32.6950   40.4660 H   0  0  0  0  0  0  0  0  0  0  0  0
   36.0550   32.1380   40.9500 H   0  0  0  0  0  0  0  0  0  0  0  0
   40.2010   31.9380   43.3330 H   0  0  0  0  0  0  0  0  0  0  0  0
   39.8030   31.1800   42.6530 C   0  0  0  0  0  0  0  0  0  0  0  0
   39.9150   31.7110   41.4960 O   0  0  0  0  0  0  0  0  0  0  0  0
   39.2640   29.8730   42.9330 N   0  0  0  0  0  0  0  0  0  0  0  0
   39.3270   29.7760   43.9680 H   0  0  0  0  0  0  0  0  0  0  0  0
  1  2  1  0  0  0  0
  1  6  1  0  0  0  0
  1  7  1  1  0  0  0
  2  3  2  0  0  0  0
  3  9  1  0  0  0  0
  3  4  1  0  0  0  0
  4 10  1  0  0  0  0
  4 11  1  0  0  0  0
  5 12  1  0  0  0  0
  5  4  1  0  0  0  0
  6 14  1  6  0  0  0
  6  5  1  0  0  0  0
  6 31  1  0  0  0  0
  8  2  1  0  0  0  0
 13  5  1  0  0  0  0
 15 22  1  0  0  0  0
 15 16  1  0  0  0  0
 16  1  1  0  0  0  0
 17 16  2  0  0  0  0
 17 25  1  0  0  0  0
 18 17  1  0  0  0  0
 19 20  1  0  0  0  0
 19 18  2  0  0  0  0
 20 15  2  0  0  0  0
 21 19  1  0  0  0  0
 23 21  1  0  0  0  0
 24 21  1  0  0  0  0
 25 26  1  0  0  0  0
 25 27  1  0  0  0  0
 29 31  1  0  0  0  0
 29 28  1  0  0  0  0
 30 29  2  0  0  0  0
 31 32  1  0  0  0  0
M  END
>  <minimizedAffinity>
-4.78432131

$$$$

 OpenBabel03252500223D

 32 33  0  0  1  0  0  0  0  0999 V2000
   38.2050   25.9310   41.5930 C   0  0  1  0  0  0  0  0  0  0  0  0
   37.0330   24.9270   41.6050 C   0  0  0  0  0  0  0  0  0  0  0  0
   37.1890   23.6160   40.9810 C   0  0  0  0  0  0  0  0  0  0  0  0
   38.5530   23.3920   40.3370 C   0  0  0  0  0  0  0  0  0  0  0  0
   38.7670   24.6500   39.5250 C   0  0  0  0  0  0  0  0  0  0  0  0
   39.2050   25.6880   40.5780 C   0  0  2  0  0  0  0  0  0  0  0  0
   38.5580   25.7760   42.6360 H   0  0  0  0  0  0  0  0  0  0  0  0
   36.1110   25.1600   42.0540 H   0  0  0  0  0  0  0  0  0  0  0  0
   36.3670   22.9360   41.0030 H   0  0  0  0  0  0  0  0  0  0  0  0
   38.3520   22.5900   39.6090 H   0  0  0  0  0  0  0  0  0  0  0  0
   39.3250   23.1650   41.0620 H   0  0  0  0  0  0  0  0  0  0  0  0
   39.5840   24.5610   38.7800 H   0  0  0  0  0  0  0  0  0  0  0  0
   37.8120   24.9480   39.0800 H   0  0  0  0  0  0  0  0  0  0  0  0
   39.4970   26.5980   39.9890 H   0  0  0  0  0  0  0  0  0  0  0  0
   36.5260   27.5530   40.6180 C   0  0  0  0  0  0  0  0  0  0  0  0
   37.5440   27.2660   41.5610 C   0  0  0  0  0  0  0  0  0  0  0  0
   37.9400   28.3240   42.3980 C   0  0  0  0  0  0  0  0  0  0  0  0
   37.3420   29.5520   42.2730 N   0  0  0  0  0  0  0  0  0  0  0  0
   36.3830   29.7410   41.3540 C   0  0  0  0  0  0  0  0  0  0  0  0
   35.9710   28.7570   40.5280 N   0  0  0  0  0  0  0  0  0  0  0  0
   35.7380   30.9820   41.2410 N   0  0  0  0  0  0  0  0  0  0  0  0
   36.1780   26.7830   39.9460 H   0  0  0  0  0  0  0  0  0  0  0  0
   34.8430   31.1230   40.7220 H   0  0  0  0  0  0  0  0  0  0  0  0
   36.1280   31.8690   41.6810 H   0  0  0  0  0  0  0  0  0  0  0  0
   38.9300   28.0430   43.3620 N   0  0  0  0  0  0  0  0  0  0  0  0
   39.9090   28.4260   43.2190 H   0  0  0  0  0  0  0  0  0  0  0  0
   38.8030   27.4880   44.2180 H   0  0  0  0  0  0  0  0  0  0  0  0
   42.4430   26.0100   41.9940 H   0  0  0  0  0  0  0  0  0  0  0  0
   41.4510   26.1640   41.5590 C   0  0  0  0  0  0  0  0  0  0  0  0
   41.3310   27.4360   41.5040 O   0  0  0  0  0  0  0  0  0  0  0  0
   40.4650   25.2040   41.1310 N   0  0  0  0  0  0  0  0  0  0  0  0
   40.8970   24.2760   41.3220 H   0  0  0  0  0  0  0  0  0  0  0  0
  1  2  1  0  0  0  0
  1  7  1  1  0  0  0
  2  8  1  0  0  0  0
  3  9  1  0  0  0  0
  3  2  2  0  0  0  0
  4  3  1  0  0  0  0
  4 11  1  0  0  0  0
  5  4  1  0  0  0  0
  5  6  1  0  0  0  0
  6 14  1  6  0  0  0
  6 31  1  0  0  0  0
  6  1  1  0  0  0  0
 10  4  1  0  0  0  0
 12  5  1  0  0  0  0
 13  5  1  0  0  0  0
 15 16  1  0  0  0  0
 16  1  1  0  0  0  0
 16 17  2  0  0  0  0
 17 25  1  0  0  0  0
 18 17  1  0  0  0  0
 19 18  2  0  0  0  0
 20 15  2  0  0  0  0
 20 19  1  0  0  0  0
 21 19  1  0  0  0  0
 21 24  1  0  0  0  0
 22 15  1  0  0  0  0
 23 21  1  0  0  0  0
 25 27  1  0  0  0  0
 26 25  1  0  0  0  0
 29 28  1  0  0  0  0
 30 29  2  0  0  0  0
 31 32  1  0  0  0  0
 31 29  1  0  0  0  0
M  END
>  <minimizedAffinity>
-4.77688074

$$$$

 OpenBabel03252500223D

 32 33  0  0  1  0  0  0  0  0999 V2000
   38.4640   29.2450   41.1860 C   0  0  1  0  0  0  0  0  0  0  0  0
   39.7110   28.5470   41.7660 C   0  0  0  0  0  0  0  0  0  0  0  0
   39.5860   27.6860   42.9400 C   0  0  0  0  0  0  0  0  0  0  0  0
   38.1690   27.5950   43.4960 C   0  0  0  0  0  0  0  0  0  0  0  0
   37.7260   29.0390   43.5620 C   0  0  0  0  0  0  0  0  0  0  0  0
   37.3530   29.3690   42.1020 C   0  0  2  0  0  0  0  0  0  0  0  0
   38.2820   28.5600   40.3290 H   0  0  0  0  0  0  0  0  0  0  0  0
   40.6640   28.6720   41.3390 H   0  0  0  0  0  0  0  0  0  0  0  0
   40.4610   27.2100   43.3230 H   0  0  0  0  0  0  0  0  0  0  0  0
   38.3340   27.2780   44.5370 H   0  0  0  0  0  0  0  0  0  0  0  0
   37.5340   26.9360   42.9150 H   0  0  0  0  0  0  0  0  0  0  0  0
   36.8210   29.1950   44.1840 H   0  0  0  0  0  0  0  0  0  0  0  0
   38.5750   29.6530   43.8800 H   0  0  0  0  0  0  0  0  0  0  0  0
   36.8970   30.3940   42.1410 H   0  0  0  0  0  0  0  0  0  0  0  0
   39.7220   31.4280   41.4090 C   0  0  0  0  0  0  0  0  0  0  0  0
   38.9890   30.5160   40.6110 C   0  0  0  0  0  0  0  0  0  0  0  0
   38.7250   30.9100   39.2880 C   0  0  0  0  0  0  0  0  0  0  0  0
   39.1750   32.1250   38.8370 N   0  0  0  0  0  0  0  0  0  0  0  0
   39.8650   32.9320   39.6570 C   0  0  0  0  0  0  0  0  0  0  0  0
   40.1410   32.5970   40.9340 N   0  0  0  0  0  0  0  0  0  0  0  0
   40.3620   34.1610   39.1970 N   0  0  0  0  0  0  0  0  0  0  0  0
   39.9570   31.1850   42.4340 H   0  0  0  0  0  0  0  0  0  0  0  0
   41.0910   34.7140   39.7000 H   0  0  0  0  0  0  0  0  0  0  0  0
   40.0210   34.6120   38.2960 H   0  0  0  0  0  0  0  0  0  0  0  0
   38.0240   29.9980   38.4730 N   0  0  0  0  0  0  0  0  0  0  0  0
   37.0120   30.2010   38.2270 H   0  0  0  0  0  0  0  0  0  0  0  0
   38.3980   29.1250   38.0790 H   0  0  0  0  0  0  0  0  0  0  0  0
   34.4360   28.4120   40.3240 H   0  0  0  0  0  0  0  0  0  0  0  0
   35.3210   28.9130   40.7240 C   0  0  0  0  0  0  0  0  0  0  0  0
   35.3910   30.0010   40.0560 O   0  0  0  0  0  0  0  0  0  0  0  0
   36.2360   28.4970   41.7580 N   0  0  0  0  0  0  0  0  0  0  0  0
   35.8760   27.5720   42.0740 H   0  0  0  0  0  0  0  0  0  0  0  0
  1  7  1  6  0  0  0
  1  2  1  0  0  0  0
  1  6  1  0  0  0  0
  2  3  2  0  0  0  0
  3  9  1  0  0  0  0
  3  4  1  0  0  0  0
  4  5  1  0  0  0  0
  4 10  1  0  0  0  0
  5 13  1  0  0  0  0
  5 12  1  0  0  0  0
  6 14  1  6  0  0  0
  6  5  1  0  0  0  0
  8  2  1  0  0  0  0
 11  4  1  0  0  0  0
 15 22  1  0  0  0  0
 16  1  1  0  0  0  0
 16 15  2  0  0  0  0
 17 16  1  0  0  0  0
 18 17  2  0  0  0  0
 18 19  1  0  0  0  0
 19 20  2  0  0  0  0
 20 15  1  0  0  0  0
 21 19  1  0  0  0  0
 21 23  1  0  0  0  0
 24 21  1  0  0  0  0
 25 17  1  0  0  0  0
 26 25  1  0  0  0  0
 27 25  1  0  0  0  0
 28 29  1  0  0  0  0
 29 31  1  0  0  0  0
 30 29  2  0  0  0  0
 31 32  1  0  0  0  0
 31  6  1  0  0  0  0
M  END
>  <minimizedAffinity>
-4.75683022

$$$$

 OpenBabel03252500223D

 32 33  0  0  1  0  0  0  0  0999 V2000
   37.2510   27.7060   41.0280 C   0  0  1  0  0  0  0  0  0  0  0  0
   37.7790   29.0960   41.4380 C   0  0  0  0  0  0  0  0  0  0  0  0
   38.3050   29.3090   42.7840 C   0  0  0  0  0  0  0  0  0  0  0  0
   38.2440   28.0740   43.6780 C   0  0  0  0  0  0  0  0  0  0  0  0
   36.8310   27.5720   43.4850 C   0  0  0  0  0  0  0  0  0  0  0  0
   36.8900   26.8420   42.1280 C   0  0  2  0  0  0  0  0  0  0  0  0
   38.1350   27.3660   40.4440 H   0  0  0  0  0  0  0  0  0  0  0  0
   37.7720   29.9090   40.7710 H   0  0  0  0  0  0  0  0  0  0  0  0
   38.6670   30.2770   43.0470 H   0  0  0  0  0  0  0  0  0  0  0  0
   38.2800   28.5030   44.6910 H   0  0  0  0  0  0  0  0  0  0  0  0
   39.0290   27.3600   43.4580 H   0  0  0  0  0  0  0  0  0  0  0  0
   36.5160   26.8340   44.2510 H   0  0  0  0  0  0  0  0  0  0  0  0
   36.1580   28.4340   43.4170 H   0  0  0  0  0  0  0  0  0  0  0  0
   35.8890   26.3460   42.0180 H   0  0  0  0  0  0  0  0  0  0  0  0
   35.2070   29.0010   40.2920 C   0  0  0  0  0  0  0  0  0  0  0  0
   36.1750   27.9990   40.0390 C   0  0  0  0  0  0  0  0  0  0  0  0
   36.0170   27.2580   38.8550 C   0  0  0  0  0  0  0  0  0  0  0  0
   34.9640   27.5280   38.0180 N   0  0  0  0  0  0  0  0  0  0  0  0
   34.0900   28.4960   38.3310 C   0  0  0  0  0  0  0  0  0  0  0  0
   34.2000   29.2320   39.4560 N   0  0  0  0  0  0  0  0  0  0  0  0
   33.0300   28.8080   37.4660 N   0  0  0  0  0  0  0  0  0  0  0  0
   35.2720   29.6050   41.1850 H   0  0  0  0  0  0  0  0  0  0  0  0
   32.4680   29.6850   37.5310 H   0  0  0  0  0  0  0  0  0  0  0  0
   32.7270   28.1580   36.6790 H   0  0  0  0  0  0  0  0  0  0  0  0
   36.9930   26.2790   38.5750 N   0  0  0  0  0  0  0  0  0  0  0  0
   36.7370   25.2550   38.6810 H   0  0  0  0  0  0  0  0  0  0  0  0
   37.9580   26.4560   38.2690 H   0  0  0  0  0  0  0  0  0  0  0  0
   38.0630   23.5200   41.7000 H   0  0  0  0  0  0  0  0  0  0  0  0
   37.5080   24.4620   41.6900 C   0  0  0  0  0  0  0  0  0  0  0  0
   36.4720   24.2040   40.9880 O   0  0  0  0  0  0  0  0  0  0  0  0
   37.8180   25.7300   42.3020 N   0  0  0  0  0  0  0  0  0  0  0  0
   38.7260   25.5750   42.7870 H   0  0  0  0  0  0  0  0  0  0  0  0
  1  7  1  6  0  0  0
  1  2  1  0  0  0  0
  1  6  1  0  0  0  0
  2  3  2  0  0  0  0
  3  9  1  0  0  0  0
  3  4  1  0  0  0  0
  4 10  1  0  0  0  0
  5  4  1  0  0  0  0
  5 12  1  0  0  0  0
  6 14  1  6  0  0  0
  6 31  1  0  0  0  0
  6  5  1  0  0  0  0
  8  2  1  0  0  0  0
 11  4  1  0  0  0  0
 13  5  1  0  0  0  0
 15 22  1  0  0  0  0
 16 15  1  0  0  0  0
 16  1  1  0  0  0  0
 17 16  2  0  0  0  0
 18 19  2  0  0  0  0
 18 17  1  0  0  0  0
 19 20  1  0  0  0  0
 20 15  2  0  0  0  0
 21 23  1  0  0  0  0
 21 19  1  0  0  0  0
 24 21  1  0  0  0  0
 25 26  1  0  0  0  0
 25 17  1  0  0  0  0
 27 25  1  0  0  0  0
 29 28  1  0  0  0  0
 29 31  1  0  0  0  0
 30 29  2  0  0  0  0
 31 32  1  0  0  0  0
M  END
>  <minimizedAffinity>
-4.67948437

$$$$

 OpenBabel03252500223D

 32 33  0  0  1  0  0  0  0  0999 V2000
   39.2070   32.4210   39.4840 C   0  0  1  0  0  0  0  0  0  0  0  0
   40.2210   33.3420   40.1950 C   0  0  0  0  0  0  0  0  0  0  0  0
   41.3850   33.8430   39.4690 C   0  0  0  0  0  0  0  0  0  0  0  0
   41.4790   33.3510   38.0290 C   0  0  0  0  0  0  0  0  0  0  0  0
   41.2430   31.8630   38.1520 C   0  0  0  0  0  0  0  0  0  0  0  0
   39.7130   31.7520   38.3070 C   0  0  2  0  0  0  0  0  0  0  0  0
   38.4180   33.1790   39.2820 H   0  0  0  0  0  0  0  0  0  0  0  0
   40.1000   33.6260   41.2000 H   0  0  0  0  0  0  0  0  0  0  0  0
   42.0720   34.4810   39.9780 H   0  0  0  0  0  0  0  0  0  0  0  0
   42.5490   33.4720   37.7970 H   0  0  0  0  0  0  0  0  0  0  0  0
   40.8070   33.8780   37.3620 H   0  0  0  0  0  0  0  0  0  0  0  0
   41.5310   31.2930   37.2440 H   0  0  0  0  0  0  0  0  0  0  0  0
   41.7390   31.5020   39.0590 H   0  0  0  0  0  0  0  0  0  0  0  0
   39.4940   30.6520   38.2710 H   0  0  0  0  0  0  0  0  0  0  0  0
   39.5700   30.8780   41.4560 C   0  0  0  0  0  0  0  0  0  0  0  0
   38.6870   31.5430   40.5700 C   0  0  0  0  0  0  0  0  0  0  0  0
   37.3170   31.2680   40.7250 C   0  0  0  0  0  0  0  0  0  0  0  0
   36.9040   30.3930   41.6980 N   0  0  0  0  0  0  0  0  0  0  0  0
   37.8050   29.8060   42.4980 C   0  0  0  0  0  0  0  0  0  0  0  0
   39.1300   30.0380   42.3870 N   0  0  0  0  0  0  0  0  0  0  0  0
   37.3940   28.9390   43.5220 N   0  0  0  0  0  0  0  0  0  0  0  0
   40.6340   31.0460   41.3880 H   0  0  0  0  0  0  0  0  0  0  0  0
   38.0090   28.6410   44.3120 H   0  0  0  0  0  0  0  0  0  0  0  0
   36.4140   28.5230   43.5570 H   0  0  0  0  0  0  0  0  0  0  0  0
   36.4240   31.9470   39.8700 N   0  0  0  0  0  0  0  0  0  0  0  0
   35.9530   31.4080   39.0870 H   0  0  0  0  0  0  0  0  0  0  0  0
   36.1730   32.9420   39.9240 H   0  0  0  0  0  0  0  0  0  0  0  0
   37.2970   31.9750   35.7190 H   0  0  0  0  0  0  0  0  0  0  0  0
   37.8850   31.7270   36.6060 C   0  0  0  0  0  0  0  0  0  0  0  0
   37.2060   30.8120   37.1840 O   0  0  0  0  0  0  0  0  0  0  0  0
   39.1370   32.2700   37.0710 N   0  0  0  0  0  0  0  0  0  0  0  0
   39.3960   32.9860   36.3620 H   0  0  0  0  0  0  0  0  0  0  0  0
  1  7  1  6  0  0  0
  1  2  1  0  0  0  0
  1 16  1  0  0  0  0
  2  8  1  0  0  0  0
  3  9  1  0  0  0  0
  3  2  2  0  0  0  0
  4  5  1  0  0  0  0
  4  3  1  0  0  0  0
  5  6  1  0  0  0  0
  5 13  1  0  0  0  0
  6 14  1  1  0  0  0
  6  1  1  0  0  0  0
 10  4  1  0  0  0  0
 11  4  1  0  0  0  0
 12  5  1  0  0  0  0
 15 20  1  0  0  0  0
 16 17  1  0  0  0  0
 16 15  2  0  0  0  0
 17 18  2  0  0  0  0
 18 19  1  0  0  0  0
 19 21  1  0  0  0  0
 20 19  2  0  0  0  0
 21 24  1  0  0  0  0
 21 23  1  0  0  0  0
 22 15  1  0  0  0  0
 25 27  1  0  0  0  0
 25 17  1  0  0  0  0
 26 25  1  0  0  0  0
 28 29  1  0  0  0  0
 29 31  1  0  0  0  0
 29 30  2  0  0  0  0
 31  6  1  0  0  0  0
 32 31  1  0  0  0  0
M  END
>  <minimizedAffinity>
-4.66590977

$$$$
