
 OpenBabel03252505443D

 38 40  0  0  1  0  0  0  0  0999 V2000
   38.9020   28.9930   41.6370 C   0  0  1  0  0  0  0  0  0  0  0  0
   37.7170   29.8030   42.2630 C   0  0  0  0  0  0  0  0  0  0  0  0
   39.1940   30.0760   42.5300 C   0  0  2  0  0  0  0  0  0  0  0  0
   38.9400   29.1440   40.5180 H   0  0  0  0  0  0  0  0  0  0  0  0
   37.1460   29.2880   43.0380 H   0  0  0  0  0  0  0  0  0  0  0  0
   37.1810   30.5020   41.6000 H   0  0  0  0  0  0  0  0  0  0  0  0
   39.4480   30.0120   43.5870 H   0  0  0  0  0  0  0  0  0  0  0  0
   38.9250   27.5710   42.0280 C   0  0  0  0  0  0  0  0  0  0  0  0
   39.7870   27.1900   43.0710 C   0  0  0  0  0  0  0  0  0  0  0  0
   39.8220   25.8540   43.4550 C   0  0  0  0  0  0  0  0  0  0  0  0
   39.0180   24.9820   42.8020 N   0  0  0  0  0  0  0  0  0  0  0  0
   38.2080   25.3730   41.8140 C   0  0  0  0  0  0  0  0  0  0  0  0
   38.1900   26.6600   41.4600 N   0  0  0  0  0  0  0  0  0  0  0  0
   40.4240   27.9010   43.5840 H   0  0  0  0  0  0  0  0  0  0  0  0
   40.4830   25.5340   44.2620 H   0  0  0  0  0  0  0  0  0  0  0  0
   37.3970   24.2600   41.2160 C   0  0  0  0  0  0  0  0  0  0  0  0
   37.0470   24.5340   39.9030 F   0  0  0  0  0  0  0  0  0  0  0  0
   36.1720   24.1680   41.9190 F   0  0  0  0  0  0  0  0  0  0  0  0
   38.0440   23.0680   41.3890 F   0  0  0  0  0  0  0  0  0  0  0  0
   39.7830   31.2960   41.8560 C   0  0  0  0  0  0  0  0  0  0  0  0
   41.1420   31.4580   41.7430 C   0  0  0  0  0  0  0  0  0  0  0  0
   41.7100   32.5480   41.1150 C   0  0  0  0  0  0  0  0  0  0  0  0
   40.8860   33.4750   40.5990 N   0  0  0  0  0  0  0  0  0  0  0  0
   39.5330   33.3220   40.7060 C   0  0  0  0  0  0  0  0  0  0  0  0
   38.9980   32.2550   41.3230 N   0  0  0  0  0  0  0  0  0  0  0  0
   41.8230   30.7310   42.1460 H   0  0  0  0  0  0  0  0  0  0  0  0
   42.7710   32.6760   41.0250 H   0  0  0  0  0  0  0  0  0  0  0  0
   38.5680   34.3150   40.1370 C   0  0  0  0  0  0  0  0  0  0  0  0
   38.9930   34.9540   39.3620 H   0  0  0  0  0  0  0  0  0  0  0  0
   38.2440   34.9890   40.9570 H   0  0  0  0  0  0  0  0  0  0  0  0
   37.3480   33.6150   39.6100 C   0  0  0  0  0  0  0  0  0  0  0  0
   37.0020   32.9250   40.3990 H   0  0  0  0  0  0  0  0  0  0  0  0
   36.5310   34.3100   39.3550 H   0  0  0  0  0  0  0  0  0  0  0  0
   37.6520   30.8610   37.4010 H   0  0  0  0  0  0  0  0  0  0  0  0
   37.3430   31.4500   38.2480 C   0  0  0  0  0  0  0  0  0  0  0  0
   36.5780   30.8570   39.0440 O   0  0  0  0  0  0  0  0  0  0  0  0
   37.7420   32.7920   38.4870 N   0  0  0  0  0  0  0  0  0  0  0  0
   38.3900   33.1420   37.7190 H   0  0  0  0  0  0  0  0  0  0  0  0
  1  4  1  6  0  0  0
  1  8  1  0  0  0  0
  1  2  1  0  0  0  0
  1  3  1  0  0  0  0
  2  3  1  0  0  0  0
  2  5  1  0  0  0  0
  3  7  1  1  0  0  0
  6  2  1  0  0  0  0
  8  9  1  0  0  0  0
  9 10  2  0  0  0  0
  9 14  1  0  0  0  0
 10 15  1  0  0  0  0
 11 10  1  0  0  0  0
 12 11  2  0  0  0  0
 13 12  1  0  0  0  0
 13  8  2  0  0  0  0
 16 19  1  0  0  0  0
 16 12  1  0  0  0  0
 16 18  1  0  0  0  0
 17 16  1  0  0  0  0
 20  3  1  0  0  0  0
 21 20  1  0  0  0  0
 21 26  1  0  0  0  0
 22 21  2  0  0  0  0
 23 24  2  0  0  0  0
 23 22  1  0  0  0  0
 24 25  1  0  0  0  0
 25 20  2  0  0  0  0
 27 22  1  0  0  0  0
 28 24  1  0  0  0  0
 28 30  1  0  0  0  0
 29 28  1  0  0  0  0
 31 28  1  0  0  0  0
 31 32  1  0  0  0  0
 33 31  1  0  0  0  0
 34 35  1  0  0  0  0
 35 37  1  0  0  0  0
 35 36  2  0  0  0  0
 37 31  1  0  0  0  0
 38 37  1  0  0  0  0
M  END
>  <minimizedAffinity>
-5.41102028

$$$$

 OpenBabel03252505443D

 38 40  0  0  1  0  0  0  0  0999 V2000
   37.1640   30.0540   38.2520 C   0  0  1  0  0  0  0  0  0  0  0  0
   37.1730   31.5460   38.7250 C   0  0  0  0  0  0  0  0  0  0  0  0
   36.4790   30.4040   39.4610 C   0  0  2  0  0  0  0  0  0  0  0  0
   38.2050   29.6190   38.2860 H   0  0  0  0  0  0  0  0  0  0  0  0
   36.5510   32.2330   38.1460 H   0  0  0  0  0  0  0  0  0  0  0  0
   38.1130   31.9310   39.1520 H   0  0  0  0  0  0  0  0  0  0  0  0
   35.4110   30.5770   39.5910 H   0  0  0  0  0  0  0  0  0  0  0  0
   36.4930   29.8430   36.9540 C   0  0  0  0  0  0  0  0  0  0  0  0
   35.4710   28.8800   36.8910 C   0  0  0  0  0  0  0  0  0  0  0  0
   34.8270   28.6690   35.6780 C   0  0  0  0  0  0  0  0  0  0  0  0
   35.2170   29.4050   34.6110 N   0  0  0  0  0  0  0  0  0  0  0  0
   36.1920   30.3150   34.7010 C   0  0  0  0  0  0  0  0  0  0  0  0
   36.7990   30.5030   35.8750 N   0  0  0  0  0  0  0  0  0  0  0  0
   35.1710   28.2990   37.7550 H   0  0  0  0  0  0  0  0  0  0  0  0
   34.0300   27.9260   35.6030 H   0  0  0  0  0  0  0  0  0  0  0  0
   36.4790   31.0290   33.4120 C   0  0  0  0  0  0  0  0  0  0  0  0
   37.4020   32.0470   33.5890 F   0  0  0  0  0  0  0  0  0  0  0  0
   35.2930   31.6680   32.9770 F   0  0  0  0  0  0  0  0  0  0  0  0
   36.8180   30.1240   32.4450 F   0  0  0  0  0  0  0  0  0  0  0  0
   37.1530   29.9130   40.7230 C   0  0  0  0  0  0  0  0  0  0  0  0
   38.2340   30.5730   41.2530 C   0  0  0  0  0  0  0  0  0  0  0  0
   38.8570   30.1630   42.4140 C   0  0  0  0  0  0  0  0  0  0  0  0
   38.3730   29.0760   43.0370 N   0  0  0  0  0  0  0  0  0  0  0  0
   37.2970   28.4140   42.5190 C   0  0  0  0  0  0  0  0  0  0  0  0
   36.7040   28.8270   41.3850 N   0  0  0  0  0  0  0  0  0  0  0  0
   38.6410   31.4450   40.7750 H   0  0  0  0  0  0  0  0  0  0  0  0
   39.7020   30.6770   42.8300 H   0  0  0  0  0  0  0  0  0  0  0  0
   36.7060   27.2080   43.1780 C   0  0  0  0  0  0  0  0  0  0  0  0
   35.6210   27.2450   43.2840 H   0  0  0  0  0  0  0  0  0  0  0  0
   37.1190   27.1400   44.2060 H   0  0  0  0  0  0  0  0  0  0  0  0
   37.1050   25.9620   42.4420 C   0  0  0  0  0  0  0  0  0  0  0  0
   37.1520   25.1450   43.1830 H   0  0  0  0  0  0  0  0  0  0  0  0
   36.3940   25.6860   41.6460 H   0  0  0  0  0  0  0  0  0  0  0  0
   40.5970   25.5810   41.9700 H   0  0  0  0  0  0  0  0  0  0  0  0
   39.6060   25.4280   42.3620 C   0  0  0  0  0  0  0  0  0  0  0  0
   39.5280   24.5490   43.2520 O   0  0  0  0  0  0  0  0  0  0  0  0
   38.4520   26.1380   41.9400 N   0  0  0  0  0  0  0  0  0  0  0  0
   38.6920   26.8460   41.1830 H   0  0  0  0  0  0  0  0  0  0  0  0
  1  4  1  1  0  0  0
  1  2  1  0  0  0  0
  1  3  1  0  0  0  0
  2  6  1  0  0  0  0
  2  3  1  0  0  0  0
  3  7  1  6  0  0  0
  3 20  1  0  0  0  0
  5  2  1  0  0  0  0
  8  1  1  0  0  0  0
  9  8  1  0  0  0  0
  9 14  1  0  0  0  0
 10  9  2  0  0  0  0
 11 12  2  0  0  0  0
 11 10  1  0  0  0  0
 12 13  1  0  0  0  0
 13  8  2  0  0  0  0
 15 10  1  0  0  0  0
 16 17  1  0  0  0  0
 16 12  1  0  0  0  0
 18 16  1  0  0  0  0
 19 16  1  0  0  0  0
 20 21  2  0  0  0  0
 20 25  1  0  0  0  0
 21 22  1  0  0  0  0
 22 27  1  0  0  0  0
 22 23  2  0  0  0  0
 24 23  1  0  0  0  0
 24 28  1  0  0  0  0
 25 24  2  0  0  0  0
 26 21  1  0  0  0  0
 28 29  1  0  0  0  0
 28 30  1  0  0  0  0
 31 28  1  0  0  0  0
 31 32  1  0  0  0  0
 33 31  1  0  0  0  0
 34 35  1  0  0  0  0
 35 36  2  0  0  0  0
 37 35  1  0  0  0  0
 37 31  1  0  0  0  0
 38 37  1  0  0  0  0
M  END
>  <minimizedAffinity>
-5.2643671

$$$$

 OpenBabel03252505443D

 38 40  0  0  1  0  0  0  0  0999 V2000
   36.2770   29.3550   38.5960 C   0  0  1  0  0  0  0  0  0  0  0  0
   34.8980   29.0830   39.2860 C   0  0  0  0  0  0  0  0  0  0  0  0
   36.1860   28.3240   39.5880 C   0  0  2  0  0  0  0  0  0  0  0  0
   36.6620   30.3820   38.8680 H   0  0  0  0  0  0  0  0  0  0  0  0
   34.1470   28.5860   38.6670 H   0  0  0  0  0  0  0  0  0  0  0  0
   34.5540   29.8200   40.0290 H   0  0  0  0  0  0  0  0  0  0  0  0
   36.0900   27.2510   39.4210 H   0  0  0  0  0  0  0  0  0  0  0  0
   36.2770   29.1050   37.1420 C   0  0  0  0  0  0  0  0  0  0  0  0
   36.2490   27.7690   36.7040 C   0  0  0  0  0  0  0  0  0  0  0  0
   36.2470   27.5150   35.3380 C   0  0  0  0  0  0  0  0  0  0  0  0
   36.2720   28.5710   34.4920 N   0  0  0  0  0  0  0  0  0  0  0  0
   36.2980   29.8310   34.9360 C   0  0  0  0  0  0  0  0  0  0  0  0
   36.3000   30.0550   36.2520 N   0  0  0  0  0  0  0  0  0  0  0  0
   36.2290   26.9350   37.3960 H   0  0  0  0  0  0  0  0  0  0  0  0
   36.2250   26.4860   34.9740 H   0  0  0  0  0  0  0  0  0  0  0  0
   36.3220   30.8610   33.8450 C   0  0  0  0  0  0  0  0  0  0  0  0
   36.9610   32.0210   34.2540 F   0  0  0  0  0  0  0  0  0  0  0  0
   34.9900   31.2460   33.5600 F   0  0  0  0  0  0  0  0  0  0  0  0
   36.8300   30.3130   32.7000 F   0  0  0  0  0  0  0  0  0  0  0  0
   36.8690   28.6560   40.8960 C   0  0  0  0  0  0  0  0  0  0  0  0
   36.6070   27.9370   42.0360 C   0  0  0  0  0  0  0  0  0  0  0  0
   37.2300   28.2000   43.2390 C   0  0  0  0  0  0  0  0  0  0  0  0
   38.1240   29.2020   43.2770 N   0  0  0  0  0  0  0  0  0  0  0  0
   38.3920   29.9220   42.1490 C   0  0  0  0  0  0  0  0  0  0  0  0
   37.7740   29.6520   40.9860 N   0  0  0  0  0  0  0  0  0  0  0  0
   35.8970   27.1300   42.0330 H   0  0  0  0  0  0  0  0  0  0  0  0
   37.0280   27.6390   44.1310 H   0  0  0  0  0  0  0  0  0  0  0  0
   39.3890   31.0380   42.1290 C   0  0  0  0  0  0  0  0  0  0  0  0
   40.4140   30.7220   42.3230 H   0  0  0  0  0  0  0  0  0  0  0  0
   39.1230   31.7520   42.9360 H   0  0  0  0  0  0  0  0  0  0  0  0
   39.3210   31.7770   40.8240 C   0  0  0  0  0  0  0  0  0  0  0  0
   40.2340   32.3930   40.7480 H   0  0  0  0  0  0  0  0  0  0  0  0
   39.2660   31.1050   39.9520 H   0  0  0  0  0  0  0  0  0  0  0  0
   36.5370   33.7510   39.8670 H   0  0  0  0  0  0  0  0  0  0  0  0
   37.3600   33.0600   39.7970 C   0  0  0  0  0  0  0  0  0  0  0  0
   37.5350   32.5730   38.6560 O   0  0  0  0  0  0  0  0  0  0  0  0
   38.2060   32.7000   40.8780 N   0  0  0  0  0  0  0  0  0  0  0  0
   37.9230   33.2030   41.7720 H   0  0  0  0  0  0  0  0  0  0  0  0
  1  4  1  1  0  0  0
  1  2  1  0  0  0  0
  1  3  1  0  0  0  0
  2  3  1  0  0  0  0
  2  6  1  0  0  0  0
  3  7  1  6  0  0  0
  3 20  1  0  0  0  0
  5  2  1  0  0  0  0
  8  1  1  0  0  0  0
  9  8  1  0  0  0  0
  9 14  1  0  0  0  0
 10  9  2  0  0  0  0
 11 12  2  0  0  0  0
 11 10  1  0  0  0  0
 12 13  1  0  0  0  0
 13  8  2  0  0  0  0
 15 10  1  0  0  0  0
 16 17  1  0  0  0  0
 16 12  1  0  0  0  0
 18 16  1  0  0  0  0
 19 16  1  0  0  0  0
 20 25  2  0  0  0  0
 20 21  1  0  0  0  0
 21 22  2  0  0  0  0
 22 23  1  0  0  0  0
 22 27  1  0  0  0  0
 24 23  2  0  0  0  0
 25 24  1  0  0  0  0
 26 21  1  0  0  0  0
 28 24  1  0  0  0  0
 28 29  1  0  0  0  0
 28 30  1  0  0  0  0
 31 37  1  0  0  0  0
 31 28  1  0  0  0  0
 32 31  1  0  0  0  0
 33 31  1  0  0  0  0
 35 34  1  0  0  0  0
 35 37  1  0  0  0  0
 36 35  2  0  0  0  0
 37 38  1  0  0  0  0
M  END
>  <minimizedAffinity>
-5.22247028

$$$$

 OpenBabel03252505443D

 38 40  0  0  1  0  0  0  0  0999 V2000
   39.7230   29.6840   41.2450 C   0  0  1  0  0  0  0  0  0  0  0  0
   41.2070   29.1850   41.2670 C   0  0  0  0  0  0  0  0  0  0  0  0
   40.3880   29.4240   40.0020 C   0  0  2  0  0  0  0  0  0  0  0  0
   39.6500   30.7360   41.6500 H   0  0  0  0  0  0  0  0  0  0  0  0
   41.3570   28.1520   41.5890 H   0  0  0  0  0  0  0  0  0  0  0  0
   41.9820   29.9260   41.5200 H   0  0  0  0  0  0  0  0  0  0  0  0
   40.3050   28.5330   39.3810 H   0  0  0  0  0  0  0  0  0  0  0  0
   38.7710   28.7540   41.8830 C   0  0  0  0  0  0  0  0  0  0  0  0
   38.1340   29.1730   43.0650 C   0  0  0  0  0  0  0  0  0  0  0  0
   37.2340   28.3110   43.6790 C   0  0  0  0  0  0  0  0  0  0  0  0
   37.0120   27.1040   43.1060 N   0  0  0  0  0  0  0  0  0  0  0  0
   37.6320   26.7330   41.9820 C   0  0  0  0  0  0  0  0  0  0  0  0
   38.4930   27.5750   41.4070 N   0  0  0  0  0  0  0  0  0  0  0  0
   38.3230   30.1420   43.5100 H   0  0  0  0  0  0  0  0  0  0  0  0
   36.7270   28.6130   44.5970 H   0  0  0  0  0  0  0  0  0  0  0  0
   37.2530   25.3620   41.5030 C   0  0  0  0  0  0  0  0  0  0  0  0
   38.3660   24.6330   41.1160 F   0  0  0  0  0  0  0  0  0  0  0  0
   36.4660   25.4940   40.3340 F   0  0  0  0  0  0  0  0  0  0  0  0
   36.4720   24.7420   42.4390 F   0  0  0  0  0  0  0  0  0  0  0  0
   40.7280   30.6660   39.2070 C   0  0  0  0  0  0  0  0  0  0  0  0
   41.1860   30.5770   37.9160 C   0  0  0  0  0  0  0  0  0  0  0  0
   41.4830   31.6910   37.1570 C   0  0  0  0  0  0  0  0  0  0  0  0
   41.3120   32.8990   37.7190 N   0  0  0  0  0  0  0  0  0  0  0  0
   40.8570   32.9970   39.0030 C   0  0  0  0  0  0  0  0  0  0  0  0
   40.5740   31.9000   39.7270 N   0  0  0  0  0  0  0  0  0  0  0  0
   41.3310   29.6240   37.4420 H   0  0  0  0  0  0  0  0  0  0  0  0
   41.8400   31.6250   36.1470 H   0  0  0  0  0  0  0  0  0  0  0  0
   40.6330   34.3150   39.6750 C   0  0  0  0  0  0  0  0  0  0  0  0
   40.6460   35.1680   38.9960 H   0  0  0  0  0  0  0  0  0  0  0  0
   41.4580   34.4770   40.3990 H   0  0  0  0  0  0  0  0  0  0  0  0
   39.3450   34.2950   40.4470 C   0  0  0  0  0  0  0  0  0  0  0  0
   39.3570   33.3920   41.0810 H   0  0  0  0  0  0  0  0  0  0  0  0
   39.2140   35.1840   41.0860 H   0  0  0  0  0  0  0  0  0  0  0  0
   36.4400   33.0270   38.8610 H   0  0  0  0  0  0  0  0  0  0  0  0
   37.2420   33.1300   39.5720 C   0  0  0  0  0  0  0  0  0  0  0  0
   37.2300   32.2840   40.4970 O   0  0  0  0  0  0  0  0  0  0  0  0
   38.2530   34.1250   39.5110 N   0  0  0  0  0  0  0  0  0  0  0  0
   38.1170   34.7590   38.6680 H   0  0  0  0  0  0  0  0  0  0  0  0
  1  2  1  0  0  0  0
  1  4  1  1  0  0  0
  1  8  1  0  0  0  0
  2  6  1  0  0  0  0
  2  5  1  0  0  0  0
  3  7  1  6  0  0  0
  3  1  1  0  0  0  0
  3  2  1  0  0  0  0
  8  9  1  0  0  0  0
  9 14  1  0  0  0  0
  9 10  2  0  0  0  0
 10 15  1  0  0  0  0
 11 10  1  0  0  0  0
 12 11  2  0  0  0  0
 13  8  2  0  0  0  0
 13 12  1  0  0  0  0
 16 12  1  0  0  0  0
 16 19  1  0  0  0  0
 17 16  1  0  0  0  0
 18 16  1  0  0  0  0
 20 25  1  0  0  0  0
 20  3  1  0  0  0  0
 21 20  2  0  0  0  0
 22 23  2  0  0  0  0
 22 21  1  0  0  0  0
 23 24  1  0  0  0  0
 24 28  1  0  0  0  0
 24 25  2  0  0  0  0
 26 21  1  0  0  0  0
 27 22  1  0  0  0  0
 28 30  1  0  0  0  0
 28 31  1  0  0  0  0
 29 28  1  0  0  0  0
 31 32  1  0  0  0  0
 31 33  1  0  0  0  0
 34 35  1  0  0  0  0
 35 36  2  0  0  0  0
 37 35  1  0  0  0  0
 37 31  1  0  0  0  0
 38 37  1  0  0  0  0
M  END
>  <minimizedAffinity>
-5.21408796

$$$$

 OpenBabel03252505443D

 38 40  0  0  1  0  0  0  0  0999 V2000
   35.5690   28.6890   38.8540 C   0  0  1  0  0  0  0  0  0  0  0  0
   36.3890   29.9860   38.5400 C   0  0  0  0  0  0  0  0  0  0  0  0
   35.6640   29.7110   39.8540 C   0  0  2  0  0  0  0  0  0  0  0  0
   36.2480   27.7870   38.8870 H   0  0  0  0  0  0  0  0  0  0  0  0
   35.9260   30.6830   37.8390 H   0  0  0  0  0  0  0  0  0  0  0  0
   37.4880   29.8960   38.5350 H   0  0  0  0  0  0  0  0  0  0  0  0
   34.9250   30.4750   40.0930 H   0  0  0  0  0  0  0  0  0  0  0  0
   34.3980   28.4970   37.9770 C   0  0  0  0  0  0  0  0  0  0  0  0
   34.4080   27.4010   37.0960 C   0  0  0  0  0  0  0  0  0  0  0  0
   33.3130   27.2040   36.2640 C   0  0  0  0  0  0  0  0  0  0  0  0
   32.2840   28.0790   36.3440 N   0  0  0  0  0  0  0  0  0  0  0  0
   32.3010   29.1120   37.1920 C   0  0  0  0  0  0  0  0  0  0  0  0
   33.3620   29.2850   37.9830 N   0  0  0  0  0  0  0  0  0  0  0  0
   35.2410   26.7090   37.0450 H   0  0  0  0  0  0  0  0  0  0  0  0
   33.2980   26.3600   35.5710 H   0  0  0  0  0  0  0  0  0  0  0  0
   31.0690   29.9670   37.1340 C   0  0  0  0  0  0  0  0  0  0  0  0
   31.2890   31.1260   36.4050 F   0  0  0  0  0  0  0  0  0  0  0  0
   30.7590   30.4010   38.4450 F   0  0  0  0  0  0  0  0  0  0  0  0
   30.0070   29.2240   36.7000 F   0  0  0  0  0  0  0  0  0  0  0  0
   36.5350   29.3460   41.0360 C   0  0  0  0  0  0  0  0  0  0  0  0
   36.2810   28.2230   41.7840 C   0  0  0  0  0  0  0  0  0  0  0  0
   37.0690   27.8490   42.8540 C   0  0  0  0  0  0  0  0  0  0  0  0
   38.1220   28.6260   43.1590 N   0  0  0  0  0  0  0  0  0  0  0  0
   38.3830   29.7450   42.4210 C   0  0  0  0  0  0  0  0  0  0  0  0
   37.6030   30.0930   41.3840 N   0  0  0  0  0  0  0  0  0  0  0  0
   35.4460   27.5840   41.5610 H   0  0  0  0  0  0  0  0  0  0  0  0
   36.8730   26.9720   43.4390 H   0  0  0  0  0  0  0  0  0  0  0  0
   39.5500   30.6380   42.7060 C   0  0  0  0  0  0  0  0  0  0  0  0
   40.4050   30.1250   43.1460 H   0  0  0  0  0  0  0  0  0  0  0  0
   39.2270   31.4010   43.4440 H   0  0  0  0  0  0  0  0  0  0  0  0
   39.9730   31.3590   41.4580 C   0  0  0  0  0  0  0  0  0  0  0  0
   41.0760   31.3840   41.4540 H   0  0  0  0  0  0  0  0  0  0  0  0
   39.6190   30.8670   40.5370 H   0  0  0  0  0  0  0  0  0  0  0  0
   38.4360   34.4590   40.6910 H   0  0  0  0  0  0  0  0  0  0  0  0
   38.7510   33.4330   40.5940 C   0  0  0  0  0  0  0  0  0  0  0  0
   38.3720   32.8700   39.5410 O   0  0  0  0  0  0  0  0  0  0  0  0
   39.5310   32.7340   41.5520 N   0  0  0  0  0  0  0  0  0  0  0  0
   39.7670   33.3560   42.3820 H   0  0  0  0  0  0  0  0  0  0  0  0
  1  4  1  1  0  0  0
  1  3  1  0  0  0  0
  2  1  1  0  0  0  0
  2  3  1  0  0  0  0
  3  7  1  1  0  0  0
  3 20  1  0  0  0  0
  5  2  1  0  0  0  0
  6  2  1  0  0  0  0
  8 13  1  0  0  0  0
  8  1  1  0  0  0  0
  9  8  2  0  0  0  0
 10 11  2  0  0  0  0
 10  9  1  0  0  0  0
 11 12  1  0  0  0  0
 12 13  2  0  0  0  0
 14  9  1  0  0  0  0
 15 10  1  0  0  0  0
 16 12  1  0  0  0  0
 16 18  1  0  0  0  0
 17 16  1  0  0  0  0
 19 16  1  0  0  0  0
 20 25  2  0  0  0  0
 20 21  1  0  0  0  0
 21 22  2  0  0  0  0
 22 23  1  0  0  0  0
 22 27  1  0  0  0  0
 24 28  1  0  0  0  0
 24 23  2  0  0  0  0
 25 24  1  0  0  0  0
 26 21  1  0  0  0  0
 28 29  1  0  0  0  0
 28 30  1  0  0  0  0
 31 37  1  0  0  0  0
 31 28  1  0  0  0  0
 32 31  1  0  0  0  0
 33 31  1  0  0  0  0
 35 34  1  0  0  0  0
 35 37  1  0  0  0  0
 36 35  2  0  0  0  0
 37 38  1  0  0  0  0
M  END
>  <minimizedAffinity>
-5.17402506

$$$$

 OpenBabel03252505443D

 38 40  0  0  1  0  0  0  0  0999 V2000
   38.5090   29.9140   40.4310 C   0  0  1  0  0  0  0  0  0  0  0  0
   37.3180   30.4700   39.5800 C   0  0  0  0  0  0  0  0  0  0  0  0
   38.1690   31.3030   40.5340 C   0  0  2  0  0  0  0  0  0  0  0  0
   39.3540   29.5760   39.7620 H   0  0  0  0  0  0  0  0  0  0  0  0
   36.3190   30.1770   39.9110 H   0  0  0  0  0  0  0  0  0  0  0  0
   37.4910   30.5970   38.4990 H   0  0  0  0  0  0  0  0  0  0  0  0
   37.5770   31.7830   41.3120 H   0  0  0  0  0  0  0  0  0  0  0  0
   38.1110   28.8910   41.4180 C   0  0  0  0  0  0  0  0  0  0  0  0
   37.8600   29.3110   42.7360 C   0  0  0  0  0  0  0  0  0  0  0  0
   37.4830   28.3620   43.6780 C   0  0  0  0  0  0  0  0  0  0  0  0
   37.3740   27.0730   43.2780 N   0  0  0  0  0  0  0  0  0  0  0  0
   37.6180   26.7020   42.0180 C   0  0  0  0  0  0  0  0  0  0  0  0
   37.9800   27.6290   41.1270 N   0  0  0  0  0  0  0  0  0  0  0  0
   37.9520   30.3470   43.0390 H   0  0  0  0  0  0  0  0  0  0  0  0
   37.2830   28.6630   44.7080 H   0  0  0  0  0  0  0  0  0  0  0  0
   37.4420   25.2330   41.7710 C   0  0  0  0  0  0  0  0  0  0  0  0
   36.4030   24.7110   42.5260 F   0  0  0  0  0  0  0  0  0  0  0  0
   38.6050   24.5590   42.2150 F   0  0  0  0  0  0  0  0  0  0  0  0
   37.3360   24.9960   40.4290 F   0  0  0  0  0  0  0  0  0  0  0  0
   39.1720   32.2380   39.8950 C   0  0  0  0  0  0  0  0  0  0  0  0
   39.4210   33.4790   40.4250 C   0  0  0  0  0  0  0  0  0  0  0  0
   40.3470   34.3460   39.8800 C   0  0  0  0  0  0  0  0  0  0  0  0
   41.0190   33.9430   38.7900 N   0  0  0  0  0  0  0  0  0  0  0  0
   40.7780   32.7090   38.2560 C   0  0  0  0  0  0  0  0  0  0  0  0
   39.8720   31.8790   38.8000 N   0  0  0  0  0  0  0  0  0  0  0  0
   38.8980   33.8270   41.2970 H   0  0  0  0  0  0  0  0  0  0  0  0
   40.5440   35.3170   40.2920 H   0  0  0  0  0  0  0  0  0  0  0  0
   41.5090   32.2010   37.0520 C   0  0  0  0  0  0  0  0  0  0  0  0
   41.4510   32.8600   36.1860 H   0  0  0  0  0  0  0  0  0  0  0  0
   41.0440   31.2410   36.7470 H   0  0  0  0  0  0  0  0  0  0  0  0
   42.9460   31.9260   37.3910 C   0  0  0  0  0  0  0  0  0  0  0  0
   42.9910   31.7050   38.4720 H   0  0  0  0  0  0  0  0  0  0  0  0
   43.3640   31.0740   36.8310 H   0  0  0  0  0  0  0  0  0  0  0  0
   45.0430   34.7210   37.9850 H   0  0  0  0  0  0  0  0  0  0  0  0
   44.4870   33.8160   38.1640 C   0  0  0  0  0  0  0  0  0  0  0  0
   44.5770   33.3740   39.3320 O   0  0  0  0  0  0  0  0  0  0  0  0
   43.7050   33.1430   37.1890 N   0  0  0  0  0  0  0  0  0  0  0  0
   43.7360   33.6500   36.2550 H   0  0  0  0  0  0  0  0  0  0  0  0
  1  4  1  6  0  0  0
  1  3  1  0  0  0  0
  1  8  1  0  0  0  0
  2  5  1  0  0  0  0
  2  1  1  0  0  0  0
  2  3  1  0  0  0  0
  3  7  1  1  0  0  0
  6  2  1  0  0  0  0
  8  9  1  0  0  0  0
  9 14  1  0  0  0  0
  9 10  2  0  0  0  0
 10 15  1  0  0  0  0
 11 10  1  0  0  0  0
 12 11  2  0  0  0  0
 13  8  2  0  0  0  0
 13 12  1  0  0  0  0
 16 12  1  0  0  0  0
 16 18  1  0  0  0  0
 16 17  1  0  0  0  0
 19 16  1  0  0  0  0
 20 21  1  0  0  0  0
 20  3  1  0  0  0  0
 21 26  1  0  0  0  0
 22 27  1  0  0  0  0
 22 21  2  0  0  0  0
 23 22  1  0  0  0  0
 24 23  2  0  0  0  0
 24 25  1  0  0  0  0
 25 20  2  0  0  0  0
 28 31  1  0  0  0  0
 28 24  1  0  0  0  0
 29 28  1  0  0  0  0
 30 28  1  0  0  0  0
 31 32  1  0  0  0  0
 33 31  1  0  0  0  0
 34 35  1  0  0  0  0
 35 36  2  0  0  0  0
 37 31  1  0  0  0  0
 37 35  1  0  0  0  0
 38 37  1  0  0  0  0
M  END
>  <minimizedAffinity>
-5.13920021

$$$$

 OpenBabel03252505443D

 38 40  0  0  1  0  0  0  0  0999 V2000
   34.9770   29.5440   38.7670 C   0  0  1  0  0  0  0  0  0  0  0  0
   35.7300   29.2180   37.4330 C   0  0  0  0  0  0  0  0  0  0  0  0
   34.5810   28.3940   38.0070 C   0  0  2  0  0  0  0  0  0  0  0  0
   34.4100   30.5160   38.6770 H   0  0  0  0  0  0  0  0  0  0  0  0
   36.7430   28.8250   37.5420 H   0  0  0  0  0  0  0  0  0  0  0  0
   35.5120   29.8600   36.5640 H   0  0  0  0  0  0  0  0  0  0  0  0
   34.8580   27.3560   38.1850 H   0  0  0  0  0  0  0  0  0  0  0  0
   35.8360   29.4860   39.9660 C   0  0  0  0  0  0  0  0  0  0  0  0
   36.5770   30.6340   40.3000 C   0  0  0  0  0  0  0  0  0  0  0  0
   37.3900   30.5990   41.4260 C   0  0  0  0  0  0  0  0  0  0  0  0
   37.4270   29.4560   42.1510 N   0  0  0  0  0  0  0  0  0  0  0  0
   36.7120   28.3800   41.8100 C   0  0  0  0  0  0  0  0  0  0  0  0
   35.9370   28.4330   40.7240 N   0  0  0  0  0  0  0  0  0  0  0  0
   36.5350   31.5410   39.7080 H   0  0  0  0  0  0  0  0  0  0  0  0
   37.9740   31.4770   41.7060 H   0  0  0  0  0  0  0  0  0  0  0  0
   36.8870   27.2140   42.7380 C   0  0  0  0  0  0  0  0  0  0  0  0
   36.7680   26.0070   42.0660 F   0  0  0  0  0  0  0  0  0  0  0  0
   35.8300   27.2240   43.6800 F   0  0  0  0  0  0  0  0  0  0  0  0
   38.0490   27.3520   43.4440 F   0  0  0  0  0  0  0  0  0  0  0  0
   33.2430   28.5360   37.3150 C   0  0  0  0  0  0  0  0  0  0  0  0
   32.8820   27.6960   36.2920 C   0  0  0  0  0  0  0  0  0  0  0  0
   31.6600   27.7840   35.6560 C   0  0  0  0  0  0  0  0  0  0  0  0
   30.8050   28.7350   36.0690 N   0  0  0  0  0  0  0  0  0  0  0  0
   31.1550   29.5750   37.0870 C   0  0  0  0  0  0  0  0  0  0  0  0
   32.3500   29.4740   37.6930 N   0  0  0  0  0  0  0  0  0  0  0  0
   33.5460   26.9270   35.9430 H   0  0  0  0  0  0  0  0  0  0  0  0
   31.3740   27.1290   34.8560 H   0  0  0  0  0  0  0  0  0  0  0  0
   30.2370   30.6400   37.5970 C   0  0  0  0  0  0  0  0  0  0  0  0
   30.4930   31.0090   38.5910 H   0  0  0  0  0  0  0  0  0  0  0  0
   29.2180   30.2080   37.6760 H   0  0  0  0  0  0  0  0  0  0  0  0
   30.1740   31.7840   36.6270 C   0  0  0  0  0  0  0  0  0  0  0  0
   29.1980   31.7250   36.1140 H   0  0  0  0  0  0  0  0  0  0  0  0
   30.2660   32.7680   37.1160 H   0  0  0  0  0  0  0  0  0  0  0  0
   31.8590   31.7860   33.5090 H   0  0  0  0  0  0  0  0  0  0  0  0
   31.0900   31.9520   34.2440 C   0  0  0  0  0  0  0  0  0  0  0  0
   30.0630   32.5190   33.8040 O   0  0  0  0  0  0  0  0  0  0  0  0
   31.1840   31.5780   35.6100 N   0  0  0  0  0  0  0  0  0  0  0  0
   32.1170   31.1100   35.8160 H   0  0  0  0  0  0  0  0  0  0  0  0
  1  4  1  6  0  0  0
  1  8  1  0  0  0  0
  2  5  1  0  0  0  0
  2  3  1  0  0  0  0
  2  1  1  0  0  0  0
  3  7  1  1  0  0  0
  3  1  1  0  0  0  0
  6  2  1  0  0  0  0
  8  9  2  0  0  0  0
  8 13  1  0  0  0  0
  9 10  1  0  0  0  0
 10 15  1  0  0  0  0
 10 11  2  0  0  0  0
 12 11  1  0  0  0  0
 12 16  1  0  0  0  0
 13 12  2  0  0  0  0
 14  9  1  0  0  0  0
 16 19  1  0  0  0  0
 16 18  1  0  0  0  0
 17 16  1  0  0  0  0
 20 25  1  0  0  0  0
 20  3  1  0  0  0  0
 21 20  2  0  0  0  0
 22 23  2  0  0  0  0
 22 21  1  0  0  0  0
 23 24  1  0  0  0  0
 24 28  1  0  0  0  0
 24 25  2  0  0  0  0
 26 21  1  0  0  0  0
 27 22  1  0  0  0  0
 28 30  1  0  0  0  0
 28 29  1  0  0  0  0
 31 33  1  0  0  0  0
 31 28  1  0  0  0  0
 32 31  1  0  0  0  0
 34 35  1  0  0  0  0
 35 37  1  0  0  0  0
 36 35  2  0  0  0  0
 37 38  1  0  0  0  0
 37 31  1  0  0  0  0
M  END
>  <minimizedAffinity>
-5.13307381

$$$$

 OpenBabel03252505443D

 38 40  0  0  1  0  0  0  0  0999 V2000
   37.5760   28.5010   40.6970 C   0  0  1  0  0  0  0  0  0  0  0  0
   36.4390   28.4090   41.7700 C   0  0  0  0  0  0  0  0  0  0  0  0
   36.6060   27.4510   40.5940 C   0  0  2  0  0  0  0  0  0  0  0  0
   38.5840   28.3090   41.1670 H   0  0  0  0  0  0  0  0  0  0  0  0
   35.6570   29.1680   41.7020 H   0  0  0  0  0  0  0  0  0  0  0  0
   36.7220   28.0430   42.7700 H   0  0  0  0  0  0  0  0  0  0  0  0
   35.7280   27.4210   39.9500 H   0  0  0  0  0  0  0  0  0  0  0  0
   37.5400   29.7390   39.8950 C   0  0  0  0  0  0  0  0  0  0  0  0
   37.0020   29.6670   38.5970 C   0  0  0  0  0  0  0  0  0  0  0  0
   36.9590   30.8230   37.8280 C   0  0  0  0  0  0  0  0  0  0  0  0
   37.4380   31.9680   38.3680 N   0  0  0  0  0  0  0  0  0  0  0  0
   37.9430   32.0080   39.6040 C   0  0  0  0  0  0  0  0  0  0  0  0
   37.9770   30.8860   40.3280 N   0  0  0  0  0  0  0  0  0  0  0  0
   36.6220   28.7420   38.1810 H   0  0  0  0  0  0  0  0  0  0  0  0
   36.5460   30.7930   36.8180 H   0  0  0  0  0  0  0  0  0  0  0  0
   38.4220   33.3670   40.0230 C   0  0  0  0  0  0  0  0  0  0  0  0
   39.5940   33.7170   39.3700 F   0  0  0  0  0  0  0  0  0  0  0  0
   38.7570   33.3230   41.3980 F   0  0  0  0  0  0  0  0  0  0  0  0
   37.4100   34.2770   39.8900 F   0  0  0  0  0  0  0  0  0  0  0  0
   37.1430   26.0740   40.9220 C   0  0  0  0  0  0  0  0  0  0  0  0
   36.6550   24.9550   40.2940 C   0  0  0  0  0  0  0  0  0  0  0  0
   37.1390   23.6890   40.5540 C   0  0  0  0  0  0  0  0  0  0  0  0
   38.1250   23.5660   41.4580 N   0  0  0  0  0  0  0  0  0  0  0  0
   38.6170   24.6740   42.0870 C   0  0  0  0  0  0  0  0  0  0  0  0
   38.1320   25.8990   41.8220 N   0  0  0  0  0  0  0  0  0  0  0  0
   35.8670   25.0250   39.5670 H   0  0  0  0  0  0  0  0  0  0  0  0
   36.7600   22.8130   40.0640 H   0  0  0  0  0  0  0  0  0  0  0  0
   39.7250   24.5990   43.0910 C   0  0  0  0  0  0  0  0  0  0  0  0
   40.6510   24.1770   42.7000 H   0  0  0  0  0  0  0  0  0  0  0  0
   39.3980   23.9310   43.9140 H   0  0  0  0  0  0  0  0  0  0  0  0
   39.9890   25.9550   43.6790 C   0  0  0  0  0  0  0  0  0  0  0  0
   39.0600   26.5430   43.5770 H   0  0  0  0  0  0  0  0  0  0  0  0
   40.2740   25.9130   44.7430 H   0  0  0  0  0  0  0  0  0  0  0  0
   41.7620   28.4660   41.9140 H   0  0  0  0  0  0  0  0  0  0  0  0
   41.0050   27.9970   42.5210 C   0  0  0  0  0  0  0  0  0  0  0  0
   40.1050   28.7710   42.9200 O   0  0  0  0  0  0  0  0  0  0  0  0
   40.9860   26.6210   42.8670 N   0  0  0  0  0  0  0  0  0  0  0  0
   41.8180   26.1070   42.4480 H   0  0  0  0  0  0  0  0  0  0  0  0
  1  4  1  1  0  0  0
  1  2  1  0  0  0  0
  2  6  1  0  0  0  0
  3  7  1  6  0  0  0
  3  1  1  0  0  0  0
  3 20  1  0  0  0  0
  3  2  1  0  0  0  0
  5  2  1  0  0  0  0
  8 13  1  0  0  0  0
  8  1  1  0  0  0  0
  9  8  2  0  0  0  0
 10 11  2  0  0  0  0
 10  9  1  0  0  0  0
 11 12  1  0  0  0  0
 12 16  1  0  0  0  0
 12 13  2  0  0  0  0
 14  9  1  0  0  0  0
 15 10  1  0  0  0  0
 16 18  1  0  0  0  0
 17 16  1  0  0  0  0
 19 16  1  0  0  0  0
 20 25  1  0  0  0  0
 21 22  1  0  0  0  0
 21 20  2  0  0  0  0
 22 23  2  0  0  0  0
 23 24  1  0  0  0  0
 24 28  1  0  0  0  0
 25 24  2  0  0  0  0
 26 21  1  0  0  0  0
 27 22  1  0  0  0  0
 28 31  1  0  0  0  0
 28 30  1  0  0  0  0
 29 28  1  0  0  0  0
 31 33  1  0  0  0  0
 32 31  1  0  0  0  0
 34 35  1  0  0  0  0
 35 37  1  0  0  0  0
 35 36  2  0  0  0  0
 37 31  1  0  0  0  0
 38 37  1  0  0  0  0
M  END
>  <minimizedAffinity>
-5.09648275

$$$$

 OpenBabel03252505443D

 38 40  0  0  1  0  0  0  0  0999 V2000
   37.2290   28.0330   40.7040 C   0  0  1  0  0  0  0  0  0  0  0  0
   35.9710   28.9210   40.9830 C   0  0  0  0  0  0  0  0  0  0  0  0
   37.2290   28.8990   41.8460 C   0  0  2  0  0  0  0  0  0  0  0  0
   37.7340   28.3470   39.7430 H   0  0  0  0  0  0  0  0  0  0  0  0
   35.0890   28.3940   41.3540 H   0  0  0  0  0  0  0  0  0  0  0  0
   35.8170   29.7940   40.3280 H   0  0  0  0  0  0  0  0  0  0  0  0
   37.0220   28.6300   42.8810 H   0  0  0  0  0  0  0  0  0  0  0  0
   36.9620   26.5830   40.7660 C   0  0  0  0  0  0  0  0  0  0  0  0
   37.2440   25.9140   41.9710 C   0  0  0  0  0  0  0  0  0  0  0  0
   36.9970   24.5490   42.0490 C   0  0  0  0  0  0  0  0  0  0  0  0
   36.4950   23.9270   40.9570 N   0  0  0  0  0  0  0  0  0  0  0  0
   36.2360   24.5880   39.8250 C   0  0  0  0  0  0  0  0  0  0  0  0
   36.4800   25.9000   39.7690 N   0  0  0  0  0  0  0  0  0  0  0  0
   37.6460   26.4270   42.8360 H   0  0  0  0  0  0  0  0  0  0  0  0
   37.2080   24.0070   42.9730 H   0  0  0  0  0  0  0  0  0  0  0  0
   35.6830   23.7250   38.7290 C   0  0  0  0  0  0  0  0  0  0  0  0
   36.6850   23.2600   37.8930 F   0  0  0  0  0  0  0  0  0  0  0  0
   34.8470   24.5200   37.9080 F   0  0  0  0  0  0  0  0  0  0  0  0
   34.8950   22.7430   39.2630 F   0  0  0  0  0  0  0  0  0  0  0  0
   38.1480   30.0940   41.7210 C   0  0  0  0  0  0  0  0  0  0  0  0
   39.3900   30.0970   42.3070 C   0  0  0  0  0  0  0  0  0  0  0  0
   40.2620   31.1620   42.1920 C   0  0  0  0  0  0  0  0  0  0  0  0
   39.8620   32.2260   41.4760 N   0  0  0  0  0  0  0  0  0  0  0  0
   38.6290   32.2310   40.8880 C   0  0  0  0  0  0  0  0  0  0  0  0
   37.7940   31.1860   41.0120 N   0  0  0  0  0  0  0  0  0  0  0  0
   39.7340   29.2590   42.8850 H   0  0  0  0  0  0  0  0  0  0  0  0
   41.2320   31.1670   42.6480 H   0  0  0  0  0  0  0  0  0  0  0  0
   38.1400   33.3810   40.0660 C   0  0  0  0  0  0  0  0  0  0  0  0
   38.9310   33.9400   39.5660 H   0  0  0  0  0  0  0  0  0  0  0  0
   37.6310   34.0970   40.7450 H   0  0  0  0  0  0  0  0  0  0  0  0
   37.1300   32.9110   39.0590 C   0  0  0  0  0  0  0  0  0  0  0  0
   36.5420   32.1080   39.5360 H   0  0  0  0  0  0  0  0  0  0  0  0
   36.4470   33.7110   38.7300 H   0  0  0  0  0  0  0  0  0  0  0  0
   38.0990   30.6080   36.5450 H   0  0  0  0  0  0  0  0  0  0  0  0
   37.5550   31.0370   37.3700 C   0  0  0  0  0  0  0  0  0  0  0  0
   36.6190   30.3260   37.8030 O   0  0  0  0  0  0  0  0  0  0  0  0
   37.8370   32.3010   37.9530 N   0  0  0  0  0  0  0  0  0  0  0  0
   38.6600   32.7710   37.4690 H   0  0  0  0  0  0  0  0  0  0  0  0
  1  4  1  6  0  0  0
  1  8  1  0  0  0  0
  1  2  1  0  0  0  0
  1  3  1  0  0  0  0
  2  5  1  0  0  0  0
  2  3  1  0  0  0  0
  3  7  1  1  0  0  0
  6  2  1  0  0  0  0
  8  9  1  0  0  0  0
  9 10  2  0  0  0  0
  9 14  1  0  0  0  0
 10 15  1  0  0  0  0
 11 10  1  0  0  0  0
 12 11  2  0  0  0  0
 13 12  1  0  0  0  0
 13  8  2  0  0  0  0
 16 19  1  0  0  0  0
 16 12  1  0  0  0  0
 17 16  1  0  0  0  0
 18 16  1  0  0  0  0
 20  3  1  0  0  0  0
 20 21  1  0  0  0  0
 21 26  1  0  0  0  0
 22 21  2  0  0  0  0
 22 27  1  0  0  0  0
 23 22  1  0  0  0  0
 24 25  1  0  0  0  0
 24 23  2  0  0  0  0
 25 20  2  0  0  0  0
 28 30  1  0  0  0  0
 28 24  1  0  0  0  0
 29 28  1  0  0  0  0
 31 32  1  0  0  0  0
 31 28  1  0  0  0  0
 33 31  1  0  0  0  0
 34 35  1  0  0  0  0
 35 36  2  0  0  0  0
 35 37  1  0  0  0  0
 37 31  1  0  0  0  0
 38 37  1  0  0  0  0
M  END
>  <minimizedAffinity>
-5.06410408

$$$$
