
 OpenBabel03252506303D

 43 46  0  0  0  0  0  0  0  0999 V2000
   36.3810   29.3090   37.1490 C   0  0  0  0  0  0  0  0  0  0  0  0
   36.5000   28.2530   36.8360 H   0  0  0  0  0  0  0  0  0  0  0  0
   35.9050   29.8500   36.3290 H   0  0  0  0  0  0  0  0  0  0  0  0
   39.2890   31.2390   37.9270 C   0  0  0  0  0  0  0  0  0  0  0  0
   39.8310   29.9550   37.6950 C   0  0  0  0  0  0  0  0  0  0  0  0
   38.8330   29.1050   37.3850 C   0  0  0  0  0  0  0  0  0  0  0  0
   37.7130   29.8260   37.4210 N   0  0  0  0  0  0  0  0  0  0  0  0
   37.9690   31.0920   37.7410 N   0  0  0  0  0  0  0  0  0  0  0  0
   40.8820   29.7270   37.7640 H   0  0  0  0  0  0  0  0  0  0  0  0
   38.8770   28.0600   37.1500 H   0  0  0  0  0  0  0  0  0  0  0  0
   40.3740   34.2320   39.7070 C   0  0  0  0  0  0  0  0  0  0  0  0
   41.4970   34.6450   38.9900 C   0  0  0  0  0  0  0  0  0  0  0  0
   41.8630   33.8720   37.8910 C   0  0  0  0  0  0  0  0  0  0  0  0
   41.1240   32.7870   37.5880 N   0  0  0  0  0  0  0  0  0  0  0  0
   40.0560   32.4090   38.2840 C   0  0  0  0  0  0  0  0  0  0  0  0
   39.6800   33.1440   39.3570 N   0  0  0  0  0  0  0  0  0  0  0  0
   40.0970   34.8480   40.5660 H   0  0  0  0  0  0  0  0  0  0  0  0
   42.0740   35.5180   39.2510 H   0  0  0  0  0  0  0  0  0  0  0  0
   45.1640   33.9220   36.8980 H   0  0  0  0  0  0  0  0  0  0  0  0
   44.2600   33.7080   37.4410 C   0  0  0  0  0  0  0  0  0  0  0  0
   44.4220   32.9360   38.4390 O   0  0  0  0  0  0  0  0  0  0  0  0
   42.9890   34.2180   37.1080 N   0  0  0  0  0  0  0  0  0  0  0  0
   42.8750   34.8490   36.2840 H   0  0  0  0  0  0  0  0  0  0  0  0
   35.5540   29.3210   38.3860 C   0  0  0  0  0  0  0  0  0  0  0  0
   35.4580   30.3980   38.7090 H   0  0  0  0  0  0  0  0  0  0  0  0
   34.5130   29.0200   38.1280 H   0  0  0  0  0  0  0  0  0  0  0  0
   36.4340   27.2350   39.5970 C   0  0  0  0  0  0  0  0  0  0  0  0
   36.0620   28.5640   39.5210 C   0  0  0  0  0  0  0  0  0  0  0  0
   36.1850   29.3020   40.6920 C   0  0  0  0  0  0  0  0  0  0  0  0
   36.6460   28.7410   41.8510 C   0  0  0  0  0  0  0  0  0  0  0  0
   36.8660   29.1910   43.1020 N   0  0  0  0  0  0  0  0  0  0  0  0
   37.3360   28.2310   43.8970 C   0  0  0  0  0  0  0  0  0  0  0  0
   37.4470   27.0600   43.1700 C   0  0  0  0  0  0  0  0  0  0  0  0
   37.0100   27.4320   41.9180 C   0  0  0  0  0  0  0  0  0  0  0  0
   36.8940   26.6810   40.7560 C   0  0  0  0  0  0  0  0  0  0  0  0
   36.3210   26.6980   38.6550 H   0  0  0  0  0  0  0  0  0  0  0  0
   35.9270   30.3560   40.7700 H   0  0  0  0  0  0  0  0  0  0  0  0
   36.6980   30.1830   43.4490 H   0  0  0  0  0  0  0  0  0  0  0  0
   37.5990   28.3260   44.9620 H   0  0  0  0  0  0  0  0  0  0  0  0
   37.7910   26.0730   43.4730 H   0  0  0  0  0  0  0  0  0  0  0  0
   37.2670   25.2740   40.7620 C   0  0  0  0  0  0  0  0  0  0  0  0
   36.4470   24.3720   41.0590 O   0  0  0  0  0  0  0  0  0  0  0  0
   38.2540   24.9070   40.5160 H   0  0  0  0  0  0  0  0  0  0  0  0
  1  7  1  0  0  0  0
  1 24  1  0  0  0  0
  2  1  1  0  0  0  0
  3  1  1  0  0  0  0
  4 15  1  0  0  0  0
  5  9  1  0  0  0  0
  5  4  1  0  0  0  0
  6  7  1  0  0  0  0
  6  5  2  0  0  0  0
  7  8  1  0  0  0  0
  8  4  2  0  0  0  0
 10  6  1  0  0  0  0
 11 17  1  0  0  0  0
 12 18  1  0  0  0  0
 12 11  2  0  0  0  0
 13 12  1  0  0  0  0
 14 13  2  0  0  0  0
 14 15  1  0  0  0  0
 15 16  2  0  0  0  0
 16 11  1  0  0  0  0
 19 20  1  0  0  0  0
 20 21  2  0  0  0  0
 22 20  1  0  0  0  0
 22 13  1  0  0  0  0
 23 22  1  0  0  0  0
 24 25  1  0  0  0  0
 24 28  1  0  0  0  0
 26 24  1  0  0  0  0
 27 35  1  0  0  0  0
 28 27  2  0  0  0  0
 28 29  1  0  0  0  0
 29 37  1  0  0  0  0
 29 30  2  0  0  0  0
 30 34  1  0  0  0  0
 30 31  1  0  0  0  0
 31 38  1  0  0  0  0
 31 32  1  0  0  0  0
 32 39  1  0  0  0  0
 33 40  1  0  0  0  0
 33 32  2  0  0  0  0
 34 33  1  0  0  0  0
 35 41  1  0  0  0  0
 35 34  2  0  0  0  0
 36 27  1  0  0  0  0
 41 42  2  0  0  0  0
 43 41  1  0  0  0  0
M  END
>  <minimizedAffinity>
-6.43865156

$$$$

 OpenBabel03252506303D

 43 46  0  0  0  0  0  0  0  0999 V2000
   42.5110   27.6110   43.3290 C   0  0  0  0  0  0  0  0  0  0  0  0
   43.4880   27.4920   43.8380 H   0  0  0  0  0  0  0  0  0  0  0  0
   42.5610   27.0750   42.3800 H   0  0  0  0  0  0  0  0  0  0  0  0
   41.5140   30.8840   42.2940 C   0  0  0  0  0  0  0  0  0  0  0  0
   42.4680   31.1620   43.2970 C   0  0  0  0  0  0  0  0  0  0  0  0
   42.9410   30.0010   43.7890 C   0  0  0  0  0  0  0  0  0  0  0  0
   42.3090   29.0360   43.1220 N   0  0  0  0  0  0  0  0  0  0  0  0
   41.4610   29.5460   42.2330 N   0  0  0  0  0  0  0  0  0  0  0  0
   42.7500   32.1580   43.5970 H   0  0  0  0  0  0  0  0  0  0  0  0
   43.6710   29.8330   44.5560 H   0  0  0  0  0  0  0  0  0  0  0  0
   40.8280   33.8380   40.2660 C   0  0  0  0  0  0  0  0  0  0  0  0
   39.4450   33.7990   40.0950 C   0  0  0  0  0  0  0  0  0  0  0  0
   38.7660   32.7390   40.6910 C   0  0  0  0  0  0  0  0  0  0  0  0
   39.4720   31.8280   41.3870 N   0  0  0  0  0  0  0  0  0  0  0  0
   40.7920   31.8820   41.5390 C   0  0  0  0  0  0  0  0  0  0  0  0
   41.4750   32.9020   40.9690 N   0  0  0  0  0  0  0  0  0  0  0  0
   41.3490   34.6750   39.7940 H   0  0  0  0  0  0  0  0  0  0  0  0
   38.9000   34.5410   39.5330 H   0  0  0  0  0  0  0  0  0  0  0  0
   35.7550   31.7090   39.3630 H   0  0  0  0  0  0  0  0  0  0  0  0
   36.8100   31.8490   39.5260 C   0  0  0  0  0  0  0  0  0  0  0  0
   37.5510   31.2500   38.6830 O   0  0  0  0  0  0  0  0  0  0  0  0
   37.3610   32.6210   40.5670 N   0  0  0  0  0  0  0  0  0  0  0  0
   36.7370   33.1060   41.2500 H   0  0  0  0  0  0  0  0  0  0  0  0
   41.4640   27.0610   44.2310 C   0  0  0  0  0  0  0  0  0  0  0  0
   41.9020   26.1510   44.7330 H   0  0  0  0  0  0  0  0  0  0  0  0
   41.2930   27.7770   45.0680 H   0  0  0  0  0  0  0  0  0  0  0  0
   39.0380   27.3760   43.4520 C   0  0  0  0  0  0  0  0  0  0  0  0
   40.2090   26.6610   43.6110 C   0  0  0  0  0  0  0  0  0  0  0  0
   40.2060   25.3640   43.1090 C   0  0  0  0  0  0  0  0  0  0  0  0
   39.1060   24.8320   42.4970 C   0  0  0  0  0  0  0  0  0  0  0  0
   38.8160   23.6440   41.9300 N   0  0  0  0  0  0  0  0  0  0  0  0
   37.5710   23.6140   41.4560 C   0  0  0  0  0  0  0  0  0  0  0  0
   36.9660   24.8330   41.7020 C   0  0  0  0  0  0  0  0  0  0  0  0
   37.9570   25.5430   42.3440 C   0  0  0  0  0  0  0  0  0  0  0  0
   37.9420   26.8410   42.8380 C   0  0  0  0  0  0  0  0  0  0  0  0
   39.0870   28.3870   43.8590 H   0  0  0  0  0  0  0  0  0  0  0  0
   41.0620   24.6940   43.1690 H   0  0  0  0  0  0  0  0  0  0  0  0
   39.4730   22.8110   41.8530 H   0  0  0  0  0  0  0  0  0  0  0  0
   37.0790   22.7700   40.9480 H   0  0  0  0  0  0  0  0  0  0  0  0
   35.9640   25.1820   41.4650 H   0  0  0  0  0  0  0  0  0  0  0  0
   36.7430   27.6540   42.7070 C   0  0  0  0  0  0  0  0  0  0  0  0
   36.7990   28.8960   42.5310 O   0  0  0  0  0  0  0  0  0  0  0  0
   35.7360   27.2610   42.7500 H   0  0  0  0  0  0  0  0  0  0  0  0
  1  2  1  0  0  0  0
  1 24  1  0  0  0  0
  3  1  1  0  0  0  0
  4  5  1  0  0  0  0
  5  9  1  0  0  0  0
  5  6  2  0  0  0  0
  6 10  1  0  0  0  0
  7  1  1  0  0  0  0
  7  6  1  0  0  0  0
  8  4  2  0  0  0  0
  8  7  1  0  0  0  0
 11 16  1  0  0  0  0
 12 11  2  0  0  0  0
 12 13  1  0  0  0  0
 13 14  2  0  0  0  0
 14 15  1  0  0  0  0
 15  4  1  0  0  0  0
 16 15  2  0  0  0  0
 17 11  1  0  0  0  0
 18 12  1  0  0  0  0
 19 20  1  0  0  0  0
 20 22  1  0  0  0  0
 21 20  2  0  0  0  0
 22 13  1  0  0  0  0
 22 23  1  0  0  0  0
 24 25  1  0  0  0  0
 24 26  1  0  0  0  0
 27 28  1  0  0  0  0
 27 36  1  0  0  0  0
 28 24  1  0  0  0  0
 29 37  1  0  0  0  0
 29 28  2  0  0  0  0
 30 29  1  0  0  0  0
 31 30  1  0  0  0  0
 32 33  2  0  0  0  0
 32 31  1  0  0  0  0
 33 34  1  0  0  0  0
 34 30  2  0  0  0  0
 34 35  1  0  0  0  0
 35 27  2  0  0  0  0
 38 31  1  0  0  0  0
 39 32  1  0  0  0  0
 40 33  1  0  0  0  0
 41 43  1  0  0  0  0
 41 35  1  0  0  0  0
 42 41  2  0  0  0  0
M  END
>  <minimizedAffinity>
-6.21492147

$$$$

 OpenBabel03252506303D

 43 46  0  0  0  0  0  0  0  0999 V2000
   36.9230   30.4390   37.7910 C   0  0  0  0  0  0  0  0  0  0  0  0
   37.6390   29.6180   37.5890 H   0  0  0  0  0  0  0  0  0  0  0  0
   36.5280   30.7820   36.8330 H   0  0  0  0  0  0  0  0  0  0  0  0
   39.3530   32.6390   39.2180 C   0  0  0  0  0  0  0  0  0  0  0  0
   38.1360   33.2600   39.5770 C   0  0  0  0  0  0  0  0  0  0  0  0
   37.1110   32.5290   39.0970 C   0  0  0  0  0  0  0  0  0  0  0  0
   37.6640   31.4940   38.4660 N   0  0  0  0  0  0  0  0  0  0  0  0
   38.9910   31.5470   38.5300 N   0  0  0  0  0  0  0  0  0  0  0  0
   38.0740   34.1740   40.1440 H   0  0  0  0  0  0  0  0  0  0  0  0
   36.0560   32.7000   39.1790 H   0  0  0  0  0  0  0  0  0  0  0  0
   42.6330   34.2020   38.8930 C   0  0  0  0  0  0  0  0  0  0  0  0
   43.1740   34.0890   40.1740 C   0  0  0  0  0  0  0  0  0  0  0  0
   42.3850   33.4670   41.1380 C   0  0  0  0  0  0  0  0  0  0  0  0
   41.1650   33.0170   40.7850 N   0  0  0  0  0  0  0  0  0  0  0  0
   40.6670   33.1350   39.5580 C   0  0  0  0  0  0  0  0  0  0  0  0
   41.4140   33.7360   38.6030 N   0  0  0  0  0  0  0  0  0  0  0  0
   43.2620   34.6920   38.1460 H   0  0  0  0  0  0  0  0  0  0  0  0
   44.1540   34.4570   40.4340 H   0  0  0  0  0  0  0  0  0  0  0  0
   43.8920   31.9210   43.8270 H   0  0  0  0  0  0  0  0  0  0  0  0
   43.5060   32.1190   42.8420 C   0  0  0  0  0  0  0  0  0  0  0  0
   43.6840   31.1700   42.0130 O   0  0  0  0  0  0  0  0  0  0  0  0
   42.8550   33.3100   42.4640 N   0  0  0  0  0  0  0  0  0  0  0  0
   42.7180   34.0780   43.1580 H   0  0  0  0  0  0  0  0  0  0  0  0
   35.8580   29.9000   38.6790 C   0  0  0  0  0  0  0  0  0  0  0  0
   35.3790   30.7810   39.1940 H   0  0  0  0  0  0  0  0  0  0  0  0
   35.0420   29.4760   38.0490 H   0  0  0  0  0  0  0  0  0  0  0  0
   36.5850   27.6180   39.6040 C   0  0  0  0  0  0  0  0  0  0  0  0
   36.2770   28.9610   39.7090 C   0  0  0  0  0  0  0  0  0  0  0  0
   36.3760   29.5120   40.9810 C   0  0  0  0  0  0  0  0  0  0  0  0
   36.7560   28.7660   42.0620 C   0  0  0  0  0  0  0  0  0  0  0  0
   36.9360   29.0170   43.3730 N   0  0  0  0  0  0  0  0  0  0  0  0
   37.3240   27.9290   44.0360 C   0  0  0  0  0  0  0  0  0  0  0  0
   37.4190   26.8720   43.1500 C   0  0  0  0  0  0  0  0  0  0  0  0
   37.0590   27.4450   41.9500 C   0  0  0  0  0  0  0  0  0  0  0  0
   36.9660   26.8780   40.6850 C   0  0  0  0  0  0  0  0  0  0  0  0
   36.4940   27.2300   38.5890 H   0  0  0  0  0  0  0  0  0  0  0  0
   36.1610   30.5560   41.2020 H   0  0  0  0  0  0  0  0  0  0  0  0
   36.7950   29.9560   43.8560 H   0  0  0  0  0  0  0  0  0  0  0  0
   37.5400   27.8550   45.1140 H   0  0  0  0  0  0  0  0  0  0  0  0
   37.7030   25.8360   43.3170 H   0  0  0  0  0  0  0  0  0  0  0  0
   37.2750   25.4680   40.4980 C   0  0  0  0  0  0  0  0  0  0  0  0
   36.3940   24.5780   40.5860 O   0  0  0  0  0  0  0  0  0  0  0  0
   38.2620   25.0880   40.2740 H   0  0  0  0  0  0  0  0  0  0  0  0
  1  7  1  0  0  0  0
  1 24  1  0  0  0  0
  2  1  1  0  0  0  0
  3  1  1  0  0  0  0
  4 15  1  0  0  0  0
  4  5  1  0  0  0  0
  5  9  1  0  0  0  0
  6 10  1  0  0  0  0
  6  5  2  0  0  0  0
  7  8  1  0  0  0  0
  7  6  1  0  0  0  0
  8  4  2  0  0  0  0
 11 12  1  0  0  0  0
 12 18  1  0  0  0  0
 12 13  2  0  0  0  0
 13 22  1  0  0  0  0
 14 13  1  0  0  0  0
 15 14  2  0  0  0  0
 16 11  2  0  0  0  0
 16 15  1  0  0  0  0
 17 11  1  0  0  0  0
 20 19  1  0  0  0  0
 21 20  2  0  0  0  0
 22 20  1  0  0  0  0
 22 23  1  0  0  0  0
 24 25  1  0  0  0  0
 24 28  1  0  0  0  0
 26 24  1  0  0  0  0
 27 28  2  0  0  0  0
 27 35  1  0  0  0  0
 28 29  1  0  0  0  0
 29 37  1  0  0  0  0
 29 30  2  0  0  0  0
 30 31  1  0  0  0  0
 31 38  1  0  0  0  0
 31 32  1  0  0  0  0
 32 39  1  0  0  0  0
 33 40  1  0  0  0  0
 33 32  2  0  0  0  0
 34 30  1  0  0  0  0
 34 33  1  0  0  0  0
 35 34  2  0  0  0  0
 36 27  1  0  0  0  0
 41 42  2  0  0  0  0
 41 35  1  0  0  0  0
 43 41  1  0  0  0  0
M  END
>  <minimizedAffinity>
-6.16224813

$$$$

 OpenBabel03252506303D

 43 46  0  0  0  0  0  0  0  0999 V2000
   36.5870   29.1590   39.4150 C   0  0  0  0  0  0  0  0  0  0  0  0
   37.3910   28.4990   39.0300 H   0  0  0  0  0  0  0  0  0  0  0  0
   35.7900   29.1840   38.6700 H   0  0  0  0  0  0  0  0  0  0  0  0
   38.5900   32.1200   39.4600 C   0  0  0  0  0  0  0  0  0  0  0  0
   37.4770   32.4960   40.2450 C   0  0  0  0  0  0  0  0  0  0  0  0
   36.6190   31.4600   40.3170 C   0  0  0  0  0  0  0  0  0  0  0  0
   37.1730   30.4760   39.6090 N   0  0  0  0  0  0  0  0  0  0  0  0
   38.3400   30.8550   39.0950 N   0  0  0  0  0  0  0  0  0  0  0  0
   37.3630   33.4670   40.6980 H   0  0  0  0  0  0  0  0  0  0  0  0
   35.6770   31.3890   40.8250 H   0  0  0  0  0  0  0  0  0  0  0  0
   40.9350   34.9090   39.6210 C   0  0  0  0  0  0  0  0  0  0  0  0
   41.8530   34.6180   38.6120 C   0  0  0  0  0  0  0  0  0  0  0  0
   41.6430   33.4480   37.8870 C   0  0  0  0  0  0  0  0  0  0  0  0
   40.5820   32.6780   38.1940 N   0  0  0  0  0  0  0  0  0  0  0  0
   39.7170   32.9730   39.1600 C   0  0  0  0  0  0  0  0  0  0  0  0
   39.9000   34.1040   39.8810 N   0  0  0  0  0  0  0  0  0  0  0  0
   41.1120   35.8300   40.1830 H   0  0  0  0  0  0  0  0  0  0  0  0
   42.6960   35.2500   38.3840 H   0  0  0  0  0  0  0  0  0  0  0  0
   44.3260   31.8900   36.3840 H   0  0  0  0  0  0  0  0  0  0  0  0
   43.6110   32.2200   37.1170 C   0  0  0  0  0  0  0  0  0  0  0  0
   43.8200   31.7690   38.2880 O   0  0  0  0  0  0  0  0  0  0  0  0
   42.5250   33.0760   36.8450 N   0  0  0  0  0  0  0  0  0  0  0  0
   42.3690   33.4360   35.8780 H   0  0  0  0  0  0  0  0  0  0  0  0
   36.1270   28.5960   40.7130 C   0  0  0  0  0  0  0  0  0  0  0  0
   35.9910   29.4640   41.4200 H   0  0  0  0  0  0  0  0  0  0  0  0
   35.0980   28.1860   40.5850 H   0  0  0  0  0  0  0  0  0  0  0  0
   36.9490   26.2530   41.3640 C   0  0  0  0  0  0  0  0  0  0  0  0
   37.0070   27.6340   41.3590 C   0  0  0  0  0  0  0  0  0  0  0  0
   38.0540   28.2040   42.0730 C   0  0  0  0  0  0  0  0  0  0  0  0
   38.9710   27.4400   42.7390 C   0  0  0  0  0  0  0  0  0  0  0  0
   40.0590   27.7020   43.4910 N   0  0  0  0  0  0  0  0  0  0  0  0
   40.6360   26.5850   43.9300 C   0  0  0  0  0  0  0  0  0  0  0  0
   39.9210   25.4960   43.4670 C   0  0  0  0  0  0  0  0  0  0  0  0
   38.9080   26.0820   42.7390 C   0  0  0  0  0  0  0  0  0  0  0  0
   37.8680   25.4950   42.0300 C   0  0  0  0  0  0  0  0  0  0  0  0
   36.1130   25.8510   40.7910 H   0  0  0  0  0  0  0  0  0  0  0  0
   38.2150   29.2780   42.1500 H   0  0  0  0  0  0  0  0  0  0  0  0
   40.4390   28.6680   43.7260 H   0  0  0  0  0  0  0  0  0  0  0  0
   41.5350   26.5110   44.5620 H   0  0  0  0  0  0  0  0  0  0  0  0
   40.0840   24.4310   43.6150 H   0  0  0  0  0  0  0  0  0  0  0  0
   37.7440   24.0450   41.9910 C   0  0  0  0  0  0  0  0  0  0  0  0
   38.3050   23.3550   41.1060 O   0  0  0  0  0  0  0  0  0  0  0  0
   37.1740   23.4660   42.7050 H   0  0  0  0  0  0  0  0  0  0  0  0
  1  7  1  0  0  0  0
  1 24  1  0  0  0  0
  2  1  1  0  0  0  0
  3  1  1  0  0  0  0
  4  5  1  0  0  0  0
  5  6  2  0  0  0  0
  5  9  1  0  0  0  0
  6 10  1  0  0  0  0
  7  6  1  0  0  0  0
  8  4  2  0  0  0  0
  8  7  1  0  0  0  0
 11 16  1  0  0  0  0
 11 17  1  0  0  0  0
 12 11  2  0  0  0  0
 13 14  2  0  0  0  0
 13 12  1  0  0  0  0
 14 15  1  0  0  0  0
 15  4  1  0  0  0  0
 15 16  2  0  0  0  0
 18 12  1  0  0  0  0
 19 20  1  0  0  0  0
 20 21  2  0  0  0  0
 22 20  1  0  0  0  0
 22 13  1  0  0  0  0
 23 22  1  0  0  0  0
 24 28  1  0  0  0  0
 24 25  1  0  0  0  0
 26 24  1  0  0  0  0
 27 35  1  0  0  0  0
 28 27  2  0  0  0  0
 28 29  1  0  0  0  0
 29 37  1  0  0  0  0
 29 30  2  0  0  0  0
 30 34  1  0  0  0  0
 30 31  1  0  0  0  0
 31 38  1  0  0  0  0
 31 32  1  0  0  0  0
 32 39  1  0  0  0  0
 33 40  1  0  0  0  0
 33 32  2  0  0  0  0
 34 33  1  0  0  0  0
 35 34  2  0  0  0  0
 36 27  1  0  0  0  0
 41 35  1  0  0  0  0
 41 43  1  0  0  0  0
 42 41  2  0  0  0  0
M  END
>  <minimizedAffinity>
-6.16076279

$$$$

 OpenBabel03252506303D

 43 46  0  0  0  0  0  0  0  0999 V2000
   40.2300   31.6210   40.6810 C   0  0  0  0  0  0  0  0  0  0  0  0
   40.6230   32.6450   40.5220 H   0  0  0  0  0  0  0  0  0  0  0  0
   40.9550   30.9170   40.2700 H   0  0  0  0  0  0  0  0  0  0  0  0
   37.4250   30.8270   38.6110 C   0  0  0  0  0  0  0  0  0  0  0  0
   36.9550   31.9390   39.3450 C   0  0  0  0  0  0  0  0  0  0  0  0
   37.9230   32.3550   40.1840 C   0  0  0  0  0  0  0  0  0  0  0  0
   38.9570   31.5390   39.9830 N   0  0  0  0  0  0  0  0  0  0  0  0
   38.6750   30.6290   39.0540 N   0  0  0  0  0  0  0  0  0  0  0  0
   35.9700   32.3610   39.2280 H   0  0  0  0  0  0  0  0  0  0  0  0
   37.9150   33.1660   40.8850 H   0  0  0  0  0  0  0  0  0  0  0  0
   34.7550   28.8900   37.0540 C   0  0  0  0  0  0  0  0  0  0  0  0
   35.1900   28.7400   35.7380 C   0  0  0  0  0  0  0  0  0  0  0  0
   36.4130   29.3180   35.4080 C   0  0  0  0  0  0  0  0  0  0  0  0
   37.0950   29.9790   36.3640 N   0  0  0  0  0  0  0  0  0  0  0  0
   36.6640   30.1110   37.6140 C   0  0  0  0  0  0  0  0  0  0  0  0
   35.4780   29.5590   37.9600 N   0  0  0  0  0  0  0  0  0  0  0  0
   33.7940   28.4320   37.3000 H   0  0  0  0  0  0  0  0  0  0  0  0
   34.6270   28.2070   34.9890 H   0  0  0  0  0  0  0  0  0  0  0  0
   36.9580   30.1870   32.1160 H   0  0  0  0  0  0  0  0  0  0  0  0
   36.6070   30.1930   33.1340 C   0  0  0  0  0  0  0  0  0  0  0  0
   35.8520   31.1770   33.4190 O   0  0  0  0  0  0  0  0  0  0  0  0
   36.9300   29.2150   34.0950 N   0  0  0  0  0  0  0  0  0  0  0  0
   37.5510   28.4140   33.8430 H   0  0  0  0  0  0  0  0  0  0  0  0
   40.0350   31.4370   42.1450 C   0  0  0  0  0  0  0  0  0  0  0  0
   40.9870   31.7710   42.6500 H   0  0  0  0  0  0  0  0  0  0  0  0
   39.2680   32.1620   42.5020 H   0  0  0  0  0  0  0  0  0  0  0  0
   38.5500   29.5420   43.0380 C   0  0  0  0  0  0  0  0  0  0  0  0
   39.7440   30.0860   42.6020 C   0  0  0  0  0  0  0  0  0  0  0  0
   40.8380   29.2290   42.5930 C   0  0  0  0  0  0  0  0  0  0  0  0
   40.7350   27.9260   42.9930 C   0  0  0  0  0  0  0  0  0  0  0  0
   41.5940   26.8920   43.0910 N   0  0  0  0  0  0  0  0  0  0  0  0
   40.9950   25.7930   43.5470 C   0  0  0  0  0  0  0  0  0  0  0  0
   39.6610   26.0720   43.7790 C   0  0  0  0  0  0  0  0  0  0  0  0
   39.5570   27.3980   43.4210 C   0  0  0  0  0  0  0  0  0  0  0  0
   38.4530   28.2410   43.4360 C   0  0  0  0  0  0  0  0  0  0  0  0
   37.7210   30.2510   43.0280 H   0  0  0  0  0  0  0  0  0  0  0  0
   41.8350   29.5290   42.2740 H   0  0  0  0  0  0  0  0  0  0  0  0
   42.6290   26.9120   42.8420 H   0  0  0  0  0  0  0  0  0  0  0  0
   41.4610   24.8110   43.7210 H   0  0  0  0  0  0  0  0  0  0  0  0
   38.8620   25.4340   44.1500 H   0  0  0  0  0  0  0  0  0  0  0  0
   37.1630   27.7370   43.8840 C   0  0  0  0  0  0  0  0  0  0  0  0
   36.3140   27.2810   43.0800 O   0  0  0  0  0  0  0  0  0  0  0  0
   36.8450   27.7170   44.9170 H   0  0  0  0  0  0  0  0  0  0  0  0
  1 24  1  0  0  0  0
  2  1  1  0  0  0  0
  3  1  1  0  0  0  0
  4  8  2  0  0  0  0
  4  5  1  0  0  0  0
  5  6  2  0  0  0  0
  6 10  1  0  0  0  0
  7  6  1  0  0  0  0
  7  1  1  0  0  0  0
  8  7  1  0  0  0  0
  9  5  1  0  0  0  0
 11 17  1  0  0  0  0
 11 16  1  0  0  0  0
 12 11  2  0  0  0  0
 13 12  1  0  0  0  0
 13 14  2  0  0  0  0
 14 15  1  0  0  0  0
 15 16  2  0  0  0  0
 15  4  1  0  0  0  0
 18 12  1  0  0  0  0
 19 20  1  0  0  0  0
 20 21  2  0  0  0  0
 20 22  1  0  0  0  0
 22 13  1  0  0  0  0
 23 22  1  0  0  0  0
 24 26  1  0  0  0  0
 24 28  1  0  0  0  0
 24 25  1  0  0  0  0
 27 35  1  0  0  0  0
 28 27  2  0  0  0  0
 29 28  1  0  0  0  0
 29 30  2  0  0  0  0
 30 31  1  0  0  0  0
 30 34  1  0  0  0  0
 31 32  1  0  0  0  0
 32 39  1  0  0  0  0
 32 33  2  0  0  0  0
 33 40  1  0  0  0  0
 34 35  2  0  0  0  0
 34 33  1  0  0  0  0
 35 41  1  0  0  0  0
 36 27  1  0  0  0  0
 37 29  1  0  0  0  0
 38 31  1  0  0  0  0
 41 43  1  0  0  0  0
 42 41  2  0  0  0  0
M  END
>  <minimizedAffinity>
-6.14402056

$$$$

 OpenBabel03252506303D

 43 46  0  0  0  0  0  0  0  0999 V2000
   37.7390   31.6650   38.3170 C   0  0  0  0  0  0  0  0  0  0  0  0
   38.1910   30.6880   38.0550 H   0  0  0  0  0  0  0  0  0  0  0  0
   37.3650   32.1190   37.3980 H   0  0  0  0  0  0  0  0  0  0  0  0
   40.7750   33.2600   39.3270 C   0  0  0  0  0  0  0  0  0  0  0  0
   39.8110   33.9060   40.1330 C   0  0  0  0  0  0  0  0  0  0  0  0
   38.5950   33.4000   39.8570 C   0  0  0  0  0  0  0  0  0  0  0  0
   38.7880   32.4740   38.9180 N   0  0  0  0  0  0  0  0  0  0  0  0
   40.0750   32.3820   38.5950 N   0  0  0  0  0  0  0  0  0  0  0  0
   40.0470   34.6800   40.8450 H   0  0  0  0  0  0  0  0  0  0  0  0
   37.6400   33.6520   40.2750 H   0  0  0  0  0  0  0  0  0  0  0  0
   44.0930   34.1440   40.5570 C   0  0  0  0  0  0  0  0  0  0  0  0
   44.8890   34.0820   39.4130 C   0  0  0  0  0  0  0  0  0  0  0  0
   44.2560   33.7300   38.2230 C   0  0  0  0  0  0  0  0  0  0  0  0
   42.9340   33.4750   38.2440 N   0  0  0  0  0  0  0  0  0  0  0  0
   42.1920   33.5400   39.3450 C   0  0  0  0  0  0  0  0  0  0  0  0
   42.7830   33.8800   40.5150 N   0  0  0  0  0  0  0  0  0  0  0  0
   44.6020   34.4220   41.4830 H   0  0  0  0  0  0  0  0  0  0  0  0
   45.9470   34.2900   39.4200 H   0  0  0  0  0  0  0  0  0  0  0  0
   46.2020   32.2860   35.7700 H   0  0  0  0  0  0  0  0  0  0  0  0
   45.6280   32.4350   36.6680 C   0  0  0  0  0  0  0  0  0  0  0  0
   45.5660   31.4120   37.4220 O   0  0  0  0  0  0  0  0  0  0  0  0
   44.9880   33.6410   37.0150 N   0  0  0  0  0  0  0  0  0  0  0  0
   45.0500   34.4700   36.3840 H   0  0  0  0  0  0  0  0  0  0  0  0
   36.6520   31.4080   39.3000 C   0  0  0  0  0  0  0  0  0  0  0  0
   36.6630   32.2610   40.0380 H   0  0  0  0  0  0  0  0  0  0  0  0
   35.6680   31.5060   38.7860 H   0  0  0  0  0  0  0  0  0  0  0  0
   36.6470   28.8600   39.6210 C   0  0  0  0  0  0  0  0  0  0  0  0
   36.7340   30.1680   40.0590 C   0  0  0  0  0  0  0  0  0  0  0  0
   36.9290   30.3440   41.4230 C   0  0  0  0  0  0  0  0  0  0  0  0
   37.0280   29.2820   42.2790 C   0  0  0  0  0  0  0  0  0  0  0  0
   37.2120   29.1460   43.6070 N   0  0  0  0  0  0  0  0  0  0  0  0
   37.2390   27.8660   43.9740 C   0  0  0  0  0  0  0  0  0  0  0  0
   37.0660   27.0740   42.8540 C   0  0  0  0  0  0  0  0  0  0  0  0
   36.9410   27.9980   41.8400 C   0  0  0  0  0  0  0  0  0  0  0  0
   36.7470   27.8040   40.4790 C   0  0  0  0  0  0  0  0  0  0  0  0
   36.4940   28.7720   38.5450 H   0  0  0  0  0  0  0  0  0  0  0  0
   37.0150   31.3200   41.8990 H   0  0  0  0  0  0  0  0  0  0  0  0
   37.3260   29.9400   44.3070 H   0  0  0  0  0  0  0  0  0  0  0  0
   37.3750   27.4750   44.9940 H   0  0  0  0  0  0  0  0  0  0  0  0
   37.0310   25.9910   42.7560 H   0  0  0  0  0  0  0  0  0  0  0  0
   36.6450   26.4540   39.9450 C   0  0  0  0  0  0  0  0  0  0  0  0
   37.6550   25.8100   39.5730 O   0  0  0  0  0  0  0  0  0  0  0  0
   35.7140   25.9150   39.8340 H   0  0  0  0  0  0  0  0  0  0  0  0
  1  7  1  0  0  0  0
  1 24  1  0  0  0  0
  2  1  1  0  0  0  0
  3  1  1  0  0  0  0
  4 15  1  0  0  0  0
  4  5  1  0  0  0  0
  5  9  1  0  0  0  0
  6  5  2  0  0  0  0
  6 10  1  0  0  0  0
  7  6  1  0  0  0  0
  8  7  1  0  0  0  0
  8  4  2  0  0  0  0
 11 17  1  0  0  0  0
 12 18  1  0  0  0  0
 12 11  2  0  0  0  0
 13 14  2  0  0  0  0
 13 12  1  0  0  0  0
 14 15  1  0  0  0  0
 15 16  2  0  0  0  0
 16 11  1  0  0  0  0
 19 20  1  0  0  0  0
 20 22  1  0  0  0  0
 20 21  2  0  0  0  0
 22 13  1  0  0  0  0
 23 22  1  0  0  0  0
 24 25  1  0  0  0  0
 24 28  1  0  0  0  0
 26 24  1  0  0  0  0
 27 28  2  0  0  0  0
 27 35  1  0  0  0  0
 28 29  1  0  0  0  0
 29 37  1  0  0  0  0
 29 30  2  0  0  0  0
 30 31  1  0  0  0  0
 31 32  1  0  0  0  0
 31 38  1  0  0  0  0
 32 39  1  0  0  0  0
 33 32  2  0  0  0  0
 34 30  1  0  0  0  0
 34 33  1  0  0  0  0
 35 34  2  0  0  0  0
 36 27  1  0  0  0  0
 40 33  1  0  0  0  0
 41 35  1  0  0  0  0
 42 41  2  0  0  0  0
 43 41  1  0  0  0  0
M  END
>  <minimizedAffinity>
-6.13911724

$$$$

 OpenBabel03252506303D

 43 46  0  0  0  0  0  0  0  0999 V2000
   36.2450   30.6200   41.1680 C   0  0  0  0  0  0  0  0  0  0  0  0
   35.3400   31.2590   41.2050 H   0  0  0  0  0  0  0  0  0  0  0  0
   36.7220   30.6570   42.1480 H   0  0  0  0  0  0  0  0  0  0  0  0
   38.7680   32.2430   39.2240 C   0  0  0  0  0  0  0  0  0  0  0  0
   37.9450   31.6670   38.2310 C   0  0  0  0  0  0  0  0  0  0  0  0
   36.9320   31.0090   38.8250 C   0  0  0  0  0  0  0  0  0  0  0  0
   37.1120   31.1670   40.1360 N   0  0  0  0  0  0  0  0  0  0  0  0
   38.1970   31.8960   40.3860 N   0  0  0  0  0  0  0  0  0  0  0  0
   38.1290   31.7590   37.1730 H   0  0  0  0  0  0  0  0  0  0  0  0
   36.1240   30.4590   38.3840 H   0  0  0  0  0  0  0  0  0  0  0  0
   41.2470   34.9110   39.4360 C   0  0  0  0  0  0  0  0  0  0  0  0
   42.2050   34.5380   38.4930 C   0  0  0  0  0  0  0  0  0  0  0  0
   41.9740   33.3560   37.7940 C   0  0  0  0  0  0  0  0  0  0  0  0
   40.8570   32.6530   38.0620 N   0  0  0  0  0  0  0  0  0  0  0  0
   39.9550   33.0250   38.9650 C   0  0  0  0  0  0  0  0  0  0  0  0
   40.1560   34.1700   39.6580 N   0  0  0  0  0  0  0  0  0  0  0  0
   41.4400   35.8400   39.9770 H   0  0  0  0  0  0  0  0  0  0  0  0
   43.0930   35.1170   38.2950 H   0  0  0  0  0  0  0  0  0  0  0  0
   44.6590   31.6160   36.5070 H   0  0  0  0  0  0  0  0  0  0  0  0
   43.9210   32.0080   37.1850 C   0  0  0  0  0  0  0  0  0  0  0  0
   44.0430   31.5950   38.3820 O   0  0  0  0  0  0  0  0  0  0  0  0
   42.8950   32.9020   36.8200 N   0  0  0  0  0  0  0  0  0  0  0  0
   42.8100   33.2300   35.8320 H   0  0  0  0  0  0  0  0  0  0  0  0
   35.8090   29.2440   40.8070 C   0  0  0  0  0  0  0  0  0  0  0  0
   34.7790   29.0970   41.2430 H   0  0  0  0  0  0  0  0  0  0  0  0
   35.6480   29.1920   39.7050 H   0  0  0  0  0  0  0  0  0  0  0  0
   37.4880   28.0870   42.3670 C   0  0  0  0  0  0  0  0  0  0  0  0
   36.6450   28.1470   41.2740 C   0  0  0  0  0  0  0  0  0  0  0  0
   36.5730   26.9990   40.4940 C   0  0  0  0  0  0  0  0  0  0  0  0
   37.2960   25.8790   40.7950 C   0  0  0  0  0  0  0  0  0  0  0  0
   37.4260   24.6560   40.2420 N   0  0  0  0  0  0  0  0  0  0  0  0
   38.2760   23.8930   40.9270 C   0  0  0  0  0  0  0  0  0  0  0  0
   38.7600   24.6130   42.0040 C   0  0  0  0  0  0  0  0  0  0  0  0
   38.1230   25.8270   41.8730 C   0  0  0  0  0  0  0  0  0  0  0  0
   38.2060   26.9660   42.6640 C   0  0  0  0  0  0  0  0  0  0  0  0
   37.5110   29.0100   42.9490 H   0  0  0  0  0  0  0  0  0  0  0  0
   35.9490   26.9130   39.6060 H   0  0  0  0  0  0  0  0  0  0  0  0
   36.9290   24.3080   39.3680 H   0  0  0  0  0  0  0  0  0  0  0  0
   38.5650   22.8550   40.6960 H   0  0  0  0  0  0  0  0  0  0  0  0
   39.4660   24.3280   42.7810 H   0  0  0  0  0  0  0  0  0  0  0  0
   39.0750   26.9750   43.8320 C   0  0  0  0  0  0  0  0  0  0  0  0
   40.3000   27.2320   43.7450 O   0  0  0  0  0  0  0  0  0  0  0  0
   38.7390   26.7690   44.8380 H   0  0  0  0  0  0  0  0  0  0  0  0
  1  2  1  0  0  0  0
  1  3  1  0  0  0  0
  4  8  2  0  0  0  0
  5  6  2  0  0  0  0
  5  4  1  0  0  0  0
  6  7  1  0  0  0  0
  7  8  1  0  0  0  0
  7  1  1  0  0  0  0
  9  5  1  0  0  0  0
 10  6  1  0  0  0  0
 11 16  1  0  0  0  0
 11 17  1  0  0  0  0
 12 11  2  0  0  0  0
 13 14  2  0  0  0  0
 13 12  1  0  0  0  0
 14 15  1  0  0  0  0
 15  4  1  0  0  0  0
 15 16  2  0  0  0  0
 18 12  1  0  0  0  0
 19 20  1  0  0  0  0
 20 21  2  0  0  0  0
 22 20  1  0  0  0  0
 22 13  1  0  0  0  0
 23 22  1  0  0  0  0
 24  1  1  0  0  0  0
 24 25  1  0  0  0  0
 24 28  1  0  0  0  0
 26 24  1  0  0  0  0
 27 35  1  0  0  0  0
 27 36  1  0  0  0  0
 28 27  2  0  0  0  0
 29 30  2  0  0  0  0
 29 28  1  0  0  0  0
 30 34  1  0  0  0  0
 31 30  1  0  0  0  0
 31 32  1  0  0  0  0
 32 33  2  0  0  0  0
 33 40  1  0  0  0  0
 34 33  1  0  0  0  0
 34 35  2  0  0  0  0
 35 41  1  0  0  0  0
 37 29  1  0  0  0  0
 38 31  1  0  0  0  0
 39 32  1  0  0  0  0
 41 43  1  0  0  0  0
 42 41  2  0  0  0  0
M  END
>  <minimizedAffinity>
-6.01027536

$$$$

 OpenBabel03252506303D

 43 46  0  0  0  0  0  0  0  0999 V2000
   35.5870   29.6420   39.4730 C   0  0  0  0  0  0  0  0  0  0  0  0
   35.6690   28.8460   38.7060 H   0  0  0  0  0  0  0  0  0  0  0  0
   34.7090   30.2440   39.2370 H   0  0  0  0  0  0  0  0  0  0  0  0
   38.7810   31.0790   38.7570 C   0  0  0  0  0  0  0  0  0  0  0  0
   38.2830   31.9360   39.7640 C   0  0  0  0  0  0  0  0  0  0  0  0
   37.0610   31.5110   40.1390 C   0  0  0  0  0  0  0  0  0  0  0  0
   36.8060   30.4320   39.4000 N   0  0  0  0  0  0  0  0  0  0  0  0
   37.8170   30.1660   38.5760 N   0  0  0  0  0  0  0  0  0  0  0  0
   38.8210   32.7880   40.1470 H   0  0  0  0  0  0  0  0  0  0  0  0
   36.3940   31.9170   40.8730 H   0  0  0  0  0  0  0  0  0  0  0  0
   41.9810   30.2200   37.2300 C   0  0  0  0  0  0  0  0  0  0  0  0
   42.5140   31.4600   36.8780 C   0  0  0  0  0  0  0  0  0  0  0  0
   41.7480   32.5840   37.1780 C   0  0  0  0  0  0  0  0  0  0  0  0
   40.5570   32.4130   37.7820 N   0  0  0  0  0  0  0  0  0  0  0  0
   40.0650   31.2220   38.1100 C   0  0  0  0  0  0  0  0  0  0  0  0
   40.7900   30.1140   37.8280 N   0  0  0  0  0  0  0  0  0  0  0  0
   42.5910   29.3460   36.9890 H   0  0  0  0  0  0  0  0  0  0  0  0
   43.4720   31.5730   36.3950 H   0  0  0  0  0  0  0  0  0  0  0  0
   43.1410   35.6950   37.6990 H   0  0  0  0  0  0  0  0  0  0  0  0
   42.7660   34.6990   37.8610 C   0  0  0  0  0  0  0  0  0  0  0  0
   42.8580   34.2980   39.0650 O   0  0  0  0  0  0  0  0  0  0  0  0
   42.2130   33.8810   36.8560 N   0  0  0  0  0  0  0  0  0  0  0  0
   42.1450   34.2280   35.8730 H   0  0  0  0  0  0  0  0  0  0  0  0
   35.4750   28.9780   40.7990 C   0  0  0  0  0  0  0  0  0  0  0  0
   35.5880   29.7810   41.5830 H   0  0  0  0  0  0  0  0  0  0  0  0
   34.4310   28.6120   40.9340 H   0  0  0  0  0  0  0  0  0  0  0  0
   36.7680   26.8010   40.3720 C   0  0  0  0  0  0  0  0  0  0  0  0
   36.4460   27.9340   41.0950 C   0  0  0  0  0  0  0  0  0  0  0  0
   37.1440   28.1210   42.2820 C   0  0  0  0  0  0  0  0  0  0  0  0
   38.0920   27.2320   42.7070 C   0  0  0  0  0  0  0  0  0  0  0  0
   38.9050   27.1500   43.7790 N   0  0  0  0  0  0  0  0  0  0  0  0
   39.6720   26.0620   43.7350 C   0  0  0  0  0  0  0  0  0  0  0  0
   39.3820   25.3530   42.5840 C   0  0  0  0  0  0  0  0  0  0  0  0
   38.4030   26.1190   41.9900 C   0  0  0  0  0  0  0  0  0  0  0  0
   37.7160   25.9180   40.8000 C   0  0  0  0  0  0  0  0  0  0  0  0
   36.1960   26.6980   39.4490 H   0  0  0  0  0  0  0  0  0  0  0  0
   36.9880   28.9700   42.9450 H   0  0  0  0  0  0  0  0  0  0  0  0
   38.9560   27.8490   44.5800 H   0  0  0  0  0  0  0  0  0  0  0  0
   40.4210   25.7530   44.4800 H   0  0  0  0  0  0  0  0  0  0  0  0
   39.7990   24.4220   42.2070 H   0  0  0  0  0  0  0  0  0  0  0  0
   38.0020   24.7450   39.9860 C   0  0  0  0  0  0  0  0  0  0  0  0
   37.0940   23.9700   39.5990 O   0  0  0  0  0  0  0  0  0  0  0  0
   38.9930   24.4610   39.6610 H   0  0  0  0  0  0  0  0  0  0  0  0
  1 24  1  0  0  0  0
  2  1  1  0  0  0  0
  3  1  1  0  0  0  0
  4  5  1  0  0  0  0
  5  6  2  0  0  0  0
  5  9  1  0  0  0  0
  6 10  1  0  0  0  0
  7  1  1  0  0  0  0
  7  6  1  0  0  0  0
  8  4  2  0  0  0  0
  8  7  1  0  0  0  0
 11 16  1  0  0  0  0
 12 13  1  0  0  0  0
 12 11  2  0  0  0  0
 13 14  2  0  0  0  0
 14 15  1  0  0  0  0
 15  4  1  0  0  0  0
 16 15  2  0  0  0  0
 17 11  1  0  0  0  0
 18 12  1  0  0  0  0
 19 20  1  0  0  0  0
 20 21  2  0  0  0  0
 22 13  1  0  0  0  0
 22 20  1  0  0  0  0
 23 22  1  0  0  0  0
 24 26  1  0  0  0  0
 24 28  1  0  0  0  0
 24 25  1  0  0  0  0
 27 35  2  0  0  0  0
 27 28  1  0  0  0  0
 28 29  2  0  0  0  0
 29 30  1  0  0  0  0
 29 37  1  0  0  0  0
 30 31  1  0  0  0  0
 31 38  1  0  0  0  0
 32 31  1  0  0  0  0
 32 39  1  0  0  0  0
 33 32  2  0  0  0  0
 34 33  1  0  0  0  0
 34 30  2  0  0  0  0
 35 34  1  0  0  0  0
 36 27  1  0  0  0  0
 40 33  1  0  0  0  0
 41 35  1  0  0  0  0
 42 41  2  0  0  0  0
 43 41  1  0  0  0  0
M  END
>  <minimizedAffinity>
-5.99254513

$$$$

 OpenBabel03252506303D

 43 46  0  0  0  0  0  0  0  0999 V2000
   38.4720   27.1490   43.7610 C   0  0  0  0  0  0  0  0  0  0  0  0
   38.2100   27.4990   44.7800 H   0  0  0  0  0  0  0  0  0  0  0  0
   38.9430   26.1700   43.8550 H   0  0  0  0  0  0  0  0  0  0  0  0
   40.0930   29.9550   42.2520 C   0  0  0  0  0  0  0  0  0  0  0  0
   41.1790   29.0990   42.5430 C   0  0  0  0  0  0  0  0  0  0  0  0
   40.7120   27.9790   43.1270 C   0  0  0  0  0  0  0  0  0  0  0  0
   39.3900   28.1260   43.1980 N   0  0  0  0  0  0  0  0  0  0  0  0
   39.0100   29.2930   42.6830 N   0  0  0  0  0  0  0  0  0  0  0  0
   42.2060   29.3380   42.3210 H   0  0  0  0  0  0  0  0  0  0  0  0
   41.2490   27.1200   43.4800 H   0  0  0  0  0  0  0  0  0  0  0  0
   41.5610   32.9140   40.7040 C   0  0  0  0  0  0  0  0  0  0  0  0
   40.4530   33.7150   40.4230 C   0  0  0  0  0  0  0  0  0  0  0  0
   39.2050   33.2100   40.7770 C   0  0  0  0  0  0  0  0  0  0  0  0
   39.1380   31.9990   41.3620 N   0  0  0  0  0  0  0  0  0  0  0  0
   40.2060   31.2500   41.6220 C   0  0  0  0  0  0  0  0  0  0  0  0
   41.4310   31.7180   41.2870 N   0  0  0  0  0  0  0  0  0  0  0  0
   42.5340   33.3220   40.4210 H   0  0  0  0  0  0  0  0  0  0  0  0
   40.5310   34.6820   39.9530 H   0  0  0  0  0  0  0  0  0  0  0  0
   36.2680   34.1050   39.2070 H   0  0  0  0  0  0  0  0  0  0  0  0
   37.1790   33.5930   39.4630 C   0  0  0  0  0  0  0  0  0  0  0  0
   37.4470   32.6020   38.7110 O   0  0  0  0  0  0  0  0  0  0  0  0
   38.0280   33.9550   40.5270 N   0  0  0  0  0  0  0  0  0  0  0  0
   37.7920   34.7720   41.1340 H   0  0  0  0  0  0  0  0  0  0  0  0
   37.2150   27.0950   42.9670 C   0  0  0  0  0  0  0  0  0  0  0  0
   36.3910   26.7830   43.6720 H   0  0  0  0  0  0  0  0  0  0  0  0
   36.9350   28.1290   42.6610 H   0  0  0  0  0  0  0  0  0  0  0  0
   36.8030   26.4070   40.5280 C   0  0  0  0  0  0  0  0  0  0  0  0
   37.1940   26.1810   41.8340 C   0  0  0  0  0  0  0  0  0  0  0  0
   37.6370   24.8970   42.1250 C   0  0  0  0  0  0  0  0  0  0  0  0
   37.6810   23.9170   41.1730 C   0  0  0  0  0  0  0  0  0  0  0  0
   38.0500   22.6210   41.1590 N   0  0  0  0  0  0  0  0  0  0  0  0
   37.9050   22.0780   39.9520 C   0  0  0  0  0  0  0  0  0  0  0  0
   37.4120   23.0360   39.0850 C   0  0  0  0  0  0  0  0  0  0  0  0
   37.2940   24.1470   39.8900 C   0  0  0  0  0  0  0  0  0  0  0  0
   36.8490   25.4260   39.5810 C   0  0  0  0  0  0  0  0  0  0  0  0
   36.4640   27.4280   40.3470 H   0  0  0  0  0  0  0  0  0  0  0  0
   37.9740   24.5850   43.1130 H   0  0  0  0  0  0  0  0  0  0  0  0
   38.4180   22.0660   41.9910 H   0  0  0  0  0  0  0  0  0  0  0  0
   38.1320   21.0400   39.6630 H   0  0  0  0  0  0  0  0  0  0  0  0
   37.1680   22.9690   38.0270 H   0  0  0  0  0  0  0  0  0  0  0  0
   36.4200   25.7370   38.2250 C   0  0  0  0  0  0  0  0  0  0  0  0
   35.2140   25.6790   37.8810 O   0  0  0  0  0  0  0  0  0  0  0  0
   37.0900   26.0360   37.4310 H   0  0  0  0  0  0  0  0  0  0  0  0
  1  3  1  0  0  0  0
  1  2  1  0  0  0  0
  4  5  1  0  0  0  0
  4  8  2  0  0  0  0
  5  6  2  0  0  0  0
  6  7  1  0  0  0  0
  6 10  1  0  0  0  0
  7  1  1  0  0  0  0
  8  7  1  0  0  0  0
  9  5  1  0  0  0  0
 11 16  1  0  0  0  0
 12 11  2  0  0  0  0
 12 13  1  0  0  0  0
 13 14  2  0  0  0  0
 14 15  1  0  0  0  0
 15  4  1  0  0  0  0
 16 15  2  0  0  0  0
 17 11  1  0  0  0  0
 18 12  1  0  0  0  0
 19 20  1  0  0  0  0
 20 22  1  0  0  0  0
 21 20  2  0  0  0  0
 22 13  1  0  0  0  0
 22 23  1  0  0  0  0
 24 25  1  0  0  0  0
 24  1  1  0  0  0  0
 26 24  1  0  0  0  0
 27 28  1  0  0  0  0
 28 29  2  0  0  0  0
 28 24  1  0  0  0  0
 29 37  1  0  0  0  0
 30 29  1  0  0  0  0
 31 30  1  0  0  0  0
 31 38  1  0  0  0  0
 32 31  1  0  0  0  0
 33 34  1  0  0  0  0
 33 32  2  0  0  0  0
 34 30  2  0  0  0  0
 35 34  1  0  0  0  0
 35 27  2  0  0  0  0
 36 27  1  0  0  0  0
 39 32  1  0  0  0  0
 40 33  1  0  0  0  0
 41 35  1  0  0  0  0
 42 41  2  0  0  0  0
 43 41  1  0  0  0  0
M  END
>  <minimizedAffinity>
-5.97554874

$$$$
