
 OpenBabel03252507063D

 20 20  0  0  0  0  0  0  0  0999 V2000
   44.7190   35.3240   44.7860 C   0  0  0  0  0  0  0  0  0  0  0  0
   45.2310   35.5170   43.4920 C   0  0  0  0  0  0  0  0  0  0  0  0
   46.3510   34.7580   43.1380 C   0  0  0  0  0  0  0  0  0  0  0  0
   46.8880   33.8820   44.0410 N   0  0  0  0  0  0  0  0  0  0  0  0
   46.3540   33.7340   45.2780 C   0  0  0  0  0  0  0  0  0  0  0  0
   45.2820   34.4500   45.6370 N   0  0  0  0  0  0  0  0  0  0  0  0
   43.8550   35.8820   45.1180 H   0  0  0  0  0  0  0  0  0  0  0  0
   44.7420   36.2260   42.8560 H   0  0  0  0  0  0  0  0  0  0  0  0
   46.6440   31.7070   48.0690 H   0  0  0  0  0  0  0  0  0  0  0  0
   46.2310   32.4070   47.3510 C   0  0  0  0  0  0  0  0  0  0  0  0
   45.0770   32.8320   47.6230 O   0  0  0  0  0  0  0  0  0  0  0  0
   46.9410   32.8120   46.1900 N   0  0  0  0  0  0  0  0  0  0  0  0
   47.8940   32.4310   46.0080 H   0  0  0  0  0  0  0  0  0  0  0  0
   46.8620   34.9470   41.8530 O   0  0  0  0  0  0  0  0  0  0  0  0
   48.7600   33.2660   41.1050 O   0  0  0  0  0  0  0  0  0  0  0  0
   48.5310   34.6980   41.5830 P   0  0  0  0  0  0  0  0  0  0  0  0
   49.0550   35.8230   40.4500 O   0  0  0  0  0  0  0  0  0  0  0  0
   48.8230   35.4920   39.5610 H   0  0  0  0  0  0  0  0  0  0  0  0
   49.3220   34.8980   43.0610 O   0  0  0  0  0  0  0  0  0  0  0  0
   49.9180   35.6810   43.0580 H   0  0  0  0  0  0  0  0  0  0  0  0
  1  7  1  0  0  0  0
  1  6  1  0  0  0  0
  2  1  2  0  0  0  0
  3  2  1  0  0  0  0
  3  4  2  0  0  0  0
  4  5  1  0  0  0  0
  5  6  2  0  0  0  0
  5 12  1  0  0  0  0
  8  2  1  0  0  0  0
 10 11  2  0  0  0  0
 10  9  1  0  0  0  0
 12 10  1  0  0  0  0
 13 12  1  0  0  0  0
 14  3  1  0  0  0  0
 15 16  2  0  0  0  0
 16 14  1  0  0  0  0
 16 19  1  0  0  0  0
 17 16  1  0  0  0  0
 18 17  1  0  0  0  0
 20 19  1  0  0  0  0
M  END
>  <minimizedAffinity>
-5.15562248

>  <minimizedRMSD>
0.725297153

$$$$
