
 OpenBabel03252508423D

 24 25  0  0  0  0  0  0  0  0999 V2000
   36.7870   30.7520   39.6110 C   0  0  0  0  0  0  0  0  0  0  0  0
   36.2300   30.0520   40.6460 C   0  0  0  0  0  0  0  0  0  0  0  0
   35.3210   29.0430   40.3910 C   0  0  0  0  0  0  0  0  0  0  0  0
   34.9940   28.7600   39.0860 C   0  0  0  0  0  0  0  0  0  0  0  0
   35.5260   29.4320   38.0130 C   0  0  0  0  0  0  0  0  0  0  0  0
   36.4420   30.4470   38.3210 C   0  0  0  0  0  0  0  0  0  0  0  0
   34.8420   28.4490   41.1650 H   0  0  0  0  0  0  0  0  0  0  0  0
   34.2930   27.9830   38.8610 H   0  0  0  0  0  0  0  0  0  0  0  0
   35.3200   29.2700   36.9700 H   0  0  0  0  0  0  0  0  0  0  0  0
   36.9180   31.0380   37.5440 H   0  0  0  0  0  0  0  0  0  0  0  0
   38.4620   34.0970   40.1600 C   0  0  0  0  0  0  0  0  0  0  0  0
   37.4570   33.1610   39.7910 C   0  0  0  0  0  0  0  0  0  0  0  0
   37.7330   31.7980   39.9530 C   0  0  0  0  0  0  0  0  0  0  0  0
   38.9400   31.4710   40.4500 N   0  0  0  0  0  0  0  0  0  0  0  0
   39.8910   32.3600   40.8000 C   0  0  0  0  0  0  0  0  0  0  0  0
   39.6460   33.6900   40.6510 N   0  0  0  0  0  0  0  0  0  0  0  0
   38.2660   35.1550   40.0420 H   0  0  0  0  0  0  0  0  0  0  0  0
   36.5150   33.4590   39.4010 H   0  0  0  0  0  0  0  0  0  0  0  0
   40.7970   31.8920   41.1800 H   0  0  0  0  0  0  0  0  0  0  0  0
   37.7560   29.1790   43.6110 H   0  0  0  0  0  0  0  0  0  0  0  0
   37.3680   29.2950   42.5960 C   0  0  0  0  0  0  0  0  0  0  0  0
   38.0370   28.2580   42.2930 O   0  0  0  0  0  0  0  0  0  0  0  0
   36.4930   30.2580   42.0320 N   0  0  0  0  0  0  0  0  0  0  0  0
   36.1840   30.9590   42.7210 H   0  0  0  0  0  0  0  0  0  0  0  0
  1 13  1  0  0  0  0
  1  2  1  0  0  0  0
  2 23  1  0  0  0  0
  3  2  2  0  0  0  0
  3  7  1  0  0  0  0
  4  3  1  0  0  0  0
  5  6  1  0  0  0  0
  5  4  2  0  0  0  0
  6  1  2  0  0  0  0
  8  4  1  0  0  0  0
  9  5  1  0  0  0  0
 10  6  1  0  0  0  0
 11 16  1  0  0  0  0
 12 13  1  0  0  0  0
 12 11  2  0  0  0  0
 13 14  2  0  0  0  0
 14 15  1  0  0  0  0
 15 19  1  0  0  0  0
 16 15  2  0  0  0  0
 17 11  1  0  0  0  0
 18 12  1  0  0  0  0
 21 20  1  0  0  0  0
 22 21  2  0  0  0  0
 23 21  1  0  0  0  0
 23 24  1  0  0  0  0
M  END
>  <minimizedAffinity>
-4.81403494

$$$$

 OpenBabel03252508423D

 24 25  0  0  0  0  0  0  0  0999 V2000
   36.2600   27.9060   40.1370 C   0  0  0  0  0  0  0  0  0  0  0  0
   35.4900   29.0350   40.0770 C   0  0  0  0  0  0  0  0  0  0  0  0
   34.6570   29.2490   38.9970 C   0  0  0  0  0  0  0  0  0  0  0  0
   34.6170   28.3100   37.9920 C   0  0  0  0  0  0  0  0  0  0  0  0
   35.3700   27.1600   38.0060 C   0  0  0  0  0  0  0  0  0  0  0  0
   36.2000   26.9880   39.1220 C   0  0  0  0  0  0  0  0  0  0  0  0
   34.0200   30.1220   38.8860 H   0  0  0  0  0  0  0  0  0  0  0  0
   33.9800   28.4520   37.1440 H   0  0  0  0  0  0  0  0  0  0  0  0
   35.3940   26.3840   37.2630 H   0  0  0  0  0  0  0  0  0  0  0  0
   36.8350   26.1130   39.2270 H   0  0  0  0  0  0  0  0  0  0  0  0
   39.2290   27.4020   42.4240 C   0  0  0  0  0  0  0  0  0  0  0  0
   38.4960   27.5450   41.2130 C   0  0  0  0  0  0  0  0  0  0  0  0
   37.1130   27.7460   41.3010 C   0  0  0  0  0  0  0  0  0  0  0  0
   36.5750   27.7890   42.5340 N   0  0  0  0  0  0  0  0  0  0  0  0
   37.2720   27.6530   43.6790 C   0  0  0  0  0  0  0  0  0  0  0  0
   38.6170   27.4570   43.6190 N   0  0  0  0  0  0  0  0  0  0  0  0
   40.2990   27.2460   42.3760 H   0  0  0  0  0  0  0  0  0  0  0  0
   38.9570   27.5060   40.2580 H   0  0  0  0  0  0  0  0  0  0  0  0
   36.6510   27.7170   44.5700 H   0  0  0  0  0  0  0  0  0  0  0  0
   36.5040   32.0910   41.3090 H   0  0  0  0  0  0  0  0  0  0  0  0
   36.3100   31.1610   40.7670 C   0  0  0  0  0  0  0  0  0  0  0  0
   37.1500   31.5670   39.9050 O   0  0  0  0  0  0  0  0  0  0  0  0
   35.4490   30.0710   41.0550 N   0  0  0  0  0  0  0  0  0  0  0  0
   34.9270   30.2040   41.9330 H   0  0  0  0  0  0  0  0  0  0  0  0
  1 13  1  0  0  0  0
  2  1  1  0  0  0  0
  2 23  1  0  0  0  0
  3  2  2  0  0  0  0
  4  5  2  0  0  0  0
  4  3  1  0  0  0  0
  5  6  1  0  0  0  0
  6 10  1  0  0  0  0
  6  1  2  0  0  0  0
  7  3  1  0  0  0  0
  8  4  1  0  0  0  0
  9  5  1  0  0  0  0
 11 16  1  0  0  0  0
 12 13  1  0  0  0  0
 12 11  2  0  0  0  0
 13 14  2  0  0  0  0
 14 15  1  0  0  0  0
 15 19  1  0  0  0  0
 16 15  2  0  0  0  0
 17 11  1  0  0  0  0
 18 12  1  0  0  0  0
 21 23  1  0  0  0  0
 21 20  1  0  0  0  0
 22 21  2  0  0  0  0
 23 24  1  0  0  0  0
M  END
>  <minimizedAffinity>
-4.54450703

$$$$

 OpenBabel03252508423D

 24 25  0  0  0  0  0  0  0  0999 V2000
   38.7690   29.5020   41.9110 C   0  0  0  0  0  0  0  0  0  0  0  0
   37.4710   29.2680   42.2730 C   0  0  0  0  0  0  0  0  0  0  0  0
   37.1710   28.2510   43.1590 C   0  0  0  0  0  0  0  0  0  0  0  0
   38.1970   27.4870   43.6640 C   0  0  0  0  0  0  0  0  0  0  0  0
   39.5160   27.6820   43.3320 C   0  0  0  0  0  0  0  0  0  0  0  0
   39.7710   28.7250   42.4300 C   0  0  0  0  0  0  0  0  0  0  0  0
   36.1640   28.0120   43.4880 H   0  0  0  0  0  0  0  0  0  0  0  0
   37.9920   26.6930   44.3520 H   0  0  0  0  0  0  0  0  0  0  0  0
   40.3690   27.1300   43.6820 H   0  0  0  0  0  0  0  0  0  0  0  0
   40.7790   28.9590   42.1040 H   0  0  0  0  0  0  0  0  0  0  0  0
   39.5680   31.5170   38.8130 C   0  0  0  0  0  0  0  0  0  0  0  0
   39.3550   30.3760   39.6350 C   0  0  0  0  0  0  0  0  0  0  0  0
   39.0110   30.5860   40.9760 C   0  0  0  0  0  0  0  0  0  0  0  0
   38.9070   31.8620   41.3920 N   0  0  0  0  0  0  0  0  0  0  0  0
   39.1090   32.9410   40.6100 C   0  0  0  0  0  0  0  0  0  0  0  0
   39.4440   32.7630   39.3040 N   0  0  0  0  0  0  0  0  0  0  0  0
   39.8350   31.3750   37.7730 H   0  0  0  0  0  0  0  0  0  0  0  0
   39.4470   29.3830   39.2700 H   0  0  0  0  0  0  0  0  0  0  0  0
   38.9770   33.8830   41.1370 H   0  0  0  0  0  0  0  0  0  0  0  0
   34.7570   29.6590   40.1840 H   0  0  0  0  0  0  0  0  0  0  0  0
   35.6480   29.3630   40.7450 C   0  0  0  0  0  0  0  0  0  0  0  0
   35.6880   28.3290   40.0070 O   0  0  0  0  0  0  0  0  0  0  0  0
   36.3320   29.9930   41.8160 N   0  0  0  0  0  0  0  0  0  0  0  0
   35.8920   30.8820   42.0940 H   0  0  0  0  0  0  0  0  0  0  0  0
  1  2  2  0  0  0  0
  1  6  1  0  0  0  0
  2  3  1  0  0  0  0
  3  7  1  0  0  0  0
  3  4  2  0  0  0  0
  4  8  1  0  0  0  0
  5  4  1  0  0  0  0
  5  9  1  0  0  0  0
  6  5  2  0  0  0  0
 10  6  1  0  0  0  0
 11 16  2  0  0  0  0
 11 12  1  0  0  0  0
 12 13  2  0  0  0  0
 13 14  1  0  0  0  0
 13  1  1  0  0  0  0
 15 19  1  0  0  0  0
 15 14  2  0  0  0  0
 16 15  1  0  0  0  0
 17 11  1  0  0  0  0
 18 12  1  0  0  0  0
 20 21  1  0  0  0  0
 21 23  1  0  0  0  0
 22 21  2  0  0  0  0
 23 24  1  0  0  0  0
 23  2  1  0  0  0  0
M  END
>  <minimizedAffinity>
-4.46387243

$$$$

 OpenBabel03252508423D

 24 25  0  0  0  0  0  0  0  0999 V2000
   36.6120   27.1880   40.3780 C   0  0  0  0  0  0  0  0  0  0  0  0
   36.2060   28.2410   41.1510 C   0  0  0  0  0  0  0  0  0  0  0  0
   35.3890   29.2180   40.6170 C   0  0  0  0  0  0  0  0  0  0  0  0
   34.9950   29.1090   39.3040 C   0  0  0  0  0  0  0  0  0  0  0  0
   35.3750   28.0710   38.4870 C   0  0  0  0  0  0  0  0  0  0  0  0
   36.2040   27.1050   39.0730 C   0  0  0  0  0  0  0  0  0  0  0  0
   35.0300   30.0790   41.1750 H   0  0  0  0  0  0  0  0  0  0  0  0
   34.3620   29.8520   38.8660 H   0  0  0  0  0  0  0  0  0  0  0  0
   35.1100   27.9180   37.4570 H   0  0  0  0  0  0  0  0  0  0  0  0
   36.5600   26.2460   38.5120 H   0  0  0  0  0  0  0  0  0  0  0  0
   37.9320   24.0790   42.0790 C   0  0  0  0  0  0  0  0  0  0  0  0
   36.9970   24.9700   41.4830 C   0  0  0  0  0  0  0  0  0  0  0  0
   37.4700   26.1980   41.0040 C   0  0  0  0  0  0  0  0  0  0  0  0
   38.7850   26.4470   41.1450 N   0  0  0  0  0  0  0  0  0  0  0  0
   39.6690   25.6010   41.7100 C   0  0  0  0  0  0  0  0  0  0  0  0
   39.2340   24.4020   42.1820 N   0  0  0  0  0  0  0  0  0  0  0  0
   37.5860   23.1260   42.4550 H   0  0  0  0  0  0  0  0  0  0  0  0
   35.9650   24.7380   41.3910 H   0  0  0  0  0  0  0  0  0  0  0  0
   40.6850   25.9900   41.7270 H   0  0  0  0  0  0  0  0  0  0  0  0
   38.0990   29.7490   43.6060 H   0  0  0  0  0  0  0  0  0  0  0  0
   37.6120   29.3790   42.7000 C   0  0  0  0  0  0  0  0  0  0  0  0
   38.4090   30.1230   42.0470 O   0  0  0  0  0  0  0  0  0  0  0  0
   36.5510   28.4560   42.5170 N   0  0  0  0  0  0  0  0  0  0  0  0
   36.1950   28.0850   43.4110 H   0  0  0  0  0  0  0  0  0  0  0  0
  1 13  1  0  0  0  0
  1  2  1  0  0  0  0
  2 23  1  0  0  0  0
  3  2  2  0  0  0  0
  3  7  1  0  0  0  0
  4  3  1  0  0  0  0
  5  6  1  0  0  0  0
  5  4  2  0  0  0  0
  6  1  2  0  0  0  0
  8  4  1  0  0  0  0
  9  5  1  0  0  0  0
 10  6  1  0  0  0  0
 11 16  1  0  0  0  0
 11 17  1  0  0  0  0
 12 11  2  0  0  0  0
 13 14  2  0  0  0  0
 13 12  1  0  0  0  0
 14 15  1  0  0  0  0
 15 19  1  0  0  0  0
 15 16  2  0  0  0  0
 18 12  1  0  0  0  0
 21 20  1  0  0  0  0
 22 21  2  0  0  0  0
 23 21  1  0  0  0  0
 23 24  1  0  0  0  0
M  END
>  <minimizedAffinity>
-4.41675091

$$$$

 OpenBabel03252508423D

 24 25  0  0  0  0  0  0  0  0999 V2000
   38.1150   30.3120   41.2570 C   0  0  0  0  0  0  0  0  0  0  0  0
   36.8760   30.7880   40.9260 C   0  0  0  0  0  0  0  0  0  0  0  0
   36.7430   32.0440   40.3650 C   0  0  0  0  0  0  0  0  0  0  0  0
   37.8740   32.7960   40.1480 C   0  0  0  0  0  0  0  0  0  0  0  0
   39.1390   32.3630   40.4630 C   0  0  0  0  0  0  0  0  0  0  0  0
   39.2230   31.0840   41.0300 C   0  0  0  0  0  0  0  0  0  0  0  0
   35.7910   32.4820   40.0780 H   0  0  0  0  0  0  0  0  0  0  0  0
   37.7990   33.7720   39.7150 H   0  0  0  0  0  0  0  0  0  0  0  0
   40.0650   32.8910   40.3260 H   0  0  0  0  0  0  0  0  0  0  0  0
   40.1780   30.6510   41.3150 H   0  0  0  0  0  0  0  0  0  0  0  0
   38.3770   27.4180   43.6760 C   0  0  0  0  0  0  0  0  0  0  0  0
   38.3250   28.7630   43.2180 C   0  0  0  0  0  0  0  0  0  0  0  0
   38.1800   28.9850   41.8430 C   0  0  0  0  0  0  0  0  0  0  0  0
   38.0990   27.9010   41.0500 N   0  0  0  0  0  0  0  0  0  0  0  0
   38.1480   26.6270   41.4870 C   0  0  0  0  0  0  0  0  0  0  0  0
   38.2880   26.3860   42.8190 N   0  0  0  0  0  0  0  0  0  0  0  0
   38.4890   27.2260   44.7360 H   0  0  0  0  0  0  0  0  0  0  0  0
   38.3930   29.5940   43.8750 H   0  0  0  0  0  0  0  0  0  0  0  0
   38.0660   25.8950   40.6870 H   0  0  0  0  0  0  0  0  0  0  0  0
   34.2590   28.8860   39.7350 H   0  0  0  0  0  0  0  0  0  0  0  0
   35.1590   29.4780   39.9240 C   0  0  0  0  0  0  0  0  0  0  0  0
   35.4480   29.3050   38.6990 O   0  0  0  0  0  0  0  0  0  0  0  0
   35.6410   30.0990   41.1040 N   0  0  0  0  0  0  0  0  0  0  0  0
   35.0140   29.9530   41.9090 H   0  0  0  0  0  0  0  0  0  0  0  0
  1 13  1  0  0  0  0
  2 23  1  0  0  0  0
  2  1  2  0  0  0  0
  3  2  1  0  0  0  0
  4  3  2  0  0  0  0
  4  5  1  0  0  0  0
  5  6  2  0  0  0  0
  6  1  1  0  0  0  0
  6 10  1  0  0  0  0
  7  3  1  0  0  0  0
  8  4  1  0  0  0  0
  9  5  1  0  0  0  0
 11 17  1  0  0  0  0
 12 11  1  0  0  0  0
 12 18  1  0  0  0  0
 13 12  2  0  0  0  0
 14 15  2  0  0  0  0
 14 13  1  0  0  0  0
 15 16  1  0  0  0  0
 16 11  2  0  0  0  0
 19 15  1  0  0  0  0
 20 21  1  0  0  0  0
 21 23  1  0  0  0  0
 22 21  2  0  0  0  0
 23 24  1  0  0  0  0
M  END
>  <minimizedAffinity>
-4.36809254

$$$$

 OpenBabel03252508423D

 24 25  0  0  0  0  0  0  0  0999 V2000
   36.2200   27.7310   39.9480 C   0  0  0  0  0  0  0  0  0  0  0  0
   36.0430   28.5470   41.0310 C   0  0  0  0  0  0  0  0  0  0  0  0
   36.4520   28.1340   42.2840 C   0  0  0  0  0  0  0  0  0  0  0  0
   37.0380   26.8970   42.4170 C   0  0  0  0  0  0  0  0  0  0  0  0
   37.2390   26.0410   41.3610 C   0  0  0  0  0  0  0  0  0  0  0  0
   36.8060   26.5030   40.1100 C   0  0  0  0  0  0  0  0  0  0  0  0
   36.3420   28.7320   43.1850 H   0  0  0  0  0  0  0  0  0  0  0  0
   37.3640   26.5540   43.3770 H   0  0  0  0  0  0  0  0  0  0  0  0
   37.6860   25.0640   41.3840 H   0  0  0  0  0  0  0  0  0  0  0  0
   36.9190   25.9020   39.2130 H   0  0  0  0  0  0  0  0  0  0  0  0
   36.0790   29.0510   36.4070 C   0  0  0  0  0  0  0  0  0  0  0  0
   36.6400   28.5740   37.6240 C   0  0  0  0  0  0  0  0  0  0  0  0
   35.7650   28.2290   38.6620 C   0  0  0  0  0  0  0  0  0  0  0  0
   34.4480   28.3750   38.4300 N   0  0  0  0  0  0  0  0  0  0  0  0
   33.9190   28.8280   37.2760 C   0  0  0  0  0  0  0  0  0  0  0  0
   34.7490   29.1690   36.2530 N   0  0  0  0  0  0  0  0  0  0  0  0
   36.7390   29.3230   35.5940 H   0  0  0  0  0  0  0  0  0  0  0  0
   37.6870   28.4720   37.7700 H   0  0  0  0  0  0  0  0  0  0  0  0
   32.8320   28.8730   37.2910 H   0  0  0  0  0  0  0  0  0  0  0  0
   36.2620   31.9860   40.9460 H   0  0  0  0  0  0  0  0  0  0  0  0
   36.3940   30.9010   40.9690 C   0  0  0  0  0  0  0  0  0  0  0  0
   37.6460   31.1200   40.9380 O   0  0  0  0  0  0  0  0  0  0  0  0
   35.4510   29.8430   41.0130 N   0  0  0  0  0  0  0  0  0  0  0  0
   34.4780   30.1850   41.0250 H   0  0  0  0  0  0  0  0  0  0  0  0
  1  6  2  0  0  0  0
  1  2  1  0  0  0  0
  2  3  2  0  0  0  0
  3  4  1  0  0  0  0
  3  7  1  0  0  0  0
  4  8  1  0  0  0  0
  5  9  1  0  0  0  0
  5  4  2  0  0  0  0
  6  5  1  0  0  0  0
 10  6  1  0  0  0  0
 11 12  1  0  0  0  0
 12 18  1  0  0  0  0
 12 13  2  0  0  0  0
 13  1  1  0  0  0  0
 14 13  1  0  0  0  0
 15 19  1  0  0  0  0
 15 14  2  0  0  0  0
 16 11  2  0  0  0  0
 16 15  1  0  0  0  0
 17 11  1  0  0  0  0
 20 21  1  0  0  0  0
 21 23  1  0  0  0  0
 22 21  2  0  0  0  0
 23 24  1  0  0  0  0
 23  2  1  0  0  0  0
M  END
>  <minimizedAffinity>
-4.350945

$$$$

 OpenBabel03252508423D

 24 25  0  0  0  0  0  0  0  0999 V2000
   36.9570   27.0270   40.7970 C   0  0  0  0  0  0  0  0  0  0  0  0
   37.1450   26.5230   42.0540 C   0  0  0  0  0  0  0  0  0  0  0  0
   37.0220   25.1660   42.2830 C   0  0  0  0  0  0  0  0  0  0  0  0
   36.7090   24.3410   41.2280 C   0  0  0  0  0  0  0  0  0  0  0  0
   36.5100   24.7980   39.9480 C   0  0  0  0  0  0  0  0  0  0  0  0
   36.6460   26.1810   39.7650 C   0  0  0  0  0  0  0  0  0  0  0  0
   37.1580   24.7010   43.2560 H   0  0  0  0  0  0  0  0  0  0  0  0
   36.6080   23.2860   41.3790 H   0  0  0  0  0  0  0  0  0  0  0  0
   36.2640   24.2190   39.0760 H   0  0  0  0  0  0  0  0  0  0  0  0
   36.5080   26.6410   38.7910 H   0  0  0  0  0  0  0  0  0  0  0  0
   38.2120   30.4650   39.8450 C   0  0  0  0  0  0  0  0  0  0  0  0
   38.1750   29.0460   39.9450 C   0  0  0  0  0  0  0  0  0  0  0  0
   37.1020   28.4620   40.6290 C   0  0  0  0  0  0  0  0  0  0  0  0
   36.1780   29.2920   41.1470 N   0  0  0  0  0  0  0  0  0  0  0  0
   36.2150   30.6350   41.0500 C   0  0  0  0  0  0  0  0  0  0  0  0
   37.2470   31.2260   40.3900 N   0  0  0  0  0  0  0  0  0  0  0  0
   39.0330   30.9340   39.3190 H   0  0  0  0  0  0  0  0  0  0  0  0
   38.9250   28.4240   39.5230 H   0  0  0  0  0  0  0  0  0  0  0  0
   35.3740   31.1240   41.5370 H   0  0  0  0  0  0  0  0  0  0  0  0
   39.4160   27.7870   44.3190 H   0  0  0  0  0  0  0  0  0  0  0  0
   38.8580   27.3050   43.5120 C   0  0  0  0  0  0  0  0  0  0  0  0
   39.9750   26.8720   43.0880 O   0  0  0  0  0  0  0  0  0  0  0  0
   37.4710   27.2800   43.2180 N   0  0  0  0  0  0  0  0  0  0  0  0
   36.9150   27.8170   43.8990 H   0  0  0  0  0  0  0  0  0  0  0  0
  1  2  1  0  0  0  0
  2  3  2  0  0  0  0
  2 23  1  0  0  0  0
  3  7  1  0  0  0  0
  4  8  1  0  0  0  0
  4  3  1  0  0  0  0
  5  4  2  0  0  0  0
  6  5  1  0  0  0  0
  6  1  2  0  0  0  0
  9  5  1  0  0  0  0
 10  6  1  0  0  0  0
 11 12  2  0  0  0  0
 11 16  1  0  0  0  0
 12 13  1  0  0  0  0
 13  1  1  0  0  0  0
 13 14  2  0  0  0  0
 15 14  1  0  0  0  0
 15 19  1  0  0  0  0
 16 15  2  0  0  0  0
 17 11  1  0  0  0  0
 18 12  1  0  0  0  0
 21 20  1  0  0  0  0
 22 21  2  0  0  0  0
 23 21  1  0  0  0  0
 23 24  1  0  0  0  0
M  END
>  <minimizedAffinity>
-4.25406504

$$$$

 OpenBabel03252508423D

 24 25  0  0  0  0  0  0  0  0999 V2000
   37.6440   29.7800   41.7600 C   0  0  0  0  0  0  0  0  0  0  0  0
   36.6530   29.0200   41.2010 C   0  0  0  0  0  0  0  0  0  0  0  0
   36.1880   27.8970   41.8550 C   0  0  0  0  0  0  0  0  0  0  0  0
   36.7370   27.5620   43.0710 C   0  0  0  0  0  0  0  0  0  0  0  0
   37.7320   28.2920   43.6750 C   0  0  0  0  0  0  0  0  0  0  0  0
   38.1720   29.4230   42.9720 C   0  0  0  0  0  0  0  0  0  0  0  0
   35.4050   27.2500   41.4680 H   0  0  0  0  0  0  0  0  0  0  0  0
   36.3940   26.6970   43.5990 H   0  0  0  0  0  0  0  0  0  0  0  0
   38.2090   28.0960   44.6170 H   0  0  0  0  0  0  0  0  0  0  0  0
   38.9550   30.0660   43.3640 H   0  0  0  0  0  0  0  0  0  0  0  0
   39.7380   32.3650   39.9630 C   0  0  0  0  0  0  0  0  0  0  0  0
   39.4260   31.1870   40.6960 C   0  0  0  0  0  0  0  0  0  0  0  0
   38.0840   30.9470   41.0160 C   0  0  0  0  0  0  0  0  0  0  0  0
   37.1810   31.8550   40.6040 N   0  0  0  0  0  0  0  0  0  0  0  0
   37.4800   32.9710   39.9090 C   0  0  0  0  0  0  0  0  0  0  0  0
   38.7770   33.2260   39.5860 N   0  0  0  0  0  0  0  0  0  0  0  0
   40.7700   32.5680   39.7060 H   0  0  0  0  0  0  0  0  0  0  0  0
   40.1670   30.4930   41.0040 H   0  0  0  0  0  0  0  0  0  0  0  0
   36.6070   33.5760   39.6720 H   0  0  0  0  0  0  0  0  0  0  0  0
   36.2790   28.4760   37.8170 H   0  0  0  0  0  0  0  0  0  0  0  0
   36.5460   28.5120   38.8770 C   0  0  0  0  0  0  0  0  0  0  0  0
   37.4350   27.6440   38.6130 O   0  0  0  0  0  0  0  0  0  0  0  0
   36.0140   29.2700   39.9510 N   0  0  0  0  0  0  0  0  0  0  0  0
   35.2420   29.8860   39.6540 H   0  0  0  0  0  0  0  0  0  0  0  0
  1  6  1  0  0  0  0
  2  1  2  0  0  0  0
  2  3  1  0  0  0  0
  3  4  2  0  0  0  0
  4  8  1  0  0  0  0
  4  5  1  0  0  0  0
  5  9  1  0  0  0  0
  6 10  1  0  0  0  0
  6  5  2  0  0  0  0
  7  3  1  0  0  0  0
 11 12  1  0  0  0  0
 12 18  1  0  0  0  0
 12 13  2  0  0  0  0
 13  1  1  0  0  0  0
 14 13  1  0  0  0  0
 15 14  2  0  0  0  0
 16 15  1  0  0  0  0
 16 11  2  0  0  0  0
 17 11  1  0  0  0  0
 19 15  1  0  0  0  0
 20 21  1  0  0  0  0
 21 23  1  0  0  0  0
 22 21  2  0  0  0  0
 23  2  1  0  0  0  0
 24 23  1  0  0  0  0
M  END
>  <minimizedAffinity>
-4.24778843

$$$$

 OpenBabel03252508423D

 24 25  0  0  0  0  0  0  0  0999 V2000
   37.5300   29.1310   41.5840 C   0  0  0  0  0  0  0  0  0  0  0  0
   37.2180   27.9970   40.8850 C   0  0  0  0  0  0  0  0  0  0  0  0
   36.9280   26.8260   41.5570 C   0  0  0  0  0  0  0  0  0  0  0  0
   36.9590   26.8250   42.9320 C   0  0  0  0  0  0  0  0  0  0  0  0
   37.2660   27.9360   43.6790 C   0  0  0  0  0  0  0  0  0  0  0  0
   37.5530   29.1000   42.9530 C   0  0  0  0  0  0  0  0  0  0  0  0
   36.6730   25.8920   41.0640 H   0  0  0  0  0  0  0  0  0  0  0  0
   36.7380   25.9300   43.4770 H   0  0  0  0  0  0  0  0  0  0  0  0
   37.3110   28.0140   44.7500 H   0  0  0  0  0  0  0  0  0  0  0  0
   37.8080   30.0310   43.4510 H   0  0  0  0  0  0  0  0  0  0  0  0
   37.3300   32.5180   39.9150 C   0  0  0  0  0  0  0  0  0  0  0  0
   36.9330   31.3990   40.6990 C   0  0  0  0  0  0  0  0  0  0  0  0
   37.8240   30.3250   40.8130 C   0  0  0  0  0  0  0  0  0  0  0  0
   39.0000   30.4300   40.1660 N   0  0  0  0  0  0  0  0  0  0  0  0
   39.3730   31.4910   39.4240 C   0  0  0  0  0  0  0  0  0  0  0  0
   38.5250   32.5480   39.2990 N   0  0  0  0  0  0  0  0  0  0  0  0
   36.6550   33.3580   39.8160 H   0  0  0  0  0  0  0  0  0  0  0  0
   35.9950   31.3530   41.1950 H   0  0  0  0  0  0  0  0  0  0  0  0
   40.3620   31.3810   38.9830 H   0  0  0  0  0  0  0  0  0  0  0  0
   35.5580   28.3140   37.8800 H   0  0  0  0  0  0  0  0  0  0  0  0
   35.9130   28.2840   38.9140 C   0  0  0  0  0  0  0  0  0  0  0  0
   34.7740   28.7360   39.2480 O   0  0  0  0  0  0  0  0  0  0  0  0
   37.1560   27.8810   39.4650 N   0  0  0  0  0  0  0  0  0  0  0  0
   37.8220   27.5660   38.7450 H   0  0  0  0  0  0  0  0  0  0  0  0
  1  6  1  0  0  0  0
  2  3  1  0  0  0  0
  2  1  2  0  0  0  0
  3  4  2  0  0  0  0
  4  8  1  0  0  0  0
  4  5  1  0  0  0  0
  5  9  1  0  0  0  0
  6 10  1  0  0  0  0
  6  5  2  0  0  0  0
  7  3  1  0  0  0  0
 11 12  1  0  0  0  0
 12 13  2  0  0  0  0
 12 18  1  0  0  0  0
 13  1  1  0  0  0  0
 14 13  1  0  0  0  0
 15 14  2  0  0  0  0
 16 15  1  0  0  0  0
 16 11  2  0  0  0  0
 17 11  1  0  0  0  0
 19 15  1  0  0  0  0
 20 21  1  0  0  0  0
 21 22  2  0  0  0  0
 21 23  1  0  0  0  0
 23  2  1  0  0  0  0
 24 23  1  0  0  0  0
M  END
>  <minimizedAffinity>
-4.24451637

$$$$
