
 OpenBabel03252505423D

 38 40  0  0  1  0  0  0  0  0999 V2000
   44.0540   34.6850   42.4680 C   0  0  1  0  0  0  0  0  0  0  0  0
   44.2550   36.1600   41.9820 C   0  0  0  0  0  0  0  0  0  0  0  0
   44.1010   34.9540   41.0610 C   0  0  2  0  0  0  0  0  0  0  0  0
   43.0640   34.5720   42.9990 H   0  0  0  0  0  0  0  0  0  0  0  0
   45.2570   36.5730   42.1180 H   0  0  0  0  0  0  0  0  0  0  0  0
   43.3950   36.8420   42.0780 H   0  0  0  0  0  0  0  0  0  0  0  0
   44.9510   34.8270   40.3910 H   0  0  0  0  0  0  0  0  0  0  0  0
   45.1890   34.1530   43.2460 C   0  0  0  0  0  0  0  0  0  0  0  0
   46.4540   34.1280   42.6310 C   0  0  0  0  0  0  0  0  0  0  0  0
   47.5350   33.6320   43.3490 C   0  0  0  0  0  0  0  0  0  0  0  0
   47.3170   33.1950   44.6120 N   0  0  0  0  0  0  0  0  0  0  0  0
   46.1040   33.2300   45.1710 C   0  0  0  0  0  0  0  0  0  0  0  0
   45.0770   33.7100   44.4650 N   0  0  0  0  0  0  0  0  0  0  0  0
   46.6110   34.4830   41.6190 H   0  0  0  0  0  0  0  0  0  0  0  0
   48.5270   33.6030   42.8940 H   0  0  0  0  0  0  0  0  0  0  0  0
   46.0650   32.7030   46.5750 C   0  0  0  0  0  0  0  0  0  0  0  0
   45.0960   33.3430   47.3320 F   0  0  0  0  0  0  0  0  0  0  0  0
   47.2960   33.0080   47.2050 F   0  0  0  0  0  0  0  0  0  0  0  0
   45.9560   31.3400   46.5570 F   0  0  0  0  0  0  0  0  0  0  0  0
   42.7700   34.8150   40.3550 C   0  0  0  0  0  0  0  0  0  0  0  0
   42.6240   35.1760   39.0390 C   0  0  0  0  0  0  0  0  0  0  0  0
   41.4300   35.0400   38.3600 C   0  0  0  0  0  0  0  0  0  0  0  0
   40.3810   34.5320   39.0300 N   0  0  0  0  0  0  0  0  0  0  0  0
   40.5170   34.1690   40.3400 C   0  0  0  0  0  0  0  0  0  0  0  0
   41.6880   34.3110   40.9840 N   0  0  0  0  0  0  0  0  0  0  0  0
   43.4460   35.5830   38.4800 H   0  0  0  0  0  0  0  0  0  0  0  0
   41.3130   35.3200   37.3320 H   0  0  0  0  0  0  0  0  0  0  0  0
   39.3890   33.5850   41.1290 C   0  0  0  0  0  0  0  0  0  0  0  0
   38.7370   34.3270   41.5900 H   0  0  0  0  0  0  0  0  0  0  0  0
   39.8220   32.9890   41.9590 H   0  0  0  0  0  0  0  0  0  0  0  0
   38.5780   32.6550   40.2720 C   0  0  0  0  0  0  0  0  0  0  0  0
   37.9570   33.2810   39.6080 H   0  0  0  0  0  0  0  0  0  0  0  0
   39.2020   31.9850   39.6580 H   0  0  0  0  0  0  0  0  0  0  0  0
   36.8680   30.0000   41.8810 H   0  0  0  0  0  0  0  0  0  0  0  0
   37.5600   30.5160   41.2360 C   0  0  0  0  0  0  0  0  0  0  0  0
   38.3000   29.7640   40.5600 O   0  0  0  0  0  0  0  0  0  0  0  0
   37.6630   31.9270   41.1260 N   0  0  0  0  0  0  0  0  0  0  0  0
   36.9640   32.4140   41.7640 H   0  0  0  0  0  0  0  0  0  0  0  0
  1  4  1  1  0  0  0
  1  8  1  0  0  0  0
  2  6  1  0  0  0  0
  2  5  1  0  0  0  0
  2  1  1  0  0  0  0
  3  7  1  6  0  0  0
  3  2  1  0  0  0  0
  3  1  1  0  0  0  0
  8 13  1  0  0  0  0
  9  8  2  0  0  0  0
  9 10  1  0  0  0  0
 10 11  2  0  0  0  0
 11 12  1  0  0  0  0
 12 16  1  0  0  0  0
 13 12  2  0  0  0  0
 14  9  1  0  0  0  0
 15 10  1  0  0  0  0
 16 18  1  0  0  0  0
 16 17  1  0  0  0  0
 19 16  1  0  0  0  0
 20 25  1  0  0  0  0
 20  3  1  0  0  0  0
 21 20  2  0  0  0  0
 22 23  2  0  0  0  0
 22 21  1  0  0  0  0
 23 24  1  0  0  0  0
 24 25  2  0  0  0  0
 24 28  1  0  0  0  0
 26 21  1  0  0  0  0
 27 22  1  0  0  0  0
 28 29  1  0  0  0  0
 28 30  1  0  0  0  0
 31 37  1  0  0  0  0
 31 28  1  0  0  0  0
 32 31  1  0  0  0  0
 33 31  1  0  0  0  0
 35 34  1  0  0  0  0
 36 35  2  0  0  0  0
 37 35  1  0  0  0  0
 37 38  1  0  0  0  0
M  END
>  <minimizedAffinity>
-5.57216263

>  <minimizedRMSD>
0.251281947

$$$$
