
 OpenBabel03252504213D

 15 15  0  0  0  0  0  0  0  0999 V2000
   36.5880   30.2590   38.3860 C   0  0  0  0  0  0  0  0  0  0  0  0
   36.0150   29.3460   39.2720 C   0  0  0  0  0  0  0  0  0  0  0  0
   35.8420   29.7210   40.6130 C   0  0  0  0  0  0  0  0  0  0  0  0
   36.2510   30.9720   40.9760 N   0  0  0  0  0  0  0  0  0  0  0  0
   36.7980   31.8200   40.0980 C   0  0  0  0  0  0  0  0  0  0  0  0
   36.9790   31.4910   38.7930 N   0  0  0  0  0  0  0  0  0  0  0  0
   35.6970   28.3490   38.9520 H   0  0  0  0  0  0  0  0  0  0  0  0
   35.4020   29.0370   41.3220 H   0  0  0  0  0  0  0  0  0  0  0  0
   38.4470   34.8800   40.5310 H   0  0  0  0  0  0  0  0  0  0  0  0
   38.4270   33.8790   40.1110 C   0  0  0  0  0  0  0  0  0  0  0  0
   39.1080   33.1000   39.4120 O   0  0  0  0  0  0  0  0  0  0  0  0
   37.2390   33.1330   40.4260 N   0  0  0  0  0  0  0  0  0  0  0  0
   36.4380   33.4860   41.0080 H   0  0  0  0  0  0  0  0  0  0  0  0
   36.7630   29.6780   36.6940 S   0  0  0  0  0  0  0  0  0  0  0  0
   36.8510   30.8160   35.8650 H   0  0  0  0  0  0  0  0  0  0  0  0
  1  6  2  0  0  0  0
  1  2  1  0  0  0  0
  2  3  2  0  0  0  0
  3  4  1  0  0  0  0
  3  8  1  0  0  0  0
  5 12  1  0  0  0  0
  5  4  2  0  0  0  0
  6  5  1  0  0  0  0
  7  2  1  0  0  0  0
 10 12  1  0  0  0  0
 10  9  1  0  0  0  0
 11 10  2  0  0  0  0
 12 13  1  0  0  0  0
 14  1  1  0  0  0  0
 15 14  1  0  0  0  0
M  END
>  <minimizedAffinity>
-3.70833874

$$$$

 OpenBabel03252504213D

 15 15  0  0  0  0  0  0  0  0999 V2000
   37.3980   26.5710   41.6760 C   0  0  0  0  0  0  0  0  0  0  0  0
   38.3280   26.3010   42.6800 C   0  0  0  0  0  0  0  0  0  0  0  0
   38.6790   27.3260   43.5720 C   0  0  0  0  0  0  0  0  0  0  0  0
   38.0820   28.5410   43.4020 N   0  0  0  0  0  0  0  0  0  0  0  0
   37.1930   28.7630   42.4260 C   0  0  0  0  0  0  0  0  0  0  0  0
   36.8310   27.7950   41.5470 N   0  0  0  0  0  0  0  0  0  0  0  0
   38.7920   25.3160   42.7910 H   0  0  0  0  0  0  0  0  0  0  0  0
   39.3960   27.1480   44.3580 H   0  0  0  0  0  0  0  0  0  0  0  0
   35.7480   31.7160   41.2190 H   0  0  0  0  0  0  0  0  0  0  0  0
   36.2780   30.7890   41.0290 C   0  0  0  0  0  0  0  0  0  0  0  0
   36.7680   30.1180   40.0960 O   0  0  0  0  0  0  0  0  0  0  0  0
   36.5440   30.0100   42.2090 N   0  0  0  0  0  0  0  0  0  0  0  0
   36.2670   30.2790   43.1870 H   0  0  0  0  0  0  0  0  0  0  0  0
   37.0210   25.1900   40.5900 S   0  0  0  0  0  0  0  0  0  0  0  0
   35.7600   25.4410   40.0100 H   0  0  0  0  0  0  0  0  0  0  0  0
  1  2  1  0  0  0  0
  2  7  1  0  0  0  0
  2  3  2  0  0  0  0
  3  8  1  0  0  0  0
  4  3  1  0  0  0  0
  5  4  2  0  0  0  0
  6  1  2  0  0  0  0
  6  5  1  0  0  0  0
 10  9  1  0  0  0  0
 10 12  1  0  0  0  0
 11 10  2  0  0  0  0
 12  5  1  0  0  0  0
 12 13  1  0  0  0  0
 14  1  1  0  0  0  0
 15 14  1  0  0  0  0
M  END
>  <minimizedAffinity>
-3.55308652

$$$$

 OpenBabel03252504213D

 15 15  0  0  0  0  0  0  0  0999 V2000
   38.3580   29.5300   39.8500 C   0  0  0  0  0  0  0  0  0  0  0  0
   37.6020   30.5580   39.2850 C   0  0  0  0  0  0  0  0  0  0  0  0
   36.5910   31.1560   40.0540 C   0  0  0  0  0  0  0  0  0  0  0  0
   36.4060   30.6910   41.3230 N   0  0  0  0  0  0  0  0  0  0  0  0
   37.1510   29.7010   41.8300 C   0  0  0  0  0  0  0  0  0  0  0  0
   38.1370   29.1010   41.1160 N   0  0  0  0  0  0  0  0  0  0  0  0
   37.7730   30.9100   38.2640 H   0  0  0  0  0  0  0  0  0  0  0  0
   35.9900   31.9530   39.6450 H   0  0  0  0  0  0  0  0  0  0  0  0
   36.8220   27.8020   44.7550 H   0  0  0  0  0  0  0  0  0  0  0  0
   36.9550   27.8470   43.6790 C   0  0  0  0  0  0  0  0  0  0  0  0
   37.0930   27.1090   42.6800 O   0  0  0  0  0  0  0  0  0  0  0  0
   36.9970   29.1820   43.1460 N   0  0  0  0  0  0  0  0  0  0  0  0
   36.9090   30.0630   43.7130 H   0  0  0  0  0  0  0  0  0  0  0  0
   39.6240   28.8350   38.7800 S   0  0  0  0  0  0  0  0  0  0  0  0
   40.5880   28.2260   39.6100 H   0  0  0  0  0  0  0  0  0  0  0  0
  1  6  1  0  0  0  0
  2  1  2  0  0  0  0
  2  3  1  0  0  0  0
  3  4  2  0  0  0  0
  4  5  1  0  0  0  0
  5 12  1  0  0  0  0
  6  5  2  0  0  0  0
  7  2  1  0  0  0  0
  8  3  1  0  0  0  0
 10  9  1  0  0  0  0
 11 10  2  0  0  0  0
 12 10  1  0  0  0  0
 12 13  1  0  0  0  0
 14 15  1  0  0  0  0
 14  1  1  0  0  0  0
M  END
>  <minimizedAffinity>
-3.46767855

$$$$

 OpenBabel03252504213D

 15 15  0  0  0  0  0  0  0  0999 V2000
   35.8510   29.0090   39.5080 C   0  0  0  0  0  0  0  0  0  0  0  0
   36.1420   28.2600   40.6490 C   0  0  0  0  0  0  0  0  0  0  0  0
   36.6600   28.9160   41.7760 C   0  0  0  0  0  0  0  0  0  0  0  0
   36.8510   30.2650   41.6880 N   0  0  0  0  0  0  0  0  0  0  0  0
   36.5610   30.9500   40.5750 C   0  0  0  0  0  0  0  0  0  0  0  0
   36.0580   30.3470   39.4680 N   0  0  0  0  0  0  0  0  0  0  0  0
   35.9790   27.1790   40.6910 H   0  0  0  0  0  0  0  0  0  0  0  0
   36.8940   28.3650   42.6730 H   0  0  0  0  0  0  0  0  0  0  0  0
   37.2820   34.2380   39.6090 H   0  0  0  0  0  0  0  0  0  0  0  0
   37.2970   33.1750   39.3920 C   0  0  0  0  0  0  0  0  0  0  0  0
   37.6460   32.3630   38.5090 O   0  0  0  0  0  0  0  0  0  0  0  0
   36.7420   32.3540   40.4340 N   0  0  0  0  0  0  0  0  0  0  0  0
   36.3460   32.7110   41.3400 H   0  0  0  0  0  0  0  0  0  0  0  0
   35.1930   28.0700   38.1240 S   0  0  0  0  0  0  0  0  0  0  0  0
   34.4940   28.9740   37.2970 H   0  0  0  0  0  0  0  0  0  0  0  0
  1  2  1  0  0  0  0
  2  7  1  0  0  0  0
  2  3  2  0  0  0  0
  3  8  1  0  0  0  0
  4  3  1  0  0  0  0
  5  4  2  0  0  0  0
  6  1  2  0  0  0  0
  6  5  1  0  0  0  0
 10  9  1  0  0  0  0
 10 12  1  0  0  0  0
 11 10  2  0  0  0  0
 12  5  1  0  0  0  0
 12 13  1  0  0  0  0
 14  1  1  0  0  0  0
 15 14  1  0  0  0  0
M  END
>  <minimizedAffinity>
-3.45118022

$$$$

 OpenBabel03252504213D

 15 15  0  0  0  0  0  0  0  0999 V2000
   36.7860   30.7580   40.0240 C   0  0  0  0  0  0  0  0  0  0  0  0
   36.3810   30.0870   38.8700 C   0  0  0  0  0  0  0  0  0  0  0  0
   35.9520   28.7550   38.9770 C   0  0  0  0  0  0  0  0  0  0  0  0
   35.9570   28.1880   40.2180 N   0  0  0  0  0  0  0  0  0  0  0  0
   36.3550   28.8640   41.3030 C   0  0  0  0  0  0  0  0  0  0  0  0
   36.7750   30.1530   41.2360 N   0  0  0  0  0  0  0  0  0  0  0  0
   36.3880   30.5670   37.8870 H   0  0  0  0  0  0  0  0  0  0  0  0
   35.6320   28.2100   38.1030 H   0  0  0  0  0  0  0  0  0  0  0  0
   37.0430   27.8200   44.5750 H   0  0  0  0  0  0  0  0  0  0  0  0
   37.3470   28.3520   43.6800 C   0  0  0  0  0  0  0  0  0  0  0  0
   38.2940   29.0220   43.2160 O   0  0  0  0  0  0  0  0  0  0  0  0
   36.3780   28.3180   42.6170 N   0  0  0  0  0  0  0  0  0  0  0  0
   35.4470   27.8330   42.6620 H   0  0  0  0  0  0  0  0  0  0  0  0
   37.3160   32.4570   39.7760 S   0  0  0  0  0  0  0  0  0  0  0  0
   37.1900   33.1230   41.0120 H   0  0  0  0  0  0  0  0  0  0  0  0
  1  6  1  0  0  0  0
  2  3  1  0  0  0  0
  2  1  2  0  0  0  0
  3  4  2  0  0  0  0
  4  5  1  0  0  0  0
  5 12  1  0  0  0  0
  6  5  2  0  0  0  0
  7  2  1  0  0  0  0
  8  3  1  0  0  0  0
 10  9  1  0  0  0  0
 11 10  2  0  0  0  0
 12 13  1  0  0  0  0
 12 10  1  0  0  0  0
 14  1  1  0  0  0  0
 14 15  1  0  0  0  0
M  END
>  <minimizedAffinity>
-3.43389583

$$$$

 OpenBabel03252504213D

 15 15  0  0  0  0  0  0  0  0999 V2000
   38.5370   28.7990   42.6350 C   0  0  0  0  0  0  0  0  0  0  0  0
   39.5120   29.7910   42.5250 C   0  0  0  0  0  0  0  0  0  0  0  0
   39.1930   30.9840   41.8590 C   0  0  0  0  0  0  0  0  0  0  0  0
   37.9320   31.1050   41.3510 N   0  0  0  0  0  0  0  0  0  0  0  0
   37.0230   30.1300   41.4750 C   0  0  0  0  0  0  0  0  0  0  0  0
   37.2970   28.9650   42.1140 N   0  0  0  0  0  0  0  0  0  0  0  0
   40.5160   29.6660   42.9420 H   0  0  0  0  0  0  0  0  0  0  0  0
   39.9250   31.7690   41.7580 H   0  0  0  0  0  0  0  0  0  0  0  0
   33.8830   29.6720   39.9930 H   0  0  0  0  0  0  0  0  0  0  0  0
   34.8680   29.2870   40.2340 C   0  0  0  0  0  0  0  0  0  0  0  0
   35.5800   28.2700   40.0950 O   0  0  0  0  0  0  0  0  0  0  0  0
   35.6970   30.2090   40.9640 N   0  0  0  0  0  0  0  0  0  0  0  0
   35.4130   31.1770   41.2570 H   0  0  0  0  0  0  0  0  0  0  0  0
   39.0500   27.3140   43.5060 S   0  0  0  0  0  0  0  0  0  0  0  0
   37.8830   26.6750   43.9740 H   0  0  0  0  0  0  0  0  0  0  0  0
  1 14  1  0  0  0  0
  2  1  1  0  0  0  0
  2  7  1  0  0  0  0
  3  2  2  0  0  0  0
  4  5  2  0  0  0  0
  4  3  1  0  0  0  0
  5  6  1  0  0  0  0
  6  1  2  0  0  0  0
  8  3  1  0  0  0  0
  9 10  1  0  0  0  0
 10 12  1  0  0  0  0
 11 10  2  0  0  0  0
 12 13  1  0  0  0  0
 12  5  1  0  0  0  0
 14 15  1  0  0  0  0
M  END
>  <minimizedAffinity>
-3.40978861

$$$$

 OpenBabel03252504213D

 15 15  0  0  0  0  0  0  0  0999 V2000
   36.7220   28.4780   41.5020 C   0  0  0  0  0  0  0  0  0  0  0  0
   37.2840   29.4360   42.3460 C   0  0  0  0  0  0  0  0  0  0  0  0
   38.3340   29.0580   43.1960 C   0  0  0  0  0  0  0  0  0  0  0  0
   38.7480   27.7580   43.1460 N   0  0  0  0  0  0  0  0  0  0  0  0
   38.1840   26.8660   42.3230 C   0  0  0  0  0  0  0  0  0  0  0  0
   37.1670   27.1990   41.4880 N   0  0  0  0  0  0  0  0  0  0  0  0
   36.9300   30.4710   42.3650 H   0  0  0  0  0  0  0  0  0  0  0  0
   38.7880   29.7760   43.8600 H   0  0  0  0  0  0  0  0  0  0  0  0
   38.4720   23.3820   42.1130 H   0  0  0  0  0  0  0  0  0  0  0  0
   37.8470   24.2670   42.1800 C   0  0  0  0  0  0  0  0  0  0  0  0
   36.6480   24.6130   42.2310 O   0  0  0  0  0  0  0  0  0  0  0  0
   38.5800   25.5030   42.2340 N   0  0  0  0  0  0  0  0  0  0  0  0
   39.6280   25.5870   42.2130 H   0  0  0  0  0  0  0  0  0  0  0  0
   35.3840   29.0680   40.4560 S   0  0  0  0  0  0  0  0  0  0  0  0
   35.2900   28.1900   39.3570 H   0  0  0  0  0  0  0  0  0  0  0  0
  1  2  1  0  0  0  0
  2  7  1  0  0  0  0
  2  3  2  0  0  0  0
  3  8  1  0  0  0  0
  4  3  1  0  0  0  0
  5  4  2  0  0  0  0
  6  1  2  0  0  0  0
  6  5  1  0  0  0  0
  9 10  1  0  0  0  0
 10 11  2  0  0  0  0
 10 12  1  0  0  0  0
 12  5  1  0  0  0  0
 13 12  1  0  0  0  0
 14  1  1  0  0  0  0
 15 14  1  0  0  0  0
M  END
>  <minimizedAffinity>
-3.31235933

$$$$

 OpenBabel03252504213D

 15 15  0  0  0  0  0  0  0  0999 V2000
   38.3980   27.2080   41.3260 C   0  0  0  0  0  0  0  0  0  0  0  0
   38.6320   26.8360   42.6510 C   0  0  0  0  0  0  0  0  0  0  0  0
   38.0750   27.6110   43.6800 C   0  0  0  0  0  0  0  0  0  0  0  0
   37.3280   28.6950   43.3200 N   0  0  0  0  0  0  0  0  0  0  0  0
   37.1260   29.0210   42.0370 C   0  0  0  0  0  0  0  0  0  0  0  0
   37.6490   28.2930   41.0170 N   0  0  0  0  0  0  0  0  0  0  0  0
   39.2360   25.9620   42.9090 H   0  0  0  0  0  0  0  0  0  0  0  0
   38.2390   27.3490   44.7130 H   0  0  0  0  0  0  0  0  0  0  0  0
   35.7620   31.8820   40.5480 H   0  0  0  0  0  0  0  0  0  0  0  0
   36.5680   31.1590   40.6200 C   0  0  0  0  0  0  0  0  0  0  0  0
   37.6780   30.8820   40.1200 O   0  0  0  0  0  0  0  0  0  0  0  0
   36.3560   30.1390   41.6120 N   0  0  0  0  0  0  0  0  0  0  0  0
   35.5110   30.0630   42.2320 H   0  0  0  0  0  0  0  0  0  0  0  0
   39.1570   26.1480   40.0880 S   0  0  0  0  0  0  0  0  0  0  0  0
   38.4380   26.3220   38.8870 H   0  0  0  0  0  0  0  0  0  0  0  0
  1  2  1  0  0  0  0
  2  7  1  0  0  0  0
  2  3  2  0  0  0  0
  3  8  1  0  0  0  0
  4  3  1  0  0  0  0
  5  4  2  0  0  0  0
  6  1  2  0  0  0  0
  6  5  1  0  0  0  0
  9 10  1  0  0  0  0
 10 12  1  0  0  0  0
 11 10  2  0  0  0  0
 12  5  1  0  0  0  0
 12 13  1  0  0  0  0
 14  1  1  0  0  0  0
 15 14  1  0  0  0  0
M  END
>  <minimizedAffinity>
-3.25224018

$$$$

 OpenBabel03252504213D

 15 15  0  0  0  0  0  0  0  0999 V2000
   36.6120   29.0010   41.5040 C   0  0  0  0  0  0  0  0  0  0  0  0
   36.5690   27.8490   42.2880 C   0  0  0  0  0  0  0  0  0  0  0  0
   37.5690   27.6480   43.2520 C   0  0  0  0  0  0  0  0  0  0  0  0
   38.5360   28.6040   43.3660 N   0  0  0  0  0  0  0  0  0  0  0  0
   38.5450   29.6970   42.5950 C   0  0  0  0  0  0  0  0  0  0  0  0
   37.5930   29.9240   41.6530 N   0  0  0  0  0  0  0  0  0  0  0  0
   35.7810   27.0980   42.1740 H   0  0  0  0  0  0  0  0  0  0  0  0
   37.5630   26.7660   43.8740 H   0  0  0  0  0  0  0  0  0  0  0  0
   40.9670   32.1770   42.0960 H   0  0  0  0  0  0  0  0  0  0  0  0
   40.2810   31.4440   41.6850 C   0  0  0  0  0  0  0  0  0  0  0  0
   39.8900   30.9760   40.5950 O   0  0  0  0  0  0  0  0  0  0  0  0
   39.5290   30.7220   42.6760 N   0  0  0  0  0  0  0  0  0  0  0  0
   39.6060   30.8600   43.7150 H   0  0  0  0  0  0  0  0  0  0  0  0
   35.2860   29.1590   40.3010 S   0  0  0  0  0  0  0  0  0  0  0  0
   35.1670   30.5280   39.9820 H   0  0  0  0  0  0  0  0  0  0  0  0
  1  6  2  0  0  0  0
  1  2  1  0  0  0  0
  2  3  2  0  0  0  0
  3  4  1  0  0  0  0
  3  8  1  0  0  0  0
  5 12  1  0  0  0  0
  5  4  2  0  0  0  0
  6  5  1  0  0  0  0
  7  2  1  0  0  0  0
 10  9  1  0  0  0  0
 10 12  1  0  0  0  0
 11 10  2  0  0  0  0
 12 13  1  0  0  0  0
 14  1  1  0  0  0  0
 15 14  1  0  0  0  0
M  END
>  <minimizedAffinity>
-3.249125

$$$$
