
 OpenBabel03252504543D

 27 28  0  0  1  0  0  0  0  0999 V2000
   47.7840   33.9710   42.0510 N   0  0  0  0  0  0  0  0  0  0  0  0
   47.8040   34.7380   40.8470 C   0  0  0  0  0  0  0  0  0  0  0  0
   48.9710   35.6630   41.1050 C   0  0  0  0  0  0  0  0  0  0  0  0
   49.5990   35.3140   42.4290 C   0  0  0  0  0  0  0  0  0  0  0  0
   48.9980   33.9150   42.7120 C   0  0  2  0  0  0  0  0  0  0  0  0
   47.2970   34.8340   39.9330 H   0  0  0  0  0  0  0  0  0  0  0  0
   49.3570   36.4450   40.4360 H   0  0  0  0  0  0  0  0  0  0  0  0
   50.6690   35.1310   42.2190 H   0  0  0  0  0  0  0  0  0  0  0  0
   49.3990   36.0280   43.2150 H   0  0  0  0  0  0  0  0  0  0  0  0
   49.0190   33.8300   43.8010 H   0  0  0  0  0  0  0  0  0  0  0  0
   50.5880   30.8770   41.8780 H   0  0  0  0  0  0  0  0  0  0  0  0
   49.8660   31.4740   42.4150 C   0  0  0  0  0  0  0  0  0  0  0  0
   49.0340   31.0100   43.2650 O   0  0  0  0  0  0  0  0  0  0  0  0
   49.8340   32.8680   42.1630 N   0  0  0  0  0  0  0  0  0  0  0  0
   50.5160   33.2650   41.4630 H   0  0  0  0  0  0  0  0  0  0  0  0
   46.5890   33.4730   42.4710 C   0  0  0  0  0  0  0  0  0  0  0  0
   46.7510   32.4440   42.9360 H   0  0  0  0  0  0  0  0  0  0  0  0
   45.8100   33.2250   41.7010 H   0  0  0  0  0  0  0  0  0  0  0  0
   44.6080   35.9960   44.4650 C   0  0  0  0  0  0  0  0  0  0  0  0
   45.2680   35.4380   43.3430 C   0  0  0  0  0  0  0  0  0  0  0  0
   45.9050   34.2160   43.5220 C   0  0  0  0  0  0  0  0  0  0  0  0
   45.8590   33.6400   44.7430 N   0  0  0  0  0  0  0  0  0  0  0  0
   45.2100   34.2060   45.8180 C   0  0  0  0  0  0  0  0  0  0  0  0
   44.5930   35.3830   45.6530 N   0  0  0  0  0  0  0  0  0  0  0  0
   44.1410   36.9450   44.2350 H   0  0  0  0  0  0  0  0  0  0  0  0
   45.3060   35.9000   42.3670 H   0  0  0  0  0  0  0  0  0  0  0  0
   45.1940   33.7200   46.7790 H   0  0  0  0  0  0  0  0  0  0  0  0
  1 16  1  0  0  0  0
  1  5  1  0  0  0  0
  2  3  2  0  0  0  0
  2  1  1  0  0  0  0
  3  4  1  0  0  0  0
  4  5  1  0  0  0  0
  4  9  1  0  0  0  0
  5 10  1  1  0  0  0
  6  2  1  0  0  0  0
  7  3  1  0  0  0  0
  8  4  1  0  0  0  0
 11 12  1  0  0  0  0
 12 13  2  0  0  0  0
 14 12  1  0  0  0  0
 14  5  1  0  0  0  0
 15 14  1  0  0  0  0
 16 17  1  0  0  0  0
 16 21  1  0  0  0  0
 18 16  1  0  0  0  0
 19 24  1  0  0  0  0
 20 21  1  0  0  0  0
 20 19  2  0  0  0  0
 21 22  2  0  0  0  0
 22 23  1  0  0  0  0
 23 27  1  0  0  0  0
 24 23  2  0  0  0  0
 25 19  1  0  0  0  0
 26 20  1  0  0  0  0
M  END
>  <minimizedAffinity>
-4.5846262

>  <minimizedRMSD>
1.45095897

$$$$
