
 OpenBabel03252509223D

 23 24  0  0  1  0  0  0  0  0999 V2000
   46.4960   35.1380   41.9990 C   0  0  1  0  0  0  0  0  0  0  0  0
   48.0300   35.2390   41.8740 C   0  0  0  0  0  0  0  0  0  0  0  0
   47.1260   34.1480   41.2070 C   0  0  2  0  0  0  0  0  0  0  0  0
   45.9710   36.0280   41.6040 H   0  0  0  0  0  0  0  0  0  0  0  0
   48.4260   35.9990   41.2030 H   0  0  0  0  0  0  0  0  0  0  0  0
   48.6730   34.9440   42.6930 H   0  0  0  0  0  0  0  0  0  0  0  0
   47.3450   33.1280   41.6370 H   0  0  0  0  0  0  0  0  0  0  0  0
   44.7700   35.1020   45.3440 C   0  0  0  0  0  0  0  0  0  0  0  0
   45.1360   35.5420   44.0450 C   0  0  0  0  0  0  0  0  0  0  0  0
   46.1080   34.8030   43.4190 C   0  0  0  0  0  0  0  0  0  0  0  0
   46.6800   33.7050   44.0380 N   0  0  0  0  0  0  0  0  0  0  0  0
   46.2960   33.3290   45.2730 C   0  0  0  0  0  0  0  0  0  0  0  0
   45.3350   34.0350   45.9270 N   0  0  0  0  0  0  0  0  0  0  0  0
   44.0020   35.6900   45.8330 H   0  0  0  0  0  0  0  0  0  0  0  0
   46.7330   32.4740   45.7690 H   0  0  0  0  0  0  0  0  0  0  0  0
   44.5770   36.6940   43.4200 N   0  0  0  0  0  0  0  0  0  0  0  0
   44.9530   37.4590   44.0340 H   0  0  0  0  0  0  0  0  0  0  0  0
   43.9680   36.7240   42.5890 H   0  0  0  0  0  0  0  0  0  0  0  0
   46.5610   33.3280   37.9140 H   0  0  0  0  0  0  0  0  0  0  0  0
   46.4130   33.2010   38.9740 C   0  0  0  0  0  0  0  0  0  0  0  0
   45.6680   32.3400   39.5100 O   0  0  0  0  0  0  0  0  0  0  0  0
   47.1720   34.1390   39.7640 N   0  0  0  0  0  0  0  0  0  0  0  0
   47.8000   34.8650   39.3220 H   0  0  0  0  0  0  0  0  0  0  0  0
  1  4  1  6  0  0  0
  1 10  1  0  0  0  0
  2  1  1  0  0  0  0
  2  6  1  0  0  0  0
  3  7  1  1  0  0  0
  3  2  1  0  0  0  0
  3  1  1  0  0  0  0
  5  2  1  0  0  0  0
  8 14  1  0  0  0  0
  8 13  1  0  0  0  0
  9  8  2  0  0  0  0
 10 11  2  0  0  0  0
 10  9  1  0  0  0  0
 11 12  1  0  0  0  0
 12 15  1  0  0  0  0
 12 13  2  0  0  0  0
 16 17  1  0  0  0  0
 16  9  1  0  0  0  0
 18 16  1  0  0  0  0
 19 20  1  0  0  0  0
 20 21  2  0  0  0  0
 20 22  1  0  0  0  0
 22  3  1  0  0  0  0
 23 22  1  0  0  0  0
M  END
>  <minimizedAffinity>
-4.27856255

>  <minimizedRMSD>
0.485398978

$$$$
