
 OpenBabel03252509223D

 23 24  0  0  1  0  0  0  0  0999 V2000
   46.5390   35.0600   41.9270 C   0  0  1  0  0  0  0  0  0  0  0  0
   48.0590   35.3200   41.8980 C   0  0  0  0  0  0  0  0  0  0  0  0
   47.3330   34.0650   41.3070 C   0  0  2  0  0  0  0  0  0  0  0  0
   45.9590   35.8350   41.3900 H   0  0  0  0  0  0  0  0  0  0  0  0
   48.4280   36.0390   41.1690 H   0  0  0  0  0  0  0  0  0  0  0  0
   48.6590   35.1950   42.7900 H   0  0  0  0  0  0  0  0  0  0  0  0
   47.6210   33.1310   41.8730 H   0  0  0  0  0  0  0  0  0  0  0  0
   44.6700   35.3520   45.1810 C   0  0  0  0  0  0  0  0  0  0  0  0
   45.1180   35.6800   43.8740 C   0  0  0  0  0  0  0  0  0  0  0  0
   46.0710   34.8470   43.3450 C   0  0  0  0  0  0  0  0  0  0  0  0
   46.5510   33.7650   44.0640 N   0  0  0  0  0  0  0  0  0  0  0  0
   46.0940   33.4980   45.3020 C   0  0  0  0  0  0  0  0  0  0  0  0
   45.1470   34.2990   45.8600 N   0  0  0  0  0  0  0  0  0  0  0  0
   43.9170   36.0140   45.5920 H   0  0  0  0  0  0  0  0  0  0  0  0
   46.4590   32.6580   45.8740 H   0  0  0  0  0  0  0  0  0  0  0  0
   44.6530   36.8140   43.1470 N   0  0  0  0  0  0  0  0  0  0  0  0
   45.0460   37.5990   43.7250 H   0  0  0  0  0  0  0  0  0  0  0  0
   44.0830   36.8200   42.2880 H   0  0  0  0  0  0  0  0  0  0  0  0
   48.4700   32.9910   38.2430 H   0  0  0  0  0  0  0  0  0  0  0  0
   48.4760   32.9960   39.3210 C   0  0  0  0  0  0  0  0  0  0  0  0
   49.2340   32.3090   40.0520 O   0  0  0  0  0  0  0  0  0  0  0  0
   47.5000   33.8970   39.8830 N   0  0  0  0  0  0  0  0  0  0  0  0
   46.8580   34.4790   39.2770 H   0  0  0  0  0  0  0  0  0  0  0  0
  1  4  1  6  0  0  0
  1 10  1  0  0  0  0
  2  1  1  0  0  0  0
  2  6  1  0  0  0  0
  3  7  1  1  0  0  0
  3  2  1  0  0  0  0
  3  1  1  0  0  0  0
  5  2  1  0  0  0  0
  8 14  1  0  0  0  0
  8 13  1  0  0  0  0
  9  8  2  0  0  0  0
 10  9  1  0  0  0  0
 10 11  2  0  0  0  0
 11 12  1  0  0  0  0
 12 13  2  0  0  0  0
 12 15  1  0  0  0  0
 16 17  1  0  0  0  0
 16  9  1  0  0  0  0
 18 16  1  0  0  0  0
 19 20  1  0  0  0  0
 20 22  1  0  0  0  0
 20 21  2  0  0  0  0
 22  3  1  0  0  0  0
 23 22  1  0  0  0  0
M  END
>  <minimizedAffinity>
-4.29155588

>  <minimizedRMSD>
0.413405925

$$$$
