
     RDKit          3D

 23 24  0  0  0  0  0  0  0  0999 V2000
   44.6215   35.4598   45.1330 C   0  0  0  0  0  0  0  0  0  0  0  0
   45.0970   35.7087   43.8195 C   0  0  0  0  0  0  0  0  0  0  0  0
   46.0450   34.8326   43.3529 C   0  0  0  0  0  0  0  0  0  0  0  0
   46.4926   33.7838   44.1374 N   0  0  0  0  0  0  0  0  0  0  0  0
   46.0094   33.5914   45.3786 C   0  0  0  0  0  0  0  0  0  0  0  0
   45.0668   34.4372   45.8763 N   0  0  0  0  0  0  0  0  0  0  0  0
   46.5408   34.9618   41.9339 C   0  0  1  0  0  0  0  0  0  0  0  0
   48.0481   35.2923   41.9220 C   0  0  0  0  0  0  0  0  0  0  0  0
   47.3971   33.9631   41.4106 C   0  0  2  0  0  0  0  0  0  0  0  0
   44.6646   36.8104   43.0238 N   0  0  0  0  0  0  0  0  0  0  0  0
   43.8726   36.1546   45.4941 H   0  0  0  0  0  0  0  0  0  0  0  0
   46.3490   32.7772   46.0020 H   0  0  0  0  0  0  0  0  0  0  0  0
   45.9414   35.6647   41.3256 H   0  0  0  0  0  0  0  0  0  0  0  0
   48.4033   35.9711   41.1501 H   0  0  0  0  0  0  0  0  0  0  0  0
   48.6277   35.2632   42.8354 H   0  0  0  0  0  0  0  0  0  0  0  0
   47.7116   33.0888   42.0526 H   0  0  0  0  0  0  0  0  0  0  0  0
   45.0616   37.6182   43.5660 H   0  0  0  0  0  0  0  0  0  0  0  0
   44.1115   36.7791   42.1550 H   0  0  0  0  0  0  0  0  0  0  0  0
   47.4678   32.4104   38.3416 H   0  0  0  0  0  0  0  0  0  0  0  0
   47.2397   32.4454   39.3948 C   0  0  0  0  0  0  0  0  0  0  0  0
   46.7074   31.5191   40.0592 O   0  0  0  0  0  0  0  0  0  0  0  0
   47.6109   33.6967   40.0079 N   0  0  0  0  0  0  0  0  0  0  0  0
   48.0586   34.4806   39.4579 H   0  0  0  0  0  0  0  0  0  0  0  0
  1  6  2  0
  2  1  1  0
  3  2  2  0
  3  4  1  0
  4  5  2  0
  5  6  1  0
  7  3  1  0
  8  7  1  0
  9  8  1  0
  9  7  1  0
 10  2  1  0
  1 11  1  0
  5 12  1  0
  7 13  1  6
  8 14  1  0
  8 15  1  0
  9 16  1  1
 10 17  1  0
 10 18  1  0
 19 20  1  0
 20 21  2  0
 20 22  1  0
 22 23  1  0
  9 22  1  0
M  ISO  7  11  14  12  14  13  13  14  13  15  13  16  13  19   1
M  END
>  <DihAtoms>  (1) 
7,8,21,19

>  <DihDeg>  (1) 
126.80900861728279

$$$$
