
 OpenBabel03242522283D

 34 36  0  0  0  0  0  0  0  0999 V2000
   38.9540   29.5610   40.8030 F   0  0  0  0  0  0  0  0  0  0  0  0
   37.8790   29.6120   39.9530 C   0  0  0  0  0  0  0  0  0  0  0  0
   37.6060   30.7430   39.2590 C   0  0  0  0  0  0  0  0  0  0  0  0
   36.5410   30.6850   38.3840 C   0  0  0  0  0  0  0  0  0  0  0  0
   35.7890   29.5520   38.2090 C   0  0  0  0  0  0  0  0  0  0  0  0
   36.1380   28.4530   38.9550 C   0  0  0  0  0  0  0  0  0  0  0  0
   37.1770   28.4500   39.8370 C   0  0  0  0  0  0  0  0  0  0  0  0
   36.4120   31.6620   37.8790 H   0  0  0  0  0  0  0  0  0  0  0  0
   35.0250   29.7440   37.4840 H   0  0  0  0  0  0  0  0  0  0  0  0
   35.4190   27.7750   38.5970 H   0  0  0  0  0  0  0  0  0  0  0  0
   37.4290   27.2340   40.5680 C   0  0  0  0  0  0  0  0  0  0  0  0
   38.0650   26.1840   39.9570 C   0  0  0  0  0  0  0  0  0  0  0  0
   38.2390   25.0190   40.6560 C   0  0  0  0  0  0  0  0  0  0  0  0
   37.7900   24.8760   41.9560 C   0  0  0  0  0  0  0  0  0  0  0  0
   37.1490   25.9780   42.5370 C   0  0  0  0  0  0  0  0  0  0  0  0
   36.9750   27.1450   41.8400 C   0  0  0  0  0  0  0  0  0  0  0  0
   38.4760   26.0970   38.9860 H   0  0  0  0  0  0  0  0  0  0  0  0
   38.7400   24.1330   40.2270 H   0  0  0  0  0  0  0  0  0  0  0  0
   37.9570   23.9200   42.4600 H   0  0  0  0  0  0  0  0  0  0  0  0
   36.8490   25.7350   43.5500 H   0  0  0  0  0  0  0  0  0  0  0  0
   37.2750   29.2860   44.4020 H   0  0  0  0  0  0  0  0  0  0  0  0
   37.3760   28.5750   43.5880 C   0  0  0  0  0  0  0  0  0  0  0  0
   38.5860   28.2280   43.4150 O   0  0  0  0  0  0  0  0  0  0  0  0
   36.3400   28.0100   42.7300 N   0  0  0  0  0  0  0  0  0  0  0  0
   35.3740   28.3450   42.9830 H   0  0  0  0  0  0  0  0  0  0  0  0
   38.9180   34.0900   40.4370 C   0  0  0  0  0  0  0  0  0  0  0  0
   38.0730   32.9870   40.2700 C   0  0  0  0  0  0  0  0  0  0  0  0
   38.4440   31.9160   39.4690 C   0  0  0  0  0  0  0  0  0  0  0  0
   39.6680   32.0140   38.8660 N   0  0  0  0  0  0  0  0  0  0  0  0
   40.4680   33.0760   39.0330 C   0  0  0  0  0  0  0  0  0  0  0  0
   40.0980   34.1040   39.8090 N   0  0  0  0  0  0  0  0  0  0  0  0
   38.4570   34.8210   41.0950 H   0  0  0  0  0  0  0  0  0  0  0  0
   37.1070   32.8700   40.7240 H   0  0  0  0  0  0  0  0  0  0  0  0
   41.4370   33.1850   38.5730 H   0  0  0  0  0  0  0  0  0  0  0  0
  2  1  1  0  0  0  0
  3 28  1  0  0  0  0
  3  2  2  0  0  0  0
  4  3  1  0  0  0  0
  5  4  2  0  0  0  0
  5  6  1  0  0  0  0
  6  7  2  0  0  0  0
  7  2  1  0  0  0  0
  7 11  1  0  0  0  0
  8  4  1  0  0  0  0
  9  5  1  0  0  0  0
 10  6  1  0  0  0  0
 11 16  1  0  0  0  0
 12 11  2  0  0  0  0
 12 13  1  0  0  0  0
 13 14  2  0  0  0  0
 14 19  1  0  0  0  0
 14 15  1  0  0  0  0
 15 20  1  0  0  0  0
 16 15  2  0  0  0  0
 16 24  1  0  0  0  0
 17 12  1  0  0  0  0
 18 13  1  0  0  0  0
 22 21  1  0  0  0  0
 23 22  2  0  0  0  0
 24 25  1  0  0  0  0
 24 22  1  0  0  0  0
 26 32  1  0  0  0  0
 27 26  1  0  0  0  0
 27 33  1  0  0  0  0
 28 27  2  0  0  0  0
 29 30  2  0  0  0  0
 29 28  1  0  0  0  0
 30 31  1  0  0  0  0
 31 26  2  0  0  0  0
 34 30  1  0  0  0  0
M  END
>  <minimizedAffinity>
-5.72070408

$$$$

 OpenBabel03242522283D

 34 36  0  0  0  0  0  0  0  0999 V2000
   39.5600   30.2990   39.4570 F   0  0  0  0  0  0  0  0  0  0  0  0
   39.1120   31.5730   39.6920 C   0  0  0  0  0  0  0  0  0  0  0  0
   39.9850   32.5650   39.9910 C   0  0  0  0  0  0  0  0  0  0  0  0
   39.4510   33.8260   40.1540 C   0  0  0  0  0  0  0  0  0  0  0  0
   38.1110   34.0850   40.0230 C   0  0  0  0  0  0  0  0  0  0  0  0
   37.2990   33.0190   39.7190 C   0  0  0  0  0  0  0  0  0  0  0  0
   37.7680   31.7500   39.5480 C   0  0  0  0  0  0  0  0  0  0  0  0
   40.2540   34.5490   40.3960 H   0  0  0  0  0  0  0  0  0  0  0  0
   37.9340   35.1270   40.1910 H   0  0  0  0  0  0  0  0  0  0  0  0
   36.3770   33.5210   39.6700 H   0  0  0  0  0  0  0  0  0  0  0  0
   36.8080   30.7190   39.2460 C   0  0  0  0  0  0  0  0  0  0  0  0
   36.6180   30.3160   37.9490 C   0  0  0  0  0  0  0  0  0  0  0  0
   35.6570   29.3770   37.6830 C   0  0  0  0  0  0  0  0  0  0  0  0
   34.8770   28.8280   38.6850 C   0  0  0  0  0  0  0  0  0  0  0  0
   35.1120   29.2690   39.9930 C   0  0  0  0  0  0  0  0  0  0  0  0
   36.0730   30.2090   40.2620 C   0  0  0  0  0  0  0  0  0  0  0  0
   37.1040   30.6100   37.0570 H   0  0  0  0  0  0  0  0  0  0  0  0
   35.4480   29.0070   36.6630 H   0  0  0  0  0  0  0  0  0  0  0  0
   34.1260   28.0840   38.4080 H   0  0  0  0  0  0  0  0  0  0  0  0
   34.4390   28.7650   40.6770 H   0  0  0  0  0  0  0  0  0  0  0  0
   37.3160   29.3180   43.2450 H   0  0  0  0  0  0  0  0  0  0  0  0
   37.0450   29.4750   42.2060 C   0  0  0  0  0  0  0  0  0  0  0  0
   37.7300   28.7420   41.4260 O   0  0  0  0  0  0  0  0  0  0  0  0
   36.0430   30.3760   41.6460 N   0  0  0  0  0  0  0  0  0  0  0  0
   35.5180   30.9100   42.3850 H   0  0  0  0  0  0  0  0  0  0  0  0
   43.6280   31.9340   39.1920 C   0  0  0  0  0  0  0  0  0  0  0  0
   42.2760   32.2530   39.0270 C   0  0  0  0  0  0  0  0  0  0  0  0
   41.4010   32.2430   40.1050 C   0  0  0  0  0  0  0  0  0  0  0  0
   41.9440   31.9070   41.3140 N   0  0  0  0  0  0  0  0  0  0  0  0
   43.2410   31.6040   41.4600 C   0  0  0  0  0  0  0  0  0  0  0  0
   44.0760   31.6170   40.4120 N   0  0  0  0  0  0  0  0  0  0  0  0
   44.1490   31.9960   38.2410 H   0  0  0  0  0  0  0  0  0  0  0  0
   41.8100   32.5210   38.0980 H   0  0  0  0  0  0  0  0  0  0  0  0
   43.7000   31.3350   42.3980 H   0  0  0  0  0  0  0  0  0  0  0  0
  1  2  1  0  0  0  0
  2  3  1  0  0  0  0
  3 28  1  0  0  0  0
  3  4  2  0  0  0  0
  4  8  1  0  0  0  0
  5  4  1  0  0  0  0
  5  9  1  0  0  0  0
  6  5  2  0  0  0  0
  7  2  2  0  0  0  0
  7  6  1  0  0  0  0
 10  6  1  0  0  0  0
 11  7  1  0  0  0  0
 11 16  1  0  0  0  0
 12 11  2  0  0  0  0
 13 12  1  0  0  0  0
 13 14  2  0  0  0  0
 14 15  1  0  0  0  0
 15 16  2  0  0  0  0
 15 20  1  0  0  0  0
 16 24  1  0  0  0  0
 17 12  1  0  0  0  0
 18 13  1  0  0  0  0
 19 14  1  0  0  0  0
 22 21  1  0  0  0  0
 23 22  2  0  0  0  0
 24 22  1  0  0  0  0
 24 25  1  0  0  0  0
 26 31  1  0  0  0  0
 27 26  2  0  0  0  0
 27 28  1  0  0  0  0
 28 29  2  0  0  0  0
 29 30  1  0  0  0  0
 30 34  1  0  0  0  0
 31 30  2  0  0  0  0
 32 26  1  0  0  0  0
 33 27  1  0  0  0  0
M  END
>  <minimizedAffinity>
-5.67659855

$$$$

 OpenBabel03242522283D

 34 36  0  0  0  0  0  0  0  0999 V2000
   38.0380   27.9070   39.6530 F   0  0  0  0  0  0  0  0  0  0  0  0
   37.8490   28.0310   41.0050 C   0  0  0  0  0  0  0  0  0  0  0  0
   37.8000   29.2570   41.5820 C   0  0  0  0  0  0  0  0  0  0  0  0
   37.5480   29.2890   42.9370 C   0  0  0  0  0  0  0  0  0  0  0  0
   37.3510   28.1530   43.6800 C   0  0  0  0  0  0  0  0  0  0  0  0
   37.4180   26.9540   43.0120 C   0  0  0  0  0  0  0  0  0  0  0  0
   37.6670   26.8580   41.6750 C   0  0  0  0  0  0  0  0  0  0  0  0
   37.5340   30.3360   43.2950 H   0  0  0  0  0  0  0  0  0  0  0  0
   37.1710   28.4240   44.7000 H   0  0  0  0  0  0  0  0  0  0  0  0
   37.2160   26.3060   43.8140 H   0  0  0  0  0  0  0  0  0  0  0  0
   37.7260   25.5390   41.1000 C   0  0  0  0  0  0  0  0  0  0  0  0
   36.5730   24.9110   40.7000 C   0  0  0  0  0  0  0  0  0  0  0  0
   36.6510   23.6340   40.2120 C   0  0  0  0  0  0  0  0  0  0  0  0
   37.8580   22.9640   40.1120 C   0  0  0  0  0  0  0  0  0  0  0  0
   39.0060   23.6490   40.5300 C   0  0  0  0  0  0  0  0  0  0  0  0
   38.9300   24.9280   41.0180 C   0  0  0  0  0  0  0  0  0  0  0  0
   35.5710   25.2480   40.6960 H   0  0  0  0  0  0  0  0  0  0  0  0
   35.7650   23.0670   39.8740 H   0  0  0  0  0  0  0  0  0  0  0  0
   37.8540   21.9460   39.7160 H   0  0  0  0  0  0  0  0  0  0  0  0
   39.8770   23.0170   40.4000 H   0  0  0  0  0  0  0  0  0  0  0  0
   41.4500   24.9360   43.2300 H   0  0  0  0  0  0  0  0  0  0  0  0
   40.5330   24.8370   42.6570 C   0  0  0  0  0  0  0  0  0  0  0  0
   39.6280   24.2390   43.3180 O   0  0  0  0  0  0  0  0  0  0  0  0
   40.2480   25.2890   41.2990 N   0  0  0  0  0  0  0  0  0  0  0  0
   41.0590   25.7960   40.8600 H   0  0  0  0  0  0  0  0  0  0  0  0
   37.2090   32.3430   39.4750 C   0  0  0  0  0  0  0  0  0  0  0  0
   36.9600   31.2210   40.2750 C   0  0  0  0  0  0  0  0  0  0  0  0
   38.0000   30.4340   40.7470 C   0  0  0  0  0  0  0  0  0  0  0  0
   39.2600   30.8240   40.3840 N   0  0  0  0  0  0  0  0  0  0  0  0
   39.4860   31.8990   39.6180 C   0  0  0  0  0  0  0  0  0  0  0  0
   38.4720   32.6520   39.1670 N   0  0  0  0  0  0  0  0  0  0  0  0
   36.2750   32.8280   39.2050 H   0  0  0  0  0  0  0  0  0  0  0  0
   35.9890   30.8810   40.5820 H   0  0  0  0  0  0  0  0  0  0  0  0
   40.4650   32.2340   39.3130 H   0  0  0  0  0  0  0  0  0  0  0  0
  1  2  1  0  0  0  0
  2  3  2  0  0  0  0
  2  7  1  0  0  0  0
  3  4  1  0  0  0  0
  4  8  1  0  0  0  0
  4  5  2  0  0  0  0
  5  9  1  0  0  0  0
  6  5  1  0  0  0  0
  6 10  1  0  0  0  0
  7  6  2  0  0  0  0
 11  7  1  0  0  0  0
 12 11  2  0  0  0  0
 13 12  1  0  0  0  0
 14 13  2  0  0  0  0
 14 15  1  0  0  0  0
 15 16  2  0  0  0  0
 16 11  1  0  0  0  0
 16 24  1  0  0  0  0
 17 12  1  0  0  0  0
 18 13  1  0  0  0  0
 19 14  1  0  0  0  0
 20 15  1  0  0  0  0
 22 21  1  0  0  0  0
 22 23  2  0  0  0  0
 24 22  1  0  0  0  0
 25 24  1  0  0  0  0
 26 27  1  0  0  0  0
 27 33  1  0  0  0  0
 27 28  2  0  0  0  0
 28  3  1  0  0  0  0
 29 28  1  0  0  0  0
 30 29  2  0  0  0  0
 31 26  2  0  0  0  0
 31 30  1  0  0  0  0
 32 26  1  0  0  0  0
 34 30  1  0  0  0  0
M  END
>  <minimizedAffinity>
-5.56421375

$$$$

 OpenBabel03242522283D

 34 36  0  0  0  0  0  0  0  0999 V2000
   37.9970   27.5840   39.6400 F   0  0  0  0  0  0  0  0  0  0  0  0
   38.1860   27.5710   40.9980 C   0  0  0  0  0  0  0  0  0  0  0  0
   38.2940   26.3970   41.6650 C   0  0  0  0  0  0  0  0  0  0  0  0
   38.5400   26.4790   43.0200 C   0  0  0  0  0  0  0  0  0  0  0  0
   38.6750   27.6760   43.6750 C   0  0  0  0  0  0  0  0  0  0  0  0
   38.5490   28.8170   42.9190 C   0  0  0  0  0  0  0  0  0  0  0  0
   38.3030   28.7990   41.5790 C   0  0  0  0  0  0  0  0  0  0  0  0
   38.6060   25.4640   43.4560 H   0  0  0  0  0  0  0  0  0  0  0  0
   38.8620   27.4930   44.7130 H   0  0  0  0  0  0  0  0  0  0  0  0
   38.7140   29.5330   43.6710 H   0  0  0  0  0  0  0  0  0  0  0  0
   38.1800   30.0660   40.9060 C   0  0  0  0  0  0  0  0  0  0  0  0
   39.2930   30.6870   40.3980 C   0  0  0  0  0  0  0  0  0  0  0  0
   39.1560   31.9180   39.8160 C   0  0  0  0  0  0  0  0  0  0  0  0
   37.9290   32.5510   39.7280 C   0  0  0  0  0  0  0  0  0  0  0  0
   36.8220   31.8750   40.2570 C   0  0  0  0  0  0  0  0  0  0  0  0
   36.9570   30.6420   40.8400 C   0  0  0  0  0  0  0  0  0  0  0  0
   40.3030   30.3740   40.3670 H   0  0  0  0  0  0  0  0  0  0  0  0
   40.0090   32.4770   39.3880 H   0  0  0  0  0  0  0  0  0  0  0  0
   37.8850   33.5340   39.2530 H   0  0  0  0  0  0  0  0  0  0  0  0
   35.9290   32.4750   40.1250 H   0  0  0  0  0  0  0  0  0  0  0  0
   34.0900   29.1200   39.9980 H   0  0  0  0  0  0  0  0  0  0  0  0
   35.0790   29.5600   40.0870 C   0  0  0  0  0  0  0  0  0  0  0  0
   35.7640   29.3950   39.0300 O   0  0  0  0  0  0  0  0  0  0  0  0
   35.6660   30.2740   41.2170 N   0  0  0  0  0  0  0  0  0  0  0  0
   34.9990   30.3750   42.0250 H   0  0  0  0  0  0  0  0  0  0  0  0
   36.9070   23.2250   40.1390 C   0  0  0  0  0  0  0  0  0  0  0  0
   36.9820   24.4170   40.8700 C   0  0  0  0  0  0  0  0  0  0  0  0
   38.1590   25.1510   40.9220 C   0  0  0  0  0  0  0  0  0  0  0  0
   39.2170   24.6390   40.2240 N   0  0  0  0  0  0  0  0  0  0  0  0
   39.1330   23.4970   39.5280 C   0  0  0  0  0  0  0  0  0  0  0  0
   37.9920   22.7960   39.4860 N   0  0  0  0  0  0  0  0  0  0  0  0
   35.9120   22.7970   40.2180 H   0  0  0  0  0  0  0  0  0  0  0  0
   36.1780   24.8530   41.4300 H   0  0  0  0  0  0  0  0  0  0  0  0
   39.9480   23.0650   38.9680 H   0  0  0  0  0  0  0  0  0  0  0  0
  1  2  1  0  0  0  0
  2  7  2  0  0  0  0
  2  3  1  0  0  0  0
  3  4  2  0  0  0  0
  4  8  1  0  0  0  0
  4  5  1  0  0  0  0
  5  9  1  0  0  0  0
  6 10  1  0  0  0  0
  6  5  2  0  0  0  0
  7  6  1  0  0  0  0
 11  7  1  0  0  0  0
 12 11  2  0  0  0  0
 13 12  1  0  0  0  0
 14 13  2  0  0  0  0
 14 15  1  0  0  0  0
 15 16  2  0  0  0  0
 16 11  1  0  0  0  0
 16 24  1  0  0  0  0
 17 12  1  0  0  0  0
 18 13  1  0  0  0  0
 19 14  1  0  0  0  0
 20 15  1  0  0  0  0
 21 22  1  0  0  0  0
 22 24  1  0  0  0  0
 23 22  2  0  0  0  0
 24 25  1  0  0  0  0
 26 32  1  0  0  0  0
 26 27  1  0  0  0  0
 27 28  2  0  0  0  0
 27 33  1  0  0  0  0
 28  3  1  0  0  0  0
 29 28  1  0  0  0  0
 30 29  2  0  0  0  0
 31 30  1  0  0  0  0
 31 26  2  0  0  0  0
 34 30  1  0  0  0  0
M  END
>  <minimizedAffinity>
-5.46531105

$$$$

 OpenBabel03242522283D

 34 36  0  0  0  0  0  0  0  0999 V2000
   39.0550   27.6700   39.9990 F   0  0  0  0  0  0  0  0  0  0  0  0
   38.4970   27.5410   41.2450 C   0  0  0  0  0  0  0  0  0  0  0  0
   39.2830   27.3470   42.3320 C   0  0  0  0  0  0  0  0  0  0  0  0
   38.6410   27.2870   43.5510 C   0  0  0  0  0  0  0  0  0  0  0  0
   37.2820   27.4160   43.6790 C   0  0  0  0  0  0  0  0  0  0  0  0
   36.5650   27.6090   42.5230 C   0  0  0  0  0  0  0  0  0  0  0  0
   37.1420   27.6750   41.2900 C   0  0  0  0  0  0  0  0  0  0  0  0
   39.3790   27.1240   44.3600 H   0  0  0  0  0  0  0  0  0  0  0  0
   37.0150   27.3380   44.7120 H   0  0  0  0  0  0  0  0  0  0  0  0
   35.6020   27.6860   42.9370 H   0  0  0  0  0  0  0  0  0  0  0  0
   36.2740   27.8670   40.1560 C   0  0  0  0  0  0  0  0  0  0  0  0
   36.2070   26.9130   39.1730 C   0  0  0  0  0  0  0  0  0  0  0  0
   35.4200   27.1470   38.0770 C   0  0  0  0  0  0  0  0  0  0  0  0
   34.6950   28.3170   37.9370 C   0  0  0  0  0  0  0  0  0  0  0  0
   34.7930   29.2580   38.9700 C   0  0  0  0  0  0  0  0  0  0  0  0
   35.5800   29.0250   40.0680 C   0  0  0  0  0  0  0  0  0  0  0  0
   36.6770   25.9690   39.0950 H   0  0  0  0  0  0  0  0  0  0  0  0
   35.3200   26.4250   37.2460 H   0  0  0  0  0  0  0  0  0  0  0  0
   34.0860   28.4450   37.0390 H   0  0  0  0  0  0  0  0  0  0  0  0
   34.1810   30.1220   38.7380 H   0  0  0  0  0  0  0  0  0  0  0  0
   36.6850   32.0600   40.9680 H   0  0  0  0  0  0  0  0  0  0  0  0
   36.4800   31.0800   40.5490 C   0  0  0  0  0  0  0  0  0  0  0  0
   37.3260   30.7660   39.6540 O   0  0  0  0  0  0  0  0  0  0  0  0
   35.4100   30.1450   40.8820 N   0  0  0  0  0  0  0  0  0  0  0  0
   34.7890   30.4970   41.6550 H   0  0  0  0  0  0  0  0  0  0  0  0
   42.7500   25.9780   41.6890 C   0  0  0  0  0  0  0  0  0  0  0  0
   41.3620   26.0330   41.8580 C   0  0  0  0  0  0  0  0  0  0  0  0
   40.7230   27.2310   42.1460 C   0  0  0  0  0  0  0  0  0  0  0  0
   41.5300   28.3310   42.2520 N   0  0  0  0  0  0  0  0  0  0  0  0
   42.8580   28.2650   42.0880 C   0  0  0  0  0  0  0  0  0  0  0  0
   43.4640   27.1020   41.8100 N   0  0  0  0  0  0  0  0  0  0  0  0
   43.0630   24.9610   41.4710 H   0  0  0  0  0  0  0  0  0  0  0  0
   40.6940   25.1970   41.7840 H   0  0  0  0  0  0  0  0  0  0  0  0
   43.5220   29.1120   42.1650 H   0  0  0  0  0  0  0  0  0  0  0  0
  1  2  1  0  0  0  0
  2  7  2  0  0  0  0
  2  3  1  0  0  0  0
  3  4  2  0  0  0  0
  4  5  1  0  0  0  0
  4  8  1  0  0  0  0
  5  9  1  0  0  0  0
  6 10  1  0  0  0  0
  6  5  2  0  0  0  0
  7  6  1  0  0  0  0
 11  7  1  0  0  0  0
 12 11  2  0  0  0  0
 13 12  1  0  0  0  0
 14 13  2  0  0  0  0
 14 15  1  0  0  0  0
 15 16  2  0  0  0  0
 16 11  1  0  0  0  0
 16 24  1  0  0  0  0
 17 12  1  0  0  0  0
 18 13  1  0  0  0  0
 19 14  1  0  0  0  0
 20 15  1  0  0  0  0
 22 24  1  0  0  0  0
 22 21  1  0  0  0  0
 23 22  2  0  0  0  0
 24 25  1  0  0  0  0
 26 31  2  0  0  0  0
 26 27  1  0  0  0  0
 27 28  2  0  0  0  0
 28 29  1  0  0  0  0
 28  3  1  0  0  0  0
 30 34  1  0  0  0  0
 30 29  2  0  0  0  0
 31 30  1  0  0  0  0
 32 26  1  0  0  0  0
 33 27  1  0  0  0  0
M  END
>  <minimizedAffinity>
-5.46241093

$$$$

 OpenBabel03242522283D

 34 36  0  0  0  0  0  0  0  0999 V2000
   39.0850   28.3340   39.6670 F   0  0  0  0  0  0  0  0  0  0  0  0
   37.9950   29.0790   40.0380 C   0  0  0  0  0  0  0  0  0  0  0  0
   37.9890   30.4220   39.8610 C   0  0  0  0  0  0  0  0  0  0  0  0
   36.8290   31.0830   40.2080 C   0  0  0  0  0  0  0  0  0  0  0  0
   35.7290   30.4330   40.7040 C   0  0  0  0  0  0  0  0  0  0  0  0
   35.8240   29.0700   40.8510 C   0  0  0  0  0  0  0  0  0  0  0  0
   36.9440   28.3630   40.5280 C   0  0  0  0  0  0  0  0  0  0  0  0
   36.9420   32.1680   40.0240 H   0  0  0  0  0  0  0  0  0  0  0  0
   34.9540   31.1460   40.8980 H   0  0  0  0  0  0  0  0  0  0  0  0
   34.8590   28.8750   41.2170 H   0  0  0  0  0  0  0  0  0  0  0  0
   36.9190   26.9390   40.7430 C   0  0  0  0  0  0  0  0  0  0  0  0
   36.6060   26.0930   39.7100 C   0  0  0  0  0  0  0  0  0  0  0  0
   36.5310   24.7480   39.9560 C   0  0  0  0  0  0  0  0  0  0  0  0
   36.7610   24.2230   41.2150 C   0  0  0  0  0  0  0  0  0  0  0  0
   37.0800   25.1270   42.2360 C   0  0  0  0  0  0  0  0  0  0  0  0
   37.1570   26.4740   41.9920 C   0  0  0  0  0  0  0  0  0  0  0  0
   36.3990   26.2940   38.6920 H   0  0  0  0  0  0  0  0  0  0  0  0
   36.2820   24.0090   39.1730 H   0  0  0  0  0  0  0  0  0  0  0  0
   36.6840   23.1410   41.3480 H   0  0  0  0  0  0  0  0  0  0  0  0
   37.2350   24.5910   43.1660 H   0  0  0  0  0  0  0  0  0  0  0  0
   39.6320   27.4700   44.0230 H   0  0  0  0  0  0  0  0  0  0  0  0
   38.9780   27.0940   43.2420 C   0  0  0  0  0  0  0  0  0  0  0  0
   39.6370   26.6510   42.2500 O   0  0  0  0  0  0  0  0  0  0  0  0
   37.5200   27.0460   43.2110 N   0  0  0  0  0  0  0  0  0  0  0  0
   37.0820   27.4120   44.0950 H   0  0  0  0  0  0  0  0  0  0  0  0
   40.4890   32.0040   37.5040 C   0  0  0  0  0  0  0  0  0  0  0  0
   39.3240   31.3870   37.9740 C   0  0  0  0  0  0  0  0  0  0  0  0
   39.1780   31.0640   39.3160 C   0  0  0  0  0  0  0  0  0  0  0  0
   40.2310   31.3840   40.1290 N   0  0  0  0  0  0  0  0  0  0  0  0
   41.3410   31.9740   39.6660 C   0  0  0  0  0  0  0  0  0  0  0  0
   41.4710   32.2810   38.3680 N   0  0  0  0  0  0  0  0  0  0  0  0
   40.4180   32.1760   36.4340 H   0  0  0  0  0  0  0  0  0  0  0  0
   38.4770   31.1200   37.3730 H   0  0  0  0  0  0  0  0  0  0  0  0
   42.1880   32.2400   40.2780 H   0  0  0  0  0  0  0  0  0  0  0  0
  1  2  1  0  0  0  0
  2  7  1  0  0  0  0
  3  2  2  0  0  0  0
  3  4  1  0  0  0  0
  4  5  2  0  0  0  0
  5  6  1  0  0  0  0
  5  9  1  0  0  0  0
  6 10  1  0  0  0  0
  7 11  1  0  0  0  0
  7  6  2  0  0  0  0
  8  4  1  0  0  0  0
 11 16  1  0  0  0  0
 12 13  1  0  0  0  0
 12 11  2  0  0  0  0
 13 14  2  0  0  0  0
 14 19  1  0  0  0  0
 14 15  1  0  0  0  0
 15 20  1  0  0  0  0
 16 15  2  0  0  0  0
 16 24  1  0  0  0  0
 17 12  1  0  0  0  0
 18 13  1  0  0  0  0
 22 21  1  0  0  0  0
 23 22  2  0  0  0  0
 24 22  1  0  0  0  0
 24 25  1  0  0  0  0
 26 27  2  0  0  0  0
 26 31  1  0  0  0  0
 27 28  1  0  0  0  0
 28  3  1  0  0  0  0
 28 29  2  0  0  0  0
 30 29  1  0  0  0  0
 30 34  1  0  0  0  0
 31 30  2  0  0  0  0
 32 26  1  0  0  0  0
 33 27  1  0  0  0  0
M  END
>  <minimizedAffinity>
-5.42331457

$$$$

 OpenBabel03242522283D

 34 36  0  0  0  0  0  0  0  0999 V2000
   39.0470   28.6970   40.3000 F   0  0  0  0  0  0  0  0  0  0  0  0
   38.4960   28.1610   41.4350 C   0  0  0  0  0  0  0  0  0  0  0  0
   39.2670   27.9110   42.5210 C   0  0  0  0  0  0  0  0  0  0  0  0
   38.6180   27.4270   43.6380 C   0  0  0  0  0  0  0  0  0  0  0  0
   37.2650   27.2070   43.6690 C   0  0  0  0  0  0  0  0  0  0  0  0
   36.5620   27.4890   42.5230 C   0  0  0  0  0  0  0  0  0  0  0  0
   37.1480   27.9660   41.3880 C   0  0  0  0  0  0  0  0  0  0  0  0
   39.3450   27.2590   44.4550 H   0  0  0  0  0  0  0  0  0  0  0  0
   36.9890   26.8350   44.6340 H   0  0  0  0  0  0  0  0  0  0  0  0
   35.5960   27.2450   42.8560 H   0  0  0  0  0  0  0  0  0  0  0  0
   36.2990   28.2060   40.2490 C   0  0  0  0  0  0  0  0  0  0  0  0
   36.1950   27.2640   39.2570 C   0  0  0  0  0  0  0  0  0  0  0  0
   35.4290   27.5430   38.1580 C   0  0  0  0  0  0  0  0  0  0  0  0
   34.7600   28.7460   38.0210 C   0  0  0  0  0  0  0  0  0  0  0  0
   34.8950   29.6740   39.0620 C   0  0  0  0  0  0  0  0  0  0  0  0
   35.6610   29.3970   40.1640 C   0  0  0  0  0  0  0  0  0  0  0  0
   36.6210   26.2990   39.1760 H   0  0  0  0  0  0  0  0  0  0  0  0
   35.3020   26.8330   37.3210 H   0  0  0  0  0  0  0  0  0  0  0  0
   34.1660   28.9100   37.1190 H   0  0  0  0  0  0  0  0  0  0  0  0
   34.3250   30.5680   38.8330 H   0  0  0  0  0  0  0  0  0  0  0  0
   36.8240   32.4260   41.0090 H   0  0  0  0  0  0  0  0  0  0  0  0
   36.5940   31.4470   40.6000 C   0  0  0  0  0  0  0  0  0  0  0  0
   37.3930   31.1280   39.6650 O   0  0  0  0  0  0  0  0  0  0  0  0
   35.5370   30.5170   40.9860 N   0  0  0  0  0  0  0  0  0  0  0  0
   34.9560   30.8720   41.7880 H   0  0  0  0  0  0  0  0  0  0  0  0
   42.6570   29.5740   42.7470 C   0  0  0  0  0  0  0  0  0  0  0  0
   41.2750   29.3720   42.8440 C   0  0  0  0  0  0  0  0  0  0  0  0
   40.6970   28.1760   42.4430 C   0  0  0  0  0  0  0  0  0  0  0  0
   41.5550   27.2280   41.9560 N   0  0  0  0  0  0  0  0  0  0  0  0
   42.8760   27.4330   41.8670 C   0  0  0  0  0  0  0  0  0  0  0  0
   43.4230   28.5930   42.2580 N   0  0  0  0  0  0  0  0  0  0  0  0
   42.9190   30.5640   43.1060 H   0  0  0  0  0  0  0  0  0  0  0  0
   40.5690   30.0870   43.2190 H   0  0  0  0  0  0  0  0  0  0  0  0
   43.5790   26.7080   41.4890 H   0  0  0  0  0  0  0  0  0  0  0  0
  1  2  1  0  0  0  0
  2  3  1  0  0  0  0
  3  4  2  0  0  0  0
  4  5  1  0  0  0  0
  4  8  1  0  0  0  0
  5  9  1  0  0  0  0
  6 10  1  0  0  0  0
  6  5  2  0  0  0  0
  7  2  2  0  0  0  0
  7  6  1  0  0  0  0
 11  7  1  0  0  0  0
 12 11  2  0  0  0  0
 13 12  1  0  0  0  0
 14 13  2  0  0  0  0
 14 15  1  0  0  0  0
 15 16  2  0  0  0  0
 16 11  1  0  0  0  0
 16 24  1  0  0  0  0
 17 12  1  0  0  0  0
 18 13  1  0  0  0  0
 19 14  1  0  0  0  0
 20 15  1  0  0  0  0
 22 24  1  0  0  0  0
 22 21  1  0  0  0  0
 23 22  2  0  0  0  0
 24 25  1  0  0  0  0
 26 27  1  0  0  0  0
 26 32  1  0  0  0  0
 27 33  1  0  0  0  0
 28  3  1  0  0  0  0
 28 27  2  0  0  0  0
 29 28  1  0  0  0  0
 30 29  2  0  0  0  0
 30 31  1  0  0  0  0
 31 26  2  0  0  0  0
 34 30  1  0  0  0  0
M  END
>  <minimizedAffinity>
-5.39651537

$$$$

 OpenBabel03242522283D

 34 36  0  0  0  0  0  0  0  0999 V2000
   40.1190   29.7220   40.2200 F   0  0  0  0  0  0  0  0  0  0  0  0
   39.2500   30.7800   40.1420 C   0  0  0  0  0  0  0  0  0  0  0  0
   39.5790   31.8890   39.4370 C   0  0  0  0  0  0  0  0  0  0  0  0
   38.6210   32.8790   39.3650 C   0  0  0  0  0  0  0  0  0  0  0  0
   37.3940   32.7650   39.9650 C   0  0  0  0  0  0  0  0  0  0  0  0
   37.1460   31.6060   40.6590 C   0  0  0  0  0  0  0  0  0  0  0  0
   38.0540   30.5940   40.7680 C   0  0  0  0  0  0  0  0  0  0  0  0
   39.0010   33.7310   38.7690 H   0  0  0  0  0  0  0  0  0  0  0  0
   36.8220   33.6490   39.7720 H   0  0  0  0  0  0  0  0  0  0  0  0
   36.1630   31.8060   40.9710 H   0  0  0  0  0  0  0  0  0  0  0  0
   37.6740   29.4370   41.5380 C   0  0  0  0  0  0  0  0  0  0  0  0
   37.8930   29.4100   42.8920 C   0  0  0  0  0  0  0  0  0  0  0  0
   37.5780   28.2750   43.5900 C   0  0  0  0  0  0  0  0  0  0  0  0
   37.0480   27.1590   42.9670 C   0  0  0  0  0  0  0  0  0  0  0  0
   36.8410   27.2370   41.5840 C   0  0  0  0  0  0  0  0  0  0  0  0
   37.1550   28.3730   40.8830 C   0  0  0  0  0  0  0  0  0  0  0  0
   38.2810   30.1480   43.5430 H   0  0  0  0  0  0  0  0  0  0  0  0
   37.7280   28.1820   44.6810 H   0  0  0  0  0  0  0  0  0  0  0  0
   36.8200   26.2830   43.5790 H   0  0  0  0  0  0  0  0  0  0  0  0
   36.4260   26.3040   41.2220 H   0  0  0  0  0  0  0  0  0  0  0  0
   34.7790   28.4980   38.5210 H   0  0  0  0  0  0  0  0  0  0  0  0
   35.4110   28.5430   39.4020 C   0  0  0  0  0  0  0  0  0  0  0  0
   34.8030   29.0610   40.3900 O   0  0  0  0  0  0  0  0  0  0  0  0
   36.7920   28.1000   39.5650 N   0  0  0  0  0  0  0  0  0  0  0  0
   37.1840   27.6610   38.6910 H   0  0  0  0  0  0  0  0  0  0  0  0
   43.2570   32.4890   38.7870 C   0  0  0  0  0  0  0  0  0  0  0  0
   42.0210   32.4470   39.4420 C   0  0  0  0  0  0  0  0  0  0  0  0
   40.8900   31.9560   38.8050 C   0  0  0  0  0  0  0  0  0  0  0  0
   41.0650   31.5260   37.5180 N   0  0  0  0  0  0  0  0  0  0  0  0
   42.2540   31.5720   36.9020 C   0  0  0  0  0  0  0  0  0  0  0  0
   43.3400   32.0480   37.5280 N   0  0  0  0  0  0  0  0  0  0  0  0
   44.0180   32.9020   39.4440 H   0  0  0  0  0  0  0  0  0  0  0  0
   41.8400   32.7730   40.4480 H   0  0  0  0  0  0  0  0  0  0  0  0
   42.4270   31.2420   35.8900 H   0  0  0  0  0  0  0  0  0  0  0  0
  2  1  1  0  0  0  0
  2  7  1  0  0  0  0
  3  2  2  0  0  0  0
  4  3  1  0  0  0  0
  4  5  2  0  0  0  0
  5  6  1  0  0  0  0
  6  7  2  0  0  0  0
  6 10  1  0  0  0  0
  7 11  1  0  0  0  0
  8  4  1  0  0  0  0
  9  5  1  0  0  0  0
 11 12  1  0  0  0  0
 12 17  1  0  0  0  0
 12 13  2  0  0  0  0
 13 18  1  0  0  0  0
 14 19  1  0  0  0  0
 14 13  1  0  0  0  0
 15 14  2  0  0  0  0
 16 11  2  0  0  0  0
 16 15  1  0  0  0  0
 20 15  1  0  0  0  0
 21 22  1  0  0  0  0
 22 24  1  0  0  0  0
 22 23  2  0  0  0  0
 24 16  1  0  0  0  0
 25 24  1  0  0  0  0
 26 27  1  0  0  0  0
 26 32  1  0  0  0  0
 27 33  1  0  0  0  0
 28  3  1  0  0  0  0
 28 27  2  0  0  0  0
 29 28  1  0  0  0  0
 30 29  2  0  0  0  0
 30 31  1  0  0  0  0
 31 26  2  0  0  0  0
 34 30  1  0  0  0  0
M  END
>  <minimizedAffinity>
-5.3617425

$$$$

 OpenBabel03242522283D

 34 36  0  0  0  0  0  0  0  0999 V2000
   38.3530   28.5350   39.7240 F   0  0  0  0  0  0  0  0  0  0  0  0
   37.9440   28.4230   41.0280 C   0  0  0  0  0  0  0  0  0  0  0  0
   37.2680   27.3260   41.4440 C   0  0  0  0  0  0  0  0  0  0  0  0
   36.9480   27.2720   42.7850 C   0  0  0  0  0  0  0  0  0  0  0  0
   37.2900   28.2650   43.6670 C   0  0  0  0  0  0  0  0  0  0  0  0
   37.9750   29.3410   43.1570 C   0  0  0  0  0  0  0  0  0  0  0  0
   38.3160   29.4520   41.8420 C   0  0  0  0  0  0  0  0  0  0  0  0
   36.3980   26.3380   43.0060 H   0  0  0  0  0  0  0  0  0  0  0  0
   36.9400   28.0050   44.6450 H   0  0  0  0  0  0  0  0  0  0  0  0
   38.1000   29.8930   44.0430 H   0  0  0  0  0  0  0  0  0  0  0  0
   39.0220   30.6390   41.4330 C   0  0  0  0  0  0  0  0  0  0  0  0
   40.3880   30.7020   41.5510 C   0  0  0  0  0  0  0  0  0  0  0  0
   41.0270   31.8640   41.2120 C   0  0  0  0  0  0  0  0  0  0  0  0
   40.3350   32.9710   40.7540 C   0  0  0  0  0  0  0  0  0  0  0  0
   38.9430   32.8560   40.6480 C   0  0  0  0  0  0  0  0  0  0  0  0
   38.3010   31.6930   40.9870 C   0  0  0  0  0  0  0  0  0  0  0  0
   41.0860   29.9760   41.8750 H   0  0  0  0  0  0  0  0  0  0  0  0
   42.1230   31.9870   41.2830 H   0  0  0  0  0  0  0  0  0  0  0  0
   40.9030   33.8690   40.5010 H   0  0  0  0  0  0  0  0  0  0  0  0
   38.5250   33.7860   40.2810 H   0  0  0  0  0  0  0  0  0  0  0  0
   35.8140   31.7230   38.7380 H   0  0  0  0  0  0  0  0  0  0  0  0
   36.7320   31.6510   39.3130 C   0  0  0  0  0  0  0  0  0  0  0  0
   37.7070   31.2660   38.5960 O   0  0  0  0  0  0  0  0  0  0  0  0
   36.9510   31.9340   40.7280 N   0  0  0  0  0  0  0  0  0  0  0  0
   36.0820   32.2720   41.2150 H   0  0  0  0  0  0  0  0  0  0  0  0
   36.9780   24.0090   39.6480 C   0  0  0  0  0  0  0  0  0  0  0  0
   37.3190   24.9630   40.6140 C   0  0  0  0  0  0  0  0  0  0  0  0
   36.9410   26.2910   40.4720 C   0  0  0  0  0  0  0  0  0  0  0  0
   36.2280   26.5950   39.3450 N   0  0  0  0  0  0  0  0  0  0  0  0
   35.9080   25.6730   38.4280 C   0  0  0  0  0  0  0  0  0  0  0  0
   36.2790   24.3930   38.5750 N   0  0  0  0  0  0  0  0  0  0  0  0
   37.3590   23.0330   39.9320 H   0  0  0  0  0  0  0  0  0  0  0  0
   37.8760   24.7680   41.5100 H   0  0  0  0  0  0  0  0  0  0  0  0
   35.3480   25.8780   37.5290 H   0  0  0  0  0  0  0  0  0  0  0  0
  1  2  1  0  0  0  0
  2  3  2  0  0  0  0
  2  7  1  0  0  0  0
  3  4  1  0  0  0  0
  4  8  1  0  0  0  0
  4  5  2  0  0  0  0
  5  9  1  0  0  0  0
  6  5  1  0  0  0  0
  6 10  1  0  0  0  0
  7  6  2  0  0  0  0
 11 12  1  0  0  0  0
 11  7  1  0  0  0  0
 12 17  1  0  0  0  0
 13 18  1  0  0  0  0
 13 12  2  0  0  0  0
 14 13  1  0  0  0  0
 15 14  2  0  0  0  0
 15 16  1  0  0  0  0
 16 11  2  0  0  0  0
 19 14  1  0  0  0  0
 20 15  1  0  0  0  0
 21 22  1  0  0  0  0
 22 24  1  0  0  0  0
 23 22  2  0  0  0  0
 24 16  1  0  0  0  0
 24 25  1  0  0  0  0
 26 32  1  0  0  0  0
 26 27  1  0  0  0  0
 27 33  1  0  0  0  0
 28 27  2  0  0  0  0
 28  3  1  0  0  0  0
 29 28  1  0  0  0  0
 30 31  1  0  0  0  0
 30 29  2  0  0  0  0
 31 26  2  0  0  0  0
 34 30  1  0  0  0  0
M  END
>  <minimizedAffinity>
-5.30877781

$$$$
