
 OpenBabel03252509353D

 40 41  0  0  1  0  0  0  0  0999 V2000
   44.3870   35.5220   44.0690 O   0  0  0  0  0  0  0  0  0  0  0  0
   45.2740   34.3340   44.3870 P   0  0  1  0  0  0  0  0  0  0  0  0
   44.6490   32.9250   43.6880 O   0  0  0  0  0  0  0  0  0  0  0  0
   44.3670   33.0580   42.7440 H   0  0  0  0  0  0  0  0  0  0  0  0
   46.7960   34.6480   43.7700 O   0  0  0  0  0  0  0  0  0  0  0  0
   46.9980   33.8940   42.6070 C   0  0  1  0  0  0  0  0  0  0  0  0
   46.4690   34.6630   41.3940 C   0  0  0  0  0  0  0  0  0  0  0  0
   47.0460   33.8460   40.2700 C   0  0  0  0  0  0  0  0  0  0  0  0
   48.3130   33.2080   40.8210 C   0  0  0  0  0  0  0  0  0  0  0  0
   48.4410   33.7530   42.2350 C   0  0  1  0  0  0  0  0  0  0  0  0
   46.4860   32.9350   42.6050 H   0  0  0  0  0  0  0  0  0  0  0  0
   45.3390   34.6520   41.3770 H   0  0  0  0  0  0  0  0  0  0  0  0
   46.7520   35.7110   41.3720 H   0  0  0  0  0  0  0  0  0  0  0  0
   46.2900   33.1040   39.9700 H   0  0  0  0  0  0  0  0  0  0  0  0
   47.2840   34.5330   39.4240 H   0  0  0  0  0  0  0  0  0  0  0  0
   48.1050   32.1230   40.9110 H   0  0  0  0  0  0  0  0  0  0  0  0
   49.1950   33.4450   40.2000 H   0  0  0  0  0  0  0  0  0  0  0  0
   48.8790   32.9700   42.8880 H   0  0  0  0  0  0  0  0  0  0  0  0
   49.1890   35.0540   42.2650 C   0  0  0  0  0  0  0  0  0  0  0  0
   49.6510   35.1980   41.2480 H   0  0  0  0  0  0  0  0  0  0  0  0
   48.5810   35.9420   42.4870 H   0  0  0  0  0  0  0  0  0  0  0  0
   50.2200   35.0510   43.1810 O   0  0  0  0  0  0  0  0  0  0  0  0
   50.8230   35.8020   43.0240 H   0  0  0  0  0  0  0  0  0  0  0  0
   45.3390   34.0700   46.0310 O   0  0  0  0  0  0  0  0  0  0  0  0
   46.3300   33.1730   46.2980 C   0  0  0  0  0  0  0  0  0  0  0  0
   47.1290   33.7410   46.8560 H   0  0  0  0  0  0  0  0  0  0  0  0
   46.8430   32.7120   45.4580 H   0  0  0  0  0  0  0  0  0  0  0  0
   45.3360   31.3680   49.4010 C   0  0  0  0  0  0  0  0  0  0  0  0
   45.7560   32.4070   48.5540 C   0  0  0  0  0  0  0  0  0  0  0  0
   45.8880   32.0990   47.2070 C   0  0  0  0  0  0  0  0  0  0  0  0
   45.6090   30.8250   46.7720 N   0  0  0  0  0  0  0  0  0  0  0  0
   45.2060   29.8480   47.6080 C   0  0  0  0  0  0  0  0  0  0  0  0
   45.0720   30.1210   48.9120 N   0  0  0  0  0  0  0  0  0  0  0  0
   45.2060   31.5170   50.4660 H   0  0  0  0  0  0  0  0  0  0  0  0
   45.9580   33.3720   48.9520 H   0  0  0  0  0  0  0  0  0  0  0  0
   46.0460   26.6030   46.8140 H   0  0  0  0  0  0  0  0  0  0  0  0
   46.0320   27.6430   47.1300 C   0  0  0  0  0  0  0  0  0  0  0  0
   47.1840   28.0020   47.5230 O   0  0  0  0  0  0  0  0  0  0  0  0
   44.9220   28.5360   47.1340 N   0  0  0  0  0  0  0  0  0  0  0  0
   44.0070   28.1240   46.7830 H   0  0  0  0  0  0  0  0  0  0  0  0
  2  1  2  6  0  0  0
  2 24  1  0  0  0  0
  3  2  1  0  0  0  0
  4  3  1  0  0  0  0
  5  2  1  0  0  0  0
  6 11  1  1  0  0  0
  6  5  1  0  0  0  0
  7  6  1  0  0  0  0
  8  9  1  0  0  0  0
  8  7  1  0  0  0  0
  9 16  1  0  0  0  0
  9 10  1  0  0  0  0
 10 19  1  0  0  0  0
 10  6  1  0  0  0  0
 10 18  1  1  0  0  0
 12  7  1  0  0  0  0
 13  7  1  0  0  0  0
 14  8  1  0  0  0  0
 15  8  1  0  0  0  0
 17  9  1  0  0  0  0
 19 21  1  0  0  0  0
 19 22  1  0  0  0  0
 20 19  1  0  0  0  0
 23 22  1  0  0  0  0
 24 25  1  0  0  0  0
 25 26  1  0  0  0  0
 25 30  1  0  0  0  0
 27 25  1  0  0  0  0
 28 34  1  0  0  0  0
 29 35  1  0  0  0  0
 29 28  2  0  0  0  0
 30 29  1  0  0  0  0
 31 30  2  0  0  0  0
 31 32  1  0  0  0  0
 32 33  2  0  0  0  0
 33 28  1  0  0  0  0
 36 37  1  0  0  0  0
 37 39  1  0  0  0  0
 37 38  2  0  0  0  0
 39 32  1  0  0  0  0
 40 39  1  0  0  0  0
M  END
>  <minimizedAffinity>
-5.93184423

>  <minimizedRMSD>
0.877494335

$$$$
