
 OpenBabel03252505453D

 21 22  0  0  1  0  0  0  0  0999 V2000
   45.0260   35.0980   43.1990 C   0  0  1  0  0  0  0  0  0  0  0  0
   44.8900   36.6360   43.1970 C   0  0  2  0  0  0  0  0  0  0  0  0
   46.0140   35.9210   42.5370 C   0  0  0  0  0  0  0  0  0  0  0  0
   44.2800   34.5360   42.6070 H   0  0  0  0  0  0  0  0  0  0  0  0
   44.0000   36.9680   42.6420 H   0  0  0  0  0  0  0  0  0  0  0  0
   45.9810   35.9570   41.4110 H   0  0  0  0  0  0  0  0  0  0  0  0
   47.0400   36.1020   42.9020 H   0  0  0  0  0  0  0  0  0  0  0  0
   45.2190   34.5370   44.5540 C   0  0  0  0  0  0  0  0  0  0  0  0
   46.2570   33.5770   44.7390 C   0  0  0  0  0  0  0  0  0  0  0  0
   46.4670   33.0400   46.0020 C   0  0  0  0  0  0  0  0  0  0  0  0
   45.6430   33.4820   47.0050 N   0  0  0  0  0  0  0  0  0  0  0  0
   44.6690   34.3930   46.7970 C   0  0  0  0  0  0  0  0  0  0  0  0
   44.4640   34.9090   45.5880 N   0  0  0  0  0  0  0  0  0  0  0  0
   46.8740   33.2740   43.8890 H   0  0  0  0  0  0  0  0  0  0  0  0
   47.2440   32.3090   46.1860 H   0  0  0  0  0  0  0  0  0  0  0  0
   44.0870   34.6510   47.6960 H   0  0  0  0  0  0  0  0  0  0  0  0
   45.4380   39.1900   45.4270 H   0  0  0  0  0  0  0  0  0  0  0  0
   45.3160   38.7250   44.4610 C   0  0  0  0  0  0  0  0  0  0  0  0
   45.3880   39.3500   43.3720 O   0  0  0  0  0  0  0  0  0  0  0  0
   45.0610   37.3150   44.4480 N   0  0  0  0  0  0  0  0  0  0  0  0
   44.9950   36.7590   45.3500 H   0  0  0  0  0  0  0  0  0  0  0  0
  1  4  1  6  0  0  0
  1  8  1  0  0  0  0
  2  5  1  6  0  0  0
  2  1  1  0  0  0  0
  2 20  1  0  0  0  0
  3  7  1  0  0  0  0
  3  2  1  0  0  0  0
  3  1  1  0  0  0  0
  6  3  1  0  0  0  0
  8  9  2  0  0  0  0
  8 13  1  0  0  0  0
  9 10  1  0  0  0  0
 10 15  1  0  0  0  0
 10 11  2  0  0  0  0
 12 11  1  0  0  0  0
 12 16  1  0  0  0  0
 13 12  2  0  0  0  0
 14  9  1  0  0  0  0
 18 17  1  0  0  0  0
 19 18  2  0  0  0  0
 20 18  1  0  0  0  0
 20 21  1  0  0  0  0
M  END
>  <minimizedAffinity>
-2.76097226

>  <minimizedRMSD>
1.41367579

$$$$
