
 OpenBabel03252507533D

 34 36  0  0  1  0  0  0  0  0999 V2000
   47.0990   34.8850   42.1080 C   0  0  2  0  0  0  0  0  0  0  0  0
   46.4090   34.6380   43.4220 C   0  0  0  0  0  0  0  0  0  0  0  0
   45.0680   35.3230   43.0890 C   0  0  0  0  0  0  0  0  0  0  0  0
   44.8300   35.0260   41.6300 C   0  0  1  0  0  0  0  0  0  0  0  0
   46.0430   34.2930   41.1610 C   0  0  0  0  0  0  0  0  0  0  0  0
   47.2220   35.9540   41.9460 H   0  0  0  0  0  0  0  0  0  0  0  0
   46.9110   35.1460   44.2460 H   0  0  0  0  0  0  0  0  0  0  0  0
   46.2810   33.5600   43.5640 H   0  0  0  0  0  0  0  0  0  0  0  0
   45.1700   36.3960   43.3210 H   0  0  0  0  0  0  0  0  0  0  0  0
   44.3280   34.8950   43.7650 H   0  0  0  0  0  0  0  0  0  0  0  0
   44.7610   35.9530   41.0320 H   0  0  0  0  0  0  0  0  0  0  0  0
   46.1380   33.2420   41.5000 H   0  0  0  0  0  0  0  0  0  0  0  0
   46.3600   34.4630   40.1340 H   0  0  0  0  0  0  0  0  0  0  0  0
   50.7000   33.8080   42.4490 C   0  0  0  0  0  0  0  0  0  0  0  0
   49.5300   34.5530   42.6640 C   0  0  0  0  0  0  0  0  0  0  0  0
   48.3810   34.1530   41.9650 C   0  0  0  0  0  0  0  0  0  0  0  0
   48.4390   33.0690   41.1100 N   0  0  0  0  0  0  0  0  0  0  0  0
   49.5980   32.3900   40.9440 C   0  0  0  0  0  0  0  0  0  0  0  0
   50.7110   32.7540   41.6020 N   0  0  0  0  0  0  0  0  0  0  0  0
   51.5720   34.1590   43.0180 H   0  0  0  0  0  0  0  0  0  0  0  0
   49.4450   35.3960   43.3160 H   0  0  0  0  0  0  0  0  0  0  0  0
   49.6350   31.5360   40.2670 H   0  0  0  0  0  0  0  0  0  0  0  0
   43.6670   34.1240   41.3800 C   0  0  2  0  0  0  0  0  0  0  0  0
   43.0640   34.1200   40.0500 C   0  0  0  0  0  0  0  0  0  0  0  0
   42.2940   34.5190   41.2950 C   0  0  2  0  0  0  0  0  0  0  0  0
   43.8810   33.1070   41.8230 H   0  0  0  0  0  0  0  0  0  0  0  0
   42.7990   33.0980   39.6300 H   0  0  0  0  0  0  0  0  0  0  0  0
   42.8880   34.8530   39.3040 H   0  0  0  0  0  0  0  0  0  0  0  0
   41.5080   33.7650   41.6290 H   0  0  0  0  0  0  0  0  0  0  0  0
   39.9570   37.1380   40.8920 H   0  0  0  0  0  0  0  0  0  0  0  0
   40.5940   36.2340   40.9420 C   0  0  0  0  0  0  0  0  0  0  0  0
   39.7120   35.5900   40.2710 O   0  0  0  0  0  0  0  0  0  0  0  0
   41.8650   35.8830   41.5020 N   0  0  0  0  0  0  0  0  0  0  0  0
   42.1000   36.8060   41.9200 H   0  0  0  0  0  0  0  0  0  0  0  0
  1  6  1  6  0  0  0
  1  2  1  0  0  0  0
  2  8  1  0  0  0  0
  2  7  1  0  0  0  0
  3  9  1  0  0  0  0
  3  2  1  0  0  0  0
  3 10  1  0  0  0  0
  4 11  1  6  0  0  0
  4  3  1  0  0  0  0
  5 12  1  0  0  0  0
  5  4  1  0  0  0  0
  5  1  1  0  0  0  0
 13  5  1  0  0  0  0
 14 15  1  0  0  0  0
 14 20  1  0  0  0  0
 15 21  1  0  0  0  0
 16  1  1  0  0  0  0
 16 15  2  0  0  0  0
 17 16  1  0  0  0  0
 18 17  2  0  0  0  0
 18 19  1  0  0  0  0
 19 14  2  0  0  0  0
 22 18  1  0  0  0  0
 23  4  1  0  0  0  0
 23 26  1  1  0  0  0
 24 25  1  0  0  0  0
 24 23  1  0  0  0  0
 25 23  1  0  0  0  0
 25 33  1  0  0  0  0
 25 29  1  1  0  0  0
 27 24  1  0  0  0  0
 28 24  1  0  0  0  0
 30 31  1  0  0  0  0
 31 33  1  0  0  0  0
 32 31  2  0  0  0  0
 33 34  1  0  0  0  0
M  END
>  <minimizedAffinity>
-5.15088272

>  <minimizedRMSD>
7.10782623

$$$$
