
 OpenBabel03242510173D

 21 22  0  0  1  0  0  0  0  0999 V2000
   37.6790   28.3490   43.6000 C   0  0  1  0  0  0  0  0  0  0  0  0
   36.5720   27.4220   43.3540 C   0  0  0  0  0  0  0  0  0  0  0  0
   37.9730   26.9440   43.1710 C   0  0  1  0  0  0  0  0  0  0  0  0
   37.9510   28.5580   44.6670 H   0  0  0  0  0  0  0  0  0  0  0  0
   35.9760   27.4530   42.4110 H   0  0  0  0  0  0  0  0  0  0  0  0
   35.9940   26.9560   44.2020 H   0  0  0  0  0  0  0  0  0  0  0  0
   38.3640   26.2510   43.9390 H   0  0  0  0  0  0  0  0  0  0  0  0
   36.9690   29.9040   41.7470 C   0  0  0  0  0  0  0  0  0  0  0  0
   37.9570   29.4660   42.6650 C   0  0  0  0  0  0  0  0  0  0  0  0
   39.1850   30.1210   42.6380 C   0  0  0  0  0  0  0  0  0  0  0  0
   39.3610   31.1290   41.7420 N   0  0  0  0  0  0  0  0  0  0  0  0
   38.3980   31.5210   40.8820 C   0  0  0  0  0  0  0  0  0  0  0  0
   37.1880   30.9010   40.8840 N   0  0  0  0  0  0  0  0  0  0  0  0
   36.0260   29.3640   41.8030 H   0  0  0  0  0  0  0  0  0  0  0  0
   39.9630   29.8220   43.3170 H   0  0  0  0  0  0  0  0  0  0  0  0
   38.5330   32.3200   40.1710 H   0  0  0  0  0  0  0  0  0  0  0  0
   38.7390   25.1660   40.3530 H   0  0  0  0  0  0  0  0  0  0  0  0
   38.3540   25.2810   41.3790 C   0  0  0  0  0  0  0  0  0  0  0  0
   37.8910   24.3430   42.0790 O   0  0  0  0  0  0  0  0  0  0  0  0
   38.4410   26.6440   41.8420 N   0  0  0  0  0  0  0  0  0  0  0  0
   38.8250   27.4160   41.2590 H   0  0  0  0  0  0  0  0  0  0  0  0
  1  4  1  1  0  0  0
  2  1  1  0  0  0  0
  2  6  1  0  0  0  0
  3  2  1  0  0  0  0
  3  1  1  0  0  0  0
  3  7  1  1  0  0  0
  5  2  1  0  0  0  0
  8 14  1  0  0  0  0
  8  9  1  0  0  0  0
  9  1  1  0  0  0  0
 10  9  2  0  0  0  0
 10 15  1  0  0  0  0
 11 10  1  0  0  0  0
 12 13  1  0  0  0  0
 12 11  2  0  0  0  0
 13  8  2  0  0  0  0
 16 12  1  0  0  0  0
 17 18  1  0  0  0  0
 18 20  1  0  0  0  0
 18 19  2  0  0  0  0
 20  3  1  0  0  0  0
 21 20  1  0  0  0  0
M  END
>  <minimizedAffinity>
-3.74974537

$$$$

 OpenBabel03242510173D

 21 22  0  0  1  0  0  0  0  0999 V2000
   37.6940   28.3450   43.6110 C   0  0  1  0  0  0  0  0  0  0  0  0
   36.5770   27.4220   43.3970 C   0  0  0  0  0  0  0  0  0  0  0  0
   37.9710   26.9350   43.1830 C   0  0  1  0  0  0  0  0  0  0  0  0
   37.9930   28.5580   44.6700 H   0  0  0  0  0  0  0  0  0  0  0  0
   35.9590   27.4510   42.4690 H   0  0  0  0  0  0  0  0  0  0  0  0
   36.0180   26.9630   44.2610 H   0  0  0  0  0  0  0  0  0  0  0  0
   38.3770   26.2450   43.9450 H   0  0  0  0  0  0  0  0  0  0  0  0
   39.2080   30.1180   42.6520 C   0  0  0  0  0  0  0  0  0  0  0  0
   37.9540   29.4550   42.6630 C   0  0  0  0  0  0  0  0  0  0  0  0
   36.9930   29.9000   41.7610 C   0  0  0  0  0  0  0  0  0  0  0  0
   37.3090   30.9310   40.9330 N   0  0  0  0  0  0  0  0  0  0  0  0
   38.5130   31.5400   40.9490 C   0  0  0  0  0  0  0  0  0  0  0  0
   39.4740   31.1290   41.8180 N   0  0  0  0  0  0  0  0  0  0  0  0
   39.9280   29.7390   43.3740 H   0  0  0  0  0  0  0  0  0  0  0  0
   36.0280   29.4260   41.7340 H   0  0  0  0  0  0  0  0  0  0  0  0
   38.7690   32.3570   40.2940 H   0  0  0  0  0  0  0  0  0  0  0  0
   38.6320   25.1450   40.3470 H   0  0  0  0  0  0  0  0  0  0  0  0
   38.2700   25.2680   41.3790 C   0  0  0  0  0  0  0  0  0  0  0  0
   37.7930   24.3420   42.0860 O   0  0  0  0  0  0  0  0  0  0  0  0
   38.4060   26.6260   41.8440 N   0  0  0  0  0  0  0  0  0  0  0  0
   38.8010   27.3890   41.2560 H   0  0  0  0  0  0  0  0  0  0  0  0
  1  4  1  1  0  0  0
  2  1  1  0  0  0  0
  2  6  1  0  0  0  0
  3  2  1  0  0  0  0
  3  1  1  0  0  0  0
  3  7  1  1  0  0  0
  5  2  1  0  0  0  0
  8  9  1  0  0  0  0
  8 14  1  0  0  0  0
  9  1  1  0  0  0  0
 10  9  2  0  0  0  0
 11 12  2  0  0  0  0
 11 10  1  0  0  0  0
 12 13  1  0  0  0  0
 13  8  2  0  0  0  0
 15 10  1  0  0  0  0
 16 12  1  0  0  0  0
 17 18  1  0  0  0  0
 18 20  1  0  0  0  0
 18 19  2  0  0  0  0
 20  3  1  0  0  0  0
 21 20  1  0  0  0  0
M  END
>  <minimizedAffinity>
-3.74345183

$$$$

 OpenBabel03242510173D

 21 22  0  0  1  0  0  0  0  0999 V2000
   36.2300   28.6920   40.0740 C   0  0  1  0  0  0  0  0  0  0  0  0
   34.8180   29.0370   40.2540 C   0  0  0  0  0  0  0  0  0  0  0  0
   35.7840   30.1090   39.8740 C   0  0  1  0  0  0  0  0  0  0  0  0
   36.5190   28.1760   39.1230 H   0  0  0  0  0  0  0  0  0  0  0  0
   34.3680   29.1700   41.2660 H   0  0  0  0  0  0  0  0  0  0  0  0
   34.0430   28.7710   39.4800 H   0  0  0  0  0  0  0  0  0  0  0  0
   35.7280   30.4810   38.8340 H   0  0  0  0  0  0  0  0  0  0  0  0
   38.4940   28.4790   41.1610 C   0  0  0  0  0  0  0  0  0  0  0  0
   37.0840   28.3580   41.2390 C   0  0  0  0  0  0  0  0  0  0  0  0
   36.5510   27.9070   42.4440 C   0  0  0  0  0  0  0  0  0  0  0  0
   37.4060   27.6130   43.4600 N   0  0  0  0  0  0  0  0  0  0  0  0
   38.7440   27.7400   43.3510 C   0  0  0  0  0  0  0  0  0  0  0  0
   39.2960   28.1770   42.1880 N   0  0  0  0  0  0  0  0  0  0  0  0
   38.8670   28.8330   40.2020 H   0  0  0  0  0  0  0  0  0  0  0  0
   35.4860   27.8010   42.5480 H   0  0  0  0  0  0  0  0  0  0  0  0
   39.4250   27.5080   44.1540 H   0  0  0  0  0  0  0  0  0  0  0  0
   37.3500   32.7690   41.3450 H   0  0  0  0  0  0  0  0  0  0  0  0
   37.2010   32.0230   40.5480 C   0  0  0  0  0  0  0  0  0  0  0  0
   37.9040   31.9350   39.5080 O   0  0  0  0  0  0  0  0  0  0  0  0
   36.0970   31.1390   40.8320 N   0  0  0  0  0  0  0  0  0  0  0  0
   35.5190   31.2150   41.6940 H   0  0  0  0  0  0  0  0  0  0  0  0
  1  4  1  6  0  0  0
  1  2  1  0  0  0  0
  1  9  1  0  0  0  0
  2  5  1  0  0  0  0
  3  7  1  6  0  0  0
  3  1  1  0  0  0  0
  3  2  1  0  0  0  0
  3 20  1  0  0  0  0
  6  2  1  0  0  0  0
  8  9  2  0  0  0  0
  8 13  1  0  0  0  0
  9 10  1  0  0  0  0
 10 15  1  0  0  0  0
 10 11  2  0  0  0  0
 12 11  1  0  0  0  0
 12 16  1  0  0  0  0
 13 12  2  0  0  0  0
 14  8  1  0  0  0  0
 18 20  1  0  0  0  0
 18 17  1  0  0  0  0
 19 18  2  0  0  0  0
 20 21  1  0  0  0  0
M  END
>  <minimizedAffinity>
-3.66082287

$$$$

 OpenBabel03242510173D

 21 22  0  0  1  0  0  0  0  0999 V2000
   37.2370   26.8730   42.4240 C   0  0  1  0  0  0  0  0  0  0  0  0
   36.4000   27.3080   43.5440 C   0  0  0  0  0  0  0  0  0  0  0  0
   36.3820   28.0950   42.2770 C   0  0  1  0  0  0  0  0  0  0  0  0
   36.8790   26.0000   41.8190 H   0  0  0  0  0  0  0  0  0  0  0  0
   36.8240   27.8610   44.4160 H   0  0  0  0  0  0  0  0  0  0  0  0
   35.4450   26.7720   43.8090 H   0  0  0  0  0  0  0  0  0  0  0  0
   35.4750   28.0060   41.6510 H   0  0  0  0  0  0  0  0  0  0  0  0
   39.4730   27.0960   41.2810 C   0  0  0  0  0  0  0  0  0  0  0  0
   38.7120   27.0210   42.4750 C   0  0  0  0  0  0  0  0  0  0  0  0
   39.4090   27.0810   43.6780 C   0  0  0  0  0  0  0  0  0  0  0  0
   40.7630   27.2070   43.6370 N   0  0  0  0  0  0  0  0  0  0  0  0
   41.4560   27.2770   42.4820 C   0  0  0  0  0  0  0  0  0  0  0  0
   40.8040   27.2200   41.2900 N   0  0  0  0  0  0  0  0  0  0  0  0
   38.8880   27.0440   40.3660 H   0  0  0  0  0  0  0  0  0  0  0  0
   38.8710   27.0280   44.6080 H   0  0  0  0  0  0  0  0  0  0  0  0
   42.5290   27.3770   42.4440 H   0  0  0  0  0  0  0  0  0  0  0  0
   36.9810   31.3360   41.3670 H   0  0  0  0  0  0  0  0  0  0  0  0
   36.4770   30.3600   41.2850 C   0  0  0  0  0  0  0  0  0  0  0  0
   35.5890   30.0820   40.4370 O   0  0  0  0  0  0  0  0  0  0  0  0
   36.9540   29.4170   42.2670 N   0  0  0  0  0  0  0  0  0  0  0  0
   37.6890   29.6520   42.9660 H   0  0  0  0  0  0  0  0  0  0  0  0
  1  4  1  6  0  0  0
  1  9  1  0  0  0  0
  1  2  1  0  0  0  0
  2  6  1  0  0  0  0
  2  5  1  0  0  0  0
  3  7  1  6  0  0  0
  3  1  1  0  0  0  0
  3  2  1  0  0  0  0
  8 13  2  0  0  0  0
  8  9  1  0  0  0  0
  9 10  2  0  0  0  0
 10 15  1  0  0  0  0
 11 10  1  0  0  0  0
 12 11  2  0  0  0  0
 13 12  1  0  0  0  0
 14  8  1  0  0  0  0
 16 12  1  0  0  0  0
 18 17  1  0  0  0  0
 18 20  1  0  0  0  0
 19 18  2  0  0  0  0
 20  3  1  0  0  0  0
 20 21  1  0  0  0  0
M  END
>  <minimizedAffinity>
-3.63835859

$$$$

 OpenBabel03242510173D

 21 22  0  0  1  0  0  0  0  0999 V2000
   36.2630   28.7290   40.0890 C   0  0  1  0  0  0  0  0  0  0  0  0
   34.8810   29.1620   40.3070 C   0  0  0  0  0  0  0  0  0  0  0  0
   35.8960   30.1660   39.8730 C   0  0  1  0  0  0  0  0  0  0  0  0
   36.4890   28.1780   39.1400 H   0  0  0  0  0  0  0  0  0  0  0  0
   34.4740   29.3410   41.3300 H   0  0  0  0  0  0  0  0  0  0  0  0
   34.0660   28.9280   39.5650 H   0  0  0  0  0  0  0  0  0  0  0  0
   35.8270   30.5200   38.8270 H   0  0  0  0  0  0  0  0  0  0  0  0
   36.5740   27.9600   42.4690 C   0  0  0  0  0  0  0  0  0  0  0  0
   37.1350   28.3680   41.2320 C   0  0  0  0  0  0  0  0  0  0  0  0
   38.5230   28.4200   41.1510 C   0  0  0  0  0  0  0  0  0  0  0  0
   39.2500   28.0810   42.2500 N   0  0  0  0  0  0  0  0  0  0  0  0
   38.6830   27.6970   43.4120 C   0  0  0  0  0  0  0  0  0  0  0  0
   37.3300   27.6360   43.5240 N   0  0  0  0  0  0  0  0  0  0  0  0
   35.4870   27.9340   42.4880 H   0  0  0  0  0  0  0  0  0  0  0  0
   38.9910   28.7230   40.2310 H   0  0  0  0  0  0  0  0  0  0  0  0
   39.2550   27.4270   44.2850 H   0  0  0  0  0  0  0  0  0  0  0  0
   37.3770   32.9960   41.0930 H   0  0  0  0  0  0  0  0  0  0  0  0
   37.1270   32.2690   40.3040 C   0  0  0  0  0  0  0  0  0  0  0  0
   37.5110   32.3490   39.1080 O   0  0  0  0  0  0  0  0  0  0  0  0
   36.3010   31.1950   40.7970 N   0  0  0  0  0  0  0  0  0  0  0  0
   35.9860   31.1320   41.7880 H   0  0  0  0  0  0  0  0  0  0  0  0
  1  4  1  6  0  0  0
  1  2  1  0  0  0  0
  1  9  1  0  0  0  0
  2  5  1  0  0  0  0
  3  7  1  6  0  0  0
  3  1  1  0  0  0  0
  3  2  1  0  0  0  0
  3 20  1  0  0  0  0
  6  2  1  0  0  0  0
  8 14  1  0  0  0  0
  8 13  1  0  0  0  0
  9  8  2  0  0  0  0
 10  9  1  0  0  0  0
 10 11  2  0  0  0  0
 11 12  1  0  0  0  0
 12 13  2  0  0  0  0
 12 16  1  0  0  0  0
 15 10  1  0  0  0  0
 18 20  1  0  0  0  0
 18 17  1  0  0  0  0
 19 18  2  0  0  0  0
 20 21  1  0  0  0  0
M  END
>  <minimizedAffinity>
-3.6006043

$$$$

 OpenBabel03242510173D

 21 22  0  0  1  0  0  0  0  0999 V2000
   36.3210   30.6510   40.9570 C   0  0  1  0  0  0  0  0  0  0  0  0
   37.0660   31.8270   40.5020 C   0  0  0  0  0  0  0  0  0  0  0  0
   36.6140   30.8200   39.4970 C   0  0  1  0  0  0  0  0  0  0  0  0
   35.2400   30.7920   41.2150 H   0  0  0  0  0  0  0  0  0  0  0  0
   38.1740   31.8980   40.6060 H   0  0  0  0  0  0  0  0  0  0  0  0
   36.5830   32.8430   40.4380 H   0  0  0  0  0  0  0  0  0  0  0  0
   35.7740   31.1160   38.8420 H   0  0  0  0  0  0  0  0  0  0  0  0
   36.4370   28.2680   41.7690 C   0  0  0  0  0  0  0  0  0  0  0  0
   36.9970   29.5690   41.7130 C   0  0  0  0  0  0  0  0  0  0  0  0
   38.1880   29.7790   42.4010 C   0  0  0  0  0  0  0  0  0  0  0  0
   38.7380   28.7350   43.0780 N   0  0  0  0  0  0  0  0  0  0  0  0
   38.1780   27.5080   43.1100 C   0  0  0  0  0  0  0  0  0  0  0  0
   37.0150   27.2710   42.4490 N   0  0  0  0  0  0  0  0  0  0  0  0
   35.5070   28.1490   41.2190 H   0  0  0  0  0  0  0  0  0  0  0  0
   38.6480   30.7510   42.3850 H   0  0  0  0  0  0  0  0  0  0  0  0
   38.6100   26.6780   43.6450 H   0  0  0  0  0  0  0  0  0  0  0  0
   38.8630   29.7750   37.1430 H   0  0  0  0  0  0  0  0  0  0  0  0
   38.1190   30.4700   37.5640 C   0  0  0  0  0  0  0  0  0  0  0  0
   37.7510   31.5420   37.0180 O   0  0  0  0  0  0  0  0  0  0  0  0
   37.6010   30.0090   38.8290 N   0  0  0  0  0  0  0  0  0  0  0  0
   37.9080   29.1210   39.2770 H   0  0  0  0  0  0  0  0  0  0  0  0
  1  4  1  1  0  0  0
  1  9  1  0  0  0  0
  2  5  1  0  0  0  0
  2  1  1  0  0  0  0
  3  7  1  6  0  0  0
  3  2  1  0  0  0  0
  3  1  1  0  0  0  0
  6  2  1  0  0  0  0
  8 13  1  0  0  0  0
  9  8  2  0  0  0  0
  9 10  1  0  0  0  0
 10 11  2  0  0  0  0
 11 12  1  0  0  0  0
 12 16  1  0  0  0  0
 13 12  2  0  0  0  0
 14  8  1  0  0  0  0
 15 10  1  0  0  0  0
 17 18  1  0  0  0  0
 18 20  1  0  0  0  0
 19 18  2  0  0  0  0
 20 21  1  0  0  0  0
 20  3  1  0  0  0  0
M  END
>  <minimizedAffinity>
-3.55669332

$$$$

 OpenBabel03242510173D

 21 22  0  0  1  0  0  0  0  0999 V2000
   36.3020   30.6540   40.9510 C   0  0  1  0  0  0  0  0  0  0  0  0
   37.0660   31.8200   40.5020 C   0  0  0  0  0  0  0  0  0  0  0  0
   36.5980   30.8270   39.4910 C   0  0  1  0  0  0  0  0  0  0  0  0
   35.2230   30.8110   41.2100 H   0  0  0  0  0  0  0  0  0  0  0  0
   38.1750   31.8740   40.6060 H   0  0  0  0  0  0  0  0  0  0  0  0
   36.5980   32.8440   40.4440 H   0  0  0  0  0  0  0  0  0  0  0  0
   35.7620   31.1400   38.8390 H   0  0  0  0  0  0  0  0  0  0  0  0
   38.1960   29.7740   42.3630 C   0  0  0  0  0  0  0  0  0  0  0  0
   36.9610   29.5570   41.6990 C   0  0  0  0  0  0  0  0  0  0  0  0
   36.4140   28.2800   41.7770 C   0  0  0  0  0  0  0  0  0  0  0  0
   37.0880   27.3270   42.4760 N   0  0  0  0  0  0  0  0  0  0  0  0
   38.2610   27.5680   43.0970 C   0  0  0  0  0  0  0  0  0  0  0  0
   38.8220   28.8050   43.0390 N   0  0  0  0  0  0  0  0  0  0  0  0
   38.5870   30.7850   42.2750 H   0  0  0  0  0  0  0  0  0  0  0  0
   35.4780   28.0710   41.2890 H   0  0  0  0  0  0  0  0  0  0  0  0
   38.7990   26.8170   43.6520 H   0  0  0  0  0  0  0  0  0  0  0  0
   38.8280   29.7600   37.1300 H   0  0  0  0  0  0  0  0  0  0  0  0
   38.0950   30.4630   37.5550 C   0  0  0  0  0  0  0  0  0  0  0  0
   37.7420   31.5440   37.0140 O   0  0  0  0  0  0  0  0  0  0  0  0
   37.5710   30.0040   38.8180 N   0  0  0  0  0  0  0  0  0  0  0  0
   37.8650   29.1100   39.2610 H   0  0  0  0  0  0  0  0  0  0  0  0
  1  4  1  1  0  0  0
  1  9  1  0  0  0  0
  2  5  1  0  0  0  0
  2  1  1  0  0  0  0
  3  7  1  6  0  0  0
  3  2  1  0  0  0  0
  3  1  1  0  0  0  0
  6  2  1  0  0  0  0
  8 13  1  0  0  0  0
  9 10  1  0  0  0  0
  9  8  2  0  0  0  0
 10 11  2  0  0  0  0
 11 12  1  0  0  0  0
 12 16  1  0  0  0  0
 13 12  2  0  0  0  0
 14  8  1  0  0  0  0
 15 10  1  0  0  0  0
 17 18  1  0  0  0  0
 18 20  1  0  0  0  0
 19 18  2  0  0  0  0
 20 21  1  0  0  0  0
 20  3  1  0  0  0  0
M  END
>  <minimizedAffinity>
-3.54552102

$$$$

 OpenBabel03242510173D

 21 22  0  0  1  0  0  0  0  0999 V2000
   37.0660   25.2290   42.2920 C   0  0  1  0  0  0  0  0  0  0  0  0
   36.8870   24.4830   41.0440 C   0  0  0  0  0  0  0  0  0  0  0  0
   38.2000   24.4130   41.7500 C   0  0  1  0  0  0  0  0  0  0  0  0
   36.6090   24.8000   43.2210 H   0  0  0  0  0  0  0  0  0  0  0  0
   36.9340   24.9820   40.0470 H   0  0  0  0  0  0  0  0  0  0  0  0
   36.2910   23.5270   41.0090 H   0  0  0  0  0  0  0  0  0  0  0  0
   38.4340   23.4650   42.2680 H   0  0  0  0  0  0  0  0  0  0  0  0
   36.7600   27.4560   41.1500 C   0  0  0  0  0  0  0  0  0  0  0  0
   37.1680   26.7080   42.2840 C   0  0  0  0  0  0  0  0  0  0  0  0
   37.6700   27.4220   43.3680 C   0  0  0  0  0  0  0  0  0  0  0  0
   37.7400   28.7770   43.2760 N   0  0  0  0  0  0  0  0  0  0  0  0
   37.3420   29.4570   42.1800 C   0  0  0  0  0  0  0  0  0  0  0  0
   36.8470   28.7900   41.1050 N   0  0  0  0  0  0  0  0  0  0  0  0
   36.3750   26.8590   40.3270 H   0  0  0  0  0  0  0  0  0  0  0  0
   37.9910   26.8960   44.2490 H   0  0  0  0  0  0  0  0  0  0  0  0
   37.3950   30.5310   42.1030 H   0  0  0  0  0  0  0  0  0  0  0  0
   41.3810   25.6060   41.3630 H   0  0  0  0  0  0  0  0  0  0  0  0
   40.5670   25.1150   41.9200 C   0  0  0  0  0  0  0  0  0  0  0  0
   40.6670   24.6750   43.0940 O   0  0  0  0  0  0  0  0  0  0  0  0
   39.3520   25.0320   41.1460 N   0  0  0  0  0  0  0  0  0  0  0  0
   39.2740   25.3980   40.1750 H   0  0  0  0  0  0  0  0  0  0  0  0
  1  4  1  1  0  0  0
  2  3  1  0  0  0  0
  2  1  1  0  0  0  0
  3  7  1  1  0  0  0
  3  1  1  0  0  0  0
  5  2  1  0  0  0  0
  6  2  1  0  0  0  0
  8  9  1  0  0  0  0
  9  1  1  0  0  0  0
  9 10  2  0  0  0  0
 10 15  1  0  0  0  0
 11 10  1  0  0  0  0
 12 11  2  0  0  0  0
 13  8  2  0  0  0  0
 13 12  1  0  0  0  0
 14  8  1  0  0  0  0
 16 12  1  0  0  0  0
 17 18  1  0  0  0  0
 18 19  2  0  0  0  0
 20  3  1  0  0  0  0
 20 18  1  0  0  0  0
 21 20  1  0  0  0  0
M  END
>  <minimizedAffinity>
-3.52863383

$$$$

 OpenBabel03242510173D

 21 22  0  0  1  0  0  0  0  0999 V2000
   37.1810   27.8470   42.8160 C   0  0  1  0  0  0  0  0  0  0  0  0
   37.7070   29.2010   42.9990 C   0  0  0  0  0  0  0  0  0  0  0  0
   37.2990   28.7600   41.6330 C   0  0  1  0  0  0  0  0  0  0  0  0
   36.1230   27.6560   43.1310 H   0  0  0  0  0  0  0  0  0  0  0  0
   38.8000   29.4000   43.1030 H   0  0  0  0  0  0  0  0  0  0  0  0
   37.0850   30.0180   43.4630 H   0  0  0  0  0  0  0  0  0  0  0  0
   36.3630   29.1920   41.2320 H   0  0  0  0  0  0  0  0  0  0  0  0
   37.7260   25.4440   42.2820 C   0  0  0  0  0  0  0  0  0  0  0  0
   38.0730   26.6660   42.9120 C   0  0  0  0  0  0  0  0  0  0  0  0
   39.2690   26.6970   43.6230 C   0  0  0  0  0  0  0  0  0  0  0  0
   40.0240   25.5670   43.6710 N   0  0  0  0  0  0  0  0  0  0  0  0
   39.6640   24.4200   43.0580 C   0  0  0  0  0  0  0  0  0  0  0  0
   38.5010   24.3570   42.3560 N   0  0  0  0  0  0  0  0  0  0  0  0
   36.7840   25.4650   41.7390 H   0  0  0  0  0  0  0  0  0  0  0  0
   39.5710   27.6030   44.1170 H   0  0  0  0  0  0  0  0  0  0  0  0
   40.2590   23.5220   43.0930 H   0  0  0  0  0  0  0  0  0  0  0  0
   39.3910   29.3970   39.0060 H   0  0  0  0  0  0  0  0  0  0  0  0
   38.6020   29.6550   39.7300 C   0  0  0  0  0  0  0  0  0  0  0  0
   38.0110   30.7650   39.7800 O   0  0  0  0  0  0  0  0  0  0  0  0
   38.3130   28.5650   40.6290 N   0  0  0  0  0  0  0  0  0  0  0  0
   38.8050   27.6490   40.5840 H   0  0  0  0  0  0  0  0  0  0  0  0
  1  9  1  0  0  0  0
  1  2  1  0  0  0  0
  1  4  1  1  0  0  0
  2  5  1  0  0  0  0
  2  6  1  0  0  0  0
  3  7  1  6  0  0  0
  3  1  1  0  0  0  0
  3  2  1  0  0  0  0
  8 13  2  0  0  0  0
  8  9  1  0  0  0  0
  9 10  2  0  0  0  0
 10 11  1  0  0  0  0
 10 15  1  0  0  0  0
 12 16  1  0  0  0  0
 12 11  2  0  0  0  0
 13 12  1  0  0  0  0
 14  8  1  0  0  0  0
 17 18  1  0  0  0  0
 18 19  2  0  0  0  0
 18 20  1  0  0  0  0
 20  3  1  0  0  0  0
 21 20  1  0  0  0  0
M  END
>  <minimizedAffinity>
-3.4915545

$$$$
