
 OpenBabel03242515073D

 24 25  0  0  0  0  0  0  0  0999 V2000
   46.3570   31.9780   45.3370 C   0  0  0  0  0  0  0  0  0  0  0  0
   47.4020   31.4640   44.5940 C   0  0  0  0  0  0  0  0  0  0  0  0
   48.0610   30.2980   44.9550 C   0  0  0  0  0  0  0  0  0  0  0  0
   47.6690   29.6150   46.0960 C   0  0  0  0  0  0  0  0  0  0  0  0
   46.6390   30.1060   46.8430 C   0  0  0  0  0  0  0  0  0  0  0  0
   45.9990   31.2750   46.4580 C   0  0  0  0  0  0  0  0  0  0  0  0
   47.7620   31.9500   43.6860 H   0  0  0  0  0  0  0  0  0  0  0  0
   48.8720   29.9130   44.3660 H   0  0  0  0  0  0  0  0  0  0  0  0
   48.2060   28.7050   46.3510 H   0  0  0  0  0  0  0  0  0  0  0  0
   46.3150   29.5930   47.7350 H   0  0  0  0  0  0  0  0  0  0  0  0
   44.7390   35.2450   45.5720 C   0  0  0  0  0  0  0  0  0  0  0  0
   44.4120   35.5640   44.2520 C   0  0  0  0  0  0  0  0  0  0  0  0
   44.7550   34.6400   43.2640 C   0  0  0  0  0  0  0  0  0  0  0  0
   45.3860   33.4780   43.6190 N   0  0  0  0  0  0  0  0  0  0  0  0
   45.6850   33.2090   44.9280 C   0  0  0  0  0  0  0  0  0  0  0  0
   45.3560   34.0990   45.8910 N   0  0  0  0  0  0  0  0  0  0  0  0
   44.4570   35.9900   46.3190 H   0  0  0  0  0  0  0  0  0  0  0  0
   43.9150   36.4760   43.9400 H   0  0  0  0  0  0  0  0  0  0  0  0
   44.5410   34.8040   42.2060 H   0  0  0  0  0  0  0  0  0  0  0  0
   44.3000   31.7930   49.4770 H   0  0  0  0  0  0  0  0  0  0  0  0
   44.9770   31.5370   48.6750 C   0  0  0  0  0  0  0  0  0  0  0  0
   45.5420   31.1120   49.7120 O   0  0  0  0  0  0  0  0  0  0  0  0
   44.9310   31.7330   47.2830 N   0  0  0  0  0  0  0  0  0  0  0  0
   44.0440   32.2360   46.9860 H   0  0  0  0  0  0  0  0  0  0  0  0
  1  6  1  0  0  0  0
  2  3  1  0  0  0  0
  2  1  2  0  0  0  0
  3  4  2  0  0  0  0
  4  9  1  0  0  0  0
  4  5  1  0  0  0  0
  5 10  1  0  0  0  0
  6  5  2  0  0  0  0
  6 23  1  0  0  0  0
  7  2  1  0  0  0  0
  8  3  1  0  0  0  0
 11 16  1  0  0  0  0
 11 17  1  0  0  0  0
 12 11  2  0  0  0  0
 13 14  2  0  0  0  0
 13 12  1  0  0  0  0
 14 15  1  0  0  0  0
 15  1  1  0  0  0  0
 15 16  2  0  0  0  0
 18 12  1  0  0  0  0
 19 13  1  0  0  0  0
 21 20  1  0  0  0  0
 21 22  2  0  0  0  0
 23 21  1  0  0  0  0
 24 23  1  0  0  0  0
M  END
>  <minimizedAffinity>
-4.28470612

>  <minimizedRMSD>
2.26204276

$$$$
