
 OpenBabel03252509353D

 40 41  0  0  1  0  0  0  0  0999 V2000
   44.5230   35.4590   44.0800 O   0  0  0  0  0  0  0  0  0  0  0  0
   45.3890   34.2500   44.3760 P   0  0  1  0  0  0  0  0  0  0  0  0
   44.7140   32.8570   43.6920 O   0  0  0  0  0  0  0  0  0  0  0  0
   44.4120   32.9980   42.7550 H   0  0  0  0  0  0  0  0  0  0  0  0
   46.9030   34.5290   43.7240 O   0  0  0  0  0  0  0  0  0  0  0  0
   47.0310   33.8320   42.5160 C   0  0  1  0  0  0  0  0  0  0  0  0
   46.4460   34.6670   41.3730 C   0  0  0  0  0  0  0  0  0  0  0  0
   46.9500   33.9020   40.1800 C   0  0  0  0  0  0  0  0  0  0  0  0
   48.2360   33.2230   40.6270 C   0  0  0  0  0  0  0  0  0  0  0  0
   48.4480   33.6930   42.0570 C   0  0  1  0  0  0  0  0  0  0  0  0
   46.5050   32.8810   42.4930 H   0  0  0  0  0  0  0  0  0  0  0  0
   45.3170   34.6700   41.4180 H   0  0  0  0  0  0  0  0  0  0  0  0
   46.7430   35.7110   41.3880 H   0  0  0  0  0  0  0  0  0  0  0  0
   46.1680   33.1850   39.8850 H   0  0  0  0  0  0  0  0  0  0  0  0
   47.1510   34.6280   39.3570 H   0  0  0  0  0  0  0  0  0  0  0  0
   48.0180   32.1360   40.6750 H   0  0  0  0  0  0  0  0  0  0  0  0
   49.0860   33.4800   39.9720 H   0  0  0  0  0  0  0  0  0  0  0  0
   48.9100   32.8740   42.6460 H   0  0  0  0  0  0  0  0  0  0  0  0
   49.2150   34.9830   42.1110 C   0  0  0  0  0  0  0  0  0  0  0  0
   49.8950   35.0060   41.2130 H   0  0  0  0  0  0  0  0  0  0  0  0
   48.6040   35.8960   42.0930 H   0  0  0  0  0  0  0  0  0  0  0  0
   50.0180   35.0760   43.2280 O   0  0  0  0  0  0  0  0  0  0  0  0
   50.6660   35.7980   43.1290 H   0  0  0  0  0  0  0  0  0  0  0  0
   45.4870   33.9840   46.0190 O   0  0  0  0  0  0  0  0  0  0  0  0
   46.4080   33.0080   46.2550 C   0  0  0  0  0  0  0  0  0  0  0  0
   47.2850   33.5140   46.7520 H   0  0  0  0  0  0  0  0  0  0  0  0
   46.8300   32.4830   45.4030 H   0  0  0  0  0  0  0  0  0  0  0  0
   45.2890   31.4190   49.4340 C   0  0  0  0  0  0  0  0  0  0  0  0
   45.7470   32.3970   48.5360 C   0  0  0  0  0  0  0  0  0  0  0  0
   45.9260   31.9990   47.2180 C   0  0  0  0  0  0  0  0  0  0  0  0
   45.6550   30.7000   46.8590 N   0  0  0  0  0  0  0  0  0  0  0  0
   45.2150   29.7820   47.7440 C   0  0  0  0  0  0  0  0  0  0  0  0
   45.0360   30.1440   49.0200 N   0  0  0  0  0  0  0  0  0  0  0  0
   45.1220   31.6400   50.4810 H   0  0  0  0  0  0  0  0  0  0  0  0
   45.9400   33.3860   48.8750 H   0  0  0  0  0  0  0  0  0  0  0  0
   46.1190   26.5900   46.8180 H   0  0  0  0  0  0  0  0  0  0  0  0
   46.0920   27.6330   47.1230 C   0  0  0  0  0  0  0  0  0  0  0  0
   47.2690   28.0830   47.2680 O   0  0  0  0  0  0  0  0  0  0  0  0
   44.9410   28.4430   47.3490 N   0  0  0  0  0  0  0  0  0  0  0  0
   44.0080   27.9570   47.1970 H   0  0  0  0  0  0  0  0  0  0  0  0
  2  1  2  6  0  0  0
  2 24  1  0  0  0  0
  3  2  1  0  0  0  0
  4  3  1  0  0  0  0
  5  2  1  0  0  0  0
  6 11  1  1  0  0  0
  6  5  1  0  0  0  0
  7 13  1  0  0  0  0
  7 12  1  0  0  0  0
  7  6  1  0  0  0  0
  8  9  1  0  0  0  0
  8  7  1  0  0  0  0
  9 16  1  0  0  0  0
  9 10  1  0  0  0  0
 10 19  1  0  0  0  0
 10  6  1  0  0  0  0
 10 18  1  1  0  0  0
 14  8  1  0  0  0  0
 15  8  1  0  0  0  0
 17  9  1  0  0  0  0
 19 22  1  0  0  0  0
 20 19  1  0  0  0  0
 21 19  1  0  0  0  0
 23 22  1  0  0  0  0
 24 25  1  0  0  0  0
 25 26  1  0  0  0  0
 25 30  1  0  0  0  0
 27 25  1  0  0  0  0
 28 34  1  0  0  0  0
 29 35  1  0  0  0  0
 29 28  2  0  0  0  0
 30 29  1  0  0  0  0
 31 30  2  0  0  0  0
 31 32  1  0  0  0  0
 32 33  2  0  0  0  0
 33 28  1  0  0  0  0
 36 37  1  0  0  0  0
 37 38  2  0  0  0  0
 37 39  1  0  0  0  0
 39 32  1  0  0  0  0
 40 39  1  0  0  0  0
M  END
>  <minimizedAffinity>
-5.89521503

>  <minimizedRMSD>
0.766398489

$$$$
