
 OpenBabel03252508203D

 30 31  0  0  0  0  0  0  0  0999 V2000
   43.7540   34.1250   41.5570 C   0  0  0  0  0  0  0  0  0  0  0  0
   43.2900   35.0210   42.0550 H   0  0  0  0  0  0  0  0  0  0  0  0
   43.3010   33.2420   42.0100 H   0  0  0  0  0  0  0  0  0  0  0  0
   45.2070   34.2660   41.7450 C   0  0  0  0  0  0  0  0  0  0  0  0
   46.1560   34.3020   40.7580 C   0  0  0  0  0  0  0  0  0  0  0  0
   47.5100   34.4370   40.9930 C   0  0  0  0  0  0  0  0  0  0  0  0
   47.9210   34.5420   42.3190 C   0  0  0  0  0  0  0  0  0  0  0  0
   46.9890   34.5090   43.3310 C   0  0  0  0  0  0  0  0  0  0  0  0
   45.6590   34.3740   43.0550 C   0  0  0  0  0  0  0  0  0  0  0  0
   45.8000   34.2180   39.7430 H   0  0  0  0  0  0  0  0  0  0  0  0
   48.1680   34.4530   40.1390 H   0  0  0  0  0  0  0  0  0  0  0  0
   48.9890   34.6480   42.5020 H   0  0  0  0  0  0  0  0  0  0  0  0
   47.3600   34.5940   44.3400 H   0  0  0  0  0  0  0  0  0  0  0  0
   43.8660   36.0500   45.3890 H   0  0  0  0  0  0  0  0  0  0  0  0
   44.5000   35.6970   44.5690 C   0  0  0  0  0  0  0  0  0  0  0  0
   45.0390   36.6200   43.9040 O   0  0  0  0  0  0  0  0  0  0  0  0
   44.7800   34.3510   44.1780 N   0  0  0  0  0  0  0  0  0  0  0  0
   44.3130   33.6270   44.7580 H   0  0  0  0  0  0  0  0  0  0  0  0
   43.4040   34.2980   40.0770 C   0  0  0  0  0  0  0  0  0  0  0  0
   43.6830   33.4190   39.4910 H   0  0  0  0  0  0  0  0  0  0  0  0
   43.9220   35.2300   39.7570 H   0  0  0  0  0  0  0  0  0  0  0  0
   39.9810   35.8280   40.5450 C   0  0  0  0  0  0  0  0  0  0  0  0
   41.3810   35.6280   40.6910 C   0  0  0  0  0  0  0  0  0  0  0  0
   41.9430   34.5800   39.9830 C   0  0  0  0  0  0  0  0  0  0  0  0
   41.1310   33.8010   39.1900 N   0  0  0  0  0  0  0  0  0  0  0  0
   39.8140   34.0340   39.0880 C   0  0  0  0  0  0  0  0  0  0  0  0
   39.2350   35.0510   39.7680 N   0  0  0  0  0  0  0  0  0  0  0  0
   39.6440   36.6810   41.1470 H   0  0  0  0  0  0  0  0  0  0  0  0
   42.0010   36.2500   41.3190 H   0  0  0  0  0  0  0  0  0  0  0  0
   39.1610   33.4310   38.4690 H   0  0  0  0  0  0  0  0  0  0  0  0
  1  4  1  0  0  0  0
  1  3  1  0  0  0  0
  1  2  1  0  0  0  0
  4  9  1  0  0  0  0
  5  6  1  0  0  0  0
  5  4  2  0  0  0  0
  6  7  2  0  0  0  0
  7 12  1  0  0  0  0
  7  8  1  0  0  0  0
  8 13  1  0  0  0  0
  9  8  2  0  0  0  0
  9 17  1  0  0  0  0
 10  5  1  0  0  0  0
 11  6  1  0  0  0  0
 15 14  1  0  0  0  0
 16 15  2  0  0  0  0
 17 15  1  0  0  0  0
 17 18  1  0  0  0  0
 19  1  1  0  0  0  0
 20 19  1  0  0  0  0
 21 19  1  0  0  0  0
 22 23  1  0  0  0  0
 22 28  1  0  0  0  0
 23 29  1  0  0  0  0
 24 19  1  0  0  0  0
 24 23  2  0  0  0  0
 25 24  1  0  0  0  0
 26 25  2  0  0  0  0
 26 27  1  0  0  0  0
 27 22  2  0  0  0  0
 30 26  1  0  0  0  0
M  END
>  <minimizedAffinity>
-4.92767429

>  <minimizedRMSD>
1.7718991

$$$$
