
 OpenBabel03252508193D

 30 31  0  0  0  0  0  0  0  0999 V2000
   44.9630   33.3690   41.1560 C   0  0  0  0  0  0  0  0  0  0  0  0
   44.4640   33.8310   42.0530 H   0  0  0  0  0  0  0  0  0  0  0  0
   44.9990   32.2920   41.3350 H   0  0  0  0  0  0  0  0  0  0  0  0
   46.2680   34.0390   41.0300 C   0  0  0  0  0  0  0  0  0  0  0  0
   47.0910   34.0180   39.9350 C   0  0  0  0  0  0  0  0  0  0  0  0
   48.3080   34.6670   39.8710 C   0  0  0  0  0  0  0  0  0  0  0  0
   48.7080   35.3840   40.9940 C   0  0  0  0  0  0  0  0  0  0  0  0
   47.9010   35.4240   42.1090 C   0  0  0  0  0  0  0  0  0  0  0  0
   46.7050   34.7670   42.1300 C   0  0  0  0  0  0  0  0  0  0  0  0
   46.7460   33.4520   39.0840 H   0  0  0  0  0  0  0  0  0  0  0  0
   48.8740   34.5820   38.9580 H   0  0  0  0  0  0  0  0  0  0  0  0
   49.6690   35.8960   40.9420 H   0  0  0  0  0  0  0  0  0  0  0  0
   48.2590   35.9940   42.9520 H   0  0  0  0  0  0  0  0  0  0  0  0
   46.1260   33.7580   45.3110 H   0  0  0  0  0  0  0  0  0  0  0  0
   46.4660   33.9420   44.2870 C   0  0  0  0  0  0  0  0  0  0  0  0
   47.4390   33.2290   43.9320 O   0  0  0  0  0  0  0  0  0  0  0  0
   45.9480   34.8730   43.3340 N   0  0  0  0  0  0  0  0  0  0  0  0
   45.1450   35.4390   43.6750 H   0  0  0  0  0  0  0  0  0  0  0  0
   44.0620   33.7610   39.9830 C   0  0  0  0  0  0  0  0  0  0  0  0
   43.9960   32.9630   39.2410 H   0  0  0  0  0  0  0  0  0  0  0  0
   44.4920   34.7070   39.5840 H   0  0  0  0  0  0  0  0  0  0  0  0
   41.2140   35.5730   41.6810 C   0  0  0  0  0  0  0  0  0  0  0  0
   42.5220   35.3170   41.1860 C   0  0  0  0  0  0  0  0  0  0  0  0
   42.7220   34.1120   40.5340 C   0  0  0  0  0  0  0  0  0  0  0  0
   41.6640   33.2430   40.4020 N   0  0  0  0  0  0  0  0  0  0  0  0
   40.4470   33.5350   40.8880 C   0  0  0  0  0  0  0  0  0  0  0  0
   40.2210   34.7040   41.5310 N   0  0  0  0  0  0  0  0  0  0  0  0
   41.1690   36.5500   42.1760 H   0  0  0  0  0  0  0  0  0  0  0  0
   43.3400   36.0120   41.3000 H   0  0  0  0  0  0  0  0  0  0  0  0
   39.6050   32.8620   40.7930 H   0  0  0  0  0  0  0  0  0  0  0  0
  1  3  1  0  0  0  0
  1  2  1  0  0  0  0
  4  1  1  0  0  0  0
  4  9  1  0  0  0  0
  5  4  2  0  0  0  0
  6  5  1  0  0  0  0
  6  7  2  0  0  0  0
  7  8  1  0  0  0  0
  8  9  2  0  0  0  0
  8 13  1  0  0  0  0
  9 17  1  0  0  0  0
 10  5  1  0  0  0  0
 11  6  1  0  0  0  0
 12  7  1  0  0  0  0
 15 14  1  0  0  0  0
 16 15  2  0  0  0  0
 17 18  1  0  0  0  0
 17 15  1  0  0  0  0
 19 24  1  0  0  0  0
 19  1  1  0  0  0  0
 20 19  1  0  0  0  0
 21 19  1  0  0  0  0
 22 28  1  0  0  0  0
 23 29  1  0  0  0  0
 23 22  2  0  0  0  0
 24 23  1  0  0  0  0
 25 24  2  0  0  0  0
 25 26  1  0  0  0  0
 26 27  2  0  0  0  0
 27 22  1  0  0  0  0
 30 26  1  0  0  0  0
M  END
>  <minimizedAffinity>
-4.67359781

>  <minimizedRMSD>
0.901318491

$$$$
