
 OpenBabel03252509353D

 40 41  0  0  1  0  0  0  0  0999 V2000
   44.5470   35.4660   44.1840 O   0  0  0  0  0  0  0  0  0  0  0  0
   45.4130   34.2390   44.3930 P   0  0  1  0  0  0  0  0  0  0  0  0
   44.7070   32.8850   43.6610 O   0  0  0  0  0  0  0  0  0  0  0  0
   44.3780   33.0740   42.7420 H   0  0  0  0  0  0  0  0  0  0  0  0
   46.9080   34.5400   43.7080 O   0  0  0  0  0  0  0  0  0  0  0  0
   47.0260   33.8370   42.5030 C   0  0  1  0  0  0  0  0  0  0  0  0
   46.4440   34.6700   41.3580 C   0  0  0  0  0  0  0  0  0  0  0  0
   46.9370   33.8940   40.1670 C   0  0  0  0  0  0  0  0  0  0  0  0
   48.2200   33.2070   40.6140 C   0  0  0  0  0  0  0  0  0  0  0  0
   48.4410   33.6830   42.0410 C   0  0  1  0  0  0  0  0  0  0  0  0
   46.4930   32.8890   42.4880 H   0  0  0  0  0  0  0  0  0  0  0  0
   45.3160   34.6820   41.4080 H   0  0  0  0  0  0  0  0  0  0  0  0
   46.7490   35.7120   41.3670 H   0  0  0  0  0  0  0  0  0  0  0  0
   46.1480   33.1820   39.8800 H   0  0  0  0  0  0  0  0  0  0  0  0
   47.1410   34.6140   39.3400 H   0  0  0  0  0  0  0  0  0  0  0  0
   47.9930   32.1220   40.6680 H   0  0  0  0  0  0  0  0  0  0  0  0
   49.0690   33.4530   39.9540 H   0  0  0  0  0  0  0  0  0  0  0  0
   48.8980   32.8640   42.6320 H   0  0  0  0  0  0  0  0  0  0  0  0
   49.2190   34.9670   42.0850 C   0  0  0  0  0  0  0  0  0  0  0  0
   49.9160   34.9660   41.2010 H   0  0  0  0  0  0  0  0  0  0  0  0
   48.6160   35.8850   42.0360 H   0  0  0  0  0  0  0  0  0  0  0  0
   50.0000   35.0740   43.2160 O   0  0  0  0  0  0  0  0  0  0  0  0
   50.6570   35.7890   43.1150 H   0  0  0  0  0  0  0  0  0  0  0  0
   45.5590   33.8890   46.0160 O   0  0  0  0  0  0  0  0  0  0  0  0
   46.4210   32.8440   46.1690 C   0  0  0  0  0  0  0  0  0  0  0  0
   47.3990   33.2890   46.5150 H   0  0  0  0  0  0  0  0  0  0  0  0
   46.6730   32.2550   45.2910 H   0  0  0  0  0  0  0  0  0  0  0  0
   45.2330   31.5590   49.4570 C   0  0  0  0  0  0  0  0  0  0  0  0
   45.6290   32.4620   48.4570 C   0  0  0  0  0  0  0  0  0  0  0  0
   45.9990   31.9160   47.2350 C   0  0  0  0  0  0  0  0  0  0  0  0
   45.9620   30.5530   47.0610 N   0  0  0  0  0  0  0  0  0  0  0  0
   45.5750   29.7100   48.0390 C   0  0  0  0  0  0  0  0  0  0  0  0
   45.2150   30.2130   49.2270 N   0  0  0  0  0  0  0  0  0  0  0  0
   44.9280   31.8940   50.4400 H   0  0  0  0  0  0  0  0  0  0  0  0
   45.6380   33.5070   48.6530 H   0  0  0  0  0  0  0  0  0  0  0  0
   46.8790   26.7220   46.9260 H   0  0  0  0  0  0  0  0  0  0  0  0
   46.6890   27.7610   47.1820 C   0  0  0  0  0  0  0  0  0  0  0  0
   47.6580   28.4920   46.8120 O   0  0  0  0  0  0  0  0  0  0  0  0
   45.5450   28.3020   47.8360 N   0  0  0  0  0  0  0  0  0  0  0  0
   44.7970   27.5950   48.0990 H   0  0  0  0  0  0  0  0  0  0  0  0
  2  1  2  6  0  0  0
  2 24  1  0  0  0  0
  3  2  1  0  0  0  0
  4  3  1  0  0  0  0
  5  2  1  0  0  0  0
  6 11  1  1  0  0  0
  6  5  1  0  0  0  0
  7 13  1  0  0  0  0
  7 12  1  0  0  0  0
  7  6  1  0  0  0  0
  8  9  1  0  0  0  0
  8  7  1  0  0  0  0
  9 16  1  0  0  0  0
  9 10  1  0  0  0  0
 10 19  1  0  0  0  0
 10  6  1  0  0  0  0
 10 18  1  1  0  0  0
 14  8  1  0  0  0  0
 15  8  1  0  0  0  0
 17  9  1  0  0  0  0
 19 22  1  0  0  0  0
 20 19  1  0  0  0  0
 21 19  1  0  0  0  0
 23 22  1  0  0  0  0
 24 25  1  0  0  0  0
 25 26  1  0  0  0  0
 25 30  1  0  0  0  0
 27 25  1  0  0  0  0
 28 34  1  0  0  0  0
 29 35  1  0  0  0  0
 29 28  2  0  0  0  0
 30 29  1  0  0  0  0
 31 30  2  0  0  0  0
 31 32  1  0  0  0  0
 32 33  2  0  0  0  0
 33 28  1  0  0  0  0
 36 37  1  0  0  0  0
 37 39  1  0  0  0  0
 38 37  2  0  0  0  0
 39 32  1  0  0  0  0
 39 40  1  0  0  0  0
M  END
>  <minimizedAffinity>
-5.77936363

>  <minimizedRMSD>
0.756900966

$$$$
