REMARK  Name = 
REMARK  4 active torsions:
REMARK  status: ('A' for Active; 'I' for Inactive)
REMARK    1  A    between atoms: C_1  and  C_4
REMARK    2  A    between atoms: C_1  and  C_8
REMARK    3  A    between atoms: C_8  and  C_9
REMARK    4  A    between atoms: C_14  and  N_29
REMARK                            x       y       z     vdW  Elec       q    Type
REMARK                         _______ _______ _______ _____ _____    ______ ____
ROOT
ATOM      1  C   UNL     1      44.676  34.057  41.850  0.00  0.00    +0.000 C 
ATOM      2  H   UNL     1      44.201  35.037  42.133  0.00  0.00    +0.000 HD
ATOM      3  H   UNL     1      44.593  33.403  42.720  0.00  0.00    +0.000 HD
ENDROOT
BRANCH   1   4
ATOM      4  C   UNL     1      46.047  34.381  41.423  0.00  0.00    +0.000 A 
ATOM      5  C   UNL     1      46.631  34.039  40.232  0.00  0.00    +0.000 A 
ATOM      6  C   UNL     1      47.925  34.371  39.883  0.00  0.00    +0.000 A 
ATOM      7  C   UNL     1      48.669  35.098  40.807  0.00  0.00    +0.000 A 
ATOM      8  C   UNL     1      48.108  35.456  42.012  0.00  0.00    +0.000 A 
ATOM      9  C   UNL     1      46.824  35.107  42.318  0.00  0.00    +0.000 A 
ATOM     10  H   UNL     1      46.023  33.476  39.541  0.00  0.00    +0.000 HD
ATOM     11  H   UNL     1      48.282  34.049  38.918  0.00  0.00    +0.000 HD
ATOM     12  H   UNL     1      49.690  35.359  40.530  0.00  0.00    +0.000 HD
ATOM     13  H   UNL     1      48.728  36.019  42.692  0.00  0.00    +0.000 HD
BRANCH   9  17
ATOM     14  H   UNL     1      45.273  37.437  44.224  0.00  0.00    +0.000 HD
ATOM     15  C   UNL     1      45.742  36.818  43.453  0.00  0.00    +0.000 C 
ATOM     16  O   UNL     1      45.738  37.336  42.306  0.00  0.00    +0.000 OA
ATOM     17  N   UNL     1      46.342  35.528  43.592  0.00  0.00    +0.000 N 
ATOM     18  H   UNL     1      46.321  35.144  44.558  0.00  0.00    +0.000 HD
ENDBRANCH   9  17
ENDBRANCH   1   4
BRANCH   1  19
ATOM     19  C   UNL     1      43.858  33.579  40.648  0.00  0.00    +0.000 C 
ATOM     20  H   UNL     1      44.157  32.578  40.329  0.00  0.00    +0.000 HD
ATOM     21  H   UNL     1      44.000  34.357  39.865  0.00  0.00    +0.000 HD
BRANCH  19  24
ATOM     22  C   UNL     1      40.377  34.794  41.473  0.00  0.00    +0.000 A 
ATOM     23  C   UNL     1      41.749  34.837  41.104  0.00  0.00    +0.000 A 
ATOM     24  C   UNL     1      42.417  33.627  41.028  0.00  0.00    +0.000 A 
ATOM     25  N   UNL     1      41.730  32.468  41.308  0.00  0.00    +0.000 NA
ATOM     26  C   UNL     1      40.433  32.484  41.652  0.00  0.00    +0.000 A 
ATOM     27  N   UNL     1      39.753  33.651  41.736  0.00  0.00    +0.000 NA
ATOM     28  H   UNL     1      39.949  35.803  41.502  0.00  0.00    +0.000 HD
ATOM     29  H   UNL     1      42.271  35.757  40.888  0.00  0.00    +0.000 HD
ATOM     30  H   UNL     1      39.878  31.582  41.876  0.00  0.00    +0.000 HD
ENDBRANCH  19  24
ENDBRANCH   1  19
TORSDOF 4
