
 OpenBabel03252508223D

 30 31  0  0  0  0  0  0  0  0999 V2000
   35.7580   30.2960   40.6890 C   0  0  0  0  0  0  0  0  0  0  0  0
   34.6900   30.6440   40.6180 H   0  0  0  0  0  0  0  0  0  0  0  0
   36.2040   30.8150   41.5390 H   0  0  0  0  0  0  0  0  0  0  0  0
   36.3630   30.5810   39.3780 C   0  0  0  0  0  0  0  0  0  0  0  0
   36.3250   29.7750   38.2710 C   0  0  0  0  0  0  0  0  0  0  0  0
   36.9120   30.0940   37.0620 C   0  0  0  0  0  0  0  0  0  0  0  0
   37.5790   31.3120   36.9790 C   0  0  0  0  0  0  0  0  0  0  0  0
   37.6340   32.1420   38.0750 C   0  0  0  0  0  0  0  0  0  0  0  0
   37.0400   31.7880   39.2520 C   0  0  0  0  0  0  0  0  0  0  0  0
   35.7980   28.8390   38.3740 H   0  0  0  0  0  0  0  0  0  0  0  0
   36.8190   29.3830   36.2570 H   0  0  0  0  0  0  0  0  0  0  0  0
   38.0420   31.5620   36.0240 H   0  0  0  0  0  0  0  0  0  0  0  0
   38.1640   33.0750   37.9560 H   0  0  0  0  0  0  0  0  0  0  0  0
   38.8670   33.1190   41.7730 H   0  0  0  0  0  0  0  0  0  0  0  0
   38.4430   32.5680   40.9280 C   0  0  0  0  0  0  0  0  0  0  0  0
   39.2090   31.6930   40.4480 O   0  0  0  0  0  0  0  0  0  0  0  0
   37.1570   32.7210   40.3240 N   0  0  0  0  0  0  0  0  0  0  0  0
   36.5620   33.4560   40.7570 H   0  0  0  0  0  0  0  0  0  0  0  0
   35.6450   28.7830   40.8900 C   0  0  0  0  0  0  0  0  0  0  0  0
   35.6560   28.2470   39.9370 H   0  0  0  0  0  0  0  0  0  0  0  0
   34.7110   28.6310   41.4750 H   0  0  0  0  0  0  0  0  0  0  0  0
   38.1470   26.6890   42.7950 C   0  0  0  0  0  0  0  0  0  0  0  0
   37.0620   27.0120   41.9350 C   0  0  0  0  0  0  0  0  0  0  0  0
   36.7660   28.3540   41.7740 C   0  0  0  0  0  0  0  0  0  0  0  0
   37.5230   29.2880   42.4430 N   0  0  0  0  0  0  0  0  0  0  0  0
   38.5380   28.9290   43.2450 C   0  0  0  0  0  0  0  0  0  0  0  0
   38.8510   27.6250   43.4230 N   0  0  0  0  0  0  0  0  0  0  0  0
   38.2930   25.6040   42.8490 H   0  0  0  0  0  0  0  0  0  0  0  0
   36.4800   26.2640   41.4180 H   0  0  0  0  0  0  0  0  0  0  0  0
   39.1430   29.6510   43.7790 H   0  0  0  0  0  0  0  0  0  0  0  0
  1 19  1  0  0  0  0
  1  3  1  0  0  0  0
  2  1  1  0  0  0  0
  4  1  1  0  0  0  0
  5 10  1  0  0  0  0
  5  4  2  0  0  0  0
  6  5  1  0  0  0  0
  7  6  2  0  0  0  0
  7  8  1  0  0  0  0
  8  9  2  0  0  0  0
  9  4  1  0  0  0  0
  9 17  1  0  0  0  0
 11  6  1  0  0  0  0
 12  7  1  0  0  0  0
 13  8  1  0  0  0  0
 15 14  1  0  0  0  0
 16 15  2  0  0  0  0
 17 18  1  0  0  0  0
 17 15  1  0  0  0  0
 19 21  1  0  0  0  0
 19 24  1  0  0  0  0
 20 19  1  0  0  0  0
 22 28  1  0  0  0  0
 22 27  1  0  0  0  0
 23 22  2  0  0  0  0
 24 23  1  0  0  0  0
 24 25  2  0  0  0  0
 25 26  1  0  0  0  0
 26 27  2  0  0  0  0
 26 30  1  0  0  0  0
 29 23  1  0  0  0  0
M  END
>  <minimizedAffinity>
-5.11092234

$$$$

 OpenBabel03252508223D

 30 31  0  0  0  0  0  0  0  0999 V2000
   37.3310   28.8520   42.7530 C   0  0  0  0  0  0  0  0  0  0  0  0
   36.8740   28.1640   41.9890 H   0  0  0  0  0  0  0  0  0  0  0  0
   36.5640   29.0410   43.5070 H   0  0  0  0  0  0  0  0  0  0  0  0
   37.7990   30.0310   42.0070 C   0  0  0  0  0  0  0  0  0  0  0  0
   39.0700   30.5420   42.0050 C   0  0  0  0  0  0  0  0  0  0  0  0
   39.4540   31.6550   41.2840 C   0  0  0  0  0  0  0  0  0  0  0  0
   38.4800   32.2850   40.5160 C   0  0  0  0  0  0  0  0  0  0  0  0
   37.1940   31.7940   40.4980 C   0  0  0  0  0  0  0  0  0  0  0  0
   36.8560   30.6900   41.2270 C   0  0  0  0  0  0  0  0  0  0  0  0
   39.7980   30.0270   42.6130 H   0  0  0  0  0  0  0  0  0  0  0  0
   40.4830   31.9690   41.3570 H   0  0  0  0  0  0  0  0  0  0  0  0
   38.7850   33.1630   39.9470 H   0  0  0  0  0  0  0  0  0  0  0  0
   36.4780   32.3200   39.8860 H   0  0  0  0  0  0  0  0  0  0  0  0
   34.4440   28.9590   39.5990 H   0  0  0  0  0  0  0  0  0  0  0  0
   35.3470   29.4510   39.9730 C   0  0  0  0  0  0  0  0  0  0  0  0
   36.3690   29.2540   39.2660 O   0  0  0  0  0  0  0  0  0  0  0  0
   35.4980   30.2660   41.1370 N   0  0  0  0  0  0  0  0  0  0  0  0
   34.6260   30.3980   41.6870 H   0  0  0  0  0  0  0  0  0  0  0  0
   38.5320   28.0680   43.2890 C   0  0  0  0  0  0  0  0  0  0  0  0
   38.6350   28.1780   44.3710 H   0  0  0  0  0  0  0  0  0  0  0  0
   39.4100   28.4440   42.7180 H   0  0  0  0  0  0  0  0  0  0  0  0
   37.0740   24.8210   42.0200 C   0  0  0  0  0  0  0  0  0  0  0  0
   37.1570   26.1970   42.3690 C   0  0  0  0  0  0  0  0  0  0  0  0
   38.3570   26.6400   42.8960 C   0  0  0  0  0  0  0  0  0  0  0  0
   39.3890   25.7430   43.0510 N   0  0  0  0  0  0  0  0  0  0  0  0
   39.2570   24.4530   42.7050 C   0  0  0  0  0  0  0  0  0  0  0  0
   38.0960   23.9890   42.1880 N   0  0  0  0  0  0  0  0  0  0  0  0
   36.0850   24.5800   41.6150 H   0  0  0  0  0  0  0  0  0  0  0  0
   36.3360   26.8860   42.2400 H   0  0  0  0  0  0  0  0  0  0  0  0
   40.0580   23.7340   42.8210 H   0  0  0  0  0  0  0  0  0  0  0  0
  1 19  1  0  0  0  0
  1  3  1  0  0  0  0
  2  1  1  0  0  0  0
  4  1  1  0  0  0  0
  5  4  1  0  0  0  0
  5 10  1  0  0  0  0
  6 11  1  0  0  0  0
  6  5  2  0  0  0  0
  7  6  1  0  0  0  0
  8  7  2  0  0  0  0
  8  9  1  0  0  0  0
  9  4  2  0  0  0  0
 12  7  1  0  0  0  0
 13  8  1  0  0  0  0
 14 15  1  0  0  0  0
 15 17  1  0  0  0  0
 16 15  2  0  0  0  0
 17  9  1  0  0  0  0
 17 18  1  0  0  0  0
 19 20  1  0  0  0  0
 21 19  1  0  0  0  0
 22 27  2  0  0  0  0
 22 23  1  0  0  0  0
 23 24  2  0  0  0  0
 24 25  1  0  0  0  0
 24 19  1  0  0  0  0
 26 30  1  0  0  0  0
 26 25  2  0  0  0  0
 27 26  1  0  0  0  0
 28 22  1  0  0  0  0
 29 23  1  0  0  0  0
M  END
>  <minimizedAffinity>
-4.95673418

$$$$

 OpenBabel03252508223D

 30 31  0  0  0  0  0  0  0  0999 V2000
   36.5260   29.2760   40.1580 C   0  0  0  0  0  0  0  0  0  0  0  0
   36.4060   30.0030   41.0090 H   0  0  0  0  0  0  0  0  0  0  0  0
   35.6410   29.3790   39.5280 H   0  0  0  0  0  0  0  0  0  0  0  0
   36.7180   27.9560   40.7780 C   0  0  0  0  0  0  0  0  0  0  0  0
   36.7150   26.7460   40.1350 C   0  0  0  0  0  0  0  0  0  0  0  0
   36.9020   25.5340   40.7700 C   0  0  0  0  0  0  0  0  0  0  0  0
   37.1050   25.5580   42.1460 C   0  0  0  0  0  0  0  0  0  0  0  0
   37.1130   26.7590   42.8180 C   0  0  0  0  0  0  0  0  0  0  0  0
   36.9240   27.9360   42.1530 C   0  0  0  0  0  0  0  0  0  0  0  0
   36.5550   26.7670   39.0690 H   0  0  0  0  0  0  0  0  0  0  0  0
   36.8800   24.6420   40.1640 H   0  0  0  0  0  0  0  0  0  0  0  0
   37.2510   24.6010   42.6450 H   0  0  0  0  0  0  0  0  0  0  0  0
   37.2750   26.7210   43.8840 H   0  0  0  0  0  0  0  0  0  0  0  0
   38.7020   30.3150   43.7810 H   0  0  0  0  0  0  0  0  0  0  0  0
   38.3140   29.4670   43.2070 C   0  0  0  0  0  0  0  0  0  0  0  0
   39.2050   28.7200   42.7270 O   0  0  0  0  0  0  0  0  0  0  0  0
   36.9520   29.1210   42.9450 N   0  0  0  0  0  0  0  0  0  0  0  0
   36.2540   29.7690   43.3620 H   0  0  0  0  0  0  0  0  0  0  0  0
   37.8190   29.7190   39.4690 C   0  0  0  0  0  0  0  0  0  0  0  0
   37.7920   29.5210   38.3950 H   0  0  0  0  0  0  0  0  0  0  0  0
   38.6360   29.1810   40.0000 H   0  0  0  0  0  0  0  0  0  0  0  0
   37.3730   33.4680   39.6120 C   0  0  0  0  0  0  0  0  0  0  0  0
   37.1110   32.1070   39.2940 C   0  0  0  0  0  0  0  0  0  0  0  0
   38.0170   31.1680   39.7560 C   0  0  0  0  0  0  0  0  0  0  0  0
   39.1040   31.5940   40.4840 N   0  0  0  0  0  0  0  0  0  0  0  0
   39.3050   32.8920   40.7570 C   0  0  0  0  0  0  0  0  0  0  0  0
   38.4370   33.8340   40.3180 N   0  0  0  0  0  0  0  0  0  0  0  0
   36.5960   34.1220   39.2000 H   0  0  0  0  0  0  0  0  0  0  0  0
   36.2520   31.7930   38.7210 H   0  0  0  0  0  0  0  0  0  0  0  0
   40.1550   33.2440   41.3280 H   0  0  0  0  0  0  0  0  0  0  0  0
  1  4  1  0  0  0  0
  1  2  1  0  0  0  0
  3  1  1  0  0  0  0
  4  9  1  0  0  0  0
  5  6  1  0  0  0  0
  5  4  2  0  0  0  0
  6  7  2  0  0  0  0
  7 12  1  0  0  0  0
  7  8  1  0  0  0  0
  8 13  1  0  0  0  0
  9  8  2  0  0  0  0
  9 17  1  0  0  0  0
 10  5  1  0  0  0  0
 11  6  1  0  0  0  0
 15 14  1  0  0  0  0
 16 15  2  0  0  0  0
 17 15  1  0  0  0  0
 17 18  1  0  0  0  0
 19 24  1  0  0  0  0
 19 21  1  0  0  0  0
 19  1  1  0  0  0  0
 20 19  1  0  0  0  0
 22 27  1  0  0  0  0
 23 22  2  0  0  0  0
 23 24  1  0  0  0  0
 24 25  2  0  0  0  0
 25 26  1  0  0  0  0
 26 30  1  0  0  0  0
 27 26  2  0  0  0  0
 28 22  1  0  0  0  0
 29 23  1  0  0  0  0
M  END
>  <minimizedAffinity>
-4.83520412

$$$$

 OpenBabel03252508223D

 30 31  0  0  0  0  0  0  0  0999 V2000
   39.2940   30.3460   42.8100 C   0  0  0  0  0  0  0  0  0  0  0  0
   39.9400   30.3580   43.7310 H   0  0  0  0  0  0  0  0  0  0  0  0
   38.6380   31.2170   42.8720 H   0  0  0  0  0  0  0  0  0  0  0  0
   38.6190   29.0380   42.8060 C   0  0  0  0  0  0  0  0  0  0  0  0
   39.1830   27.8300   43.1260 C   0  0  0  0  0  0  0  0  0  0  0  0
   38.5000   26.6300   43.1050 C   0  0  0  0  0  0  0  0  0  0  0  0
   37.1590   26.6650   42.7370 C   0  0  0  0  0  0  0  0  0  0  0  0
   36.5660   27.8640   42.4110 C   0  0  0  0  0  0  0  0  0  0  0  0
   37.2780   29.0290   42.4440 C   0  0  0  0  0  0  0  0  0  0  0  0
   40.2240   27.8440   43.4070 H   0  0  0  0  0  0  0  0  0  0  0  0
   39.0440   25.7400   43.3760 H   0  0  0  0  0  0  0  0  0  0  0  0
   36.6220   25.7170   42.7220 H   0  0  0  0  0  0  0  0  0  0  0  0
   35.5240   27.8340   42.1330 H   0  0  0  0  0  0  0  0  0  0  0  0
   35.9610   31.0310   40.0510 H   0  0  0  0  0  0  0  0  0  0  0  0
   36.4460   30.2650   40.6650 C   0  0  0  0  0  0  0  0  0  0  0  0
   36.9520   29.3220   40.0040 O   0  0  0  0  0  0  0  0  0  0  0  0
   36.5670   30.2120   42.0880 N   0  0  0  0  0  0  0  0  0  0  0  0
   36.1330   31.0140   42.5880 H   0  0  0  0  0  0  0  0  0  0  0  0
   40.2930   30.4170   41.6520 C   0  0  0  0  0  0  0  0  0  0  0  0
   40.1690   29.5810   40.9600 H   0  0  0  0  0  0  0  0  0  0  0  0
   41.2970   30.4550   42.1300 H   0  0  0  0  0  0  0  0  0  0  0  0
   40.8140   33.4710   39.4900 C   0  0  0  0  0  0  0  0  0  0  0  0
   41.0700   32.2130   40.1010 C   0  0  0  0  0  0  0  0  0  0  0  0
   40.1070   31.7290   40.9680 C   0  0  0  0  0  0  0  0  0  0  0  0
   38.9730   32.4770   41.1900 N   0  0  0  0  0  0  0  0  0  0  0  0
   38.7810   33.6600   40.5860 C   0  0  0  0  0  0  0  0  0  0  0  0
   39.7050   34.1610   39.7340 N   0  0  0  0  0  0  0  0  0  0  0  0
   41.6380   33.7570   38.8260 H   0  0  0  0  0  0  0  0  0  0  0  0
   41.9660   31.6410   39.9140 H   0  0  0  0  0  0  0  0  0  0  0  0
   37.8960   34.2610   40.7500 H   0  0  0  0  0  0  0  0  0  0  0  0
  1  3  1  0  0  0  0
  1  2  1  0  0  0  0
  4  1  1  0  0  0  0
  4  5  1  0  0  0  0
  5 10  1  0  0  0  0
  6  5  2  0  0  0  0
  6 11  1  0  0  0  0
  7  6  1  0  0  0  0
  8  9  1  0  0  0  0
  8  7  2  0  0  0  0
  9  4  2  0  0  0  0
 12  7  1  0  0  0  0
 13  8  1  0  0  0  0
 14 15  1  0  0  0  0
 15 17  1  0  0  0  0
 16 15  2  0  0  0  0
 17  9  1  0  0  0  0
 17 18  1  0  0  0  0
 19 21  1  0  0  0  0
 19  1  1  0  0  0  0
 20 19  1  0  0  0  0
 22 27  2  0  0  0  0
 22 23  1  0  0  0  0
 23 24  2  0  0  0  0
 24 25  1  0  0  0  0
 24 19  1  0  0  0  0
 26 30  1  0  0  0  0
 26 25  2  0  0  0  0
 27 26  1  0  0  0  0
 28 22  1  0  0  0  0
 29 23  1  0  0  0  0
M  END
>  <minimizedAffinity>
-4.75057411

$$$$

 OpenBabel03252508223D

 30 31  0  0  0  0  0  0  0  0999 V2000
   39.6410   30.7260   42.5380 C   0  0  0  0  0  0  0  0  0  0  0  0
   40.4000   31.1700   43.2400 H   0  0  0  0  0  0  0  0  0  0  0  0
   38.7120   31.2800   42.6860 H   0  0  0  0  0  0  0  0  0  0  0  0
   39.5870   29.2900   42.8590 C   0  0  0  0  0  0  0  0  0  0  0  0
   40.6570   28.4490   43.0150 C   0  0  0  0  0  0  0  0  0  0  0  0
   40.5470   27.1070   43.3170 C   0  0  0  0  0  0  0  0  0  0  0  0
   39.2640   26.5900   43.4700 C   0  0  0  0  0  0  0  0  0  0  0  0
   38.1700   27.4110   43.3200 C   0  0  0  0  0  0  0  0  0  0  0  0
   38.3230   28.7350   43.0210 C   0  0  0  0  0  0  0  0  0  0  0  0
   41.6350   28.8860   42.8890 H   0  0  0  0  0  0  0  0  0  0  0  0
   41.4580   26.5390   43.4160 H   0  0  0  0  0  0  0  0  0  0  0  0
   39.1790   25.5300   43.7080 H   0  0  0  0  0  0  0  0  0  0  0  0
   37.1980   26.9600   43.4490 H   0  0  0  0  0  0  0  0  0  0  0  0
   35.7040   29.7400   41.1240 H   0  0  0  0  0  0  0  0  0  0  0  0
   36.6060   29.3080   41.5680 C   0  0  0  0  0  0  0  0  0  0  0  0
   37.2510   28.5550   40.7930 O   0  0  0  0  0  0  0  0  0  0  0  0
   37.1240   29.4940   42.8870 N   0  0  0  0  0  0  0  0  0  0  0  0
   36.5560   30.1250   43.4880 H   0  0  0  0  0  0  0  0  0  0  0  0
   40.2550   30.9240   41.1500 C   0  0  0  0  0  0  0  0  0  0  0  0
   40.6680   29.9930   40.7550 H   0  0  0  0  0  0  0  0  0  0  0  0
   41.0120   31.7300   41.2740 H   0  0  0  0  0  0  0  0  0  0  0  0
   37.4260   33.0080   39.7610 C   0  0  0  0  0  0  0  0  0  0  0  0
   38.4110   32.5400   40.6720 C   0  0  0  0  0  0  0  0  0  0  0  0
   39.1960   31.4780   40.2580 C   0  0  0  0  0  0  0  0  0  0  0  0
   38.9850   30.9410   39.0090 N   0  0  0  0  0  0  0  0  0  0  0  0
   38.0390   31.4210   38.1870 C   0  0  0  0  0  0  0  0  0  0  0  0
   37.2550   32.4580   38.5640 N   0  0  0  0  0  0  0  0  0  0  0  0
   36.8650   33.8470   40.1890 H   0  0  0  0  0  0  0  0  0  0  0  0
   38.5620   32.9750   41.6490 H   0  0  0  0  0  0  0  0  0  0  0  0
   37.8590   31.0100   37.2020 H   0  0  0  0  0  0  0  0  0  0  0  0
  1  3  1  0  0  0  0
  1  4  1  0  0  0  0
  1  2  1  0  0  0  0
  4  5  2  0  0  0  0
  4  9  1  0  0  0  0
  5  6  1  0  0  0  0
  6 11  1  0  0  0  0
  6  7  2  0  0  0  0
  7 12  1  0  0  0  0
  8 13  1  0  0  0  0
  8  7  1  0  0  0  0
  9  8  2  0  0  0  0
 10  5  1  0  0  0  0
 14 15  1  0  0  0  0
 15 17  1  0  0  0  0
 16 15  2  0  0  0  0
 17  9  1  0  0  0  0
 17 18  1  0  0  0  0
 19 21  1  0  0  0  0
 19  1  1  0  0  0  0
 20 19  1  0  0  0  0
 22 28  1  0  0  0  0
 22 23  1  0  0  0  0
 23 29  1  0  0  0  0
 24 23  2  0  0  0  0
 24 19  1  0  0  0  0
 25 24  1  0  0  0  0
 26 27  1  0  0  0  0
 26 25  2  0  0  0  0
 27 22  2  0  0  0  0
 30 26  1  0  0  0  0
M  END
>  <minimizedAffinity>
-4.62652683

$$$$

 OpenBabel03252508223D

 30 31  0  0  0  0  0  0  0  0999 V2000
   39.2060   29.7440   42.5010 C   0  0  0  0  0  0  0  0  0  0  0  0
   39.7060   30.3820   43.2810 H   0  0  0  0  0  0  0  0  0  0  0  0
   39.9910   29.1450   42.0330 H   0  0  0  0  0  0  0  0  0  0  0  0
   38.4970   30.6760   41.6090 C   0  0  0  0  0  0  0  0  0  0  0  0
   37.2580   30.4890   41.0560 C   0  0  0  0  0  0  0  0  0  0  0  0
   36.6380   31.4000   40.2240 C   0  0  0  0  0  0  0  0  0  0  0  0
   37.3270   32.5750   39.9390 C   0  0  0  0  0  0  0  0  0  0  0  0
   38.5740   32.7900   40.4810 C   0  0  0  0  0  0  0  0  0  0  0  0
   39.1510   31.8620   41.2990 C   0  0  0  0  0  0  0  0  0  0  0  0
   36.7550   29.5660   41.3000 H   0  0  0  0  0  0  0  0  0  0  0  0
   35.6610   31.1490   39.8450 H   0  0  0  0  0  0  0  0  0  0  0  0
   36.8360   33.2930   39.2820 H   0  0  0  0  0  0  0  0  0  0  0  0
   39.0640   33.7170   40.2270 H   0  0  0  0  0  0  0  0  0  0  0  0
   42.5030   32.0260   40.8450 H   0  0  0  0  0  0  0  0  0  0  0  0
   41.4170   31.8990   40.7980 C   0  0  0  0  0  0  0  0  0  0  0  0
   41.0000   31.4400   39.7030 O   0  0  0  0  0  0  0  0  0  0  0  0
   40.4440   32.1850   41.8050 N   0  0  0  0  0  0  0  0  0  0  0  0
   40.8380   32.5610   42.6900 H   0  0  0  0  0  0  0  0  0  0  0  0
   38.1940   28.9110   43.2920 C   0  0  0  0  0  0  0  0  0  0  0  0
   37.1690   29.1200   42.9800 H   0  0  0  0  0  0  0  0  0  0  0  0
   38.3910   29.1450   44.3620 H   0  0  0  0  0  0  0  0  0  0  0  0
   39.9460   25.5680   43.4560 C   0  0  0  0  0  0  0  0  0  0  0  0
   39.6880   26.9480   43.6800 C   0  0  0  0  0  0  0  0  0  0  0  0
   38.5430   27.4730   43.1080 C   0  0  0  0  0  0  0  0  0  0  0  0
   37.7290   26.6470   42.3670 N   0  0  0  0  0  0  0  0  0  0  0  0
   38.0190   25.3500   42.1870 C   0  0  0  0  0  0  0  0  0  0  0  0
   39.1330   24.8070   42.7320 N   0  0  0  0  0  0  0  0  0  0  0  0
   40.8740   25.2590   43.9520 H   0  0  0  0  0  0  0  0  0  0  0  0
   40.3400   27.5800   44.2640 H   0  0  0  0  0  0  0  0  0  0  0  0
   37.3900   24.6860   41.6070 H   0  0  0  0  0  0  0  0  0  0  0  0
  1  2  1  0  0  0  0
  1 19  1  0  0  0  0
  3  1  1  0  0  0  0
  4  1  1  0  0  0  0
  5 10  1  0  0  0  0
  5  4  2  0  0  0  0
  6  5  1  0  0  0  0
  7  6  2  0  0  0  0
  7  8  1  0  0  0  0
  8  9  2  0  0  0  0
  9  4  1  0  0  0  0
  9 17  1  0  0  0  0
 11  6  1  0  0  0  0
 12  7  1  0  0  0  0
 13  8  1  0  0  0  0
 15 14  1  0  0  0  0
 15 17  1  0  0  0  0
 16 15  2  0  0  0  0
 17 18  1  0  0  0  0
 19 21  1  0  0  0  0
 20 19  1  0  0  0  0
 22 23  1  0  0  0  0
 22 28  1  0  0  0  0
 23 29  1  0  0  0  0
 24 19  1  0  0  0  0
 24 23  2  0  0  0  0
 25 24  1  0  0  0  0
 26 25  2  0  0  0  0
 26 27  1  0  0  0  0
 27 22  2  0  0  0  0
 30 26  1  0  0  0  0
M  END
>  <minimizedAffinity>
-4.62231731

$$$$

 OpenBabel03252508223D

 30 31  0  0  0  0  0  0  0  0999 V2000
   37.3190   29.0590   42.1680 C   0  0  0  0  0  0  0  0  0  0  0  0
   36.9560   29.9170   42.7990 H   0  0  0  0  0  0  0  0  0  0  0  0
   38.4090   29.0960   42.1830 H   0  0  0  0  0  0  0  0  0  0  0  0
   36.6910   29.2340   40.8480 C   0  0  0  0  0  0  0  0  0  0  0  0
   35.4730   28.7470   40.4550 C   0  0  0  0  0  0  0  0  0  0  0  0
   34.9320   28.9430   39.2000 C   0  0  0  0  0  0  0  0  0  0  0  0
   35.6800   29.6830   38.2900 C   0  0  0  0  0  0  0  0  0  0  0  0
   36.9080   30.1850   38.6580 C   0  0  0  0  0  0  0  0  0  0  0  0
   37.4070   29.9680   39.9100 C   0  0  0  0  0  0  0  0  0  0  0  0
   34.9210   28.1790   41.1880 H   0  0  0  0  0  0  0  0  0  0  0  0
   33.9630   28.5130   38.9990 H   0  0  0  0  0  0  0  0  0  0  0  0
   35.2520   29.8360   37.3000 H   0  0  0  0  0  0  0  0  0  0  0  0
   37.4470   30.7510   37.9140 H   0  0  0  0  0  0  0  0  0  0  0  0
   39.2820   32.6340   40.8270 H   0  0  0  0  0  0  0  0  0  0  0  0
   38.5160   31.9030   40.5520 C   0  0  0  0  0  0  0  0  0  0  0  0
   37.3420   32.3560   40.5690 O   0  0  0  0  0  0  0  0  0  0  0  0
   38.6870   30.5320   40.1860 N   0  0  0  0  0  0  0  0  0  0  0  0
   39.6740   30.2050   40.1860 H   0  0  0  0  0  0  0  0  0  0  0  0
   36.7410   27.8200   42.8560 C   0  0  0  0  0  0  0  0  0  0  0  0
   35.8540   27.4480   42.3390 H   0  0  0  0  0  0  0  0  0  0  0  0
   36.5480   28.1280   43.9080 H   0  0  0  0  0  0  0  0  0  0  0  0
   39.9270   25.9630   43.6790 C   0  0  0  0  0  0  0  0  0  0  0  0
   38.9520   26.9970   43.6780 C   0  0  0  0  0  0  0  0  0  0  0  0
   37.8160   26.7880   42.9150 C   0  0  0  0  0  0  0  0  0  0  0  0
   37.6930   25.6110   42.2120 N   0  0  0  0  0  0  0  0  0  0  0  0
   38.6460   24.6670   42.2480 C   0  0  0  0  0  0  0  0  0  0  0  0
   39.7680   24.8420   42.9830 N   0  0  0  0  0  0  0  0  0  0  0  0
   40.7810   26.2320   44.3130 H   0  0  0  0  0  0  0  0  0  0  0  0
   39.0660   27.9130   44.2370 H   0  0  0  0  0  0  0  0  0  0  0  0
   38.5650   23.7370   41.7000 H   0  0  0  0  0  0  0  0  0  0  0  0
  1  3  1  0  0  0  0
  1  2  1  0  0  0  0
  1 19  1  0  0  0  0
  4  1  1  0  0  0  0
  5  4  1  0  0  0  0
  5 10  1  0  0  0  0
  6  5  2  0  0  0  0
  7  8  2  0  0  0  0
  7  6  1  0  0  0  0
  8  9  1  0  0  0  0
  9 17  1  0  0  0  0
  9  4  2  0  0  0  0
 11  6  1  0  0  0  0
 12  7  1  0  0  0  0
 13  8  1  0  0  0  0
 15 16  2  0  0  0  0
 15 14  1  0  0  0  0
 17 15  1  0  0  0  0
 18 17  1  0  0  0  0
 19 24  1  0  0  0  0
 19 21  1  0  0  0  0
 20 19  1  0  0  0  0
 22 28  1  0  0  0  0
 23 22  1  0  0  0  0
 23 29  1  0  0  0  0
 24 23  2  0  0  0  0
 25 26  2  0  0  0  0
 25 24  1  0  0  0  0
 26 27  1  0  0  0  0
 27 22  2  0  0  0  0
 30 26  1  0  0  0  0
M  END
>  <minimizedAffinity>
-4.61127901

$$$$

 OpenBabel03252508223D

 30 31  0  0  0  0  0  0  0  0999 V2000
   37.3980   32.3460   40.4160 C   0  0  0  0  0  0  0  0  0  0  0  0
   38.1540   31.8170   41.0590 H   0  0  0  0  0  0  0  0  0  0  0  0
   36.6120   32.7060   41.0830 H   0  0  0  0  0  0  0  0  0  0  0  0
   36.9750   31.3660   39.4020 C   0  0  0  0  0  0  0  0  0  0  0  0
   37.3040   31.3770   38.0720 C   0  0  0  0  0  0  0  0  0  0  0  0
   36.8780   30.4290   37.1630 C   0  0  0  0  0  0  0  0  0  0  0  0
   36.0650   29.4060   37.6420 C   0  0  0  0  0  0  0  0  0  0  0  0
   35.7180   29.3690   38.9730 C   0  0  0  0  0  0  0  0  0  0  0  0
   36.1610   30.3280   39.8390 C   0  0  0  0  0  0  0  0  0  0  0  0
   37.9360   32.1850   37.7380 H   0  0  0  0  0  0  0  0  0  0  0  0
   37.1990   30.5360   36.1400 H   0  0  0  0  0  0  0  0  0  0  0  0
   35.7290   28.6580   36.9230 H   0  0  0  0  0  0  0  0  0  0  0  0
   35.0860   28.5550   39.2920 H   0  0  0  0  0  0  0  0  0  0  0  0
   36.6180   28.9860   42.9150 H   0  0  0  0  0  0  0  0  0  0  0  0
   36.6400   29.3110   41.8700 C   0  0  0  0  0  0  0  0  0  0  0  0
   37.5890   28.8260   41.2000 O   0  0  0  0  0  0  0  0  0  0  0  0
   35.7420   30.1950   41.1950 N   0  0  0  0  0  0  0  0  0  0  0  0
   34.9760   30.5680   41.7910 H   0  0  0  0  0  0  0  0  0  0  0  0
   38.1950   33.4700   39.7490 C   0  0  0  0  0  0  0  0  0  0  0  0
   37.8160   34.4550   40.0320 H   0  0  0  0  0  0  0  0  0  0  0  0
   38.1360   33.2670   38.6570 H   0  0  0  0  0  0  0  0  0  0  0  0
   41.9330   33.9310   40.0460 C   0  0  0  0  0  0  0  0  0  0  0  0
   40.5920   34.1610   39.6340 C   0  0  0  0  0  0  0  0  0  0  0  0
   39.6270   33.3020   40.1300 C   0  0  0  0  0  0  0  0  0  0  0  0
   40.0090   32.2900   40.9800 N   0  0  0  0  0  0  0  0  0  0  0  0
   41.2900   32.1170   41.3380 C   0  0  0  0  0  0  0  0  0  0  0  0
   42.2570   32.9400   40.8690 N   0  0  0  0  0  0  0  0  0  0  0  0
   42.6110   34.6660   39.5960 H   0  0  0  0  0  0  0  0  0  0  0  0
   40.3120   34.9610   38.9650 H   0  0  0  0  0  0  0  0  0  0  0  0
   41.6080   31.3260   42.0060 H   0  0  0  0  0  0  0  0  0  0  0  0
  1  2  1  0  0  0  0
  1  3  1  0  0  0  0
  4  9  1  0  0  0  0
  4  1  1  0  0  0  0
  5  4  2  0  0  0  0
  6  7  2  0  0  0  0
  6  5  1  0  0  0  0
  7  8  1  0  0  0  0
  8 13  1  0  0  0  0
  8  9  2  0  0  0  0
  9 17  1  0  0  0  0
 10  5  1  0  0  0  0
 11  6  1  0  0  0  0
 12  7  1  0  0  0  0
 15 14  1  0  0  0  0
 16 15  2  0  0  0  0
 17 18  1  0  0  0  0
 17 15  1  0  0  0  0
 19 20  1  0  0  0  0
 19 24  1  0  0  0  0
 19  1  1  0  0  0  0
 21 19  1  0  0  0  0
 22 27  1  0  0  0  0
 23 22  2  0  0  0  0
 23 24  1  0  0  0  0
 24 25  2  0  0  0  0
 25 26  1  0  0  0  0
 26 30  1  0  0  0  0
 27 26  2  0  0  0  0
 28 22  1  0  0  0  0
 29 23  1  0  0  0  0
M  END
>  <minimizedAffinity>
-4.56958294

$$$$

 OpenBabel03252508223D

 30 31  0  0  0  0  0  0  0  0999 V2000
   34.9900   28.9030   39.6340 C   0  0  0  0  0  0  0  0  0  0  0  0
   34.9940   30.0210   39.5080 H   0  0  0  0  0  0  0  0  0  0  0  0
   33.9690   28.6200   39.8980 H   0  0  0  0  0  0  0  0  0  0  0  0
   36.0170   28.6070   40.6460 C   0  0  0  0  0  0  0  0  0  0  0  0
   36.5920   27.3870   40.8900 C   0  0  0  0  0  0  0  0  0  0  0  0
   37.5540   27.1660   41.8550 C   0  0  0  0  0  0  0  0  0  0  0  0
   37.9550   28.2580   42.6190 C   0  0  0  0  0  0  0  0  0  0  0  0
   37.3940   29.4950   42.3960 C   0  0  0  0  0  0  0  0  0  0  0  0
   36.4450   29.6710   41.4310 C   0  0  0  0  0  0  0  0  0  0  0  0
   36.2560   26.5650   40.2770 H   0  0  0  0  0  0  0  0  0  0  0  0
   37.9380   26.1640   41.9590 H   0  0  0  0  0  0  0  0  0  0  0  0
   38.7140   28.0810   43.3800 H   0  0  0  0  0  0  0  0  0  0  0  0
   37.7410   30.3070   43.0160 H   0  0  0  0  0  0  0  0  0  0  0  0
   36.7400   32.7890   40.1430 H   0  0  0  0  0  0  0  0  0  0  0  0
   36.8240   31.7450   40.4610 C   0  0  0  0  0  0  0  0  0  0  0  0
   37.8490   31.1560   40.0290 O   0  0  0  0  0  0  0  0  0  0  0  0
   35.9310   30.9930   41.2850 N   0  0  0  0  0  0  0  0  0  0  0  0
   35.1000   31.5230   41.6160 H   0  0  0  0  0  0  0  0  0  0  0  0
   35.4370   28.3720   38.2710 C   0  0  0  0  0  0  0  0  0  0  0  0
   35.5850   27.2900   38.2880 H   0  0  0  0  0  0  0  0  0  0  0  0
   36.3580   28.9430   38.0180 H   0  0  0  0  0  0  0  0  0  0  0  0
   33.7020   29.2660   35.0360 C   0  0  0  0  0  0  0  0  0  0  0  0
   34.7410   28.8820   35.9270 C   0  0  0  0  0  0  0  0  0  0  0  0
   34.4090   28.7700   37.2660 C   0  0  0  0  0  0  0  0  0  0  0  0
   33.1160   29.0300   37.6560 N   0  0  0  0  0  0  0  0  0  0  0  0
   32.1730   29.3890   36.7720 C   0  0  0  0  0  0  0  0  0  0  0  0
   32.4660   29.5090   35.4560 N   0  0  0  0  0  0  0  0  0  0  0  0
   34.0740   29.3240   34.0060 H   0  0  0  0  0  0  0  0  0  0  0  0
   35.7510   28.6820   35.6010 H   0  0  0  0  0  0  0  0  0  0  0  0
   31.1510   29.5980   37.0620 H   0  0  0  0  0  0  0  0  0  0  0  0
  1  3  1  0  0  0  0
  1  4  1  0  0  0  0
  2  1  1  0  0  0  0
  4  5  2  0  0  0  0
  4  9  1  0  0  0  0
  5  6  1  0  0  0  0
  6 11  1  0  0  0  0
  6  7  2  0  0  0  0
  7 12  1  0  0  0  0
  8  7  1  0  0  0  0
  8 13  1  0  0  0  0
  9  8  2  0  0  0  0
 10  5  1  0  0  0  0
 14 15  1  0  0  0  0
 15 17  1  0  0  0  0
 16 15  2  0  0  0  0
 17  9  1  0  0  0  0
 17 18  1  0  0  0  0
 19 20  1  0  0  0  0
 19  1  1  0  0  0  0
 21 19  1  0  0  0  0
 22 27  2  0  0  0  0
 22 23  1  0  0  0  0
 23 24  2  0  0  0  0
 24 25  1  0  0  0  0
 24 19  1  0  0  0  0
 26 30  1  0  0  0  0
 26 25  2  0  0  0  0
 27 26  1  0  0  0  0
 28 22  1  0  0  0  0
 29 23  1  0  0  0  0
M  END
>  <minimizedAffinity>
-4.56390715

$$$$
