
 OpenBabel03252505133D

 21 22  0  0  0  0  0  0  0  0999 V2000
   44.6820   36.0540   44.2350 C   0  0  0  0  0  0  0  0  0  0  0  0
   45.5990   35.6580   43.2350 C   0  0  0  0  0  0  0  0  0  0  0  0
   46.3480   34.5260   43.5150 C   0  0  0  0  0  0  0  0  0  0  0  0
   46.1840   33.8540   44.7010 N   0  0  0  0  0  0  0  0  0  0  0  0
   45.2830   34.2730   45.6370 C   0  0  0  0  0  0  0  0  0  0  0  0
   44.5460   35.3680   45.3910 N   0  0  0  0  0  0  0  0  0  0  0  0
   44.0980   36.9360   44.0180 H   0  0  0  0  0  0  0  0  0  0  0  0
   45.7170   36.1900   42.3190 H   0  0  0  0  0  0  0  0  0  0  0  0
   46.0740   32.0610   48.1280 H   0  0  0  0  0  0  0  0  0  0  0  0
   46.1530   32.6210   47.2080 C   0  0  0  0  0  0  0  0  0  0  0  0
   47.1700   32.3710   46.5270 O   0  0  0  0  0  0  0  0  0  0  0  0
   45.1220   33.5670   46.8620 N   0  0  0  0  0  0  0  0  0  0  0  0
   44.2940   33.7300   47.4760 H   0  0  0  0  0  0  0  0  0  0  0  0
   47.3320   34.0010   42.5130 C   0  0  0  0  0  0  0  0  0  0  0  0
   47.9340   35.0790   41.6370 C   0  0  0  0  0  0  0  0  0  0  0  0
   48.7460   34.2890   42.7020 C   0  0  0  0  0  0  0  0  0  0  0  0
   46.9650   33.0880   41.9930 H   0  0  0  0  0  0  0  0  0  0  0  0
   47.7220   36.1260   41.8450 H   0  0  0  0  0  0  0  0  0  0  0  0
   48.0900   34.8090   40.5780 H   0  0  0  0  0  0  0  0  0  0  0  0
   49.0610   34.8890   43.5810 H   0  0  0  0  0  0  0  0  0  0  0  0
   49.5270   33.6140   42.2790 H   0  0  0  0  0  0  0  0  0  0  0  0
  1  6  1  0  0  0  0
  2  3  1  0  0  0  0
  2  1  2  0  0  0  0
  3  4  2  0  0  0  0
  4  5  1  0  0  0  0
  5 12  1  0  0  0  0
  6  5  2  0  0  0  0
  7  1  1  0  0  0  0
  8  2  1  0  0  0  0
 10  9  1  0  0  0  0
 11 10  2  0  0  0  0
 12 10  1  0  0  0  0
 12 13  1  0  0  0  0
 14 16  1  0  0  0  0
 14  3  1  0  0  0  0
 15 18  1  0  0  0  0
 15 14  1  0  0  0  0
 15 16  1  0  0  0  0
 16 20  1  0  0  0  0
 17 14  1  0  0  0  0
 19 15  1  0  0  0  0
 21 16  1  0  0  0  0
M  END
>  <minimizedAffinity>
-4.81318569

>  <minimizedRMSD>
0.927558839

$$$$
