
 OpenBabel03252509353D

 40 41  0  0  1  0  0  0  0  0999 V2000
   44.5380   35.5050   44.2170 O   0  0  0  0  0  0  0  0  0  0  0  0
   45.3880   34.2600   44.3840 P   0  0  1  0  0  0  0  0  0  0  0  0
   44.6610   32.9400   43.6140 O   0  0  0  0  0  0  0  0  0  0  0  0
   44.3300   33.1620   42.7030 H   0  0  0  0  0  0  0  0  0  0  0  0
   46.8840   34.5630   43.7020 O   0  0  0  0  0  0  0  0  0  0  0  0
   47.0090   33.8500   42.5030 C   0  0  1  0  0  0  0  0  0  0  0  0
   46.4360   34.6750   41.3480 C   0  0  0  0  0  0  0  0  0  0  0  0
   46.9360   33.8890   40.1660 C   0  0  0  0  0  0  0  0  0  0  0  0
   48.2140   33.2040   40.6260 C   0  0  0  0  0  0  0  0  0  0  0  0
   48.4260   33.6910   42.0510 C   0  0  1  0  0  0  0  0  0  0  0  0
   46.4740   32.9030   42.4920 H   0  0  0  0  0  0  0  0  0  0  0  0
   45.3070   34.6890   41.3890 H   0  0  0  0  0  0  0  0  0  0  0  0
   46.7420   35.7160   41.3500 H   0  0  0  0  0  0  0  0  0  0  0  0
   46.1480   33.1760   39.8790 H   0  0  0  0  0  0  0  0  0  0  0  0
   47.1460   34.6020   39.3340 H   0  0  0  0  0  0  0  0  0  0  0  0
   47.9850   32.1200   40.6880 H   0  0  0  0  0  0  0  0  0  0  0  0
   49.0680   33.4440   39.9700 H   0  0  0  0  0  0  0  0  0  0  0  0
   48.8790   32.8750   42.6520 H   0  0  0  0  0  0  0  0  0  0  0  0
   49.2060   34.9740   42.0900 C   0  0  0  0  0  0  0  0  0  0  0  0
   49.8970   34.9730   41.2010 H   0  0  0  0  0  0  0  0  0  0  0  0
   48.6040   35.8920   42.0470 H   0  0  0  0  0  0  0  0  0  0  0  0
   49.9960   35.0790   43.2160 O   0  0  0  0  0  0  0  0  0  0  0  0
   50.6520   35.7940   43.1110 H   0  0  0  0  0  0  0  0  0  0  0  0
   45.5370   33.8590   45.9950 O   0  0  0  0  0  0  0  0  0  0  0  0
   46.3280   32.7540   46.1050 C   0  0  0  0  0  0  0  0  0  0  0  0
   47.3620   33.1300   46.3570 H   0  0  0  0  0  0  0  0  0  0  0  0
   46.4600   32.1280   45.2270 H   0  0  0  0  0  0  0  0  0  0  0  0
   45.3370   31.6360   49.5180 C   0  0  0  0  0  0  0  0  0  0  0  0
   45.7140   32.4840   48.4630 C   0  0  0  0  0  0  0  0  0  0  0  0
   45.9290   31.8850   47.2290 C   0  0  0  0  0  0  0  0  0  0  0  0
   45.7670   30.5270   47.0960 N   0  0  0  0  0  0  0  0  0  0  0  0
   45.4030   29.7380   48.1260 C   0  0  0  0  0  0  0  0  0  0  0  0
   45.1910   30.2920   49.3260 N   0  0  0  0  0  0  0  0  0  0  0  0
   45.1490   32.0150   50.5140 H   0  0  0  0  0  0  0  0  0  0  0  0
   45.8230   33.5280   48.6300 H   0  0  0  0  0  0  0  0  0  0  0  0
   44.2800   26.9290   46.4800 H   0  0  0  0  0  0  0  0  0  0  0  0
   44.5190   27.9390   46.8010 C   0  0  0  0  0  0  0  0  0  0  0  0
   44.0600   28.7880   45.9770 O   0  0  0  0  0  0  0  0  0  0  0  0
   45.2420   28.3330   47.9650 N   0  0  0  0  0  0  0  0  0  0  0  0
   45.5790   27.5360   48.5810 H   0  0  0  0  0  0  0  0  0  0  0  0
  2  1  2  6  0  0  0
  2 24  1  0  0  0  0
  3  2  1  0  0  0  0
  4  3  1  0  0  0  0
  5  2  1  0  0  0  0
  6 11  1  1  0  0  0
  6  5  1  0  0  0  0
  7 13  1  0  0  0  0
  7 12  1  0  0  0  0
  7  6  1  0  0  0  0
  8  9  1  0  0  0  0
  8  7  1  0  0  0  0
  9 16  1  0  0  0  0
  9 10  1  0  0  0  0
 10 19  1  0  0  0  0
 10  6  1  0  0  0  0
 10 18  1  1  0  0  0
 14  8  1  0  0  0  0
 15  8  1  0  0  0  0
 17  9  1  0  0  0  0
 19 22  1  0  0  0  0
 20 19  1  0  0  0  0
 21 19  1  0  0  0  0
 23 22  1  0  0  0  0
 24 25  1  0  0  0  0
 25 26  1  0  0  0  0
 25 30  1  0  0  0  0
 27 25  1  0  0  0  0
 28 34  1  0  0  0  0
 29 35  1  0  0  0  0
 29 28  2  0  0  0  0
 30 29  1  0  0  0  0
 31 30  2  0  0  0  0
 31 32  1  0  0  0  0
 32 33  2  0  0  0  0
 33 28  1  0  0  0  0
 36 37  1  0  0  0  0
 37 39  1  0  0  0  0
 38 37  2  0  0  0  0
 39 32  1  0  0  0  0
 39 40  1  0  0  0  0
M  END
>  <minimizedAffinity>
-5.86379147

>  <minimizedRMSD>
0.655320644

$$$$
