
 OpenBabel03252502303D

 20 20  0  0  0  0  0  0  0  0999 V2000
   47.8530   34.7780   42.4480 C   0  0  0  0  0  0  0  0  0  0  0  0
   48.0430   33.5290   43.0540 C   0  0  0  0  0  0  0  0  0  0  0  0
   47.0320   33.0570   43.9260 C   0  0  0  0  0  0  0  0  0  0  0  0
   45.9360   33.8530   44.1160 N   0  0  0  0  0  0  0  0  0  0  0  0
   45.7970   35.0370   43.5170 C   0  0  0  0  0  0  0  0  0  0  0  0
   46.7540   35.4980   42.6860 N   0  0  0  0  0  0  0  0  0  0  0  0
   48.9130   32.9060   42.8980 H   0  0  0  0  0  0  0  0  0  0  0  0
   47.0690   31.1590   46.7240 H   0  0  0  0  0  0  0  0  0  0  0  0
   47.0180   31.9910   46.0100 C   0  0  0  0  0  0  0  0  0  0  0  0
   46.8510   33.1830   46.4000 O   0  0  0  0  0  0  0  0  0  0  0  0
   47.1360   31.8020   44.5850 N   0  0  0  0  0  0  0  0  0  0  0  0
   47.2780   30.8260   44.2100 H   0  0  0  0  0  0  0  0  0  0  0  0
   48.9320   35.2450   41.5410 C   0  0  0  0  0  0  0  0  0  0  0  0
   48.6050   35.1160   40.2250 F   0  0  0  0  0  0  0  0  0  0  0  0
   49.2180   36.5840   41.8500 F   0  0  0  0  0  0  0  0  0  0  0  0
   50.1150   34.5460   41.8330 F   0  0  0  0  0  0  0  0  0  0  0  0
   44.5870   35.8800   43.7490 C   0  0  0  0  0  0  0  0  0  0  0  0
   43.5900   35.5770   42.8720 F   0  0  0  0  0  0  0  0  0  0  0  0
   44.9100   37.2400   43.6920 F   0  0  0  0  0  0  0  0  0  0  0  0
   44.0930   35.6890   45.0280 F   0  0  0  0  0  0  0  0  0  0  0  0
  1  6  2  0  0  0  0
  1  2  1  0  0  0  0
  2  3  2  0  0  0  0
  3  4  1  0  0  0  0
  3 11  1  0  0  0  0
  5 17  1  0  0  0  0
  5  4  2  0  0  0  0
  6  5  1  0  0  0  0
  7  2  1  0  0  0  0
  9 10  2  0  0  0  0
  9  8  1  0  0  0  0
 11  9  1  0  0  0  0
 12 11  1  0  0  0  0
 13 16  1  0  0  0  0
 13 15  1  0  0  0  0
 13  1  1  0  0  0  0
 14 13  1  0  0  0  0
 17 20  1  0  0  0  0
 18 17  1  0  0  0  0
 19 17  1  0  0  0  0
M  END
>  <minimizedAffinity>
-5.31545734

>  <minimizedRMSD>
0.242903665

$$$$
