
 OpenBabel03242515243D

 27 28  0  0  0  0  0  0  0  0999 V2000
   43.8960   35.6940   41.4940 C   0  0  0  0  0  0  0  0  0  0  0  0
   43.8610   36.7840   41.5710 H   0  0  0  0  0  0  0  0  0  0  0  0
   44.6610   35.4550   40.7180 H   0  0  0  0  0  0  0  0  0  0  0  0
   44.3640   35.9080   43.8760 C   0  0  0  0  0  0  0  0  0  0  0  0
   44.3750   35.0850   42.7420 C   0  0  0  0  0  0  0  0  0  0  0  0
   44.8320   33.7970   42.9060 C   0  0  0  0  0  0  0  0  0  0  0  0
   45.2420   33.3810   44.1230 N   0  0  0  0  0  0  0  0  0  0  0  0
   45.2120   34.2210   45.1960 C   0  0  0  0  0  0  0  0  0  0  0  0
   44.7780   35.4870   45.0970 N   0  0  0  0  0  0  0  0  0  0  0  0
   44.0160   36.9310   43.8080 H   0  0  0  0  0  0  0  0  0  0  0  0
   44.8380   33.1700   42.0270 H   0  0  0  0  0  0  0  0  0  0  0  0
   47.1670   32.3290   47.3760 H   0  0  0  0  0  0  0  0  0  0  0  0
   46.6570   32.8220   46.5730 C   0  0  0  0  0  0  0  0  0  0  0  0
   47.1390   32.3450   45.4890 O   0  0  0  0  0  0  0  0  0  0  0  0
   45.6380   33.8140   46.4920 N   0  0  0  0  0  0  0  0  0  0  0  0
   45.3450   34.1030   47.4520 H   0  0  0  0  0  0  0  0  0  0  0  0
   42.6200   35.0840   41.1400 N   0  0  0  0  0  0  0  0  0  0  0  0
   41.5110   35.4250   41.7800 C   0  0  0  0  0  0  0  0  0  0  0  0
   40.3210   34.8040   41.3930 C   0  0  0  0  0  0  0  0  0  0  0  0
   40.3100   33.8780   40.3890 C   0  0  0  0  0  0  0  0  0  0  0  0
   39.2190   33.3300   40.0570 O   0  0  0  0  0  0  0  0  0  0  0  0
   41.4660   33.5510   39.7540 N   0  0  0  0  0  0  0  0  0  0  0  0
   42.6170   34.1540   40.1310 C   0  0  0  0  0  0  0  0  0  0  0  0
   43.6570   33.8070   39.5010 O   0  0  0  0  0  0  0  0  0  0  0  0
   41.5450   36.1620   42.5740 H   0  0  0  0  0  0  0  0  0  0  0  0
   39.4070   35.0700   41.9050 H   0  0  0  0  0  0  0  0  0  0  0  0
   41.3940   32.8430   39.0010 H   0  0  0  0  0  0  0  0  0  0  0  0
  1  2  1  0  0  0  0
  1  5  1  0  0  0  0
  3  1  1  0  0  0  0
  4  9  1  0  0  0  0
  5  6  1  0  0  0  0
  5  4  2  0  0  0  0
  6  7  2  0  0  0  0
  7  8  1  0  0  0  0
  8 15  1  0  0  0  0
  9  8  2  0  0  0  0
 10  4  1  0  0  0  0
 11  6  1  0  0  0  0
 13 12  1  0  0  0  0
 14 13  2  0  0  0  0
 15 13  1  0  0  0  0
 15 16  1  0  0  0  0
 17  1  1  0  0  0  0
 17 18  1  0  0  0  0
 18 25  1  0  0  0  0
 19 18  2  0  0  0  0
 19 26  1  0  0  0  0
 20 19  1  0  0  0  0
 21 20  2  0  0  0  0
 22 23  1  0  0  0  0
 22 20  1  0  0  0  0
 23 17  1  0  0  0  0
 24 23  2  0  0  0  0
 27 22  1  0  0  0  0
M  END
>  <minimizedAffinity>
-5.34054947

>  <minimizedRMSD>
0.474173099

$$$$
