
 OpenBabel03242522263D

 34 36  0  0  0  0  0  0  0  0999 V2000
   45.0420   33.3650   41.2840 F   0  0  0  0  0  0  0  0  0  0  0  0
   46.2400   34.0080   41.1100 C   0  0  0  0  0  0  0  0  0  0  0  0
   46.7630   34.7670   42.1030 C   0  0  0  0  0  0  0  0  0  0  0  0
   47.9990   35.3290   41.8610 C   0  0  0  0  0  0  0  0  0  0  0  0
   48.6810   35.1390   40.6870 C   0  0  0  0  0  0  0  0  0  0  0  0
   48.0740   34.3550   39.7350 C   0  0  0  0  0  0  0  0  0  0  0  0
   46.8540   33.7760   39.9150 C   0  0  0  0  0  0  0  0  0  0  0  0
   48.3220   35.9250   42.7360 H   0  0  0  0  0  0  0  0  0  0  0  0
   49.6120   35.6670   40.7280 H   0  0  0  0  0  0  0  0  0  0  0  0
   48.8200   34.3860   38.9950 H   0  0  0  0  0  0  0  0  0  0  0  0
   46.3230   32.9890   38.8320 C   0  0  0  0  0  0  0  0  0  0  0  0
   45.5600   31.8800   39.0980 C   0  0  0  0  0  0  0  0  0  0  0  0
   45.1180   31.1150   38.0520 C   0  0  0  0  0  0  0  0  0  0  0  0
   45.4200   31.4310   36.7390 C   0  0  0  0  0  0  0  0  0  0  0  0
   46.1990   32.5740   36.5190 C   0  0  0  0  0  0  0  0  0  0  0  0
   46.6420   33.3410   37.5650 C   0  0  0  0  0  0  0  0  0  0  0  0
   45.2250   31.4780   40.0170 H   0  0  0  0  0  0  0  0  0  0  0  0
   44.5010   30.2090   38.1910 H   0  0  0  0  0  0  0  0  0  0  0  0
   45.0390   30.7800   35.9480 H   0  0  0  0  0  0  0  0  0  0  0  0
   46.3620   32.7080   35.4560 H   0  0  0  0  0  0  0  0  0  0  0  0
   49.4800   34.3770   36.1120 H   0  0  0  0  0  0  0  0  0  0  0  0
   48.6540   33.8650   36.5950 C   0  0  0  0  0  0  0  0  0  0  0  0
   48.9300   32.6490   36.8350 O   0  0  0  0  0  0  0  0  0  0  0  0
   47.3460   34.3900   36.9750 N   0  0  0  0  0  0  0  0  0  0  0  0
   47.2390   35.4140   36.7540 H   0  0  0  0  0  0  0  0  0  0  0  0
   44.4350   36.0860   44.7770 C   0  0  0  0  0  0  0  0  0  0  0  0
   45.1370   35.9810   43.5710 C   0  0  0  0  0  0  0  0  0  0  0  0
   46.0080   34.9260   43.3380 C   0  0  0  0  0  0  0  0  0  0  0  0
   46.1280   34.0130   44.3500 N   0  0  0  0  0  0  0  0  0  0  0  0
   45.4510   34.1240   45.5010 C   0  0  0  0  0  0  0  0  0  0  0  0
   44.6130   35.1490   45.7140 N   0  0  0  0  0  0  0  0  0  0  0  0
   43.8090   36.9720   44.7730 H   0  0  0  0  0  0  0  0  0  0  0  0
   45.0720   36.6730   42.7530 H   0  0  0  0  0  0  0  0  0  0  0  0
   45.5230   33.4240   46.3180 H   0  0  0  0  0  0  0  0  0  0  0  0
  2  1  1  0  0  0  0
  2  3  1  0  0  0  0
  3 28  1  0  0  0  0
  4  3  2  0  0  0  0
  4  8  1  0  0  0  0
  5  9  1  0  0  0  0
  5  4  1  0  0  0  0
  6  7  1  0  0  0  0
  6  5  2  0  0  0  0
  7  2  2  0  0  0  0
 10  6  1  0  0  0  0
 11 12  1  0  0  0  0
 11  7  1  0  0  0  0
 12 17  1  0  0  0  0
 13 18  1  0  0  0  0
 13 12  2  0  0  0  0
 14 13  1  0  0  0  0
 15 14  2  0  0  0  0
 15 16  1  0  0  0  0
 16 11  2  0  0  0  0
 19 14  1  0  0  0  0
 20 15  1  0  0  0  0
 21 22  1  0  0  0  0
 22 23  2  0  0  0  0
 22 24  1  0  0  0  0
 24 16  1  0  0  0  0
 25 24  1  0  0  0  0
 26 31  1  0  0  0  0
 27 26  2  0  0  0  0
 28 27  1  0  0  0  0
 28 29  2  0  0  0  0
 29 30  1  0  0  0  0
 30 31  2  0  0  0  0
 30 34  1  0  0  0  0
 32 26  1  0  0  0  0
 33 27  1  0  0  0  0
M  END
>  <minimizedAffinity>
-6.37105227

>  <minimizedRMSD>
0.6343261

$$$$
