
 OpenBabel03252502233D

 31 33  0  0  1  0  0  0  0  0999 V2000
   46.7100   34.5690   42.1860 N   0  0  0  0  0  0  0  0  0  0  0  0
   48.1580   34.6230   42.1890 C   0  0  0  0  0  0  0  0  0  0  0  0
   48.5240   35.2910   40.8690 C   0  0  0  0  0  0  0  0  0  0  0  0
   48.0960   34.4320   39.7070 C   0  0  0  0  0  0  0  0  0  0  0  0
   46.7830   33.7680   39.8760 C   0  0  0  0  0  0  0  0  0  0  0  0
   45.9460   34.2460   41.0140 C   0  0  1  0  0  0  0  0  0  0  0  0
   48.5470   35.2530   43.0130 H   0  0  0  0  0  0  0  0  0  0  0  0
   48.5640   33.6150   42.1640 H   0  0  0  0  0  0  0  0  0  0  0  0
   49.6380   35.3760   40.8680 H   0  0  0  0  0  0  0  0  0  0  0  0
   48.0310   36.2750   40.8740 H   0  0  0  0  0  0  0  0  0  0  0  0
   48.0740   35.1010   38.8200 H   0  0  0  0  0  0  0  0  0  0  0  0
   48.9080   33.6860   39.4630 H   0  0  0  0  0  0  0  0  0  0  0  0
   46.2020   33.8420   38.9290 H   0  0  0  0  0  0  0  0  0  0  0  0
   46.9880   32.6740   40.0730 H   0  0  0  0  0  0  0  0  0  0  0  0
   45.3730   35.1420   40.6680 H   0  0  0  0  0  0  0  0  0  0  0  0
   44.4770   36.1660   44.7350 C   0  0  0  0  0  0  0  0  0  0  0  0
   45.1640   35.9940   43.5180 C   0  0  0  0  0  0  0  0  0  0  0  0
   45.9690   34.8430   43.3830 C   0  0  0  0  0  0  0  0  0  0  0  0
   46.0330   33.9720   44.4350 N   0  0  0  0  0  0  0  0  0  0  0  0
   45.3470   34.1950   45.5810 C   0  0  0  0  0  0  0  0  0  0  0  0
   44.5660   35.3010   45.7260 N   0  0  0  0  0  0  0  0  0  0  0  0
   43.8850   37.0730   44.7540 H   0  0  0  0  0  0  0  0  0  0  0  0
   45.1220   36.6760   42.6780 H   0  0  0  0  0  0  0  0  0  0  0  0
   45.3940   33.5130   46.4090 H   0  0  0  0  0  0  0  0  0  0  0  0
   45.0160   33.2410   41.3230 O   0  0  0  0  0  0  0  0  0  0  0  0
   42.0530   32.6330   41.4940 H   0  0  0  0  0  0  0  0  0  0  0  0
   42.7850   33.3440   41.6860 N   0  0  0  0  0  0  0  0  0  0  0  0
   42.2720   34.6630   41.9030 C   0  0  0  0  0  2  0  0  0  0  0  0
   42.2990   35.2740   40.5190 C   0  0  0  0  0  2  0  0  0  0  0  0
   43.6750   34.8070   40.0430 C   0  0  0  0  0  2  0  0  0  0  0  0
   43.8140   33.4210   40.6560 C   0  0  1  0  0  3  0  0  0  0  0  0
  1  2  1  0  0  0  0
  1 18  1  0  0  0  0
  2  7  1  0  0  0  0
  3 10  1  0  0  0  0
  3  2  1  0  0  0  0
  4  5  1  0  0  0  0
  4  3  1  0  0  0  0
  5 14  1  0  0  0  0
  5  6  1  0  0  0  0
  6 15  1  6  0  0  0
  6 25  1  0  0  0  0
  6  1  1  0  0  0  0
  8  2  1  0  0  0  0
  9  3  1  0  0  0  0
 11  4  1  0  0  0  0
 12  4  1  0  0  0  0
 13  5  1  0  0  0  0
 16 22  1  0  0  0  0
 16 21  1  0  0  0  0
 17 16  2  0  0  0  0
 18 17  1  0  0  0  0
 18 19  2  0  0  0  0
 19 20  1  0  0  0  0
 20 21  2  0  0  0  0
 20 24  1  0  0  0  0
 23 17  1  0  0  0  0
 26 27  1  0  0  0  0
 27 28  1  0  0  0  0
 29 28  1  0  0  0  0
 30 29  1  0  0  0  0
 30 31  1  0  0  0  0
 31 25  1  1  0  0  0
 31 27  1  0  0  0  0
M  END
>  <minimizedAffinity>
-5.22062874

>  <minimizedRMSD>
0.49061048

$$$$
