
 OpenBabel03252507173D

 26 28  0  0  0  0  0  0  0  0999 V2000
   35.9740   28.7980   38.8670 C   0  0  0  0  0  0  0  0  0  0  0  0
   36.6770   29.8800   39.4570 C   0  0  0  0  0  0  0  0  0  0  0  0
   37.2760   30.7920   38.6020 C   0  0  0  0  0  0  0  0  0  0  0  0
   37.1740   30.6260   37.2730 N   0  0  0  0  0  0  0  0  0  0  0  0
   36.4910   29.5740   36.7260 C   0  0  0  0  0  0  0  0  0  0  0  0
   35.9110   28.6920   37.5280 N   0  0  0  0  0  0  0  0  0  0  0  0
   35.5050   28.0840   39.5390 H   0  0  0  0  0  0  0  0  0  0  0  0
   36.4750   29.5420   35.6330 H   0  0  0  0  0  0  0  0  0  0  0  0
   38.0020   31.9100   39.1940 C   0  0  0  0  0  0  0  0  0  0  0  0
   37.3500   33.1260   39.3720 C   0  0  0  0  0  0  0  0  0  0  0  0
   38.0710   34.1600   39.9360 C   0  0  0  0  0  0  0  0  0  0  0  0
   39.4130   34.0460   40.3340 C   0  0  0  0  0  0  0  0  0  0  0  0
   39.9840   32.7930   40.1180 C   0  0  0  0  0  0  0  0  0  0  0  0
   39.2740   31.7900   39.5670 N   0  0  0  0  0  0  0  0  0  0  0  0
   36.3140   33.2850   39.0870 H   0  0  0  0  0  0  0  0  0  0  0  0
   37.5720   35.1100   40.0770 H   0  0  0  0  0  0  0  0  0  0  0  0
   39.9260   34.8740   40.7640 H   0  0  0  0  0  0  0  0  0  0  0  0
   41.0170   32.6670   40.4110 H   0  0  0  0  0  0  0  0  0  0  0  0
   36.7440   29.9910   40.8700 C   0  0  0  0  0  0  0  0  0  0  0  0
   35.9500   30.7990   41.4300 O   0  0  0  0  0  0  0  0  0  0  0  0
   37.5820   29.3250   41.8100 N   0  0  0  0  0  0  0  0  0  0  0  0
   38.7700   28.6060   41.3890 C   0  0  0  0  0  2  0  0  0  0  0  0
   38.5780   27.1960   41.9150 C   0  0  0  0  0  2  0  0  0  0  0  0
   37.9110   27.4760   43.2440 C   0  0  0  0  0  2  0  0  0  0  0  0
   37.8240   28.9890   43.2010 C   0  0  0  0  0  3  0  0  0  0  0  0
   38.7500   29.4430   43.6050 H   0  0  0  0  0  0  0  0  0  0  0  0
  1  2  1  0  0  0  0
  1  7  1  0  0  0  0
  2 19  1  0  0  0  0
  3  9  1  0  0  0  0
  3  2  2  0  0  0  0
  4  3  1  0  0  0  0
  5  4  2  0  0  0  0
  5  6  1  0  0  0  0
  6  1  2  0  0  0  0
  8  5  1  0  0  0  0
  9 10  2  0  0  0  0
  9 14  1  0  0  0  0
 10 11  1  0  0  0  0
 11 16  1  0  0  0  0
 11 12  2  0  0  0  0
 12 17  1  0  0  0  0
 13 12  1  0  0  0  0
 13 18  1  0  0  0  0
 14 13  2  0  0  0  0
 15 10  1  0  0  0  0
 19 20  2  0  0  0  0
 19 21  1  0  0  0  0
 21 25  1  0  0  0  0
 22 21  1  0  0  0  0
 22 23  1  0  0  0  0
 23 24  1  0  0  0  0
 25 24  1  0  0  0  0
 25 26  1  0  0  0  0
M  END
>  <minimizedAffinity>
-5.02773476

$$$$

 OpenBabel03252507173D

 26 28  0  0  0  0  0  0  0  0999 V2000
   39.2590   31.5710   41.1000 C   0  0  0  0  0  0  0  0  0  0  0  0
   38.4210   30.6900   40.3700 C   0  0  0  0  0  0  0  0  0  0  0  0
   37.4100   31.2570   39.6090 C   0  0  0  0  0  0  0  0  0  0  0  0
   37.2610   32.5920   39.5890 N   0  0  0  0  0  0  0  0  0  0  0  0
   38.0820   33.4230   40.3020 C   0  0  0  0  0  0  0  0  0  0  0  0
   39.0530   32.8980   41.0350 N   0  0  0  0  0  0  0  0  0  0  0  0
   40.0520   31.1250   41.6960 H   0  0  0  0  0  0  0  0  0  0  0  0
   37.8640   34.4910   40.2080 H   0  0  0  0  0  0  0  0  0  0  0  0
   36.5410   30.3640   38.8520 C   0  0  0  0  0  0  0  0  0  0  0  0
   36.8040   30.1400   37.5030 C   0  0  0  0  0  0  0  0  0  0  0  0
   35.9580   29.2880   36.8210 C   0  0  0  0  0  0  0  0  0  0  0  0
   34.8590   28.6450   37.4140 C   0  0  0  0  0  0  0  0  0  0  0  0
   34.6730   28.9280   38.7650 C   0  0  0  0  0  0  0  0  0  0  0  0
   35.5010   29.7600   39.4240 N   0  0  0  0  0  0  0  0  0  0  0  0
   37.6360   30.6040   36.9820 H   0  0  0  0  0  0  0  0  0  0  0  0
   36.1550   29.1080   35.7730 H   0  0  0  0  0  0  0  0  0  0  0  0
   34.2360   27.9960   36.8440 H   0  0  0  0  0  0  0  0  0  0  0  0
   33.8350   28.4510   39.2560 H   0  0  0  0  0  0  0  0  0  0  0  0
   38.6380   29.2890   40.4400 C   0  0  0  0  0  0  0  0  0  0  0  0
   39.3560   28.7650   39.5410 O   0  0  0  0  0  0  0  0  0  0  0  0
   38.1710   28.3290   41.3820 N   0  0  0  0  0  0  0  0  0  0  0  0
   37.0890   28.6320   42.3000 C   0  0  0  0  0  2  0  0  0  0  0  0
   37.6680   28.3810   43.6800 C   0  0  0  0  0  2  0  0  0  0  0  0
   38.5350   27.1710   43.4100 C   0  0  0  0  0  2  0  0  0  0  0  0
   38.3060   26.9880   41.9220 C   0  0  0  0  0  3  0  0  0  0  0  0
   37.4160   26.3540   41.7410 H   0  0  0  0  0  0  0  0  0  0  0  0
  1  7  1  0  0  0  0
  2 19  1  0  0  0  0
  2  1  2  0  0  0  0
  3  2  1  0  0  0  0
  4  3  2  0  0  0  0
  4  5  1  0  0  0  0
  5  6  2  0  0  0  0
  6  1  1  0  0  0  0
  8  5  1  0  0  0  0
  9 14  1  0  0  0  0
  9  3  1  0  0  0  0
 10  9  2  0  0  0  0
 11 12  2  0  0  0  0
 11 10  1  0  0  0  0
 12 13  1  0  0  0  0
 13 18  1  0  0  0  0
 13 14  2  0  0  0  0
 15 10  1  0  0  0  0
 16 11  1  0  0  0  0
 17 12  1  0  0  0  0
 19 21  1  0  0  0  0
 20 19  2  0  0  0  0
 21 25  1  0  0  0  0
 21 22  1  0  0  0  0
 22 23  1  0  0  0  0
 24 23  1  0  0  0  0
 25 24  1  0  0  0  0
 26 25  1  0  0  0  0
M  END
>  <minimizedAffinity>
-4.86809063

$$$$

 OpenBabel03252507173D

 26 28  0  0  0  0  0  0  0  0999 V2000
   35.5590   27.3630   37.9070 C   0  0  0  0  0  0  0  0  0  0  0  0
   36.3370   27.5130   39.0830 C   0  0  0  0  0  0  0  0  0  0  0  0
   35.8830   28.4120   40.0370 C   0  0  0  0  0  0  0  0  0  0  0  0
   34.7460   29.0940   39.8210 N   0  0  0  0  0  0  0  0  0  0  0  0
   34.0100   28.9320   38.6780 C   0  0  0  0  0  0  0  0  0  0  0  0
   34.4300   28.0780   37.7550 N   0  0  0  0  0  0  0  0  0  0  0  0
   35.9160   26.6580   37.1600 H   0  0  0  0  0  0  0  0  0  0  0  0
   33.1040   29.5400   38.6130 H   0  0  0  0  0  0  0  0  0  0  0  0
   36.6730   28.5780   41.2520 C   0  0  0  0  0  0  0  0  0  0  0  0
   36.3730   27.8030   42.3690 C   0  0  0  0  0  0  0  0  0  0  0  0
   37.1440   27.9900   43.4990 C   0  0  0  0  0  0  0  0  0  0  0  0
   38.2010   28.9100   43.5760 C   0  0  0  0  0  0  0  0  0  0  0  0
   38.4280   29.6410   42.4120 C   0  0  0  0  0  0  0  0  0  0  0  0
   37.6720   29.4540   41.3140 N   0  0  0  0  0  0  0  0  0  0  0  0
   35.5690   27.0730   42.3790 H   0  0  0  0  0  0  0  0  0  0  0  0
   36.9170   27.3920   44.3720 H   0  0  0  0  0  0  0  0  0  0  0  0
   38.7660   29.0170   44.4730 H   0  0  0  0  0  0  0  0  0  0  0  0
   39.2350   30.3610   42.4340 H   0  0  0  0  0  0  0  0  0  0  0  0
   37.5290   26.7600   39.2420 C   0  0  0  0  0  0  0  0  0  0  0  0
   38.5960   27.2520   38.7770 O   0  0  0  0  0  0  0  0  0  0  0  0
   37.7460   25.4960   39.8610 N   0  0  0  0  0  0  0  0  0  0  0  0
   36.6430   24.6070   40.1750 C   0  0  0  0  0  2  0  0  0  0  0  0
   36.7630   24.3510   41.6660 C   0  0  0  0  0  2  0  0  0  0  0  0
   38.2670   24.2880   41.8240 C   0  0  0  0  0  2  0  0  0  0  0  0
   38.7100   24.5530   40.3990 C   0  0  0  0  0  3  0  0  0  0  0  0
   38.7620   23.6070   39.8260 H   0  0  0  0  0  0  0  0  0  0  0  0
  1  2  1  0  0  0  0
  2 19  1  0  0  0  0
  2  3  2  0  0  0  0
  3  9  1  0  0  0  0
  4  3  1  0  0  0  0
  5  4  2  0  0  0  0
  6  1  2  0  0  0  0
  6  5  1  0  0  0  0
  7  1  1  0  0  0  0
  8  5  1  0  0  0  0
  9 14  2  0  0  0  0
  9 10  1  0  0  0  0
 10 15  1  0  0  0  0
 10 11  2  0  0  0  0
 11 12  1  0  0  0  0
 11 16  1  0  0  0  0
 12 17  1  0  0  0  0
 13 18  1  0  0  0  0
 13 12  2  0  0  0  0
 14 13  1  0  0  0  0
 19 21  1  0  0  0  0
 20 19  2  0  0  0  0
 21 22  1  0  0  0  0
 21 25  1  0  0  0  0
 22 23  1  0  0  0  0
 23 24  1  0  0  0  0
 25 24  1  0  0  0  0
 26 25  1  0  0  0  0
M  END
>  <minimizedAffinity>
-4.85692549

$$$$

 OpenBabel03252507173D

 26 28  0  0  0  0  0  0  0  0999 V2000
   37.0010   32.3470   39.6280 C   0  0  0  0  0  0  0  0  0  0  0  0
   37.1190   31.0440   40.1760 C   0  0  0  0  0  0  0  0  0  0  0  0
   38.1650   30.8180   41.0590 C   0  0  0  0  0  0  0  0  0  0  0  0
   39.0120   31.8170   41.3590 N   0  0  0  0  0  0  0  0  0  0  0  0
   38.8770   33.0670   40.8170 C   0  0  0  0  0  0  0  0  0  0  0  0
   37.8840   33.3010   39.9710 N   0  0  0  0  0  0  0  0  0  0  0  0
   36.1800   32.5230   38.9360 H   0  0  0  0  0  0  0  0  0  0  0  0
   39.6250   33.7990   41.1340 H   0  0  0  0  0  0  0  0  0  0  0  0
   38.3000   29.4830   41.6320 C   0  0  0  0  0  0  0  0  0  0  0  0
   37.8390   29.2480   42.9240 C   0  0  0  0  0  0  0  0  0  0  0  0
   37.9850   27.9720   43.4300 C   0  0  0  0  0  0  0  0  0  0  0  0
   38.5680   26.9140   42.7150 C   0  0  0  0  0  0  0  0  0  0  0  0
   39.0010   27.2410   41.4320 C   0  0  0  0  0  0  0  0  0  0  0  0
   38.8560   28.4880   40.9450 N   0  0  0  0  0  0  0  0  0  0  0  0
   37.3780   30.0200   43.5320 H   0  0  0  0  0  0  0  0  0  0  0  0
   37.6290   27.7800   44.4340 H   0  0  0  0  0  0  0  0  0  0  0  0
   38.6580   25.9460   43.1510 H   0  0  0  0  0  0  0  0  0  0  0  0
   39.4570   26.4510   40.8500 H   0  0  0  0  0  0  0  0  0  0  0  0
   36.1880   30.0370   39.8130 C   0  0  0  0  0  0  0  0  0  0  0  0
   35.2640   29.7740   40.6340 O   0  0  0  0  0  0  0  0  0  0  0  0
   36.1050   29.2370   38.6370 N   0  0  0  0  0  0  0  0  0  0  0  0
   37.2180   29.1330   37.7130 C   0  0  0  0  0  2  0  0  0  0  0  0
   36.6530   29.5690   36.3740 C   0  0  0  0  0  2  0  0  0  0  0  0
   35.2620   28.9780   36.4450 C   0  0  0  0  0  2  0  0  0  0  0  0
   35.2950   28.3490   37.8240 C   0  0  0  0  0  3  0  0  0  0  0  0
   35.6960   27.3180   37.7710 H   0  0  0  0  0  0  0  0  0  0  0  0
  1  6  2  0  0  0  0
  1  2  1  0  0  0  0
  2  3  2  0  0  0  0
  3  4  1  0  0  0  0
  3  9  1  0  0  0  0
  5  8  1  0  0  0  0
  5  4  2  0  0  0  0
  6  5  1  0  0  0  0
  7  1  1  0  0  0  0
  9 10  1  0  0  0  0
 10 11  2  0  0  0  0
 10 15  1  0  0  0  0
 11 16  1  0  0  0  0
 12 17  1  0  0  0  0
 12 11  1  0  0  0  0
 13 12  2  0  0  0  0
 14 13  1  0  0  0  0
 14  9  2  0  0  0  0
 18 13  1  0  0  0  0
 19  2  1  0  0  0  0
 19 20  2  0  0  0  0
 21 19  1  0  0  0  0
 22 21  1  0  0  0  0
 23 24  1  0  0  0  0
 23 22  1  0  0  0  0
 24 25  1  0  0  0  0
 25 21  1  0  0  0  0
 26 25  1  0  0  0  0
M  END
>  <minimizedAffinity>
-4.83690166

$$$$

 OpenBabel03252507173D

 26 28  0  0  0  0  0  0  0  0999 V2000
   39.7040   28.4040   42.1880 C   0  0  0  0  0  0  0  0  0  0  0  0
   38.7220   28.5640   41.1770 C   0  0  0  0  0  0  0  0  0  0  0  0
   37.4760   28.0010   41.4050 C   0  0  0  0  0  0  0  0  0  0  0  0
   37.2440   27.3370   42.5490 N   0  0  0  0  0  0  0  0  0  0  0  0
   38.2070   27.1950   43.5120 C   0  0  0  0  0  0  0  0  0  0  0  0
   39.4050   27.7270   43.3110 N   0  0  0  0  0  0  0  0  0  0  0  0
   40.6810   28.8470   42.0080 H   0  0  0  0  0  0  0  0  0  0  0  0
   37.9040   26.6350   44.4010 H   0  0  0  0  0  0  0  0  0  0  0  0
   36.4560   28.1570   40.3740 C   0  0  0  0  0  0  0  0  0  0  0  0
   35.4510   29.1040   40.5510 C   0  0  0  0  0  0  0  0  0  0  0  0
   34.5040   29.2220   39.5520 C   0  0  0  0  0  0  0  0  0  0  0  0
   34.5050   28.4430   38.3840 C   0  0  0  0  0  0  0  0  0  0  0  0
   35.5470   27.5220   38.2940 C   0  0  0  0  0  0  0  0  0  0  0  0
   36.4660   27.4130   39.2710 N   0  0  0  0  0  0  0  0  0  0  0  0
   35.3900   29.7390   41.4290 H   0  0  0  0  0  0  0  0  0  0  0  0
   33.7190   29.9550   39.6810 H   0  0  0  0  0  0  0  0  0  0  0  0
   33.7510   28.5720   37.6430 H   0  0  0  0  0  0  0  0  0  0  0  0
   35.5800   26.9040   37.4070 H   0  0  0  0  0  0  0  0  0  0  0  0
   39.0390   29.2770   39.9920 C   0  0  0  0  0  0  0  0  0  0  0  0
   39.6220   28.6430   39.0680 O   0  0  0  0  0  0  0  0  0  0  0  0
   38.8060   30.6390   39.6430 N   0  0  0  0  0  0  0  0  0  0  0  0
   38.4490   31.6260   40.6440 C   0  0  0  0  0  2  0  0  0  0  0  0
   37.1360   32.2120   40.1620 C   0  0  0  0  0  2  0  0  0  0  0  0
   37.3670   32.2390   38.6660 C   0  0  0  0  0  2  0  0  0  0  0  0
   38.7550   31.6330   38.5870 C   0  0  0  0  0  3  0  0  0  0  0  0
   39.5280   32.4190   38.6900 H   0  0  0  0  0  0  0  0  0  0  0  0
  1  6  1  0  0  0  0
  2  3  1  0  0  0  0
  2  1  2  0  0  0  0
  3  4  2  0  0  0  0
  4  5  1  0  0  0  0
  5  8  1  0  0  0  0
  6  5  2  0  0  0  0
  7  1  1  0  0  0  0
  9 10  1  0  0  0  0
  9  3  1  0  0  0  0
 10 15  1  0  0  0  0
 11 16  1  0  0  0  0
 11 10  2  0  0  0  0
 12 11  1  0  0  0  0
 13 12  2  0  0  0  0
 13 14  1  0  0  0  0
 14  9  2  0  0  0  0
 17 12  1  0  0  0  0
 18 13  1  0  0  0  0
 19  2  1  0  0  0  0
 20 19  2  0  0  0  0
 21 19  1  0  0  0  0
 21 22  1  0  0  0  0
 23 22  1  0  0  0  0
 24 23  1  0  0  0  0
 25 24  1  0  0  0  0
 25 26  1  0  0  0  0
 25 21  1  0  0  0  0
M  END
>  <minimizedAffinity>
-4.82495642

$$$$

 OpenBabel03252507173D

 26 28  0  0  0  0  0  0  0  0999 V2000
   36.6760   25.4090   38.8490 C   0  0  0  0  0  0  0  0  0  0  0  0
   36.9490   26.7170   39.3220 C   0  0  0  0  0  0  0  0  0  0  0  0
   36.1270   27.7410   38.8740 C   0  0  0  0  0  0  0  0  0  0  0  0
   35.1230   27.4660   38.0260 N   0  0  0  0  0  0  0  0  0  0  0  0
   34.8780   26.1940   37.5820 C   0  0  0  0  0  0  0  0  0  0  0  0
   35.6530   25.2030   38.0000 N   0  0  0  0  0  0  0  0  0  0  0  0
   37.3210   24.6070   39.2010 H   0  0  0  0  0  0  0  0  0  0  0  0
   34.0340   26.0910   36.8950 H   0  0  0  0  0  0  0  0  0  0  0  0
   36.3950   29.0920   39.3520 C   0  0  0  0  0  0  0  0  0  0  0  0
   35.8560   29.5030   40.5680 C   0  0  0  0  0  0  0  0  0  0  0  0
   36.1320   30.7900   40.9860 C   0  0  0  0  0  0  0  0  0  0  0  0
   36.9210   31.6920   40.2540 C   0  0  0  0  0  0  0  0  0  0  0  0
   37.4180   31.1950   39.0510 C   0  0  0  0  0  0  0  0  0  0  0  0
   37.1440   29.9400   38.6500 N   0  0  0  0  0  0  0  0  0  0  0  0
   35.2380   28.8570   41.1840 H   0  0  0  0  0  0  0  0  0  0  0  0
   35.7170   31.1180   41.9290 H   0  0  0  0  0  0  0  0  0  0  0  0
   37.1050   32.6750   40.6200 H   0  0  0  0  0  0  0  0  0  0  0  0
   38.0300   31.8630   38.4590 H   0  0  0  0  0  0  0  0  0  0  0  0
   38.0290   26.9340   40.2170 C   0  0  0  0  0  0  0  0  0  0  0  0
   39.1570   27.2050   39.7140 O   0  0  0  0  0  0  0  0  0  0  0  0
   38.0700   26.9000   41.6400 N   0  0  0  0  0  0  0  0  0  0  0  0
   36.9970   26.3050   42.4140 C   0  0  0  0  0  2  0  0  0  0  0  0
   36.5340   27.4080   43.3480 C   0  0  0  0  0  2  0  0  0  0  0  0
   37.8520   28.0740   43.6790 C   0  0  0  0  0  2  0  0  0  0  0  0
   38.8050   27.2400   42.8450 C   0  0  0  0  0  3  0  0  0  0  0  0
   39.1450   26.3530   43.4140 H   0  0  0  0  0  0  0  0  0  0  0  0
  1  7  1  0  0  0  0
  1  2  1  0  0  0  0
  2 19  1  0  0  0  0
  3  2  2  0  0  0  0
  3  9  1  0  0  0  0
  4  3  1  0  0  0  0
  5  6  1  0  0  0  0
  5  4  2  0  0  0  0
  6  1  2  0  0  0  0
  8  5  1  0  0  0  0
  9 10  1  0  0  0  0
 10 11  2  0  0  0  0
 10 15  1  0  0  0  0
 11 16  1  0  0  0  0
 12 17  1  0  0  0  0
 12 11  1  0  0  0  0
 13 12  2  0  0  0  0
 14 13  1  0  0  0  0
 14  9  2  0  0  0  0
 18 13  1  0  0  0  0
 19 21  1  0  0  0  0
 20 19  2  0  0  0  0
 21 22  1  0  0  0  0
 21 25  1  0  0  0  0
 22 23  1  0  0  0  0
 23 24  1  0  0  0  0
 25 26  1  0  0  0  0
 25 24  1  0  0  0  0
M  END
>  <minimizedAffinity>
-4.80895042

$$$$

 OpenBabel03252507173D

 26 28  0  0  0  0  0  0  0  0999 V2000
   35.8860   29.6760   38.3070 C   0  0  0  0  0  0  0  0  0  0  0  0
   36.5300   29.4460   39.5500 C   0  0  0  0  0  0  0  0  0  0  0  0
   36.6630   28.1290   39.9630 C   0  0  0  0  0  0  0  0  0  0  0  0
   36.1900   27.1370   39.1900 N   0  0  0  0  0  0  0  0  0  0  0  0
   35.5720   27.3830   37.9940 C   0  0  0  0  0  0  0  0  0  0  0  0
   35.4350   28.6360   37.5830 N   0  0  0  0  0  0  0  0  0  0  0  0
   35.7820   30.7090   37.9840 H   0  0  0  0  0  0  0  0  0  0  0  0
   35.2280   26.4970   37.4530 H   0  0  0  0  0  0  0  0  0  0  0  0
   37.3230   27.8760   41.2390 C   0  0  0  0  0  0  0  0  0  0  0  0
   36.5580   27.8180   42.4000 C   0  0  0  0  0  0  0  0  0  0  0  0
   37.2210   27.5760   43.5880 C   0  0  0  0  0  0  0  0  0  0  0  0
   38.6090   27.3890   43.6790 C   0  0  0  0  0  0  0  0  0  0  0  0
   39.2930   27.4640   42.4680 C   0  0  0  0  0  0  0  0  0  0  0  0
   38.6400   27.7010   41.3140 N   0  0  0  0  0  0  0  0  0  0  0  0
   35.4810   27.9530   42.4020 H   0  0  0  0  0  0  0  0  0  0  0  0
   36.6340   27.5300   44.4960 H   0  0  0  0  0  0  0  0  0  0  0  0
   39.0730   27.2050   44.6210 H   0  0  0  0  0  0  0  0  0  0  0  0
   40.3650   27.3250   42.4990 H   0  0  0  0  0  0  0  0  0  0  0  0
   37.0040   30.5430   40.3130 C   0  0  0  0  0  0  0  0  0  0  0  0
   36.1840   31.1080   41.0930 O   0  0  0  0  0  0  0  0  0  0  0  0
   38.2930   31.1470   40.3620 N   0  0  0  0  0  0  0  0  0  0  0  0
   39.2900   30.8850   39.3400 C   0  0  0  0  0  2  0  0  0  0  0  0
   40.4940   30.3590   40.0990 C   0  0  0  0  0  2  0  0  0  0  0  0
   40.4390   31.2120   41.3480 C   0  0  0  0  0  2  0  0  0  0  0  0
   39.1960   32.0340   41.0710 C   0  0  0  0  0  3  0  0  0  0  0  0
   39.4530   32.9460   40.4970 H   0  0  0  0  0  0  0  0  0  0  0  0
  1  2  1  0  0  0  0
  2  3  2  0  0  0  0
  2 19  1  0  0  0  0
  3  9  1  0  0  0  0
  4  3  1  0  0  0  0
  5  4  2  0  0  0  0
  6  5  1  0  0  0  0
  6  1  2  0  0  0  0
  7  1  1  0  0  0  0
  8  5  1  0  0  0  0
  9 14  2  0  0  0  0
  9 10  1  0  0  0  0
 10 15  1  0  0  0  0
 10 11  2  0  0  0  0
 11 12  1  0  0  0  0
 11 16  1  0  0  0  0
 12 17  1  0  0  0  0
 13 18  1  0  0  0  0
 13 12  2  0  0  0  0
 14 13  1  0  0  0  0
 19 21  1  0  0  0  0
 19 20  2  0  0  0  0
 21 25  1  0  0  0  0
 22 23  1  0  0  0  0
 22 21  1  0  0  0  0
 23 24  1  0  0  0  0
 25 24  1  0  0  0  0
 26 25  1  0  0  0  0
M  END
>  <minimizedAffinity>
-4.75469589

$$$$

 OpenBabel03252507173D

 26 28  0  0  0  0  0  0  0  0999 V2000
   36.6580   29.8330   37.1110 C   0  0  0  0  0  0  0  0  0  0  0  0
   37.0200   29.3170   38.3810 C   0  0  0  0  0  0  0  0  0  0  0  0
   36.2270   28.3080   38.9080 C   0  0  0  0  0  0  0  0  0  0  0  0
   35.1670   27.8620   38.2130 N   0  0  0  0  0  0  0  0  0  0  0  0
   34.8370   28.3760   36.9870 C   0  0  0  0  0  0  0  0  0  0  0  0
   35.5840   29.3410   36.4690 N   0  0  0  0  0  0  0  0  0  0  0  0
   37.2810   30.6240   36.6990 H   0  0  0  0  0  0  0  0  0  0  0  0
   33.9550   27.9350   36.5160 H   0  0  0  0  0  0  0  0  0  0  0  0
   36.5860   27.7660   40.2140 C   0  0  0  0  0  0  0  0  0  0  0  0
   36.1600   28.4260   41.3630 C   0  0  0  0  0  0  0  0  0  0  0  0
   36.5210   27.8820   42.5800 C   0  0  0  0  0  0  0  0  0  0  0  0
   37.2850   26.7110   42.7130 C   0  0  0  0  0  0  0  0  0  0  0  0
   37.6660   26.1200   41.5100 C   0  0  0  0  0  0  0  0  0  0  0  0
   37.3120   26.6570   40.3270 N   0  0  0  0  0  0  0  0  0  0  0  0
   35.5670   29.3350   41.3340 H   0  0  0  0  0  0  0  0  0  0  0  0
   36.1950   28.3880   43.4790 H   0  0  0  0  0  0  0  0  0  0  0  0
   37.5370   26.3320   43.6750 H   0  0  0  0  0  0  0  0  0  0  0  0
   38.2570   25.2160   41.5730 H   0  0  0  0  0  0  0  0  0  0  0  0
   38.1520   29.8370   39.0590 C   0  0  0  0  0  0  0  0  0  0  0  0
   39.2210   29.1630   39.0120 O   0  0  0  0  0  0  0  0  0  0  0  0
   38.3070   31.0350   39.8140 N   0  0  0  0  0  0  0  0  0  0  0  0
   37.1590   31.7950   40.2710 C   0  0  0  0  0  2  0  0  0  0  0  0
   37.3650   33.1870   39.7050 C   0  0  0  0  0  2  0  0  0  0  0  0
   38.8660   33.3310   39.8370 C   0  0  0  0  0  2  0  0  0  0  0  0
   39.2250   31.9800   40.4230 C   0  0  0  0  0  3  0  0  0  0  0  0
   39.1560   32.0050   41.5280 H   0  0  0  0  0  0  0  0  0  0  0  0
  1  2  1  0  0  0  0
  2  3  2  0  0  0  0
  2 19  1  0  0  0  0
  3  9  1  0  0  0  0
  4  3  1  0  0  0  0
  5  4  2  0  0  0  0
  6  5  1  0  0  0  0
  6  1  2  0  0  0  0
  7  1  1  0  0  0  0
  8  5  1  0  0  0  0
  9 14  2  0  0  0  0
  9 10  1  0  0  0  0
 10 11  2  0  0  0  0
 11 12  1  0  0  0  0
 11 16  1  0  0  0  0
 12 17  1  0  0  0  0
 13 18  1  0  0  0  0
 13 12  2  0  0  0  0
 14 13  1  0  0  0  0
 15 10  1  0  0  0  0
 19 21  1  0  0  0  0
 20 19  2  0  0  0  0
 21 22  1  0  0  0  0
 21 25  1  0  0  0  0
 23 24  1  0  0  0  0
 23 22  1  0  0  0  0
 24 25  1  0  0  0  0
 25 26  1  0  0  0  0
M  END
>  <minimizedAffinity>
-4.71594191

$$$$

 OpenBabel03252507173D

 26 28  0  0  0  0  0  0  0  0999 V2000
   39.0690   29.0090   42.9360 C   0  0  0  0  0  0  0  0  0  0  0  0
   38.0160   28.6270   42.0660 C   0  0  0  0  0  0  0  0  0  0  0  0
   37.7450   29.4600   40.9900 C   0  0  0  0  0  0  0  0  0  0  0  0
   38.4720   30.5750   40.8110 N   0  0  0  0  0  0  0  0  0  0  0  0
   39.4840   30.9240   41.6650 C   0  0  0  0  0  0  0  0  0  0  0  0
   39.7570   30.1400   42.6980 N   0  0  0  0  0  0  0  0  0  0  0  0
   39.2800   28.3560   43.7790 H   0  0  0  0  0  0  0  0  0  0  0  0
   40.0060   31.8530   41.4190 H   0  0  0  0  0  0  0  0  0  0  0  0
   36.6650   29.0800   40.0860 C   0  0  0  0  0  0  0  0  0  0  0  0
   35.3650   29.4880   40.3710 C   0  0  0  0  0  0  0  0  0  0  0  0
   34.3710   29.1080   39.4900 C   0  0  0  0  0  0  0  0  0  0  0  0
   34.6050   28.3410   38.3380 C   0  0  0  0  0  0  0  0  0  0  0  0
   35.9350   27.9780   38.1340 C   0  0  0  0  0  0  0  0  0  0  0  0
   36.8980   28.3510   38.9970 N   0  0  0  0  0  0  0  0  0  0  0  0
   35.1140   30.0820   41.2430 H   0  0  0  0  0  0  0  0  0  0  0  0
   33.3570   29.4200   39.7040 H   0  0  0  0  0  0  0  0  0  0  0  0
   33.8030   28.0730   37.6900 H   0  0  0  0  0  0  0  0  0  0  0  0
   36.1530   27.3850   37.2560 H   0  0  0  0  0  0  0  0  0  0  0  0
   37.2890   27.4350   42.3180 C   0  0  0  0  0  0  0  0  0  0  0  0
   36.3260   27.5010   43.1330 O   0  0  0  0  0  0  0  0  0  0  0  0
   37.4580   26.1220   41.7920 N   0  0  0  0  0  0  0  0  0  0  0  0
   38.6730   25.7340   41.1000 C   0  0  0  0  0  2  0  0  0  0  0  0
   38.2070   25.2500   39.7400 C   0  0  0  0  0  2  0  0  0  0  0  0
   36.9170   24.5510   40.1120 C   0  0  0  0  0  2  0  0  0  0  0  0
   36.8840   24.8020   41.6070 C   0  0  0  0  0  3  0  0  0  0  0  0
   37.4350   24.0070   42.1460 H   0  0  0  0  0  0  0  0  0  0  0  0
  1  7  1  0  0  0  0
  2 19  1  0  0  0  0
  2  1  2  0  0  0  0
  3  2  1  0  0  0  0
  4  3  2  0  0  0  0
  4  5  1  0  0  0  0
  5  6  2  0  0  0  0
  6  1  1  0  0  0  0
  8  5  1  0  0  0  0
  9 10  1  0  0  0  0
  9  3  1  0  0  0  0
 10 15  1  0  0  0  0
 11 16  1  0  0  0  0
 11 10  2  0  0  0  0
 12 11  1  0  0  0  0
 13 12  2  0  0  0  0
 13 14  1  0  0  0  0
 14  9  2  0  0  0  0
 17 12  1  0  0  0  0
 18 13  1  0  0  0  0
 19 20  2  0  0  0  0
 21 19  1  0  0  0  0
 22 21  1  0  0  0  0
 23 24  1  0  0  0  0
 23 22  1  0  0  0  0
 24 25  1  0  0  0  0
 25 21  1  0  0  0  0
 25 26  1  0  0  0  0
M  END
>  <minimizedAffinity>
-4.63269281

$$$$
