
 OpenBabel03252500263D

 34 36  0  0  1  0  0  0  0  0999 V2000
   37.4730   26.5640   42.4900 C   0  0  2  0  0  0  0  0  0  0  0  0
   37.3110   27.9420   41.9780 C   0  0  2  0  0  0  0  0  0  0  0  0
   38.0310   28.7720   42.9800 C   0  0  0  0  0  0  0  0  0  0  0  0
   39.0560   28.0030   43.5030 O   0  0  0  0  0  0  0  0  0  0  0  0
   38.8930   26.7220   43.0900 C   0  0  0  0  0  0  0  0  0  0  0  0
   36.9560   26.1280   43.2910 H   0  0  0  0  0  0  0  0  0  0  0  0
   37.8380   27.9350   40.9850 H   0  0  0  0  0  0  0  0  0  0  0  0
   38.5840   29.5610   42.3820 H   0  0  0  0  0  0  0  0  0  0  0  0
   37.4530   29.3670   43.6780 H   0  0  0  0  0  0  0  0  0  0  0  0
   39.5580   26.5730   42.1910 H   0  0  0  0  0  0  0  0  0  0  0  0
   39.1300   25.9440   43.8130 H   0  0  0  0  0  0  0  0  0  0  0  0
   35.9970   28.3200   41.8270 O   0  0  0  0  0  0  0  0  0  0  0  0
   34.6320   29.1470   39.8120 O   0  0  0  0  0  0  0  0  0  0  0  0
   35.8540   29.4650   40.6280 P   0  0  1  0  0  0  0  0  0  0  0  0
   35.6510   30.9920   41.3340 O   0  0  0  0  0  0  0  0  0  0  0  0
   36.4680   31.5350   41.1980 H   0  0  0  0  0  0  0  0  0  0  0  0
   37.1990   29.4640   39.5710 O   0  0  0  0  0  0  0  0  0  0  0  0
   39.2600   31.9200   38.0190 C   0  0  0  0  0  0  0  0  0  0  0  0
   39.7560   32.7010   39.1040 C   0  0  0  0  0  0  0  0  0  0  0  0
   39.3340   32.3290   40.3980 C   0  0  0  0  0  0  0  0  0  0  0  0
   38.5030   31.2720   40.5200 N   0  0  0  0  0  0  0  0  0  0  0  0
   38.0610   30.5610   39.4580 C   0  0  0  0  0  0  0  0  0  0  0  0
   38.4470   30.8960   38.2150 N   0  0  0  0  0  0  0  0  0  0  0  0
   40.4150   33.5370   38.9820 H   0  0  0  0  0  0  0  0  0  0  0  0
   39.6650   32.8710   41.2740 H   0  0  0  0  0  0  0  0  0  0  0  0
   39.6780   32.2940   36.7610 O   0  0  0  0  0  0  0  0  0  0  0  0
   39.5880   33.2980   36.5400 H   0  0  0  0  0  0  0  0  0  0  0  0
   37.4490   25.5830   41.5410 O   0  0  0  0  0  0  0  0  0  0  0  0
   38.6710   22.9780   42.3620 H   0  0  0  0  0  0  0  0  0  0  0  0
   38.0770   23.4070   41.6210 N   0  0  0  0  0  0  0  0  0  0  0  0
   38.0060   22.6430   40.4150 C   0  0  0  0  0  2  0  0  0  0  0  0
   38.8310   23.3610   39.3740 C   0  0  0  0  0  2  0  0  0  0  0  0
   38.7610   24.8040   39.8070 C   0  0  0  0  0  2  0  0  0  0  0  0
   38.4530   24.7590   41.3090 C   0  0  1  0  0  3  0  0  0  0  0  0
  1  5  1  0  0  0  0
  1  6  1  1  0  0  0
  2  7  1  6  0  0  0
  2  1  1  0  0  0  0
  2  3  1  0  0  0  0
  3  4  1  0  0  0  0
  3  9  1  0  0  0  0
  5  4  1  0  0  0  0
  5 11  1  0  0  0  0
  8  3  1  0  0  0  0
 10  5  1  0  0  0  0
 12  2  1  0  0  0  0
 14 13  2  6  0  0  0
 14 15  1  0  0  0  0
 14 12  1  0  0  0  0
 16 15  1  0  0  0  0
 17 14  1  0  0  0  0
 18 23  2  0  0  0  0
 18 19  1  0  0  0  0
 19 20  2  0  0  0  0
 20 21  1  0  0  0  0
 20 25  1  0  0  0  0
 22 17  1  0  0  0  0
 22 21  2  0  0  0  0
 23 22  1  0  0  0  0
 24 19  1  0  0  0  0
 26 18  1  0  0  0  0
 27 26  1  0  0  0  0
 28  1  1  0  0  0  0
 30 29  1  0  0  0  0
 31 30  1  0  0  0  0
 32 33  1  0  0  0  0
 32 31  1  0  0  0  0
 33 34  1  0  0  0  0
 34 28  1  6  0  0  0
 34 30  1  0  0  0  0
M  END
>  <minimizedAffinity>
-5.86114788

$$$$

 OpenBabel03252500263D

 34 36  0  0  1  0  0  0  0  0999 V2000
   38.1850   28.9790   41.7160 C   0  0  2  0  0  0  0  0  0  0  0  0
   38.6830   30.3150   41.3260 C   0  0  2  0  0  0  0  0  0  0  0  0
   39.6490   30.6540   42.4050 C   0  0  0  0  0  0  0  0  0  0  0  0
   40.1930   29.4690   42.8680 O   0  0  0  0  0  0  0  0  0  0  0  0
   39.4940   28.4340   42.3410 C   0  0  0  0  0  0  0  0  0  0  0  0
   37.4890   28.7640   42.4700 H   0  0  0  0  0  0  0  0  0  0  0  0
   39.1990   30.1460   40.3420 H   0  0  0  0  0  0  0  0  0  0  0  0
   40.5260   31.1510   41.8850 H   0  0  0  0  0  0  0  0  0  0  0  0
   39.3650   31.3920   43.1470 H   0  0  0  0  0  0  0  0  0  0  0  0
   40.0650   28.0690   41.4400 H   0  0  0  0  0  0  0  0  0  0  0  0
   39.3210   27.5810   42.9960 H   0  0  0  0  0  0  0  0  0  0  0  0
   37.6870   31.2550   41.1960 O   0  0  0  0  0  0  0  0  0  0  0  0
   36.9840   32.5250   39.0750 O   0  0  0  0  0  0  0  0  0  0  0  0
   38.1100   32.3990   40.0630 P   0  0  1  0  0  0  0  0  0  0  0  0
   38.3260   33.8940   40.8320 O   0  0  0  0  0  0  0  0  0  0  0  0
   39.2870   34.1300   40.8400 H   0  0  0  0  0  0  0  0  0  0  0  0
   39.5150   31.9590   39.1950 O   0  0  0  0  0  0  0  0  0  0  0  0
   42.1710   33.9200   37.8570 C   0  0  0  0  0  0  0  0  0  0  0  0
   42.9080   34.3450   39.0010 C   0  0  0  0  0  0  0  0  0  0  0  0
   42.4320   33.9130   40.2580 C   0  0  0  0  0  0  0  0  0  0  0  0
   41.3260   33.1380   40.2900 N   0  0  0  0  0  0  0  0  0  0  0  0
   40.6620   32.7620   39.1750 C   0  0  0  0  0  0  0  0  0  0  0  0
   41.0950   33.1600   37.9660 N   0  0  0  0  0  0  0  0  0  0  0  0
   43.7830   34.9610   38.9500 H   0  0  0  0  0  0  0  0  0  0  0  0
   42.9340   34.1920   41.1740 H   0  0  0  0  0  0  0  0  0  0  0  0
   42.6450   34.3490   36.6360 O   0  0  0  0  0  0  0  0  0  0  0  0
   42.8520   35.3570   36.5660 H   0  0  0  0  0  0  0  0  0  0  0  0
   37.7710   28.1870   40.6830 O   0  0  0  0  0  0  0  0  0  0  0  0
   35.0140   28.3300   41.8360 H   0  0  0  0  0  0  0  0  0  0  0  0
   35.6170   28.7570   41.1020 N   0  0  0  0  0  0  0  0  0  0  0  0
   34.8940   29.4460   40.0800 C   0  0  0  0  0  2  0  0  0  0  0  0
   34.9520   28.5980   38.8330 C   0  0  0  0  0  2  0  0  0  0  0  0
   36.2430   27.8340   38.9880 C   0  0  0  0  0  2  0  0  0  0  0  0
   36.5190   27.8150   40.4970 C   0  0  1  0  0  3  0  0  0  0  0  0
  1  5  1  0  0  0  0
  1  6  1  1  0  0  0
  2  7  1  6  0  0  0
  2  1  1  0  0  0  0
  2  3  1  0  0  0  0
  3  4  1  0  0  0  0
  3  9  1  0  0  0  0
  5  4  1  0  0  0  0
  5 11  1  0  0  0  0
  8  3  1  0  0  0  0
 10  5  1  0  0  0  0
 12  2  1  0  0  0  0
 14 13  2  6  0  0  0
 14 15  1  0  0  0  0
 14 12  1  0  0  0  0
 15 16  1  0  0  0  0
 17 14  1  0  0  0  0
 18 23  2  0  0  0  0
 18 19  1  0  0  0  0
 19 20  2  0  0  0  0
 20 21  1  0  0  0  0
 20 25  1  0  0  0  0
 22 17  1  0  0  0  0
 22 21  2  0  0  0  0
 23 22  1  0  0  0  0
 24 19  1  0  0  0  0
 26 18  1  0  0  0  0
 27 26  1  0  0  0  0
 28  1  1  0  0  0  0
 30 29  1  0  0  0  0
 31 30  1  0  0  0  0
 32 33  1  0  0  0  0
 32 31  1  0  0  0  0
 33 34  1  0  0  0  0
 34 28  1  6  0  0  0
 34 30  1  0  0  0  0
M  END
>  <minimizedAffinity>
-5.46731234

$$$$

 OpenBabel03252500263D

 34 36  0  0  1  0  0  0  0  0999 V2000
   40.5340   28.7840   42.4410 C   0  0  2  0  0  0  0  0  0  0  0  0
   39.5000   27.8350   42.9070 C   0  0  2  0  0  0  0  0  0  0  0  0
   40.2740   26.6060   43.2260 C   0  0  0  0  0  0  0  0  0  0  0  0
   41.5390   27.0000   43.6280 O   0  0  0  0  0  0  0  0  0  0  0  0
   41.6850   28.3230   43.3710 C   0  0  0  0  0  0  0  0  0  0  0  0
   41.0080   28.7850   41.5060 H   0  0  0  0  0  0  0  0  0  0  0  0
   39.0770   28.3140   43.8330 H   0  0  0  0  0  0  0  0  0  0  0  0
   39.8200   26.1980   44.1810 H   0  0  0  0  0  0  0  0  0  0  0  0
   40.2110   25.7590   42.5530 H   0  0  0  0  0  0  0  0  0  0  0  0
   41.4660   28.8770   44.3280 H   0  0  0  0  0  0  0  0  0  0  0  0
   42.6630   28.6440   43.0150 H   0  0  0  0  0  0  0  0  0  0  0  0
   38.5070   27.6070   41.9820 O   0  0  0  0  0  0  0  0  0  0  0  0
   36.3880   26.9680   43.2890 O   0  0  0  0  0  0  0  0  0  0  0  0
   37.0360   28.1180   42.5690 P   0  0  1  0  0  0  0  0  0  0  0  0
   37.2830   29.3790   43.6750 O   0  0  0  0  0  0  0  0  0  0  0  0
   36.9690   30.2330   43.2840 H   0  0  0  0  0  0  0  0  0  0  0  0
   35.9790   28.6110   41.3190 O   0  0  0  0  0  0  0  0  0  0  0  0
   36.8070   31.8040   39.9740 C   0  0  0  0  0  0  0  0  0  0  0  0
   37.0550   31.5520   38.5930 C   0  0  0  0  0  0  0  0  0  0  0  0
   36.9190   30.2160   38.1580 C   0  0  0  0  0  0  0  0  0  0  0  0
   36.5680   29.2810   39.0670 N   0  0  0  0  0  0  0  0  0  0  0  0
   36.3430   29.5710   40.3680 C   0  0  0  0  0  0  0  0  0  0  0  0
   36.4660   30.8360   40.8080 N   0  0  0  0  0  0  0  0  0  0  0  0
   37.3330   32.3110   37.8900 H   0  0  0  0  0  0  0  0  0  0  0  0
   37.0900   29.9420   37.1260 H   0  0  0  0  0  0  0  0  0  0  0  0
   36.9440   33.1110   40.3870 O   0  0  0  0  0  0  0  0  0  0  0  0
   37.8130   33.5840   40.0940 H   0  0  0  0  0  0  0  0  0  0  0  0
   40.2450   30.1040   42.6390 O   0  0  0  0  0  0  0  0  0  0  0  0
   39.5990   32.9540   41.9940 H   0  0  0  0  0  0  0  0  0  0  0  0
   40.3240   32.2220   41.8350 N   0  0  0  0  0  0  0  0  0  0  0  0
   41.1910   32.4890   40.7310 C   0  0  0  0  0  2  0  0  0  0  0  0
   40.8080   31.5470   39.6150 C   0  0  0  0  0  2  0  0  0  0  0  0
   40.2340   30.3570   40.3430 C   0  0  0  0  0  2  0  0  0  0  0  0
   39.7710   30.9020   41.7010 C   0  0  1  0  0  3  0  0  0  0  0  0
  1  6  1  6  0  0  0
  1 28  1  0  0  0  0
  1  2  1  0  0  0  0
  1  5  1  0  0  0  0
  2  3  1  0  0  0  0
  2  7  1  1  0  0  0
  3  4  1  0  0  0  0
  3  8  1  0  0  0  0
  5  4  1  0  0  0  0
  5 10  1  0  0  0  0
  9  3  1  0  0  0  0
 11  5  1  0  0  0  0
 12 14  1  0  0  0  0
 12  2  1  0  0  0  0
 14 13  2  1  0  0  0
 14 15  1  0  0  0  0
 16 15  1  0  0  0  0
 17 14  1  0  0  0  0
 18 26  1  0  0  0  0
 18 23  1  0  0  0  0
 19 18  2  0  0  0  0
 20 19  1  0  0  0  0
 20 21  2  0  0  0  0
 21 22  1  0  0  0  0
 22 23  2  0  0  0  0
 22 17  1  0  0  0  0
 24 19  1  0  0  0  0
 25 20  1  0  0  0  0
 27 26  1  0  0  0  0
 30 29  1  0  0  0  0
 31 30  1  0  0  0  0
 32 33  1  0  0  0  0
 32 31  1  0  0  0  0
 33 34  1  0  0  0  0
 34 30  1  0  0  0  0
 34 28  1  1  0  0  0
M  END
>  <minimizedAffinity>
-5.37749195

$$$$

 OpenBabel03252500263D

 34 36  0  0  1  0  0  0  0  0999 V2000
   37.0260   29.2530   41.7850 C   0  0  2  0  0  0  0  0  0  0  0  0
   38.4230   29.0630   42.2290 C   0  0  2  0  0  0  0  0  0  0  0  0
   38.2940   28.1730   43.4130 C   0  0  0  0  0  0  0  0  0  0  0  0
   37.1780   27.3770   43.2190 O   0  0  0  0  0  0  0  0  0  0  0  0
   36.4900   27.8460   42.1500 C   0  0  0  0  0  0  0  0  0  0  0  0
   36.3060   29.8720   42.2290 H   0  0  0  0  0  0  0  0  0  0  0  0
   38.9220   28.5410   41.3670 H   0  0  0  0  0  0  0  0  0  0  0  0
   39.1500   27.4340   43.3360 H   0  0  0  0  0  0  0  0  0  0  0  0
   38.4340   28.5950   44.4020 H   0  0  0  0  0  0  0  0  0  0  0  0
   36.7940   27.2260   41.2580 H   0  0  0  0  0  0  0  0  0  0  0  0
   35.4040   27.8180   42.2210 H   0  0  0  0  0  0  0  0  0  0  0  0
   39.0700   30.2410   42.5240 O   0  0  0  0  0  0  0  0  0  0  0  0
   41.5520   29.7430   42.0750 O   0  0  0  0  0  0  0  0  0  0  0  0
   40.3640   30.4650   41.5020 P   0  0  1  0  0  0  0  0  0  0  0  0
   40.0040   29.7950   39.9870 O   0  0  0  0  0  0  0  0  0  0  0  0
   39.8710   30.5180   39.3240 H   0  0  0  0  0  0  0  0  0  0  0  0
   40.7860   32.1150   41.3450 O   0  0  0  0  0  0  0  0  0  0  0  0
   41.0540   32.8170   37.8630 C   0  0  0  0  0  0  0  0  0  0  0  0
   42.2230   33.6270   37.7560 C   0  0  0  0  0  0  0  0  0  0  0  0
   42.9080   33.9140   38.9550 C   0  0  0  0  0  0  0  0  0  0  0  0
   42.4170   33.4080   40.1080 N   0  0  0  0  0  0  0  0  0  0  0  0
   41.3040   32.6440   40.1580 C   0  0  0  0  0  0  0  0  0  0  0  0
   40.6320   32.3570   39.0290 N   0  0  0  0  0  0  0  0  0  0  0  0
   42.5930   34.0170   36.8290 H   0  0  0  0  0  0  0  0  0  0  0  0
   43.8030   34.5210   38.9590 H   0  0  0  0  0  0  0  0  0  0  0  0
   40.3930   32.5460   36.6860 O   0  0  0  0  0  0  0  0  0  0  0  0
   40.2010   33.3600   36.0820 H   0  0  0  0  0  0  0  0  0  0  0  0
   36.8670   29.5060   40.4520 O   0  0  0  0  0  0  0  0  0  0  0  0
   35.6590   32.1360   41.2120 H   0  0  0  0  0  0  0  0  0  0  0  0
   36.5300   31.7170   40.8230 N   0  0  0  0  0  0  0  0  0  0  0  0
   37.3700   32.6480   40.1380 C   0  0  0  0  0  2  0  0  0  0  0  0
   37.2490   32.3660   38.6600 C   0  0  0  0  0  2  0  0  0  0  0  0
   36.9090   30.8970   38.6100 C   0  0  0  0  0  2  0  0  0  0  0  0
   36.2780   30.5850   39.9730 C   0  0  1  0  0  3  0  0  0  0  0  0
  1  5  1  0  0  0  0
  1  6  1  1  0  0  0
  1  2  1  0  0  0  0
  2  7  1  6  0  0  0
  2 12  1  0  0  0  0
  2  3  1  0  0  0  0
  3  9  1  0  0  0  0
  4  3  1  0  0  0  0
  5 11  1  0  0  0  0
  5  4  1  0  0  0  0
  8  3  1  0  0  0  0
 10  5  1  0  0  0  0
 14 13  2  1  0  0  0
 14 12  1  0  0  0  0
 15 14  1  0  0  0  0
 16 15  1  0  0  0  0
 17 14  1  0  0  0  0
 18 23  1  0  0  0  0
 19 18  2  0  0  0  0
 19 20  1  0  0  0  0
 20 25  1  0  0  0  0
 20 21  2  0  0  0  0
 21 22  1  0  0  0  0
 22 17  1  0  0  0  0
 23 22  2  0  0  0  0
 24 19  1  0  0  0  0
 26 18  1  0  0  0  0
 27 26  1  0  0  0  0
 28  1  1  0  0  0  0
 30 29  1  0  0  0  0
 31 30  1  0  0  0  0
 32 31  1  0  0  0  0
 33 32  1  0  0  0  0
 33 34  1  0  0  0  0
 34 28  1  1  0  0  0
 34 30  1  0  0  0  0
M  END
>  <minimizedAffinity>
-5.35028791

$$$$

 OpenBabel03252500263D

 34 36  0  0  1  0  0  0  0  0999 V2000
   38.4440   27.6470   42.5050 C   0  0  2  0  0  0  0  0  0  0  0  0
   39.6130   28.5510   42.4470 C   0  0  2  0  0  0  0  0  0  0  0  0
   40.6410   27.8410   43.2530 C   0  0  0  0  0  0  0  0  0  0  0  0
   40.4080   26.4820   43.1290 O   0  0  0  0  0  0  0  0  0  0  0  0
   39.2120   26.3010   42.5170 C   0  0  0  0  0  0  0  0  0  0  0  0
   37.7890   27.5210   43.3140 H   0  0  0  0  0  0  0  0  0  0  0  0
   39.8870   28.5840   41.3570 H   0  0  0  0  0  0  0  0  0  0  0  0
   41.6190   27.9830   42.6950 H   0  0  0  0  0  0  0  0  0  0  0  0
   40.8780   28.2130   44.2430 H   0  0  0  0  0  0  0  0  0  0  0  0
   39.4190   26.1250   41.4220 H   0  0  0  0  0  0  0  0  0  0  0  0
   38.6010   25.4750   42.8780 H   0  0  0  0  0  0  0  0  0  0  0  0
   39.3530   29.8160   42.9210 O   0  0  0  0  0  0  0  0  0  0  0  0
   39.2540   32.0770   41.7030 O   0  0  0  0  0  0  0  0  0  0  0  0
   40.1920   30.9520   42.0400 P   0  0  1  0  0  0  0  0  0  0  0  0
   41.4580   31.5670   42.9840 O   0  0  0  0  0  0  0  0  0  0  0  0
   42.3250   31.2430   42.6330 H   0  0  0  0  0  0  0  0  0  0  0  0
   40.7900   30.3160   40.5700 O   0  0  0  0  0  0  0  0  0  0  0  0
   40.4980   32.1130   37.5080 C   0  0  0  0  0  0  0  0  0  0  0  0
   41.7710   32.7320   37.3390 C   0  0  0  0  0  0  0  0  0  0  0  0
   42.7320   32.4910   38.3450 C   0  0  0  0  0  0  0  0  0  0  0  0
   42.3840   31.7010   39.3840 N   0  0  0  0  0  0  0  0  0  0  0  0
   41.1620   31.1360   39.4980 C   0  0  0  0  0  0  0  0  0  0  0  0
   40.2290   31.3500   38.5540 N   0  0  0  0  0  0  0  0  0  0  0  0
   42.0230   33.3560   36.5050 H   0  0  0  0  0  0  0  0  0  0  0  0
   43.7210   32.9240   38.2910 H   0  0  0  0  0  0  0  0  0  0  0  0
   39.5680   32.3570   36.5210 O   0  0  0  0  0  0  0  0  0  0  0  0
   39.4450   33.3470   36.2570 H   0  0  0  0  0  0  0  0  0  0  0  0
   37.5980   27.7190   41.4350 O   0  0  0  0  0  0  0  0  0  0  0  0
   35.9090   29.7450   42.8460 H   0  0  0  0  0  0  0  0  0  0  0  0
   36.4540   29.6010   41.9700 N   0  0  0  0  0  0  0  0  0  0  0  0
   36.1110   30.5010   40.9150 C   0  0  0  0  0  2  0  0  0  0  0  0
   35.3310   29.7180   39.8860 C   0  0  0  0  0  2  0  0  0  0  0  0
   35.8460   28.3100   40.0520 C   0  0  0  0  0  2  0  0  0  0  0  0
   36.3920   28.2490   41.4850 C   0  0  1  0  0  3  0  0  0  0  0  0
  1  5  1  0  0  0  0
  1  6  1  1  0  0  0
  2  7  1  6  0  0  0
  2  1  1  0  0  0  0
  2 12  1  0  0  0  0
  2  3  1  0  0  0  0
  3  9  1  0  0  0  0
  4  3  1  0  0  0  0
  5 11  1  0  0  0  0
  5  4  1  0  0  0  0
  8  3  1  0  0  0  0
 10  5  1  0  0  0  0
 14 13  2  6  0  0  0
 14 12  1  0  0  0  0
 14 15  1  0  0  0  0
 16 15  1  0  0  0  0
 17 14  1  0  0  0  0
 18 23  1  0  0  0  0
 19 18  2  0  0  0  0
 19 20  1  0  0  0  0
 20 21  2  0  0  0  0
 21 22  1  0  0  0  0
 22 17  1  0  0  0  0
 23 22  2  0  0  0  0
 24 19  1  0  0  0  0
 25 20  1  0  0  0  0
 26 18  1  0  0  0  0
 27 26  1  0  0  0  0
 28  1  1  0  0  0  0
 30 29  1  0  0  0  0
 31 30  1  0  0  0  0
 32 33  1  0  0  0  0
 32 31  1  0  0  0  0
 33 34  1  0  0  0  0
 34 28  1  6  0  0  0
 34 30  1  0  0  0  0
M  END
>  <minimizedAffinity>
-5.26130152

$$$$

 OpenBabel03252500263D

 34 36  0  0  1  0  0  0  0  0999 V2000
   37.5870   26.6060   42.5290 C   0  0  2  0  0  0  0  0  0  0  0  0
   37.4110   27.9720   41.9900 C   0  0  2  0  0  0  0  0  0  0  0  0
   38.1760   28.8220   42.9400 C   0  0  0  0  0  0  0  0  0  0  0  0
   39.2180   28.0600   43.4400 O   0  0  0  0  0  0  0  0  0  0  0  0
   39.0320   26.7700   43.0650 C   0  0  0  0  0  0  0  0  0  0  0  0
   37.1020   26.1920   43.3610 H   0  0  0  0  0  0  0  0  0  0  0  0
   37.8960   27.9380   40.9760 H   0  0  0  0  0  0  0  0  0  0  0  0
   38.7080   29.5930   42.3010 H   0  0  0  0  0  0  0  0  0  0  0  0
   37.6300   29.4370   43.6470 H   0  0  0  0  0  0  0  0  0  0  0  0
   39.6590   26.5960   42.1440 H   0  0  0  0  0  0  0  0  0  0  0  0
   39.2950   26.0090   43.7970 H   0  0  0  0  0  0  0  0  0  0  0  0
   36.0930   28.3540   41.8850 O   0  0  0  0  0  0  0  0  0  0  0  0
   34.7220   29.1050   39.8440 O   0  0  0  0  0  0  0  0  0  0  0  0
   35.9110   29.4880   40.6810 P   0  0  1  0  0  0  0  0  0  0  0  0
   35.6140   31.0030   41.3800 O   0  0  0  0  0  0  0  0  0  0  0  0
   36.4020   31.5890   41.2580 H   0  0  0  0  0  0  0  0  0  0  0  0
   37.2710   29.5590   39.6480 O   0  0  0  0  0  0  0  0  0  0  0  0
   37.0160   29.4670   36.0960 C   0  0  0  0  0  0  0  0  0  0  0  0
   37.2020   28.0930   35.7640 C   0  0  0  0  0  0  0  0  0  0  0  0
   37.4220   27.2050   36.8390 C   0  0  0  0  0  0  0  0  0  0  0  0
   37.4390   27.7100   38.0910 N   0  0  0  0  0  0  0  0  0  0  0  0
   37.2560   29.0230   38.3550 C   0  0  0  0  0  0  0  0  0  0  0  0
   37.0460   29.8900   37.3480 N   0  0  0  0  0  0  0  0  0  0  0  0
   37.1850   27.7160   34.7610 H   0  0  0  0  0  0  0  0  0  0  0  0
   37.5720   26.1470   36.6710 H   0  0  0  0  0  0  0  0  0  0  0  0
   36.8050   30.3240   35.0380 O   0  0  0  0  0  0  0  0  0  0  0  0
   37.4700   30.2390   34.2540 H   0  0  0  0  0  0  0  0  0  0  0  0
   37.5200   25.6020   41.6050 O   0  0  0  0  0  0  0  0  0  0  0  0
   38.6970   22.9800   42.4370 H   0  0  0  0  0  0  0  0  0  0  0  0
   38.1010   23.4130   41.7000 N   0  0  0  0  0  0  0  0  0  0  0  0
   37.9950   22.6380   40.5040 C   0  0  0  0  0  2  0  0  0  0  0  0
   38.8190   23.3270   39.4430 C   0  0  0  0  0  2  0  0  0  0  0  0
   38.7870   24.7760   39.8600 C   0  0  0  0  0  2  0  0  0  0  0  0
   38.5010   24.7530   41.3680 C   0  0  1  0  0  3  0  0  0  0  0  0
  1  5  1  0  0  0  0
  1  6  1  1  0  0  0
  2  7  1  6  0  0  0
  2  1  1  0  0  0  0
  2  3  1  0  0  0  0
  3  4  1  0  0  0  0
  3  9  1  0  0  0  0
  5  4  1  0  0  0  0
  5 11  1  0  0  0  0
  8  3  1  0  0  0  0
 10  5  1  0  0  0  0
 12  2  1  0  0  0  0
 14 13  2  6  0  0  0
 14 15  1  0  0  0  0
 14 12  1  0  0  0  0
 16 15  1  0  0  0  0
 17 14  1  0  0  0  0
 18 23  1  0  0  0  0
 19 18  2  0  0  0  0
 19 20  1  0  0  0  0
 20 21  2  0  0  0  0
 21 22  1  0  0  0  0
 22 17  1  0  0  0  0
 23 22  2  0  0  0  0
 24 19  1  0  0  0  0
 25 20  1  0  0  0  0
 26 18  1  0  0  0  0
 27 26  1  0  0  0  0
 28  1  1  0  0  0  0
 30 29  1  0  0  0  0
 31 30  1  0  0  0  0
 32 33  1  0  0  0  0
 32 31  1  0  0  0  0
 33 34  1  0  0  0  0
 34 28  1  6  0  0  0
 34 30  1  0  0  0  0
M  END
>  <minimizedAffinity>
-5.21734095

$$$$

 OpenBabel03252500263D

 34 36  0  0  1  0  0  0  0  0999 V2000
   36.2140   30.3870   39.0510 C   0  0  2  0  0  0  0  0  0  0  0  0
   36.3160   29.0890   39.7510 C   0  0  2  0  0  0  0  0  0  0  0  0
   35.5170   28.1700   38.8970 C   0  0  0  0  0  0  0  0  0  0  0  0
   35.6070   28.6250   37.5930 O   0  0  0  0  0  0  0  0  0  0  0  0
   36.1900   29.8490   37.5980 C   0  0  0  0  0  0  0  0  0  0  0  0
   35.3890   31.0340   39.0470 H   0  0  0  0  0  0  0  0  0  0  0  0
   37.4120   28.8390   39.7200 H   0  0  0  0  0  0  0  0  0  0  0  0
   36.0980   27.1970   38.8680 H   0  0  0  0  0  0  0  0  0  0  0  0
   34.5400   27.8520   39.2430 H   0  0  0  0  0  0  0  0  0  0  0  0
   37.2850   29.6990   37.3720 H   0  0  0  0  0  0  0  0  0  0  0  0
   35.7980   30.5760   36.8900 H   0  0  0  0  0  0  0  0  0  0  0  0
   35.8640   29.1280   41.0490 O   0  0  0  0  0  0  0  0  0  0  0  0
   37.6990   29.6840   42.7610 O   0  0  0  0  0  0  0  0  0  0  0  0
   37.0180   28.5260   42.0870 P   0  0  1  0  0  0  0  0  0  0  0  0
   36.2640   27.5770   43.2710 O   0  0  0  0  0  0  0  0  0  0  0  0
   36.4790   26.6220   43.1220 H   0  0  0  0  0  0  0  0  0  0  0  0
   38.2170   27.6250   41.2660 O   0  0  0  0  0  0  0  0  0  0  0  0
   38.9150   24.2870   42.2970 C   0  0  0  0  0  0  0  0  0  0  0  0
   38.2820   23.4740   41.3120 C   0  0  0  0  0  0  0  0  0  0  0  0
   37.6020   24.1470   40.2740 C   0  0  0  0  0  0  0  0  0  0  0  0
   37.5980   25.4980   40.2850 N   0  0  0  0  0  0  0  0  0  0  0  0
   38.2140   26.2250   41.2440 C   0  0  0  0  0  0  0  0  0  0  0  0
   38.8680   25.6080   42.2430 N   0  0  0  0  0  0  0  0  0  0  0  0
   38.2990   22.4020   41.3250 H   0  0  0  0  0  0  0  0  0  0  0  0
   37.0970   23.6030   39.4890 H   0  0  0  0  0  0  0  0  0  0  0  0
   39.5740   23.6180   43.3050 O   0  0  0  0  0  0  0  0  0  0  0  0
   39.0420   22.8630   43.7630 H   0  0  0  0  0  0  0  0  0  0  0  0
   37.2670   31.2350   39.2400 O   0  0  0  0  0  0  0  0  0  0  0  0
   38.4130   31.8010   41.9460 H   0  0  0  0  0  0  0  0  0  0  0  0
   38.5570   32.0110   40.9360 N   0  0  0  0  0  0  0  0  0  0  0  0
   39.3730   33.1580   40.6880 C   0  0  0  0  0  2  0  0  0  0  0  0
   38.4660   34.2640   40.2060 C   0  0  0  0  0  2  0  0  0  0  0  0
   37.3250   33.5230   39.5540 C   0  0  0  0  0  2  0  0  0  0  0  0
   37.3250   32.1330   40.2050 C   0  0  1  0  0  3  0  0  0  0  0  0
  1  6  1  1  0  0  0
  1 28  1  0  0  0  0
  1  2  1  0  0  0  0
  2  7  1  6  0  0  0
  2 12  1  0  0  0  0
  3  9  1  0  0  0  0
  3  2  1  0  0  0  0
  4  5  1  0  0  0  0
  4  3  1  0  0  0  0
  5  1  1  0  0  0  0
  8  3  1  0  0  0  0
 10  5  1  0  0  0  0
 11  5  1  0  0  0  0
 12 14  1  0  0  0  0
 14 13  2  1  0  0  0
 14 15  1  0  0  0  0
 16 15  1  0  0  0  0
 17 14  1  0  0  0  0
 18 26  1  0  0  0  0
 19 24  1  0  0  0  0
 19 18  2  0  0  0  0
 20 21  2  0  0  0  0
 20 19  1  0  0  0  0
 21 22  1  0  0  0  0
 22 17  1  0  0  0  0
 22 23  2  0  0  0  0
 23 18  1  0  0  0  0
 25 20  1  0  0  0  0
 26 27  1  0  0  0  0
 30 29  1  0  0  0  0
 31 30  1  0  0  0  0
 32 31  1  0  0  0  0
 33 34  1  0  0  0  0
 33 32  1  0  0  0  0
 34 28  1  6  0  0  0
 34 30  1  0  0  0  0
M  END
>  <minimizedAffinity>
-5.21627283

$$$$

 OpenBabel03252500263D

 34 36  0  0  1  0  0  0  0  0999 V2000
   38.8200   28.0370   42.7430 C   0  0  2  0  0  0  0  0  0  0  0  0
   39.9840   28.2500   41.8570 C   0  0  2  0  0  0  0  0  0  0  0  0
   41.1480   27.9730   42.7400 C   0  0  0  0  0  0  0  0  0  0  0  0
   40.7490   27.0350   43.6770 O   0  0  0  0  0  0  0  0  0  0  0  0
   39.4050   26.8830   43.5950 C   0  0  0  0  0  0  0  0  0  0  0  0
   38.4690   28.6880   43.4850 H   0  0  0  0  0  0  0  0  0  0  0  0
   39.8730   27.4700   41.0550 H   0  0  0  0  0  0  0  0  0  0  0  0
   41.8870   27.3970   42.1010 H   0  0  0  0  0  0  0  0  0  0  0  0
   41.7440   28.8060   43.0970 H   0  0  0  0  0  0  0  0  0  0  0  0
   39.2090   25.9770   42.9530 H   0  0  0  0  0  0  0  0  0  0  0  0
   38.8730   26.7470   44.5350 H   0  0  0  0  0  0  0  0  0  0  0  0
   40.0300   29.5100   41.3050 O   0  0  0  0  0  0  0  0  0  0  0  0
   41.3860   29.1410   39.1520 O   0  0  0  0  0  0  0  0  0  0  0  0
   39.9920   29.4190   39.6440 P   0  0  1  0  0  0  0  0  0  0  0  0
   38.9890   28.1360   39.1770 O   0  0  0  0  0  0  0  0  0  0  0  0
   38.1570   28.4910   38.7740 H   0  0  0  0  0  0  0  0  0  0  0  0
   39.4720   30.8820   38.9280 O   0  0  0  0  0  0  0  0  0  0  0  0
   41.6000   33.5220   37.8400 C   0  0  0  0  0  0  0  0  0  0  0  0
   41.7550   34.3490   38.9910 C   0  0  0  0  0  0  0  0  0  0  0  0
   41.0810   33.9390   40.1620 C   0  0  0  0  0  0  0  0  0  0  0  0
   40.3460   32.8070   40.1110 N   0  0  0  0  0  0  0  0  0  0  0  0
   40.2300   32.0560   38.9930 C   0  0  0  0  0  0  0  0  0  0  0  0
   40.8620   32.4260   37.8650 N   0  0  0  0  0  0  0  0  0  0  0  0
   42.3450   35.2440   39.0070 H   0  0  0  0  0  0  0  0  0  0  0  0
   41.1480   34.5100   41.0770 H   0  0  0  0  0  0  0  0  0  0  0  0
   42.2620   33.9340   36.7040 O   0  0  0  0  0  0  0  0  0  0  0  0
   42.1330   34.9250   36.4450 H   0  0  0  0  0  0  0  0  0  0  0  0
   37.6730   27.6460   42.1130 O   0  0  0  0  0  0  0  0  0  0  0  0
   36.3370   30.0510   43.2910 H   0  0  0  0  0  0  0  0  0  0  0  0
   36.8230   29.7240   42.4290 N   0  0  0  0  0  0  0  0  0  0  0  0
   36.5700   30.5290   41.2760 C   0  0  0  0  0  2  0  0  0  0  0  0
   35.6500   29.7470   40.3690 C   0  0  0  0  0  2  0  0  0  0  0  0
   35.9700   28.3100   40.7010 C   0  0  0  0  0  2  0  0  0  0  0  0
   36.5550   28.3460   42.1190 C   0  0  1  0  0  3  0  0  0  0  0  0
  1  6  1  1  0  0  0
  1  5  1  0  0  0  0
  2  7  1  6  0  0  0
  2  3  1  0  0  0  0
  2  1  1  0  0  0  0
  3  9  1  0  0  0  0
  3  4  1  0  0  0  0
  5  4  1  0  0  0  0
  5 11  1  0  0  0  0
  8  3  1  0  0  0  0
 10  5  1  0  0  0  0
 12  2  1  0  0  0  0
 14 13  2  6  0  0  0
 14 12  1  0  0  0  0
 15 14  1  0  0  0  0
 16 15  1  0  0  0  0
 17 22  1  0  0  0  0
 17 14  1  0  0  0  0
 18 23  2  0  0  0  0
 18 19  1  0  0  0  0
 19 24  1  0  0  0  0
 19 20  2  0  0  0  0
 20 25  1  0  0  0  0
 21 20  1  0  0  0  0
 22 21  2  0  0  0  0
 23 22  1  0  0  0  0
 26 18  1  0  0  0  0
 27 26  1  0  0  0  0
 28  1  1  0  0  0  0
 30 29  1  0  0  0  0
 31 30  1  0  0  0  0
 32 33  1  0  0  0  0
 32 31  1  0  0  0  0
 33 34  1  0  0  0  0
 34 28  1  6  0  0  0
 34 30  1  0  0  0  0
M  END
>  <minimizedAffinity>
-5.21102285

$$$$

 OpenBabel03252500263D

 34 36  0  0  1  0  0  0  0  0999 V2000
   38.5150   28.3140   42.4800 C   0  0  2  0  0  0  0  0  0  0  0  0
   37.2490   28.7710   41.8690 C   0  0  2  0  0  0  0  0  0  0  0  0
   36.3110   27.6480   42.1330 C   0  0  0  0  0  0  0  0  0  0  0  0
   36.7020   27.0440   43.3160 O   0  0  0  0  0  0  0  0  0  0  0  0
   37.9110   27.5390   43.6780 C   0  0  0  0  0  0  0  0  0  0  0  0
   39.1810   27.6060   42.0880 H   0  0  0  0  0  0  0  0  0  0  0  0
   36.9730   29.6920   42.4520 H   0  0  0  0  0  0  0  0  0  0  0  0
   35.3240   28.1320   42.4090 H   0  0  0  0  0  0  0  0  0  0  0  0
   36.0320   26.9950   41.3130 H   0  0  0  0  0  0  0  0  0  0  0  0
   37.7250   28.3570   44.4330 H   0  0  0  0  0  0  0  0  0  0  0  0
   38.6130   26.8330   44.1170 H   0  0  0  0  0  0  0  0  0  0  0  0
   37.3600   29.0600   40.5290 O   0  0  0  0  0  0  0  0  0  0  0  0
   35.0360   29.3140   39.4580 O   0  0  0  0  0  0  0  0  0  0  0  0
   36.1590   30.1130   40.0590 P   0  0  1  0  0  0  0  0  0  0  0  0
   35.5710   30.9330   41.4210 O   0  0  0  0  0  0  0  0  0  0  0  0
   35.8560   31.8800   41.3910 H   0  0  0  0  0  0  0  0  0  0  0  0
   36.6990   31.2220   38.8750 O   0  0  0  0  0  0  0  0  0  0  0  0
   38.9040   33.5480   40.4300 C   0  0  0  0  0  0  0  0  0  0  0  0
   40.0150   33.6290   39.5410 C   0  0  0  0  0  0  0  0  0  0  0  0
   39.9550   32.8340   38.3760 C   0  0  0  0  0  0  0  0  0  0  0  0
   38.8640   32.0610   38.1860 N   0  0  0  0  0  0  0  0  0  0  0  0
   37.8340   32.0190   39.0610 C   0  0  0  0  0  0  0  0  0  0  0  0
   37.8670   32.7670   40.1780 N   0  0  0  0  0  0  0  0  0  0  0  0
   40.8710   34.2510   39.7130 H   0  0  0  0  0  0  0  0  0  0  0  0
   40.7580   32.8390   37.6520 H   0  0  0  0  0  0  0  0  0  0  0  0
   38.9750   34.3280   41.5630 O   0  0  0  0  0  0  0  0  0  0  0  0
   39.8560   34.2640   42.0960 H   0  0  0  0  0  0  0  0  0  0  0  0
   39.3460   29.3090   42.9110 O   0  0  0  0  0  0  0  0  0  0  0  0
   41.5250   28.0190   41.3160 H   0  0  0  0  0  0  0  0  0  0  0  0
   40.8740   28.8330   41.3050 N   0  0  0  0  0  0  0  0  0  0  0  0
   41.2690   29.8840   40.4210 C   0  0  0  0  0  2  0  0  0  0  0  0
   41.7760   31.0250   41.2700 C   0  0  0  0  0  2  0  0  0  0  0  0
   41.0250   30.8570   42.5680 C   0  0  0  0  0  2  0  0  0  0  0  0
   40.6300   29.3750   42.6140 C   0  0  1  0  0  3  0  0  0  0  0  0
  1  6  1  6  0  0  0
  1 28  1  0  0  0  0
  1  5  1  0  0  0  0
  2  3  1  0  0  0  0
  2  7  1  1  0  0  0
  2  1  1  0  0  0  0
  3  8  1  0  0  0  0
  3  4  1  0  0  0  0
  4  5  1  0  0  0  0
  5 11  1  0  0  0  0
  5 10  1  0  0  0  0
  9  3  1  0  0  0  0
 12  2  1  0  0  0  0
 14 13  2  6  0  0  0
 14 12  1  0  0  0  0
 14 15  1  0  0  0  0
 16 15  1  0  0  0  0
 17 22  1  0  0  0  0
 17 14  1  0  0  0  0
 18 26  1  0  0  0  0
 19 24  1  0  0  0  0
 19 18  2  0  0  0  0
 20 19  1  0  0  0  0
 21 20  2  0  0  0  0
 21 22  1  0  0  0  0
 22 23  2  0  0  0  0
 23 18  1  0  0  0  0
 25 20  1  0  0  0  0
 26 27  1  0  0  0  0
 30 29  1  0  0  0  0
 30 34  1  0  0  0  0
 31 32  1  0  0  0  0
 31 30  1  0  0  0  0
 32 33  1  0  0  0  0
 33 34  1  0  0  0  0
 34 28  1  6  0  0  0
M  END
>  <minimizedAffinity>
-5.19698191

$$$$
