
 OpenBabel03252508493D

 25 27  0  0  0  0  0  0  0  0999 V2000
   45.8400   34.1510   41.0120 C   0  0  0  0  0  0  0  0  0  0  0  0
   46.4660   34.7890   42.1040 C   0  0  0  0  0  0  0  0  0  0  0  0
   47.8080   35.1410   41.9490 C   0  0  0  0  0  0  0  0  0  0  0  0
   48.4250   34.8470   40.7610 N   0  0  0  0  0  0  0  0  0  0  0  0
   47.7900   34.2420   39.7590 C   0  0  0  0  0  0  0  0  0  0  0  0
   46.4940   33.8920   39.8830 N   0  0  0  0  0  0  0  0  0  0  0  0
   48.3180   35.6340   42.7710 H   0  0  0  0  0  0  0  0  0  0  0  0
   48.2700   34.0060   38.8170 H   0  0  0  0  0  0  0  0  0  0  0  0
   45.7160   35.0530   43.3200 C   0  0  0  0  0  0  0  0  0  0  0  0
   45.0740   36.2420   43.5720 C   0  0  0  0  0  0  0  0  0  0  0  0
   44.5100   36.0410   44.8170 C   0  0  0  0  0  0  0  0  0  0  0  0
   44.7930   34.8020   45.2900 N   0  0  0  0  0  0  0  0  0  0  0  0
   45.5240   34.2290   44.3650 N   0  0  0  0  0  0  0  0  0  0  0  0
   45.0020   37.1470   42.9660 H   0  0  0  0  0  0  0  0  0  0  0  0
   43.9070   36.7780   45.3640 H   0  0  0  0  0  0  0  0  0  0  0  0
   44.4650   34.4400   46.2180 H   0  0  0  0  0  0  0  0  0  0  0  0
   44.5180   33.8000   41.1540 O   0  0  0  0  0  0  0  0  0  0  0  0
   43.4450   34.4790   40.6390 C   0  0  0  0  0  0  0  0  0  0  0  0
   43.0480   35.6570   40.9150 O   0  0  0  0  0  0  0  0  0  0  0  0
   42.4290   34.1820   39.6800 N   0  0  0  0  0  0  0  0  0  0  0  0
   42.3450   35.0350   38.5090 C   0  0  0  0  0  2  0  0  0  0  0  0
   40.8530   34.9080   38.1910 C   0  0  0  0  0  2  0  0  0  0  0  0
   40.7430   33.3810   38.3130 C   0  0  0  0  0  2  0  0  0  0  0  0
   41.4290   33.1600   39.6430 C   0  0  0  0  0  3  0  0  0  0  0  0
   41.8540   32.1390   39.7530 H   0  0  0  0  0  0  0  0  0  0  0  0
  1 17  1  0  0  0  0
  1  2  1  0  0  0  0
  2  9  1  0  0  0  0
  3  2  2  0  0  0  0
  3  7  1  0  0  0  0
  4  3  1  0  0  0  0
  5  6  1  0  0  0  0
  5  4  2  0  0  0  0
  6  1  2  0  0  0  0
  8  5  1  0  0  0  0
  9 10  1  0  0  0  0
  9 13  2  0  0  0  0
 10 11  2  0  0  0  0
 11 12  1  0  0  0  0
 11 15  1  0  0  0  0
 12 16  1  0  0  0  0
 13 12  1  0  0  0  0
 14 10  1  0  0  0  0
 18 19  2  0  0  0  0
 18 17  1  0  0  0  0
 20 18  1  0  0  0  0
 21 20  1  0  0  0  0
 22 23  1  0  0  0  0
 22 21  1  0  0  0  0
 23 24  1  0  0  0  0
 24 20  1  0  0  0  0
 24 25  1  0  0  0  0
M  END
>  <minimizedAffinity>
-5.6098423

>  <minimizedRMSD>
0.494171023

$$$$
