
     RDKit          3D

 38 40  0  0  0  0  0  0  0  0999 V2000
   46.8944   34.6115   42.2292 N   0  0  0  0  0  0  0  0  0  0  0  0
   48.3312   34.7884   42.2629 C   0  0  0  0  0  0  0  0  0  0  0  0
   48.6638   35.5095   40.9633 C   0  0  0  0  0  0  0  0  0  0  0  0
   48.3338   34.6409   39.7768 C   0  0  0  0  0  0  0  0  0  0  0  0
   47.0793   33.8636   39.9068 C   0  0  0  0  0  0  0  0  0  0  0  0
   46.1830   34.2469   41.0353 C   0  0  1  0  0  0  0  0  0  0  0  0
   44.5071   35.9814   44.7713 C   0  0  0  0  0  0  0  0  0  0  0  0
   45.2319   35.8933   43.5671 C   0  0  0  0  0  0  0  0  0  0  0  0
   46.1092   34.7980   43.4138 C   0  0  0  0  0  0  0  0  0  0  0  0
   46.2006   33.8961   44.4375 N   0  0  0  0  0  0  0  0  0  0  0  0
   45.4752   34.0370   45.5731 C   0  0  0  0  0  0  0  0  0  0  0  0
   44.6254   35.0883   45.7342 N   0  0  0  0  0  0  0  0  0  0  0  0
   45.3361   33.1612   41.3067 O   0  0  0  0  0  0  0  0  0  0  0  0
   48.6488   35.4326   43.1062 H   0  0  0  0  0  0  0  0  0  0  0  0
   48.8216   33.8187   42.2281 H   0  0  0  0  0  0  0  0  0  0  0  0
   49.7668   35.6897   40.9873 H   0  0  0  0  0  0  0  0  0  0  0  0
   48.0894   36.4489   40.9746 H   0  0  0  0  0  0  0  0  0  0  0  0
   48.2715   35.3229   38.9020 H   0  0  0  0  0  0  0  0  0  0  0  0
   49.2112   33.9721   39.5374 H   0  0  0  0  0  0  0  0  0  0  0  0
   46.5127   33.9065   38.9487 H   0  0  0  0  0  0  0  0  0  0  0  0
   47.3731   32.7885   40.0885 H   0  0  0  0  0  0  0  0  0  0  0  0
   45.5425   35.0983   40.6928 H   0  0  0  0  0  0  0  0  0  0  0  0
   43.8604   36.8485   44.8053 H   0  0  0  0  0  0  0  0  0  0  0  0
   45.1683   36.6004   42.7499 H   0  0  0  0  0  0  0  0  0  0  0  0
   45.5443   33.3314   46.3782 H   0  0  0  0  0  0  0  0  0  0  0  0
   43.3558   35.4526   41.3230 H   0  0  0  0  0  0  0  0  0  0  0  0
   43.9895   34.8842   40.7286 N   0  0  0  0  0  0  0  0  0  0  0  0
   43.7286   34.9991   39.3255 C   0  0  0  0  0  0  0  0  0  0  0  0
   42.7617   33.8646   39.0628 C   0  0  0  0  0  0  0  0  0  0  0  0
   43.4306   32.7469   39.8622 C   0  0  0  0  0  0  0  0  0  0  0  0
   44.0038   33.4683   41.0736 C   0  0  1  0  0  0  0  0  0  0  0  0
   44.6597   34.8792   38.7339 H   0  0  0  0  0  0  0  0  0  0  0  0
   43.3173   35.9927   39.1016 H   0  0  0  0  0  0  0  0  0  0  0  0
   42.6598   33.6340   37.9966 H   0  0  0  0  0  0  0  0  0  0  0  0
   41.7983   34.1560   39.5357 H   0  0  0  0  0  0  0  0  0  0  0  0
   44.2935   32.4264   39.2693 H   0  0  0  0  0  0  0  0  0  0  0  0
   42.6915   31.9814   40.1058 H   0  0  0  0  0  0  0  0  0  0  0  0
   43.3588   33.3743   41.9555 H   0  0  0  0  0  0  0  0  0  0  0  0
  1  2  1  0
  1  9  1  0
  3  2  1  0
  4  5  1  0
  4  3  1  0
  5  6  1  0
  6 13  1  0
  6  1  1  0
  7 12  2  0
  8  7  1  0
  9  8  2  0
  9 10  1  0
 10 11  2  0
 11 12  1  0
  2 14  1  0
  2 15  1  0
  3 16  1  0
  3 17  1  0
  4 18  1  0
  4 19  1  0
  5 20  1  0
  5 21  1  0
  6 22  1  6
  7 23  1  0
  8 24  1  0
 11 25  1  0
 26 27  1  0
 27 28  1  0
 28 29  1  0
 29 30  1  0
 30 31  1  0
 31 27  1  0
 28 32  1  0
 28 33  1  0
 29 34  1  0
 29 35  1  0
 30 36  1  0
 30 37  1  0
 31 38  1  1
 13 31  1  0
M  ISO  8  14  13  15  13  16  13  17  13  18  13  19  13  20  13  21  13
M  ISO  5  22  13  23  14  24  14  25  14  26   5
M  END
>  <DihAtoms>  (1) 
5,12,30,29

>  <DihDeg>  (1) 
-129.89557561750823

$$$$
