
 OpenBabel03252502233D

 31 33  0  0  1  0  0  0  0  0999 V2000
   46.8000   34.5750   42.2750 N   0  0  0  0  0  0  0  0  0  0  0  0
   48.2470   34.6220   42.3030 C   0  0  0  0  0  0  0  0  0  0  0  0
   48.6360   35.3680   41.0320 C   0  0  0  0  0  0  0  0  0  0  0  0
   48.2230   34.5840   39.8130 C   0  0  0  0  0  0  0  0  0  0  0  0
   46.9040   33.9170   39.9210 C   0  0  0  0  0  0  0  0  0  0  0  0
   46.0530   34.3280   41.0730 C   0  0  1  0  0  0  0  0  0  0  0  0
   48.6270   35.1990   43.1690 H   0  0  0  0  0  0  0  0  0  0  0  0
   48.6500   33.6160   42.2210 H   0  0  0  0  0  0  0  0  0  0  0  0
   49.7500   35.4480   41.0530 H   0  0  0  0  0  0  0  0  0  0  0  0
   48.1470   36.3530   41.0900 H   0  0  0  0  0  0  0  0  0  0  0  0
   48.2170   35.3070   38.9690 H   0  0  0  0  0  0  0  0  0  0  0  0
   49.0350   33.8520   39.5360 H   0  0  0  0  0  0  0  0  0  0  0  0
   46.3390   34.0520   38.9720 H   0  0  0  0  0  0  0  0  0  0  0  0
   47.1030   32.8120   40.0540 H   0  0  0  0  0  0  0  0  0  0  0  0
   45.4880   35.2460   40.7750 H   0  0  0  0  0  0  0  0  0  0  0  0
   44.4710   35.9810   44.8500 C   0  0  0  0  0  0  0  0  0  0  0  0
   45.1690   35.8760   43.6320 C   0  0  0  0  0  0  0  0  0  0  0  0
   46.0420   34.7780   43.4750 C   0  0  0  0  0  0  0  0  0  0  0  0
   46.1570   33.8910   44.5090 N   0  0  0  0  0  0  0  0  0  0  0  0
   45.4570   34.0480   45.6580 C   0  0  0  0  0  0  0  0  0  0  0  0
   44.6100   35.1010   45.8230 N   0  0  0  0  0  0  0  0  0  0  0  0
   43.8250   36.8490   44.8870 H   0  0  0  0  0  0  0  0  0  0  0  0
   45.0860   36.5710   42.8070 H   0  0  0  0  0  0  0  0  0  0  0  0
   45.5440   33.3530   46.4710 H   0  0  0  0  0  0  0  0  0  0  0  0
   45.1140   33.3100   41.3070 O   0  0  0  0  0  0  0  0  0  0  0  0
   43.0850   31.7470   39.6920 H   0  0  0  0  0  0  0  0  0  0  0  0
   43.2800   32.1830   40.6130 N   0  0  0  0  0  0  0  0  0  0  0  0
   42.1160   32.3700   41.4250 C   0  0  0  0  0  2  0  0  0  0  0  0
   41.6660   33.7690   41.0630 C   0  0  0  0  0  2  0  0  0  0  0  0
   43.0110   34.4960   41.0670 C   0  0  0  0  0  2  0  0  0  0  0  0
   43.9800   33.4580   40.5220 C   0  0  1  0  0  3  0  0  0  0  0  0
  1  2  1  0  0  0  0
  1 18  1  0  0  0  0
  2  7  1  0  0  0  0
  3  9  1  0  0  0  0
  3 10  1  0  0  0  0
  3  2  1  0  0  0  0
  4  5  1  0  0  0  0
  4  3  1  0  0  0  0
  5 14  1  0  0  0  0
  5  6  1  0  0  0  0
  6 15  1  6  0  0  0
  6 25  1  0  0  0  0
  6  1  1  0  0  0  0
  8  2  1  0  0  0  0
 11  4  1  0  0  0  0
 12  4  1  0  0  0  0
 13  5  1  0  0  0  0
 16 22  1  0  0  0  0
 16 21  1  0  0  0  0
 17 16  2  0  0  0  0
 18 17  1  0  0  0  0
 18 19  2  0  0  0  0
 19 20  1  0  0  0  0
 20 21  2  0  0  0  0
 20 24  1  0  0  0  0
 23 17  1  0  0  0  0
 26 27  1  0  0  0  0
 27 28  1  0  0  0  0
 29 30  1  0  0  0  0
 29 28  1  0  0  0  0
 31 27  1  0  0  0  0
 31 30  1  0  0  0  0
 31 25  1  1  0  0  0
M  END
>  <minimizedAffinity>
-5.23361635

>  <minimizedRMSD>
0.561359227

$$$$
