
 OpenBabel03252500253D

 34 36  0  0  1  0  0  0  0  0999 V2000
   47.2140   30.1620   48.2170 C   0  0  2  0  0  0  0  0  0  0  0  0
   45.7660   30.3680   48.4320 C   0  0  2  0  0  0  0  0  0  0  0  0
   45.1340   29.4330   47.4640 C   0  0  0  0  0  0  0  0  0  0  0  0
   45.9880   28.3560   47.3030 O   0  0  0  0  0  0  0  0  0  0  0  0
   47.1710   28.6460   47.8970 C   0  0  0  0  0  0  0  0  0  0  0  0
   47.7880   30.5280   47.4190 H   0  0  0  0  0  0  0  0  0  0  0  0
   45.5920   30.0480   49.4960 H   0  0  0  0  0  0  0  0  0  0  0  0
   44.2510   28.9780   48.0100 H   0  0  0  0  0  0  0  0  0  0  0  0
   44.6750   29.8380   46.5690 H   0  0  0  0  0  0  0  0  0  0  0  0
   47.1550   28.1780   48.9230 H   0  0  0  0  0  0  0  0  0  0  0  0
   48.0690   28.3020   47.3860 H   0  0  0  0  0  0  0  0  0  0  0  0
   45.3630   31.6700   48.2460 O   0  0  0  0  0  0  0  0  0  0  0  0
   47.4920   32.9170   47.5240 O   0  0  0  0  0  0  0  0  0  0  0  0
   46.2010   32.3640   46.9860 P   0  0  1  0  0  0  0  0  0  0  0  0
   46.5600   31.1760   45.8320 O   0  0  0  0  0  0  0  0  0  0  0  0
   46.0150   31.3230   45.0200 H   0  0  0  0  0  0  0  0  0  0  0  0
   45.3400   33.6570   46.2720 O   0  0  0  0  0  0  0  0  0  0  0  0
   45.1840   35.7510   43.3940 C   0  0  0  0  0  0  0  0  0  0  0  0
   46.2510   35.2930   42.5660 C   0  0  0  0  0  0  0  0  0  0  0  0
   47.0240   34.2220   43.0630 C   0  0  0  0  0  0  0  0  0  0  0  0
   46.7040   33.7100   44.2710 N   0  0  0  0  0  0  0  0  0  0  0  0
   45.6810   34.1790   45.0190 C   0  0  0  0  0  0  0  0  0  0  0  0
   44.9300   35.2000   44.5690 N   0  0  0  0  0  0  0  0  0  0  0  0
   46.4860   35.7170   41.6100 H   0  0  0  0  0  0  0  0  0  0  0  0
   47.8510   33.8170   42.4960 H   0  0  0  0  0  0  0  0  0  0  0  0
   44.4380   36.7980   42.9000 O   0  0  0  0  0  0  0  0  0  0  0  0
   44.9770   37.6030   42.5450 H   0  0  0  0  0  0  0  0  0  0  0  0
   48.0050   30.4100   49.3020 O   0  0  0  0  0  0  0  0  0  0  0  0
   50.3840   32.0180   48.4600 H   0  0  0  0  0  0  0  0  0  0  0  0
   49.8200   31.7680   49.2990 N   0  0  0  0  0  0  0  0  0  0  0  0
   50.4890   31.9960   50.5410 C   0  0  0  0  0  2  0  0  0  0  0  0
   50.8760   30.6500   51.1030 C   0  0  0  0  0  2  0  0  0  0  0  0
   49.8350   29.7190   50.5300 C   0  0  0  0  0  2  0  0  0  0  0  0
   49.3240   30.4200   49.2640 C   0  0  1  0  0  3  0  0  0  0  0  0
  1  6  1  6  0  0  0
  1  2  1  0  0  0  0
  1 28  1  0  0  0  0
  2  7  1  1  0  0  0
  3  8  1  0  0  0  0
  3  2  1  0  0  0  0
  4  3  1  0  0  0  0
  4  5  1  0  0  0  0
  5  1  1  0  0  0  0
  5 10  1  0  0  0  0
  9  3  1  0  0  0  0
 11  5  1  0  0  0  0
 12  2  1  0  0  0  0
 14 13  2  1  0  0  0
 14 12  1  0  0  0  0
 15 14  1  0  0  0  0
 16 15  1  0  0  0  0
 17 14  1  0  0  0  0
 18 23  1  0  0  0  0
 19 20  1  0  0  0  0
 19 18  2  0  0  0  0
 20 21  2  0  0  0  0
 21 22  1  0  0  0  0
 22 17  1  0  0  0  0
 23 22  2  0  0  0  0
 24 19  1  0  0  0  0
 25 20  1  0  0  0  0
 26 18  1  0  0  0  0
 27 26  1  0  0  0  0
 29 30  1  0  0  0  0
 30 31  1  0  0  0  0
 31 32  1  0  0  0  0
 33 32  1  0  0  0  0
 34 30  1  0  0  0  0
 34 28  1  1  0  0  0
 34 33  1  0  0  0  0
M  END
>  <minimizedAffinity>
-5.05667782

>  <minimizedRMSD>
0.601697326

$$$$
