REMARK  Name = 
REMARK  3 active torsions:
REMARK  status: ('A' for Active; 'I' for Inactive)
REMARK    1  A    between atoms: N_1  and  C_9
REMARK    2  A    between atoms: C_6  and  O_13
REMARK    3  A    between atoms: O_13  and  C_31
REMARK                            x       y       z     vdW  Elec       q    Type
REMARK                         _______ _______ _______ _____ _____    ______ ____
ROOT
ATOM      1  N   UNL     1      46.894  34.611  42.229  0.00  0.00    +0.000 N 
ATOM      2  C   UNL     1      48.331  34.788  42.263  0.00  0.00    +0.000 C 
ATOM      3  C   UNL     1      48.664  35.510  40.963  0.00  0.00    +0.000 C 
ATOM      4  C   UNL     1      48.334  34.641  39.777  0.00  0.00    +0.000 C 
ATOM      5  C   UNL     1      47.079  33.864  39.907  0.00  0.00    +0.000 C 
ATOM      6  C   UNL     1      46.183  34.247  41.035  0.00  0.00    +0.000 C 
ATOM      7  H   UNL     1      48.649  35.433  43.106  0.00  0.00    +0.000 HD
ATOM      8  H   UNL     1      48.822  33.819  42.228  0.00  0.00    +0.000 HD
ATOM      9  H   UNL     1      49.767  35.690  40.987  0.00  0.00    +0.000 HD
ATOM     10  H   UNL     1      48.089  36.449  40.975  0.00  0.00    +0.000 HD
ATOM     11  H   UNL     1      48.272  35.323  38.902  0.00  0.00    +0.000 HD
ATOM     12  H   UNL     1      49.211  33.972  39.537  0.00  0.00    +0.000 HD
ATOM     13  H   UNL     1      46.513  33.907  38.949  0.00  0.00    +0.000 HD
ATOM     14  H   UNL     1      47.373  32.788  40.089  0.00  0.00    +0.000 HD
ATOM     15  H   UNL     1      45.542  35.098  40.693  0.00  0.00    +0.000 HD
ENDROOT
BRANCH   1  18
ATOM     16  C   UNL     1      44.507  35.981  44.771  0.00  0.00    +0.000 A 
ATOM     17  C   UNL     1      45.232  35.893  43.567  0.00  0.00    +0.000 A 
ATOM     18  C   UNL     1      46.109  34.798  43.414  0.00  0.00    +0.000 A 
ATOM     19  N   UNL     1      46.201  33.896  44.438  0.00  0.00    +0.000 NA
ATOM     20  C   UNL     1      45.475  34.037  45.573  0.00  0.00    +0.000 A 
ATOM     21  N   UNL     1      44.625  35.088  45.734  0.00  0.00    +0.000 NA
ATOM     22  H   UNL     1      43.860  36.849  44.805  0.00  0.00    +0.000 HD
ATOM     23  H   UNL     1      45.168  36.600  42.750  0.00  0.00    +0.000 HD
ATOM     24  H   UNL     1      45.544  33.331  46.378  0.00  0.00    +0.000 HD
ENDBRANCH   1  18
BRANCH   6  25
ATOM     25  O   UNL     1      45.336  33.161  41.307  0.00  0.00    +0.000 OA
BRANCH  25  31
ATOM     26  H   UNL     1      42.515  32.204  41.851  0.00  0.00    +0.000 HD
ATOM     27  N   UNL     1      43.268  32.845  42.166  0.00  0.00    +0.000 NA
ATOM     28  C   UNL     1      42.819  33.880  43.049  0.00  0.00    +0.000 C 
ATOM     29  C   UNL     1      42.495  35.018  42.106  0.00  0.00    +0.000 C 
ATOM     30  C   UNL     1      43.710  34.958  41.180  0.00  0.00    +0.000 C 
ATOM     31  C   UNL     1      44.004  33.468  41.074  0.00  0.00    +0.000 C 
ENDBRANCH  25  31
ENDBRANCH   6  25
TORSDOF 3
