
 OpenBabel03252502233D

 31 33  0  0  1  0  0  0  0  0999 V2000
   46.7630   34.5940   42.2230 N   0  0  0  0  0  0  0  0  0  0  0  0
   48.2090   34.6750   42.2430 C   0  0  0  0  0  0  0  0  0  0  0  0
   48.5770   35.3590   40.9320 C   0  0  0  0  0  0  0  0  0  0  0  0
   48.1790   34.5010   39.7590 C   0  0  0  0  0  0  0  0  0  0  0  0
   46.8760   33.8110   39.9090 C   0  0  0  0  0  0  0  0  0  0  0  0
   46.0180   34.2650   41.0400 C   0  0  1  0  0  0  0  0  0  0  0  0
   48.5770   35.3060   43.0760 H   0  0  0  0  0  0  0  0  0  0  0  0
   48.6340   33.6750   42.2150 H   0  0  0  0  0  0  0  0  0  0  0  0
   49.6900   35.4650   40.9440 H   0  0  0  0  0  0  0  0  0  0  0  0
   48.0660   36.3340   40.9380 H   0  0  0  0  0  0  0  0  0  0  0  0
   48.1540   35.1760   38.8770 H   0  0  0  0  0  0  0  0  0  0  0  0
   49.0070   33.7720   39.5190 H   0  0  0  0  0  0  0  0  0  0  0  0
   46.3050   33.8810   38.9550 H   0  0  0  0  0  0  0  0  0  0  0  0
   47.0990   32.7200   40.1000 H   0  0  0  0  0  0  0  0  0  0  0  0
   45.4320   35.1530   40.6940 H   0  0  0  0  0  0  0  0  0  0  0  0
   44.4720   36.1310   44.7580 C   0  0  0  0  0  0  0  0  0  0  0  0
   45.1760   35.9800   43.5470 C   0  0  0  0  0  0  0  0  0  0  0  0
   46.0040   34.8460   43.4130 C   0  0  0  0  0  0  0  0  0  0  0  0
   46.0730   33.9690   44.4600 N   0  0  0  0  0  0  0  0  0  0  0  0
   45.3700   34.1710   45.6000 C   0  0  0  0  0  0  0  0  0  0  0  0
   44.5670   35.2610   45.7430 N   0  0  0  0  0  0  0  0  0  0  0  0
   43.8620   37.0260   44.7760 H   0  0  0  0  0  0  0  0  0  0  0  0
   45.1290   36.6670   42.7120 H   0  0  0  0  0  0  0  0  0  0  0  0
   45.4210   33.4840   46.4240 H   0  0  0  0  0  0  0  0  0  0  0  0
   45.1030   33.2410   41.3320 O   0  0  0  0  0  0  0  0  0  0  0  0
   42.1460   32.6150   41.5030 H   0  0  0  0  0  0  0  0  0  0  0  0
   42.8730   33.3310   41.6930 N   0  0  0  0  0  0  0  0  0  0  0  0
   42.3500   34.6470   41.9070 C   0  0  0  0  0  2  0  0  0  0  0  0
   42.3740   35.2540   40.5200 C   0  0  0  0  0  2  0  0  0  0  0  0
   43.7540   34.7950   40.0470 C   0  0  0  0  0  2  0  0  0  0  0  0
   43.9010   33.4110   40.6630 C   0  0  1  0  0  3  0  0  0  0  0  0
  1  2  1  0  0  0  0
  1 18  1  0  0  0  0
  2  7  1  0  0  0  0
  3 10  1  0  0  0  0
  3  9  1  0  0  0  0
  3  2  1  0  0  0  0
  4  5  1  0  0  0  0
  4  3  1  0  0  0  0
  5 14  1  0  0  0  0
  5  6  1  0  0  0  0
  6 15  1  6  0  0  0
  6 25  1  0  0  0  0
  6  1  1  0  0  0  0
  8  2  1  0  0  0  0
 11  4  1  0  0  0  0
 12  4  1  0  0  0  0
 13  5  1  0  0  0  0
 16 22  1  0  0  0  0
 16 21  1  0  0  0  0
 17 16  2  0  0  0  0
 18 17  1  0  0  0  0
 18 19  2  0  0  0  0
 19 20  1  0  0  0  0
 20 21  2  0  0  0  0
 20 24  1  0  0  0  0
 23 17  1  0  0  0  0
 26 27  1  0  0  0  0
 27 28  1  0  0  0  0
 29 28  1  0  0  0  0
 30 29  1  0  0  0  0
 30 31  1  0  0  0  0
 31 25  1  1  0  0  0
 31 27  1  0  0  0  0
M  END
>  <minimizedAffinity>
-5.22935772

>  <minimizedRMSD>
0.742002547

$$$$
