
 OpenBabel03252501323D

 21 22  0  0  0  0  0  0  0  0999 V2000
   45.0420   35.0800   42.7710 C   0  0  0  0  0  0  0  0  0  0  0  0
   45.1380   34.9060   44.1400 C   0  0  0  0  0  0  0  0  0  0  0  0
   46.3140   34.3390   44.6100 C   0  0  0  0  0  0  0  0  0  0  0  0
   47.2630   34.0060   43.7090 N   0  0  0  0  0  0  0  0  0  0  0  0
   47.1330   34.1910   42.3790 C   0  0  0  0  0  0  0  0  0  0  0  0
   46.0020   34.7400   41.8810 N   0  0  0  0  0  0  0  0  0  0  0  0
   46.3860   34.2070   45.6660 H   0  0  0  0  0  0  0  0  0  0  0  0
   47.9750   33.8740   41.7900 H   0  0  0  0  0  0  0  0  0  0  0  0
   43.0750   34.5800   41.5840 C   0  0  0  0  0  0  0  0  0  0  0  0
   43.5780   33.4460   41.8370 O   0  0  0  0  0  0  0  0  0  0  0  0
   43.8960   35.6530   42.0840 N   0  0  0  0  0  0  0  0  0  0  0  0
   43.6440   36.6380   41.9380 H   0  0  0  0  0  0  0  0  0  0  0  0
   41.8620   34.8390   40.9000 N   0  0  0  0  0  0  0  0  0  0  0  0
   41.3210   34.2570   39.6640 C   0  0  0  0  0  0  0  0  0  0  0  0
   40.6780   35.5250   39.0890 C   0  0  0  0  0  0  0  0  0  0  0  0
   39.8450   35.9010   40.3070 C   0  0  0  0  0  0  0  0  0  0  0  0
   40.9080   35.8140   41.3920 C   0  0  0  0  0  0  0  0  0  0  0  0
   40.4900   35.5640   42.3670 H   0  0  0  0  0  0  0  0  0  0  0  0
   44.0360   35.3200   44.9130 N   0  0  0  0  0  0  0  0  0  0  0  0
   43.6580   36.2790   44.8050 H   0  0  0  0  0  0  0  0  0  0  0  0
   43.5020   34.7850   45.6240 H   0  0  0  0  0  0  0  0  0  0  0  0
  1  2  1  0  0  0  0
  2  3  2  0  0  0  0
  2 19  1  0  0  0  0
  3  7  1  0  0  0  0
  4  3  1  0  0  0  0
  5  4  2  0  0  0  0
  6  5  1  0  0  0  0
  6  1  2  0  0  0  0
  8  5  1  0  0  0  0
  9 10  2  0  0  0  0
  9 11  1  0  0  0  0
 11  1  1  0  0  0  0
 12 11  1  0  0  0  0
 13 17  1  0  0  0  0
 13  9  1  0  0  0  0
 14 13  1  0  0  0  0
 15 14  1  0  0  0  0
 15 16  1  0  0  0  0
 16 17  1  0  0  0  0
 17 18  1  0  0  0  0
 19 21  1  0  0  0  0
 20 19  1  0  0  0  0
M  END
>  <minimizedAffinity>
-4.84790325

>  <minimizedRMSD>
2.60997963

$$$$
