REMARK  Name = 
REMARK  8 active torsions:
REMARK  status: ('A' for Active; 'I' for Inactive)
REMARK    1  A    between atoms: P_2  and  O_3
REMARK    2  A    between atoms: P_2  and  O_4
REMARK    3  A    between atoms: P_2  and  O_12
REMARK    4  A    between atoms: O_4  and  C_9
REMARK    5  A    between atoms: C_5  and  O_11
REMARK    6  A    between atoms: O_12  and  C_14
REMARK    7  A    between atoms: C_13  and  O_18
REMARK    8  A    between atoms: O_18  and  C_34
REMARK                            x       y       z     vdW  Elec       q    Type
REMARK                         _______ _______ _______ _____ _____    ______ ____
ROOT
ATOM      1  C   UNL     1      46.779  30.000  48.070  0.00  0.00    +0.000 C 
ATOM      2  C   UNL     1      45.332  30.291  48.156  0.00  0.00    +0.000 C 
ATOM      3  C   UNL     1      44.746  29.464  47.068  0.00  0.00    +0.000 C 
ATOM      4  O   UNL     1      45.544  28.343  46.917  0.00  0.00    +0.000 OA
ATOM      5  C   UNL     1      46.676  28.514  47.643  0.00  0.00    +0.000 C 
ATOM      6  H   UNL     1      47.453  30.375  47.360  0.00  0.00    +0.000 HD
ATOM      7  H   UNL     1      45.031  29.917  49.173  0.00  0.00    +0.000 HD
ATOM      8  H   UNL     1      43.785  29.037  47.492  0.00  0.00    +0.000 HD
ATOM      9  H   UNL     1      44.407  29.955  46.163  0.00  0.00    +0.000 HD
ATOM     10  H   UNL     1      46.526  27.984  48.627  0.00  0.00    +0.000 HD
ATOM     11  H   UNL     1      47.598  28.142  47.200  0.00  0.00    +0.000 HD
ENDROOT
BRANCH   2  12
ATOM     12  O   UNL     1      45.032  31.627  48.022  0.00  0.00    +0.000 OA
BRANCH  12  14
ATOM     13  O   UNL     1      47.316  32.693  47.516  0.00  0.00    +0.000 OA
ATOM     14  P   UNL     1      46.007  32.330  46.871  0.00  0.00    +0.000 P 
BRANCH  14  15
ATOM     15  O   UNL     1      46.306  31.212  45.633  0.00  0.00    +0.000 OA
ATOM     16  H   UNL     1      45.825  31.485  44.812  0.00  0.00    +0.000 HD
ENDBRANCH  14  15
BRANCH  14  17
ATOM     17  O   UNL     1      45.326  33.764  46.236  0.00  0.00    +0.000 OA
BRANCH  17  22
ATOM     18  C   UNL     1      45.215  35.827  43.334  0.00  0.00    +0.000 A 
ATOM     19  C   UNL     1      46.272  35.337  42.512  0.00  0.00    +0.000 A 
ATOM     20  C   UNL     1      47.022  34.255  43.021  0.00  0.00    +0.000 A 
ATOM     21  N   UNL     1      46.691  33.764  44.235  0.00  0.00    +0.000 NA
ATOM     22  C   UNL     1      45.678  34.264  44.977  0.00  0.00    +0.000 A 
ATOM     23  N   UNL     1      44.949  35.295  44.515  0.00  0.00    +0.000 NA
ATOM     24  H   UNL     1      46.516  35.744  41.551  0.00  0.00    +0.000 HD
ATOM     25  H   UNL     1      47.840  33.826  42.459  0.00  0.00    +0.000 HD
BRANCH  18  26
ATOM     26  O   UNL     1      44.492  36.884  42.827  0.00  0.00    +0.000 OA
ATOM     27  H   UNL     1      45.048  37.673  42.463  0.00  0.00    +0.000 HD
ENDBRANCH  18  26
ENDBRANCH  17  22
ENDBRANCH  14  17
ENDBRANCH  12  14
ENDBRANCH   2  12
BRANCH   1  28
ATOM     28  O   UNL     1      47.469  30.125  49.242  0.00  0.00    +0.000 OA
BRANCH  28  34
ATOM     29  H   UNL     1      49.209  32.526  48.842  0.00  0.00    +0.000 HD
ATOM     30  N   UNL     1      48.728  31.977  49.586  0.00  0.00    +0.000 NA
ATOM     31  C   UNL     1      49.237  32.209  50.901  0.00  0.00    +0.000 C 
ATOM     32  C   UNL     1      50.028  30.987  51.303  0.00  0.00    +0.000 C 
ATOM     33  C   UNL     1      49.377  29.874  50.520  0.00  0.00    +0.000 C 
ATOM     34  C   UNL     1      48.710  30.565  49.322  0.00  0.00    +0.000 C 
ENDBRANCH  28  34
ENDBRANCH   1  28
TORSDOF 8
