
 OpenBabel03252502233D

 31 33  0  0  1  0  0  0  0  0999 V2000
   46.7110   34.5690   42.1870 N   0  0  0  0  0  0  0  0  0  0  0  0
   48.1580   34.6240   42.1900 C   0  0  0  0  0  0  0  0  0  0  0  0
   48.5240   35.2920   40.8700 C   0  0  0  0  0  0  0  0  0  0  0  0
   48.0970   34.4330   39.7080 C   0  0  0  0  0  0  0  0  0  0  0  0
   46.7840   33.7680   39.8770 C   0  0  0  0  0  0  0  0  0  0  0  0
   45.9470   34.2460   41.0140 C   0  0  1  0  0  0  0  0  0  0  0  0
   48.5470   35.2540   43.0140 H   0  0  0  0  0  0  0  0  0  0  0  0
   48.5650   33.6160   42.1640 H   0  0  0  0  0  0  0  0  0  0  0  0
   49.6390   35.3780   40.8690 H   0  0  0  0  0  0  0  0  0  0  0  0
   48.0310   36.2760   40.8750 H   0  0  0  0  0  0  0  0  0  0  0  0
   48.0750   35.1020   38.8210 H   0  0  0  0  0  0  0  0  0  0  0  0
   48.9090   33.6870   39.4640 H   0  0  0  0  0  0  0  0  0  0  0  0
   46.2040   33.8420   38.9290 H   0  0  0  0  0  0  0  0  0  0  0  0
   46.9890   32.6740   40.0740 H   0  0  0  0  0  0  0  0  0  0  0  0
   45.3730   35.1420   40.6680 H   0  0  0  0  0  0  0  0  0  0  0  0
   44.4770   36.1670   44.7350 C   0  0  0  0  0  0  0  0  0  0  0  0
   45.1640   35.9940   43.5180 C   0  0  0  0  0  0  0  0  0  0  0  0
   45.9690   34.8430   43.3830 C   0  0  0  0  0  0  0  0  0  0  0  0
   46.0330   33.9720   44.4350 N   0  0  0  0  0  0  0  0  0  0  0  0
   45.3460   34.1950   45.5820 C   0  0  0  0  0  0  0  0  0  0  0  0
   44.5660   35.3010   45.7260 N   0  0  0  0  0  0  0  0  0  0  0  0
   43.8850   37.0730   44.7540 H   0  0  0  0  0  0  0  0  0  0  0  0
   45.1220   36.6760   42.6790 H   0  0  0  0  0  0  0  0  0  0  0  0
   45.3930   33.5130   46.4090 H   0  0  0  0  0  0  0  0  0  0  0  0
   45.0170   33.2410   41.3240 O   0  0  0  0  0  0  0  0  0  0  0  0
   42.0550   32.6340   41.4970 H   0  0  0  0  0  0  0  0  0  0  0  0
   42.7880   33.3450   41.6880 N   0  0  0  0  0  0  0  0  0  0  0  0
   42.2750   34.6640   41.9040 C   0  0  0  0  0  2  0  0  0  0  0  0
   42.3010   35.2740   40.5190 C   0  0  0  0  0  2  0  0  0  0  0  0
   43.6760   34.8070   40.0420 C   0  0  0  0  0  2  0  0  0  0  0  0
   43.8150   33.4200   40.6570 C   0  0  1  0  0  3  0  0  0  0  0  0
  1  2  1  0  0  0  0
  1 18  1  0  0  0  0
  2  7  1  0  0  0  0
  3 10  1  0  0  0  0
  3  2  1  0  0  0  0
  4  5  1  0  0  0  0
  4  3  1  0  0  0  0
  5 14  1  0  0  0  0
  5  6  1  0  0  0  0
  6 15  1  6  0  0  0
  6 25  1  0  0  0  0
  6  1  1  0  0  0  0
  8  2  1  0  0  0  0
  9  3  1  0  0  0  0
 11  4  1  0  0  0  0
 12  4  1  0  0  0  0
 13  5  1  0  0  0  0
 16 22  1  0  0  0  0
 16 21  1  0  0  0  0
 17 16  2  0  0  0  0
 18 17  1  0  0  0  0
 18 19  2  0  0  0  0
 19 20  1  0  0  0  0
 20 21  2  0  0  0  0
 20 24  1  0  0  0  0
 23 17  1  0  0  0  0
 26 27  1  0  0  0  0
 27 28  1  0  0  0  0
 29 28  1  0  0  0  0
 30 29  1  0  0  0  0
 30 31  1  0  0  0  0
 31 25  1  1  0  0  0
 31 27  1  0  0  0  0
M  END
>  <minimizedAffinity>
-5.22003412

>  <minimizedRMSD>
0.49236089

$$$$
