
 OpenBabel03242520203D

 32 34  0  0  0  0  0  0  0  0999 V2000
   37.2910   26.7250   42.1730 C   0  0  0  0  0  0  0  0  0  0  0  0
   36.5610   27.6130   41.3480 C   0  0  0  0  0  0  0  0  0  0  0  0
   36.6610   28.9750   41.5650 C   0  0  0  0  0  0  0  0  0  0  0  0
   37.4800   29.3840   42.5880 N   0  0  0  0  0  0  0  0  0  0  0  0
   38.1630   28.4920   43.3560 C   0  0  0  0  0  0  0  0  0  0  0  0
   38.0700   27.1800   43.1510 N   0  0  0  0  0  0  0  0  0  0  0  0
   35.9270   27.2530   40.5540 H   0  0  0  0  0  0  0  0  0  0  0  0
   38.7880   28.8910   44.1460 H   0  0  0  0  0  0  0  0  0  0  0  0
   37.1710   25.2620   41.9410 C   0  0  0  0  0  0  0  0  0  0  0  0
   38.2590   24.7420   40.9310 C   0  0  0  0  0  0  0  0  0  0  0  0
   38.1350   24.3000   42.3250 C   0  0  0  0  0  0  0  0  0  0  0  0
   36.1270   24.9990   41.5950 H   0  0  0  0  0  0  0  0  0  0  0  0
   39.0960   25.4220   40.7140 H   0  0  0  0  0  0  0  0  0  0  0  0
   37.8780   24.1120   40.1110 H   0  0  0  0  0  0  0  0  0  0  0  0
   37.8250   23.2500   42.5370 H   0  0  0  0  0  0  0  0  0  0  0  0
   38.9310   24.6130   43.0620 H   0  0  0  0  0  0  0  0  0  0  0  0
   35.9140   29.9260   40.7090 C   0  0  0  0  0  0  0  0  0  0  0  0
   35.9260   29.5060   39.6770 H   0  0  0  0  0  0  0  0  0  0  0  0
   34.8540   29.9550   41.0310 H   0  0  0  0  0  0  0  0  0  0  0  0
   36.5710   31.2880   40.7280 C   0  0  0  0  0  0  0  0  0  0  0  0
   35.9120   32.0600   40.3170 H   0  0  0  0  0  0  0  0  0  0  0  0
   36.7240   31.5210   41.8210 H   0  0  0  0  0  0  0  0  0  0  0  0
   38.4450   32.5450   39.8140 C   0  0  0  0  0  0  0  0  0  0  0  0
   37.9300   33.6760   40.0360 O   0  0  0  0  0  0  0  0  0  0  0  0
   37.8870   31.2840   40.1270 N   0  0  0  0  0  0  0  0  0  0  0  0
   38.3770   30.3920   39.9420 H   0  0  0  0  0  0  0  0  0  0  0  0
   39.7390   32.5080   39.1740 N   0  0  0  0  0  0  0  0  0  0  0  0
   40.3140   31.4880   38.2870 C   0  0  0  0  0  2  0  0  0  0  0  0
   41.1300   32.2610   37.2740 C   0  0  0  0  0  2  0  0  0  0  0  0
   41.5290   33.5260   37.9750 C   0  0  0  0  0  2  0  0  0  0  0  0
   40.7960   33.5180   39.2790 C   0  0  0  0  0  3  0  0  0  0  0  0
   40.2750   34.5150   39.3740 H   0  0  0  0  0  0  0  0  0  0  0  0
  1  6  1  0  0  0  0
  2  3  1  0  0  0  0
  2  1  2  0  0  0  0
  3  4  2  0  0  0  0
  4  5  1  0  0  0  0
  5  8  1  0  0  0  0
  6  5  2  0  0  0  0
  7  2  1  0  0  0  0
  9  1  1  0  0  0  0
  9 11  1  0  0  0  0
 10  9  1  0  0  0  0
 10 11  1  0  0  0  0
 11 15  1  0  0  0  0
 11 16  1  0  0  0  0
 12  9  1  0  0  0  0
 13 10  1  0  0  0  0
 14 10  1  0  0  0  0
 17 20  1  0  0  0  0
 17 19  1  0  0  0  0
 17  3  1  0  0  0  0
 18 17  1  0  0  0  0
 20 22  1  0  0  0  0
 21 20  1  0  0  0  0
 23 24  2  0  0  0  0
 23 25  1  0  0  0  0
 25 20  1  0  0  0  0
 26 25  1  0  0  0  0
 27 31  1  0  0  0  0
 27 23  1  0  0  0  0
 28 27  1  0  0  0  0
 29 30  1  0  0  0  0
 29 28  1  0  0  0  0
 30 31  1  0  0  0  0
 31 32  1  0  0  0  0
M  END
>  <minimizedAffinity>
-4.99192476

$$$$

 OpenBabel03242520203D

 32 34  0  0  0  0  0  0  0  0999 V2000
   37.3210   29.2410   42.0620 C   0  0  0  0  0  0  0  0  0  0  0  0
   36.8920   30.1930   41.1080 C   0  0  0  0  0  0  0  0  0  0  0  0
   37.7030   31.2780   40.8240 C   0  0  0  0  0  0  0  0  0  0  0  0
   38.8950   31.3580   41.5000 N   0  0  0  0  0  0  0  0  0  0  0  0
   39.2650   30.4160   42.4090 C   0  0  0  0  0  0  0  0  0  0  0  0
   38.4880   29.3710   42.6870 N   0  0  0  0  0  0  0  0  0  0  0  0
   35.9480   30.0950   40.5970 H   0  0  0  0  0  0  0  0  0  0  0  0
   40.2200   30.5500   42.9040 H   0  0  0  0  0  0  0  0  0  0  0  0
   36.4410   28.0840   42.3700 C   0  0  0  0  0  0  0  0  0  0  0  0
   37.0820   26.7240   41.9080 C   0  0  0  0  0  0  0  0  0  0  0  0
   36.7460   27.0580   43.2970 C   0  0  0  0  0  0  0  0  0  0  0  0
   35.4160   28.2320   41.9160 H   0  0  0  0  0  0  0  0  0  0  0  0
   38.1520   26.7450   41.6530 H   0  0  0  0  0  0  0  0  0  0  0  0
   36.4230   26.0680   41.3170 H   0  0  0  0  0  0  0  0  0  0  0  0
   35.9250   26.5010   43.8070 H   0  0  0  0  0  0  0  0  0  0  0  0
   37.5880   27.2380   44.0270 H   0  0  0  0  0  0  0  0  0  0  0  0
   37.2820   32.2850   39.8220 C   0  0  0  0  0  0  0  0  0  0  0  0
   36.2680   31.9830   39.4720 H   0  0  0  0  0  0  0  0  0  0  0  0
   37.1690   33.2690   40.3170 H   0  0  0  0  0  0  0  0  0  0  0  0
   38.2490   32.3170   38.6610 C   0  0  0  0  0  0  0  0  0  0  0  0
   38.4780   31.3090   38.2990 H   0  0  0  0  0  0  0  0  0  0  0  0
   37.6960   32.8540   37.8380 H   0  0  0  0  0  0  0  0  0  0  0  0
   40.5730   32.8310   38.1490 C   0  0  0  0  0  0  0  0  0  0  0  0
   40.6610   31.9940   37.2080 O   0  0  0  0  0  0  0  0  0  0  0  0
   39.4310   33.1050   38.9360 N   0  0  0  0  0  0  0  0  0  0  0  0
   39.4190   33.8270   39.6760 H   0  0  0  0  0  0  0  0  0  0  0  0
   41.7500   33.6020   38.4770 N   0  0  0  0  0  0  0  0  0  0  0  0
   42.1710   34.1610   39.7690 C   0  0  0  0  0  2  0  0  0  0  0  0
   43.6780   34.0280   39.7830 C   0  0  0  0  0  2  0  0  0  0  0  0
   44.0870   34.0440   38.3400 C   0  0  0  0  0  2  0  0  0  0  0  0
   42.8150   34.0070   37.5550 C   0  0  0  0  0  3  0  0  0  0  0  0
   42.9140   33.1760   36.7980 H   0  0  0  0  0  0  0  0  0  0  0  0
  1  9  1  0  0  0  0
  1  6  1  0  0  0  0
  2  1  2  0  0  0  0
  3  2  1  0  0  0  0
  3  4  2  0  0  0  0
  4  5  1  0  0  0  0
  5  6  2  0  0  0  0
  5  8  1  0  0  0  0
  7  2  1  0  0  0  0
  9 11  1  0  0  0  0
 10  9  1  0  0  0  0
 10 11  1  0  0  0  0
 11 15  1  0  0  0  0
 11 16  1  0  0  0  0
 12  9  1  0  0  0  0
 13 10  1  0  0  0  0
 14 10  1  0  0  0  0
 17 19  1  0  0  0  0
 17  3  1  0  0  0  0
 18 17  1  0  0  0  0
 20 25  1  0  0  0  0
 20 17  1  0  0  0  0
 21 20  1  0  0  0  0
 22 20  1  0  0  0  0
 23 27  1  0  0  0  0
 23 25  1  0  0  0  0
 24 23  2  0  0  0  0
 25 26  1  0  0  0  0
 27 28  1  0  0  0  0
 28 29  1  0  0  0  0
 30 29  1  0  0  0  0
 31 30  1  0  0  0  0
 31 27  1  0  0  0  0
 32 31  1  0  0  0  0
M  END
>  <minimizedAffinity>
-4.95751572

$$$$

 OpenBabel03242520203D

 32 34  0  0  0  0  0  0  0  0999 V2000
   38.0170   24.3280   41.3270 C   0  0  0  0  0  0  0  0  0  0  0  0
   37.1220   25.1340   42.0680 C   0  0  0  0  0  0  0  0  0  0  0  0
   37.5620   26.3460   42.5720 C   0  0  0  0  0  0  0  0  0  0  0  0
   38.8650   26.6910   42.3130 N   0  0  0  0  0  0  0  0  0  0  0  0
   39.6890   25.8810   41.5940 C   0  0  0  0  0  0  0  0  0  0  0  0
   39.2710   24.7150   41.1070 N   0  0  0  0  0  0  0  0  0  0  0  0
   36.1050   24.8280   42.2510 H   0  0  0  0  0  0  0  0  0  0  0  0
   40.7050   26.2220   41.4320 H   0  0  0  0  0  0  0  0  0  0  0  0
   37.5410   23.0230   40.7970 C   0  0  0  0  0  0  0  0  0  0  0  0
   36.9720   23.1600   39.3370 C   0  0  0  0  0  0  0  0  0  0  0  0
   38.1240   22.3300   39.7090 C   0  0  0  0  0  0  0  0  0  0  0  0
   36.7800   22.5640   41.4960 H   0  0  0  0  0  0  0  0  0  0  0  0
   37.2040   24.0930   38.8030 H   0  0  0  0  0  0  0  0  0  0  0  0
   35.9850   22.7010   39.1710 H   0  0  0  0  0  0  0  0  0  0  0  0
   38.0390   21.2200   39.6420 H   0  0  0  0  0  0  0  0  0  0  0  0
   39.1510   22.6500   39.3670 H   0  0  0  0  0  0  0  0  0  0  0  0
   36.6420   27.2130   43.3440 C   0  0  0  0  0  0  0  0  0  0  0  0
   35.7040   27.2960   42.7470 H   0  0  0  0  0  0  0  0  0  0  0  0
   36.3730   26.7100   44.2930 H   0  0  0  0  0  0  0  0  0  0  0  0
   37.2520   28.5800   43.5550 C   0  0  0  0  0  0  0  0  0  0  0  0
   36.8670   29.0580   44.4610 H   0  0  0  0  0  0  0  0  0  0  0  0
   38.3510   28.3850   43.7170 H   0  0  0  0  0  0  0  0  0  0  0  0
   38.3160   30.1600   42.0380 C   0  0  0  0  0  0  0  0  0  0  0  0
   39.4330   30.1330   42.6260 O   0  0  0  0  0  0  0  0  0  0  0  0
   37.1590   29.4230   42.3830 N   0  0  0  0  0  0  0  0  0  0  0  0
   36.2800   29.4710   41.8390 H   0  0  0  0  0  0  0  0  0  0  0  0
   38.1790   31.0260   40.8910 N   0  0  0  0  0  0  0  0  0  0  0  0
   36.9890   31.7220   40.3810 C   0  0  0  0  0  2  0  0  0  0  0  0
   37.5000   33.0470   39.8610 C   0  0  0  0  0  2  0  0  0  0  0  0
   38.9290   32.7950   39.4820 C   0  0  0  0  0  2  0  0  0  0  0  0
   39.2380   31.4090   39.9530 C   0  0  0  0  0  3  0  0  0  0  0  0
   40.1910   31.4670   40.5540 H   0  0  0  0  0  0  0  0  0  0  0  0
  1  2  1  0  0  0  0
  2  7  1  0  0  0  0
  2  3  2  0  0  0  0
  3 17  1  0  0  0  0
  4  3  1  0  0  0  0
  5  4  2  0  0  0  0
  6  1  2  0  0  0  0
  6  5  1  0  0  0  0
  8  5  1  0  0  0  0
  9  1  1  0  0  0  0
  9 12  1  0  0  0  0
 10 11  1  0  0  0  0
 10  9  1  0  0  0  0
 11  9  1  0  0  0  0
 13 10  1  0  0  0  0
 14 10  1  0  0  0  0
 15 11  1  0  0  0  0
 16 11  1  0  0  0  0
 17 20  1  0  0  0  0
 17 19  1  0  0  0  0
 18 17  1  0  0  0  0
 20 22  1  0  0  0  0
 20 21  1  0  0  0  0
 23 25  1  0  0  0  0
 23 24  2  0  0  0  0
 25 20  1  0  0  0  0
 26 25  1  0  0  0  0
 27 23  1  0  0  0  0
 28 27  1  0  0  0  0
 29 28  1  0  0  0  0
 30 29  1  0  0  0  0
 30 31  1  0  0  0  0
 31 32  1  0  0  0  0
 31 27  1  0  0  0  0
M  END
>  <minimizedAffinity>
-4.93043852

$$$$

 OpenBabel03242520203D

 32 34  0  0  0  0  0  0  0  0999 V2000
   36.9900   25.5750   40.5640 C   0  0  0  0  0  0  0  0  0  0  0  0
   37.2250   26.1900   41.8170 C   0  0  0  0  0  0  0  0  0  0  0  0
   36.9190   27.5300   41.9800 C   0  0  0  0  0  0  0  0  0  0  0  0
   36.3960   28.1860   40.8940 N   0  0  0  0  0  0  0  0  0  0  0  0
   36.1880   27.5510   39.7080 C   0  0  0  0  0  0  0  0  0  0  0  0
   36.4810   26.2630   39.5460 N   0  0  0  0  0  0  0  0  0  0  0  0
   37.6370   25.6410   42.6470 H   0  0  0  0  0  0  0  0  0  0  0  0
   35.7740   28.1360   38.8960 H   0  0  0  0  0  0  0  0  0  0  0  0
   37.3300   24.1380   40.3930 C   0  0  0  0  0  0  0  0  0  0  0  0
   38.7740   23.9490   39.7960 C   0  0  0  0  0  0  0  0  0  0  0  0
   38.3420   23.4550   41.1090 C   0  0  0  0  0  0  0  0  0  0  0  0
   36.5510   23.6180   39.7610 H   0  0  0  0  0  0  0  0  0  0  0  0
   39.4310   24.8300   39.8060 H   0  0  0  0  0  0  0  0  0  0  0  0
   38.8420   23.2620   38.9380 H   0  0  0  0  0  0  0  0  0  0  0  0
   38.2630   22.3550   41.2790 H   0  0  0  0  0  0  0  0  0  0  0  0
   38.7600   23.9480   42.0350 H   0  0  0  0  0  0  0  0  0  0  0  0
   37.1460   28.1950   43.2840 C   0  0  0  0  0  0  0  0  0  0  0  0
   36.2330   28.7970   43.5000 H   0  0  0  0  0  0  0  0  0  0  0  0
   37.2190   27.4280   44.0790 H   0  0  0  0  0  0  0  0  0  0  0  0
   38.3610   29.0920   43.2180 C   0  0  0  0  0  0  0  0  0  0  0  0
   38.5870   29.5390   44.1920 H   0  0  0  0  0  0  0  0  0  0  0  0
   39.2160   28.4040   42.9550 H   0  0  0  0  0  0  0  0  0  0  0  0
   39.3350   31.0070   42.0720 C   0  0  0  0  0  0  0  0  0  0  0  0
   40.3540   31.0670   42.8160 O   0  0  0  0  0  0  0  0  0  0  0  0
   38.2830   30.0660   42.1500 N   0  0  0  0  0  0  0  0  0  0  0  0
   37.4880   30.0560   41.4880 H   0  0  0  0  0  0  0  0  0  0  0  0
   39.2070   31.9930   41.0250 N   0  0  0  0  0  0  0  0  0  0  0  0
   37.9950   32.5670   40.4250 C   0  0  0  0  0  2  0  0  0  0  0  0
   38.3410   34.0130   40.1440 C   0  0  0  0  0  2  0  0  0  0  0  0
   39.8290   34.0320   39.9600 C   0  0  0  0  0  2  0  0  0  0  0  0
   40.3010   32.6570   40.3100 C   0  0  0  0  0  3  0  0  0  0  0  0
   41.1430   32.7720   41.0510 H   0  0  0  0  0  0  0  0  0  0  0  0
  1  2  1  0  0  0  0
  2  3  2  0  0  0  0
  2  7  1  0  0  0  0
  3 17  1  0  0  0  0
  4  3  1  0  0  0  0
  5  4  2  0  0  0  0
  6  5  1  0  0  0  0
  6  1  2  0  0  0  0
  8  5  1  0  0  0  0
  9  1  1  0  0  0  0
  9 11  1  0  0  0  0
 10 13  1  0  0  0  0
 10  9  1  0  0  0  0
 10 11  1  0  0  0  0
 11 15  1  0  0  0  0
 11 16  1  0  0  0  0
 12  9  1  0  0  0  0
 14 10  1  0  0  0  0
 17 18  1  0  0  0  0
 17 19  1  0  0  0  0
 20 17  1  0  0  0  0
 20 21  1  0  0  0  0
 22 20  1  0  0  0  0
 23 25  1  0  0  0  0
 23 24  2  0  0  0  0
 25 20  1  0  0  0  0
 26 25  1  0  0  0  0
 27 23  1  0  0  0  0
 28 27  1  0  0  0  0
 29 28  1  0  0  0  0
 30 29  1  0  0  0  0
 30 31  1  0  0  0  0
 31 27  1  0  0  0  0
 31 32  1  0  0  0  0
M  END
>  <minimizedAffinity>
-4.77134943

$$$$

 OpenBabel03242520203D

 32 34  0  0  0  0  0  0  0  0999 V2000
   36.9220   27.0640   41.5080 C   0  0  0  0  0  0  0  0  0  0  0  0
   36.2680   28.1430   40.8680 C   0  0  0  0  0  0  0  0  0  0  0  0
   36.0210   28.0730   39.5080 C   0  0  0  0  0  0  0  0  0  0  0  0
   36.4350   26.9380   38.8580 N   0  0  0  0  0  0  0  0  0  0  0  0
   37.0610   25.9250   39.5170 C   0  0  0  0  0  0  0  0  0  0  0  0
   37.3020   25.9880   40.8250 N   0  0  0  0  0  0  0  0  0  0  0  0
   35.9570   29.0190   41.4140 H   0  0  0  0  0  0  0  0  0  0  0  0
   37.3600   25.0620   38.9350 H   0  0  0  0  0  0  0  0  0  0  0  0
   37.1930   27.1500   42.9670 C   0  0  0  0  0  0  0  0  0  0  0  0
   38.6520   27.6600   43.2600 C   0  0  0  0  0  0  0  0  0  0  0  0
   37.4270   28.3520   43.6770 C   0  0  0  0  0  0  0  0  0  0  0  0
   36.9950   26.1560   43.4670 H   0  0  0  0  0  0  0  0  0  0  0  0
   39.1950   28.1110   42.4160 H   0  0  0  0  0  0  0  0  0  0  0  0
   39.2260   27.0590   43.9820 H   0  0  0  0  0  0  0  0  0  0  0  0
   37.1820   28.4170   44.7640 H   0  0  0  0  0  0  0  0  0  0  0  0
   37.1590   29.3250   43.1730 H   0  0  0  0  0  0  0  0  0  0  0  0
   35.3290   29.1850   38.8150 C   0  0  0  0  0  0  0  0  0  0  0  0
   34.4270   28.7470   38.3290 H   0  0  0  0  0  0  0  0  0  0  0  0
   34.9660   29.9150   39.5650 H   0  0  0  0  0  0  0  0  0  0  0  0
   36.2330   29.8090   37.7770 C   0  0  0  0  0  0  0  0  0  0  0  0
   36.9910   29.1010   37.4240 H   0  0  0  0  0  0  0  0  0  0  0  0
   35.5560   30.0410   36.9050 H   0  0  0  0  0  0  0  0  0  0  0  0
   38.1210   31.0480   38.6880 C   0  0  0  0  0  0  0  0  0  0  0  0
   38.8840   30.0440   38.7530 O   0  0  0  0  0  0  0  0  0  0  0  0
   36.7920   31.0730   38.2050 N   0  0  0  0  0  0  0  0  0  0  0  0
   36.2300   31.9400   38.1530 H   0  0  0  0  0  0  0  0  0  0  0  0
   38.6350   32.3150   39.1500 N   0  0  0  0  0  0  0  0  0  0  0  0
   37.9210   33.4520   39.7480 C   0  0  0  0  0  2  0  0  0  0  0  0
   38.8690   34.0100   40.7870 C   0  0  0  0  0  2  0  0  0  0  0  0
   40.2410   33.6470   40.3020 C   0  0  0  0  0  2  0  0  0  0  0  0
   40.0330   32.7560   39.1180 C   0  0  0  0  0  3  0  0  0  0  0  0
   40.6620   31.8340   39.2810 H   0  0  0  0  0  0  0  0  0  0  0  0
  1  9  1  0  0  0  0
  2  7  1  0  0  0  0
  2  1  1  0  0  0  0
  3  2  2  0  0  0  0
  4  3  1  0  0  0  0
  4  5  2  0  0  0  0
  5  6  1  0  0  0  0
  6  1  2  0  0  0  0
  8  5  1  0  0  0  0
  9 10  1  0  0  0  0
  9 12  1  0  0  0  0
  9 11  1  0  0  0  0
 10 11  1  0  0  0  0
 10 14  1  0  0  0  0
 11 15  1  0  0  0  0
 13 10  1  0  0  0  0
 16 11  1  0  0  0  0
 17  3  1  0  0  0  0
 17 19  1  0  0  0  0
 18 17  1  0  0  0  0
 20 25  1  0  0  0  0
 20 17  1  0  0  0  0
 21 20  1  0  0  0  0
 22 20  1  0  0  0  0
 23 24  2  0  0  0  0
 23 27  1  0  0  0  0
 25 23  1  0  0  0  0
 26 25  1  0  0  0  0
 27 28  1  0  0  0  0
 28 29  1  0  0  0  0
 30 29  1  0  0  0  0
 31 27  1  0  0  0  0
 31 32  1  0  0  0  0
 31 30  1  0  0  0  0
M  END
>  <minimizedAffinity>
-4.74332905

$$$$

 OpenBabel03242520203D

 32 34  0  0  0  0  0  0  0  0999 V2000
   37.5380   24.6390   41.3260 C   0  0  0  0  0  0  0  0  0  0  0  0
   37.3570   25.7250   42.2150 C   0  0  0  0  0  0  0  0  0  0  0  0
   38.4680   26.3500   42.7530 C   0  0  0  0  0  0  0  0  0  0  0  0
   39.6970   25.8660   42.3790 N   0  0  0  0  0  0  0  0  0  0  0  0
   39.8200   24.8180   41.5190 C   0  0  0  0  0  0  0  0  0  0  0  0
   38.7550   24.2130   41.0000 N   0  0  0  0  0  0  0  0  0  0  0  0
   36.3740   26.0760   42.4850 H   0  0  0  0  0  0  0  0  0  0  0  0
   40.8240   24.4920   41.2730 H   0  0  0  0  0  0  0  0  0  0  0  0
   36.3400   23.9660   40.7590 C   0  0  0  0  0  0  0  0  0  0  0  0
   36.0100   24.4830   39.3110 C   0  0  0  0  0  0  0  0  0  0  0  0
   36.3520   23.0950   39.6430 C   0  0  0  0  0  0  0  0  0  0  0  0
   35.4530   24.0830   41.4520 H   0  0  0  0  0  0  0  0  0  0  0  0
   36.7950   25.0640   38.8050 H   0  0  0  0  0  0  0  0  0  0  0  0
   34.9610   24.7730   39.1410 H   0  0  0  0  0  0  0  0  0  0  0  0
   35.5730   22.3030   39.5410 H   0  0  0  0  0  0  0  0  0  0  0  0
   37.3480   22.6890   39.3010 H   0  0  0  0  0  0  0  0  0  0  0  0
   38.3070   27.4950   43.6790 C   0  0  0  0  0  0  0  0  0  0  0  0
   38.2460   27.0680   44.7070 H   0  0  0  0  0  0  0  0  0  0  0  0
   39.2180   28.1230   43.6480 H   0  0  0  0  0  0  0  0  0  0  0  0
   37.0480   28.2670   43.3560 C   0  0  0  0  0  0  0  0  0  0  0  0
   36.3200   27.6460   42.8230 H   0  0  0  0  0  0  0  0  0  0  0  0
   36.6020   28.5260   44.3590 H   0  0  0  0  0  0  0  0  0  0  0  0
   37.0140   29.5930   41.3150 C   0  0  0  0  0  0  0  0  0  0  0  0
   36.5040   28.6810   40.6060 O   0  0  0  0  0  0  0  0  0  0  0  0
   37.3160   29.5250   42.6950 N   0  0  0  0  0  0  0  0  0  0  0  0
   37.7090   30.3230   43.2220 H   0  0  0  0  0  0  0  0  0  0  0  0
   37.3340   30.8460   40.6720 N   0  0  0  0  0  0  0  0  0  0  0  0
   38.3930   31.8150   40.9870 C   0  0  0  0  0  2  0  0  0  0  0  0
   38.8500   32.3470   39.6460 C   0  0  0  0  0  2  0  0  0  0  0  0
   37.6640   32.2020   38.7400 C   0  0  0  0  0  2  0  0  0  0  0  0
   36.6420   31.4420   39.5250 C   0  0  0  0  0  3  0  0  0  0  0  0
   36.2980   30.5830   38.8790 H   0  0  0  0  0  0  0  0  0  0  0  0
  1  2  1  0  0  0  0
  2  7  1  0  0  0  0
  2  3  2  0  0  0  0
  3 17  1  0  0  0  0
  4  3  1  0  0  0  0
  5  4  2  0  0  0  0
  6  1  2  0  0  0  0
  6  5  1  0  0  0  0
  8  5  1  0  0  0  0
  9  1  1  0  0  0  0
  9 12  1  0  0  0  0
 10 11  1  0  0  0  0
 10  9  1  0  0  0  0
 11  9  1  0  0  0  0
 13 10  1  0  0  0  0
 14 10  1  0  0  0  0
 15 11  1  0  0  0  0
 16 11  1  0  0  0  0
 17 18  1  0  0  0  0
 19 17  1  0  0  0  0
 20 17  1  0  0  0  0
 20 22  1  0  0  0  0
 21 20  1  0  0  0  0
 23 25  1  0  0  0  0
 24 23  2  0  0  0  0
 25 26  1  0  0  0  0
 25 20  1  0  0  0  0
 27 28  1  0  0  0  0
 27 23  1  0  0  0  0
 29 28  1  0  0  0  0
 30 31  1  0  0  0  0
 30 29  1  0  0  0  0
 31 27  1  0  0  0  0
 32 31  1  0  0  0  0
M  END
>  <minimizedAffinity>
-4.74246836

$$$$

 OpenBabel03242520203D

 32 34  0  0  0  0  0  0  0  0999 V2000
   36.9170   30.7690   40.8040 C   0  0  0  0  0  0  0  0  0  0  0  0
   37.5600   30.1950   41.9270 C   0  0  0  0  0  0  0  0  0  0  0  0
   37.1610   28.9460   42.3680 C   0  0  0  0  0  0  0  0  0  0  0  0
   36.1480   28.3330   41.6730 N   0  0  0  0  0  0  0  0  0  0  0  0
   35.5610   28.9250   40.5980 C   0  0  0  0  0  0  0  0  0  0  0  0
   35.9400   30.1270   40.1690 N   0  0  0  0  0  0  0  0  0  0  0  0
   38.3520   30.7080   42.4470 H   0  0  0  0  0  0  0  0  0  0  0  0
   34.7670   28.3800   40.1020 H   0  0  0  0  0  0  0  0  0  0  0  0
   37.3430   32.1150   40.3410 C   0  0  0  0  0  0  0  0  0  0  0  0
   38.4590   32.0260   39.2370 C   0  0  0  0  0  0  0  0  0  0  0  0
   37.1350   32.6260   39.0380 C   0  0  0  0  0  0  0  0  0  0  0  0
   37.6770   32.7490   41.2160 H   0  0  0  0  0  0  0  0  0  0  0  0
   38.6160   31.0410   38.7720 H   0  0  0  0  0  0  0  0  0  0  0  0
   39.3410   32.6640   39.4050 H   0  0  0  0  0  0  0  0  0  0  0  0
   37.0560   33.7270   38.8730 H   0  0  0  0  0  0  0  0  0  0  0  0
   36.3960   32.0930   38.3720 H   0  0  0  0  0  0  0  0  0  0  0  0
   37.8230   28.3190   43.5360 C   0  0  0  0  0  0  0  0  0  0  0  0
   38.3950   29.1250   44.0510 H   0  0  0  0  0  0  0  0  0  0  0  0
   37.0530   27.9670   44.2500 H   0  0  0  0  0  0  0  0  0  0  0  0
   38.7580   27.2170   43.0890 C   0  0  0  0  0  0  0  0  0  0  0  0
   39.5250   27.5930   42.4030 H   0  0  0  0  0  0  0  0  0  0  0  0
   39.2810   26.8810   44.0300 H   0  0  0  0  0  0  0  0  0  0  0  0
   38.6650   25.3710   41.5050 C   0  0  0  0  0  0  0  0  0  0  0  0
   39.7740   25.6410   40.9640 O   0  0  0  0  0  0  0  0  0  0  0  0
   38.0560   26.0590   42.5800 N   0  0  0  0  0  0  0  0  0  0  0  0
   37.1550   25.7660   42.9940 H   0  0  0  0  0  0  0  0  0  0  0  0
   37.9210   24.2470   40.9880 N   0  0  0  0  0  0  0  0  0  0  0  0
   36.4690   24.0270   40.9470 C   0  0  0  0  0  2  0  0  0  0  0  0
   36.2180   23.3020   39.6420 C   0  0  0  0  0  2  0  0  0  0  0  0
   37.4950   22.5750   39.3450 C   0  0  0  0  0  2  0  0  0  0  0  0
   38.4770   23.0380   40.3730 C   0  0  0  0  0  3  0  0  0  0  0  0
   39.4080   23.3590   39.8240 H   0  0  0  0  0  0  0  0  0  0  0  0
  1  2  1  0  0  0  0
  2  3  2  0  0  0  0
  2  7  1  0  0  0  0
  3 17  1  0  0  0  0
  4  3  1  0  0  0  0
  5  4  2  0  0  0  0
  6  5  1  0  0  0  0
  6  1  2  0  0  0  0
  8  5  1  0  0  0  0
  9  1  1  0  0  0  0
  9 12  1  0  0  0  0
 10 14  1  0  0  0  0
 10  9  1  0  0  0  0
 11 10  1  0  0  0  0
 11  9  1  0  0  0  0
 13 10  1  0  0  0  0
 15 11  1  0  0  0  0
 16 11  1  0  0  0  0
 17 18  1  0  0  0  0
 17 19  1  0  0  0  0
 20 17  1  0  0  0  0
 20 22  1  0  0  0  0
 21 20  1  0  0  0  0
 23 25  1  0  0  0  0
 24 23  2  0  0  0  0
 25 26  1  0  0  0  0
 25 20  1  0  0  0  0
 27 23  1  0  0  0  0
 28 27  1  0  0  0  0
 29 28  1  0  0  0  0
 30 29  1  0  0  0  0
 30 31  1  0  0  0  0
 31 27  1  0  0  0  0
 32 31  1  0  0  0  0
M  END
>  <minimizedAffinity>
-4.69526911

$$$$

 OpenBabel03242520203D

 32 34  0  0  0  0  0  0  0  0999 V2000
   37.5270   26.0600   42.5850 C   0  0  0  0  0  0  0  0  0  0  0  0
   38.9160   26.3270   42.5510 C   0  0  0  0  0  0  0  0  0  0  0  0
   39.3740   27.5690   42.9560 C   0  0  0  0  0  0  0  0  0  0  0  0
   38.4320   28.4750   43.3720 N   0  0  0  0  0  0  0  0  0  0  0  0
   37.1060   28.1710   43.3880 C   0  0  0  0  0  0  0  0  0  0  0  0
   36.6590   26.9790   42.9990 N   0  0  0  0  0  0  0  0  0  0  0  0
   39.6250   25.5890   42.2160 H   0  0  0  0  0  0  0  0  0  0  0  0
   36.4230   28.9400   43.7280 H   0  0  0  0  0  0  0  0  0  0  0  0
   37.0400   24.7280   42.1390 C   0  0  0  0  0  0  0  0  0  0  0  0
   36.7190   24.7100   40.5990 C   0  0  0  0  0  0  0  0  0  0  0  0
   37.7300   23.8690   41.2510 C   0  0  0  0  0  0  0  0  0  0  0  0
   36.1450   24.4060   42.7510 H   0  0  0  0  0  0  0  0  0  0  0  0
   37.1040   25.5520   40.0050 H   0  0  0  0  0  0  0  0  0  0  0  0
   35.7380   24.2910   40.3270 H   0  0  0  0  0  0  0  0  0  0  0  0
   37.5710   22.7660   41.3000 H   0  0  0  0  0  0  0  0  0  0  0  0
   38.8200   24.0820   41.0490 H   0  0  0  0  0  0  0  0  0  0  0  0
   40.8240   27.8720   42.9390 C   0  0  0  0  0  0  0  0  0  0  0  0
   41.1670   27.8600   43.9990 H   0  0  0  0  0  0  0  0  0  0  0  0
   41.3640   27.0560   42.4190 H   0  0  0  0  0  0  0  0  0  0  0  0
   41.0760   29.2290   42.3220 C   0  0  0  0  0  0  0  0  0  0  0  0
   41.0090   30.0290   43.0670 H   0  0  0  0  0  0  0  0  0  0  0  0
   42.1450   29.1910   41.9630 H   0  0  0  0  0  0  0  0  0  0  0  0
   39.7620   30.7850   40.9880 C   0  0  0  0  0  0  0  0  0  0  0  0
   39.9770   31.7760   41.7410 O   0  0  0  0  0  0  0  0  0  0  0  0
   40.2630   29.4730   41.1500 N   0  0  0  0  0  0  0  0  0  0  0  0
   40.0700   28.7120   40.4780 H   0  0  0  0  0  0  0  0  0  0  0  0
   38.9180   30.9870   39.8350 N   0  0  0  0  0  0  0  0  0  0  0  0
   38.0300   30.0380   39.1480 C   0  0  0  0  0  2  0  0  0  0  0  0
   36.8360   30.8600   38.7140 C   0  0  0  0  0  2  0  0  0  0  0  0
   37.3560   32.2580   38.5600 C   0  0  0  0  0  2  0  0  0  0  0  0
   38.7610   32.2290   39.0710 C   0  0  0  0  0  3  0  0  0  0  0  0
   38.8630   33.0730   39.8130 H   0  0  0  0  0  0  0  0  0  0  0  0
  1  6  1  0  0  0  0
  2  1  2  0  0  0  0
  2  3  1  0  0  0  0
  3  4  2  0  0  0  0
  4  5  1  0  0  0  0
  5  8  1  0  0  0  0
  6  5  2  0  0  0  0
  7  2  1  0  0  0  0
  9  1  1  0  0  0  0
  9 12  1  0  0  0  0
 10 11  1  0  0  0  0
 10  9  1  0  0  0  0
 11 15  1  0  0  0  0
 11  9  1  0  0  0  0
 13 10  1  0  0  0  0
 14 10  1  0  0  0  0
 16 11  1  0  0  0  0
 17  3  1  0  0  0  0
 17 18  1  0  0  0  0
 19 17  1  0  0  0  0
 20 17  1  0  0  0  0
 20 21  1  0  0  0  0
 22 20  1  0  0  0  0
 23 25  1  0  0  0  0
 23 24  2  0  0  0  0
 25 20  1  0  0  0  0
 26 25  1  0  0  0  0
 27 23  1  0  0  0  0
 28 27  1  0  0  0  0
 29 28  1  0  0  0  0
 30 29  1  0  0  0  0
 30 31  1  0  0  0  0
 31 32  1  0  0  0  0
 31 27  1  0  0  0  0
M  END
>  <minimizedAffinity>
-4.66703081

$$$$

 OpenBabel03242520203D

 32 34  0  0  0  0  0  0  0  0999 V2000
   36.8530   30.1700   40.3140 C   0  0  0  0  0  0  0  0  0  0  0  0
   37.0870   31.5470   40.5460 C   0  0  0  0  0  0  0  0  0  0  0  0
   37.2250   32.4000   39.4650 C   0  0  0  0  0  0  0  0  0  0  0  0
   37.1230   31.8430   38.2150 N   0  0  0  0  0  0  0  0  0  0  0  0
   36.8970   30.5130   38.0420 C   0  0  0  0  0  0  0  0  0  0  0  0
   36.7640   29.6870   39.0780 N   0  0  0  0  0  0  0  0  0  0  0  0
   37.1610   31.9460   41.5440 H   0  0  0  0  0  0  0  0  0  0  0  0
   36.8300   30.1470   37.0240 H   0  0  0  0  0  0  0  0  0  0  0  0
   36.7160   29.2570   41.4780 C   0  0  0  0  0  0  0  0  0  0  0  0
   38.0190   28.4070   41.7100 C   0  0  0  0  0  0  0  0  0  0  0  0
   37.4600   29.3580   42.6780 C   0  0  0  0  0  0  0  0  0  0  0  0
   35.8070   28.5950   41.3600 H   0  0  0  0  0  0  0  0  0  0  0  0
   38.9240   28.7380   41.1780 H   0  0  0  0  0  0  0  0  0  0  0  0
   37.8600   27.3250   41.8360 H   0  0  0  0  0  0  0  0  0  0  0  0
   37.0360   28.9730   43.6350 H   0  0  0  0  0  0  0  0  0  0  0  0
   38.0190   30.3190   42.8750 H   0  0  0  0  0  0  0  0  0  0  0  0
   37.4610   33.8470   39.6800 C   0  0  0  0  0  0  0  0  0  0  0  0
   37.3860   34.3350   38.6820 H   0  0  0  0  0  0  0  0  0  0  0  0
   36.6440   34.2630   40.3020 H   0  0  0  0  0  0  0  0  0  0  0  0
   38.8310   34.0790   40.2770 C   0  0  0  0  0  0  0  0  0  0  0  0
   38.8450   34.9630   40.9220 H   0  0  0  0  0  0  0  0  0  0  0  0
   39.0180   33.1790   40.9310 H   0  0  0  0  0  0  0  0  0  0  0  0
   40.7120   32.9390   39.2330 C   0  0  0  0  0  0  0  0  0  0  0  0
   40.6120   31.9000   39.9440 O   0  0  0  0  0  0  0  0  0  0  0  0
   39.8820   34.0830   39.2820 N   0  0  0  0  0  0  0  0  0  0  0  0
   40.0030   34.8910   38.6490 H   0  0  0  0  0  0  0  0  0  0  0  0
   41.7800   32.9900   38.2620 N   0  0  0  0  0  0  0  0  0  0  0  0
   42.5180   34.1510   37.7450 C   0  0  0  0  0  2  0  0  0  0  0  0
   43.9370   33.6620   37.5530 C   0  0  0  0  0  2  0  0  0  0  0  0
   43.8150   32.1860   37.3200 C   0  0  0  0  0  2  0  0  0  0  0  0
   42.3760   31.8520   37.5570 C   0  0  0  0  0  3  0  0  0  0  0  0
   42.3490   30.9830   38.2750 H   0  0  0  0  0  0  0  0  0  0  0  0
  1  2  1  0  0  0  0
  1  9  1  0  0  0  0
  2  7  1  0  0  0  0
  3 17  1  0  0  0  0
  3  2  2  0  0  0  0
  4  3  1  0  0  0  0
  5  4  2  0  0  0  0
  5  6  1  0  0  0  0
  6  1  2  0  0  0  0
  8  5  1  0  0  0  0
  9 10  1  0  0  0  0
  9 11  1  0  0  0  0
 10 14  1  0  0  0  0
 10 11  1  0  0  0  0
 11 16  1  0  0  0  0
 11 15  1  0  0  0  0
 12  9  1  0  0  0  0
 13 10  1  0  0  0  0
 17 20  1  0  0  0  0
 17 19  1  0  0  0  0
 18 17  1  0  0  0  0
 20 21  1  0  0  0  0
 20 22  1  0  0  0  0
 23 25  1  0  0  0  0
 23 24  2  0  0  0  0
 25 20  1  0  0  0  0
 26 25  1  0  0  0  0
 27 23  1  0  0  0  0
 28 27  1  0  0  0  0
 29 28  1  0  0  0  0
 30 29  1  0  0  0  0
 30 31  1  0  0  0  0
 31 27  1  0  0  0  0
 31 32  1  0  0  0  0
M  END
>  <minimizedAffinity>
-4.64060163

$$$$
