
 OpenBabel03252500253D

 34 36  0  0  1  0  0  0  0  0999 V2000
   47.6430   30.0880   48.1940 C   0  0  2  0  0  0  0  0  0  0  0  0
   46.1910   29.9860   47.9340 C   0  0  2  0  0  0  0  0  0  0  0  0
   46.1180   29.1980   46.6750 C   0  0  0  0  0  0  0  0  0  0  0  0
   47.2120   28.3500   46.6470 O   0  0  0  0  0  0  0  0  0  0  0  0
   48.0590   28.7000   47.6460 C   0  0  0  0  0  0  0  0  0  0  0  0
   48.3240   30.7180   47.7070 H   0  0  0  0  0  0  0  0  0  0  0  0
   45.7890   29.4090   48.8110 H   0  0  0  0  0  0  0  0  0  0  0  0
   45.2470   28.4860   46.8100 H   0  0  0  0  0  0  0  0  0  0  0  0
   45.8650   29.7090   45.7530 H   0  0  0  0  0  0  0  0  0  0  0  0
   47.8490   28.0160   48.5180 H   0  0  0  0  0  0  0  0  0  0  0  0
   49.1230   28.6410   47.4230 H   0  0  0  0  0  0  0  0  0  0  0  0
   45.5650   31.2070   47.8290 O   0  0  0  0  0  0  0  0  0  0  0  0
   47.4840   32.9110   47.6780 O   0  0  0  0  0  0  0  0  0  0  0  0
   46.4380   32.2250   46.8430 P   0  0  1  0  0  0  0  0  0  0  0  0
   47.2150   31.3130   45.6450 O   0  0  0  0  0  0  0  0  0  0  0  0
   46.7910   31.4830   44.7670 H   0  0  0  0  0  0  0  0  0  0  0  0
   45.4590   33.4370   46.1380 O   0  0  0  0  0  0  0  0  0  0  0  0
   45.2340   35.6940   43.3910 C   0  0  0  0  0  0  0  0  0  0  0  0
   46.3470   35.3580   42.5660 C   0  0  0  0  0  0  0  0  0  0  0  0
   47.1760   34.3080   43.0160 C   0  0  0  0  0  0  0  0  0  0  0  0
   46.8620   33.7010   44.1810 N   0  0  0  0  0  0  0  0  0  0  0  0
   45.7940   34.0570   44.9290 C   0  0  0  0  0  0  0  0  0  0  0  0
   44.9890   35.0550   44.5230 N   0  0  0  0  0  0  0  0  0  0  0  0
   46.5760   35.8540   41.6440 H   0  0  0  0  0  0  0  0  0  0  0  0
   48.0400   33.9920   42.4470 H   0  0  0  0  0  0  0  0  0  0  0  0
   44.4340   36.7210   42.9420 O   0  0  0  0  0  0  0  0  0  0  0  0
   44.9280   37.5790   42.6520 H   0  0  0  0  0  0  0  0  0  0  0  0
   47.9910   30.2190   49.5080 O   0  0  0  0  0  0  0  0  0  0  0  0
   50.0050   30.0410   51.7140 H   0  0  0  0  0  0  0  0  0  0  0  0
   49.8100   29.6900   50.7530 N   0  0  0  0  0  0  0  0  0  0  0  0
   50.9580   29.1740   50.0770 C   0  0  0  0  0  2  0  0  0  0  0  0
   51.3520   30.1760   49.0200 C   0  0  0  0  0  2  0  0  0  0  0  0
   50.0500   30.8590   48.6810 C   0  0  0  0  0  2  0  0  0  0  0  0
   49.1630   30.6660   49.9180 C   0  0  1  0  0  3  0  0  0  0  0  0
  1  6  1  6  0  0  0
  1 28  1  0  0  0  0
  2  1  1  0  0  0  0
  2  7  1  1  0  0  0
  3  8  1  0  0  0  0
  3  2  1  0  0  0  0
  4  3  1  0  0  0  0
  4  5  1  0  0  0  0
  5  1  1  0  0  0  0
  5 10  1  0  0  0  0
  9  3  1  0  0  0  0
 11  5  1  0  0  0  0
 12  2  1  0  0  0  0
 14 13  2  1  0  0  0
 14 12  1  0  0  0  0
 15 14  1  0  0  0  0
 16 15  1  0  0  0  0
 17 14  1  0  0  0  0
 18 23  1  0  0  0  0
 19 20  1  0  0  0  0
 19 18  2  0  0  0  0
 20 21  2  0  0  0  0
 21 22  1  0  0  0  0
 22 17  1  0  0  0  0
 23 22  2  0  0  0  0
 24 19  1  0  0  0  0
 25 20  1  0  0  0  0
 26 18  1  0  0  0  0
 27 26  1  0  0  0  0
 30 29  1  0  0  0  0
 31 30  1  0  0  0  0
 32 31  1  0  0  0  0
 33 32  1  0  0  0  0
 33 34  1  0  0  0  0
 34 28  1  6  0  0  0
 34 30  1  0  0  0  0
M  END
>  <minimizedAffinity>
-4.7344203

>  <minimizedRMSD>
1.2647295

$$$$
