
 OpenBabel03242512103D

 30 32  0  0  1  0  0  0  0  0999 V2000
   40.6960   31.0370   38.8630 C   0  0  1  0  0  0  0  0  0  0  0  0
   41.0590   31.9480   40.1030 C   0  0  0  0  0  0  0  0  0  0  0  0
   39.6820   31.7390   39.6420 C   0  0  2  0  0  0  0  0  0  0  0  0
   40.8710   29.9690   39.0620 H   0  0  0  0  0  0  0  0  0  0  0  0
   41.6260   32.8720   39.8780 H   0  0  0  0  0  0  0  0  0  0  0  0
   41.4510   31.4010   40.9800 H   0  0  0  0  0  0  0  0  0  0  0  0
   39.1220   32.4530   39.0210 H   0  0  0  0  0  0  0  0  0  0  0  0
   41.2080   31.6170   37.5910 C   0  0  0  0  0  0  0  0  0  0  0  0
   40.4700   32.3850   36.9840 O   0  0  0  0  0  0  0  0  0  0  0  0
   43.5940   32.0830   37.2930 C   0  0  0  0  0  0  0  0  0  0  0  0
   42.4910   31.3420   37.0370 C   0  0  0  0  0  0  0  0  0  0  0  0
   42.6470   30.2270   36.1650 C   0  0  0  0  0  0  0  0  0  0  0  0
   43.8540   29.9370   35.6270 N   0  0  0  0  0  0  0  0  0  0  0  0
   44.9350   30.7170   35.9180 C   0  0  0  0  0  0  0  0  0  0  0  0
   44.8000   31.7550   36.7260 N   0  0  0  0  0  0  0  0  0  0  0  0
   43.4350   32.9270   37.9640 H   0  0  0  0  0  0  0  0  0  0  0  0
   41.8540   29.5550   35.8840 H   0  0  0  0  0  0  0  0  0  0  0  0
   45.9430   30.5890   35.5540 H   0  0  0  0  0  0  0  0  0  0  0  0
   38.8840   31.0480   40.5480 O   0  0  0  0  0  0  0  0  0  0  0  0
   36.9000   31.0200   38.9020 O   0  0  0  0  0  0  0  0  0  0  0  0
   37.2840   31.5510   40.2690 P   0  0  2  0  0  0  0  0  0  0  0  0
   37.0790   33.1980   40.3810 O   0  0  0  0  0  0  0  0  0  0  0  0
   36.7730   33.4760   41.2960 H   0  0  0  0  0  0  0  0  0  0  0  0
   36.2710   30.7060   41.3790 O   0  0  0  0  0  0  0  0  0  0  0  0
   37.4300   30.1170   43.7230 H   0  0  0  0  0  0  0  0  0  0  0  0
   37.0130   29.3540   43.1820 N   0  0  0  0  0  0  0  0  0  0  0  0
   37.7480   28.1010   43.2290 C   0  0  0  0  0  2  0  0  0  0  0  0
   37.0690   27.2770   42.1370 C   0  0  0  0  0  2  0  0  0  0  0  0
   36.2330   28.2800   41.3310 C   0  0  0  0  0  2  0  0  0  0  0  0
   36.9230   29.5690   41.7600 C   0  0  1  0  0  3  0  0  0  0  0  0
  1  4  1  1  0  0  0
  1  3  1  0  0  0  0
  1  2  1  0  0  0  0
  2  6  1  0  0  0  0
  3  7  1  6  0  0  0
  3  2  1  0  0  0  0
  3 19  1  0  0  0  0
  5  2  1  0  0  0  0
  8  1  1  0  0  0  0
  9  8  2  0  0  0  0
 10 16  1  0  0  0  0
 11 10  1  0  0  0  0
 11  8  1  0  0  0  0
 12 11  2  0  0  0  0
 13 14  2  0  0  0  0
 13 12  1  0  0  0  0
 14 15  1  0  0  0  0
 15 10  2  0  0  0  0
 17 12  1  0  0  0  0
 18 14  1  0  0  0  0
 21 20  2  6  0  0  0
 21 22  1  0  0  0  0
 21 19  1  0  0  0  0
 21 24  1  0  0  0  0
 22 23  1  0  0  0  0
 26 27  1  0  0  0  0
 26 25  1  0  0  0  0
 28 27  1  0  0  0  0
 29 30  1  0  0  0  0
 29 28  1  0  0  0  0
 30 24  1  1  0  0  0
 30 26  1  0  0  0  0
M  END
>  <minimizedAffinity>
-5.20040989

$$$$

 OpenBabel03242512103D

 30 32  0  0  1  0  0  0  0  0999 V2000
   37.4000   28.8100   41.1210 C   0  0  1  0  0  0  0  0  0  0  0  0
   35.8220   28.8940   41.0820 C   0  0  0  0  0  0  0  0  0  0  0  0
   36.6860   30.0770   41.0210 C   0  0  2  0  0  0  0  0  0  0  0  0
   37.8200   28.3630   40.2070 H   0  0  0  0  0  0  0  0  0  0  0  0
   35.2960   28.5900   42.0070 H   0  0  0  0  0  0  0  0  0  0  0  0
   35.3600   28.4820   40.1660 H   0  0  0  0  0  0  0  0  0  0  0  0
   36.9040   30.7300   41.8780 H   0  0  0  0  0  0  0  0  0  0  0  0
   37.8890   28.3190   42.4400 C   0  0  0  0  0  0  0  0  0  0  0  0
   37.7600   29.0670   43.4030 O   0  0  0  0  0  0  0  0  0  0  0  0
   39.5250   26.8370   43.5000 C   0  0  0  0  0  0  0  0  0  0  0  0
   38.4880   27.0450   42.6560 C   0  0  0  0  0  0  0  0  0  0  0  0
   37.9810   25.9120   41.9590 C   0  0  0  0  0  0  0  0  0  0  0  0
   38.5260   24.6880   42.1470 N   0  0  0  0  0  0  0  0  0  0  0  0
   39.5710   24.5320   43.0100 C   0  0  0  0  0  0  0  0  0  0  0  0
   40.0490   25.5780   43.6620 N   0  0  0  0  0  0  0  0  0  0  0  0
   39.8840   27.7270   44.0150 H   0  0  0  0  0  0  0  0  0  0  0  0
   37.1590   25.9390   41.2640 H   0  0  0  0  0  0  0  0  0  0  0  0
   40.0870   23.6130   43.2440 H   0  0  0  0  0  0  0  0  0  0  0  0
   36.6230   30.7570   39.8090 O   0  0  0  0  0  0  0  0  0  0  0  0
   38.4160   31.9190   41.2530 O   0  0  0  0  0  0  0  0  0  0  0  0
   37.6640   32.0950   39.9480 P   0  0  2  0  0  0  0  0  0  0  0  0
   36.8750   33.5580   39.8720 O   0  0  0  0  0  0  0  0  0  0  0  0
   36.8740   33.9350   38.9420 H   0  0  0  0  0  0  0  0  0  0  0  0
   38.8630   31.9530   38.7170 O   0  0  0  0  0  0  0  0  0  0  0  0
   37.1150   30.5770   37.2230 H   0  0  0  0  0  0  0  0  0  0  0  0
   38.1070   30.3280   37.1640 N   0  0  0  0  0  0  0  0  0  0  0  0
   38.3700   28.9050   37.0280 C   0  0  0  0  0  2  0  0  0  0  0  0
   39.8790   28.8240   37.2530 C   0  0  0  0  0  2  0  0  0  0  0  0
   40.2750   30.1820   37.8450 C   0  0  0  0  0  2  0  0  0  0  0  0
   38.9040   30.6480   38.3200 C   0  0  1  0  0  3  0  0  0  0  0  0
  1  4  1  6  0  0  0
  1  8  1  0  0  0  0
  2  1  1  0  0  0  0
  2  5  1  0  0  0  0
  3  2  1  0  0  0  0
  3  1  1  0  0  0  0
  3  7  1  1  0  0  0
  6  2  1  0  0  0  0
  8 11  1  0  0  0  0
  8  9  2  0  0  0  0
 10 15  1  0  0  0  0
 10 16  1  0  0  0  0
 11 10  2  0  0  0  0
 12 13  2  0  0  0  0
 12 11  1  0  0  0  0
 13 14  1  0  0  0  0
 14 18  1  0  0  0  0
 14 15  2  0  0  0  0
 17 12  1  0  0  0  0
 19 21  1  0  0  0  0
 19  3  1  0  0  0  0
 21 20  2  1  0  0  0
 22 21  1  0  0  0  0
 23 22  1  0  0  0  0
 24 21  1  0  0  0  0
 26 25  1  0  0  0  0
 26 30  1  0  0  0  0
 27 26  1  0  0  0  0
 27 28  1  0  0  0  0
 28 29  1  0  0  0  0
 29 30  1  0  0  0  0
 30 24  1  6  0  0  0
M  END
>  <minimizedAffinity>
-4.88119793

$$$$

 OpenBabel03242512103D

 30 32  0  0  1  0  0  0  0  0999 V2000
   37.2660   27.4550   42.1140 C   0  0  1  0  0  0  0  0  0  0  0  0
   36.6300   27.5430   43.5580 C   0  0  0  0  0  0  0  0  0  0  0  0
   37.9270   28.1390   43.2190 C   0  0  2  0  0  0  0  0  0  0  0  0
   36.7130   28.0540   41.3740 H   0  0  0  0  0  0  0  0  0  0  0  0
   36.5430   26.5870   44.1100 H   0  0  0  0  0  0  0  0  0  0  0  0
   35.7200   28.1680   43.6250 H   0  0  0  0  0  0  0  0  0  0  0  0
   38.8990   27.6800   43.4510 H   0  0  0  0  0  0  0  0  0  0  0  0
   37.6330   26.0550   41.7620 C   0  0  0  0  0  0  0  0  0  0  0  0
   38.5570   25.5410   42.3840 O   0  0  0  0  0  0  0  0  0  0  0  0
   36.8010   23.9390   40.8510 C   0  0  0  0  0  0  0  0  0  0  0  0
   36.9840   25.2770   40.7610 C   0  0  0  0  0  0  0  0  0  0  0  0
   36.4880   25.9230   39.5930 C   0  0  0  0  0  0  0  0  0  0  0  0
   35.8630   25.2110   38.6260 N   0  0  0  0  0  0  0  0  0  0  0  0
   35.7040   23.8630   38.7660 C   0  0  0  0  0  0  0  0  0  0  0  0
   36.1620   23.2550   39.8470 N   0  0  0  0  0  0  0  0  0  0  0  0
   37.1950   23.4820   41.7580 H   0  0  0  0  0  0  0  0  0  0  0  0
   36.5630   26.9790   39.4000 H   0  0  0  0  0  0  0  0  0  0  0  0
   35.2260   23.1920   38.0700 H   0  0  0  0  0  0  0  0  0  0  0  0
   37.9410   29.5280   43.2810 O   0  0  0  0  0  0  0  0  0  0  0  0
   40.2580   28.8590   42.3700 O   0  0  0  0  0  0  0  0  0  0  0  0
   39.3080   30.0400   42.4100 P   0  0  2  0  0  0  0  0  0  0  0  0
   40.0270   31.4000   43.0440 O   0  0  0  0  0  0  0  0  0  0  0  0
   39.7020   32.2380   42.5970 H   0  0  0  0  0  0  0  0  0  0  0  0
   38.8240   30.2800   40.7730 O   0  0  0  0  0  0  0  0  0  0  0  0
   40.1750   32.5920   40.8700 H   0  0  0  0  0  0  0  0  0  0  0  0
   39.3430   32.5400   40.2750 N   0  0  0  0  0  0  0  0  0  0  0  0
   38.5350   33.7490   40.2510 C   0  0  0  0  0  2  0  0  0  0  0  0
   37.2640   33.2840   39.5430 C   0  0  0  0  0  2  0  0  0  0  0  0
   37.3350   31.7520   39.5440 C   0  0  0  0  0  2  0  0  0  0  0  0
   38.3600   31.5580   40.6560 C   0  0  1  0  0  3  0  0  0  0  0  0
  1  4  1  6  0  0  0
  1  3  1  0  0  0  0
  1  2  1  0  0  0  0
  2  6  1  0  0  0  0
  2  5  1  0  0  0  0
  3 19  1  0  0  0  0
  3  7  1  1  0  0  0
  3  2  1  0  0  0  0
  8  1  1  0  0  0  0
  8  9  2  0  0  0  0
 10 16  1  0  0  0  0
 11 10  1  0  0  0  0
 11  8  1  0  0  0  0
 12 11  2  0  0  0  0
 13 14  2  0  0  0  0
 13 12  1  0  0  0  0
 14 15  1  0  0  0  0
 15 10  2  0  0  0  0
 17 12  1  0  0  0  0
 18 14  1  0  0  0  0
 21 20  2  1  0  0  0
 21 22  1  0  0  0  0
 21 19  1  0  0  0  0
 23 22  1  0  0  0  0
 24 21  1  0  0  0  0
 26 30  1  0  0  0  0
 26 25  1  0  0  0  0
 27 26  1  0  0  0  0
 28 29  1  0  0  0  0
 28 27  1  0  0  0  0
 29 30  1  0  0  0  0
 30 24  1  6  0  0  0
M  END
>  <minimizedAffinity>
-4.87279797

$$$$

 OpenBabel03242512103D

 30 32  0  0  1  0  0  0  0  0999 V2000
   39.0550   31.6070   39.0170 C   0  0  1  0  0  0  0  0  0  0  0  0
   39.5380   30.4560   39.9870 C   0  0  0  0  0  0  0  0  0  0  0  0
   38.1610   30.9620   39.9720 C   0  0  2  0  0  0  0  0  0  0  0  0
   39.0270   31.2850   37.9640 H   0  0  0  0  0  0  0  0  0  0  0  0
   40.2690   30.7510   40.7630 H   0  0  0  0  0  0  0  0  0  0  0  0
   39.7970   29.5060   39.4840 H   0  0  0  0  0  0  0  0  0  0  0  0
   37.7590   31.6850   40.6960 H   0  0  0  0  0  0  0  0  0  0  0  0
   39.7020   32.9070   39.3450 C   0  0  0  0  0  0  0  0  0  0  0  0
   39.0500   33.7130   40.0000 O   0  0  0  0  0  0  0  0  0  0  0  0
   41.9300   33.8200   39.7970 C   0  0  0  0  0  0  0  0  0  0  0  0
   41.0230   33.2730   38.9550 C   0  0  0  0  0  0  0  0  0  0  0  0
   41.4340   33.0560   37.6100 C   0  0  0  0  0  0  0  0  0  0  0  0
   42.6830   33.3890   37.2100 N   0  0  0  0  0  0  0  0  0  0  0  0
   43.5610   33.9370   38.0990 C   0  0  0  0  0  0  0  0  0  0  0  0
   43.1870   34.1420   39.3510 N   0  0  0  0  0  0  0  0  0  0  0  0
   41.5780   33.9700   40.8170 H   0  0  0  0  0  0  0  0  0  0  0  0
   40.8140   32.6250   36.8420 H   0  0  0  0  0  0  0  0  0  0  0  0
   44.5770   34.2420   37.9030 H   0  0  0  0  0  0  0  0  0  0  0  0
   37.2240   30.0290   39.5420 O   0  0  0  0  0  0  0  0  0  0  0  0
   35.0880   28.8290   40.3460 O   0  0  0  0  0  0  0  0  0  0  0  0
   36.1870   29.7390   40.8580 P   0  0  2  0  0  0  0  0  0  0  0  0
   35.5820   31.1280   41.5430 O   0  0  0  0  0  0  0  0  0  0  0  0
   36.1320   31.4300   42.3270 H   0  0  0  0  0  0  0  0  0  0  0  0
   37.0560   28.7890   42.0060 O   0  0  0  0  0  0  0  0  0  0  0  0
   37.2760   27.5730   39.6280 H   0  0  0  0  0  0  0  0  0  0  0  0
   37.5100   27.0390   40.4700 N   0  0  0  0  0  0  0  0  0  0  0  0
   37.1170   25.6410   40.4330 C   0  0  0  0  0  2  0  0  0  0  0  0
   37.3240   25.2000   41.8810 C   0  0  0  0  0  2  0  0  0  0  0  0
   37.4870   26.4980   42.6820 C   0  0  0  0  0  2  0  0  0  0  0  0
   36.8730   27.4750   41.6860 C   0  0  1  0  0  3  0  0  0  0  0  0
  1  4  1  6  0  0  0
  1  8  1  0  0  0  0
  1  3  1  0  0  0  0
  1  2  1  0  0  0  0
  2  5  1  0  0  0  0
  3  2  1  0  0  0  0
  3  7  1  1  0  0  0
  6  2  1  0  0  0  0
  8  9  2  0  0  0  0
 10 16  1  0  0  0  0
 11  8  1  0  0  0  0
 11 10  2  0  0  0  0
 12 11  1  0  0  0  0
 13 12  2  0  0  0  0
 13 14  1  0  0  0  0
 14 15  2  0  0  0  0
 15 10  1  0  0  0  0
 17 12  1  0  0  0  0
 18 14  1  0  0  0  0
 19  3  1  0  0  0  0
 19 21  1  0  0  0  0
 21 20  2  6  0  0  0
 21 22  1  0  0  0  0
 21 24  1  0  0  0  0
 22 23  1  0  0  0  0
 25 26  1  0  0  0  0
 26 30  1  0  0  0  0
 27 26  1  0  0  0  0
 27 28  1  0  0  0  0
 28 29  1  0  0  0  0
 30 24  1  1  0  0  0
 30 29  1  0  0  0  0
M  END
>  <minimizedAffinity>
-4.87165642

$$$$

 OpenBabel03242512103D

 30 32  0  0  1  0  0  0  0  0999 V2000
   37.4760   29.0020   38.8070 C   0  0  1  0  0  0  0  0  0  0  0  0
   36.2710   30.0260   38.8130 C   0  0  0  0  0  0  0  0  0  0  0  0
   37.5700   30.3180   39.4290 C   0  0  2  0  0  0  0  0  0  0  0  0
   37.9010   28.8600   37.8010 H   0  0  0  0  0  0  0  0  0  0  0  0
   35.3860   29.7300   39.4080 H   0  0  0  0  0  0  0  0  0  0  0  0
   36.0100   30.4370   37.8210 H   0  0  0  0  0  0  0  0  0  0  0  0
   37.7760   30.2380   40.5060 H   0  0  0  0  0  0  0  0  0  0  0  0
   37.1740   27.7970   39.6280 C   0  0  0  0  0  0  0  0  0  0  0  0
   36.6220   26.8570   39.0670 O   0  0  0  0  0  0  0  0  0  0  0  0
   36.5740   27.7930   42.0030 C   0  0  0  0  0  0  0  0  0  0  0  0
   37.4860   27.6620   41.0110 C   0  0  0  0  0  0  0  0  0  0  0  0
   38.8250   27.3690   41.3960 C   0  0  0  0  0  0  0  0  0  0  0  0
   39.1520   27.2310   42.7020 N   0  0  0  0  0  0  0  0  0  0  0  0
   38.1940   27.3720   43.6630 C   0  0  0  0  0  0  0  0  0  0  0  0
   36.9470   27.6450   43.3150 N   0  0  0  0  0  0  0  0  0  0  0  0
   35.5620   28.0170   41.6690 H   0  0  0  0  0  0  0  0  0  0  0  0
   39.6430   27.2360   40.7090 H   0  0  0  0  0  0  0  0  0  0  0  0
   38.3290   27.2860   44.7300 H   0  0  0  0  0  0  0  0  0  0  0  0
   38.2700   31.3450   38.8050 O   0  0  0  0  0  0  0  0  0  0  0  0
   39.0720   31.9570   41.1770 O   0  0  0  0  0  0  0  0  0  0  0  0
   38.4370   32.5870   39.9540 P   0  0  2  0  0  0  0  0  0  0  0  0
   37.0050   33.3510   40.3160 O   0  0  0  0  0  0  0  0  0  0  0  0
   36.8720   34.1800   39.7650 H   0  0  0  0  0  0  0  0  0  0  0  0
   39.6160   33.6940   39.3560 O   0  0  0  0  0  0  0  0  0  0  0  0
   39.4590   32.1790   37.1520 H   0  0  0  0  0  0  0  0  0  0  0  0
   40.3410   32.6610   37.3480 N   0  0  0  0  0  0  0  0  0  0  0  0
   41.5360   31.9060   37.0110 C   0  0  0  0  0  2  0  0  0  0  0  0
   42.6440   32.7290   37.6630 C   0  0  0  0  0  2  0  0  0  0  0  0
   41.9270   33.6970   38.6130 C   0  0  0  0  0  2  0  0  0  0  0  0
   40.5910   32.9720   38.7330 C   0  0  1  0  0  3  0  0  0  0  0  0
  1  4  1  6  0  0  0
  1  2  1  0  0  0  0
  1  3  1  0  0  0  0
  1  8  1  0  0  0  0
  2  5  1  0  0  0  0
  2  3  1  0  0  0  0
  3  7  1  1  0  0  0
  6  2  1  0  0  0  0
  8 11  1  0  0  0  0
  9  8  2  0  0  0  0
 10 15  1  0  0  0  0
 11 12  1  0  0  0  0
 11 10  2  0  0  0  0
 12 13  2  0  0  0  0
 13 14  1  0  0  0  0
 14 18  1  0  0  0  0
 15 14  2  0  0  0  0
 16 10  1  0  0  0  0
 17 12  1  0  0  0  0
 19  3  1  0  0  0  0
 19 21  1  0  0  0  0
 21 22  1  0  0  0  0
 21 20  2  1  0  0  0
 23 22  1  0  0  0  0
 24 21  1  0  0  0  0
 25 26  1  0  0  0  0
 26 30  1  0  0  0  0
 27 26  1  0  0  0  0
 27 28  1  0  0  0  0
 28 29  1  0  0  0  0
 29 30  1  0  0  0  0
 30 24  1  6  0  0  0
M  END
>  <minimizedAffinity>
-4.81400061

$$$$

 OpenBabel03242512103D

 30 32  0  0  1  0  0  0  0  0999 V2000
   38.4430   28.7500   42.4380 C   0  0  1  0  0  0  0  0  0  0  0  0
   37.5280   28.4060   43.6790 C   0  0  0  0  0  0  0  0  0  0  0  0
   38.1670   27.3790   42.8500 C   0  0  2  0  0  0  0  0  0  0  0  0
   39.3980   29.2120   42.7350 H   0  0  0  0  0  0  0  0  0  0  0  0
   36.4560   28.6670   43.5800 H   0  0  0  0  0  0  0  0  0  0  0  0
   37.9530   28.6890   44.6600 H   0  0  0  0  0  0  0  0  0  0  0  0
   37.6550   26.8170   42.0570 H   0  0  0  0  0  0  0  0  0  0  0  0
   37.6610   29.3820   41.3390 C   0  0  0  0  0  0  0  0  0  0  0  0
   36.8190   28.6900   40.7760 O   0  0  0  0  0  0  0  0  0  0  0  0
   38.8340   31.5320   41.3050 C   0  0  0  0  0  0  0  0  0  0  0  0
   37.8210   30.7290   40.9040 C   0  0  0  0  0  0  0  0  0  0  0  0
   36.8770   31.2810   39.9920 C   0  0  0  0  0  0  0  0  0  0  0  0
   37.0050   32.5560   39.5570 N   0  0  0  0  0  0  0  0  0  0  0  0
   38.0450   33.3240   39.9920 C   0  0  0  0  0  0  0  0  0  0  0  0
   38.9260   32.8200   40.8390 N   0  0  0  0  0  0  0  0  0  0  0  0
   39.5350   31.0740   42.0020 H   0  0  0  0  0  0  0  0  0  0  0  0
   36.0300   30.7500   39.5930 H   0  0  0  0  0  0  0  0  0  0  0  0
   38.2540   34.3470   39.7190 H   0  0  0  0  0  0  0  0  0  0  0  0
   39.1330   26.6370   43.5210 O   0  0  0  0  0  0  0  0  0  0  0  0
   40.9000   24.8240   43.0320 O   0  0  0  0  0  0  0  0  0  0  0  0
   39.6200   25.4000   42.4600 P   0  0  2  0  0  0  0  0  0  0  0  0
   39.8110   25.9130   40.8890 O   0  0  0  0  0  0  0  0  0  0  0  0
   38.9850   25.7560   40.3400 H   0  0  0  0  0  0  0  0  0  0  0  0
   38.4630   24.1270   42.5780 O   0  0  0  0  0  0  0  0  0  0  0  0
   38.9140   22.0010   41.0100 H   0  0  0  0  0  0  0  0  0  0  0  0
   38.0110   22.4770   40.9350 N   0  0  0  0  0  0  0  0  0  0  0  0
   37.4750   22.5580   39.5870 C   0  0  0  0  0  2  0  0  0  0  0  0
   36.3140   23.5380   39.7490 C   0  0  0  0  0  2  0  0  0  0  0  0
   36.5240   24.1920   41.1210 C   0  0  0  0  0  2  0  0  0  0  0  0
   37.9980   23.8650   41.3230 C   0  0  1  0  0  3  0  0  0  0  0  0
  1  4  1  1  0  0  0
  1  3  1  0  0  0  0
  1  2  1  0  0  0  0
  2  6  1  0  0  0  0
  3  7  1  6  0  0  0
  3 19  1  0  0  0  0
  3  2  1  0  0  0  0
  5  2  1  0  0  0  0
  8  1  1  0  0  0  0
  9  8  2  0  0  0  0
 10 16  1  0  0  0  0
 11 10  1  0  0  0  0
 11  8  1  0  0  0  0
 12 11  2  0  0  0  0
 13 12  1  0  0  0  0
 13 14  2  0  0  0  0
 14 15  1  0  0  0  0
 15 10  2  0  0  0  0
 17 12  1  0  0  0  0
 18 14  1  0  0  0  0
 21 24  1  0  0  0  0
 21 20  2  1  0  0  0
 21 19  1  0  0  0  0
 22 21  1  0  0  0  0
 23 22  1  0  0  0  0
 26 25  1  0  0  0  0
 26 30  1  0  0  0  0
 27 28  1  0  0  0  0
 27 26  1  0  0  0  0
 28 29  1  0  0  0  0
 29 30  1  0  0  0  0
 30 24  1  1  0  0  0
M  END
>  <minimizedAffinity>
-4.79663467

$$$$

 OpenBabel03242512103D

 30 32  0  0  1  0  0  0  0  0999 V2000
   36.9360   30.2610   38.2550 C   0  0  1  0  0  0  0  0  0  0  0  0
   37.7070   28.9750   37.7530 C   0  0  0  0  0  0  0  0  0  0  0  0
   37.5700   29.3200   39.1720 C   0  0  2  0  0  0  0  0  0  0  0  0
   35.8500   30.1910   38.0900 H   0  0  0  0  0  0  0  0  0  0  0  0
   38.6390   29.1590   37.1850 H   0  0  0  0  0  0  0  0  0  0  0  0
   37.0640   28.2020   37.2940 H   0  0  0  0  0  0  0  0  0  0  0  0
   38.3540   29.8080   39.7690 H   0  0  0  0  0  0  0  0  0  0  0  0
   37.6360   31.5110   37.8510 C   0  0  0  0  0  0  0  0  0  0  0  0
   37.5900   31.8260   36.6660 O   0  0  0  0  0  0  0  0  0  0  0  0
   37.7530   33.1400   39.6770 C   0  0  0  0  0  0  0  0  0  0  0  0
   38.3490   32.3630   38.7420 C   0  0  0  0  0  0  0  0  0  0  0  0
   39.7700   32.4130   38.6680 C   0  0  0  0  0  0  0  0  0  0  0  0
   40.4760   33.2090   39.5050 N   0  0  0  0  0  0  0  0  0  0  0  0
   39.8260   33.9720   40.4290 C   0  0  0  0  0  0  0  0  0  0  0  0
   38.5060   33.9330   40.5060 N   0  0  0  0  0  0  0  0  0  0  0  0
   36.6660   33.0740   39.7020 H   0  0  0  0  0  0  0  0  0  0  0  0
   40.3670   31.8440   37.9760 H   0  0  0  0  0  0  0  0  0  0  0  0
   40.2740   34.6420   41.1480 H   0  0  0  0  0  0  0  0  0  0  0  0
   36.8010   28.4170   39.8980 O   0  0  0  0  0  0  0  0  0  0  0  0
   36.1150   27.9080   42.3310 O   0  0  0  0  0  0  0  0  0  0  0  0
   36.7320   29.0090   41.4910 P   0  0  2  0  0  0  0  0  0  0  0  0
   35.8990   30.4420   41.6290 O   0  0  0  0  0  0  0  0  0  0  0  0
   36.5120   31.2370   41.5960 H   0  0  0  0  0  0  0  0  0  0  0  0
   38.3510   29.1550   42.0640 O   0  0  0  0  0  0  0  0  0  0  0  0
   37.8560   26.6320   41.3080 H   0  0  0  0  0  0  0  0  0  0  0  0
   38.7140   26.8230   41.8330 N   0  0  0  0  0  0  0  0  0  0  0  0
   39.0850   25.7900   42.7860 C   0  0  0  0  0  2  0  0  0  0  0  0
   40.1940   26.4650   43.5920 C   0  0  0  0  0  2  0  0  0  0  0  0
   40.1030   27.9550   43.2390 C   0  0  0  0  0  2  0  0  0  0  0  0
   38.6850   27.9860   42.6830 C   0  0  1  0  0  3  0  0  0  0  0  0
  1  4  1  6  0  0  0
  1  3  1  0  0  0  0
  2  1  1  0  0  0  0
  2  3  1  0  0  0  0
  3  7  1  1  0  0  0
  3 19  1  0  0  0  0
  5  2  1  0  0  0  0
  6  2  1  0  0  0  0
  8  1  1  0  0  0  0
  8 11  1  0  0  0  0
  9  8  2  0  0  0  0
 10 16  1  0  0  0  0
 10 15  1  0  0  0  0
 11 10  2  0  0  0  0
 12 11  1  0  0  0  0
 12 13  2  0  0  0  0
 13 14  1  0  0  0  0
 14 15  2  0  0  0  0
 14 18  1  0  0  0  0
 17 12  1  0  0  0  0
 19 21  1  0  0  0  0
 21 22  1  0  0  0  0
 21 24  1  0  0  0  0
 21 20  2  1  0  0  0
 23 22  1  0  0  0  0
 25 26  1  0  0  0  0
 26 30  1  0  0  0  0
 26 27  1  0  0  0  0
 27 28  1  0  0  0  0
 29 28  1  0  0  0  0
 30 24  1  6  0  0  0
 30 29  1  0  0  0  0
M  END
>  <minimizedAffinity>
-4.79224205

$$$$

 OpenBabel03242512103D

 30 32  0  0  1  0  0  0  0  0999 V2000
   36.8040   29.1670   39.9630 C   0  0  1  0  0  0  0  0  0  0  0  0
   35.3030   29.6640   39.9510 C   0  0  0  0  0  0  0  0  0  0  0  0
   36.4440   30.5730   40.1050 C   0  0  2  0  0  0  0  0  0  0  0  0
   37.1330   28.8010   38.9780 H   0  0  0  0  0  0  0  0  0  0  0  0
   34.6790   29.3440   40.8080 H   0  0  0  0  0  0  0  0  0  0  0  0
   34.7900   29.5590   38.9780 H   0  0  0  0  0  0  0  0  0  0  0  0
   36.7860   30.9790   41.0670 H   0  0  0  0  0  0  0  0  0  0  0  0
   37.0950   28.3350   41.1630 C   0  0  0  0  0  0  0  0  0  0  0  0
   37.4510   28.9190   42.1810 O   0  0  0  0  0  0  0  0  0  0  0  0
   37.0990   26.1890   42.3440 C   0  0  0  0  0  0  0  0  0  0  0  0
   36.9850   26.9160   41.2080 C   0  0  0  0  0  0  0  0  0  0  0  0
   36.7360   26.2000   40.0030 C   0  0  0  0  0  0  0  0  0  0  0  0
   36.6220   24.8510   40.0140 N   0  0  0  0  0  0  0  0  0  0  0  0
   36.7450   24.1670   41.1880 C   0  0  0  0  0  0  0  0  0  0  0  0
   36.9760   24.8230   42.3120 N   0  0  0  0  0  0  0  0  0  0  0  0
   37.2890   26.7720   43.2450 H   0  0  0  0  0  0  0  0  0  0  0  0
   36.6200   26.6550   39.0340 H   0  0  0  0  0  0  0  0  0  0  0  0
   36.6740   23.0980   41.3250 H   0  0  0  0  0  0  0  0  0  0  0  0
   36.6080   31.4540   39.0410 O   0  0  0  0  0  0  0  0  0  0  0  0
   37.1890   33.9060   39.5890 O   0  0  0  0  0  0  0  0  0  0  0  0
   37.8370   32.5390   39.4940 P   0  0  2  0  0  0  0  0  0  0  0  0
   39.1380   32.5340   38.4580 O   0  0  0  0  0  0  0  0  0  0  0  0
   39.8680   31.9210   38.7750 H   0  0  0  0  0  0  0  0  0  0  0  0
   38.3050   32.1510   41.1080 O   0  0  0  0  0  0  0  0  0  0  0  0
   40.3020   33.8220   40.4720 H   0  0  0  0  0  0  0  0  0  0  0  0
   40.4720   33.1130   41.1900 N   0  0  0  0  0  0  0  0  0  0  0  0
   41.8040   32.5310   41.1670 C   0  0  0  0  0  2  0  0  0  0  0  0
   41.6650   31.3480   42.1230 C   0  0  0  0  0  2  0  0  0  0  0  0
   40.1560   31.1660   42.3300 C   0  0  0  0  0  2  0  0  0  0  0  0
   39.6520   31.9310   41.1120 C   0  0  1  0  0  3  0  0  0  0  0  0
  1  4  1  6  0  0  0
  1  3  1  0  0  0  0
  1  8  1  0  0  0  0
  2  1  1  0  0  0  0
  2  3  1  0  0  0  0
  2  5  1  0  0  0  0
  3  7  1  1  0  0  0
  6  2  1  0  0  0  0
  8 11  1  0  0  0  0
  8  9  2  0  0  0  0
 10 16  1  0  0  0  0
 11 10  2  0  0  0  0
 12 13  2  0  0  0  0
 12 11  1  0  0  0  0
 13 14  1  0  0  0  0
 14 18  1  0  0  0  0
 14 15  2  0  0  0  0
 15 10  1  0  0  0  0
 17 12  1  0  0  0  0
 19 21  1  0  0  0  0
 19  3  1  0  0  0  0
 21 20  2  1  0  0  0
 21 24  1  0  0  0  0
 22 23  1  0  0  0  0
 22 21  1  0  0  0  0
 25 26  1  0  0  0  0
 27 26  1  0  0  0  0
 27 28  1  0  0  0  0
 28 29  1  0  0  0  0
 30 24  1  1  0  0  0
 30 26  1  0  0  0  0
 30 29  1  0  0  0  0
M  END
>  <minimizedAffinity>
-4.76623917

$$$$

 OpenBabel03242512103D

 30 32  0  0  1  0  0  0  0  0999 V2000
   38.3930   28.1690   43.2740 C   0  0  1  0  0  0  0  0  0  0  0  0
   39.3920   26.9450   43.2170 C   0  0  0  0  0  0  0  0  0  0  0  0
   39.5210   28.1210   42.3510 C   0  0  2  0  0  0  0  0  0  0  0  0
   38.4930   28.7490   44.2050 H   0  0  0  0  0  0  0  0  0  0  0  0
   38.9670   25.9880   42.8580 H   0  0  0  0  0  0  0  0  0  0  0  0
   40.0300   26.8270   44.1120 H   0  0  0  0  0  0  0  0  0  0  0  0
   39.1850   28.1600   41.3050 H   0  0  0  0  0  0  0  0  0  0  0  0
   37.0280   27.7830   42.8210 C   0  0  0  0  0  0  0  0  0  0  0  0
   36.2340   27.4110   43.6780 O   0  0  0  0  0  0  0  0  0  0  0  0
   36.8770   26.8640   40.5550 C   0  0  0  0  0  0  0  0  0  0  0  0
   36.5850   27.8200   41.4680 C   0  0  0  0  0  0  0  0  0  0  0  0
   35.7840   28.9120   41.0300 C   0  0  0  0  0  0  0  0  0  0  0  0
   35.3440   28.9740   39.7510 N   0  0  0  0  0  0  0  0  0  0  0  0
   35.6670   27.9830   38.8710 C   0  0  0  0  0  0  0  0  0  0  0  0
   36.4100   26.9650   39.2690 N   0  0  0  0  0  0  0  0  0  0  0  0
   37.4910   26.0460   40.9290 H   0  0  0  0  0  0  0  0  0  0  0  0
   35.4760   29.7340   41.6530 H   0  0  0  0  0  0  0  0  0  0  0  0
   35.3780   27.9190   37.8330 H   0  0  0  0  0  0  0  0  0  0  0  0
   40.6640   28.8760   42.5950 O   0  0  0  0  0  0  0  0  0  0  0  0
   41.6040   30.8440   41.2210 O   0  0  0  0  0  0  0  0  0  0  0  0
   40.3590   30.4320   41.9810 P   0  0  2  0  0  0  0  0  0  0  0  0
   39.9470   31.5370   43.1540 O   0  0  0  0  0  0  0  0  0  0  0  0
   38.9520   31.6230   43.2550 H   0  0  0  0  0  0  0  0  0  0  0  0
   39.1290   30.2880   40.7820 O   0  0  0  0  0  0  0  0  0  0  0  0
   40.1540   32.7380   41.1430 H   0  0  0  0  0  0  0  0  0  0  0  0
   39.4180   32.6170   40.4410 N   0  0  0  0  0  0  0  0  0  0  0  0
   38.4740   33.7190   40.3530 C   0  0  0  0  0  2  0  0  0  0  0  0
   37.3730   33.1420   39.4660 C   0  0  0  0  0  2  0  0  0  0  0  0
   37.6360   31.6320   39.4200 C   0  0  0  0  0  2  0  0  0  0  0  0
   38.5260   31.5040   40.6500 C   0  0  1  0  0  3  0  0  0  0  0  0
  1  4  1  1  0  0  0
  2  1  1  0  0  0  0
  2  6  1  0  0  0  0
  3  7  1  6  0  0  0
  3 19  1  0  0  0  0
  3  2  1  0  0  0  0
  3  1  1  0  0  0  0
  5  2  1  0  0  0  0
  8  1  1  0  0  0  0
  8  9  2  0  0  0  0
 10 16  1  0  0  0  0
 10 11  1  0  0  0  0
 11  8  1  0  0  0  0
 12 11  2  0  0  0  0
 12 17  1  0  0  0  0
 13 12  1  0  0  0  0
 14 15  1  0  0  0  0
 14 13  2  0  0  0  0
 15 10  2  0  0  0  0
 18 14  1  0  0  0  0
 21 20  2  6  0  0  0
 21 19  1  0  0  0  0
 21 22  1  0  0  0  0
 22 23  1  0  0  0  0
 24 21  1  0  0  0  0
 26 30  1  0  0  0  0
 26 25  1  0  0  0  0
 27 26  1  0  0  0  0
 28 27  1  0  0  0  0
 29 28  1  0  0  0  0
 29 30  1  0  0  0  0
 30 24  1  6  0  0  0
M  END
>  <minimizedAffinity>
-4.75798464

$$$$
