
 OpenBabel03252503333D

 19 20  0  0  0  0  0  0  0  0999 V2000
   46.1350   33.9920   40.8420 C   0  0  0  0  0  0  0  0  0  0  0  0
   44.9990   33.5000   41.0730 O   0  0  0  0  0  0  0  0  0  0  0  0
   46.7030   34.7470   41.9000 N   0  0  0  0  0  0  0  0  0  0  0  0
   47.6590   35.1800   41.7260 H   0  0  0  0  0  0  0  0  0  0  0  0
   46.8040   33.8010   39.6020 N   0  0  0  0  0  0  0  0  0  0  0  0
   46.2730   33.0430   38.4910 C   0  0  0  0  0  0  0  0  0  0  0  0
   47.1470   33.5520   37.3370 C   0  0  0  0  0  0  0  0  0  0  0  0
   48.4970   33.5790   38.0330 C   0  0  0  0  0  0  0  0  0  0  0  0
   48.1110   34.3500   39.2960 C   0  0  0  0  0  0  0  0  0  0  0  0
   47.9390   35.4020   38.9830 H   0  0  0  0  0  0  0  0  0  0  0  0
   44.5140   36.0840   44.6120 C   0  0  0  0  0  0  0  0  0  0  0  0
   45.1560   36.0110   43.3560 C   0  0  0  0  0  0  0  0  0  0  0  0
   46.0080   34.9100   43.1400 C   0  0  0  0  0  0  0  0  0  0  0  0
   46.1650   34.0000   44.1200 N   0  0  0  0  0  0  0  0  0  0  0  0
   45.5290   34.1060   45.3170 C   0  0  0  0  0  0  0  0  0  0  0  0
   44.7130   35.1460   45.5470 N   0  0  0  0  0  0  0  0  0  0  0  0
   43.8620   36.9560   44.7330 H   0  0  0  0  0  0  0  0  0  0  0  0
   45.0350   36.7310   42.5720 H   0  0  0  0  0  0  0  0  0  0  0  0
   45.6610   33.3710   46.1000 H   0  0  0  0  0  0  0  0  0  0  0  0
  1  2  2  0  0  0  0
  1  3  1  0  0  0  0
  3 13  1  0  0  0  0
  4  3  1  0  0  0  0
  5  1  1  0  0  0  0
  6  5  1  0  0  0  0
  7  8  1  0  0  0  0
  7  6  1  0  0  0  0
  8  9  1  0  0  0  0
  9  5  1  0  0  0  0
 10  9  1  0  0  0  0
 11 17  1  0  0  0  0
 11 16  1  0  0  0  0
 12 11  2  0  0  0  0
 13 12  1  0  0  0  0
 13 14  2  0  0  0  0
 14 15  1  0  0  0  0
 15 16  2  0  0  0  0
 15 19  1  0  0  0  0
 18 12  1  0  0  0  0
M  END
>  <minimizedAffinity>
-4.3858757

>  <minimizedRMSD>
0.336031109

$$$$
