
 OpenBabel03252500253D

 34 36  0  0  1  0  0  0  0  0999 V2000
   49.5450   30.6210   48.8340 C   0  0  2  0  0  0  0  0  0  0  0  0
   50.0050   29.2930   48.3740 C   0  0  2  0  0  0  0  0  0  0  0  0
   50.8610   28.8150   49.4920 C   0  0  0  0  0  0  0  0  0  0  0  0
   50.3670   29.3640   50.6630 O   0  0  0  0  0  0  0  0  0  0  0  0
   49.4400   30.3020   50.3470 C   0  0  0  0  0  0  0  0  0  0  0  0
   50.1030   31.5080   48.8470 H   0  0  0  0  0  0  0  0  0  0  0  0
   49.0630   28.6870   48.2820 H   0  0  0  0  0  0  0  0  0  0  0  0
   50.6260   27.7120   49.6080 H   0  0  0  0  0  0  0  0  0  0  0  0
   51.9380   28.8150   49.3630 H   0  0  0  0  0  0  0  0  0  0  0  0
   48.4280   29.8120   50.4270 H   0  0  0  0  0  0  0  0  0  0  0  0
   49.4280   31.1990   50.9630 H   0  0  0  0  0  0  0  0  0  0  0  0
   50.6780   29.3310   47.1750 O   0  0  0  0  0  0  0  0  0  0  0  0
   50.6410   27.7260   45.1670 O   0  0  0  0  0  0  0  0  0  0  0  0
   49.7590   28.6410   45.9710 P   0  0  1  0  0  0  0  0  0  0  0  0
   48.5200   27.7200   46.6700 O   0  0  0  0  0  0  0  0  0  0  0  0
   47.6490   28.1660   46.5250 H   0  0  0  0  0  0  0  0  0  0  0  0
   49.1120   29.8080   44.9020 O   0  0  0  0  0  0  0  0  0  0  0  0
   45.9220   31.3590   44.5710 C   0  0  0  0  0  0  0  0  0  0  0  0
   45.0430   30.2890   44.2330 C   0  0  0  0  0  0  0  0  0  0  0  0
   45.6180   29.0040   44.1270 C   0  0  0  0  0  0  0  0  0  0  0  0
   46.9440   28.8790   44.3500 N   0  0  0  0  0  0  0  0  0  0  0  0
   47.7370   29.9260   44.6690 C   0  0  0  0  0  0  0  0  0  0  0  0
   47.2130   31.1600   44.7760 N   0  0  0  0  0  0  0  0  0  0  0  0
   43.9920   30.4140   44.0600 H   0  0  0  0  0  0  0  0  0  0  0  0
   45.0190   28.1400   43.8740 H   0  0  0  0  0  0  0  0  0  0  0  0
   45.3490   32.6070   44.6700 O   0  0  0  0  0  0  0  0  0  0  0  0
   44.7440   32.8860   43.8830 H   0  0  0  0  0  0  0  0  0  0  0  0
   48.3400   31.0250   48.3350 O   0  0  0  0  0  0  0  0  0  0  0  0
   46.3470   32.3670   50.1180 H   0  0  0  0  0  0  0  0  0  0  0  0
   46.5170   32.1180   49.1210 N   0  0  0  0  0  0  0  0  0  0  0  0
   45.3410   32.1330   48.3080 C   0  0  0  0  0  2  0  0  0  0  0  0
   44.9740   30.6990   48.0140 C   0  0  0  0  0  2  0  0  0  0  0  0
   46.2980   29.9770   48.0790 C   0  0  0  0  0  2  0  0  0  0  0  0
   47.1910   30.8590   48.9620 C   0  0  1  0  0  3  0  0  0  0  0  0
  1  6  1  6  0  0  0
  1  5  1  0  0  0  0
  2  7  1  6  0  0  0
  2  1  1  0  0  0  0
  2  3  1  0  0  0  0
  3  8  1  0  0  0  0
  3  4  1  0  0  0  0
  5 10  1  0  0  0  0
  5  4  1  0  0  0  0
  5 11  1  0  0  0  0
  9  3  1  0  0  0  0
 12  2  1  0  0  0  0
 14 13  2  6  0  0  0
 14 15  1  0  0  0  0
 14 12  1  0  0  0  0
 16 15  1  0  0  0  0
 17 14  1  0  0  0  0
 18 26  1  0  0  0  0
 18 23  1  0  0  0  0
 19 18  2  0  0  0  0
 20 19  1  0  0  0  0
 20 21  2  0  0  0  0
 21 22  1  0  0  0  0
 22 23  2  0  0  0  0
 22 17  1  0  0  0  0
 24 19  1  0  0  0  0
 25 20  1  0  0  0  0
 27 26  1  0  0  0  0
 28  1  1  0  0  0  0
 30 29  1  0  0  0  0
 31 30  1  0  0  0  0
 32 33  1  0  0  0  0
 32 31  1  0  0  0  0
 33 34  1  0  0  0  0
 34 28  1  6  0  0  0
 34 30  1  0  0  0  0
M  END
>  <minimizedAffinity>
-3.51919222

>  <minimizedRMSD>
4.83502102

$$$$
