
 OpenBabel03242519593D

 27 29  0  0  0  0  0  0  0  0999 V2000
   44.5670   33.2260   41.1080 Br  0  0  0  0  0  0  0  0  0  0  0  0
   46.2730   34.0460   40.9610 C   0  0  0  0  0  0  0  0  0  0  0  0
   46.8300   34.7890   41.9760 C   0  0  0  0  0  0  0  0  0  0  0  0
   48.0710   35.3690   41.7620 C   0  0  0  0  0  0  0  0  0  0  0  0
   48.7650   35.2300   40.5800 C   0  0  0  0  0  0  0  0  0  0  0  0
   48.2070   34.4760   39.5460 C   0  0  0  0  0  0  0  0  0  0  0  0
   46.9690   33.9110   39.7900 C   0  0  0  0  0  0  0  0  0  0  0  0
   48.4240   35.9310   42.6150 H   0  0  0  0  0  0  0  0  0  0  0  0
   49.7290   35.7120   40.4860 H   0  0  0  0  0  0  0  0  0  0  0  0
   48.7620   34.3800   38.6340 H   0  0  0  0  0  0  0  0  0  0  0  0
   44.4860   35.9720   44.7020 C   0  0  0  0  0  0  0  0  0  0  0  0
   45.1860   35.9150   43.4820 C   0  0  0  0  0  0  0  0  0  0  0  0
   46.0750   34.9030   43.2190 C   0  0  0  0  0  0  0  0  0  0  0  0
   46.2100   33.9810   44.2290 N   0  0  0  0  0  0  0  0  0  0  0  0
   45.5440   34.0420   45.3800 C   0  0  0  0  0  0  0  0  0  0  0  0
   44.6900   35.0200   45.6240 N   0  0  0  0  0  0  0  0  0  0  0  0
   43.7970   36.7920   44.8530 H   0  0  0  0  0  0  0  0  0  0  0  0
   45.0750   36.6430   42.6910 H   0  0  0  0  0  0  0  0  0  0  0  0
   45.7930   33.2220   46.0410 H   0  0  0  0  0  0  0  0  0  0  0  0
   46.4440   33.1120   38.7070 C   0  0  0  0  0  0  0  0  0  0  0  0
   46.5010   33.5300   37.4900 O   0  0  0  0  0  0  0  0  0  0  0  0
   45.8060   31.8520   38.5520 N   0  0  0  0  0  0  0  0  0  0  0  0
   44.4760   31.8370   37.9770 C   0  0  0  0  0  0  0  0  0  0  0  0
   44.5000   30.8900   36.7980 C   0  0  0  0  0  0  0  0  0  0  0  0
   45.5090   29.8740   37.2640 C   0  0  0  0  0  0  0  0  0  0  0  0
   45.8000   30.3880   38.6820 C   0  0  0  0  0  0  0  0  0  0  0  0
   46.8050   29.9760   38.9010 H   0  0  0  0  0  0  0  0  0  0  0  0
  2  1  1  0  0  0  0
  2  3  1  0  0  0  0
  3 13  1  0  0  0  0
  4  3  2  0  0  0  0
  4  8  1  0  0  0  0
  5  4  1  0  0  0  0
  6  7  1  0  0  0  0
  6  5  2  0  0  0  0
  7  2  2  0  0  0  0
  9  5  1  0  0  0  0
 10  6  1  0  0  0  0
 11 17  1  0  0  0  0
 11 16  1  0  0  0  0
 12 11  2  0  0  0  0
 13 12  1  0  0  0  0
 13 14  2  0  0  0  0
 14 15  1  0  0  0  0
 15 16  2  0  0  0  0
 15 19  1  0  0  0  0
 18 12  1  0  0  0  0
 20  7  1  0  0  0  0
 21 20  2  0  0  0  0
 22 26  1  0  0  0  0
 22 20  1  0  0  0  0
 23 22  1  0  0  0  0
 24 25  1  0  0  0  0
 24 23  1  0  0  0  0
 25 26  1  0  0  0  0
 26 27  1  0  0  0  0
M  END
>  <minimizedAffinity>
-5.5860405

>  <minimizedRMSD>
0.119660005

$$$$
