
 OpenBabel03252500253D

 34 36  0  0  1  0  0  0  0  0999 V2000
   46.8380   30.0270   48.0730 C   0  0  2  0  0  0  0  0  0  0  0  0
   45.4060   30.3790   48.1800 C   0  0  2  0  0  0  0  0  0  0  0  0
   44.7760   29.6110   47.0730 C   0  0  0  0  0  0  0  0  0  0  0  0
   45.5230   28.4610   46.8820 O   0  0  0  0  0  0  0  0  0  0  0  0
   46.6670   28.5610   47.6040 C   0  0  0  0  0  0  0  0  0  0  0  0
   47.5230   30.3930   47.3690 H   0  0  0  0  0  0  0  0  0  0  0  0
   45.0960   29.9880   49.1880 H   0  0  0  0  0  0  0  0  0  0  0  0
   43.8000   29.2140   47.4920 H   0  0  0  0  0  0  0  0  0  0  0  0
   44.4530   30.1430   46.1860 H   0  0  0  0  0  0  0  0  0  0  0  0
   46.5000   28.0090   48.5730 H   0  0  0  0  0  0  0  0  0  0  0  0
   47.5680   28.1620   47.1420 H   0  0  0  0  0  0  0  0  0  0  0  0
   45.1640   31.7300   48.0880 O   0  0  0  0  0  0  0  0  0  0  0  0
   47.3780   32.8490   47.4120 O   0  0  0  0  0  0  0  0  0  0  0  0
   46.0570   32.3980   46.8520 P   0  0  1  0  0  0  0  0  0  0  0  0
   46.3440   31.2190   45.6700 O   0  0  0  0  0  0  0  0  0  0  0  0
   45.8160   31.4240   44.8580 H   0  0  0  0  0  0  0  0  0  0  0  0
   45.2900   33.7640   46.1670 O   0  0  0  0  0  0  0  0  0  0  0  0
   45.2190   35.8660   43.2920 C   0  0  0  0  0  0  0  0  0  0  0  0
   46.2760   35.3760   42.4700 C   0  0  0  0  0  0  0  0  0  0  0  0
   47.0110   34.2790   42.9690 C   0  0  0  0  0  0  0  0  0  0  0  0
   46.6670   33.7760   44.1750 N   0  0  0  0  0  0  0  0  0  0  0  0
   45.6550   34.2770   44.9170 C   0  0  0  0  0  0  0  0  0  0  0  0
   44.9400   35.3220   44.4640 N   0  0  0  0  0  0  0  0  0  0  0  0
   46.5300   35.7930   41.5160 H   0  0  0  0  0  0  0  0  0  0  0  0
   47.8280   33.8480   42.4070 H   0  0  0  0  0  0  0  0  0  0  0  0
   44.5110   36.9380   42.7950 O   0  0  0  0  0  0  0  0  0  0  0  0
   45.0780   37.7250   42.4450 H   0  0  0  0  0  0  0  0  0  0  0  0
   47.5410   30.0870   49.2430 O   0  0  0  0  0  0  0  0  0  0  0  0
   49.4460   31.2840   51.2160 H   0  0  0  0  0  0  0  0  0  0  0  0
   49.2760   30.4170   50.6640 N   0  0  0  0  0  0  0  0  0  0  0  0
   50.4240   29.5780   50.5290 C   0  0  0  0  0  2  0  0  0  0  0  0
   50.9140   29.7050   49.1060 C   0  0  0  0  0  2  0  0  0  0  0  0
   49.6630   30.0500   48.3340 C   0  0  0  0  0  2  0  0  0  0  0  0
   48.7150   30.6750   49.3660 C   0  0  1  0  0  3  0  0  0  0  0  0
  1  6  1  6  0  0  0
  1  2  1  0  0  0  0
  1 28  1  0  0  0  0
  2  7  1  1  0  0  0
  3  8  1  0  0  0  0
  3  2  1  0  0  0  0
  4  3  1  0  0  0  0
  4  5  1  0  0  0  0
  5  1  1  0  0  0  0
  5 10  1  0  0  0  0
  9  3  1  0  0  0  0
 11  5  1  0  0  0  0
 12  2  1  0  0  0  0
 14 13  2  1  0  0  0
 14 12  1  0  0  0  0
 15 14  1  0  0  0  0
 16 15  1  0  0  0  0
 17 14  1  0  0  0  0
 18 23  1  0  0  0  0
 19 20  1  0  0  0  0
 19 18  2  0  0  0  0
 20 21  2  0  0  0  0
 21 22  1  0  0  0  0
 22 17  1  0  0  0  0
 23 22  2  0  0  0  0
 24 19  1  0  0  0  0
 25 20  1  0  0  0  0
 26 18  1  0  0  0  0
 27 26  1  0  0  0  0
 30 29  1  0  0  0  0
 31 30  1  0  0  0  0
 32 31  1  0  0  0  0
 33 32  1  0  0  0  0
 33 34  1  0  0  0  0
 34 28  1  1  0  0  0
 34 30  1  0  0  0  0
M  END
>  <minimizedAffinity>
-5.05923271

>  <minimizedRMSD>
0.184979409

$$$$
