
 OpenBabel03242520013D

 27 29  0  0  0  0  0  0  0  0999 V2000
   36.9090   28.0170   39.1450 Br  0  0  0  0  0  0  0  0  0  0  0  0
   37.3970   27.8470   40.9720 C   0  0  0  0  0  0  0  0  0  0  0  0
   37.6970   26.6350   41.5510 C   0  0  0  0  0  0  0  0  0  0  0  0
   38.0180   26.6110   42.8990 C   0  0  0  0  0  0  0  0  0  0  0  0
   38.0480   27.7480   43.6780 C   0  0  0  0  0  0  0  0  0  0  0  0
   37.7460   28.9810   43.0970 C   0  0  0  0  0  0  0  0  0  0  0  0
   37.4300   28.9710   41.7520 C   0  0  0  0  0  0  0  0  0  0  0  0
   38.2380   25.6170   43.2610 H   0  0  0  0  0  0  0  0  0  0  0  0
   38.3080   27.6520   44.7240 H   0  0  0  0  0  0  0  0  0  0  0  0
   37.7750   29.8540   43.7200 H   0  0  0  0  0  0  0  0  0  0  0  0
   36.6260   23.4860   39.7450 C   0  0  0  0  0  0  0  0  0  0  0  0
   36.5920   24.6110   40.5900 C   0  0  0  0  0  0  0  0  0  0  0  0
   37.6700   25.4540   40.6940 C   0  0  0  0  0  0  0  0  0  0  0  0
   38.7490   25.1050   39.9180 N   0  0  0  0  0  0  0  0  0  0  0  0
   38.7730   24.0390   39.1210 C   0  0  0  0  0  0  0  0  0  0  0  0
   37.7300   23.2330   39.0270 N   0  0  0  0  0  0  0  0  0  0  0  0
   35.7460   22.8580   39.7020 H   0  0  0  0  0  0  0  0  0  0  0  0
   35.7400   24.8820   41.1970 H   0  0  0  0  0  0  0  0  0  0  0  0
   39.7150   23.9400   38.5970 H   0  0  0  0  0  0  0  0  0  0  0  0
   37.1570   30.2710   41.1840 C   0  0  0  0  0  0  0  0  0  0  0  0
   35.9560   30.7330   41.1410 O   0  0  0  0  0  0  0  0  0  0  0  0
   37.8960   31.3260   40.5860 N   0  0  0  0  0  0  0  0  0  0  0  0
   37.5700   31.6870   39.2210 C   0  0  0  0  0  2  0  0  0  0  0  0
   37.2770   33.1710   39.1990 C   0  0  0  0  0  2  0  0  0  0  0  0
   38.2050   33.6640   40.2760 C   0  0  0  0  0  2  0  0  0  0  0  0
   38.9360   32.3640   40.6440 C   0  0  0  0  0  3  0  0  0  0  0  0
   39.2890   32.5540   41.6770 H   0  0  0  0  0  0  0  0  0  0  0  0
  1  2  1  0  0  0  0
  2  3  2  0  0  0  0
  2  7  1  0  0  0  0
  3  4  1  0  0  0  0
  4  8  1  0  0  0  0
  4  5  2  0  0  0  0
  5  9  1  0  0  0  0
  6  5  1  0  0  0  0
  6 10  1  0  0  0  0
  7  6  2  0  0  0  0
 11 12  1  0  0  0  0
 12 13  2  0  0  0  0
 12 18  1  0  0  0  0
 13  3  1  0  0  0  0
 14 13  1  0  0  0  0
 15 14  2  0  0  0  0
 16 15  1  0  0  0  0
 16 11  2  0  0  0  0
 17 11  1  0  0  0  0
 19 15  1  0  0  0  0
 20  7  1  0  0  0  0
 21 20  2  0  0  0  0
 22 26  1  0  0  0  0
 22 20  1  0  0  0  0
 23 22  1  0  0  0  0
 24 23  1  0  0  0  0
 24 25  1  0  0  0  0
 25 26  1  0  0  0  0
 26 27  1  0  0  0  0
M  END
>  <minimizedAffinity>
-5.3657794

$$$$

 OpenBabel03242520013D

 27 29  0  0  0  0  0  0  0  0999 V2000
   40.0680   29.7750   41.8180 Br  0  0  0  0  0  0  0  0  0  0  0  0
   38.2680   29.8450   41.2170 C   0  0  0  0  0  0  0  0  0  0  0  0
   37.7670   30.9030   40.4950 C   0  0  0  0  0  0  0  0  0  0  0  0
   36.4320   30.8720   40.1220 C   0  0  0  0  0  0  0  0  0  0  0  0
   35.5930   29.8280   40.4450 C   0  0  0  0  0  0  0  0  0  0  0  0
   36.0950   28.7500   41.1760 C   0  0  0  0  0  0  0  0  0  0  0  0
   37.4290   28.8110   41.5320 C   0  0  0  0  0  0  0  0  0  0  0  0
   36.1330   31.7450   39.5600 H   0  0  0  0  0  0  0  0  0  0  0  0
   34.5610   29.8730   40.1200 H   0  0  0  0  0  0  0  0  0  0  0  0
   35.4260   27.9470   41.4170 H   0  0  0  0  0  0  0  0  0  0  0  0
   39.6930   34.1610   40.4950 C   0  0  0  0  0  0  0  0  0  0  0  0
   38.7850   33.1530   40.8700 C   0  0  0  0  0  0  0  0  0  0  0  0
   38.6870   31.9840   40.1580 C   0  0  0  0  0  0  0  0  0  0  0  0
   39.5350   31.8960   39.0790 N   0  0  0  0  0  0  0  0  0  0  0  0
   40.3910   32.8540   38.7320 C   0  0  0  0  0  0  0  0  0  0  0  0
   40.4780   33.9770   39.4230 N   0  0  0  0  0  0  0  0  0  0  0  0
   39.7270   35.0610   41.0950 H   0  0  0  0  0  0  0  0  0  0  0  0
   38.1210   33.2270   41.7190 H   0  0  0  0  0  0  0  0  0  0  0  0
   40.9670   32.5910   37.8540 H   0  0  0  0  0  0  0  0  0  0  0  0
   37.9150   27.6610   42.2580 C   0  0  0  0  0  0  0  0  0  0  0  0
   37.8200   27.6010   43.5410 O   0  0  0  0  0  0  0  0  0  0  0  0
   38.5420   26.4220   41.9550 N   0  0  0  0  0  0  0  0  0  0  0  0
   39.8530   26.1750   42.5220 C   0  0  0  0  0  2  0  0  0  0  0  0
   39.7870   24.8600   43.2670 C   0  0  0  0  0  2  0  0  0  0  0  0
   38.7880   24.1050   42.4300 C   0  0  0  0  0  2  0  0  0  0  0  0
   38.5470   25.1090   41.2940 C   0  0  0  0  0  3  0  0  0  0  0  0
   37.5480   24.8240   40.9100 H   0  0  0  0  0  0  0  0  0  0  0  0
  2  7  1  0  0  0  0
  2  1  1  0  0  0  0
  3  2  2  0  0  0  0
  4  5  2  0  0  0  0
  4  3  1  0  0  0  0
  5  6  1  0  0  0  0
  6 10  1  0  0  0  0
  6  7  2  0  0  0  0
  7 20  1  0  0  0  0
  8  4  1  0  0  0  0
  9  5  1  0  0  0  0
 11 12  1  0  0  0  0
 11 17  1  0  0  0  0
 12 18  1  0  0  0  0
 13  3  1  0  0  0  0
 13 12  2  0  0  0  0
 14 13  1  0  0  0  0
 15 14  2  0  0  0  0
 15 16  1  0  0  0  0
 16 11  2  0  0  0  0
 19 15  1  0  0  0  0
 20 21  2  0  0  0  0
 22 20  1  0  0  0  0
 22 23  1  0  0  0  0
 23 24  1  0  0  0  0
 25 24  1  0  0  0  0
 26 22  1  0  0  0  0
 26 25  1  0  0  0  0
 27 26  1  0  0  0  0
M  END
>  <minimizedAffinity>
-5.33137131

$$$$

 OpenBabel03242520013D

 27 29  0  0  0  0  0  0  0  0999 V2000
   38.0350   27.0530   39.0830 Br  0  0  0  0  0  0  0  0  0  0  0  0
   37.5320   27.1580   40.9110 C   0  0  0  0  0  0  0  0  0  0  0  0
   37.1870   26.0510   41.6510 C   0  0  0  0  0  0  0  0  0  0  0  0
   36.8100   26.2340   42.9720 C   0  0  0  0  0  0  0  0  0  0  0  0
   36.7690   27.4750   43.5700 C   0  0  0  0  0  0  0  0  0  0  0  0
   37.1200   28.6030   42.8260 C   0  0  0  0  0  0  0  0  0  0  0  0
   37.4900   28.3870   41.5120 C   0  0  0  0  0  0  0  0  0  0  0  0
   36.5580   25.3080   43.4690 H   0  0  0  0  0  0  0  0  0  0  0  0
   36.4650   27.5400   44.6070 H   0  0  0  0  0  0  0  0  0  0  0  0
   37.0810   29.5600   43.3090 H   0  0  0  0  0  0  0  0  0  0  0  0
   38.3490   22.6720   40.4040 C   0  0  0  0  0  0  0  0  0  0  0  0
   38.3410   23.9150   41.0640 C   0  0  0  0  0  0  0  0  0  0  0  0
   37.2560   24.7510   40.9900 C   0  0  0  0  0  0  0  0  0  0  0  0
   36.2120   24.2730   40.2360 N   0  0  0  0  0  0  0  0  0  0  0  0
   36.2270   23.0950   39.6150 C   0  0  0  0  0  0  0  0  0  0  0  0
   37.2760   22.2970   39.6920 N   0  0  0  0  0  0  0  0  0  0  0  0
   39.2320   22.0540   40.4980 H   0  0  0  0  0  0  0  0  0  0  0  0
   39.1650   24.2860   41.6560 H   0  0  0  0  0  0  0  0  0  0  0  0
   35.3090   22.9050   39.0740 H   0  0  0  0  0  0  0  0  0  0  0  0
   37.8770   29.5760   40.7890 C   0  0  0  0  0  0  0  0  0  0  0  0
   39.0450   30.0940   40.9480 O   0  0  0  0  0  0  0  0  0  0  0  0
   37.2950   30.4570   39.8380 N   0  0  0  0  0  0  0  0  0  0  0  0
   37.1540   31.8500   40.2100 C   0  0  0  0  0  2  0  0  0  0  0  0
   37.8230   32.6790   39.1350 C   0  0  0  0  0  2  0  0  0  0  0  0
   37.5660   31.8330   37.9170 C   0  0  0  0  0  2  0  0  0  0  0  0
   36.7000   30.7160   38.5190 C   0  0  0  0  0  3  0  0  0  0  0  0
   36.8440   29.8740   37.8150 H   0  0  0  0  0  0  0  0  0  0  0  0
  1  2  1  0  0  0  0
  2  7  2  0  0  0  0
  2  3  1  0  0  0  0
  3  4  2  0  0  0  0
  4  8  1  0  0  0  0
  4  5  1  0  0  0  0
  5  9  1  0  0  0  0
  6 10  1  0  0  0  0
  6  5  2  0  0  0  0
  7  6  1  0  0  0  0
 11 17  1  0  0  0  0
 11 12  1  0  0  0  0
 12 18  1  0  0  0  0
 13 12  2  0  0  0  0
 13  3  1  0  0  0  0
 14 13  1  0  0  0  0
 15 16  1  0  0  0  0
 15 14  2  0  0  0  0
 16 11  2  0  0  0  0
 19 15  1  0  0  0  0
 20 21  2  0  0  0  0
 20  7  1  0  0  0  0
 22 23  1  0  0  0  0
 22 20  1  0  0  0  0
 24 23  1  0  0  0  0
 25 26  1  0  0  0  0
 25 24  1  0  0  0  0
 26 22  1  0  0  0  0
 27 26  1  0  0  0  0
M  END
>  <minimizedAffinity>
-5.19665003

$$$$

 OpenBabel03242520013D

 27 29  0  0  0  0  0  0  0  0999 V2000
   40.8440   30.1550   40.0680 Br  0  0  0  0  0  0  0  0  0  0  0  0
   39.3280   31.2900   39.9220 C   0  0  0  0  0  0  0  0  0  0  0  0
   39.4160   32.5920   39.4870 C   0  0  0  0  0  0  0  0  0  0  0  0
   38.2550   33.3490   39.4380 C   0  0  0  0  0  0  0  0  0  0  0  0
   37.0240   32.8490   39.8070 C   0  0  0  0  0  0  0  0  0  0  0  0
   36.9280   31.5280   40.2480 C   0  0  0  0  0  0  0  0  0  0  0  0
   38.1030   30.8010   40.2850 C   0  0  0  0  0  0  0  0  0  0  0  0
   38.4250   34.3550   39.0840 H   0  0  0  0  0  0  0  0  0  0  0  0
   36.1610   33.4990   39.7420 H   0  0  0  0  0  0  0  0  0  0  0  0
   35.9620   31.1590   40.5300 H   0  0  0  0  0  0  0  0  0  0  0  0
   42.8880   34.0960   39.5200 C   0  0  0  0  0  0  0  0  0  0  0  0
   41.6320   33.6400   39.9630 C   0  0  0  0  0  0  0  0  0  0  0  0
   40.7310   33.0830   39.0900 C   0  0  0  0  0  0  0  0  0  0  0  0
   41.1600   33.0160   37.7870 N   0  0  0  0  0  0  0  0  0  0  0  0
   42.3500   33.4500   37.3760 C   0  0  0  0  0  0  0  0  0  0  0  0
   43.2110   33.9850   38.2230 N   0  0  0  0  0  0  0  0  0  0  0  0
   43.5580   34.5260   40.2530 H   0  0  0  0  0  0  0  0  0  0  0  0
   41.3000   33.6950   40.9890 H   0  0  0  0  0  0  0  0  0  0  0  0
   42.4940   33.3070   36.3130 H   0  0  0  0  0  0  0  0  0  0  0  0
   37.9530   29.4300   40.7150 C   0  0  0  0  0  0  0  0  0  0  0  0
   37.7360   28.4900   39.8620 O   0  0  0  0  0  0  0  0  0  0  0  0
   37.9750   28.7110   41.9400 N   0  0  0  0  0  0  0  0  0  0  0  0
   36.7780   27.9880   42.3180 C   0  0  0  0  0  2  0  0  0  0  0  0
   37.1760   26.5520   42.5790 C   0  0  0  0  0  2  0  0  0  0  0  0
   38.5700   26.7330   43.1200 C   0  0  0  0  0  2  0  0  0  0  0  0
   38.6660   28.2650   43.1590 C   0  0  0  0  0  3  0  0  0  0  0  0
   39.7580   28.4520   43.1210 H   0  0  0  0  0  0  0  0  0  0  0  0
  2  1  1  0  0  0  0
  2  7  1  0  0  0  0
  3  2  2  0  0  0  0
  4  3  1  0  0  0  0
  4  5  2  0  0  0  0
  5  6  1  0  0  0  0
  6  7  2  0  0  0  0
  6 10  1  0  0  0  0
  7 20  1  0  0  0  0
  8  4  1  0  0  0  0
  9  5  1  0  0  0  0
 11 12  1  0  0  0  0
 11 17  1  0  0  0  0
 12 18  1  0  0  0  0
 13  3  1  0  0  0  0
 13 12  2  0  0  0  0
 14 13  1  0  0  0  0
 15 14  2  0  0  0  0
 15 16  1  0  0  0  0
 16 11  2  0  0  0  0
 19 15  1  0  0  0  0
 20 22  1  0  0  0  0
 21 20  2  0  0  0  0
 22 23  1  0  0  0  0
 22 26  1  0  0  0  0
 23 24  1  0  0  0  0
 24 25  1  0  0  0  0
 25 26  1  0  0  0  0
 27 26  1  0  0  0  0
M  END
>  <minimizedAffinity>
-5.12932968

$$$$

 OpenBabel03242520013D

 27 29  0  0  0  0  0  0  0  0999 V2000
   38.3140   28.2170   39.2120 Br  0  0  0  0  0  0  0  0  0  0  0  0
   37.7800   28.0530   41.0260 C   0  0  0  0  0  0  0  0  0  0  0  0
   37.6920   29.1320   41.8750 C   0  0  0  0  0  0  0  0  0  0  0  0
   37.3160   28.9060   43.1900 C   0  0  0  0  0  0  0  0  0  0  0  0
   37.0290   27.6480   43.6770 C   0  0  0  0  0  0  0  0  0  0  0  0
   37.1140   26.5500   42.8210 C   0  0  0  0  0  0  0  0  0  0  0  0
   37.4910   26.8080   41.5160 C   0  0  0  0  0  0  0  0  0  0  0  0
   37.2760   29.8120   43.7770 H   0  0  0  0  0  0  0  0  0  0  0  0
   36.7420   27.5490   44.7160 H   0  0  0  0  0  0  0  0  0  0  0  0
   36.8870   25.5800   43.2190 H   0  0  0  0  0  0  0  0  0  0  0  0
   37.4050   32.5070   40.1870 C   0  0  0  0  0  0  0  0  0  0  0  0
   37.0580   31.2440   40.7010 C   0  0  0  0  0  0  0  0  0  0  0  0
   37.9890   30.4490   41.3220 C   0  0  0  0  0  0  0  0  0  0  0  0
   39.2500   30.9900   41.3930 N   0  0  0  0  0  0  0  0  0  0  0  0
   39.5700   32.1870   40.9040 C   0  0  0  0  0  0  0  0  0  0  0  0
   38.6670   32.9440   40.3080 N   0  0  0  0  0  0  0  0  0  0  0  0
   36.6300   33.0900   39.7080 H   0  0  0  0  0  0  0  0  0  0  0  0
   36.0640   30.8230   40.6440 H   0  0  0  0  0  0  0  0  0  0  0  0
   40.6140   32.4270   41.0610 H   0  0  0  0  0  0  0  0  0  0  0  0
   37.5350   25.6480   40.6570 C   0  0  0  0  0  0  0  0  0  0  0  0
   36.4850   25.2570   40.0230 O   0  0  0  0  0  0  0  0  0  0  0  0
   38.4980   24.6890   40.2440 N   0  0  0  0  0  0  0  0  0  0  0  0
   38.2410   23.2980   40.5580 C   0  0  0  0  0  2  0  0  0  0  0  0
   38.3220   22.5170   39.2650 C   0  0  0  0  0  2  0  0  0  0  0  0
   39.3680   23.3020   38.5190 C   0  0  0  0  0  2  0  0  0  0  0  0
   39.7630   24.3370   39.5820 C   0  0  0  0  0  3  0  0  0  0  0  0
   40.1760   25.1730   38.9830 H   0  0  0  0  0  0  0  0  0  0  0  0
  1  2  1  0  0  0  0
  2  7  2  0  0  0  0
  2  3  1  0  0  0  0
  3  4  2  0  0  0  0
  4  5  1  0  0  0  0
  4  8  1  0  0  0  0
  5  9  1  0  0  0  0
  6 10  1  0  0  0  0
  6  5  2  0  0  0  0
  7  6  1  0  0  0  0
 11 16  2  0  0  0  0
 11 12  1  0  0  0  0
 12 13  2  0  0  0  0
 13 14  1  0  0  0  0
 13  3  1  0  0  0  0
 15 19  1  0  0  0  0
 15 14  2  0  0  0  0
 16 15  1  0  0  0  0
 17 11  1  0  0  0  0
 18 12  1  0  0  0  0
 20  7  1  0  0  0  0
 21 20  2  0  0  0  0
 22 23  1  0  0  0  0
 22 20  1  0  0  0  0
 24 23  1  0  0  0  0
 25 24  1  0  0  0  0
 25 26  1  0  0  0  0
 26 22  1  0  0  0  0
 27 26  1  0  0  0  0
M  END
>  <minimizedAffinity>
-5.09513712

$$$$

 OpenBabel03242520013D

 27 29  0  0  0  0  0  0  0  0999 V2000
   40.5630   29.8120   40.8490 Br  0  0  0  0  0  0  0  0  0  0  0  0
   39.0880   30.9470   40.4720 C   0  0  0  0  0  0  0  0  0  0  0  0
   37.7990   30.6350   40.8380 C   0  0  0  0  0  0  0  0  0  0  0  0
   36.7860   31.5170   40.4950 C   0  0  0  0  0  0  0  0  0  0  0  0
   37.0190   32.6880   39.8070 C   0  0  0  0  0  0  0  0  0  0  0  0
   38.3240   33.0120   39.4340 C   0  0  0  0  0  0  0  0  0  0  0  0
   39.3120   32.1120   39.7910 C   0  0  0  0  0  0  0  0  0  0  0  0
   35.8110   31.1850   40.8250 H   0  0  0  0  0  0  0  0  0  0  0  0
   36.1780   33.3280   39.5740 H   0  0  0  0  0  0  0  0  0  0  0  0
   38.4850   33.9270   38.8990 H   0  0  0  0  0  0  0  0  0  0  0  0
   37.0250   27.0470   41.7630 C   0  0  0  0  0  0  0  0  0  0  0  0
   37.2100   28.2120   40.9950 C   0  0  0  0  0  0  0  0  0  0  0  0
   37.5900   29.3950   41.5790 C   0  0  0  0  0  0  0  0  0  0  0  0
   37.7660   29.3330   42.9400 N   0  0  0  0  0  0  0  0  0  0  0  0
   37.5890   28.2270   43.6600 C   0  0  0  0  0  0  0  0  0  0  0  0
   37.2230   27.0930   43.0890 N   0  0  0  0  0  0  0  0  0  0  0  0
   36.7260   26.1440   41.2490 H   0  0  0  0  0  0  0  0  0  0  0  0
   37.0710   28.2550   39.9250 H   0  0  0  0  0  0  0  0  0  0  0  0
   37.7770   28.3890   44.7130 H   0  0  0  0  0  0  0  0  0  0  0  0
   40.6510   32.5020   39.4150 C   0  0  0  0  0  0  0  0  0  0  0  0
   41.4330   33.0770   40.2620 O   0  0  0  0  0  0  0  0  0  0  0  0
   41.4720   32.4370   38.2580 N   0  0  0  0  0  0  0  0  0  0  0  0
   41.9470   33.6870   37.6990 C   0  0  0  0  0  2  0  0  0  0  0  0
   43.4540   33.5970   37.5970 C   0  0  0  0  0  2  0  0  0  0  0  0
   43.6370   32.1280   37.3230 C   0  0  0  0  0  2  0  0  0  0  0  0
   42.1750   31.6690   37.2190 C   0  0  0  0  0  3  0  0  0  0  0  0
   42.2300   30.5880   37.4540 H   0  0  0  0  0  0  0  0  0  0  0  0
  2  3  1  0  0  0  0
  2  1  1  0  0  0  0
  3 13  1  0  0  0  0
  4  8  1  0  0  0  0
  4  3  2  0  0  0  0
  5  4  1  0  0  0  0
  6  7  1  0  0  0  0
  6  5  2  0  0  0  0
  7  2  2  0  0  0  0
  9  5  1  0  0  0  0
 10  6  1  0  0  0  0
 11 16  1  0  0  0  0
 12 13  1  0  0  0  0
 12 11  2  0  0  0  0
 13 14  2  0  0  0  0
 14 15  1  0  0  0  0
 15 19  1  0  0  0  0
 16 15  2  0  0  0  0
 17 11  1  0  0  0  0
 18 12  1  0  0  0  0
 20  7  1  0  0  0  0
 20 21  2  0  0  0  0
 22 20  1  0  0  0  0
 23 22  1  0  0  0  0
 24 23  1  0  0  0  0
 25 24  1  0  0  0  0
 26 25  1  0  0  0  0
 26 27  1  0  0  0  0
 26 22  1  0  0  0  0
M  END
>  <minimizedAffinity>
-5.0308547

$$$$

 OpenBabel03242520013D

 27 29  0  0  0  0  0  0  0  0999 V2000
   40.4950   30.8950   40.7140 Br  0  0  0  0  0  0  0  0  0  0  0  0
   39.1550   30.9610   39.3700 C   0  0  0  0  0  0  0  0  0  0  0  0
   39.3620   31.5480   38.1430 C   0  0  0  0  0  0  0  0  0  0  0  0
   38.3130   31.5670   37.2370 C   0  0  0  0  0  0  0  0  0  0  0  0
   37.0780   31.0240   37.5170 C   0  0  0  0  0  0  0  0  0  0  0  0
   36.8610   30.4260   38.7590 C   0  0  0  0  0  0  0  0  0  0  0  0
   37.9260   30.4230   39.6400 C   0  0  0  0  0  0  0  0  0  0  0  0
   38.5730   32.0480   36.3050 H   0  0  0  0  0  0  0  0  0  0  0  0
   36.3060   31.0760   36.7600 H   0  0  0  0  0  0  0  0  0  0  0  0
   35.8920   30.0090   38.9570 H   0  0  0  0  0  0  0  0  0  0  0  0
   42.9500   31.9890   37.0230 C   0  0  0  0  0  0  0  0  0  0  0  0
   41.6920   31.4020   37.2540 C   0  0  0  0  0  0  0  0  0  0  0  0
   40.6870   32.0990   37.8750 C   0  0  0  0  0  0  0  0  0  0  0  0
   41.0170   33.3830   38.2380 N   0  0  0  0  0  0  0  0  0  0  0  0
   42.2100   33.9310   38.0160 C   0  0  0  0  0  0  0  0  0  0  0  0
   43.1720   33.2520   37.4170 N   0  0  0  0  0  0  0  0  0  0  0  0
   43.7040   31.3920   36.5280 H   0  0  0  0  0  0  0  0  0  0  0  0
   41.4380   30.3920   36.9660 H   0  0  0  0  0  0  0  0  0  0  0  0
   42.2670   34.9490   38.3780 H   0  0  0  0  0  0  0  0  0  0  0  0
   37.6690   29.7650   40.9000 C   0  0  0  0  0  0  0  0  0  0  0  0
   37.1830   30.4180   41.8980 O   0  0  0  0  0  0  0  0  0  0  0  0
   37.8020   28.4590   41.4430 N   0  0  0  0  0  0  0  0  0  0  0  0
   38.6700   28.2930   42.5910 C   0  0  0  0  0  2  0  0  0  0  0  0
   37.8620   27.6210   43.6800 C   0  0  0  0  0  2  0  0  0  0  0  0
   36.9400   26.7560   42.8620 C   0  0  0  0  0  2  0  0  0  0  0  0
   37.4720   27.0260   41.4470 C   0  0  0  0  0  3  0  0  0  0  0  0
   36.6050   26.7890   40.7990 H   0  0  0  0  0  0  0  0  0  0  0  0
  2  7  1  0  0  0  0
  2  1  1  0  0  0  0
  3  2  2  0  0  0  0
  4  5  2  0  0  0  0
  4  3  1  0  0  0  0
  5  6  1  0  0  0  0
  6 10  1  0  0  0  0
  6  7  2  0  0  0  0
  7 20  1  0  0  0  0
  8  4  1  0  0  0  0
  9  5  1  0  0  0  0
 11 12  2  0  0  0  0
 11 16  1  0  0  0  0
 12 13  1  0  0  0  0
 13  3  1  0  0  0  0
 13 14  2  0  0  0  0
 15 14  1  0  0  0  0
 15 19  1  0  0  0  0
 16 15  2  0  0  0  0
 17 11  1  0  0  0  0
 18 12  1  0  0  0  0
 20 22  1  0  0  0  0
 20 21  2  0  0  0  0
 22 26  1  0  0  0  0
 22 23  1  0  0  0  0
 23 24  1  0  0  0  0
 25 24  1  0  0  0  0
 26 25  1  0  0  0  0
 27 26  1  0  0  0  0
M  END
>  <minimizedAffinity>
-5.02637005

$$$$

 OpenBabel03242520013D

 27 29  0  0  0  0  0  0  0  0999 V2000
   40.5510   29.2970   40.4410 Br  0  0  0  0  0  0  0  0  0  0  0  0
   38.8070   30.0390   40.5630 C   0  0  0  0  0  0  0  0  0  0  0  0
   38.4770   31.2540   40.0090 C   0  0  0  0  0  0  0  0  0  0  0  0
   37.1830   31.7220   40.1740 C   0  0  0  0  0  0  0  0  0  0  0  0
   36.2190   31.0210   40.8660 C   0  0  0  0  0  0  0  0  0  0  0  0
   36.5470   29.7870   41.4300 C   0  0  0  0  0  0  0  0  0  0  0  0
   37.8450   29.3480   41.2480 C   0  0  0  0  0  0  0  0  0  0  0  0
   37.0210   32.6820   39.7040 H   0  0  0  0  0  0  0  0  0  0  0  0
   35.2290   31.4500   40.9540 H   0  0  0  0  0  0  0  0  0  0  0  0
   35.7830   29.2570   41.9650 H   0  0  0  0  0  0  0  0  0  0  0  0
   41.2510   33.6360   39.0300 C   0  0  0  0  0  0  0  0  0  0  0  0
   40.2600   32.9910   39.7940 C   0  0  0  0  0  0  0  0  0  0  0  0
   39.5170   31.9620   39.2700 C   0  0  0  0  0  0  0  0  0  0  0  0
   39.8250   31.6340   37.9720 N   0  0  0  0  0  0  0  0  0  0  0  0
   40.7640   32.2500   37.2560 C   0  0  0  0  0  0  0  0  0  0  0  0
   41.4740   33.2390   37.7690 N   0  0  0  0  0  0  0  0  0  0  0  0
   41.8050   34.4400   39.4960 H   0  0  0  0  0  0  0  0  0  0  0  0
   40.0220   33.2520   40.8150 H   0  0  0  0  0  0  0  0  0  0  0  0
   40.8510   31.8430   36.2570 H   0  0  0  0  0  0  0  0  0  0  0  0
   38.1320   28.0520   41.8180 C   0  0  0  0  0  0  0  0  0  0  0  0
   38.6700   27.9480   42.9840 O   0  0  0  0  0  0  0  0  0  0  0  0
   37.9830   26.6900   41.4440 N   0  0  0  0  0  0  0  0  0  0  0  0
   39.1840   25.8840   41.3470 C   0  0  0  0  0  2  0  0  0  0  0  0
   38.9870   24.6660   42.2220 C   0  0  0  0  0  2  0  0  0  0  0  0
   37.5030   24.4510   42.0870 C   0  0  0  0  0  2  0  0  0  0  0  0
   37.1450   25.5420   41.0670 C   0  0  0  0  0  3  0  0  0  0  0  0
   36.0690   25.7230   41.2540 H   0  0  0  0  0  0  0  0  0  0  0  0
  1  2  1  0  0  0  0
  2  7  1  0  0  0  0
  3  4  1  0  0  0  0
  3  2  2  0  0  0  0
  4  5  2  0  0  0  0
  5  9  1  0  0  0  0
  5  6  1  0  0  0  0
  6 10  1  0  0  0  0
  7  6  2  0  0  0  0
  7 20  1  0  0  0  0
  8  4  1  0  0  0  0
 11 17  1  0  0  0  0
 11 12  1  0  0  0  0
 12 18  1  0  0  0  0
 13 12  2  0  0  0  0
 13  3  1  0  0  0  0
 14 13  1  0  0  0  0
 15 16  1  0  0  0  0
 15 14  2  0  0  0  0
 16 11  2  0  0  0  0
 19 15  1  0  0  0  0
 20 21  2  0  0  0  0
 22 20  1  0  0  0  0
 23 22  1  0  0  0  0
 23 24  1  0  0  0  0
 25 24  1  0  0  0  0
 26 27  1  0  0  0  0
 26 22  1  0  0  0  0
 26 25  1  0  0  0  0
M  END
>  <minimizedAffinity>
-4.99033689

$$$$

 OpenBabel03242520013D

 27 29  0  0  0  0  0  0  0  0999 V2000
   39.0690   27.3200   39.5450 Br  0  0  0  0  0  0  0  0  0  0  0  0
   38.2080   27.5070   41.2270 C   0  0  0  0  0  0  0  0  0  0  0  0
   37.4480   26.5060   41.7880 C   0  0  0  0  0  0  0  0  0  0  0  0
   36.8390   26.7480   43.0090 C   0  0  0  0  0  0  0  0  0  0  0  0
   36.9640   27.9460   43.6790 C   0  0  0  0  0  0  0  0  0  0  0  0
   37.7340   28.9650   43.1170 C   0  0  0  0  0  0  0  0  0  0  0  0
   38.3280   28.6930   41.8990 C   0  0  0  0  0  0  0  0  0  0  0  0
   36.2660   25.9050   43.3670 H   0  0  0  0  0  0  0  0  0  0  0  0
   36.4590   28.0620   44.6300 H   0  0  0  0  0  0  0  0  0  0  0  0
   37.8190   29.8900   43.6540 H   0  0  0  0  0  0  0  0  0  0  0  0
   37.9680   22.9500   40.6010 C   0  0  0  0  0  0  0  0  0  0  0  0
   38.1090   24.1390   41.3420 C   0  0  0  0  0  0  0  0  0  0  0  0
   37.3500   25.2460   41.0580 C   0  0  0  0  0  0  0  0  0  0  0  0
   36.4690   25.0870   40.0150 N   0  0  0  0  0  0  0  0  0  0  0  0
   36.3420   23.9590   39.3200 C   0  0  0  0  0  0  0  0  0  0  0  0
   37.0770   22.8980   39.6010 N   0  0  0  0  0  0  0  0  0  0  0  0
   38.5920   22.1090   40.8710 H   0  0  0  0  0  0  0  0  0  0  0  0
   38.8030   24.2580   42.1610 H   0  0  0  0  0  0  0  0  0  0  0  0
   35.5950   24.0400   38.5410 H   0  0  0  0  0  0  0  0  0  0  0  0
   39.1420   29.7620   41.3700 C   0  0  0  0  0  0  0  0  0  0  0  0
   40.3840   29.8690   41.6940 O   0  0  0  0  0  0  0  0  0  0  0  0
   38.9750   30.8670   40.4930 N   0  0  0  0  0  0  0  0  0  0  0  0
   39.2180   32.1920   41.0260 C   0  0  0  0  0  2  0  0  0  0  0  0
   40.2330   32.8650   40.1280 C   0  0  0  0  0  2  0  0  0  0  0  0
   39.8810   32.2630   38.7930 C   0  0  0  0  0  2  0  0  0  0  0  0
   38.6510   31.4250   39.1710 C   0  0  0  0  0  3  0  0  0  0  0  0
   38.6180   30.6500   38.3800 H   0  0  0  0  0  0  0  0  0  0  0  0
  1  2  1  0  0  0  0
  2  3  2  0  0  0  0
  2  7  1  0  0  0  0
  3  4  1  0  0  0  0
  4  8  1  0  0  0  0
  4  5  2  0  0  0  0
  5  9  1  0  0  0  0
  6 10  1  0  0  0  0
  6  5  1  0  0  0  0
  7  6  2  0  0  0  0
 11 17  1  0  0  0  0
 11 12  1  0  0  0  0
 12 18  1  0  0  0  0
 13 12  2  0  0  0  0
 13  3  1  0  0  0  0
 14 13  1  0  0  0  0
 15 16  1  0  0  0  0
 15 14  2  0  0  0  0
 16 11  2  0  0  0  0
 19 15  1  0  0  0  0
 20 21  2  0  0  0  0
 20  7  1  0  0  0  0
 22 23  1  0  0  0  0
 22 20  1  0  0  0  0
 24 23  1  0  0  0  0
 25 26  1  0  0  0  0
 25 24  1  0  0  0  0
 26 22  1  0  0  0  0
 27 26  1  0  0  0  0
M  END
>  <minimizedAffinity>
-4.96275616

$$$$
