
 OpenBabel03242511063D

 24 26  0  0  1  0  0  0  0  0999 V2000
   45.7530   32.8900   47.0320 C   0  0  1  0  0  0  0  0  0  0  0  0
   45.8160   31.4080   46.8040 C   0  0  0  0  0  0  0  0  0  0  0  0
   47.0270   32.2080   47.2940 C   0  0  2  0  0  0  0  0  0  0  0  0
   45.1600   33.2590   47.8930 H   0  0  0  0  0  0  0  0  0  0  0  0
   45.7960   31.1280   45.7310 H   0  0  0  0  0  0  0  0  0  0  0  0
   45.2270   30.8180   47.5020 H   0  0  0  0  0  0  0  0  0  0  0  0
   47.7940   32.3880   46.5070 H   0  0  0  0  0  0  0  0  0  0  0  0
   44.5910   35.6360   44.8190 C   0  0  0  0  0  0  0  0  0  0  0  0
   45.3740   35.3890   43.6380 C   0  0  0  0  0  0  0  0  0  0  0  0
   46.2850   34.2860   43.6490 C   0  0  0  0  0  0  0  0  0  0  0  0
   46.3720   33.5310   44.7480 N   0  0  0  0  0  0  0  0  0  0  0  0
   45.6150   33.7920   45.8550 C   0  0  0  0  0  0  0  0  0  0  0  0
   44.7370   34.8360   45.8790 N   0  0  0  0  0  0  0  0  0  0  0  0
   43.9120   36.4750   44.7830 H   0  0  0  0  0  0  0  0  0  0  0  0
   45.3000   36.0020   42.7530 H   0  0  0  0  0  0  0  0  0  0  0  0
   46.8520   34.1390   42.7420 H   0  0  0  0  0  0  0  0  0  0  0  0
   47.5300   31.9280   48.5760 N   0  0  0  0  0  0  0  0  0  0  0  0
   46.8680   31.6660   49.3000 H   0  0  0  0  0  0  0  0  0  0  0  0
   48.9400   32.0340   50.7130 H   0  0  0  0  0  0  0  0  0  0  0  0
   49.4030   31.4280   50.0330 N   0  0  0  0  0  0  0  0  0  0  0  0
   49.6920   30.0900   50.4320 C   0  0  0  0  0  2  0  0  0  0  0  0
   50.1110   29.4560   49.1000 C   0  0  0  0  0  2  0  0  0  0  0  0
   49.0480   30.0190   48.1760 C   0  0  0  0  0  2  0  0  0  0  0  0
   48.8230   31.3890   48.7140 C   0  0  1  0  0  3  0  0  0  0  0  0
  1  3  1  0  0  0  0
  1  4  1  1  0  0  0
  2  1  1  0  0  0  0
  2  3  1  0  0  0  0
  2  6  1  0  0  0  0
  3  7  1  6  0  0  0
  3 17  1  0  0  0  0
  5  2  1  0  0  0  0
  8 13  1  0  0  0  0
  9 10  1  0  0  0  0
  9  8  2  0  0  0  0
 10 11  2  0  0  0  0
 11 12  1  0  0  0  0
 12 13  2  0  0  0  0
 12  1  1  0  0  0  0
 14  8  1  0  0  0  0
 15  9  1  0  0  0  0
 16 10  1  0  0  0  0
 17 18  1  0  0  0  0
 20 21  1  0  0  0  0
 20 19  1  0  0  0  0
 22 21  1  0  0  0  0
 23 24  1  0  0  0  0
 23 22  1  0  0  0  0
 24 17  1  1  0  0  0
 24 20  1  0  0  0  0
M  END
>  <minimizedAffinity>
-4.61834574

>  <minimizedRMSD>
3.46486378

$$$$
