
 OpenBabel03252506223D

 32 34  0  0  1  0  0  0  0  0999 V2000
   34.1450   28.1830   37.5120 C   0  0  0  0  0  0  0  0  0  0  0  0
   33.8120   26.9450   36.9840 C   0  0  0  0  0  0  0  0  0  0  0  0
   32.6570   26.8640   36.1990 C   0  0  0  0  0  0  0  0  0  0  0  0
   31.9260   27.9860   35.9920 N   0  0  0  0  0  0  0  0  0  0  0  0
   32.2910   29.1730   36.5270 C   0  0  0  0  0  0  0  0  0  0  0  0
   33.3890   29.2710   37.2810 N   0  0  0  0  0  0  0  0  0  0  0  0
   34.4520   26.1200   37.2040 H   0  0  0  0  0  0  0  0  0  0  0  0
   32.4110   25.8880   35.7940 H   0  0  0  0  0  0  0  0  0  0  0  0
   30.4500   29.9920   38.7890 Cl  0  0  0  0  0  0  0  0  0  0  0  0
   30.5600   30.7570   37.2470 C   0  0  0  0  0  0  0  0  0  0  0  0
   31.4310   30.3310   36.2410 C   0  0  0  0  0  0  0  0  0  0  0  0
   31.5420   30.9250   35.0010 C   0  0  0  0  0  0  0  0  0  0  0  0
   30.7220   32.0070   34.7800 C   0  0  0  0  0  0  0  0  0  0  0  0
   29.8220   32.5210   35.6910 C   0  0  0  0  0  0  0  0  0  0  0  0
   29.7890   31.8480   36.9120 C   0  0  0  0  0  0  0  0  0  0  0  0
   32.2380   30.5370   34.2690 H   0  0  0  0  0  0  0  0  0  0  0  0
   30.8280   32.4610   33.7850 H   0  0  0  0  0  0  0  0  0  0  0  0
   29.2130   33.3670   35.4700 H   0  0  0  0  0  0  0  0  0  0  0  0
   29.0860   32.2200   37.6440 H   0  0  0  0  0  0  0  0  0  0  0  0
   35.3590   28.3030   38.3450 C   0  0  0  0  0  2  0  0  0  0  0  0
   35.3300   29.1610   39.3670 C   0  0  0  0  0  2  0  0  0  0  0  0
   36.5970   29.2210   40.1760 C   0  0  0  0  0  0  0  0  0  0  0  0
   37.0350   30.2390   39.9600 H   0  0  0  0  0  0  0  0  0  0  0  0
   37.2730   28.3960   39.9920 H   0  0  0  0  0  0  0  0  0  0  0  0
   36.1680   29.2730   41.5700 N   0  0  0  0  0  0  0  0  0  0  0  0
   35.5290   28.4650   41.7230 H   0  0  0  0  0  0  0  0  0  0  0  0
   37.7940   29.3260   44.3540 H   0  0  0  0  0  0  0  0  0  0  0  0
   36.9880   29.0240   43.7500 N   0  0  0  0  0  0  0  0  0  0  0  0
   36.5820   27.6720   44.0030 C   0  0  0  0  0  2  0  0  0  0  0  0
   37.0170   26.8380   42.8380 C   0  0  0  0  0  2  0  0  0  0  0  0
   38.0080   27.7370   42.1280 C   0  0  0  0  0  2  0  0  0  0  0  0
   37.3630   29.0880   42.3650 C   0  0  1  0  0  3  0  0  0  0  0  0
  1 20  1  0  0  0  0
  2  7  1  0  0  0  0
  2  1  2  0  0  0  0
  3  2  1  0  0  0  0
  4  3  2  0  0  0  0
  4  5  1  0  0  0  0
  5  6  2  0  0  0  0
  6  1  1  0  0  0  0
  8  3  1  0  0  0  0
 10  9  1  0  0  0  0
 11  5  1  0  0  0  0
 11 10  2  0  0  0  0
 12 11  1  0  0  0  0
 13 12  2  0  0  0  0
 13 14  1  0  0  0  0
 14 15  2  0  0  0  0
 15 10  1  0  0  0  0
 15 19  1  0  0  0  0
 16 12  1  0  0  0  0
 17 13  1  0  0  0  0
 18 14  1  0  0  0  0
 20 21  1  0  0  0  0
 21 22  1  0  0  0  0
 22 25  1  0  0  0  0
 23 22  1  0  0  0  0
 24 22  1  0  0  0  0
 25 26  1  0  0  0  0
 28 29  1  0  0  0  0
 28 27  1  0  0  0  0
 30 29  1  0  0  0  0
 31 32  1  0  0  0  0
 31 30  1  0  0  0  0
 32 25  1  6  0  0  0
 32 28  1  0  0  0  0
M  END
>  <minimizedAffinity>
-5.84570169

$$$$

 OpenBabel03252506223D

 32 34  0  0  1  0  0  0  0  0999 V2000
   38.2500   32.6140   39.5570 C   0  0  0  0  0  0  0  0  0  0  0  0
   37.7050   33.8120   39.9970 C   0  0  0  0  0  0  0  0  0  0  0  0
   38.5630   34.9110   40.1110 C   0  0  0  0  0  0  0  0  0  0  0  0
   39.8700   34.7580   39.7900 N   0  0  0  0  0  0  0  0  0  0  0  0
   40.3570   33.5700   39.3640 C   0  0  0  0  0  0  0  0  0  0  0  0
   39.5540   32.5080   39.2490 N   0  0  0  0  0  0  0  0  0  0  0  0
   36.6640   33.8320   40.2250 H   0  0  0  0  0  0  0  0  0  0  0  0
   38.1210   35.8390   40.4570 H   0  0  0  0  0  0  0  0  0  0  0  0
   42.1400   32.5950   41.6100 Cl  0  0  0  0  0  0  0  0  0  0  0  0
   42.6630   33.0670   40.0340 C   0  0  0  0  0  0  0  0  0  0  0  0
   41.7890   33.5100   39.0380 C   0  0  0  0  0  0  0  0  0  0  0  0
   42.1780   33.8890   37.7710 C   0  0  0  0  0  0  0  0  0  0  0  0
   43.5260   33.8110   37.5100 C   0  0  0  0  0  0  0  0  0  0  0  0
   44.4860   33.3910   38.4070 C   0  0  0  0  0  0  0  0  0  0  0  0
   43.9870   33.0310   39.6590 C   0  0  0  0  0  0  0  0  0  0  0  0
   41.4440   34.2260   37.0500 H   0  0  0  0  0  0  0  0  0  0  0  0
   43.8110   34.1200   36.4940 H   0  0  0  0  0  0  0  0  0  0  0  0
   45.5190   33.3450   38.1510 H   0  0  0  0  0  0  0  0  0  0  0  0
   44.7160   32.7070   40.3890 H   0  0  0  0  0  0  0  0  0  0  0  0
   37.3710   31.4350   39.4230 C   0  0  0  0  0  2  0  0  0  0  0  0
   36.7510   30.9960   40.5200 C   0  0  0  0  0  2  0  0  0  0  0  0
   35.8640   29.7980   40.3060 C   0  0  0  0  0  0  0  0  0  0  0  0
   36.4560   29.1110   39.6340 H   0  0  0  0  0  0  0  0  0  0  0  0
   34.8780   30.0460   39.9340 H   0  0  0  0  0  0  0  0  0  0  0  0
   35.8050   29.1200   41.5970 N   0  0  0  0  0  0  0  0  0  0  0  0
   35.4460   28.1580   41.4200 H   0  0  0  0  0  0  0  0  0  0  0  0
   38.0880   29.4960   43.8420 H   0  0  0  0  0  0  0  0  0  0  0  0
   37.1670   29.1200   43.5030 N   0  0  0  0  0  0  0  0  0  0  0  0
   36.8930   27.8000   43.9900 C   0  0  0  0  0  2  0  0  0  0  0  0
   37.0460   26.8490   42.8450 C   0  0  0  0  0  2  0  0  0  0  0  0
   37.7840   27.6750   41.8130 C   0  0  0  0  0  2  0  0  0  0  0  0
   37.1700   29.0370   42.0680 C   0  0  1  0  0  3  0  0  0  0  0  0
  1  2  1  0  0  0  0
  2  3  2  0  0  0  0
  2  7  1  0  0  0  0
  3  8  1  0  0  0  0
  4  3  1  0  0  0  0
  5  4  2  0  0  0  0
  6  5  1  0  0  0  0
  6  1  2  0  0  0  0
 10  9  1  0  0  0  0
 11  5  1  0  0  0  0
 11 10  2  0  0  0  0
 12 11  1  0  0  0  0
 13 12  2  0  0  0  0
 13 14  1  0  0  0  0
 14 15  2  0  0  0  0
 15 10  1  0  0  0  0
 15 19  1  0  0  0  0
 16 12  1  0  0  0  0
 17 13  1  0  0  0  0
 18 14  1  0  0  0  0
 20  1  1  0  0  0  0
 20 21  1  0  0  0  0
 22 21  1  0  0  0  0
 22 25  1  0  0  0  0
 23 22  1  0  0  0  0
 24 22  1  0  0  0  0
 26 25  1  0  0  0  0
 28 27  1  0  0  0  0
 28 29  1  0  0  0  0
 30 29  1  0  0  0  0
 31 32  1  0  0  0  0
 31 30  1  0  0  0  0
 32 25  1  1  0  0  0
 32 28  1  0  0  0  0
M  END
>  <minimizedAffinity>
-5.77260876

$$$$

 OpenBabel03252506223D

 32 34  0  0  1  0  0  0  0  0999 V2000
   38.5750   28.3340   42.8310 C   0  0  0  0  0  0  0  0  0  0  0  0
   37.5780   28.5550   43.7700 C   0  0  0  0  0  0  0  0  0  0  0  0
   36.5580   27.6040   43.8690 C   0  0  0  0  0  0  0  0  0  0  0  0
   36.5890   26.5220   43.0540 N   0  0  0  0  0  0  0  0  0  0  0  0
   37.5830   26.3470   42.1540 C   0  0  0  0  0  0  0  0  0  0  0  0
   38.5660   27.2450   42.0430 N   0  0  0  0  0  0  0  0  0  0  0  0
   37.6410   29.4370   44.3660 H   0  0  0  0  0  0  0  0  0  0  0  0
   35.7860   27.7930   44.6080 H   0  0  0  0  0  0  0  0  0  0  0  0
   39.5120   24.1510   42.9490 Cl  0  0  0  0  0  0  0  0  0  0  0  0
   38.3930   24.0890   41.6370 C   0  0  0  0  0  0  0  0  0  0  0  0
   37.5270   25.1380   41.3190 C   0  0  0  0  0  0  0  0  0  0  0  0
   36.6210   25.1140   40.2790 C   0  0  0  0  0  0  0  0  0  0  0  0
   36.6010   23.9620   39.5290 C   0  0  0  0  0  0  0  0  0  0  0  0
   37.4040   22.8610   39.7420 C   0  0  0  0  0  0  0  0  0  0  0  0
   38.2840   22.9880   40.8180 C   0  0  0  0  0  0  0  0  0  0  0  0
   35.9830   25.9670   40.0900 H   0  0  0  0  0  0  0  0  0  0  0  0
   35.8720   23.9680   38.7060 H   0  0  0  0  0  0  0  0  0  0  0  0
   37.3440   21.9890   39.1330 H   0  0  0  0  0  0  0  0  0  0  0  0
   38.9360   22.1450   41.0050 H   0  0  0  0  0  0  0  0  0  0  0  0
   39.6680   29.3180   42.7020 C   0  0  0  0  0  2  0  0  0  0  0  0
   39.5810   30.2170   41.7200 C   0  0  0  0  0  2  0  0  0  0  0  0
   40.7240   31.1940   41.6570 C   0  0  0  0  0  0  0  0  0  0  0  0
   41.1330   31.1010   40.6090 H   0  0  0  0  0  0  0  0  0  0  0  0
   41.4620   31.0550   42.4370 H   0  0  0  0  0  0  0  0  0  0  0  0
   40.1110   32.5170   41.7160 N   0  0  0  0  0  0  0  0  0  0  0  0
   40.8860   33.2140   41.6960 H   0  0  0  0  0  0  0  0  0  0  0  0
   37.4780   33.4350   40.0980 H   0  0  0  0  0  0  0  0  0  0  0  0
   38.2920   33.6220   40.7370 N   0  0  0  0  0  0  0  0  0  0  0  0
   38.8850   34.9090   40.5200 C   0  0  0  0  0  2  0  0  0  0  0  0
   40.2050   34.6970   39.8470 C   0  0  0  0  0  2  0  0  0  0  0  0
   40.1180   33.2620   39.3710 C   0  0  0  0  0  2  0  0  0  0  0  0
   39.3250   32.6490   40.5080 C   0  0  1  0  0  3  0  0  0  0  0  0
  1  2  1  0  0  0  0
  2  3  2  0  0  0  0
  2  7  1  0  0  0  0
  3  8  1  0  0  0  0
  4  3  1  0  0  0  0
  5  4  2  0  0  0  0
  6  5  1  0  0  0  0
  6  1  2  0  0  0  0
 10  9  1  0  0  0  0
 11 10  1  0  0  0  0
 11  5  1  0  0  0  0
 12 11  2  0  0  0  0
 13 14  2  0  0  0  0
 13 12  1  0  0  0  0
 14 15  1  0  0  0  0
 15 19  1  0  0  0  0
 15 10  2  0  0  0  0
 16 12  1  0  0  0  0
 17 13  1  0  0  0  0
 18 14  1  0  0  0  0
 20  1  1  0  0  0  0
 21 20  1  0  0  0  0
 22 25  1  0  0  0  0
 22 21  1  0  0  0  0
 22 24  1  0  0  0  0
 23 22  1  0  0  0  0
 26 25  1  0  0  0  0
 27 28  1  0  0  0  0
 29 28  1  0  0  0  0
 30 29  1  0  0  0  0
 31 30  1  0  0  0  0
 31 32  1  0  0  0  0
 32 28  1  0  0  0  0
 32 25  1  1  0  0  0
M  END
>  <minimizedAffinity>
-5.71985102

$$$$

 OpenBabel03252506223D

 32 34  0  0  1  0  0  0  0  0999 V2000
   37.6850   30.6470   41.0860 C   0  0  0  0  0  0  0  0  0  0  0  0
   36.3530   30.4810   40.7370 C   0  0  0  0  0  0  0  0  0  0  0  0
   35.7980   29.2060   40.8880 C   0  0  0  0  0  0  0  0  0  0  0  0
   36.5770   28.2040   41.3640 N   0  0  0  0  0  0  0  0  0  0  0  0
   37.8710   28.4140   41.6920 C   0  0  0  0  0  0  0  0  0  0  0  0
   38.4210   29.6240   41.5540 N   0  0  0  0  0  0  0  0  0  0  0  0
   35.8230   31.3310   40.3720 H   0  0  0  0  0  0  0  0  0  0  0  0
   34.7550   29.0930   40.6100 H   0  0  0  0  0  0  0  0  0  0  0  0
   38.4090   26.2350   39.6580 Cl  0  0  0  0  0  0  0  0  0  0  0  0
   38.9090   26.2240   41.3100 C   0  0  0  0  0  0  0  0  0  0  0  0
   38.6290   27.2620   42.2020 C   0  0  0  0  0  0  0  0  0  0  0  0
   39.0190   27.2810   43.5240 C   0  0  0  0  0  0  0  0  0  0  0  0
   39.7300   26.1850   43.9550 C   0  0  0  0  0  0  0  0  0  0  0  0
   40.0680   25.1000   43.1730 C   0  0  0  0  0  0  0  0  0  0  0  0
   39.6260   25.1800   41.8530 C   0  0  0  0  0  0  0  0  0  0  0  0
   38.7630   28.1200   44.1590 H   0  0  0  0  0  0  0  0  0  0  0  0
   40.0280   26.2240   45.0130 H   0  0  0  0  0  0  0  0  0  0  0  0
   40.6260   24.2780   43.5570 H   0  0  0  0  0  0  0  0  0  0  0  0
   39.8660   24.3400   41.2160 H   0  0  0  0  0  0  0  0  0  0  0  0
   38.3020   31.9810   40.9400 C   0  0  0  0  0  2  0  0  0  0  0  0
   37.6900   32.8650   40.1490 C   0  0  0  0  0  2  0  0  0  0  0  0
   38.3690   34.2050   40.0580 C   0  0  0  0  0  0  0  0  0  0  0  0
   37.6580   34.9290   40.5520 H   0  0  0  0  0  0  0  0  0  0  0  0
   38.6580   34.4810   39.0510 H   0  0  0  0  0  0  0  0  0  0  0  0
   39.5190   34.1230   40.9520 N   0  0  0  0  0  0  0  0  0  0  0  0
   39.7810   33.1160   41.0190 H   0  0  0  0  0  0  0  0  0  0  0  0
   42.3010   35.7510   40.9650 H   0  0  0  0  0  0  0  0  0  0  0  0
   41.7120   34.9100   41.1920 N   0  0  0  0  0  0  0  0  0  0  0  0
   42.4250   33.6760   41.0420 C   0  0  0  0  0  2  0  0  0  0  0  0
   41.9040   32.9920   39.8170 C   0  0  0  0  0  2  0  0  0  0  0  0
   41.1470   34.0950   39.1080 C   0  0  0  0  0  2  0  0  0  0  0  0
   40.5880   34.8470   40.2990 C   0  0  1  0  0  3  0  0  0  0  0  0
  1  6  1  0  0  0  0
  2  3  1  0  0  0  0
  2  1  2  0  0  0  0
  3  4  2  0  0  0  0
  4  5  1  0  0  0  0
  5 11  1  0  0  0  0
  6  5  2  0  0  0  0
  7  2  1  0  0  0  0
  8  3  1  0  0  0  0
  9 10  1  0  0  0  0
 10 15  2  0  0  0  0
 10 11  1  0  0  0  0
 11 12  2  0  0  0  0
 12 13  1  0  0  0  0
 12 16  1  0  0  0  0
 13 17  1  0  0  0  0
 14 18  1  0  0  0  0
 14 13  2  0  0  0  0
 15 14  1  0  0  0  0
 19 15  1  0  0  0  0
 20  1  1  0  0  0  0
 21 20  1  0  0  0  0
 22 21  1  0  0  0  0
 22 23  1  0  0  0  0
 22 25  1  0  0  0  0
 24 22  1  0  0  0  0
 25 26  1  0  0  0  0
 27 28  1  0  0  0  0
 29 28  1  0  0  0  0
 30 29  1  0  0  0  0
 31 30  1  0  0  0  0
 31 32  1  0  0  0  0
 32 25  1  1  0  0  0
 32 28  1  0  0  0  0
M  END
>  <minimizedAffinity>
-5.62621832

$$$$

 OpenBabel03252506223D

 32 34  0  0  1  0  0  0  0  0999 V2000
   38.8380   32.5680   40.5530 C   0  0  0  0  0  0  0  0  0  0  0  0
   38.0790   33.7130   40.3640 C   0  0  0  0  0  0  0  0  0  0  0  0
   38.7610   34.9110   40.1280 C   0  0  0  0  0  0  0  0  0  0  0  0
   40.1150   34.8980   40.0940 N   0  0  0  0  0  0  0  0  0  0  0  0
   40.8140   33.7560   40.2820 C   0  0  0  0  0  0  0  0  0  0  0  0
   40.1810   32.6020   40.5110 N   0  0  0  0  0  0  0  0  0  0  0  0
   37.0170   33.6210   40.4090 H   0  0  0  0  0  0  0  0  0  0  0  0
   38.1510   35.7980   39.9830 H   0  0  0  0  0  0  0  0  0  0  0  0
   42.0000   33.5120   37.5060 Cl  0  0  0  0  0  0  0  0  0  0  0  0
   42.8860   33.7440   38.9690 C   0  0  0  0  0  0  0  0  0  0  0  0
   42.2800   33.8490   40.2230 C   0  0  0  0  0  0  0  0  0  0  0  0
   42.9620   34.0370   41.4060 C   0  0  0  0  0  0  0  0  0  0  0  0
   44.3310   34.1230   41.3010 C   0  0  0  0  0  0  0  0  0  0  0  0
   45.0440   34.0340   40.1240 C   0  0  0  0  0  0  0  0  0  0  0  0
   44.2600   33.8440   38.9870 C   0  0  0  0  0  0  0  0  0  0  0  0
   42.4250   34.1060   42.3430 H   0  0  0  0  0  0  0  0  0  0  0  0
   44.8510   34.2710   42.2580 H   0  0  0  0  0  0  0  0  0  0  0  0
   46.1060   34.1130   40.0990 H   0  0  0  0  0  0  0  0  0  0  0  0
   44.7900   33.7600   38.0480 H   0  0  0  0  0  0  0  0  0  0  0  0
   38.1490   31.2860   40.8030 C   0  0  0  0  0  2  0  0  0  0  0  0
   36.8330   31.2350   40.5870 C   0  0  0  0  0  2  0  0  0  0  0  0
   36.2010   29.8950   40.8520 C   0  0  0  0  0  0  0  0  0  0  0  0
   36.7350   29.1770   40.1620 H   0  0  0  0  0  0  0  0  0  0  0  0
   35.1230   29.8920   40.7510 H   0  0  0  0  0  0  0  0  0  0  0  0
   36.6240   29.5230   42.1970 N   0  0  0  0  0  0  0  0  0  0  0  0
   35.9110   29.9020   42.8570 H   0  0  0  0  0  0  0  0  0  0  0  0
   37.2840   26.6010   41.0040 H   0  0  0  0  0  0  0  0  0  0  0  0
   37.5640   27.5640   41.3210 N   0  0  0  0  0  0  0  0  0  0  0  0
   38.8240   27.5790   42.0060 C   0  0  0  0  0  2  0  0  0  0  0  0
   38.5520   27.8060   43.4600 C   0  0  0  0  0  2  0  0  0  0  0  0
   37.0670   27.5330   43.5750 C   0  0  0  0  0  2  0  0  0  0  0  0
   36.5890   28.0770   42.2440 C   0  0  1  0  0  3  0  0  0  0  0  0
  1 20  1  0  0  0  0
  2  7  1  0  0  0  0
  2  1  2  0  0  0  0
  3  2  1  0  0  0  0
  4  3  2  0  0  0  0
  4  5  1  0  0  0  0
  5  6  2  0  0  0  0
  6  1  1  0  0  0  0
  8  3  1  0  0  0  0
  9 10  1  0  0  0  0
 10 15  2  0  0  0  0
 10 11  1  0  0  0  0
 11  5  1  0  0  0  0
 11 12  2  0  0  0  0
 12 16  1  0  0  0  0
 13 12  1  0  0  0  0
 13 17  1  0  0  0  0
 14 13  2  0  0  0  0
 15 14  1  0  0  0  0
 18 14  1  0  0  0  0
 19 15  1  0  0  0  0
 21 20  1  0  0  0  0
 21 22  1  0  0  0  0
 22 25  1  0  0  0  0
 23 22  1  0  0  0  0
 24 22  1  0  0  0  0
 25 26  1  0  0  0  0
 27 28  1  0  0  0  0
 28 29  1  0  0  0  0
 28 32  1  0  0  0  0
 29 30  1  0  0  0  0
 30 31  1  0  0  0  0
 32 25  1  1  0  0  0
 32 31  1  0  0  0  0
M  END
>  <minimizedAffinity>
-5.56032801

$$$$

 OpenBabel03252506223D

 32 34  0  0  1  0  0  0  0  0999 V2000
   34.8300   28.9650   38.3250 C   0  0  0  0  0  0  0  0  0  0  0  0
   35.7240   29.5180   37.4210 C   0  0  0  0  0  0  0  0  0  0  0  0
   37.0530   29.6660   37.8310 C   0  0  0  0  0  0  0  0  0  0  0  0
   37.4020   29.2670   39.0770 N   0  0  0  0  0  0  0  0  0  0  0  0
   36.4950   28.7310   39.9250 C   0  0  0  0  0  0  0  0  0  0  0  0
   35.2210   28.5830   39.5530 N   0  0  0  0  0  0  0  0  0  0  0  0
   35.3530   29.8010   36.4620 H   0  0  0  0  0  0  0  0  0  0  0  0
   37.7390   30.1000   37.1110 H   0  0  0  0  0  0  0  0  0  0  0  0
   36.7820   25.7430   40.3290 Cl  0  0  0  0  0  0  0  0  0  0  0  0
   37.1300   26.9600   41.5010 C   0  0  0  0  0  0  0  0  0  0  0  0
   36.9760   28.3270   41.2550 C   0  0  0  0  0  0  0  0  0  0  0  0
   37.2500   29.3210   42.1710 C   0  0  0  0  0  0  0  0  0  0  0  0
   37.7010   28.8960   43.3980 C   0  0  0  0  0  0  0  0  0  0  0  0
   37.8930   27.5800   43.7620 C   0  0  0  0  0  0  0  0  0  0  0  0
   37.5880   26.6550   42.7640 C   0  0  0  0  0  0  0  0  0  0  0  0
   37.1040   30.3610   41.9100 H   0  0  0  0  0  0  0  0  0  0  0  0
   37.9110   29.7070   44.1110 H   0  0  0  0  0  0  0  0  0  0  0  0
   38.2510   27.3050   44.7270 H   0  0  0  0  0  0  0  0  0  0  0  0
   37.7170   25.6120   43.0210 H   0  0  0  0  0  0  0  0  0  0  0  0
   33.4190   28.7930   37.9230 C   0  0  0  0  0  2  0  0  0  0  0  0
   33.0910   29.0920   36.6650 C   0  0  0  0  0  2  0  0  0  0  0  0
   31.6400   28.8810   36.3240 C   0  0  0  0  0  0  0  0  0  0  0  0
   31.5170   27.7620   36.2400 H   0  0  0  0  0  0  0  0  0  0  0  0
   31.3110   29.4340   35.4530 H   0  0  0  0  0  0  0  0  0  0  0  0
   30.8990   29.2620   37.5220 N   0  0  0  0  0  0  0  0  0  0  0  0
   31.3970   30.0740   37.9440 H   0  0  0  0  0  0  0  0  0  0  0  0
   27.7420   29.7680   37.9410 H   0  0  0  0  0  0  0  0  0  0  0  0
   28.7500   29.8900   38.2130 N   0  0  0  0  0  0  0  0  0  0  0  0
   29.0360   31.2050   38.7090 C   0  0  0  0  0  2  0  0  0  0  0  0
   29.8300   31.9250   37.6650 C   0  0  0  0  0  2  0  0  0  0  0  0
   29.6300   31.0670   36.4330 C   0  0  0  0  0  2  0  0  0  0  0  0
   29.5940   29.6910   37.0670 C   0  0  1  0  0  3  0  0  0  0  0  0
  1  6  1  0  0  0  0
  2  3  1  0  0  0  0
  2  1  2  0  0  0  0
  3  4  2  0  0  0  0
  4  5  1  0  0  0  0
  5 11  1  0  0  0  0
  6  5  2  0  0  0  0
  7  2  1  0  0  0  0
  8  3  1  0  0  0  0
  9 10  1  0  0  0  0
 10 15  1  0  0  0  0
 11 10  2  0  0  0  0
 11 12  1  0  0  0  0
 12 13  2  0  0  0  0
 13 14  1  0  0  0  0
 13 17  1  0  0  0  0
 14 18  1  0  0  0  0
 15 19  1  0  0  0  0
 15 14  2  0  0  0  0
 16 12  1  0  0  0  0
 20  1  1  0  0  0  0
 21 20  1  0  0  0  0
 22 21  1  0  0  0  0
 22 25  1  0  0  0  0
 23 22  1  0  0  0  0
 24 22  1  0  0  0  0
 25 26  1  0  0  0  0
 27 28  1  0  0  0  0
 28 29  1  0  0  0  0
 30 29  1  0  0  0  0
 31 32  1  0  0  0  0
 31 30  1  0  0  0  0
 32 25  1  1  0  0  0
 32 28  1  0  0  0  0
M  END
>  <minimizedAffinity>
-5.48603153

$$$$

 OpenBabel03252506223D

 32 34  0  0  1  0  0  0  0  0999 V2000
   37.9590   27.9940   42.2800 C   0  0  0  0  0  0  0  0  0  0  0  0
   38.5870   27.8830   43.5120 C   0  0  0  0  0  0  0  0  0  0  0  0
   39.3920   26.7600   43.7300 C   0  0  0  0  0  0  0  0  0  0  0  0
   39.5200   25.8430   42.7400 N   0  0  0  0  0  0  0  0  0  0  0  0
   38.8890   25.9940   41.5540 C   0  0  0  0  0  0  0  0  0  0  0  0
   38.1150   27.0580   41.3270 N   0  0  0  0  0  0  0  0  0  0  0  0
   38.4250   28.6570   44.2270 H   0  0  0  0  0  0  0  0  0  0  0  0
   39.8760   26.6880   44.6990 H   0  0  0  0  0  0  0  0  0  0  0  0
   36.6090   24.0200   41.2760 Cl  0  0  0  0  0  0  0  0  0  0  0  0
   38.0770   24.0040   40.3710 C   0  0  0  0  0  0  0  0  0  0  0  0
   39.0960   24.9440   40.5460 C   0  0  0  0  0  0  0  0  0  0  0  0
   40.2770   24.9570   39.8340 C   0  0  0  0  0  0  0  0  0  0  0  0
   40.4230   23.9600   38.8990 C   0  0  0  0  0  0  0  0  0  0  0  0
   39.4940   22.9770   38.6340 C   0  0  0  0  0  0  0  0  0  0  0  0
   38.3360   23.0540   39.4070 C   0  0  0  0  0  0  0  0  0  0  0  0
   41.0230   25.7170   40.0270 H   0  0  0  0  0  0  0  0  0  0  0  0
   41.3740   23.9920   38.3470 H   0  0  0  0  0  0  0  0  0  0  0  0
   39.6560   22.2290   37.8920 H   0  0  0  0  0  0  0  0  0  0  0  0
   37.5910   22.2900   39.2310 H   0  0  0  0  0  0  0  0  0  0  0  0
   37.1030   29.1680   42.0170 C   0  0  0  0  0  2  0  0  0  0  0  0
   36.8860   29.5050   40.7440 C   0  0  0  0  0  2  0  0  0  0  0  0
   35.9970   30.7040   40.5520 C   0  0  0  0  0  0  0  0  0  0  0  0
   35.2680   30.6700   41.4130 H   0  0  0  0  0  0  0  0  0  0  0  0
   35.5310   30.7510   39.5750 H   0  0  0  0  0  0  0  0  0  0  0  0
   36.8440   31.8640   40.8080 N   0  0  0  0  0  0  0  0  0  0  0  0
   37.7480   31.5050   41.1830 H   0  0  0  0  0  0  0  0  0  0  0  0
   36.7860   34.3700   38.7810 H   0  0  0  0  0  0  0  0  0  0  0  0
   37.0570   33.9090   39.6860 N   0  0  0  0  0  0  0  0  0  0  0  0
   38.3660   34.2890   40.1320 C   0  0  0  0  0  2  0  0  0  0  0  0
   39.2760   33.1180   39.9310 C   0  0  0  0  0  2  0  0  0  0  0  0
   38.4790   32.2230   39.0050 C   0  0  0  0  0  2  0  0  0  0  0  0
   37.0780   32.4820   39.5210 C   0  0  1  0  0  3  0  0  0  0  0  0
  1  2  1  0  0  0  0
  2  3  2  0  0  0  0
  2  7  1  0  0  0  0
  3  8  1  0  0  0  0
  4  3  1  0  0  0  0
  5  4  2  0  0  0  0
  6  5  1  0  0  0  0
  6  1  2  0  0  0  0
 10 11  1  0  0  0  0
 10  9  1  0  0  0  0
 11  5  1  0  0  0  0
 12 16  1  0  0  0  0
 12 11  2  0  0  0  0
 13 12  1  0  0  0  0
 14 13  2  0  0  0  0
 14 15  1  0  0  0  0
 15 10  2  0  0  0  0
 17 13  1  0  0  0  0
 18 14  1  0  0  0  0
 19 15  1  0  0  0  0
 20  1  1  0  0  0  0
 21 20  1  0  0  0  0
 22 21  1  0  0  0  0
 22 25  1  0  0  0  0
 22 23  1  0  0  0  0
 24 22  1  0  0  0  0
 25 26  1  0  0  0  0
 27 28  1  0  0  0  0
 28 29  1  0  0  0  0
 30 29  1  0  0  0  0
 31 32  1  0  0  0  0
 31 30  1  0  0  0  0
 32 28  1  0  0  0  0
 32 25  1  1  0  0  0
M  END
>  <minimizedAffinity>
-5.42892885

$$$$

 OpenBabel03252506223D

 32 34  0  0  1  0  0  0  0  0999 V2000
   34.5870   28.8540   37.8710 C   0  0  0  0  0  0  0  0  0  0  0  0
   35.5150   29.0990   36.8710 C   0  0  0  0  0  0  0  0  0  0  0  0
   36.8700   29.0460   37.2160 C   0  0  0  0  0  0  0  0  0  0  0  0
   37.2080   28.7600   38.4970 N   0  0  0  0  0  0  0  0  0  0  0  0
   36.2670   28.5270   39.4390 C   0  0  0  0  0  0  0  0  0  0  0  0
   34.9690   28.5750   39.1290 N   0  0  0  0  0  0  0  0  0  0  0  0
   35.1500   29.3150   35.8920 H   0  0  0  0  0  0  0  0  0  0  0  0
   37.5830   29.2410   36.4220 H   0  0  0  0  0  0  0  0  0  0  0  0
   36.5950   30.9350   41.2480 Cl  0  0  0  0  0  0  0  0  0  0  0  0
   36.9090   29.2940   41.6800 C   0  0  0  0  0  0  0  0  0  0  0  0
   36.7390   28.2230   40.7980 C   0  0  0  0  0  0  0  0  0  0  0  0
   36.9790   26.9040   41.1170 C   0  0  0  0  0  0  0  0  0  0  0  0
   37.4130   26.6670   42.4000 C   0  0  0  0  0  0  0  0  0  0  0  0
   37.6200   27.6360   43.3600 C   0  0  0  0  0  0  0  0  0  0  0  0
   37.3480   28.9360   42.9350 C   0  0  0  0  0  0  0  0  0  0  0  0
   36.8280   26.1260   40.3790 H   0  0  0  0  0  0  0  0  0  0  0  0
   37.5990   25.6080   42.6290 H   0  0  0  0  0  0  0  0  0  0  0  0
   37.9530   27.3970   44.3430 H   0  0  0  0  0  0  0  0  0  0  0  0
   37.5100   29.7210   43.6620 H   0  0  0  0  0  0  0  0  0  0  0  0
   33.1480   28.9010   37.5390 C   0  0  0  0  0  2  0  0  0  0  0  0
   32.8080   28.8960   36.2490 C   0  0  0  0  0  2  0  0  0  0  0  0
   31.3260   28.9330   35.9870 C   0  0  0  0  0  0  0  0  0  0  0  0
   31.0510   27.8760   35.7020 H   0  0  0  0  0  0  0  0  0  0  0  0
   31.0290   29.6830   35.2640 H   0  0  0  0  0  0  0  0  0  0  0  0
   30.7050   29.1550   37.2890 N   0  0  0  0  0  0  0  0  0  0  0  0
   31.2660   29.8880   37.7730 H   0  0  0  0  0  0  0  0  0  0  0  0
   27.6610   29.8130   38.1220 H   0  0  0  0  0  0  0  0  0  0  0  0
   28.7000   29.8680   38.2690 N   0  0  0  0  0  0  0  0  0  0  0  0
   29.1220   31.1430   38.7730 C   0  0  0  0  0  2  0  0  0  0  0  0
   29.8220   31.8640   37.6640 C   0  0  0  0  0  2  0  0  0  0  0  0
   29.4200   31.0730   36.4370 C   0  0  0  0  0  2  0  0  0  0  0  0
   29.3820   29.6740   37.0190 C   0  0  1  0  0  3  0  0  0  0  0  0
  1  6  1  0  0  0  0
  2  3  1  0  0  0  0
  2  1  2  0  0  0  0
  3  4  2  0  0  0  0
  4  5  1  0  0  0  0
  5 11  1  0  0  0  0
  6  5  2  0  0  0  0
  7  2  1  0  0  0  0
  8  3  1  0  0  0  0
  9 10  1  0  0  0  0
 10 15  1  0  0  0  0
 11 12  1  0  0  0  0
 11 10  2  0  0  0  0
 12 13  2  0  0  0  0
 13 17  1  0  0  0  0
 13 14  1  0  0  0  0
 14 18  1  0  0  0  0
 15 14  2  0  0  0  0
 15 19  1  0  0  0  0
 16 12  1  0  0  0  0
 20  1  1  0  0  0  0
 21 20  1  0  0  0  0
 22 21  1  0  0  0  0
 22 25  1  0  0  0  0
 23 22  1  0  0  0  0
 24 22  1  0  0  0  0
 25 26  1  0  0  0  0
 27 28  1  0  0  0  0
 28 29  1  0  0  0  0
 30 29  1  0  0  0  0
 31 32  1  0  0  0  0
 31 30  1  0  0  0  0
 32 25  1  1  0  0  0
 32 28  1  0  0  0  0
M  END
>  <minimizedAffinity>
-5.32983589

$$$$

 OpenBabel03252506223D

 32 34  0  0  1  0  0  0  0  0999 V2000
   34.0730   28.2730   37.7260 C   0  0  0  0  0  0  0  0  0  0  0  0
   33.8940   27.0420   37.1120 C   0  0  0  0  0  0  0  0  0  0  0  0
   32.8750   26.9350   36.1590 C   0  0  0  0  0  0  0  0  0  0  0  0
   32.1200   28.0250   35.8820 N   0  0  0  0  0  0  0  0  0  0  0  0
   32.3320   29.2060   36.5050 C   0  0  0  0  0  0  0  0  0  0  0  0
   33.2990   29.3280   37.4190 N   0  0  0  0  0  0  0  0  0  0  0  0
   34.5390   26.2430   37.3980 H   0  0  0  0  0  0  0  0  0  0  0  0
   32.7490   25.9650   35.6890 H   0  0  0  0  0  0  0  0  0  0  0  0
   30.4090   30.1080   38.6640 Cl  0  0  0  0  0  0  0  0  0  0  0  0
   30.5510   30.7900   37.0860 C   0  0  0  0  0  0  0  0  0  0  0  0
   31.4600   30.3290   36.1300 C   0  0  0  0  0  0  0  0  0  0  0  0
   31.5970   30.8570   34.8640 C   0  0  0  0  0  0  0  0  0  0  0  0
   30.7640   31.9080   34.5610 C   0  0  0  0  0  0  0  0  0  0  0  0
   29.8280   32.4530   35.4150 C   0  0  0  0  0  0  0  0  0  0  0  0
   29.7700   31.8460   36.6700 C   0  0  0  0  0  0  0  0  0  0  0  0
   32.3220   30.4450   34.1750 H   0  0  0  0  0  0  0  0  0  0  0  0
   30.8920   32.3110   33.5450 H   0  0  0  0  0  0  0  0  0  0  0  0
   29.2100   33.2730   35.1300 H   0  0  0  0  0  0  0  0  0  0  0  0
   29.0380   32.2420   37.3600 H   0  0  0  0  0  0  0  0  0  0  0  0
   35.1400   28.4210   38.7360 C   0  0  0  0  0  2  0  0  0  0  0  0
   34.8600   29.1190   39.8380 C   0  0  0  0  0  2  0  0  0  0  0  0
   35.9910   29.2170   40.8260 C   0  0  0  0  0  0  0  0  0  0  0  0
   36.1290   28.1680   41.2200 H   0  0  0  0  0  0  0  0  0  0  0  0
   35.8370   29.9660   41.5930 H   0  0  0  0  0  0  0  0  0  0  0  0
   37.1830   29.4900   40.0300 N   0  0  0  0  0  0  0  0  0  0  0  0
   36.8590   29.7350   39.0700 H   0  0  0  0  0  0  0  0  0  0  0  0
   39.7110   31.4100   40.5950 H   0  0  0  0  0  0  0  0  0  0  0  0
   39.0520   30.9010   39.9530 N   0  0  0  0  0  0  0  0  0  0  0  0
   38.7340   31.6520   38.7740 C   0  0  0  0  0  2  0  0  0  0  0  0
   37.3220   32.1300   38.9030 C   0  0  0  0  0  2  0  0  0  0  0  0
   37.0250   31.9210   40.3740 C   0  0  0  0  0  2  0  0  0  0  0  0
   37.8080   30.6500   40.6290 C   0  0  1  0  0  3  0  0  0  0  0  0
  1 20  1  0  0  0  0
  2  7  1  0  0  0  0
  2  1  2  0  0  0  0
  3  2  1  0  0  0  0
  4  3  2  0  0  0  0
  4  5  1  0  0  0  0
  5  6  2  0  0  0  0
  6  1  1  0  0  0  0
  8  3  1  0  0  0  0
 10  9  1  0  0  0  0
 11  5  1  0  0  0  0
 11 10  2  0  0  0  0
 12 11  1  0  0  0  0
 13 12  2  0  0  0  0
 13 14  1  0  0  0  0
 14 15  2  0  0  0  0
 15 10  1  0  0  0  0
 15 19  1  0  0  0  0
 16 12  1  0  0  0  0
 17 13  1  0  0  0  0
 18 14  1  0  0  0  0
 20 21  1  0  0  0  0
 21 22  1  0  0  0  0
 22 23  1  0  0  0  0
 22 24  1  0  0  0  0
 25 22  1  0  0  0  0
 26 25  1  0  0  0  0
 28 27  1  0  0  0  0
 28 32  1  0  0  0  0
 29 30  1  0  0  0  0
 29 28  1  0  0  0  0
 30 31  1  0  0  0  0
 31 32  1  0  0  0  0
 32 25  1  6  0  0  0
M  END
>  <minimizedAffinity>
-5.133955

$$$$
