
     RDKit          3D

 41 43  0  0  0  0  0  0  0  0999 V2000
   45.1336   36.0131   43.0459 C   0  0  0  0  0  0  0  0  0  0  0  0
   44.1513   35.8000   42.0909 C   0  0  0  0  0  0  0  0  0  0  0  0
   44.3796   34.8040   41.1360 C   0  0  0  0  0  0  0  0  0  0  0  0
   45.5367   34.1007   41.1871 N   0  0  0  0  0  0  0  0  0  0  0  0
   46.4665   34.3434   42.1375 C   0  0  0  0  0  0  0  0  0  0  0  0
   46.2676   35.2907   43.0583 N   0  0  0  0  0  0  0  0  0  0  0  0
   48.9677   35.8021   41.2477 Cl  0  0  0  0  0  0  0  0  0  0  0  0
   48.8737   34.1411   41.7058 C   0  0  0  0  0  0  0  0  0  0  0  0
   47.6874   33.5232   42.1078 C   0  0  0  0  0  0  0  0  0  0  0  0
   47.5841   32.2000   42.4821 C   0  0  0  0  0  0  0  0  0  0  0  0
   48.7507   31.4736   42.4432 C   0  0  0  0  0  0  0  0  0  0  0  0
   49.9820   31.9680   42.0654 C   0  0  0  0  0  0  0  0  0  0  0  0
   49.9773   33.3159   41.7058 C   0  0  0  0  0  0  0  0  0  0  0  0
   44.9231   37.0562   44.0704 C   0  0  0  0  0  0  0  0  0  0  0  0
   45.4984   38.2440   43.8737 C   0  0  0  0  0  0  0  0  0  0  0  0
   45.2297   39.2595   44.9521 C   0  0  0  0  0  0  0  0  0  0  0  0
   44.7486   40.4487   44.2572 N   0  0  0  0  0  0  0  0  0  0  0  0
   43.2743   36.4051   42.1341 H   0  0  0  0  0  0  0  0  0  0  0  0
   43.6011   34.6505   40.3961 H   0  0  0  0  0  0  0  0  0  0  0  0
   46.6284   31.7882   42.7795 H   0  0  0  0  0  0  0  0  0  0  0  0
   48.6423   30.4217   42.7443 H   0  0  0  0  0  0  0  0  0  0  0  0
   50.8579   31.3619   42.0581 H   0  0  0  0  0  0  0  0  0  0  0  0
   50.9251   33.7322   41.3942 H   0  0  0  0  0  0  0  0  0  0  0  0
   44.3134   36.8764   44.9688 H   0  0  0  0  0  0  0  0  0  0  0  0
   46.1179   38.5606   43.0441 H   0  0  0  0  0  0  0  0  0  0  0  0
   46.2477   39.5395   45.3520 H   0  0  0  0  0  0  0  0  0  0  0  0
   44.5306   38.9223   45.7066 H   0  0  0  0  0  0  0  0  0  0  0  0
   43.9605   40.1467   43.6446 H   0  0  0  0  0  0  0  0  0  0  0  0
   44.7168   43.2349   45.8786 H   0  0  0  0  0  0  0  0  0  0  0  0
   44.6759   42.6722   44.9921 N   0  0  0  0  0  0  0  0  0  0  0  0
   43.7509   43.2082   44.0366 C   0  0  0  0  0  0  0  0  0  0  0  0
   42.5643   42.2970   43.9867 C   0  0  0  0  0  0  0  0  0  0  0  0
   42.7291   41.4564   45.2367 C   0  0  0  0  0  0  0  0  0  0  0  0
   44.2385   41.3337   45.2817 C   0  0  1  0  0  0  0  0  0  0  0  0
   43.4810   44.2163   44.3774 H   0  0  0  0  0  0  0  0  0  0  0  0
   44.2416   43.3162   43.0252 H   0  0  0  0  0  0  0  0  0  0  0  0
   42.7332   41.5987   43.1247 H   0  0  0  0  0  0  0  0  0  0  0  0
   41.5975   42.8156   43.9533 H   0  0  0  0  0  0  0  0  0  0  0  0
   42.2300   40.4795   45.1711 H   0  0  0  0  0  0  0  0  0  0  0  0
   42.4607   42.0210   46.1625 H   0  0  0  0  0  0  0  0  0  0  0  0
   44.5760   41.0022   46.2986 H   0  0  0  0  0  0  0  0  0  0  0  0
  1  6  1  0
  1 14  1  0
  2  1  2  0
  3  4  2  0
  3  2  1  0
  4  5  1  0
  5  6  2  0
  7  8  1  0
  8 13  2  0
  8  9  1  0
  9  5  1  0
  9 10  2  0
 11 10  1  0
 12 11  2  0
 13 12  1  0
 15 14  2  0
 15 16  1  0
 17 16  1  0
  2 18  1  0
  3 19  1  0
 10 20  1  0
 11 21  1  0
 12 22  1  0
 13 23  1  0
 14 24  1  0
 15 25  1  0
 16 26  1  0
 16 27  1  0
 17 28  1  0
 29 30  1  0
 30 31  1  0
 31 32  1  0
 32 33  1  0
 33 34  1  0
 34 30  1  0
 31 35  1  0
 31 36  1  0
 32 37  1  0
 32 38  1  0
 33 39  1  0
 33 40  1  0
 34 41  1  1
 17 34  1  0
M  ISO  8  18  14  19  14  20  14  21  14  22  14  23  14  26   8  27   8
M  ISO  2  28   5  29   5
M  END
>  <DihAtoms>  (1) 
15,16,33,32

>  <DihDeg>  (1) 
175.04900244004241

$$$$
