
     RDKit          3D

 46 49  0  0  0  0  0  0  0  0999 V2000
   49.3176   33.2158   41.4781 N   0  0  0  0  0  0  0  0  0  0  0  0
   50.6634   33.1221   42.0465 C   0  0  0  0  0  0  0  0  0  0  0  0
   51.3296   31.8069   41.7668 C   0  0  0  0  0  0  0  0  0  0  0  0
   50.5854   30.7174   42.5393 C   0  0  0  0  0  0  0  0  0  0  0  0
   49.1062   30.9924   42.5368 C   0  0  0  0  0  0  0  0  0  0  0  0
   48.7715   31.9030   41.3874 C   0  0  2  0  0  0  0  0  0  0  0  0
   47.1913   34.5563   42.0248 C   0  0  1  0  0  0  0  0  0  0  0  0
   48.3268   35.4694   41.7385 C   0  0  0  0  0  0  0  0  0  0  0  0
   48.5867   34.1227   42.2819 C   0  0  2  0  0  0  0  0  0  0  0  0
   45.5061   36.0196   43.1463 C   0  0  0  0  0  0  0  0  0  0  0  0
   46.2946   34.8635   43.1420 C   0  0  0  0  0  0  0  0  0  0  0  0
   46.1816   33.9853   44.2455 C   0  0  0  0  0  0  0  0  0  0  0  0
   45.3237   34.3088   45.2361 N   0  0  0  0  0  0  0  0  0  0  0  0
   44.5725   35.4290   45.2194 C   0  0  0  0  0  0  0  0  0  0  0  0
   44.6573   36.2922   44.1766 N   0  0  0  0  0  0  0  0  0  0  0  0
   49.0655   31.2525   40.1369 N   0  0  0  0  0  0  0  0  0  0  0  0
   50.5675   33.2179   43.1601 H   0  0  0  0  0  0  0  0  0  0  0  0
   51.2975   33.9401   41.6993 H   0  0  0  0  0  0  0  0  0  0  0  0
   51.3576   31.5916   40.6806 H   0  0  0  0  0  0  0  0  0  0  0  0
   52.3668   31.8906   42.0987 H   0  0  0  0  0  0  0  0  0  0  0  0
   50.8051   29.7599   42.0296 H   0  0  0  0  0  0  0  0  0  0  0  0
   50.9736   30.6714   43.5705 H   0  0  0  0  0  0  0  0  0  0  0  0
   48.8836   31.5624   43.4689 H   0  0  0  0  0  0  0  0  0  0  0  0
   48.4615   30.1215   42.5423 H   0  0  0  0  0  0  0  0  0  0  0  0
   47.6505   32.0313   41.4147 H   0  0  0  0  0  0  0  0  0  0  0  0
   46.6332   34.2543   41.1010 H   0  0  0  0  0  0  0  0  0  0  0  0
   48.6460   35.6975   40.6984 H   0  0  0  0  0  0  0  0  0  0  0  0
   48.4570   36.3331   42.4423 H   0  0  0  0  0  0  0  0  0  0  0  0
   48.8279   34.0459   43.3790 H   0  0  0  0  0  0  0  0  0  0  0  0
   45.5985   36.6872   42.2986 H   0  0  0  0  0  0  0  0  0  0  0  0
   46.7805   33.0923   44.2592 H   0  0  0  0  0  0  0  0  0  0  0  0
   43.8825   35.6890   46.0157 H   0  0  0  0  0  0  0  0  0  0  0  0
   48.8074   31.9579   39.3886 H   0  0  0  0  0  0  0  0  0  0  0  0
   48.7651   28.3899   38.8111 H   0  0  0  0  0  0  0  0  0  0  0  0
   49.1591   28.8866   39.6562 N   0  0  0  0  0  0  0  0  0  0  0  0
   48.9608   27.9693   40.7569 C   0  0  0  0  0  0  0  0  0  0  0  0
   47.4923   28.1813   41.0561 C   0  0  0  0  0  0  0  0  0  0  0  0
   47.4100   29.6942   41.0611 C   0  0  0  0  0  0  0  0  0  0  0  0
   48.3471   30.0462   39.9167 C   0  0  1  0  0  0  0  0  0  0  0  0
   49.1868   26.9288   40.4558 H   0  0  0  0  0  0  0  0  0  0  0  0
   49.5822   28.3131   41.5841 H   0  0  0  0  0  0  0  0  0  0  0  0
   46.9066   27.7775   40.2032 H   0  0  0  0  0  0  0  0  0  0  0  0
   47.1980   27.7606   42.0367 H   0  0  0  0  0  0  0  0  0  0  0  0
   47.7964   30.0500   42.0310 H   0  0  0  0  0  0  0  0  0  0  0  0
   46.3635   29.9885   40.8773 H   0  0  0  0  0  0  0  0  0  0  0  0
   47.6555   30.2447   39.0475 H   0  0  0  0  0  0  0  0  0  0  0  0
  1  2  1  0
  1  9  1  0
  3  2  1  0
  3  4  1  0
  5  4  1  0
  6  1  1  0
  6  5  1  0
  7  9  1  0
  7 11  1  0
  8  7  1  0
  8  9  1  0
 10 15  2  0
 11 10  1  0
 11 12  2  0
 12 13  1  0
 14 13  2  0
 15 14  1  0
 16  6  1  0
  2 17  1  0
  2 18  1  0
  3 19  1  0
  3 20  1  0
  4 21  1  0
  4 22  1  0
  5 23  1  0
  5 24  1  0
  6 25  1  6
  7 26  1  6
  8 27  1  0
  8 28  1  0
  9 29  1  1
 10 30  1  0
 12 31  1  0
 14 32  1  0
 16 33  1  0
 34 35  1  0
 35 36  1  0
 36 37  1  0
 37 38  1  0
 38 39  1  0
 39 35  1  0
 36 40  1  0
 36 41  1  0
 37 42  1  0
 37 43  1  0
 38 44  1  0
 38 45  1  0
 39 46  1  6
 16 39  1  0
M  ISO  8  17  13  18  13  19  13  20  13  21  13  22  13  23  13  24  13
M  ISO  8  25  13  26  13  27  13  28  13  29  13  30  14  31  14  32  14
M  ISO  2  33   5  34   5
M  END
>  <DihAtoms>  (1) 
5,15,38,37

>  <DihDeg>  (1) 
179.9901779005436

$$$$
