REMARK  Name = 
REMARK  4 active torsions:
REMARK  status: ('A' for Active; 'I' for Inactive)
REMARK    1  A    between atoms: N_1  and  C_9
REMARK    2  A    between atoms: C_6  and  N_16
REMARK    3  A    between atoms: C_7  and  C_11
REMARK    4  A    between atoms: N_16  and  C_39
REMARK                            x       y       z     vdW  Elec       q    Type
REMARK                         _______ _______ _______ _____ _____    ______ ____
ROOT
ATOM      1  N   UNL     1      49.318  33.216  41.478  0.00  0.00    +0.000 NA
ATOM      2  C   UNL     1      50.663  33.122  42.047  0.00  0.00    +0.000 C 
ATOM      3  C   UNL     1      51.330  31.807  41.767  0.00  0.00    +0.000 C 
ATOM      4  C   UNL     1      50.585  30.717  42.539  0.00  0.00    +0.000 C 
ATOM      5  C   UNL     1      49.106  30.992  42.537  0.00  0.00    +0.000 C 
ATOM      6  C   UNL     1      48.772  31.903  41.387  0.00  0.00    +0.000 C 
ATOM      7  H   UNL     1      50.568  33.218  43.160  0.00  0.00    +0.000 HD
ATOM      8  H   UNL     1      51.297  33.940  41.699  0.00  0.00    +0.000 HD
ATOM      9  H   UNL     1      51.358  31.592  40.681  0.00  0.00    +0.000 HD
ATOM     10  H   UNL     1      52.367  31.891  42.099  0.00  0.00    +0.000 HD
ATOM     11  H   UNL     1      50.805  29.760  42.030  0.00  0.00    +0.000 HD
ATOM     12  H   UNL     1      50.974  30.671  43.571  0.00  0.00    +0.000 HD
ATOM     13  H   UNL     1      48.884  31.562  43.469  0.00  0.00    +0.000 HD
ATOM     14  H   UNL     1      48.462  30.122  42.542  0.00  0.00    +0.000 HD
ATOM     15  H   UNL     1      47.651  32.031  41.415  0.00  0.00    +0.000 HD
ENDROOT
BRANCH   1  18
ATOM     16  C   UNL     1      47.191  34.556  42.025  0.00  0.00    +0.000 C 
ATOM     17  C   UNL     1      48.327  35.469  41.739  0.00  0.00    +0.000 C 
ATOM     18  C   UNL     1      48.587  34.123  42.282  0.00  0.00    +0.000 C 
ATOM     19  H   UNL     1      46.633  34.254  41.101  0.00  0.00    +0.000 HD
ATOM     20  H   UNL     1      48.646  35.697  40.698  0.00  0.00    +0.000 HD
ATOM     21  H   UNL     1      48.457  36.333  42.442  0.00  0.00    +0.000 HD
ATOM     22  H   UNL     1      48.828  34.046  43.379  0.00  0.00    +0.000 HD
BRANCH  16  24
ATOM     23  C   UNL     1      45.506  36.020  43.146  0.00  0.00    +0.000 A 
ATOM     24  C   UNL     1      46.295  34.864  43.142  0.00  0.00    +0.000 A 
ATOM     25  C   UNL     1      46.182  33.985  44.245  0.00  0.00    +0.000 A 
ATOM     26  N   UNL     1      45.324  34.309  45.236  0.00  0.00    +0.000 NA
ATOM     27  C   UNL     1      44.572  35.429  45.219  0.00  0.00    +0.000 A 
ATOM     28  N   UNL     1      44.657  36.292  44.177  0.00  0.00    +0.000 NA
ATOM     29  H   UNL     1      45.599  36.687  42.299  0.00  0.00    +0.000 HD
ATOM     30  H   UNL     1      46.781  33.092  44.259  0.00  0.00    +0.000 HD
ATOM     31  H   UNL     1      43.883  35.689  46.016  0.00  0.00    +0.000 HD
ENDBRANCH  16  24
ENDBRANCH   1  18
BRANCH   6  32
ATOM     32  N   UNL     1      49.066  31.253  40.137  0.00  0.00    +0.000 NA
ATOM     33  H   UNL     1      48.807  31.958  39.389  0.00  0.00    +0.000 HD
BRANCH  32  39
ATOM     34  H   UNL     1      47.038  29.005  41.075  0.00  0.00    +0.000 HD
ATOM     35  N   UNL     1      47.085  29.949  40.602  0.00  0.00    +0.000 NA
ATOM     36  C   UNL     1      46.051  29.915  39.592  0.00  0.00    +0.000 C 
ATOM     37  C   UNL     1      46.725  29.104  38.507  0.00  0.00    +0.000 C 
ATOM     38  C   UNL     1      48.084  29.770  38.445  0.00  0.00    +0.000 C 
ATOM     39  C   UNL     1      48.347  30.046  39.917  0.00  0.00    +0.000 C 
ENDBRANCH  32  39
ENDBRANCH   6  32
TORSDOF 4
