
 OpenBabel03242515483D

 40 43  0  0  1  0  0  0  0  0999 V2000
   39.1090   33.6840   40.5750 C   0  0  0  0  0  0  0  0  0  0  0  0
   40.3470   33.2100   41.0180 C   0  0  0  0  0  0  0  0  0  0  0  0
   40.6070   31.8580   41.0560 C   0  0  0  0  0  0  0  0  0  0  0  0
   39.6760   30.9470   40.6670 C   0  0  0  0  0  0  0  0  0  0  0  0
   38.4530   31.3990   40.2290 C   0  0  0  0  0  0  0  0  0  0  0  0
   38.1610   32.7370   40.1780 C   0  0  0  0  0  0  0  0  0  0  0  0
   37.6890   30.2660   39.8930 O   0  0  0  0  0  0  0  0  0  0  0  0
   38.3490   29.1500   40.3380 C   0  0  1  0  0  0  0  0  0  0  0  0
   39.6720   29.5500   40.6040 O   0  0  0  0  0  0  0  0  0  0  0  0
   38.8290   34.7050   40.5140 H   0  0  0  0  0  0  0  0  0  0  0  0
   41.5840   31.5950   41.4100 H   0  0  0  0  0  0  0  0  0  0  0  0
   37.1940   33.0770   39.8300 H   0  0  0  0  0  0  0  0  0  0  0  0
   38.3090   28.3410   39.5650 H   0  0  0  0  0  0  0  0  0  0  0  0
   37.6940   28.6280   41.5170 N   0  0  0  0  0  0  0  0  0  0  0  0
   38.4510   28.3610   42.1910 H   0  0  0  0  0  0  0  0  0  0  0  0
   35.7480   27.1380   39.5060 H   0  0  0  0  0  0  0  0  0  0  0  0
   36.7320   27.3950   39.6950 N   0  0  0  0  0  0  0  0  0  0  0  0
   37.6080   26.4180   39.0560 C   0  0  0  0  0  2  0  0  0  0  0  0
   37.6220   25.3310   40.1280 C   0  0  0  0  0  2  0  0  0  0  0  0
   37.9740   26.1940   41.3410 C   0  0  0  0  0  2  0  0  0  0  0  0
   37.0640   27.3760   41.1060 C   0  0  1  0  0  3  0  0  0  0  0  0
   41.4670   34.5330   41.4930 S   0  0  0  0  0  0  0  0  0  0  0  0
   43.1270   34.1780   40.8060 C   0  0  0  0  0  0  0  0  0  0  0  0
   43.1980   34.0480   39.4590 C   0  0  0  0  0  0  0  0  0  0  0  0
   44.4600   33.7700   38.9660 C   0  0  0  0  0  0  0  0  0  0  0  0
   45.5340   33.6410   39.7620 N   0  0  0  0  0  0  0  0  0  0  0  0
   45.4150   33.7800   41.0990 C   0  0  0  0  0  0  0  0  0  0  0  0
   44.1990   34.0470   41.5840 N   0  0  0  0  0  0  0  0  0  0  0  0
   44.6510   33.5990   37.5510 N   0  0  0  0  0  0  0  0  0  0  0  0
   44.6510   34.3990   36.8810 H   0  0  0  0  0  0  0  0  0  0  0  0
   44.7830   32.5830   37.3220 H   0  0  0  0  0  0  0  0  0  0  0  0
   42.2060   34.1500   38.3410 C   0  0  0  0  0  0  0  0  0  0  0  0
   42.1220   33.1270   37.9110 H   0  0  0  0  0  0  0  0  0  0  0  0
   42.6070   34.7980   37.5270 H   0  0  0  0  0  0  0  0  0  0  0  0
   41.2290   34.4960   38.6860 H   0  0  0  0  0  0  0  0  0  0  0  0
   46.4470   33.6690   42.0120 O   0  0  0  0  0  0  0  0  0  0  0  0
   47.2060   34.8450   42.2710 C   0  0  0  0  0  0  0  0  0  0  0  0
   48.0920   34.6460   43.2770 F   0  0  0  0  0  0  0  0  0  0  0  0
   47.8300   35.2030   41.0650 F   0  0  0  0  0  0  0  0  0  0  0  0
   46.3190   35.8470   42.6730 F   0  0  0  0  0  0  0  0  0  0  0  0
  1  2  1  0  0  0  0
  2  3  2  0  0  0  0
  2 22  1  0  0  0  0
  3 11  1  0  0  0  0
  4  3  1  0  0  0  0
  5  4  2  0  0  0  0
  6  5  1  0  0  0  0
  6  1  2  0  0  0  0
  7  5  1  0  0  0  0
  7  8  1  0  0  0  0
  8 13  1  6  0  0  0
  8  9  1  0  0  0  0
  8 14  1  0  0  0  0
  9  4  1  0  0  0  0
 10  1  1  0  0  0  0
 12  6  1  0  0  0  0
 14 15  1  0  0  0  0
 16 17  1  0  0  0  0
 17 21  1  0  0  0  0
 18 17  1  0  0  0  0
 18 19  1  0  0  0  0
 19 20  1  0  0  0  0
 21 20  1  0  0  0  0
 21 14  1  6  0  0  0
 23 22  1  0  0  0  0
 23 28  1  0  0  0  0
 24 23  2  0  0  0  0
 25 24  1  0  0  0  0
 25 26  2  0  0  0  0
 26 27  1  0  0  0  0
 27 28  2  0  0  0  0
 27 36  1  0  0  0  0
 29 25  1  0  0  0  0
 30 29  1  0  0  0  0
 31 29  1  0  0  0  0
 32 35  1  0  0  0  0
 32 24  1  0  0  0  0
 33 32  1  0  0  0  0
 34 32  1  0  0  0  0
 36 37  1  0  0  0  0
 37 40  1  0  0  0  0
 37 38  1  0  0  0  0
 39 37  1  0  0  0  0
M  END
>  <minimizedAffinity>
-5.16060686

>  <minimizedRMSD>
2.03191972

$$$$
