
 OpenBabel03252506473D

 39 42  0  0  1  0  0  0  0  0999 V2000
   49.5440   33.4810   41.3680 N   0  0  1  0  0  0  0  0  0  0  0  0
   50.7030   33.0410   42.1460 C   0  0  0  0  0  0  0  0  0  0  0  0
   51.2560   31.7240   41.6840 C   0  0  0  0  0  0  0  0  0  0  0  0
   50.2310   30.6340   42.0020 C   0  0  0  0  0  0  0  0  0  0  0  0
   48.8350   31.1490   41.7810 C   0  0  0  0  0  0  0  0  0  0  0  0
   48.8820   32.3300   40.8510 C   0  0  2  0  0  0  0  0  0  0  0  0
   50.3680   32.9080   43.2080 H   0  0  0  0  0  0  0  0  0  0  0  0
   51.4910   33.7960   42.1420 H   0  0  0  0  0  0  0  0  0  0  0  0
   51.5060   31.7480   40.6060 H   0  0  0  0  0  0  0  0  0  0  0  0
   52.1920   31.5580   42.2220 H   0  0  0  0  0  0  0  0  0  0  0  0
   50.4470   29.7870   41.3250 H   0  0  0  0  0  0  0  0  0  0  0  0
   50.3660   30.3010   43.0460 H   0  0  0  0  0  0  0  0  0  0  0  0
   48.4750   31.5320   42.7640 H   0  0  0  0  0  0  0  0  0  0  0  0
   48.1090   30.4190   41.4460 H   0  0  0  0  0  0  0  0  0  0  0  0
   47.8080   32.6360   40.6910 H   0  0  0  0  0  0  0  0  0  0  0  0
   47.3500   34.6860   41.9620 C   0  0  1  0  0  0  0  0  0  0  0  0
   48.4450   35.6660   41.7500 C   0  0  0  0  0  0  0  0  0  0  0  0
   48.7610   34.3020   42.2140 C   0  0  2  0  0  0  0  0  0  0  0  0
   46.8190   34.4160   41.0120 H   0  0  0  0  0  0  0  0  0  0  0  0
   48.7670   35.9720   40.7300 H   0  0  0  0  0  0  0  0  0  0  0  0
   48.5260   36.4900   42.5070 H   0  0  0  0  0  0  0  0  0  0  0  0
   48.9910   34.1690   43.3080 H   0  0  0  0  0  0  0  0  0  0  0  0
   45.4980   35.9310   43.0840 C   0  0  0  0  0  0  0  0  0  0  0  0
   46.4260   34.8830   43.0810 C   0  0  0  0  0  0  0  0  0  0  0  0
   46.4270   34.0010   44.1870 C   0  0  0  0  0  0  0  0  0  0  0  0
   45.5380   34.2180   45.1800 N   0  0  0  0  0  0  0  0  0  0  0  0
   44.6520   35.2350   45.1620 C   0  0  0  0  0  0  0  0  0  0  0  0
   44.6250   36.0980   44.1170 N   0  0  0  0  0  0  0  0  0  0  0  0
   45.5040   36.6010   42.2350 H   0  0  0  0  0  0  0  0  0  0  0  0
   47.1340   33.1900   44.2020 H   0  0  0  0  0  0  0  0  0  0  0  0
   43.9380   35.4090   45.9610 H   0  0  0  0  0  0  0  0  0  0  0  0
   49.3750   31.9260   39.5600 N   0  0  0  0  0  0  0  0  0  0  0  0
   50.3210   32.3950   39.4650 H   0  0  0  0  0  0  0  0  0  0  0  0
   46.8500   33.4220   38.3630 H   0  0  0  0  0  0  0  0  0  0  0  0
   47.8650   33.5630   38.6230 N   0  0  0  0  0  0  0  0  0  0  0  0
   48.3880   34.4610   37.6170 C   0  0  0  0  0  2  0  0  0  0  0  0
   48.5990   33.5140   36.4570 C   0  0  0  0  0  2  0  0  0  0  0  0
   49.2960   32.3580   37.1450 C   0  0  0  0  0  2  0  0  0  0  0  0
   48.5480   32.3060   38.4680 C   0  0  1  0  0  3  0  0  0  0  0  0
  1  2  1  1  0  0  0
  1 18  1  0  0  0  0
  2  7  1  0  0  0  0
  3  4  1  0  0  0  0
  3  2  1  0  0  0  0
  3 10  1  0  0  0  0
  4 12  1  0  0  0  0
  5  4  1  0  0  0  0
  5 13  1  0  0  0  0
  6 15  1  6  0  0  0
  6  1  1  0  0  0  0
  6  5  1  0  0  0  0
  8  2  1  0  0  0  0
  9  3  1  0  0  0  0
 11  4  1  0  0  0  0
 14  5  1  0  0  0  0
 16 19  1  6  0  0  0
 16 18  1  0  0  0  0
 16 24  1  0  0  0  0
 17 16  1  0  0  0  0
 17 18  1  0  0  0  0
 17 21  1  0  0  0  0
 18 22  1  1  0  0  0
 20 17  1  0  0  0  0
 23 28  1  0  0  0  0
 24 23  2  0  0  0  0
 24 25  1  0  0  0  0
 25 30  1  0  0  0  0
 25 26  2  0  0  0  0
 27 26  1  0  0  0  0
 27 31  1  0  0  0  0
 28 27  2  0  0  0  0
 29 23  1  0  0  0  0
 32  6  1  0  0  0  0
 33 32  1  0  0  0  0
 34 35  1  0  0  0  0
 36 35  1  0  0  0  0
 37 38  1  0  0  0  0
 37 36  1  0  0  0  0
 38 39  1  0  0  0  0
 39 35  1  0  0  0  0
 39 32  1  1  0  0  0
M  END
>  <minimizedAffinity>
-5.29844618

>  <minimizedRMSD>
2.1259582

$$$$
