REMARK  Name = 
REMARK  7 active torsions:
REMARK  status: ('A' for Active; 'I' for Inactive)
REMARK    1  A    between atoms: C_1  and  S_9
REMARK    2  A    between atoms: C_2  and  C_8
REMARK    3  A    between atoms: C_5  and  O_20
REMARK    4  A    between atoms: S_9  and  C_11
REMARK    5  A    between atoms: C_17  and  N_19
REMARK    6  A    between atoms: N_19  and  C_40
REMARK    7  A    between atoms: O_20  and  C_21
REMARK                            x       y       z     vdW  Elec       q    Type
REMARK                         _______ _______ _______ _____ _____    ______ ____
ROOT
ATOM      1  C   UNL     1      38.932  33.619  40.483  0.00  0.00    +0.000 A 
ATOM      2  C   UNL     1      40.017  33.369  41.328  0.00  0.00    +0.000 A 
ATOM      3  C   UNL     1      40.176  32.135  41.918  0.00  0.00    +0.000 A 
ATOM      4  C   UNL     1      39.290  31.127  41.700  0.00  0.00    +0.000 A 
ATOM      5  C   UNL     1      38.218  31.358  40.871  0.00  0.00    +0.000 A 
ATOM      6  C   UNL     1      38.029  32.574  40.267  0.00  0.00    +0.000 A 
ATOM      7  O   UNL     1      37.470  30.167  40.819  0.00  0.00    +0.000 OA
ATOM      8  C   UNL     1      37.949  29.312  41.777  0.00  0.00    +0.000 C 
ATOM      9  O   UNL     1      39.210  29.808  42.158  0.00  0.00    +0.000 OA
ATOM     10  H   UNL     1      38.736  34.537  39.990  0.00  0.00    +0.000 HD
ATOM     11  H   UNL     1      41.038  32.043  42.548  0.00  0.00    +0.000 HD
ATOM     12  H   UNL     1      37.180  32.740  39.617  0.00  0.00    +0.000 HD
ATOM     13  H   UNL     1      38.020  28.272  41.369  0.00  0.00    +0.000 HD
ENDROOT
BRANCH   8  14
ATOM     14  N   UNL     1      37.030  29.256  42.893  0.00  0.00    +0.000 NA
ATOM     15  H   UNL     1      37.051  30.198  43.351  0.00  0.00    +0.000 HD
BRANCH  14  21
ATOM     16  H   UNL     1      39.247  27.073  43.502  0.00  0.00    +0.000 HD
ATOM     17  N   UNL     1      39.017  28.079  43.553  0.00  0.00    +0.000 NA
ATOM     18  C   UNL     1      39.783  28.686  44.637  0.00  0.00    +0.000 C 
ATOM     19  C   UNL     1      38.879  28.356  45.821  0.00  0.00    +0.000 C 
ATOM     20  C   UNL     1      37.552  28.873  45.262  0.00  0.00    +0.000 C 
ATOM     21  C   UNL     1      37.621  28.329  43.855  0.00  0.00    +0.000 C 
ENDBRANCH  14  21
ENDBRANCH   8  14
BRANCH   2  22
ATOM     22  S   UNL     1      41.095  34.795  41.513  0.00  0.00    +0.000 S 
BRANCH  22  23
ATOM     23  C   UNL     1      42.755  34.370  40.868  0.00  0.00    +0.000 A 
ATOM     24  C   UNL     1      42.855  34.240  39.522  0.00  0.00    +0.000 A 
ATOM     25  C   UNL     1      44.115  33.908  39.061  0.00  0.00    +0.000 A 
ATOM     26  N   UNL     1      45.162  33.730  39.884  0.00  0.00    +0.000 NA
ATOM     27  C   UNL     1      45.015  33.871  41.218  0.00  0.00    +0.000 A 
ATOM     28  N   UNL     1      43.800  34.190  41.672  0.00  0.00    +0.000 NA
ATOM     29  N   UNL     1      44.335  33.732  37.651  0.00  0.00    +0.000 N 
ATOM     30  H   UNL     1      44.387  34.533  36.984  0.00  0.00    +0.000 HD
ATOM     31  H   UNL     1      44.428  32.712  37.422  0.00  0.00    +0.000 HD
BRANCH  24  32
ATOM     32  C   UNL     1      41.897  34.388  38.380  0.00  0.00    +0.000 C 
ATOM     33  H   UNL     1      41.780  33.370  37.944  0.00  0.00    +0.000 HD
ATOM     34  H   UNL     1      42.347  35.019  37.578  0.00  0.00    +0.000 HD
ATOM     35  H   UNL     1      40.928  34.775  38.701  0.00  0.00    +0.000 HD
ENDBRANCH  24  32
BRANCH  27  36
ATOM     36  O   UNL     1      46.017  33.713  42.156  0.00  0.00    +0.000 OA
BRANCH  36  37
ATOM     37  C   UNL     1      46.856  34.838  42.398  0.00  0.00    +0.000 C 
ATOM     38  F   UNL     1      47.708  34.603  43.425  0.00  0.00    +0.000 F 
ATOM     39  F   UNL     1      47.524  35.115  41.194  0.00  0.00    +0.000 F 
ATOM     40  F   UNL     1      46.038  35.912  42.756  0.00  0.00    +0.000 F 
ENDBRANCH  36  37
ENDBRANCH  27  36
ENDBRANCH  22  23
ENDBRANCH   2  22
TORSDOF 7
