
 OpenBabel03252506463D

 39 42  0  0  1  0  0  0  0  0999 V2000
   49.4860   33.4640   41.3230 N   0  0  1  0  0  0  0  0  0  0  0  0
   50.6720   33.0210   42.0570 C   0  0  0  0  0  0  0  0  0  0  0  0
   51.2140   31.7110   41.5650 C   0  0  0  0  0  0  0  0  0  0  0  0
   50.2040   30.6150   41.9080 C   0  0  0  0  0  0  0  0  0  0  0  0
   48.7990   31.1260   41.7390 C   0  0  0  0  0  0  0  0  0  0  0  0
   48.8110   32.3150   40.8180 C   0  0  2  0  0  0  0  0  0  0  0  0
   50.3740   32.8780   43.1280 H   0  0  0  0  0  0  0  0  0  0  0  0
   51.4580   33.7790   42.0320 H   0  0  0  0  0  0  0  0  0  0  0  0
   51.4260   31.7440   40.4780 H   0  0  0  0  0  0  0  0  0  0  0  0
   52.1680   31.5430   42.0680 H   0  0  0  0  0  0  0  0  0  0  0  0
   50.3990   29.7740   41.2160 H   0  0  0  0  0  0  0  0  0  0  0  0
   50.3750   30.2730   42.9440 H   0  0  0  0  0  0  0  0  0  0  0  0
   48.4710   31.5000   42.7370 H   0  0  0  0  0  0  0  0  0  0  0  0
   48.0640   30.3970   41.4220 H   0  0  0  0  0  0  0  0  0  0  0  0
   47.7300   32.6190   40.6980 H   0  0  0  0  0  0  0  0  0  0  0  0
   47.3340   34.7200   41.9630 C   0  0  1  0  0  0  0  0  0  0  0  0
   48.4660   35.6680   41.7980 C   0  0  0  0  0  0  0  0  0  0  0  0
   48.7300   34.2750   42.2020 C   0  0  2  0  0  0  0  0  0  0  0  0
   46.7980   34.5120   41.0010 H   0  0  0  0  0  0  0  0  0  0  0  0
   48.8030   36.0070   40.7930 H   0  0  0  0  0  0  0  0  0  0  0  0
   48.5730   36.4550   42.5900 H   0  0  0  0  0  0  0  0  0  0  0  0
   48.9500   34.0860   43.2900 H   0  0  0  0  0  0  0  0  0  0  0  0
   45.4830   35.9480   43.1060 C   0  0  0  0  0  0  0  0  0  0  0  0
   46.4130   34.9020   43.0870 C   0  0  0  0  0  0  0  0  0  0  0  0
   46.4200   34.0060   44.1820 C   0  0  0  0  0  0  0  0  0  0  0  0
   45.5340   34.2090   45.1810 N   0  0  0  0  0  0  0  0  0  0  0  0
   44.6450   35.2240   45.1780 C   0  0  0  0  0  0  0  0  0  0  0  0
   44.6130   36.1000   44.1440 N   0  0  0  0  0  0  0  0  0  0  0  0
   45.4850   36.6290   42.2650 H   0  0  0  0  0  0  0  0  0  0  0  0
   47.1280   33.1960   44.1850 H   0  0  0  0  0  0  0  0  0  0  0  0
   43.9340   35.3870   45.9810 H   0  0  0  0  0  0  0  0  0  0  0  0
   49.2610   31.9240   39.5080 N   0  0  0  0  0  0  0  0  0  0  0  0
   50.3100   31.8070   39.5980 H   0  0  0  0  0  0  0  0  0  0  0  0
   50.1630   33.7910   37.1100 H   0  0  0  0  0  0  0  0  0  0  0  0
   49.8490   32.8080   37.3370 N   0  0  0  0  0  0  0  0  0  0  0  0
   49.0420   32.4030   36.2060 C   0  0  0  0  0  2  0  0  0  0  0  0
   47.7390   33.1140   36.5040 C   0  0  0  0  0  2  0  0  0  0  0  0
   47.5500   32.7760   37.9680 C   0  0  0  0  0  2  0  0  0  0  0  0
   48.9770   32.8670   38.4820 C   0  0  1  0  0  3  0  0  0  0  0  0
  1  2  1  1  0  0  0
  1 18  1  0  0  0  0
  2  7  1  0  0  0  0
  3  4  1  0  0  0  0
  3  2  1  0  0  0  0
  3 10  1  0  0  0  0
  4 12  1  0  0  0  0
  5  4  1  0  0  0  0
  5 13  1  0  0  0  0
  6 15  1  6  0  0  0
  6  1  1  0  0  0  0
  6  5  1  0  0  0  0
  8  2  1  0  0  0  0
  9  3  1  0  0  0  0
 11  4  1  0  0  0  0
 14  5  1  0  0  0  0
 16 19  1  6  0  0  0
 16 18  1  0  0  0  0
 16 24  1  0  0  0  0
 17 16  1  0  0  0  0
 17 18  1  0  0  0  0
 17 21  1  0  0  0  0
 18 22  1  1  0  0  0
 20 17  1  0  0  0  0
 23 28  1  0  0  0  0
 24 23  2  0  0  0  0
 24 25  1  0  0  0  0
 25 30  1  0  0  0  0
 25 26  2  0  0  0  0
 27 26  1  0  0  0  0
 27 31  1  0  0  0  0
 28 27  2  0  0  0  0
 29 23  1  0  0  0  0
 32 33  1  0  0  0  0
 32  6  1  0  0  0  0
 34 35  1  0  0  0  0
 35 39  1  0  0  0  0
 36 37  1  0  0  0  0
 36 35  1  0  0  0  0
 37 38  1  0  0  0  0
 38 39  1  0  0  0  0
 39 32  1  1  0  0  0
M  END
>  <minimizedAffinity>
-5.21767235

>  <minimizedRMSD>
2.40211606

$$$$
