
     RDKit          3D

 47 50  0  0  0  0  0  0  0  0999 V2000
   42.7552   34.3703   40.8676 C   0  0  0  0  0  0  0  0  0  0  0  0
   42.8550   34.2404   39.5222 C   0  0  0  0  0  0  0  0  0  0  0  0
   44.1154   33.9085   39.0613 C   0  0  0  0  0  0  0  0  0  0  0  0
   45.1619   33.7297   39.8841 N   0  0  0  0  0  0  0  0  0  0  0  0
   45.0152   33.8708   41.2180 C   0  0  0  0  0  0  0  0  0  0  0  0
   43.8004   34.1904   41.6715 N   0  0  0  0  0  0  0  0  0  0  0  0
   44.3348   33.7324   37.6505 N   0  0  0  0  0  0  0  0  0  0  0  0
   41.8970   34.3877   38.3797 C   0  0  0  0  0  0  0  0  0  0  0  0
   41.0949   34.7946   41.5131 S   0  0  0  0  0  0  0  0  0  0  0  0
   38.9324   33.6188   40.4828 C   0  0  0  0  0  0  0  0  0  0  0  0
   40.0175   33.3689   41.3279 C   0  0  0  0  0  0  0  0  0  0  0  0
   40.1760   32.1353   41.9177 C   0  0  0  0  0  0  0  0  0  0  0  0
   39.2902   31.1270   41.6998 C   0  0  0  0  0  0  0  0  0  0  0  0
   38.2182   31.3576   40.8712 C   0  0  0  0  0  0  0  0  0  0  0  0
   38.0286   32.5737   40.2670 C   0  0  0  0  0  0  0  0  0  0  0  0
   37.4697   30.1673   40.8188 O   0  0  0  0  0  0  0  0  0  0  0  0
   37.9491   29.3124   41.7774 C   0  0  1  0  0  0  0  0  0  0  0  0
   39.2101   29.8084   42.1578 O   0  0  0  0  0  0  0  0  0  0  0  0
   37.0302   29.2561   42.8929 N   0  0  0  0  0  0  0  0  0  0  0  0
   46.0166   33.7128   42.1557 O   0  0  0  0  0  0  0  0  0  0  0  0
   46.8561   34.8378   42.3980 C   0  0  0  0  0  0  0  0  0  0  0  0
   47.7080   34.6031   43.4248 F   0  0  0  0  0  0  0  0  0  0  0  0
   47.5240   35.1146   41.1944 F   0  0  0  0  0  0  0  0  0  0  0  0
   46.0375   35.9123   42.7558 F   0  0  0  0  0  0  0  0  0  0  0  0
   44.3870   34.5327   36.9840 H   0  0  0  0  0  0  0  0  0  0  0  0
   44.4280   32.7123   37.4224 H   0  0  0  0  0  0  0  0  0  0  0  0
   41.7804   33.3700   37.9441 H   0  0  0  0  0  0  0  0  0  0  0  0
   42.3468   35.0192   37.5783 H   0  0  0  0  0  0  0  0  0  0  0  0
   40.9285   34.7749   38.7014 H   0  0  0  0  0  0  0  0  0  0  0  0
   38.7364   34.5369   39.9902 H   0  0  0  0  0  0  0  0  0  0  0  0
   41.0377   32.0427   42.5476 H   0  0  0  0  0  0  0  0  0  0  0  0
   37.1800   32.7402   39.6174 H   0  0  0  0  0  0  0  0  0  0  0  0
   38.0200   28.2722   41.3693 H   0  0  0  0  0  0  0  0  0  0  0  0
   37.0513   30.1977   43.3508 H   0  0  0  0  0  0  0  0  0  0  0  0
   38.5696   26.5304   43.3949 H   0  0  0  0  0  0  0  0  0  0  0  0
   38.6799   27.5475   43.2466 N   0  0  0  0  0  0  0  0  0  0  0  0
   39.9226   27.9856   43.8757 C   0  0  0  0  0  0  0  0  0  0  0  0
   39.4404   28.1834   45.3104 C   0  0  0  0  0  0  0  0  0  0  0  0
   38.2171   29.0603   45.0341 C   0  0  0  0  0  0  0  0  0  0  0  0
   37.6207   28.3287   43.8546 C   0  0  1  0  0  0  0  0  0  0  0  0
   40.1746   28.9903   43.4794 H   0  0  0  0  0  0  0  0  0  0  0  0
   40.7097   27.2363   43.7840 H   0  0  0  0  0  0  0  0  0  0  0  0
   40.1696   28.6585   45.9612 H   0  0  0  0  0  0  0  0  0  0  0  0
   39.0598   27.1983   45.6439 H   0  0  0  0  0  0  0  0  0  0  0  0
   37.5328   28.9180   45.8916 H   0  0  0  0  0  0  0  0  0  0  0  0
   38.4860   30.1042   44.8323 H   0  0  0  0  0  0  0  0  0  0  0  0
   36.8127   27.6285   44.1502 H   0  0  0  0  0  0  0  0  0  0  0  0
  1  9  1  0
  1  6  1  0
  2  1  2  0
  3  2  1  0
  3  4  2  0
  4  5  1  0
  5  6  2  0
  5 20  1  0
  7  3  1  0
  8  2  1  0
 10 11  2  0
 11  9  1  0
 11 12  1  0
 13 12  2  0
 13 18  1  0
 14 13  1  0
 15 10  1  0
 15 14  2  0
 16 14  1  0
 16 17  1  0
 17 18  1  0
 17 19  1  0
 20 21  1  0
 21 24  1  0
 21 22  1  0
 23 21  1  0
  7 25  1  0
  7 26  1  0
  8 27  1  0
  8 28  1  0
  8 29  1  0
 10 30  1  0
 12 31  1  0
 15 32  1  0
 17 33  1  6
 19 34  1  0
 35 36  1  0
 36 37  1  0
 37 38  1  0
 38 39  1  0
 39 40  1  0
 40 36  1  0
 37 41  1  0
 37 42  1  0
 38 43  1  0
 38 44  1  0
 39 45  1  0
 39 46  1  0
 40 47  1  1
 19 40  1  0
M  ISO  8  27   8  28   8  29   8  30  14  31  14  32  14  33  13  34   5
M  ISO  1  35   5
M  END
>  <DihAtoms>  (1) 
16,18,39,38

>  <DihDeg>  (1) 
-179.9948536842417

$$$$
