
 OpenBabel03252506473D

 39 42  0  0  1  0  0  0  0  0999 V2000
   49.5960   33.3680   41.3640 N   0  0  1  0  0  0  0  0  0  0  0  0
   50.7410   32.9440   42.1690 C   0  0  0  0  0  0  0  0  0  0  0  0
   51.2940   31.6120   41.7510 C   0  0  0  0  0  0  0  0  0  0  0  0
   50.2590   30.5370   42.0840 C   0  0  0  0  0  0  0  0  0  0  0  0
   48.8690   31.0520   41.8300 C   0  0  0  0  0  0  0  0  0  0  0  0
   48.9350   32.2070   40.8680 C   0  0  2  0  0  0  0  0  0  0  0  0
   50.3910   32.8410   43.2300 H   0  0  0  0  0  0  0  0  0  0  0  0
   51.5340   33.6940   42.1550 H   0  0  0  0  0  0  0  0  0  0  0  0
   51.5590   31.6060   40.6760 H   0  0  0  0  0  0  0  0  0  0  0  0
   52.2220   31.4570   42.3060 H   0  0  0  0  0  0  0  0  0  0  0  0
   50.4800   29.6710   41.4330 H   0  0  0  0  0  0  0  0  0  0  0  0
   50.3770   30.2310   43.1380 H   0  0  0  0  0  0  0  0  0  0  0  0
   48.4970   31.4640   42.7970 H   0  0  0  0  0  0  0  0  0  0  0  0
   48.1430   30.3170   41.5040 H   0  0  0  0  0  0  0  0  0  0  0  0
   47.8640   32.5140   40.6850 H   0  0  0  0  0  0  0  0  0  0  0  0
   47.3900   34.5760   41.9090 C   0  0  1  0  0  0  0  0  0  0  0  0
   48.4770   35.5570   41.6570 C   0  0  0  0  0  0  0  0  0  0  0  0
   48.8050   34.2160   42.1760 C   0  0  2  0  0  0  0  0  0  0  0  0
   46.8610   34.2630   40.9720 H   0  0  0  0  0  0  0  0  0  0  0  0
   48.7950   35.8240   40.6250 H   0  0  0  0  0  0  0  0  0  0  0  0
   48.5500   36.4110   42.3790 H   0  0  0  0  0  0  0  0  0  0  0  0
   49.0360   34.1290   43.2740 H   0  0  0  0  0  0  0  0  0  0  0  0
   45.5560   35.8740   42.9990 C   0  0  0  0  0  0  0  0  0  0  0  0
   46.4650   34.8100   43.0200 C   0  0  0  0  0  0  0  0  0  0  0  0
   46.4450   33.9480   44.1420 C   0  0  0  0  0  0  0  0  0  0  0  0
   45.5560   34.2000   45.1260 N   0  0  0  0  0  0  0  0  0  0  0  0
   44.6880   35.2310   45.0850 C   0  0  0  0  0  0  0  0  0  0  0  0
   44.6810   36.0760   44.0250 N   0  0  0  0  0  0  0  0  0  0  0  0
   45.5780   36.5280   42.1380 H   0  0  0  0  0  0  0  0  0  0  0  0
   47.1370   33.1250   44.1750 H   0  0  0  0  0  0  0  0  0  0  0  0
   43.9740   35.4330   45.8770 H   0  0  0  0  0  0  0  0  0  0  0  0
   49.4440   31.7660   39.5960 N   0  0  0  0  0  0  0  0  0  0  0  0
   50.3400   32.3120   39.4500 H   0  0  0  0  0  0  0  0  0  0  0  0
   46.7490   31.2180   38.0200 H   0  0  0  0  0  0  0  0  0  0  0  0
   47.1680   31.8160   38.7840 N   0  0  0  0  0  0  0  0  0  0  0  0
   46.5340   33.1080   38.6410 C   0  0  0  0  0  2  0  0  0  0  0  0
   47.3070   33.6870   37.4750 C   0  0  0  0  0  2  0  0  0  0  0  0
   48.7320   33.3750   37.8850 C   0  0  0  0  0  2  0  0  0  0  0  0
   48.5680   31.9940   38.5000 C   0  0  1  0  0  3  0  0  0  0  0  0
  1  2  1  1  0  0  0
  1 18  1  0  0  0  0
  2  7  1  0  0  0  0
  3  4  1  0  0  0  0
  3  2  1  0  0  0  0
  3 10  1  0  0  0  0
  4 12  1  0  0  0  0
  5  4  1  0  0  0  0
  5 13  1  0  0  0  0
  6 15  1  6  0  0  0
  6  1  1  0  0  0  0
  6  5  1  0  0  0  0
  8  2  1  0  0  0  0
  9  3  1  0  0  0  0
 11  4  1  0  0  0  0
 14  5  1  0  0  0  0
 16 19  1  6  0  0  0
 16 18  1  0  0  0  0
 16 24  1  0  0  0  0
 17 16  1  0  0  0  0
 17 18  1  0  0  0  0
 17 21  1  0  0  0  0
 18 22  1  1  0  0  0
 20 17  1  0  0  0  0
 23 24  2  0  0  0  0
 23 28  1  0  0  0  0
 24 25  1  0  0  0  0
 25 30  1  0  0  0  0
 25 26  2  0  0  0  0
 27 26  1  0  0  0  0
 27 31  1  0  0  0  0
 28 27  2  0  0  0  0
 29 23  1  0  0  0  0
 32  6  1  0  0  0  0
 33 32  1  0  0  0  0
 34 35  1  0  0  0  0
 36 35  1  0  0  0  0
 37 38  1  0  0  0  0
 37 36  1  0  0  0  0
 38 39  1  0  0  0  0
 39 35  1  0  0  0  0
 39 32  1  1  0  0  0
M  END
>  <minimizedAffinity>
-4.94694757

>  <minimizedRMSD>
2.10592532

$$$$
