
 OpenBabel03252508023D

 39 42  0  0  1  0  0  0  0  0999 V2000
   44.1610   34.1230   41.5000 C   0  0  0  0  0  0  0  0  0  0  0  0
   44.9980   33.7890   40.5940 O   0  0  0  0  0  0  0  0  0  0  0  0
   41.7990   33.3170   41.3520 C   0  0  0  0  0  0  0  0  0  0  0  0
   42.7300   34.3330   41.2710 C   0  0  0  0  0  0  0  0  0  0  0  0
   42.2880   35.6200   40.9640 C   0  0  0  0  0  0  0  0  0  0  0  0
   40.9470   35.8960   40.7430 C   0  0  0  0  0  0  0  0  0  0  0  0
   40.0210   34.8880   40.8230 C   0  0  0  0  0  0  0  0  0  0  0  0
   40.4690   33.6300   41.1250 C   0  0  0  0  0  0  0  0  0  0  0  0
   42.9330   36.4810   40.8740 H   0  0  0  0  0  0  0  0  0  0  0  0
   40.6080   36.8720   40.5100 H   0  0  0  0  0  0  0  0  0  0  0  0
   38.9790   35.0440   40.6620 H   0  0  0  0  0  0  0  0  0  0  0  0
   39.7260   32.8260   41.1880 H   0  0  0  0  0  0  0  0  0  0  0  0
   42.2520   31.7300   41.6490 S   0  0  0  0  0  0  0  0  0  0  0  0
   42.0700   31.0610   40.3140 O   0  0  0  0  0  0  0  0  0  0  0  0
   41.2520   31.1160   42.6610 O   0  0  0  0  0  0  0  0  0  0  0  0
   44.6690   29.9630   43.5930 H   0  0  0  0  0  0  0  0  0  0  0  0
   43.6810   30.3060   43.4200 N   0  0  0  0  0  0  0  0  0  0  0  0
   42.7500   29.2130   43.4730 C   0  0  0  0  0  2  0  0  0  0  0  0
   42.6330   28.7100   42.0780 C   0  0  0  0  0  2  0  0  0  0  0  0
   43.7160   29.5080   41.4100 C   0  0  0  0  0  2  0  0  0  0  0  0
   43.6180   30.9430   42.1190 C   0  0  1  0  0  3  0  0  0  0  0  0
   44.5360   34.3310   42.8720 C   0  0  0  0  0  0  0  0  0  0  0  0
   44.3030   35.6260   43.4160 C   0  0  0  0  0  0  0  0  0  0  0  0
   44.6590   35.8220   44.7440 C   0  0  0  0  0  0  0  0  0  0  0  0
   45.2000   34.7830   45.4330 N   0  0  0  0  0  0  0  0  0  0  0  0
   45.4060   33.5530   44.8650 C   0  0  0  0  0  0  0  0  0  0  0  0
   45.0690   33.3980   43.6400 N   0  0  0  0  0  0  0  0  0  0  0  0
   43.8820   36.4720   42.9170 H   0  0  0  0  0  0  0  0  0  0  0  0
   44.5310   36.7530   45.2600 H   0  0  0  0  0  0  0  0  0  0  0  0
   45.9930   32.4790   45.6890 C   0  0  1  0  0  0  0  0  0  0  0  0
   46.9300   32.8530   46.8170 C   0  0  0  0  0  0  0  0  0  0  0  0
   45.5140   32.4480   47.0970 C   0  0  1  0  0  0  0  0  0  0  0  0
   46.2610   31.5390   45.1990 H   0  0  0  0  0  0  0  0  0  0  0  0
   47.2540   33.9090   46.8880 H   0  0  0  0  0  0  0  0  0  0  0  0
   47.7070   32.1320   47.1270 H   0  0  0  0  0  0  0  0  0  0  0  0
   45.3270   31.4580   47.5590 H   0  0  0  0  0  0  0  0  0  0  0  0
   44.7300   33.5470   47.6210 N   0  0  0  0  0  0  0  0  0  0  0  0
   45.3220   34.2560   48.1040 H   0  0  0  0  0  0  0  0  0  0  0  0
   43.9850   33.1670   48.2690 H   0  0  0  0  0  0  0  0  0  0  0  0
  1 22  1  0  0  0  0
  2  1  2  0  0  0  0
  3 13  1  0  0  0  0
  4  3  1  0  0  0  0
  4  1  1  0  0  0  0
  5  4  2  0  0  0  0
  6  7  2  0  0  0  0
  6  5  1  0  0  0  0
  7  8  1  0  0  0  0
  8 12  1  0  0  0  0
  8  3  2  0  0  0  0
  9  5  1  0  0  0  0
 10  6  1  0  0  0  0
 11  7  1  0  0  0  0
 13 15  2  0  0  0  0
 14 13  2  0  0  0  0
 17 18  1  0  0  0  0
 17 16  1  0  0  0  0
 19 18  1  0  0  0  0
 20 19  1  0  0  0  0
 20 21  1  0  0  0  0
 21 13  1  1  0  0  0
 21 17  1  0  0  0  0
 22 23  2  0  0  0  0
 22 27  1  0  0  0  0
 23 24  1  0  0  0  0
 24 29  1  0  0  0  0
 24 25  2  0  0  0  0
 26 25  1  0  0  0  0
 26 30  1  0  0  0  0
 27 26  2  0  0  0  0
 28 23  1  0  0  0  0
 30 33  1  6  0  0  0
 30 31  1  0  0  0  0
 30 32  1  0  0  0  0
 31 34  1  0  0  0  0
 31 32  1  0  0  0  0
 31 35  1  0  0  0  0
 32 36  1  1  0  0  0
 32 37  1  0  0  0  0
 37 38  1  0  0  0  0
 37 39  1  0  0  0  0
M  END
>  <minimizedAffinity>
-6.03621244

>  <minimizedRMSD>
0.423601508

$$$$
