
 OpenBabel03252502003D

 31 34  0  0  0  0  0  0  0  0999 V2000
   47.2500   32.3300   47.9830 C   0  0  0  0  0  0  0  0  0  0  0  0
   46.8930   30.9990   47.9830 C   0  0  0  0  0  0  0  0  0  0  0  0
   46.1740   30.5650   46.9090 C   0  0  0  0  0  0  0  0  0  0  0  0
   45.8460   31.4100   45.9190 N   0  0  0  0  0  0  0  0  0  0  0  0
   46.1950   32.6920   45.9260 C   0  0  0  0  0  0  0  0  0  0  0  0
   46.8980   33.1200   46.9750 N   0  0  0  0  0  0  0  0  0  0  0  0
   47.8270   32.6810   48.8420 H   0  0  0  0  0  0  0  0  0  0  0  0
   45.7530   29.2360   46.7940 N   0  0  0  0  0  0  0  0  0  0  0  0
   45.8500   28.4160   45.5770 C   0  0  0  0  0  2  0  0  0  0  0  0
   45.4030   27.0350   45.9930 C   0  0  0  0  0  2  0  0  0  0  0  0
   44.4370   27.3320   47.1430 C   0  0  0  0  0  2  0  0  0  0  0  0
   45.1510   28.4470   47.8540 C   0  0  0  0  0  3  0  0  0  0  0  0
   46.0040   28.0260   48.4600 H   0  0  0  0  0  0  0  0  0  0  0  0
   45.9460   33.7810   44.9580 C   0  0  0  0  0  0  0  0  0  0  0  0
   44.9470   34.6880   45.0950 N   0  0  0  0  0  0  0  0  0  0  0  0
   44.6970   35.6770   44.2460 C   0  0  0  0  0  0  0  0  0  0  0  0
   45.4690   35.8310   43.1460 N   0  0  0  0  0  0  0  0  0  0  0  0
   46.4920   34.9930   42.9000 C   0  0  0  0  0  0  0  0  0  0  0  0
   47.2720   35.1580   41.7790 C   0  0  0  0  0  0  0  0  0  0  0  0
   48.3140   34.3110   41.5180 C   0  0  0  0  0  0  0  0  0  0  0  0
   48.5510   33.2930   42.4190 C   0  0  0  0  0  0  0  0  0  0  0  0
   47.7450   33.1640   43.5280 C   0  0  0  0  0  0  0  0  0  0  0  0
   46.6930   33.9900   43.8250 C   0  0  0  0  0  0  0  0  0  0  0  0
   43.8680   36.3410   44.4650 H   0  0  0  0  0  0  0  0  0  0  0  0
   47.0790   35.9610   41.0760 H   0  0  0  0  0  0  0  0  0  0  0  0
   48.9170   34.4550   40.6330 H   0  0  0  0  0  0  0  0  0  0  0  0
   49.3630   32.5950   42.2600 H   0  0  0  0  0  0  0  0  0  0  0  0
   47.9750   32.3410   44.2090 H   0  0  0  0  0  0  0  0  0  0  0  0
   47.2620   30.1540   49.0460 N   0  0  0  0  0  0  0  0  0  0  0  0
   48.1520   29.6170   48.9300 H   0  0  0  0  0  0  0  0  0  0  0  0
   46.6950   30.0380   49.9350 H   0  0  0  0  0  0  0  0  0  0  0  0
  1  7  1  0  0  0  0
  2  1  1  0  0  0  0
  2 29  1  0  0  0  0
  3  2  2  0  0  0  0
  4  5  2  0  0  0  0
  4  3  1  0  0  0  0
  5  6  1  0  0  0  0
  6  1  2  0  0  0  0
  8  3  1  0  0  0  0
  8 12  1  0  0  0  0
  9 10  1  0  0  0  0
  9  8  1  0  0  0  0
 10 11  1  0  0  0  0
 11 12  1  0  0  0  0
 12 13  1  0  0  0  0
 14 15  1  0  0  0  0
 14  5  1  0  0  0  0
 16 24  1  0  0  0  0
 16 15  2  0  0  0  0
 17 16  1  0  0  0  0
 18 17  2  0  0  0  0
 18 23  1  0  0  0  0
 19 18  1  0  0  0  0
 20 19  2  0  0  0  0
 20 21  1  0  0  0  0
 21 22  2  0  0  0  0
 22 23  1  0  0  0  0
 22 28  1  0  0  0  0
 23 14  2  0  0  0  0
 25 19  1  0  0  0  0
 26 20  1  0  0  0  0
 27 21  1  0  0  0  0
 29 31  1  0  0  0  0
 30 29  1  0  0  0  0
M  END
>  <minimizedAffinity>
-6.32581902

>  <minimizedRMSD>
0.555906475

$$$$
