
 OpenBabel03252501593D

 31 34  0  0  0  0  0  0  0  0999 V2000
   47.6100   32.2670   48.1660 C   0  0  0  0  0  0  0  0  0  0  0  0
   47.2850   30.9280   48.1900 C   0  0  0  0  0  0  0  0  0  0  0  0
   46.4500   30.4890   47.2050 C   0  0  0  0  0  0  0  0  0  0  0  0
   45.9850   31.3380   46.2750 N   0  0  0  0  0  0  0  0  0  0  0  0
   46.3030   32.6280   46.2580 C   0  0  0  0  0  0  0  0  0  0  0  0
   47.1190   33.0600   47.2200 N   0  0  0  0  0  0  0  0  0  0  0  0
   48.2790   32.6210   48.9530 H   0  0  0  0  0  0  0  0  0  0  0  0
   46.0480   29.1520   47.1220 N   0  0  0  0  0  0  0  0  0  0  0  0
   46.5510   28.1730   46.1480 C   0  0  0  0  0  2  0  0  0  0  0  0
   45.9290   26.8570   46.5520 C   0  0  0  0  0  2  0  0  0  0  0  0
   44.6220   27.2990   47.2160 C   0  0  0  0  0  2  0  0  0  0  0  0
   45.0700   28.5110   47.9820 C   0  0  0  0  0  3  0  0  0  0  0  0
   45.6240   28.1900   48.9110 H   0  0  0  0  0  0  0  0  0  0  0  0
   45.9140   33.7220   45.3450 C   0  0  0  0  0  0  0  0  0  0  0  0
   44.9360   34.6190   45.6270 N   0  0  0  0  0  0  0  0  0  0  0  0
   44.5630   35.6120   44.8300 C   0  0  0  0  0  0  0  0  0  0  0  0
   45.1740   35.7830   43.6350 N   0  0  0  0  0  0  0  0  0  0  0  0
   46.1590   34.9560   43.2420 C   0  0  0  0  0  0  0  0  0  0  0  0
   46.7750   35.1370   42.0250 C   0  0  0  0  0  0  0  0  0  0  0  0
   47.7780   34.3020   41.6140 C   0  0  0  0  0  0  0  0  0  0  0  0
   48.1450   33.2780   42.4650 C   0  0  0  0  0  0  0  0  0  0  0  0
   47.5020   33.1340   43.6730 C   0  0  0  0  0  0  0  0  0  0  0  0
   46.4950   33.9470   44.1210 C   0  0  0  0  0  0  0  0  0  0  0  0
   43.7670   36.2670   45.1670 H   0  0  0  0  0  0  0  0  0  0  0  0
   46.4800   35.9440   41.3630 H   0  0  0  0  0  0  0  0  0  0  0  0
   48.2510   34.4580   40.6550 H   0  0  0  0  0  0  0  0  0  0  0  0
   48.9340   32.5900   42.1880 H   0  0  0  0  0  0  0  0  0  0  0  0
   47.8310   32.3070   44.3080 H   0  0  0  0  0  0  0  0  0  0  0  0
   47.7990   30.0790   49.1870 N   0  0  0  0  0  0  0  0  0  0  0  0
   48.6810   29.5650   48.9560 H   0  0  0  0  0  0  0  0  0  0  0  0
   47.3480   29.9380   50.1360 H   0  0  0  0  0  0  0  0  0  0  0  0
  1  2  1  0  0  0  0
  1  7  1  0  0  0  0
  2 29  1  0  0  0  0
  3  2  2  0  0  0  0
  4  3  1  0  0  0  0
  5  4  2  0  0  0  0
  5  6  1  0  0  0  0
  6  1  2  0  0  0  0
  8  3  1  0  0  0  0
  8 12  1  0  0  0  0
  9 10  1  0  0  0  0
  9  8  1  0  0  0  0
 10 11  1  0  0  0  0
 11 12  1  0  0  0  0
 12 13  1  0  0  0  0
 14 15  1  0  0  0  0
 14  5  1  0  0  0  0
 16 24  1  0  0  0  0
 16 15  2  0  0  0  0
 17 16  1  0  0  0  0
 18 17  2  0  0  0  0
 18 23  1  0  0  0  0
 19 18  1  0  0  0  0
 20 19  2  0  0  0  0
 20 21  1  0  0  0  0
 21 22  2  0  0  0  0
 22 23  1  0  0  0  0
 22 28  1  0  0  0  0
 23 14  2  0  0  0  0
 25 19  1  0  0  0  0
 26 20  1  0  0  0  0
 27 21  1  0  0  0  0
 29 31  1  0  0  0  0
 30 29  1  0  0  0  0
M  END
>  <minimizedAffinity>
-6.35063171

>  <minimizedRMSD>
0.193481669

$$$$
