
     RDKit          3D

 38 41  0  0  0  0  0  0  0  0999 V2000
   45.8957   33.7165   45.4094 C   0  0  0  0  0  0  0  0  0  0  0  0
   44.9182   34.6189   45.6723 N   0  0  0  0  0  0  0  0  0  0  0  0
   44.5481   35.5977   44.8558 C   0  0  0  0  0  0  0  0  0  0  0  0
   45.1630   35.7469   43.6598 N   0  0  0  0  0  0  0  0  0  0  0  0
   46.1490   34.9131   43.2845 C   0  0  0  0  0  0  0  0  0  0  0  0
   46.7686   35.0723   42.0667 C   0  0  0  0  0  0  0  0  0  0  0  0
   47.7728   34.2294   41.6753 C   0  0  0  0  0  0  0  0  0  0  0  0
   48.1367   33.2207   42.5449 C   0  0  0  0  0  0  0  0  0  0  0  0
   47.4901   33.0984   43.7527 C   0  0  0  0  0  0  0  0  0  0  0  0
   46.4806   33.9198   44.1834 C   0  0  0  0  0  0  0  0  0  0  0  0
   47.6660   32.2860   48.1971 C   0  0  0  0  0  0  0  0  0  0  0  0
   47.2832   30.9651   48.2879 C   0  0  0  0  0  0  0  0  0  0  0  0
   46.3809   30.5310   47.3618 C   0  0  0  0  0  0  0  0  0  0  0  0
   45.9083   31.3675   46.4242 N   0  0  0  0  0  0  0  0  0  0  0  0
   46.2816   32.6389   46.3428 C   0  0  0  0  0  0  0  0  0  0  0  0
   47.1643   33.0674   47.2471 N   0  0  0  0  0  0  0  0  0  0  0  0
   47.8087   30.1295   49.2904 N   0  0  0  0  0  0  0  0  0  0  0  0
   43.7506   36.2587   45.1787 H   0  0  0  0  0  0  0  0  0  0  0  0
   46.4770   35.8669   41.3896 H   0  0  0  0  0  0  0  0  0  0  0  0
   48.2493   34.3685   40.7149 H   0  0  0  0  0  0  0  0  0  0  0  0
   48.9260   32.5267   42.2826 H   0  0  0  0  0  0  0  0  0  0  0  0
   47.8165   32.2831   44.4039 H   0  0  0  0  0  0  0  0  0  0  0  0
   48.3887   32.6371   48.9373 H   0  0  0  0  0  0  0  0  0  0  0  0
   48.6537   29.5672   49.0363 H   0  0  0  0  0  0  0  0  0  0  0  0
   47.4015   30.0437   50.2652 H   0  0  0  0  0  0  0  0  0  0  0  0
   45.9156   29.2123   47.3501 N   0  0  0  0  0  0  0  0  0  0  0  0
   46.5334   28.1002   46.6115 C   0  0  0  0  0  0  0  0  0  0  0  0
   45.7604   26.8711   47.0266 C   0  0  0  0  0  0  0  0  0  0  0  0
   44.3814   27.4455   47.3612 C   0  0  0  0  0  0  0  0  0  0  0  0
   44.7497   28.7224   48.0621 C   0  0  1  0  0  0  0  0  0  0  0  0
   45.0913   28.4939   49.1132 H   0  0  0  0  0  0  0  0  0  0  0  0
   46.5251   28.2788   45.5369 H   0  0  0  0  0  0  0  0  0  0  0  0
   47.5916   27.9895   46.9304 H   0  0  0  0  0  0  0  0  0  0  0  0
   45.7214   26.0842   46.2601 H   0  0  0  0  0  0  0  0  0  0  0  0
   46.1531   26.5033   48.0008 H   0  0  0  0  0  0  0  0  0  0  0  0
   43.7869   27.6659   46.4609 H   0  0  0  0  0  0  0  0  0  0  0  0
   43.8530   26.7159   48.0397 H   0  0  0  0  0  0  0  0  0  0  0  0
   43.9277   29.4654   48.0718 H   0  0  0  0  0  0  0  0  0  0  0  0
  1  2  2  0
  1 15  1  0
  3  2  1  0
  4  3  2  0
  5  4  1  0
  5 10  2  0
  6  5  1  0
  7  6  2  0
  7  8  1  0
  8  9  2  0
  9 10  1  0
 10  1  1  0
 11 12  2  0
 12 17  1  0
 13 12  1  0
 14 13  2  0
 15 14  1  0
 15 16  2  0
 16 11  1  0
  3 18  1  0
  6 19  1  0
  7 20  1  0
  8 21  1  0
  9 22  1  0
 11 23  1  0
 17 24  1  0
 17 25  1  0
 26 27  1  0
 27 28  1  0
 28 29  1  0
 29 30  1  0
 30 31  1  1
 30 26  1  0
 27 32  1  0
 27 33  1  0
 28 34  1  0
 28 35  1  0
 29 36  1  0
 29 37  1  0
 30 38  1  0
 13 26  1  0
M  ISO  7  18  14  19  14  20  14  21  14  22  14  23  14  31  13
M  END
>  <DihAtoms>  (1) 
11,12,25,26

>  <DihDeg>  (1) 
59.99710683914311

$$$$
