
 OpenBabel03242518003D

 34 36  0  0  0  0  0  0  0  0999 V2000
   46.9220   32.6180   45.0800 C   0  0  0  0  0  0  0  0  0  0  0  0
   47.9150   32.9880   45.4750 H   0  0  0  0  0  0  0  0  0  0  0  0
   47.2040   31.9920   44.2130 H   0  0  0  0  0  0  0  0  0  0  0  0
   46.4120   34.4170   43.4870 C   0  0  0  0  0  0  0  0  0  0  0  0
   46.1730   33.8230   44.7080 C   0  0  0  0  0  0  0  0  0  0  0  0
   45.2590   34.3010   45.6080 C   0  0  0  0  0  0  0  0  0  0  0  0
   44.5440   35.4370   45.2670 C   0  0  0  0  0  0  0  0  0  0  0  0
   44.7140   36.0840   44.0910 C   0  0  0  0  0  0  0  0  0  0  0  0
   45.6600   35.5440   43.2220 C   0  0  0  0  0  0  0  0  0  0  0  0
   45.0120   33.9040   46.5770 H   0  0  0  0  0  0  0  0  0  0  0  0
   43.7980   35.8740   45.9370 H   0  0  0  0  0  0  0  0  0  0  0  0
   44.1610   36.9740   43.8100 H   0  0  0  0  0  0  0  0  0  0  0  0
   45.8170   36.0420   42.2720 H   0  0  0  0  0  0  0  0  0  0  0  0
   47.5710   33.8430   42.3100 S   0  0  0  0  0  0  0  0  0  0  0  0
   48.9920   34.2170   42.6740 O   0  0  0  0  0  0  0  0  0  0  0  0
   47.3190   34.5480   40.9990 O   0  0  0  0  0  0  0  0  0  0  0  0
   47.4730   32.5190   42.0450 H   0  0  0  0  0  0  0  0  0  0  0  0
   46.2240   31.7160   46.0760 C   0  0  0  0  0  0  0  0  0  0  0  0
   45.8950   30.7560   45.5760 H   0  0  0  0  0  0  0  0  0  0  0  0
   45.3110   32.1240   46.5070 H   0  0  0  0  0  0  0  0  0  0  0  0
   47.6080   32.2500   48.0670 C   0  0  0  0  0  0  0  0  0  0  0  0
   47.1970   31.3350   47.0830 C   0  0  0  0  0  0  0  0  0  0  0  0
   47.7810   30.0660   47.1500 C   0  0  0  0  0  0  0  0  0  0  0  0
   48.6790   29.7980   48.1230 N   0  0  0  0  0  0  0  0  0  0  0  0
   49.0460   30.6930   49.0430 C   0  0  0  0  0  0  0  0  0  0  0  0
   48.5120   31.9050   49.0090 N   0  0  0  0  0  0  0  0  0  0  0  0
   47.2270   33.2600   48.1180 H   0  0  0  0  0  0  0  0  0  0  0  0
   47.4500   29.3800   46.3830 H   0  0  0  0  0  0  0  0  0  0  0  0
   49.9980   30.3320   50.0370 N   0  0  0  0  0  0  0  0  0  0  0  0
   50.6970   31.2850   50.8770 C   0  0  0  0  0  0  0  0  0  0  0  0
   51.2640   30.4390   52.0190 C   0  0  0  0  0  0  0  0  0  0  0  0
   50.5910   29.0760   51.8740 C   0  0  0  0  0  0  0  0  0  0  0  0
   50.4230   28.9860   50.3720 C   0  0  0  0  0  0  0  0  0  0  0  0
   49.6900   28.2240   50.0760 H   0  0  0  0  0  0  0  0  0  0  0  0
  1  2  1  0  0  0  0
  1 18  1  0  0  0  0
  3  1  1  0  0  0  0
  4  5  1  0  0  0  0
  5  1  1  0  0  0  0
  5  6  2  0  0  0  0
  6 10  1  0  0  0  0
  7  6  1  0  0  0  0
  7 11  1  0  0  0  0
  8  7  2  0  0  0  0
  9  4  2  0  0  0  0
  9  8  1  0  0  0  0
 12  8  1  0  0  0  0
 13  9  1  0  0  0  0
 14 15  2  0  0  0  0
 14  4  1  0  0  0  0
 16 14  2  0  0  0  0
 17 14  1  0  0  0  0
 18 20  1  0  0  0  0
 18 22  1  0  0  0  0
 19 18  1  0  0  0  0
 21 27  1  0  0  0  0
 21 26  1  0  0  0  0
 22 23  1  0  0  0  0
 22 21  2  0  0  0  0
 23 24  2  0  0  0  0
 24 25  1  0  0  0  0
 25 29  1  0  0  0  0
 26 25  2  0  0  0  0
 28 23  1  0  0  0  0
 29 33  1  0  0  0  0
 29 30  1  0  0  0  0
 30 31  1  0  0  0  0
 32 31  1  0  0  0  0
 33 32  1  0  0  0  0
 34 33  1  0  0  0  0
M  END
>  <minimizedAffinity>
-5.83493519

>  <minimizedRMSD>
0.410287976

$$$$
