
 OpenBabel03252507393D

 35 39  0  0  0  0  0  0  0  0999 V2000
   38.1910   33.2890   39.6270 C   0  0  0  0  0  0  0  0  0  0  0  0
   39.4300   32.7690   39.2050 C   0  0  0  0  0  0  0  0  0  0  0  0
   40.5500   33.5640   39.3250 C   0  0  0  0  0  0  0  0  0  0  0  0
   40.4170   34.7870   39.8360 N   0  0  0  0  0  0  0  0  0  0  0  0
   39.2210   35.2850   40.2420 C   0  0  0  0  0  0  0  0  0  0  0  0
   38.1290   34.5360   40.1350 N   0  0  0  0  0  0  0  0  0  0  0  0
   39.5310   31.7810   38.7930 H   0  0  0  0  0  0  0  0  0  0  0  0
   39.1210   36.2700   40.6490 H   0  0  0  0  0  0  0  0  0  0  0  0
   42.3830   31.9590   39.4910 C   0  0  0  0  0  0  0  0  0  0  0  0
   41.8880   33.1370   38.9150 C   0  0  0  0  0  0  0  0  0  0  0  0
   42.6810   33.7950   38.0200 C   0  0  0  0  0  0  0  0  0  0  0  0
   43.9330   33.3540   37.6640 C   0  0  0  0  0  0  0  0  0  0  0  0
   44.8700   33.8340   36.8200 N   0  0  0  0  0  0  0  0  0  0  0  0
   45.9490   32.9580   36.8650 C   0  0  0  0  0  0  0  0  0  0  0  0
   45.6480   31.9780   37.7250 N   0  0  0  0  0  0  0  0  0  0  0  0
   44.4250   32.2020   38.2220 C   0  0  0  0  0  0  0  0  0  0  0  0
   43.6420   31.5080   39.1370 C   0  0  0  0  0  0  0  0  0  0  0  0
   41.7710   31.4190   40.2090 H   0  0  0  0  0  0  0  0  0  0  0  0
   42.2770   34.7180   37.5770 H   0  0  0  0  0  0  0  0  0  0  0  0
   44.8050   34.7020   36.2360 H   0  0  0  0  0  0  0  0  0  0  0  0
   46.8490   33.0950   36.2830 H   0  0  0  0  0  0  0  0  0  0  0  0
   44.0030   30.5940   39.5920 H   0  0  0  0  0  0  0  0  0  0  0  0
   37.0580   32.4930   39.5100 O   0  0  0  0  0  0  0  0  0  0  0  0
   36.9920   31.2640   40.1620 C   0  0  0  0  0  0  0  0  0  0  0  0
   36.3820   30.5430   39.1810 C   0  0  0  0  0  0  0  0  0  0  0  0
   36.2770   28.8350   40.0460 S   0  0  0  0  0  0  0  0  0  0  0  0
   37.1200   29.5590   41.5800 C   0  0  0  0  0  0  0  0  0  0  0  0
   37.2750   30.5980   41.2720 N   0  0  0  0  0  0  0  0  0  0  0  0
   35.9080   30.4090   38.1400 H   0  0  0  0  0  0  0  0  0  0  0  0
   37.2510   28.5180   42.5470 N   0  0  0  0  0  0  0  0  0  0  0  0
   36.4970   27.4310   43.1100 C   0  0  0  0  0  2  0  0  0  0  0  0
   37.4000   26.2570   42.6870 C   0  0  0  0  0  2  0  0  0  0  0  0
   38.7910   26.8720   42.8820 C   0  0  0  0  0  2  0  0  0  0  0  0
   38.4970   28.3150   43.3070 C   0  0  0  0  0  3  0  0  0  0  0  0
   39.2720   28.9820   42.9340 H   0  0  0  0  0  0  0  0  0  0  0  0
  1  6  1  0  0  0  0
  2  3  1  0  0  0  0
  2  1  2  0  0  0  0
  3  4  2  0  0  0  0
  4  5  1  0  0  0  0
  5  8  1  0  0  0  0
  6  5  2  0  0  0  0
  7  2  1  0  0  0  0
  9 18  1  0  0  0  0
 10  3  1  0  0  0  0
 10  9  2  0  0  0  0
 11 10  1  0  0  0  0
 12 11  2  0  0  0  0
 12 16  1  0  0  0  0
 13 14  1  0  0  0  0
 13 12  1  0  0  0  0
 14 15  2  0  0  0  0
 15 16  1  0  0  0  0
 16 17  2  0  0  0  0
 17  9  1  0  0  0  0
 17 22  1  0  0  0  0
 19 11  1  0  0  0  0
 20 13  1  0  0  0  0
 21 14  1  0  0  0  0
 23  1  1  0  0  0  0
 23 24  1  0  0  0  0
 24 28  1  0  0  0  0
 25 26  1  0  0  0  0
 25 24  2  0  0  0  0
 26 27  1  0  0  0  0
 27 30  1  0  0  0  0
 28 27  2  0  0  0  0
 29 25  1  0  0  0  0
 30 31  1  0  0  0  0
 30 34  1  0  0  0  0
 32 33  1  0  0  0  0
 32 31  1  0  0  0  0
 33 34  1  0  0  0  0
 35 34  1  0  0  0  0
M  END
>  <minimizedAffinity>
-6.59355068

$$$$

 OpenBabel03252507393D

 35 39  0  0  0  0  0  0  0  0999 V2000
   37.1570   31.1160   40.7990 C   0  0  0  0  0  0  0  0  0  0  0  0
   38.2340   30.4940   41.4610 C   0  0  0  0  0  0  0  0  0  0  0  0
   38.0720   29.2000   41.9070 C   0  0  0  0  0  0  0  0  0  0  0  0
   36.9070   28.5890   41.6940 N   0  0  0  0  0  0  0  0  0  0  0  0
   35.8710   29.1910   41.0550 C   0  0  0  0  0  0  0  0  0  0  0  0
   36.0050   30.4380   40.6170 N   0  0  0  0  0  0  0  0  0  0  0  0
   39.1710   30.9930   41.6300 H   0  0  0  0  0  0  0  0  0  0  0  0
   34.9370   28.6950   40.8900 H   0  0  0  0  0  0  0  0  0  0  0  0
   38.7170   27.2980   43.2960 C   0  0  0  0  0  0  0  0  0  0  0  0
   39.1150   28.4550   42.6130 C   0  0  0  0  0  0  0  0  0  0  0  0
   40.4340   28.8020   42.6530 C   0  0  0  0  0  0  0  0  0  0  0  0
   41.3800   28.0690   43.3300 C   0  0  0  0  0  0  0  0  0  0  0  0
   42.7090   28.2210   43.5020 N   0  0  0  0  0  0  0  0  0  0  0  0
   43.1450   27.1600   44.2890 C   0  0  0  0  0  0  0  0  0  0  0  0
   42.0820   26.3970   44.5740 N   0  0  0  0  0  0  0  0  0  0  0  0
   41.0000   26.9350   44.0000 C   0  0  0  0  0  0  0  0  0  0  0  0
   39.6630   26.5540   43.9780 C   0  0  0  0  0  0  0  0  0  0  0  0
   37.6710   27.0040   43.2800 H   0  0  0  0  0  0  0  0  0  0  0  0
   40.7300   29.7130   42.1120 H   0  0  0  0  0  0  0  0  0  0  0  0
   43.3100   28.9890   43.1180 H   0  0  0  0  0  0  0  0  0  0  0  0
   44.1740   27.0250   44.5860 H   0  0  0  0  0  0  0  0  0  0  0  0
   39.3320   25.6620   44.4960 H   0  0  0  0  0  0  0  0  0  0  0  0
   37.3140   32.4200   40.3450 O   0  0  0  0  0  0  0  0  0  0  0  0
   38.5450   32.8510   39.8580 C   0  0  0  0  0  0  0  0  0  0  0  0
   38.6380   34.0240   40.5430 C   0  0  0  0  0  0  0  0  0  0  0  0
   40.3330   34.6470   39.8960 S   0  0  0  0  0  0  0  0  0  0  0  0
   40.4920   33.0990   38.8180 C   0  0  0  0  0  0  0  0  0  0  0  0
   39.5620   32.5720   39.0550 N   0  0  0  0  0  0  0  0  0  0  0  0
   38.2600   34.8220   41.2820 H   0  0  0  0  0  0  0  0  0  0  0  0
   41.7310   33.1730   38.1150 N   0  0  0  0  0  0  0  0  0  0  0  0
   42.5380   34.1200   37.3930 C   0  0  0  0  0  2  0  0  0  0  0  0
   43.7940   34.1060   38.2830 C   0  0  0  0  0  2  0  0  0  0  0  0
   43.8760   32.6190   38.6520 C   0  0  0  0  0  2  0  0  0  0  0  0
   42.6300   32.0110   37.9980 C   0  0  0  0  0  3  0  0  0  0  0  0
   42.2520   31.1870   38.6010 H   0  0  0  0  0  0  0  0  0  0  0  0
  1  2  1  0  0  0  0
  2  7  1  0  0  0  0
  2  3  2  0  0  0  0
  3 10  1  0  0  0  0
  4  3  1  0  0  0  0
  5  4  2  0  0  0  0
  6  1  2  0  0  0  0
  6  5  1  0  0  0  0
  8  5  1  0  0  0  0
  9 17  1  0  0  0  0
 10 11  1  0  0  0  0
 10  9  2  0  0  0  0
 11 12  2  0  0  0  0
 12 13  1  0  0  0  0
 12 16  1  0  0  0  0
 13 14  1  0  0  0  0
 14 15  2  0  0  0  0
 14 21  1  0  0  0  0
 16 15  1  0  0  0  0
 17 16  2  0  0  0  0
 17 22  1  0  0  0  0
 18  9  1  0  0  0  0
 19 11  1  0  0  0  0
 20 13  1  0  0  0  0
 23  1  1  0  0  0  0
 24 23  1  0  0  0  0
 24 25  2  0  0  0  0
 25 29  1  0  0  0  0
 26 25  1  0  0  0  0
 27 28  2  0  0  0  0
 27 26  1  0  0  0  0
 28 24  1  0  0  0  0
 30 27  1  0  0  0  0
 31 30  1  0  0  0  0
 31 32  1  0  0  0  0
 32 33  1  0  0  0  0
 34 30  1  0  0  0  0
 34 35  1  0  0  0  0
 34 33  1  0  0  0  0
M  END
>  <minimizedAffinity>
-6.48724174

$$$$

 OpenBabel03252507393D

 35 39  0  0  0  0  0  0  0  0999 V2000
   37.4920   28.7440   42.0620 C   0  0  0  0  0  0  0  0  0  0  0  0
   37.1770   27.6020   41.3000 C   0  0  0  0  0  0  0  0  0  0  0  0
   37.6910   26.3860   41.6960 C   0  0  0  0  0  0  0  0  0  0  0  0
   38.4630   26.3390   42.7810 N   0  0  0  0  0  0  0  0  0  0  0  0
   38.7640   27.4420   43.5140 C   0  0  0  0  0  0  0  0  0  0  0  0
   38.2790   28.6240   43.1500 N   0  0  0  0  0  0  0  0  0  0  0  0
   36.5540   27.6470   40.4240 H   0  0  0  0  0  0  0  0  0  0  0  0
   39.3870   27.3970   44.3830 H   0  0  0  0  0  0  0  0  0  0  0  0
   36.5150   25.1780   39.9300 C   0  0  0  0  0  0  0  0  0  0  0  0
   37.4400   25.1340   40.9810 C   0  0  0  0  0  0  0  0  0  0  0  0
   38.0360   23.9390   41.2610 C   0  0  0  0  0  0  0  0  0  0  0  0
   37.7680   22.7870   40.5610 C   0  0  0  0  0  0  0  0  0  0  0  0
   38.2280   21.5220   40.6620 N   0  0  0  0  0  0  0  0  0  0  0  0
   37.5950   20.7760   39.6750 C   0  0  0  0  0  0  0  0  0  0  0  0
   36.7740   21.5930   39.0040 N   0  0  0  0  0  0  0  0  0  0  0  0
   36.8650   22.8210   39.5300 C   0  0  0  0  0  0  0  0  0  0  0  0
   36.2410   24.0230   39.2190 C   0  0  0  0  0  0  0  0  0  0  0  0
   36.0260   26.1180   39.6900 H   0  0  0  0  0  0  0  0  0  0  0  0
   38.7590   23.9210   42.0910 H   0  0  0  0  0  0  0  0  0  0  0  0
   38.9310   21.1620   41.3510 H   0  0  0  0  0  0  0  0  0  0  0  0
   37.7750   19.7220   39.5210 H   0  0  0  0  0  0  0  0  0  0  0  0
   35.5260   24.0820   38.4080 H   0  0  0  0  0  0  0  0  0  0  0  0
   36.9750   29.9730   41.6690 O   0  0  0  0  0  0  0  0  0  0  0  0
   37.8000   30.9250   41.0750 C   0  0  0  0  0  0  0  0  0  0  0  0
   36.8380   31.7200   40.5290 C   0  0  0  0  0  0  0  0  0  0  0  0
   37.9430   33.0510   39.7030 S   0  0  0  0  0  0  0  0  0  0  0  0
   39.4910   32.1580   40.3290 C   0  0  0  0  0  0  0  0  0  0  0  0
   39.0510   31.3100   40.8640 N   0  0  0  0  0  0  0  0  0  0  0  0
   35.7480   32.0160   40.3040 H   0  0  0  0  0  0  0  0  0  0  0  0
   40.6330   32.8950   39.8980 N   0  0  0  0  0  0  0  0  0  0  0  0
   41.1360   33.5760   38.7360 C   0  0  0  0  0  2  0  0  0  0  0  0
   41.2480   35.0000   39.3110 C   0  0  0  0  0  2  0  0  0  0  0  0
   41.7400   34.7050   40.7330 C   0  0  0  0  0  2  0  0  0  0  0  0
   41.7650   33.1740   40.8010 C   0  0  0  0  0  3  0  0  0  0  0  0
   41.5270   32.8380   41.8090 H   0  0  0  0  0  0  0  0  0  0  0  0
  1  6  1  0  0  0  0
  2  3  1  0  0  0  0
  2  1  2  0  0  0  0
  3  4  2  0  0  0  0
  4  5  1  0  0  0  0
  5  8  1  0  0  0  0
  6  5  2  0  0  0  0
  7  2  1  0  0  0  0
  9 10  1  0  0  0  0
 10 11  2  0  0  0  0
 10  3  1  0  0  0  0
 11 19  1  0  0  0  0
 12 13  1  0  0  0  0
 12 11  1  0  0  0  0
 13 20  1  0  0  0  0
 14 13  1  0  0  0  0
 15 16  1  0  0  0  0
 15 14  2  0  0  0  0
 16 12  2  0  0  0  0
 17 16  1  0  0  0  0
 17  9  2  0  0  0  0
 18  9  1  0  0  0  0
 21 14  1  0  0  0  0
 22 17  1  0  0  0  0
 23  1  1  0  0  0  0
 24 23  1  0  0  0  0
 25 24  2  0  0  0  0
 26 27  1  0  0  0  0
 26 25  1  0  0  0  0
 27 28  2  0  0  0  0
 28 24  1  0  0  0  0
 29 25  1  0  0  0  0
 30 27  1  0  0  0  0
 30 34  1  0  0  0  0
 31 32  1  0  0  0  0
 31 30  1  0  0  0  0
 32 33  1  0  0  0  0
 33 34  1  0  0  0  0
 34 35  1  0  0  0  0
M  END
>  <minimizedAffinity>
-6.38287973

$$$$

 OpenBabel03252507393D

 35 39  0  0  0  0  0  0  0  0999 V2000
   37.4570   31.7710   39.8730 C   0  0  0  0  0  0  0  0  0  0  0  0
   37.5240   30.5560   40.5820 C   0  0  0  0  0  0  0  0  0  0  0  0
   37.1770   29.3940   39.9280 C   0  0  0  0  0  0  0  0  0  0  0  0
   36.7940   29.4650   38.6540 N   0  0  0  0  0  0  0  0  0  0  0  0
   36.7310   30.6380   37.9730 C   0  0  0  0  0  0  0  0  0  0  0  0
   37.0610   31.7700   38.5840 N   0  0  0  0  0  0  0  0  0  0  0  0
   37.8330   30.5060   41.6110 H   0  0  0  0  0  0  0  0  0  0  0  0
   36.4200   30.6880   36.9500 H   0  0  0  0  0  0  0  0  0  0  0  0
   36.9050   28.0250   41.9320 C   0  0  0  0  0  0  0  0  0  0  0  0
   37.1990   28.0750   40.5630 C   0  0  0  0  0  0  0  0  0  0  0  0
   37.4820   26.9030   39.9240 C   0  0  0  0  0  0  0  0  0  0  0  0
   37.4910   25.6870   40.5620 C   0  0  0  0  0  0  0  0  0  0  0  0
   37.7380   24.4290   40.1400 N   0  0  0  0  0  0  0  0  0  0  0  0
   37.5970   23.5910   41.2410 C   0  0  0  0  0  0  0  0  0  0  0  0
   37.2720   24.3490   42.2950 N   0  0  0  0  0  0  0  0  0  0  0  0
   37.2040   25.6270   41.9020 C   0  0  0  0  0  0  0  0  0  0  0  0
   36.9110   26.8030   42.5820 C   0  0  0  0  0  0  0  0  0  0  0  0
   36.6800   28.9460   42.4630 H   0  0  0  0  0  0  0  0  0  0  0  0
   37.7120   26.9610   38.8490 H   0  0  0  0  0  0  0  0  0  0  0  0
   37.9890   24.1300   39.1670 H   0  0  0  0  0  0  0  0  0  0  0  0
   37.7360   22.5210   41.1930 H   0  0  0  0  0  0  0  0  0  0  0  0
   36.6770   26.7880   43.6390 H   0  0  0  0  0  0  0  0  0  0  0  0
   37.8070   32.9470   40.5260 O   0  0  0  0  0  0  0  0  0  0  0  0
   39.1400   33.3450   40.5900 C   0  0  0  0  0  0  0  0  0  0  0  0
   38.9700   34.6740   40.3440 C   0  0  0  0  0  0  0  0  0  0  0  0
   40.7950   35.2590   40.4290 S   0  0  0  0  0  0  0  0  0  0  0  0
   41.3480   33.4850   40.7900 C   0  0  0  0  0  0  0  0  0  0  0  0
   40.3910   32.9530   40.7830 N   0  0  0  0  0  0  0  0  0  0  0  0
   38.3390   35.6100   40.1200 H   0  0  0  0  0  0  0  0  0  0  0  0
   42.7660   33.4850   40.9430 N   0  0  0  0  0  0  0  0  0  0  0  0
   43.9440   34.0430   40.3350 C   0  0  0  0  0  2  0  0  0  0  0  0
   44.4710   34.8660   41.5260 C   0  0  0  0  0  2  0  0  0  0  0  0
   44.1560   33.9250   42.6950 C   0  0  0  0  0  2  0  0  0  0  0  0
   43.4320   32.7480   42.0330 C   0  0  0  0  0  3  0  0  0  0  0  0
   42.6860   32.3360   42.7110 H   0  0  0  0  0  0  0  0  0  0  0  0
  1 23  1  0  0  0  0
  1  2  1  0  0  0  0
  2  7  1  0  0  0  0
  3 10  1  0  0  0  0
  3  2  2  0  0  0  0
  4  3  1  0  0  0  0
  5  6  1  0  0  0  0
  5  4  2  0  0  0  0
  6  1  2  0  0  0  0
  8  5  1  0  0  0  0
  9 18  1  0  0  0  0
  9 17  1  0  0  0  0
 10  9  2  0  0  0  0
 11 12  2  0  0  0  0
 11 10  1  0  0  0  0
 12 16  1  0  0  0  0
 13 12  1  0  0  0  0
 13 14  1  0  0  0  0
 14 15  2  0  0  0  0
 16 15  1  0  0  0  0
 16 17  2  0  0  0  0
 17 22  1  0  0  0  0
 19 11  1  0  0  0  0
 20 13  1  0  0  0  0
 21 14  1  0  0  0  0
 23 24  1  0  0  0  0
 24 28  1  0  0  0  0
 25 26  1  0  0  0  0
 25 24  2  0  0  0  0
 26 27  1  0  0  0  0
 27 30  1  0  0  0  0
 28 27  2  0  0  0  0
 29 25  1  0  0  0  0
 30 34  1  0  0  0  0
 31 30  1  0  0  0  0
 31 32  1  0  0  0  0
 32 33  1  0  0  0  0
 34 33  1  0  0  0  0
 34 35  1  0  0  0  0
M  END
>  <minimizedAffinity>
-6.18264961

$$$$

 OpenBabel03252507393D

 35 39  0  0  0  0  0  0  0  0999 V2000
   38.4480   33.3520   40.1710 C   0  0  0  0  0  0  0  0  0  0  0  0
   39.4130   32.6280   39.4440 C   0  0  0  0  0  0  0  0  0  0  0  0
   40.5470   33.2870   39.0210 C   0  0  0  0  0  0  0  0  0  0  0  0
   40.6860   34.5790   39.3170 N   0  0  0  0  0  0  0  0  0  0  0  0
   39.7540   35.2740   40.0190 C   0  0  0  0  0  0  0  0  0  0  0  0
   38.6540   34.6580   40.4360 N   0  0  0  0  0  0  0  0  0  0  0  0
   39.2940   31.5850   39.2070 H   0  0  0  0  0  0  0  0  0  0  0  0
   39.8710   36.3120   40.2510 H   0  0  0  0  0  0  0  0  0  0  0  0
   42.9110   33.1430   38.4280 C   0  0  0  0  0  0  0  0  0  0  0  0
   41.6140   32.6440   38.2530 C   0  0  0  0  0  0  0  0  0  0  0  0
   41.4380   31.6030   37.3880 C   0  0  0  0  0  0  0  0  0  0  0  0
   42.4720   31.0290   36.6880 C   0  0  0  0  0  0  0  0  0  0  0  0
   42.5290   30.0160   35.7990 N   0  0  0  0  0  0  0  0  0  0  0  0
   43.8600   29.8770   35.4200 C   0  0  0  0  0  0  0  0  0  0  0  0
   44.5730   30.7990   36.0780 N   0  0  0  0  0  0  0  0  0  0  0  0
   43.7460   31.5100   36.8530 C   0  0  0  0  0  0  0  0  0  0  0  0
   43.9580   32.5700   37.7280 C   0  0  0  0  0  0  0  0  0  0  0  0
   43.0750   33.9730   39.1090 H   0  0  0  0  0  0  0  0  0  0  0  0
   40.4130   31.2240   37.2620 H   0  0  0  0  0  0  0  0  0  0  0  0
   41.7270   29.4350   35.4550 H   0  0  0  0  0  0  0  0  0  0  0  0
   44.2010   29.1350   34.7130 H   0  0  0  0  0  0  0  0  0  0  0  0
   44.9530   32.9700   37.8820 H   0  0  0  0  0  0  0  0  0  0  0  0
   37.3030   32.6930   40.6020 O   0  0  0  0  0  0  0  0  0  0  0  0
   36.8910   31.5180   39.9770 C   0  0  0  0  0  0  0  0  0  0  0  0
   36.3830   30.8740   41.0640 C   0  0  0  0  0  0  0  0  0  0  0  0
   35.8000   29.2450   40.2360 S   0  0  0  0  0  0  0  0  0  0  0  0
   36.4160   29.8740   38.5600 C   0  0  0  0  0  0  0  0  0  0  0  0
   36.8150   30.8580   38.8300 N   0  0  0  0  0  0  0  0  0  0  0  0
   36.1210   30.7820   42.1810 H   0  0  0  0  0  0  0  0  0  0  0  0
   36.1410   28.8740   37.5820 N   0  0  0  0  0  0  0  0  0  0  0  0
   36.2140   27.4480   37.4070 C   0  0  0  0  0  2  0  0  0  0  0  0
   34.7190   27.1480   37.1850 C   0  0  0  0  0  2  0  0  0  0  0  0
   34.2990   28.3570   36.3410 C   0  0  0  0  0  2  0  0  0  0  0  0
   35.5710   29.2100   36.2640 C   0  0  0  0  0  3  0  0  0  0  0  0
   35.3140   30.2670   36.2300 H   0  0  0  0  0  0  0  0  0  0  0  0
  1  6  1  0  0  0  0
  1 23  1  0  0  0  0
  2  1  2  0  0  0  0
  3  4  2  0  0  0  0
  3  2  1  0  0  0  0
  4  5  1  0  0  0  0
  5  8  1  0  0  0  0
  5  6  2  0  0  0  0
  7  2  1  0  0  0  0
  9 18  1  0  0  0  0
 10  9  1  0  0  0  0
 10  3  1  0  0  0  0
 11 10  2  0  0  0  0
 12 16  2  0  0  0  0
 12 11  1  0  0  0  0
 13 12  1  0  0  0  0
 14 13  1  0  0  0  0
 14 15  2  0  0  0  0
 15 16  1  0  0  0  0
 16 17  1  0  0  0  0
 17 22  1  0  0  0  0
 17  9  2  0  0  0  0
 19 11  1  0  0  0  0
 20 13  1  0  0  0  0
 21 14  1  0  0  0  0
 24 23  1  0  0  0  0
 24 25  2  0  0  0  0
 25 29  1  0  0  0  0
 26 25  1  0  0  0  0
 27 28  2  0  0  0  0
 27 26  1  0  0  0  0
 28 24  1  0  0  0  0
 30 27  1  0  0  0  0
 31 30  1  0  0  0  0
 32 31  1  0  0  0  0
 33 32  1  0  0  0  0
 34 33  1  0  0  0  0
 34 30  1  0  0  0  0
 35 34  1  0  0  0  0
M  END
>  <minimizedAffinity>
-6.00850391

$$$$

 OpenBabel03252507393D

 35 39  0  0  0  0  0  0  0  0999 V2000
   37.8100   29.6270   41.9050 C   0  0  0  0  0  0  0  0  0  0  0  0
   38.8330   30.4420   41.3820 C   0  0  0  0  0  0  0  0  0  0  0  0
   38.4780   31.5170   40.5960 C   0  0  0  0  0  0  0  0  0  0  0  0
   37.1860   31.7450   40.3650 N   0  0  0  0  0  0  0  0  0  0  0  0
   36.2020   30.9580   40.8730 C   0  0  0  0  0  0  0  0  0  0  0  0
   36.5220   29.9160   41.6320 N   0  0  0  0  0  0  0  0  0  0  0  0
   39.8750   30.2520   41.5710 H   0  0  0  0  0  0  0  0  0  0  0  0
   35.1660   31.1450   40.6820 H   0  0  0  0  0  0  0  0  0  0  0  0
   39.6680   33.6490   40.6440 C   0  0  0  0  0  0  0  0  0  0  0  0
   39.4510   32.4280   39.9910 C   0  0  0  0  0  0  0  0  0  0  0  0
   40.1550   32.1780   38.8490 C   0  0  0  0  0  0  0  0  0  0  0  0
   41.0590   33.0650   38.3190 C   0  0  0  0  0  0  0  0  0  0  0  0
   41.8490   33.0280   37.2250 N   0  0  0  0  0  0  0  0  0  0  0  0
   42.5620   34.2220   37.1930 C   0  0  0  0  0  0  0  0  0  0  0  0
   42.1940   34.9490   38.2550 N   0  0  0  0  0  0  0  0  0  0  0  0
   41.2800   34.2620   38.9510 C   0  0  0  0  0  0  0  0  0  0  0  0
   40.5790   34.5470   40.1170 C   0  0  0  0  0  0  0  0  0  0  0  0
   39.1170   33.8720   41.5540 H   0  0  0  0  0  0  0  0  0  0  0  0
   39.9710   31.2150   38.3490 H   0  0  0  0  0  0  0  0  0  0  0  0
   41.9190   32.2510   36.5260 H   0  0  0  0  0  0  0  0  0  0  0  0
   43.2780   34.4650   36.4220 H   0  0  0  0  0  0  0  0  0  0  0  0
   40.7330   35.4830   40.6410 H   0  0  0  0  0  0  0  0  0  0  0  0
   38.1610   28.5420   42.6990 O   0  0  0  0  0  0  0  0  0  0  0  0
   38.2950   27.2740   42.1370 C   0  0  0  0  0  0  0  0  0  0  0  0
   38.8890   26.6450   43.1890 C   0  0  0  0  0  0  0  0  0  0  0  0
   39.0860   24.8870   42.4490 S   0  0  0  0  0  0  0  0  0  0  0  0
   38.2830   25.4730   40.8380 C   0  0  0  0  0  0  0  0  0  0  0  0
   38.0810   26.5240   41.0660 N   0  0  0  0  0  0  0  0  0  0  0  0
   39.3240   26.6000   44.2540 H   0  0  0  0  0  0  0  0  0  0  0  0
   38.2280   24.3650   39.9410 N   0  0  0  0  0  0  0  0  0  0  0  0
   39.0410   23.2700   39.4850 C   0  0  0  0  0  2  0  0  0  0  0  0
   38.1610   22.0960   39.9530 C   0  0  0  0  0  2  0  0  0  0  0  0
   36.7590   22.6440   39.6630 C   0  0  0  0  0  2  0  0  0  0  0  0
   37.0210   24.0650   39.1500 C   0  0  0  0  0  3  0  0  0  0  0  0
   36.2090   24.7270   39.4460 H   0  0  0  0  0  0  0  0  0  0  0  0
  1 23  1  0  0  0  0
  2  7  1  0  0  0  0
  2  1  2  0  0  0  0
  3  2  1  0  0  0  0
  4  3  2  0  0  0  0
  4  5  1  0  0  0  0
  5  6  2  0  0  0  0
  6  1  1  0  0  0  0
  8  5  1  0  0  0  0
  9 18  1  0  0  0  0
 10  3  1  0  0  0  0
 10  9  2  0  0  0  0
 11 10  1  0  0  0  0
 12 11  2  0  0  0  0
 12 16  1  0  0  0  0
 13 12  1  0  0  0  0
 14 13  1  0  0  0  0
 14 15  2  0  0  0  0
 15 16  1  0  0  0  0
 16 17  2  0  0  0  0
 17 22  1  0  0  0  0
 17  9  1  0  0  0  0
 19 11  1  0  0  0  0
 20 13  1  0  0  0  0
 21 14  1  0  0  0  0
 24 23  1  0  0  0  0
 24 25  2  0  0  0  0
 25 29  1  0  0  0  0
 26 25  1  0  0  0  0
 27 28  2  0  0  0  0
 27 26  1  0  0  0  0
 28 24  1  0  0  0  0
 30 27  1  0  0  0  0
 31 30  1  0  0  0  0
 31 32  1  0  0  0  0
 33 32  1  0  0  0  0
 34 35  1  0  0  0  0
 34 33  1  0  0  0  0
 34 30  1  0  0  0  0
M  END
>  <minimizedAffinity>
-5.97607613

$$$$

 OpenBabel03252507393D

 35 39  0  0  0  0  0  0  0  0999 V2000
   38.6880   31.5300   40.9160 C   0  0  0  0  0  0  0  0  0  0  0  0
   38.1450   30.6500   39.9590 C   0  0  0  0  0  0  0  0  0  0  0  0
   37.4070   31.1820   38.9240 C   0  0  0  0  0  0  0  0  0  0  0  0
   37.2370   32.5020   38.8680 N   0  0  0  0  0  0  0  0  0  0  0  0
   37.7630   33.3470   39.7920 C   0  0  0  0  0  0  0  0  0  0  0  0
   38.4780   32.8560   40.7980 N   0  0  0  0  0  0  0  0  0  0  0  0
   38.2850   29.5850   40.0100 H   0  0  0  0  0  0  0  0  0  0  0  0
   37.6210   34.4070   39.7420 H   0  0  0  0  0  0  0  0  0  0  0  0
   35.6470   29.6360   38.2310 C   0  0  0  0  0  0  0  0  0  0  0  0
   36.7880   30.3690   37.8760 C   0  0  0  0  0  0  0  0  0  0  0  0
   37.2350   30.2750   36.5900 C   0  0  0  0  0  0  0  0  0  0  0  0
   36.6190   29.4970   35.6390 C   0  0  0  0  0  0  0  0  0  0  0  0
   36.8820   29.2580   34.3370 N   0  0  0  0  0  0  0  0  0  0  0  0
   35.9080   28.3790   33.8770 C   0  0  0  0  0  0  0  0  0  0  0  0
   35.0840   28.1070   34.8970 N   0  0  0  0  0  0  0  0  0  0  0  0
   35.5020   28.7770   35.9770 C   0  0  0  0  0  0  0  0  0  0  0  0
   35.0210   28.8520   37.2790 C   0  0  0  0  0  0  0  0  0  0  0  0
   35.2740   29.6930   39.2510 H   0  0  0  0  0  0  0  0  0  0  0  0
   38.1320   30.8550   36.3280 H   0  0  0  0  0  0  0  0  0  0  0  0
   37.6690   29.6560   33.7710 H   0  0  0  0  0  0  0  0  0  0  0  0
   35.8690   28.0150   32.8610 H   0  0  0  0  0  0  0  0  0  0  0  0
   34.1390   28.2980   37.5760 H   0  0  0  0  0  0  0  0  0  0  0  0
   39.4350   31.0010   41.9610 O   0  0  0  0  0  0  0  0  0  0  0  0
   39.4380   29.6280   42.1990 C   0  0  0  0  0  0  0  0  0  0  0  0
   38.4270   29.5750   43.1090 C   0  0  0  0  0  0  0  0  0  0  0  0
   38.4000   27.6900   43.4580 S   0  0  0  0  0  0  0  0  0  0  0  0
   39.8230   27.4410   42.2340 C   0  0  0  0  0  0  0  0  0  0  0  0
   40.0020   28.4670   41.8990 N   0  0  0  0  0  0  0  0  0  0  0  0
   37.6000   30.0380   43.7640 H   0  0  0  0  0  0  0  0  0  0  0  0
   40.1310   26.0490   42.1890 N   0  0  0  0  0  0  0  0  0  0  0  0
   40.2980   24.9240   43.0690 C   0  0  0  0  0  2  0  0  0  0  0  0
   39.1670   24.0230   42.5390 C   0  0  0  0  0  2  0  0  0  0  0  0
   39.2630   24.2870   41.0310 C   0  0  0  0  0  2  0  0  0  0  0  0
   40.3660   25.3450   40.9140 C   0  0  0  0  0  3  0  0  0  0  0  0
   40.1590   26.0120   40.0790 H   0  0  0  0  0  0  0  0  0  0  0  0
  1 23  1  0  0  0  0
  2  7  1  0  0  0  0
  2  1  2  0  0  0  0
  3  2  1  0  0  0  0
  4  3  2  0  0  0  0
  4  5  1  0  0  0  0
  5  6  2  0  0  0  0
  6  1  1  0  0  0  0
  8  5  1  0  0  0  0
  9 18  1  0  0  0  0
 10  9  1  0  0  0  0
 10  3  1  0  0  0  0
 11 10  2  0  0  0  0
 12 16  2  0  0  0  0
 12 11  1  0  0  0  0
 13 12  1  0  0  0  0
 14 13  1  0  0  0  0
 14 15  2  0  0  0  0
 15 16  1  0  0  0  0
 16 17  1  0  0  0  0
 17 22  1  0  0  0  0
 17  9  2  0  0  0  0
 19 11  1  0  0  0  0
 20 13  1  0  0  0  0
 21 14  1  0  0  0  0
 23 24  1  0  0  0  0
 24 25  2  0  0  0  0
 25 26  1  0  0  0  0
 25 29  1  0  0  0  0
 27 26  1  0  0  0  0
 28 24  1  0  0  0  0
 28 27  2  0  0  0  0
 30 27  1  0  0  0  0
 30 31  1  0  0  0  0
 32 31  1  0  0  0  0
 33 32  1  0  0  0  0
 34 33  1  0  0  0  0
 34 30  1  0  0  0  0
 35 34  1  0  0  0  0
M  END
>  <minimizedAffinity>
-5.95763302

$$$$

 OpenBabel03252507393D

 35 39  0  0  0  0  0  0  0  0999 V2000
   38.6730   26.6840   43.2260 C   0  0  0  0  0  0  0  0  0  0  0  0
   37.9170   25.9490   42.2920 C   0  0  0  0  0  0  0  0  0  0  0  0
   38.3090   24.6610   41.9990 C   0  0  0  0  0  0  0  0  0  0  0  0
   39.3820   24.1610   42.6090 N   0  0  0  0  0  0  0  0  0  0  0  0
   40.1090   24.8720   43.5100 C   0  0  0  0  0  0  0  0  0  0  0  0
   39.7490   26.1160   43.8070 N   0  0  0  0  0  0  0  0  0  0  0  0
   37.0510   26.3580   41.8020 H   0  0  0  0  0  0  0  0  0  0  0  0
   40.9720   24.4660   43.9950 H   0  0  0  0  0  0  0  0  0  0  0  0
   38.3070   22.6910   40.5550 C   0  0  0  0  0  0  0  0  0  0  0  0
   37.6080   23.8040   41.0410 C   0  0  0  0  0  0  0  0  0  0  0  0
   36.3350   24.0080   40.5920 C   0  0  0  0  0  0  0  0  0  0  0  0
   35.7170   23.1750   39.6910 C   0  0  0  0  0  0  0  0  0  0  0  0
   34.4940   23.1840   39.1210 N   0  0  0  0  0  0  0  0  0  0  0  0
   34.4260   22.0770   38.2810 C   0  0  0  0  0  0  0  0  0  0  0  0
   35.5940   21.4290   38.3580 N   0  0  0  0  0  0  0  0  0  0  0  0
   36.3930   22.0830   39.2100 C   0  0  0  0  0  0  0  0  0  0  0  0
   37.6910   21.8470   39.6480 C   0  0  0  0  0  0  0  0  0  0  0  0
   39.3230   22.5100   40.8960 H   0  0  0  0  0  0  0  0  0  0  0  0
   35.8010   24.8870   40.9830 H   0  0  0  0  0  0  0  0  0  0  0  0
   33.7330   23.8860   39.2770 H   0  0  0  0  0  0  0  0  0  0  0  0
   33.5530   21.8310   37.6940 H   0  0  0  0  0  0  0  0  0  0  0  0
   38.2500   20.9910   39.2890 H   0  0  0  0  0  0  0  0  0  0  0  0
   38.2830   27.9830   43.5270 O   0  0  0  0  0  0  0  0  0  0  0  0
   38.1820   28.9390   42.5190 C   0  0  0  0  0  0  0  0  0  0  0  0
   39.3900   29.5450   42.6880 C   0  0  0  0  0  0  0  0  0  0  0  0
   39.2860   30.8700   41.3060 S   0  0  0  0  0  0  0  0  0  0  0  0
   37.5640   30.2430   40.8310 C   0  0  0  0  0  0  0  0  0  0  0  0
   37.4230   29.4300   41.5500 N   0  0  0  0  0  0  0  0  0  0  0  0
   40.4120   29.6860   43.1980 H   0  0  0  0  0  0  0  0  0  0  0  0
   37.0920   31.0280   39.7370 N   0  0  0  0  0  0  0  0  0  0  0  0
   37.0380   32.3980   39.3010 C   0  0  0  0  0  2  0  0  0  0  0  0
   37.8670   32.2790   38.0080 C   0  0  0  0  0  2  0  0  0  0  0  0
   37.3950   30.9190   37.4810 C   0  0  0  0  0  2  0  0  0  0  0  0
   36.4370   30.4170   38.5670 C   0  0  0  0  0  3  0  0  0  0  0  0
   36.4850   29.3320   38.6390 H   0  0  0  0  0  0  0  0  0  0  0  0
  1 23  1  0  0  0  0
  1  6  1  0  0  0  0
  2  1  2  0  0  0  0
  3  2  1  0  0  0  0
  3  4  2  0  0  0  0
  4  5  1  0  0  0  0
  5  6  2  0  0  0  0
  5  8  1  0  0  0  0
  7  2  1  0  0  0  0
  9 18  1  0  0  0  0
  9 10  1  0  0  0  0
 10  3  1  0  0  0  0
 11 19  1  0  0  0  0
 11 10  2  0  0  0  0
 12 11  1  0  0  0  0
 13 20  1  0  0  0  0
 13 12  1  0  0  0  0
 14 15  2  0  0  0  0
 14 13  1  0  0  0  0
 15 16  1  0  0  0  0
 16 17  1  0  0  0  0
 16 12  2  0  0  0  0
 17  9  2  0  0  0  0
 21 14  1  0  0  0  0
 22 17  1  0  0  0  0
 24 25  2  0  0  0  0
 24 23  1  0  0  0  0
 25 29  1  0  0  0  0
 26 25  1  0  0  0  0
 27 26  1  0  0  0  0
 27 28  2  0  0  0  0
 28 24  1  0  0  0  0
 30 27  1  0  0  0  0
 31 30  1  0  0  0  0
 32 31  1  0  0  0  0
 33 32  1  0  0  0  0
 33 34  1  0  0  0  0
 34 35  1  0  0  0  0
 34 30  1  0  0  0  0
M  END
>  <minimizedAffinity>
-5.95446682

$$$$

 OpenBabel03252507393D

 35 39  0  0  0  0  0  0  0  0999 V2000
   39.2520   28.1880   42.8320 C   0  0  0  0  0  0  0  0  0  0  0  0
   39.0900   27.0410   42.0310 C   0  0  0  0  0  0  0  0  0  0  0  0
   37.8610   26.4170   42.0180 C   0  0  0  0  0  0  0  0  0  0  0  0
   36.8770   26.9230   42.7610 N   0  0  0  0  0  0  0  0  0  0  0  0
   37.0370   28.0300   43.5310 C   0  0  0  0  0  0  0  0  0  0  0  0
   38.2130   28.6460   43.5580 N   0  0  0  0  0  0  0  0  0  0  0  0
   39.8890   26.6370   41.4340 H   0  0  0  0  0  0  0  0  0  0  0  0
   36.2430   28.4290   44.1270 H   0  0  0  0  0  0  0  0  0  0  0  0
   36.6620   25.3490   40.1790 C   0  0  0  0  0  0  0  0  0  0  0  0
   37.5760   25.2160   41.2320 C   0  0  0  0  0  0  0  0  0  0  0  0
   38.1300   23.9880   41.4480 C   0  0  0  0  0  0  0  0  0  0  0  0
   37.8310   22.8870   40.6820 C   0  0  0  0  0  0  0  0  0  0  0  0
   38.2490   21.6040   40.7150 N   0  0  0  0  0  0  0  0  0  0  0  0
   37.6000   20.9360   39.6830 C   0  0  0  0  0  0  0  0  0  0  0  0
   36.8120   21.8160   39.0540 N   0  0  0  0  0  0  0  0  0  0  0  0
   36.9390   23.0080   39.6490 C   0  0  0  0  0  0  0  0  0  0  0  0
   36.3560   24.2460   39.4020 C   0  0  0  0  0  0  0  0  0  0  0  0
   36.2050   26.3170   39.9890 H   0  0  0  0  0  0  0  0  0  0  0  0
   38.8450   23.9000   42.2800 H   0  0  0  0  0  0  0  0  0  0  0  0
   38.9340   21.1830   41.3870 H   0  0  0  0  0  0  0  0  0  0  0  0
   37.7480   19.8870   39.4700 H   0  0  0  0  0  0  0  0  0  0  0  0
   35.6500   24.3740   38.5910 H   0  0  0  0  0  0  0  0  0  0  0  0
   40.4880   28.8230   42.8480 O   0  0  0  0  0  0  0  0  0  0  0  0
   40.7030   29.9650   42.0810 C   0  0  0  0  0  0  0  0  0  0  0  0
   41.7900   30.4550   42.7390 C   0  0  0  0  0  0  0  0  0  0  0  0
   42.1160   32.0340   41.7020 S   0  0  0  0  0  0  0  0  0  0  0  0
   40.6380   31.6160   40.5960 C   0  0  0  0  0  0  0  0  0  0  0  0
   40.2850   30.6840   41.0490 N   0  0  0  0  0  0  0  0  0  0  0  0
   42.5980   30.4310   43.5590 H   0  0  0  0  0  0  0  0  0  0  0  0
   40.5290   32.6300   39.5990 N   0  0  0  0  0  0  0  0  0  0  0  0
   40.6030   34.0600   39.4630 C   0  0  0  0  0  2  0  0  0  0  0  0
   41.7990   34.1560   38.4970 C   0  0  0  0  0  2  0  0  0  0  0  0
   41.5300   32.9580   37.5770 C   0  0  0  0  0  2  0  0  0  0  0  0
   40.2820   32.3050   38.1820 C   0  0  0  0  0  3  0  0  0  0  0  0
   40.3140   31.2270   38.0380 H   0  0  0  0  0  0  0  0  0  0  0  0
  1 23  1  0  0  0  0
  1  6  1  0  0  0  0
  2  1  2  0  0  0  0
  3  2  1  0  0  0  0
  3  4  2  0  0  0  0
  4  5  1  0  0  0  0
  5  6  2  0  0  0  0
  5  8  1  0  0  0  0
  7  2  1  0  0  0  0
  9 10  1  0  0  0  0
 10 11  2  0  0  0  0
 10  3  1  0  0  0  0
 11 19  1  0  0  0  0
 12 13  1  0  0  0  0
 12 11  1  0  0  0  0
 13 20  1  0  0  0  0
 14 13  1  0  0  0  0
 15 16  1  0  0  0  0
 15 14  2  0  0  0  0
 16 12  2  0  0  0  0
 17 16  1  0  0  0  0
 17  9  2  0  0  0  0
 18  9  1  0  0  0  0
 21 14  1  0  0  0  0
 22 17  1  0  0  0  0
 24 25  2  0  0  0  0
 24 23  1  0  0  0  0
 25 29  1  0  0  0  0
 26 25  1  0  0  0  0
 27 28  2  0  0  0  0
 27 26  1  0  0  0  0
 28 24  1  0  0  0  0
 30 27  1  0  0  0  0
 31 30  1  0  0  0  0
 32 31  1  0  0  0  0
 33 34  1  0  0  0  0
 33 32  1  0  0  0  0
 34 30  1  0  0  0  0
 35 34  1  0  0  0  0
M  END
>  <minimizedAffinity>
-5.89624262

$$$$
