
 OpenBabel03242512203D

 38 41  0  0  0  0  0  0  0  0999 V2000
   48.4550   33.1050   41.3810 C   0  0  0  0  0  0  0  0  0  0  0  0
   48.0410   34.3300   41.8330 C   0  0  0  0  0  0  0  0  0  0  0  0
   48.9370   35.1460   42.4600 C   0  0  0  0  0  0  0  0  0  0  0  0
   50.2520   34.7340   42.6320 C   0  0  0  0  0  0  0  0  0  0  0  0
   50.6390   33.4920   42.1650 C   0  0  0  0  0  0  0  0  0  0  0  0
   49.7350   32.6510   41.5250 C   0  0  0  0  0  0  0  0  0  0  0  0
   48.5840   36.1160   42.8110 H   0  0  0  0  0  0  0  0  0  0  0  0
   50.9580   35.3900   43.1310 H   0  0  0  0  0  0  0  0  0  0  0  0
   51.6700   33.2000   42.3150 H   0  0  0  0  0  0  0  0  0  0  0  0
   46.6340   34.6880   41.6100 C   0  0  0  0  0  0  0  0  0  0  0  0
   46.1070   34.0030   40.9640 H   0  0  0  0  0  0  0  0  0  0  0  0
   46.6440   35.6780   41.0690 H   0  0  0  0  0  0  0  0  0  0  0  0
   45.9330   34.9230   42.9330 C   0  0  0  0  0  0  0  0  0  0  0  0
   45.9890   33.8990   43.8770 C   0  0  0  0  0  0  0  0  0  0  0  0
   45.3480   34.1250   45.0800 C   0  0  0  0  0  0  0  0  0  0  0  0
   44.7170   35.2970   45.2670 N   0  0  0  0  0  0  0  0  0  0  0  0
   44.6770   36.2760   44.3290 C   0  0  0  0  0  0  0  0  0  0  0  0
   45.2900   36.0680   43.1730 N   0  0  0  0  0  0  0  0  0  0  0  0
   46.5160   32.9720   43.6670 H   0  0  0  0  0  0  0  0  0  0  0  0
   45.3690   33.3530   45.8400 H   0  0  0  0  0  0  0  0  0  0  0  0
   44.1530   37.1960   44.5420 H   0  0  0  0  0  0  0  0  0  0  0  0
   47.6120   32.1930   40.7260 O   0  0  0  0  0  0  0  0  0  0  0  0
   47.6760   32.1270   39.7170 H   0  0  0  0  0  0  0  0  0  0  0  0
   50.2290   31.4190   41.0920 O   0  0  0  0  0  0  0  0  0  0  0  0
   50.7640   31.4390   39.8050 C   0  0  0  0  0  0  0  0  0  0  0  0
   52.1430   31.3560   39.6850 C   0  0  0  0  0  0  0  0  0  0  0  0
   52.7720   31.3680   38.4330 C   0  0  0  0  0  0  0  0  0  0  0  0
   52.0090   31.4610   37.3270 N   0  0  0  0  0  0  0  0  0  0  0  0
   50.6780   31.5400   37.4560 C   0  0  0  0  0  0  0  0  0  0  0  0
   50.0770   31.5300   38.6570 N   0  0  0  0  0  0  0  0  0  0  0  0
   52.8290   31.2790   40.5130 H   0  0  0  0  0  0  0  0  0  0  0  0
   53.8360   31.3050   38.3200 H   0  0  0  0  0  0  0  0  0  0  0  0
   49.8820   31.6390   36.2850 N   0  0  0  0  0  0  0  0  0  0  0  0
   50.0970   30.8000   35.0990 C   0  0  0  0  0  0  0  0  0  0  0  0
   49.0360   31.2480   34.1220 C   0  0  0  0  0  0  0  0  0  0  0  0
   48.6970   32.6760   34.5670 C   0  0  0  0  0  0  0  0  0  0  0  0
   48.7610   32.5460   36.0620 C   0  0  0  0  0  0  0  0  0  0  0  0
   47.8110   32.1690   36.4970 H   0  0  0  0  0  0  0  0  0  0  0  0
  1  6  2  0  0  0  0
  1  2  1  0  0  0  0
  2  3  2  0  0  0  0
  3  4  1  0  0  0  0
  3  7  1  0  0  0  0
  4  8  1  0  0  0  0
  5  9  1  0  0  0  0
  5  4  2  0  0  0  0
  6  5  1  0  0  0  0
 10  2  1  0  0  0  0
 10 13  1  0  0  0  0
 11 10  1  0  0  0  0
 12 10  1  0  0  0  0
 13 18  2  0  0  0  0
 13 14  1  0  0  0  0
 14 15  2  0  0  0  0
 15 16  1  0  0  0  0
 15 20  1  0  0  0  0
 17 21  1  0  0  0  0
 17 16  2  0  0  0  0
 18 17  1  0  0  0  0
 19 14  1  0  0  0  0
 22  1  1  0  0  0  0
 23 22  1  0  0  0  0
 24  6  1  0  0  0  0
 25 24  1  0  0  0  0
 26 25  1  0  0  0  0
 26 31  1  0  0  0  0
 27 26  2  0  0  0  0
 28 29  2  0  0  0  0
 28 27  1  0  0  0  0
 29 30  1  0  0  0  0
 30 25  2  0  0  0  0
 32 27  1  0  0  0  0
 33 29  1  0  0  0  0
 34 33  1  0  0  0  0
 35 36  1  0  0  0  0
 35 34  1  0  0  0  0
 36 37  1  0  0  0  0
 37 33  1  0  0  0  0
 37 38  1  0  0  0  0
M  END
>  <minimizedAffinity>
-6.21915865

>  <minimizedRMSD>
0.700962961

$$$$
