
 OpenBabel03242523013D

 29 31  0  0  0  0  0  0  0  0999 V2000
   46.4780   34.7130   41.8590 N   0  0  0  0  0  0  0  0  0  0  0  0
   47.7840   35.1320   41.6000 C   0  0  0  0  0  0  0  0  0  0  0  0
   48.3470   34.7420   40.2700 C   0  0  0  0  0  0  0  0  0  0  0  0
   47.9600   33.5010   39.7460 N   0  0  0  0  0  0  0  0  0  0  0  0
   46.6680   33.0520   40.0390 C   0  0  0  0  0  0  0  0  0  0  0  0
   45.8440   34.1380   40.7190 C   0  0  0  0  0  0  0  0  0  0  0  0
   48.4730   34.7430   42.3370 H   0  0  0  0  0  0  0  0  0  0  0  0
   47.7450   36.2640   41.5170 H   0  0  0  0  0  0  0  0  0  0  0  0
   49.4750   34.7380   40.3570 H   0  0  0  0  0  0  0  0  0  0  0  0
   48.1710   35.5180   39.4620 H   0  0  0  0  0  0  0  0  0  0  0  0
   48.1150   33.4820   38.7150 H   0  0  0  0  0  0  0  0  0  0  0  0
   46.7240   32.2190   40.8000 H   0  0  0  0  0  0  0  0  0  0  0  0
   46.0530   32.6560   39.2230 H   0  0  0  0  0  0  0  0  0  0  0  0
   45.7960   34.9690   39.9390 H   0  0  0  0  0  0  0  0  0  0  0  0
   44.8080   33.8260   40.8330 H   0  0  0  0  0  0  0  0  0  0  0  0
   45.1970   36.0540   43.3860 C   0  0  0  0  0  0  0  0  0  0  0  0
   45.8700   34.8770   43.1030 C   0  0  0  0  0  0  0  0  0  0  0  0
   45.8870   33.9470   44.1060 C   0  0  0  0  0  0  0  0  0  0  0  0
   45.2940   34.1380   45.3080 N   0  0  0  0  0  0  0  0  0  0  0  0
   44.6430   35.3120   45.5420 C   0  0  0  0  0  0  0  0  0  0  0  0
   44.6080   36.2320   44.5950 N   0  0  0  0  0  0  0  0  0  0  0  0
   45.0660   36.9050   42.7430 H   0  0  0  0  0  0  0  0  0  0  0  0
   44.1480   35.5190   46.4920 H   0  0  0  0  0  0  0  0  0  0  0  0
   46.5020   32.6800   44.0990 N   0  0  0  0  0  0  0  0  0  0  0  0
   47.6910   31.7990   44.1020 C   0  0  0  0  0  0  0  0  0  0  0  0
   47.4790   30.8390   45.2440 C   0  0  0  0  0  0  0  0  0  0  0  0
   45.9600   30.7740   45.3690 C   0  0  0  0  0  0  0  0  0  0  0  0
   45.6120   31.4940   44.0820 C   0  0  0  0  0  0  0  0  0  0  0  0
   44.5560   31.7500   44.0850 H   0  0  0  0  0  0  0  0  0  0  0  0
  1 17  1  0  0  0  0
  2  1  1  0  0  0  0
  2  7  1  0  0  0  0
  3  9  1  0  0  0  0
  3  2  1  0  0  0  0
  4  5  1  0  0  0  0
  4  3  1  0  0  0  0
  5  6  1  0  0  0  0
  5 12  1  0  0  0  0
  6 15  1  0  0  0  0
  6  1  1  0  0  0  0
  8  2  1  0  0  0  0
 10  3  1  0  0  0  0
 11  4  1  0  0  0  0
 13  5  1  0  0  0  0
 14  6  1  0  0  0  0
 16 21  1  0  0  0  0
 17 16  2  0  0  0  0
 17 18  1  0  0  0  0
 18 19  2  0  0  0  0
 19 20  1  0  0  0  0
 20 23  1  0  0  0  0
 21 20  2  0  0  0  0
 22 16  1  0  0  0  0
 24 25  1  0  0  0  0
 24 18  1  0  0  0  0
 25 26  1  0  0  0  0
 26 27  1  0  0  0  0
 28 29  1  0  0  0  0
 28 24  1  0  0  0  0
 28 27  1  0  0  0  0
M  END
>  <minimizedAffinity>
-4.44200706

>  <minimizedRMSD>
3.01884413

$$$$
