
 OpenBabel03252507373D

 35 39  0  0  0  0  0  0  0  0999 V2000
   45.5690   34.7110   43.8570 C   0  0  0  0  0  0  0  0  0  0  0  0
   46.3110   33.6560   44.4230 C   0  0  0  0  0  0  0  0  0  0  0  0
   46.1330   33.3740   45.7610 C   0  0  0  0  0  0  0  0  0  0  0  0
   45.2690   34.1060   46.4620 N   0  0  0  0  0  0  0  0  0  0  0  0
   44.5560   35.1220   45.9120 C   0  0  0  0  0  0  0  0  0  0  0  0
   44.7110   35.4120   44.6250 N   0  0  0  0  0  0  0  0  0  0  0  0
   47.0080   33.0690   43.8520 H   0  0  0  0  0  0  0  0  0  0  0  0
   43.8650   35.7080   46.4820 H   0  0  0  0  0  0  0  0  0  0  0  0
   47.2350   32.5650   47.7840 C   0  0  0  0  0  0  0  0  0  0  0  0
   46.8520   32.3080   46.4610 C   0  0  0  0  0  0  0  0  0  0  0  0
   47.1710   31.0950   45.9250 C   0  0  0  0  0  0  0  0  0  0  0  0
   47.8480   30.1240   46.6230 C   0  0  0  0  0  0  0  0  0  0  0  0
   48.2620   28.8800   46.3000 N   0  0  0  0  0  0  0  0  0  0  0  0
   48.9000   28.3570   47.4190 C   0  0  0  0  0  0  0  0  0  0  0  0
   48.8620   29.2830   48.3850 N   0  0  0  0  0  0  0  0  0  0  0  0
   48.2270   30.3650   47.9180 C   0  0  0  0  0  0  0  0  0  0  0  0
   47.9150   31.5910   48.4940 C   0  0  0  0  0  0  0  0  0  0  0  0
   46.9940   33.5260   48.2320 H   0  0  0  0  0  0  0  0  0  0  0  0
   46.8640   30.9100   44.8840 H   0  0  0  0  0  0  0  0  0  0  0  0
   48.1290   28.3920   45.3820 H   0  0  0  0  0  0  0  0  0  0  0  0
   49.3320   27.3680   47.4470 H   0  0  0  0  0  0  0  0  0  0  0  0
   48.1980   31.8110   49.5160 H   0  0  0  0  0  0  0  0  0  0  0  0
   45.7430   35.0010   42.5080 O   0  0  0  0  0  0  0  0  0  0  0  0
   44.6970   34.8100   41.6080 C   0  0  0  0  0  0  0  0  0  0  0  0
   45.3050   33.9240   40.7710 C   0  0  0  0  0  0  0  0  0  0  0  0
   43.8850   33.6350   39.5150 S   0  0  0  0  0  0  0  0  0  0  0  0
   42.7840   34.8350   40.4800 C   0  0  0  0  0  0  0  0  0  0  0  0
   43.4510   35.1360   41.2930 N   0  0  0  0  0  0  0  0  0  0  0  0
   46.1870   33.2720   40.4210 H   0  0  0  0  0  0  0  0  0  0  0  0
   41.5200   34.9040   39.8220 N   0  0  0  0  0  0  0  0  0  0  0  0
   40.6730   35.8550   39.1540 C   0  0  0  0  0  2  0  0  0  0  0  0
   40.6270   35.2080   37.7570 C   0  0  0  0  0  2  0  0  0  0  0  0
   40.5660   33.7210   38.1240 C   0  0  0  0  0  2  0  0  0  0  0  0
   40.6630   33.7160   39.6530 C   0  0  0  0  0  3  0  0  0  0  0  0
   41.1910   32.8270   39.9940 H   0  0  0  0  0  0  0  0  0  0  0  0
  1  2  2  0  0  0  0
  1  6  1  0  0  0  0
  2  3  1  0  0  0  0
  3 10  1  0  0  0  0
  3  4  2  0  0  0  0
  5  4  1  0  0  0  0
  5  8  1  0  0  0  0
  6  5  2  0  0  0  0
  7  2  1  0  0  0  0
  9 18  1  0  0  0  0
  9 17  1  0  0  0  0
 10  9  2  0  0  0  0
 11 10  1  0  0  0  0
 11 12  2  0  0  0  0
 12 16  1  0  0  0  0
 13 12  1  0  0  0  0
 13 14  1  0  0  0  0
 14 21  1  0  0  0  0
 14 15  2  0  0  0  0
 16 15  1  0  0  0  0
 16 17  2  0  0  0  0
 17 22  1  0  0  0  0
 19 11  1  0  0  0  0
 20 13  1  0  0  0  0
 23  1  1  0  0  0  0
 24 23  1  0  0  0  0
 25 24  2  0  0  0  0
 26 27  1  0  0  0  0
 26 25  1  0  0  0  0
 27 28  2  0  0  0  0
 28 24  1  0  0  0  0
 29 25  1  0  0  0  0
 30 27  1  0  0  0  0
 31 30  1  0  0  0  0
 32 33  1  0  0  0  0
 32 31  1  0  0  0  0
 33 34  1  0  0  0  0
 34 30  1  0  0  0  0
 34 35  1  0  0  0  0
M  END
>  <minimizedAffinity>
-6.5439105

>  <minimizedRMSD>
0.39906311

$$$$
