
 OpenBabel03252507373D

 35 39  0  0  0  0  0  0  0  0999 V2000
   45.5310   34.7080   43.4830 C   0  0  0  0  0  0  0  0  0  0  0  0
   46.2260   33.6540   44.1070 C   0  0  0  0  0  0  0  0  0  0  0  0
   46.0550   33.4660   45.4610 C   0  0  0  0  0  0  0  0  0  0  0  0
   45.2410   34.2850   46.1260 N   0  0  0  0  0  0  0  0  0  0  0  0
   44.5720   35.3000   45.5210 C   0  0  0  0  0  0  0  0  0  0  0  0
   44.7210   35.4990   44.2160 N   0  0  0  0  0  0  0  0  0  0  0  0
   46.8830   32.9970   43.5650 H   0  0  0  0  0  0  0  0  0  0  0  0
   43.9210   35.9560   46.0600 H   0  0  0  0  0  0  0  0  0  0  0  0
   47.0320   32.6870   47.5600 C   0  0  0  0  0  0  0  0  0  0  0  0
   46.7300   32.4110   46.2190 C   0  0  0  0  0  0  0  0  0  0  0  0
   47.0810   31.1910   45.7210 C   0  0  0  0  0  0  0  0  0  0  0  0
   47.7140   30.2300   46.4720 C   0  0  0  0  0  0  0  0  0  0  0  0
   48.1460   28.9820   46.1930 N   0  0  0  0  0  0  0  0  0  0  0  0
   48.7150   28.4760   47.3560 C   0  0  0  0  0  0  0  0  0  0  0  0
   48.6180   29.4150   48.3050 N   0  0  0  0  0  0  0  0  0  0  0  0
   48.0120   30.4900   47.7850 C   0  0  0  0  0  0  0  0  0  0  0  0
   47.6670   31.7240   48.3240 C   0  0  0  0  0  0  0  0  0  0  0  0
   46.7640   33.6540   47.9780 H   0  0  0  0  0  0  0  0  0  0  0  0
   46.8380   30.9910   44.6660 H   0  0  0  0  0  0  0  0  0  0  0  0
   48.0700   28.4810   45.2760 H   0  0  0  0  0  0  0  0  0  0  0  0
   49.1440   27.4870   47.4250 H   0  0  0  0  0  0  0  0  0  0  0  0
   47.8870   31.9580   49.3580 H   0  0  0  0  0  0  0  0  0  0  0  0
   45.6970   34.9030   42.1170 O   0  0  0  0  0  0  0  0  0  0  0  0
   44.6010   34.8460   41.2600 C   0  0  0  0  0  0  0  0  0  0  0  0
   44.9220   33.7050   40.5900 C   0  0  0  0  0  0  0  0  0  0  0  0
   43.4240   33.5940   39.3980 S   0  0  0  0  0  0  0  0  0  0  0  0
   42.7140   35.1850   40.1380 C   0  0  0  0  0  0  0  0  0  0  0  0
   43.4700   35.4310   40.8900 N   0  0  0  0  0  0  0  0  0  0  0  0
   45.5880   32.7950   40.3600 H   0  0  0  0  0  0  0  0  0  0  0  0
   41.4850   35.4740   39.4740 N   0  0  0  0  0  0  0  0  0  0  0  0
   40.9180   35.4850   38.1520 C   0  0  0  0  0  0  0  0  0  0  0  0
   39.8090   34.4350   38.3490 C   0  0  0  0  0  0  0  0  0  0  0  0
   39.3380   34.7680   39.7700 C   0  0  0  0  0  0  0  0  0  0  0  0
   40.2800   35.8920   40.2140 C   0  0  0  0  0  0  0  0  0  0  0  0
   40.4630   35.8290   41.2850 H   0  0  0  0  0  0  0  0  0  0  0  0
  1  2  2  0  0  0  0
  1  6  1  0  0  0  0
  2  3  1  0  0  0  0
  3  4  2  0  0  0  0
  3 10  1  0  0  0  0
  5  8  1  0  0  0  0
  5  4  1  0  0  0  0
  6  5  2  0  0  0  0
  7  2  1  0  0  0  0
  9 18  1  0  0  0  0
  9 17  1  0  0  0  0
 10  9  2  0  0  0  0
 11 10  1  0  0  0  0
 11 12  2  0  0  0  0
 12 16  1  0  0  0  0
 13 12  1  0  0  0  0
 13 14  1  0  0  0  0
 14 21  1  0  0  0  0
 14 15  2  0  0  0  0
 16 15  1  0  0  0  0
 16 17  2  0  0  0  0
 17 22  1  0  0  0  0
 19 11  1  0  0  0  0
 20 13  1  0  0  0  0
 23  1  1  0  0  0  0
 24 23  1  0  0  0  0
 25 24  2  0  0  0  0
 26 27  1  0  0  0  0
 26 25  1  0  0  0  0
 27 28  2  0  0  0  0
 28 24  1  0  0  0  0
 29 25  1  0  0  0  0
 30 27  1  0  0  0  0
 30 34  1  0  0  0  0
 31 32  1  0  0  0  0
 31 30  1  0  0  0  0
 32 33  1  0  0  0  0
 33 34  1  0  0  0  0
 34 35  1  0  0  0  0
M  END
>  <minimizedAffinity>
-7.07843733

>  <minimizedRMSD>
0.182396173

$$$$
