
 OpenBabel03242518033D

 34 36  0  0  0  0  0  0  0  0999 V2000
   37.1190   31.2500   38.9210 C   0  0  0  0  0  0  0  0  0  0  0  0
   37.7620   30.3990   38.5470 H   0  0  0  0  0  0  0  0  0  0  0  0
   36.4920   31.5070   38.0470 H   0  0  0  0  0  0  0  0  0  0  0  0
   39.4100   32.0860   39.2080 C   0  0  0  0  0  0  0  0  0  0  0  0
   38.0540   32.3160   39.2990 C   0  0  0  0  0  0  0  0  0  0  0  0
   37.5210   33.5000   39.7280 C   0  0  0  0  0  0  0  0  0  0  0  0
   38.3940   34.5140   40.0860 C   0  0  0  0  0  0  0  0  0  0  0  0
   39.7390   34.3770   40.0270 C   0  0  0  0  0  0  0  0  0  0  0  0
   40.2140   33.1450   39.5830 C   0  0  0  0  0  0  0  0  0  0  0  0
   36.4830   33.7620   39.8310 H   0  0  0  0  0  0  0  0  0  0  0  0
   38.0380   35.4880   40.4370 H   0  0  0  0  0  0  0  0  0  0  0  0
   40.4350   35.1620   40.3040 H   0  0  0  0  0  0  0  0  0  0  0  0
   41.2880   33.0070   39.5260 H   0  0  0  0  0  0  0  0  0  0  0  0
   40.1340   30.5880   38.6690 S   0  0  0  0  0  0  0  0  0  0  0  0
   40.2590   29.5760   39.7880 O   0  0  0  0  0  0  0  0  0  0  0  0
   41.5570   30.8630   38.2480 O   0  0  0  0  0  0  0  0  0  0  0  0
   39.5250   30.0430   37.5900 H   0  0  0  0  0  0  0  0  0  0  0  0
   36.1840   30.8020   40.0250 C   0  0  0  0  0  0  0  0  0  0  0  0
   35.2360   30.3680   39.5880 H   0  0  0  0  0  0  0  0  0  0  0  0
   35.8390   31.5950   40.6880 H   0  0  0  0  0  0  0  0  0  0  0  0
   36.9020   28.4310   40.1810 C   0  0  0  0  0  0  0  0  0  0  0  0
   36.8330   29.7190   40.7390 C   0  0  0  0  0  0  0  0  0  0  0  0
   37.4240   29.8670   41.9980 C   0  0  0  0  0  0  0  0  0  0  0  0
   38.0070   28.8020   42.5890 N   0  0  0  0  0  0  0  0  0  0  0  0
   38.0540   27.5920   42.0290 C   0  0  0  0  0  0  0  0  0  0  0  0
   37.5050   27.4150   40.8360 N   0  0  0  0  0  0  0  0  0  0  0  0
   36.4820   28.1920   39.2130 H   0  0  0  0  0  0  0  0  0  0  0  0
   37.3590   30.8660   42.4080 H   0  0  0  0  0  0  0  0  0  0  0  0
   38.6880   26.5200   42.7170 N   0  0  0  0  0  0  0  0  0  0  0  0
   38.5310   25.1220   42.3640 C   0  0  0  0  0  2  0  0  0  0  0  0
   39.6850   24.4190   43.0840 C   0  0  0  0  0  2  0  0  0  0  0  0
   40.5870   25.5460   43.5800 C   0  0  0  0  0  2  0  0  0  0  0  0
   39.5750   26.6370   43.8580 C   0  0  0  0  0  3  0  0  0  0  0  0
   40.0380   27.6300   43.9350 H   0  0  0  0  0  0  0  0  0  0  0  0
  1  5  1  0  0  0  0
  1 18  1  0  0  0  0
  2  1  1  0  0  0  0
  3  1  1  0  0  0  0
  4  5  2  0  0  0  0
  4  9  1  0  0  0  0
  5  6  1  0  0  0  0
  6 10  1  0  0  0  0
  6  7  2  0  0  0  0
  7 11  1  0  0  0  0
  8  7  1  0  0  0  0
  8 12  1  0  0  0  0
  9  8  2  0  0  0  0
 13  9  1  0  0  0  0
 14  4  1  0  0  0  0
 14 15  2  0  0  0  0
 16 14  2  0  0  0  0
 17 14  1  0  0  0  0
 18 20  1  0  0  0  0
 18 22  1  0  0  0  0
 19 18  1  0  0  0  0
 21 22  2  0  0  0  0
 21 26  1  0  0  0  0
 22 23  1  0  0  0  0
 23 28  1  0  0  0  0
 23 24  2  0  0  0  0
 25 24  1  0  0  0  0
 25 29  1  0  0  0  0
 26 25  2  0  0  0  0
 27 21  1  0  0  0  0
 29 33  1  0  0  0  0
 30 29  1  0  0  0  0
 30 31  1  0  0  0  0
 31 32  1  0  0  0  0
 32 33  1  0  0  0  0
 33 34  1  0  0  0  0
M  END
>  <minimizedAffinity>
-5.45770931

$$$$

 OpenBabel03242518033D

 34 36  0  0  0  0  0  0  0  0999 V2000
   38.3800   27.4450   43.7210 C   0  0  0  0  0  0  0  0  0  0  0  0
   39.4310   27.8340   43.5780 H   0  0  0  0  0  0  0  0  0  0  0  0
   38.3190   27.2520   44.8080 H   0  0  0  0  0  0  0  0  0  0  0  0
   39.4550   25.5650   42.5630 C   0  0  0  0  0  0  0  0  0  0  0  0
   38.2960   26.2270   42.9080 C   0  0  0  0  0  0  0  0  0  0  0  0
   37.0510   25.8050   42.5300 C   0  0  0  0  0  0  0  0  0  0  0  0
   36.9590   24.6550   41.7630 C   0  0  0  0  0  0  0  0  0  0  0  0
   38.0430   23.9430   41.3800 C   0  0  0  0  0  0  0  0  0  0  0  0
   39.2800   24.4280   41.7980 C   0  0  0  0  0  0  0  0  0  0  0  0
   36.1010   26.2590   42.7500 H   0  0  0  0  0  0  0  0  0  0  0  0
   35.9960   24.2600   41.4250 H   0  0  0  0  0  0  0  0  0  0  0  0
   37.9870   23.0400   40.7800 H   0  0  0  0  0  0  0  0  0  0  0  0
   40.1660   23.8770   41.5060 H   0  0  0  0  0  0  0  0  0  0  0  0
   41.0650   26.0700   43.0210 S   0  0  0  0  0  0  0  0  0  0  0  0
   41.5900   27.1830   42.1400 O   0  0  0  0  0  0  0  0  0  0  0  0
   42.0170   24.9220   42.7870 O   0  0  0  0  0  0  0  0  0  0  0  0
   41.1870   26.3920   44.3310 H   0  0  0  0  0  0  0  0  0  0  0  0
   37.3430   28.5000   43.3950 C   0  0  0  0  0  0  0  0  0  0  0  0
   37.1570   29.1610   44.2950 H   0  0  0  0  0  0  0  0  0  0  0  0
   36.3590   28.1150   43.1330 H   0  0  0  0  0  0  0  0  0  0  0  0
   39.0800   30.0880   42.6030 C   0  0  0  0  0  0  0  0  0  0  0  0
   37.8990   29.3620   42.3690 C   0  0  0  0  0  0  0  0  0  0  0  0
   37.3220   29.5310   41.1060 C   0  0  0  0  0  0  0  0  0  0  0  0
   37.9100   30.3540   40.2110 N   0  0  0  0  0  0  0  0  0  0  0  0
   39.0330   31.0290   40.4680 C   0  0  0  0  0  0  0  0  0  0  0  0
   39.6070   30.8920   41.6540 N   0  0  0  0  0  0  0  0  0  0  0  0
   39.6180   30.0390   43.5400 H   0  0  0  0  0  0  0  0  0  0  0  0
   36.4160   28.9640   40.9490 H   0  0  0  0  0  0  0  0  0  0  0  0
   39.5900   31.8770   39.4700 N   0  0  0  0  0  0  0  0  0  0  0  0
   40.6050   32.8790   39.7300 C   0  0  0  0  0  2  0  0  0  0  0  0
   41.1630   33.2200   38.3470 C   0  0  0  0  0  2  0  0  0  0  0  0
   40.5910   32.1540   37.4150 C   0  0  0  0  0  2  0  0  0  0  0  0
   39.2480   31.8850   38.0600 C   0  0  0  0  0  3  0  0  0  0  0  0
   38.8040   30.9380   37.7270 H   0  0  0  0  0  0  0  0  0  0  0  0
  1  3  1  0  0  0  0
  2  1  1  0  0  0  0
  4  5  1  0  0  0  0
  4 14  1  0  0  0  0
  5  1  1  0  0  0  0
  6 10  1  0  0  0  0
  6  5  2  0  0  0  0
  7  6  1  0  0  0  0
  8  7  2  0  0  0  0
  8  9  1  0  0  0  0
  9  4  2  0  0  0  0
 11  7  1  0  0  0  0
 12  8  1  0  0  0  0
 13  9  1  0  0  0  0
 14 17  1  0  0  0  0
 15 14  2  0  0  0  0
 16 14  2  0  0  0  0
 18  1  1  0  0  0  0
 18 19  1  0  0  0  0
 20 18  1  0  0  0  0
 21 27  1  0  0  0  0
 22 21  1  0  0  0  0
 22 18  1  0  0  0  0
 23 22  2  0  0  0  0
 24 25  2  0  0  0  0
 24 23  1  0  0  0  0
 25 26  1  0  0  0  0
 26 21  2  0  0  0  0
 28 23  1  0  0  0  0
 29 30  1  0  0  0  0
 29 25  1  0  0  0  0
 31 30  1  0  0  0  0
 32 33  1  0  0  0  0
 32 31  1  0  0  0  0
 33 29  1  0  0  0  0
 34 33  1  0  0  0  0
M  END
>  <minimizedAffinity>
-5.41633081

$$$$

 OpenBabel03242518033D

 34 36  0  0  0  0  0  0  0  0999 V2000
   32.4710   29.0250   37.3280 C   0  0  0  0  0  0  0  0  0  0  0  0
   31.7580   28.1540   37.4290 H   0  0  0  0  0  0  0  0  0  0  0  0
   32.5460   29.4210   38.3580 H   0  0  0  0  0  0  0  0  0  0  0  0
   30.7100   30.6530   36.7970 C   0  0  0  0  0  0  0  0  0  0  0  0
   31.8280   29.9550   36.3930 C   0  0  0  0  0  0  0  0  0  0  0  0
   32.3830   30.0840   35.1490 C   0  0  0  0  0  0  0  0  0  0  0  0
   31.7850   30.9600   34.2590 C   0  0  0  0  0  0  0  0  0  0  0  0
   30.6870   31.6850   34.5710 C   0  0  0  0  0  0  0  0  0  0  0  0
   30.1730   31.5060   35.8530 C   0  0  0  0  0  0  0  0  0  0  0  0
   33.2460   29.5800   34.7520 H   0  0  0  0  0  0  0  0  0  0  0  0
   32.1750   31.1130   33.2470 H   0  0  0  0  0  0  0  0  0  0  0  0
   30.2080   32.3760   33.8840 H   0  0  0  0  0  0  0  0  0  0  0  0
   29.2930   32.0740   36.1310 H   0  0  0  0  0  0  0  0  0  0  0  0
   29.9670   30.5170   38.3750 S   0  0  0  0  0  0  0  0  0  0  0  0
   29.0550   29.3130   38.4770 O   0  0  0  0  0  0  0  0  0  0  0  0
   29.0540   31.7010   38.5830 O   0  0  0  0  0  0  0  0  0  0  0  0
   30.8490   30.5430   39.4010 H   0  0  0  0  0  0  0  0  0  0  0  0
   33.8570   28.5700   36.9210 C   0  0  0  0  0  0  0  0  0  0  0  0
   34.3810   29.3810   36.3310 H   0  0  0  0  0  0  0  0  0  0  0  0
   33.8830   27.6990   36.2670 H   0  0  0  0  0  0  0  0  0  0  0  0
   35.5660   27.3380   38.2350 C   0  0  0  0  0  0  0  0  0  0  0  0
   34.6340   28.3850   38.1320 C   0  0  0  0  0  0  0  0  0  0  0  0
   34.5190   29.2100   39.2560 C   0  0  0  0  0  0  0  0  0  0  0  0
   35.2840   28.9640   40.3420 N   0  0  0  0  0  0  0  0  0  0  0  0
   36.1600   27.9590   40.4040 C   0  0  0  0  0  0  0  0  0  0  0  0
   36.2950   27.1580   39.3570 N   0  0  0  0  0  0  0  0  0  0  0  0
   35.7430   26.6350   37.4320 H   0  0  0  0  0  0  0  0  0  0  0  0
   33.7970   30.0070   39.1540 H   0  0  0  0  0  0  0  0  0  0  0  0
   36.9300   27.7660   41.5860 N   0  0  0  0  0  0  0  0  0  0  0  0
   37.6660   26.5540   41.8870 C   0  0  0  0  0  2  0  0  0  0  0  0
   38.6300   26.9650   43.0020 C   0  0  0  0  0  2  0  0  0  0  0  0
   38.5480   28.4890   43.0560 C   0  0  0  0  0  2  0  0  0  0  0  0
   37.1050   28.7220   42.6630 C   0  0  0  0  0  3  0  0  0  0  0  0
   36.9180   29.7570   42.3450 H   0  0  0  0  0  0  0  0  0  0  0  0
  1  2  1  0  0  0  0
  1  3  1  0  0  0  0
  4 14  1  0  0  0  0
  5  4  1  0  0  0  0
  5  1  1  0  0  0  0
  6  5  2  0  0  0  0
  7  8  2  0  0  0  0
  7  6  1  0  0  0  0
  8  9  1  0  0  0  0
  9 13  1  0  0  0  0
  9  4  2  0  0  0  0
 10  6  1  0  0  0  0
 11  7  1  0  0  0  0
 12  8  1  0  0  0  0
 14 15  2  0  0  0  0
 14 16  2  0  0  0  0
 14 17  1  0  0  0  0
 18  1  1  0  0  0  0
 18 22  1  0  0  0  0
 19 18  1  0  0  0  0
 20 18  1  0  0  0  0
 21 26  1  0  0  0  0
 22 21  2  0  0  0  0
 22 23  1  0  0  0  0
 23 24  2  0  0  0  0
 24 25  1  0  0  0  0
 25 29  1  0  0  0  0
 26 25  2  0  0  0  0
 27 21  1  0  0  0  0
 28 23  1  0  0  0  0
 29 30  1  0  0  0  0
 29 33  1  0  0  0  0
 30 31  1  0  0  0  0
 31 32  1  0  0  0  0
 33 32  1  0  0  0  0
 34 33  1  0  0  0  0
M  END
>  <minimizedAffinity>
-5.4073143

$$$$

 OpenBabel03242518033D

 34 36  0  0  0  0  0  0  0  0999 V2000
   39.3000   26.0470   43.0110 C   0  0  0  0  0  0  0  0  0  0  0  0
   40.2200   26.4730   42.5110 H   0  0  0  0  0  0  0  0  0  0  0  0
   39.7100   25.3260   43.7420 H   0  0  0  0  0  0  0  0  0  0  0  0
   39.0330   25.4020   40.6560 C   0  0  0  0  0  0  0  0  0  0  0  0
   38.5270   25.4120   41.9380 C   0  0  0  0  0  0  0  0  0  0  0  0
   37.3250   24.8520   42.2740 C   0  0  0  0  0  0  0  0  0  0  0  0
   36.5870   24.2470   41.2700 C   0  0  0  0  0  0  0  0  0  0  0  0
   37.0070   24.1910   39.9850 C   0  0  0  0  0  0  0  0  0  0  0  0
   38.2390   24.7810   39.7130 C   0  0  0  0  0  0  0  0  0  0  0  0
   36.8560   24.8160   43.2410 H   0  0  0  0  0  0  0  0  0  0  0  0
   35.6170   23.7790   41.4650 H   0  0  0  0  0  0  0  0  0  0  0  0
   36.4400   23.7210   39.1880 H   0  0  0  0  0  0  0  0  0  0  0  0
   38.6010   24.7510   38.6910 H   0  0  0  0  0  0  0  0  0  0  0  0
   40.5620   26.1080   40.1830 S   0  0  0  0  0  0  0  0  0  0  0  0
   40.6450   26.3490   38.6920 O   0  0  0  0  0  0  0  0  0  0  0  0
   41.6620   25.1130   40.4670 O   0  0  0  0  0  0  0  0  0  0  0  0
   40.8860   27.2270   40.8730 H   0  0  0  0  0  0  0  0  0  0  0  0
   38.5500   27.1030   43.7960 C   0  0  0  0  0  0  0  0  0  0  0  0
   39.1120   27.3650   44.7430 H   0  0  0  0  0  0  0  0  0  0  0  0
   37.5610   26.8060   44.1410 H   0  0  0  0  0  0  0  0  0  0  0  0
   37.3040   28.8600   42.5610 C   0  0  0  0  0  0  0  0  0  0  0  0
   38.5240   28.3120   42.9950 C   0  0  0  0  0  0  0  0  0  0  0  0
   39.6740   29.0060   42.6060 C   0  0  0  0  0  0  0  0  0  0  0  0
   39.5550   30.1260   41.8600 N   0  0  0  0  0  0  0  0  0  0  0  0
   38.3790   30.6170   41.4650 C   0  0  0  0  0  0  0  0  0  0  0  0
   37.2690   29.9850   41.8160 N   0  0  0  0  0  0  0  0  0  0  0  0
   36.3480   28.4130   42.7970 H   0  0  0  0  0  0  0  0  0  0  0  0
   40.6000   28.5670   42.9520 H   0  0  0  0  0  0  0  0  0  0  0  0
   38.3380   31.8030   40.6800 N   0  0  0  0  0  0  0  0  0  0  0  0
   37.1730   32.2500   39.9420 C   0  0  0  0  0  2  0  0  0  0  0  0
   37.4680   33.7160   39.6200 C   0  0  0  0  0  2  0  0  0  0  0  0
   38.6920   34.0680   40.4610 C   0  0  0  0  0  2  0  0  0  0  0  0
   39.4260   32.7440   40.4860 C   0  0  0  0  0  3  0  0  0  0  0  0
   40.1760   32.6940   41.2870 H   0  0  0  0  0  0  0  0  0  0  0  0
  1  3  1  0  0  0  0
  1 18  1  0  0  0  0
  2  1  1  0  0  0  0
  4  5  1  0  0  0  0
  5  6  2  0  0  0  0
  5  1  1  0  0  0  0
  6 10  1  0  0  0  0
  7 11  1  0  0  0  0
  7  6  1  0  0  0  0
  8  7  2  0  0  0  0
  9  8  1  0  0  0  0
  9  4  2  0  0  0  0
 12  8  1  0  0  0  0
 13  9  1  0  0  0  0
 14 16  2  0  0  0  0
 14  4  1  0  0  0  0
 14 17  1  0  0  0  0
 15 14  2  0  0  0  0
 18 20  1  0  0  0  0
 18 19  1  0  0  0  0
 21 27  1  0  0  0  0
 21 22  1  0  0  0  0
 22 18  1  0  0  0  0
 23 28  1  0  0  0  0
 23 22  2  0  0  0  0
 24 23  1  0  0  0  0
 25 26  1  0  0  0  0
 25 24  2  0  0  0  0
 26 21  2  0  0  0  0
 29 25  1  0  0  0  0
 30 29  1  0  0  0  0
 31 30  1  0  0  0  0
 31 32  1  0  0  0  0
 32 33  1  0  0  0  0
 33 29  1  0  0  0  0
 33 34  1  0  0  0  0
M  END
>  <minimizedAffinity>
-5.39243555

$$$$

 OpenBabel03242518033D

 34 36  0  0  0  0  0  0  0  0999 V2000
   35.8590   30.1590   40.4440 C   0  0  0  0  0  0  0  0  0  0  0  0
   34.9380   30.8100   40.5150 H   0  0  0  0  0  0  0  0  0  0  0  0
   36.5730   30.6410   41.1380 H   0  0  0  0  0  0  0  0  0  0  0  0
   37.2230   31.1520   38.6590 C   0  0  0  0  0  0  0  0  0  0  0  0
   36.2800   30.2210   39.0400 C   0  0  0  0  0  0  0  0  0  0  0  0
   35.7050   29.3360   38.1690 C   0  0  0  0  0  0  0  0  0  0  0  0
   36.0960   29.3850   36.8410 C   0  0  0  0  0  0  0  0  0  0  0  0
   37.0150   30.2640   36.3800 C   0  0  0  0  0  0  0  0  0  0  0  0
   37.5590   31.1370   37.3200 C   0  0  0  0  0  0  0  0  0  0  0  0
   34.9650   28.5840   38.3790 H   0  0  0  0  0  0  0  0  0  0  0  0
   35.6790   28.7070   36.0900 H   0  0  0  0  0  0  0  0  0  0  0  0
   37.3310   30.3140   35.3430 H   0  0  0  0  0  0  0  0  0  0  0  0
   38.2980   31.8530   36.9780 H   0  0  0  0  0  0  0  0  0  0  0  0
   37.9800   32.3020   39.7370 S   0  0  0  0  0  0  0  0  0  0  0  0
   37.2730   33.6400   39.7360 O   0  0  0  0  0  0  0  0  0  0  0  0
   39.3660   32.6070   39.2220 O   0  0  0  0  0  0  0  0  0  0  0  0
   38.1450   31.8440   41.0000 H   0  0  0  0  0  0  0  0  0  0  0  0
   35.5990   28.7620   40.9690 C   0  0  0  0  0  0  0  0  0  0  0  0
   35.3260   28.0660   40.1200 H   0  0  0  0  0  0  0  0  0  0  0  0
   34.7670   28.6790   41.6670 H   0  0  0  0  0  0  0  0  0  0  0  0
   37.3730   27.0290   41.0920 C   0  0  0  0  0  0  0  0  0  0  0  0
   36.8440   28.2590   41.5190 C   0  0  0  0  0  0  0  0  0  0  0  0
   37.5920   28.9390   42.4860 C   0  0  0  0  0  0  0  0  0  0  0  0
   38.7410   28.3960   42.9410 N   0  0  0  0  0  0  0  0  0  0  0  0
   39.2140   27.2230   42.5120 C   0  0  0  0  0  0  0  0  0  0  0  0
   38.5310   26.5520   41.5960 N   0  0  0  0  0  0  0  0  0  0  0  0
   36.8850   26.4120   40.3490 H   0  0  0  0  0  0  0  0  0  0  0  0
   37.1660   29.8820   42.7990 H   0  0  0  0  0  0  0  0  0  0  0  0
   40.4340   26.7190   43.0410 N   0  0  0  0  0  0  0  0  0  0  0  0
   40.8780   25.3460   42.8930 C   0  0  0  0  0  2  0  0  0  0  0  0
   42.3670   25.3910   43.2430 C   0  0  0  0  0  2  0  0  0  0  0  0
   42.7170   26.8760   43.2990 C   0  0  0  0  0  2  0  0  0  0  0  0
   41.4170   27.4680   43.8010 C   0  0  0  0  0  3  0  0  0  0  0  0
   41.3530   28.5500   43.6240 H   0  0  0  0  0  0  0  0  0  0  0  0
  1  2  1  0  0  0  0
  1 18  1  0  0  0  0
  1  3  1  0  0  0  0
  4  5  1  0  0  0  0
  4 14  1  0  0  0  0
  5  1  1  0  0  0  0
  6 10  1  0  0  0  0
  6  5  2  0  0  0  0
  7  6  1  0  0  0  0
  8  7  2  0  0  0  0
  8  9  1  0  0  0  0
  9  4  2  0  0  0  0
 11  7  1  0  0  0  0
 12  8  1  0  0  0  0
 13  9  1  0  0  0  0
 14 17  1  0  0  0  0
 15 14  2  0  0  0  0
 16 14  2  0  0  0  0
 18 22  1  0  0  0  0
 18 20  1  0  0  0  0
 19 18  1  0  0  0  0
 21 22  2  0  0  0  0
 21 26  1  0  0  0  0
 22 23  1  0  0  0  0
 23 28  1  0  0  0  0
 23 24  2  0  0  0  0
 25 24  1  0  0  0  0
 25 29  1  0  0  0  0
 26 25  2  0  0  0  0
 27 21  1  0  0  0  0
 29 33  1  0  0  0  0
 30 29  1  0  0  0  0
 30 31  1  0  0  0  0
 31 32  1  0  0  0  0
 32 33  1  0  0  0  0
 34 33  1  0  0  0  0
M  END
>  <minimizedAffinity>
-5.3802433

$$$$

 OpenBabel03242518033D

 34 36  0  0  0  0  0  0  0  0999 V2000
   36.2380   30.5200   40.9770 C   0  0  0  0  0  0  0  0  0  0  0  0
   35.3730   29.7940   41.0090 H   0  0  0  0  0  0  0  0  0  0  0  0
   35.8170   31.4470   41.4080 H   0  0  0  0  0  0  0  0  0  0  0  0
   37.3680   31.7130   39.1510 C   0  0  0  0  0  0  0  0  0  0  0  0
   36.5940   30.6480   39.5590 C   0  0  0  0  0  0  0  0  0  0  0  0
   36.1310   29.6860   38.7040 C   0  0  0  0  0  0  0  0  0  0  0  0
   36.4620   29.7950   37.3630 C   0  0  0  0  0  0  0  0  0  0  0  0
   37.2170   30.8070   36.8750 C   0  0  0  0  0  0  0  0  0  0  0  0
   37.6540   31.7520   37.8010 C   0  0  0  0  0  0  0  0  0  0  0  0
   35.5240   28.8290   38.9350 H   0  0  0  0  0  0  0  0  0  0  0  0
   36.1270   29.0630   36.6220 H   0  0  0  0  0  0  0  0  0  0  0  0
   37.4840   30.9050   35.8280 H   0  0  0  0  0  0  0  0  0  0  0  0
   38.2610   32.5730   37.4380 H   0  0  0  0  0  0  0  0  0  0  0  0
   37.9770   32.9660   40.2090 S   0  0  0  0  0  0  0  0  0  0  0  0
   37.6200   34.3530   39.7200 O   0  0  0  0  0  0  0  0  0  0  0  0
   39.4860   32.9310   40.1800 O   0  0  0  0  0  0  0  0  0  0  0  0
   37.6270   32.8050   41.5070 H   0  0  0  0  0  0  0  0  0  0  0  0
   37.3720   30.0810   41.8800 C   0  0  0  0  0  0  0  0  0  0  0  0
   37.0420   30.0950   42.9630 H   0  0  0  0  0  0  0  0  0  0  0  0
   38.2540   30.7190   41.8570 H   0  0  0  0  0  0  0  0  0  0  0  0
   36.7250   27.6850   41.7990 C   0  0  0  0  0  0  0  0  0  0  0  0
   37.6730   28.6970   41.5670 C   0  0  0  0  0  0  0  0  0  0  0  0
   38.8920   28.2750   41.0260 C   0  0  0  0  0  0  0  0  0  0  0  0
   39.0860   26.9640   40.7650 N   0  0  0  0  0  0  0  0  0  0  0  0
   38.1620   26.0300   40.9990 C   0  0  0  0  0  0  0  0  0  0  0  0
   36.9950   26.3940   41.5110 N   0  0  0  0  0  0  0  0  0  0  0  0
   35.7480   27.8870   42.2140 H   0  0  0  0  0  0  0  0  0  0  0  0
   39.6050   29.0700   40.8560 H   0  0  0  0  0  0  0  0  0  0  0  0
   38.4430   24.6680   40.6950 N   0  0  0  0  0  0  0  0  0  0  0  0
   37.6620   23.5490   41.1840 C   0  0  0  0  0  2  0  0  0  0  0  0
   38.0760   22.3790   40.2880 C   0  0  0  0  0  2  0  0  0  0  0  0
   38.8800   23.0130   39.1550 C   0  0  0  0  0  2  0  0  0  0  0  0
   39.5310   24.1790   39.8690 C   0  0  0  0  0  3  0  0  0  0  0  0
   39.9090   24.9390   39.1740 H   0  0  0  0  0  0  0  0  0  0  0  0
  1  2  1  0  0  0  0
  1  3  1  0  0  0  0
  1 18  1  0  0  0  0
  4  5  1  0  0  0  0
  4 14  1  0  0  0  0
  5  1  1  0  0  0  0
  6 10  1  0  0  0  0
  6  5  2  0  0  0  0
  7  6  1  0  0  0  0
  8  7  2  0  0  0  0
  8  9  1  0  0  0  0
  9  4  2  0  0  0  0
 11  7  1  0  0  0  0
 12  8  1  0  0  0  0
 13  9  1  0  0  0  0
 14 17  1  0  0  0  0
 15 14  2  0  0  0  0
 16 14  2  0  0  0  0
 18 19  1  0  0  0  0
 20 18  1  0  0  0  0
 21 27  1  0  0  0  0
 22 21  1  0  0  0  0
 22 18  1  0  0  0  0
 23 22  2  0  0  0  0
 24 25  2  0  0  0  0
 24 23  1  0  0  0  0
 25 26  1  0  0  0  0
 26 21  2  0  0  0  0
 28 23  1  0  0  0  0
 29 25  1  0  0  0  0
 29 30  1  0  0  0  0
 31 30  1  0  0  0  0
 32 33  1  0  0  0  0
 32 31  1  0  0  0  0
 33 29  1  0  0  0  0
 34 33  1  0  0  0  0
M  END
>  <minimizedAffinity>
-5.22737646

$$$$

 OpenBabel03242518033D

 34 36  0  0  0  0  0  0  0  0999 V2000
   36.3780   27.0780   38.6450 C   0  0  0  0  0  0  0  0  0  0  0  0
   37.4090   27.2960   38.2360 H   0  0  0  0  0  0  0  0  0  0  0  0
   35.9400   28.0820   38.7950 H   0  0  0  0  0  0  0  0  0  0  0  0
   36.8540   27.0490   41.0550 C   0  0  0  0  0  0  0  0  0  0  0  0
   36.5960   26.3460   39.8970 C   0  0  0  0  0  0  0  0  0  0  0  0
   36.5310   24.9800   39.8490 C   0  0  0  0  0  0  0  0  0  0  0  0
   36.7340   24.2780   41.0260 C   0  0  0  0  0  0  0  0  0  0  0  0
   36.9910   24.8860   42.2060 C   0  0  0  0  0  0  0  0  0  0  0  0
   37.0440   26.2780   42.1840 C   0  0  0  0  0  0  0  0  0  0  0  0
   36.3400   24.3540   38.9950 H   0  0  0  0  0  0  0  0  0  0  0  0
   36.6970   23.1850   41.0610 H   0  0  0  0  0  0  0  0  0  0  0  0
   37.1520   24.3500   43.1360 H   0  0  0  0  0  0  0  0  0  0  0  0
   37.2480   26.7920   43.1160 H   0  0  0  0  0  0  0  0  0  0  0  0
   36.9490   28.7920   41.1610 S   0  0  0  0  0  0  0  0  0  0  0  0
   37.3590   29.2610   42.5400 O   0  0  0  0  0  0  0  0  0  0  0  0
   35.5660   29.3650   40.9630 O   0  0  0  0  0  0  0  0  0  0  0  0
   37.7250   29.3580   40.2070 H   0  0  0  0  0  0  0  0  0  0  0  0
   35.5140   26.3600   37.6300 C   0  0  0  0  0  0  0  0  0  0  0  0
   34.9050   25.5490   38.1330 H   0  0  0  0  0  0  0  0  0  0  0  0
   36.0600   25.8400   36.8440 H   0  0  0  0  0  0  0  0  0  0  0  0
   34.0010   28.3030   37.9420 C   0  0  0  0  0  0  0  0  0  0  0  0
   34.5570   27.3180   37.1090 C   0  0  0  0  0  0  0  0  0  0  0  0
   34.1290   27.3360   35.7770 C   0  0  0  0  0  0  0  0  0  0  0  0
   33.2350   28.2660   35.3790 N   0  0  0  0  0  0  0  0  0  0  0  0
   32.7270   29.1880   36.1990 C   0  0  0  0  0  0  0  0  0  0  0  0
   33.1110   29.2010   37.4670 N   0  0  0  0  0  0  0  0  0  0  0  0
   34.2530   28.3900   38.9900 H   0  0  0  0  0  0  0  0  0  0  0  0
   34.5710   26.5700   35.1550 H   0  0  0  0  0  0  0  0  0  0  0  0
   31.7890   30.1350   35.7010 N   0  0  0  0  0  0  0  0  0  0  0  0
   30.9480   30.9650   36.5420 C   0  0  0  0  0  2  0  0  0  0  0  0
   30.4460   32.0660   35.6050 C   0  0  0  0  0  2  0  0  0  0  0  0
   31.2850   31.9210   34.3370 C   0  0  0  0  0  2  0  0  0  0  0  0
   31.5190   30.4250   34.3060 C   0  0  0  0  0  3  0  0  0  0  0  0
   32.3510   30.1450   33.6460 H   0  0  0  0  0  0  0  0  0  0  0  0
  1  3  1  0  0  0  0
  1  5  1  0  0  0  0
  2  1  1  0  0  0  0
  4 14  1  0  0  0  0
  4  9  1  0  0  0  0
  5  4  2  0  0  0  0
  6  5  1  0  0  0  0
  6  7  2  0  0  0  0
  7 11  1  0  0  0  0
  7  8  1  0  0  0  0
  8 12  1  0  0  0  0
  9  8  2  0  0  0  0
  9 13  1  0  0  0  0
 10  6  1  0  0  0  0
 14 15  2  0  0  0  0
 16 14  2  0  0  0  0
 17 14  1  0  0  0  0
 18 19  1  0  0  0  0
 18  1  1  0  0  0  0
 20 18  1  0  0  0  0
 21 27  1  0  0  0  0
 22 18  1  0  0  0  0
 22 21  2  0  0  0  0
 23 22  1  0  0  0  0
 24 23  2  0  0  0  0
 24 25  1  0  0  0  0
 25 26  2  0  0  0  0
 26 21  1  0  0  0  0
 28 23  1  0  0  0  0
 29 25  1  0  0  0  0
 29 30  1  0  0  0  0
 31 30  1  0  0  0  0
 32 31  1  0  0  0  0
 33 32  1  0  0  0  0
 33 29  1  0  0  0  0
 34 33  1  0  0  0  0
M  END
>  <minimizedAffinity>
-5.19288254

$$$$

 OpenBabel03242518033D

 34 36  0  0  0  0  0  0  0  0999 V2000
   36.9570   26.9750   42.7570 C   0  0  0  0  0  0  0  0  0  0  0  0
   36.1220   26.6540   43.4480 H   0  0  0  0  0  0  0  0  0  0  0  0
   36.5960   27.9340   42.3400 H   0  0  0  0  0  0  0  0  0  0  0  0
   36.8520   26.2090   40.4260 C   0  0  0  0  0  0  0  0  0  0  0  0
   37.0690   25.9100   41.7540 C   0  0  0  0  0  0  0  0  0  0  0  0
   37.3910   24.6570   42.1980 C   0  0  0  0  0  0  0  0  0  0  0  0
   37.5020   23.6440   41.2590 C   0  0  0  0  0  0  0  0  0  0  0  0
   37.3060   23.8470   39.9360 C   0  0  0  0  0  0  0  0  0  0  0  0
   36.9810   25.1460   39.5530 C   0  0  0  0  0  0  0  0  0  0  0  0
   37.5740   24.3370   43.2080 H   0  0  0  0  0  0  0  0  0  0  0  0
   37.7560   22.6180   41.5430 H   0  0  0  0  0  0  0  0  0  0  0  0
   37.3890   23.0640   39.1900 H   0  0  0  0  0  0  0  0  0  0  0  0
   36.8180   25.3380   38.4990 H   0  0  0  0  0  0  0  0  0  0  0  0
   36.4360   27.7940   39.8160 S   0  0  0  0  0  0  0  0  0  0  0  0
   35.4930   27.7250   38.6340 O   0  0  0  0  0  0  0  0  0  0  0  0
   37.6840   28.4430   39.2670 O   0  0  0  0  0  0  0  0  0  0  0  0
   35.9630   28.6390   40.7620 H   0  0  0  0  0  0  0  0  0  0  0  0
   38.2320   27.2700   43.5180 C   0  0  0  0  0  0  0  0  0  0  0  0
   38.9880   26.4430   43.3570 H   0  0  0  0  0  0  0  0  0  0  0  0
   38.1210   27.3290   44.6000 H   0  0  0  0  0  0  0  0  0  0  0  0
   40.2030   28.5550   42.7270 C   0  0  0  0  0  0  0  0  0  0  0  0
   38.8180   28.4690   42.9490 C   0  0  0  0  0  0  0  0  0  0  0  0
   38.0730   29.5950   42.5860 C   0  0  0  0  0  0  0  0  0  0  0  0
   38.7020   30.6690   42.0620 N   0  0  0  0  0  0  0  0  0  0  0  0
   40.0220   30.7160   41.8650 C   0  0  0  0  0  0  0  0  0  0  0  0
   40.7590   29.6660   42.1970 N   0  0  0  0  0  0  0  0  0  0  0  0
   40.8830   27.7490   42.9670 H   0  0  0  0  0  0  0  0  0  0  0  0
   37.0110   29.5050   42.7660 H   0  0  0  0  0  0  0  0  0  0  0  0
   40.6100   31.8850   41.3060 N   0  0  0  0  0  0  0  0  0  0  0  0
   42.0310   32.1740   41.3360 C   0  0  0  0  0  2  0  0  0  0  0  0
   42.2150   33.2740   40.2890 C   0  0  0  0  0  2  0  0  0  0  0  0
   40.8880   33.3310   39.5360 C   0  0  0  0  0  2  0  0  0  0  0  0
   39.9090   32.9610   40.6300 C   0  0  0  0  0  3  0  0  0  0  0  0
   38.9350   32.6470   40.2330 H   0  0  0  0  0  0  0  0  0  0  0  0
  1  2  1  0  0  0  0
  1 18  1  0  0  0  0
  3  1  1  0  0  0  0
  4  5  1  0  0  0  0
  5  6  2  0  0  0  0
  5  1  1  0  0  0  0
  6 10  1  0  0  0  0
  7 11  1  0  0  0  0
  7  6  1  0  0  0  0
  8  7  2  0  0  0  0
  9  8  1  0  0  0  0
  9  4  2  0  0  0  0
 12  8  1  0  0  0  0
 13  9  1  0  0  0  0
 14  4  1  0  0  0  0
 14 17  1  0  0  0  0
 15 14  2  0  0  0  0
 16 14  2  0  0  0  0
 18 20  1  0  0  0  0
 19 18  1  0  0  0  0
 21 22  1  0  0  0  0
 21 27  1  0  0  0  0
 22 18  1  0  0  0  0
 23 28  1  0  0  0  0
 23 22  2  0  0  0  0
 24 23  1  0  0  0  0
 25 24  2  0  0  0  0
 25 26  1  0  0  0  0
 26 21  2  0  0  0  0
 29 30  1  0  0  0  0
 29 25  1  0  0  0  0
 31 30  1  0  0  0  0
 32 31  1  0  0  0  0
 32 33  1  0  0  0  0
 33 29  1  0  0  0  0
 34 33  1  0  0  0  0
M  END
>  <minimizedAffinity>
-5.10204649

$$$$

 OpenBabel03242518033D

 34 36  0  0  0  0  0  0  0  0999 V2000
   37.1730   27.5710   43.1860 C   0  0  0  0  0  0  0  0  0  0  0  0
   36.8390   27.5330   44.2650 H   0  0  0  0  0  0  0  0  0  0  0  0
   36.2960   27.1930   42.6280 H   0  0  0  0  0  0  0  0  0  0  0  0
   38.2960   25.5870   42.2700 C   0  0  0  0  0  0  0  0  0  0  0  0
   38.3400   26.6860   43.1020 C   0  0  0  0  0  0  0  0  0  0  0  0
   39.4290   27.0040   43.8670 C   0  0  0  0  0  0  0  0  0  0  0  0
   40.5380   26.1760   43.7950 C   0  0  0  0  0  0  0  0  0  0  0  0
   40.5820   25.0780   43.0060 C   0  0  0  0  0  0  0  0  0  0  0  0
   39.4390   24.8130   42.2540 C   0  0  0  0  0  0  0  0  0  0  0  0
   39.5470   27.8340   44.5410 H   0  0  0  0  0  0  0  0  0  0  0  0
   41.4430   26.3700   44.3790 H   0  0  0  0  0  0  0  0  0  0  0  0
   41.4430   24.4210   42.9390 H   0  0  0  0  0  0  0  0  0  0  0  0
   39.4470   23.9400   41.6130 H   0  0  0  0  0  0  0  0  0  0  0  0
   36.9260   25.1430   41.2790 S   0  0  0  0  0  0  0  0  0  0  0  0
   36.9070   23.6640   40.9570 O   0  0  0  0  0  0  0  0  0  0  0  0
   37.0600   25.8200   39.9360 O   0  0  0  0  0  0  0  0  0  0  0  0
   35.7340   25.5430   41.7800 H   0  0  0  0  0  0  0  0  0  0  0  0
   37.4190   28.9930   42.7250 C   0  0  0  0  0  0  0  0  0  0  0  0
   38.5250   29.2300   42.7510 H   0  0  0  0  0  0  0  0  0  0  0  0
   36.9610   29.7630   43.3440 H   0  0  0  0  0  0  0  0  0  0  0  0
   37.9720   29.2940   40.3240 C   0  0  0  0  0  0  0  0  0  0  0  0
   37.0180   29.0800   41.3340 C   0  0  0  0  0  0  0  0  0  0  0  0
   35.6930   28.9600   40.9020 C   0  0  0  0  0  0  0  0  0  0  0  0
   35.4120   29.0540   39.5840 N   0  0  0  0  0  0  0  0  0  0  0  0
   36.3450   29.2590   38.6520 C   0  0  0  0  0  0  0  0  0  0  0  0
   37.6110   29.3760   39.0260 N   0  0  0  0  0  0  0  0  0  0  0  0
   39.0280   29.4030   40.5340 H   0  0  0  0  0  0  0  0  0  0  0  0
   34.9780   28.7960   41.6950 H   0  0  0  0  0  0  0  0  0  0  0  0
   35.9670   29.3450   37.2830 N   0  0  0  0  0  0  0  0  0  0  0  0
   36.8230   29.8670   36.2350 C   0  0  0  0  0  2  0  0  0  0  0  0
   36.1700   29.3830   34.9380 C   0  0  0  0  0  2  0  0  0  0  0  0
   35.1180   28.3680   35.3790 C   0  0  0  0  0  2  0  0  0  0  0  0
   34.6950   28.9400   36.7150 C   0  0  0  0  0  3  0  0  0  0  0  0
   34.1680   28.2060   37.3390 H   0  0  0  0  0  0  0  0  0  0  0  0
  1  2  1  0  0  0  0
  3  1  1  0  0  0  0
  4  5  1  0  0  0  0
  5  1  1  0  0  0  0
  5  6  2  0  0  0  0
  6 10  1  0  0  0  0
  7  6  1  0  0  0  0
  7 11  1  0  0  0  0
  8  7  2  0  0  0  0
  9  4  2  0  0  0  0
  9  8  1  0  0  0  0
 12  8  1  0  0  0  0
 13  9  1  0  0  0  0
 14 17  1  0  0  0  0
 14  4  1  0  0  0  0
 15 14  2  0  0  0  0
 16 14  2  0  0  0  0
 18 19  1  0  0  0  0
 18  1  1  0  0  0  0
 18 20  1  0  0  0  0
 21 27  1  0  0  0  0
 21 22  1  0  0  0  0
 22 18  1  0  0  0  0
 23 22  2  0  0  0  0
 23 28  1  0  0  0  0
 24 23  1  0  0  0  0
 25 26  1  0  0  0  0
 25 24  2  0  0  0  0
 26 21  2  0  0  0  0
 29 25  1  0  0  0  0
 30 29  1  0  0  0  0
 31 32  1  0  0  0  0
 31 30  1  0  0  0  0
 32 33  1  0  0  0  0
 33 29  1  0  0  0  0
 33 34  1  0  0  0  0
M  END
>  <minimizedAffinity>
-5.09073353

$$$$
