
 OpenBabel03252507373D

 35 39  0  0  0  0  0  0  0  0999 V2000
   45.5430   34.7530   43.4540 C   0  0  0  0  0  0  0  0  0  0  0  0
   46.2280   33.6910   44.0760 C   0  0  0  0  0  0  0  0  0  0  0  0
   46.0420   33.4910   45.4270 C   0  0  0  0  0  0  0  0  0  0  0  0
   45.2230   34.3070   46.0890 N   0  0  0  0  0  0  0  0  0  0  0  0
   44.5630   35.3290   45.4860 C   0  0  0  0  0  0  0  0  0  0  0  0
   44.7280   35.5400   44.1850 N   0  0  0  0  0  0  0  0  0  0  0  0
   46.8890   33.0370   43.5350 H   0  0  0  0  0  0  0  0  0  0  0  0
   43.9090   35.9820   46.0250 H   0  0  0  0  0  0  0  0  0  0  0  0
   47.0010   32.6930   47.5260 C   0  0  0  0  0  0  0  0  0  0  0  0
   46.7050   32.4270   46.1820 C   0  0  0  0  0  0  0  0  0  0  0  0
   47.0510   31.2070   45.6780 C   0  0  0  0  0  0  0  0  0  0  0  0
   47.6730   30.2380   46.4280 C   0  0  0  0  0  0  0  0  0  0  0  0
   48.0980   28.9890   46.1440 N   0  0  0  0  0  0  0  0  0  0  0  0
   48.6570   28.4720   47.3070 C   0  0  0  0  0  0  0  0  0  0  0  0
   48.5610   29.4060   48.2610 N   0  0  0  0  0  0  0  0  0  0  0  0
   47.9650   30.4880   47.7440 C   0  0  0  0  0  0  0  0  0  0  0  0
   47.6250   31.7210   48.2880 C   0  0  0  0  0  0  0  0  0  0  0  0
   46.7370   33.6590   47.9490 H   0  0  0  0  0  0  0  0  0  0  0  0
   46.8130   31.0150   44.6210 H   0  0  0  0  0  0  0  0  0  0  0  0
   48.0240   28.4930   45.2230 H   0  0  0  0  0  0  0  0  0  0  0  0
   49.0790   27.4790   47.3730 H   0  0  0  0  0  0  0  0  0  0  0  0
   47.8400   31.9470   49.3250 H   0  0  0  0  0  0  0  0  0  0  0  0
   45.7250   34.9590   42.0920 O   0  0  0  0  0  0  0  0  0  0  0  0
   44.6500   34.8450   41.2130 C   0  0  0  0  0  0  0  0  0  0  0  0
   45.1210   33.8260   40.4420 C   0  0  0  0  0  0  0  0  0  0  0  0
   43.6580   33.6390   39.2180 S   0  0  0  0  0  0  0  0  0  0  0  0
   42.7410   35.0440   40.0950 C   0  0  0  0  0  0  0  0  0  0  0  0
   43.4550   35.3120   40.8810 N   0  0  0  0  0  0  0  0  0  0  0  0
   45.9030   33.0370   40.1380 H   0  0  0  0  0  0  0  0  0  0  0  0
   41.4890   35.2350   39.4400 N   0  0  0  0  0  0  0  0  0  0  0  0
   40.8050   34.8570   38.2320 C   0  0  0  0  0  2  0  0  0  0  0  0
   39.6230   34.0850   38.8480 C   0  0  0  0  0  2  0  0  0  0  0  0
   39.3220   34.9440   40.0810 C   0  0  0  0  0  2  0  0  0  0  0  0
   40.4050   36.0280   40.0480 C   0  0  0  0  0  3  0  0  0  0  0  0
   40.6790   36.3160   41.0610 H   0  0  0  0  0  0  0  0  0  0  0  0
  1  2  2  0  0  0  0
  1  6  1  0  0  0  0
  2  3  1  0  0  0  0
  3  4  2  0  0  0  0
  3 10  1  0  0  0  0
  5  8  1  0  0  0  0
  5  4  1  0  0  0  0
  6  5  2  0  0  0  0
  7  2  1  0  0  0  0
  9 18  1  0  0  0  0
  9 17  1  0  0  0  0
 10  9  2  0  0  0  0
 11 10  1  0  0  0  0
 11 12  2  0  0  0  0
 12 16  1  0  0  0  0
 13 12  1  0  0  0  0
 13 14  1  0  0  0  0
 14 21  1  0  0  0  0
 14 15  2  0  0  0  0
 16 15  1  0  0  0  0
 16 17  2  0  0  0  0
 17 22  1  0  0  0  0
 19 11  1  0  0  0  0
 20 13  1  0  0  0  0
 23  1  1  0  0  0  0
 24 23  1  0  0  0  0
 25 24  2  0  0  0  0
 26 27  1  0  0  0  0
 26 25  1  0  0  0  0
 27 28  2  0  0  0  0
 28 24  1  0  0  0  0
 29 25  1  0  0  0  0
 30 34  1  0  0  0  0
 30 27  1  0  0  0  0
 31 32  1  0  0  0  0
 31 30  1  0  0  0  0
 32 33  1  0  0  0  0
 34 33  1  0  0  0  0
 34 35  1  0  0  0  0
M  END
>  <minimizedAffinity>
-6.92747211

>  <minimizedRMSD>
0.0955005437

$$$$
