
 OpenBabel03252507373D

 35 39  0  0  0  0  0  0  0  0999 V2000
   45.5960   34.7220   43.4940 C   0  0  0  0  0  0  0  0  0  0  0  0
   46.2930   33.6660   44.1140 C   0  0  0  0  0  0  0  0  0  0  0  0
   46.1030   33.4570   45.4630 C   0  0  0  0  0  0  0  0  0  0  0  0
   45.2690   34.2580   46.1250 N   0  0  0  0  0  0  0  0  0  0  0  0
   44.5990   35.2750   45.5240 C   0  0  0  0  0  0  0  0  0  0  0  0
   44.7670   35.4940   44.2250 N   0  0  0  0  0  0  0  0  0  0  0  0
   46.9650   33.0240   43.5740 H   0  0  0  0  0  0  0  0  0  0  0  0
   43.9320   35.9160   46.0620 H   0  0  0  0  0  0  0  0  0  0  0  0
   47.0260   32.6460   47.5730 C   0  0  0  0  0  0  0  0  0  0  0  0
   46.7760   32.3990   46.2160 C   0  0  0  0  0  0  0  0  0  0  0  0
   47.1720   31.1990   45.6990 C   0  0  0  0  0  0  0  0  0  0  0  0
   47.8010   30.2340   46.4480 C   0  0  0  0  0  0  0  0  0  0  0  0
   48.2720   29.0040   46.1520 N   0  0  0  0  0  0  0  0  0  0  0  0
   48.8140   28.4800   47.3210 C   0  0  0  0  0  0  0  0  0  0  0  0
   48.6630   29.3930   48.2890 N   0  0  0  0  0  0  0  0  0  0  0  0
   48.0500   30.4660   47.7760 C   0  0  0  0  0  0  0  0  0  0  0  0
   47.6580   31.6780   48.3330 C   0  0  0  0  0  0  0  0  0  0  0  0
   46.7220   33.5950   48.0060 H   0  0  0  0  0  0  0  0  0  0  0  0
   46.9680   31.0220   44.6330 H   0  0  0  0  0  0  0  0  0  0  0  0
   48.2380   28.5250   45.2200 H   0  0  0  0  0  0  0  0  0  0  0  0
   49.2630   27.5000   47.3790 H   0  0  0  0  0  0  0  0  0  0  0  0
   47.8380   31.8900   49.3800 H   0  0  0  0  0  0  0  0  0  0  0  0
   45.7830   34.9380   42.1340 O   0  0  0  0  0  0  0  0  0  0  0  0
   44.7700   34.6320   41.2280 C   0  0  0  0  0  0  0  0  0  0  0  0
   45.4660   33.7880   40.4170 C   0  0  0  0  0  0  0  0  0  0  0  0
   44.0940   33.3420   39.1540 S   0  0  0  0  0  0  0  0  0  0  0  0
   42.8760   34.4560   40.0800 C   0  0  0  0  0  0  0  0  0  0  0  0
   43.5040   34.8350   40.8940 N   0  0  0  0  0  0  0  0  0  0  0  0
   46.4090   33.2130   40.0910 H   0  0  0  0  0  0  0  0  0  0  0  0
   41.6200   34.3950   39.4090 N   0  0  0  0  0  0  0  0  0  0  0  0
   40.7080   33.4290   38.8560 C   0  0  0  0  0  2  0  0  0  0  0  0
   39.4810   33.7100   39.7430 C   0  0  0  0  0  2  0  0  0  0  0  0
   39.5510   35.2370   39.8680 C   0  0  0  0  0  2  0  0  0  0  0  0
   40.8330   35.6070   39.1130 C   0  0  0  0  0  3  0  0  0  0  0  0
   41.3030   36.4740   39.5730 H   0  0  0  0  0  0  0  0  0  0  0  0
  1  2  2  0  0  0  0
  1  6  1  0  0  0  0
  2  3  1  0  0  0  0
  3  4  2  0  0  0  0
  3 10  1  0  0  0  0
  5  8  1  0  0  0  0
  5  4  1  0  0  0  0
  6  5  2  0  0  0  0
  7  2  1  0  0  0  0
  9 18  1  0  0  0  0
  9 17  1  0  0  0  0
 10  9  2  0  0  0  0
 11 10  1  0  0  0  0
 11 12  2  0  0  0  0
 12 16  1  0  0  0  0
 13 12  1  0  0  0  0
 13 14  1  0  0  0  0
 14 21  1  0  0  0  0
 14 15  2  0  0  0  0
 16 15  1  0  0  0  0
 16 17  2  0  0  0  0
 17 22  1  0  0  0  0
 19 11  1  0  0  0  0
 20 13  1  0  0  0  0
 23  1  1  0  0  0  0
 24 23  1  0  0  0  0
 25 24  2  0  0  0  0
 26 27  1  0  0  0  0
 26 25  1  0  0  0  0
 27 28  2  0  0  0  0
 28 24  1  0  0  0  0
 29 25  1  0  0  0  0
 30 27  1  0  0  0  0
 31 30  1  0  0  0  0
 31 32  1  0  0  0  0
 32 33  1  0  0  0  0
 34 30  1  0  0  0  0
 34 35  1  0  0  0  0
 34 33  1  0  0  0  0
M  END
>  <minimizedAffinity>
-6.61844873

>  <minimizedRMSD>
0.592925131

$$$$
