
 OpenBabel03252507373D

 35 39  0  0  0  0  0  0  0  0999 V2000
   45.5060   34.6560   43.4580 C   0  0  0  0  0  0  0  0  0  0  0  0
   46.2070   33.6120   44.0930 C   0  0  0  0  0  0  0  0  0  0  0  0
   46.0540   33.4520   45.4540 C   0  0  0  0  0  0  0  0  0  0  0  0
   45.2520   34.2870   46.1130 N   0  0  0  0  0  0  0  0  0  0  0  0
   44.5780   35.2930   45.4970 C   0  0  0  0  0  0  0  0  0  0  0  0
   44.7100   35.4650   44.1870 N   0  0  0  0  0  0  0  0  0  0  0  0
   46.8530   32.9410   43.5560 H   0  0  0  0  0  0  0  0  0  0  0  0
   43.9380   35.9620   46.0330 H   0  0  0  0  0  0  0  0  0  0  0  0
   47.0280   32.6980   47.5630 C   0  0  0  0  0  0  0  0  0  0  0  0
   46.7350   32.4100   46.2230 C   0  0  0  0  0  0  0  0  0  0  0  0
   47.1010   31.1890   45.7360 C   0  0  0  0  0  0  0  0  0  0  0  0
   47.7400   30.2400   46.4980 C   0  0  0  0  0  0  0  0  0  0  0  0
   48.1860   28.9950   46.2310 N   0  0  0  0  0  0  0  0  0  0  0  0
   48.7540   28.5030   47.4010 C   0  0  0  0  0  0  0  0  0  0  0  0
   48.6430   29.4490   48.3410 N   0  0  0  0  0  0  0  0  0  0  0  0
   48.0290   30.5130   47.8100 C   0  0  0  0  0  0  0  0  0  0  0  0
   47.6690   31.7480   48.3370 C   0  0  0  0  0  0  0  0  0  0  0  0
   46.7490   33.6660   47.9730 H   0  0  0  0  0  0  0  0  0  0  0  0
   46.8650   30.9780   44.6820 H   0  0  0  0  0  0  0  0  0  0  0  0
   48.1190   28.4850   45.3170 H   0  0  0  0  0  0  0  0  0  0  0  0
   49.1930   27.5190   47.4790 H   0  0  0  0  0  0  0  0  0  0  0  0
   47.8820   31.9920   49.3710 H   0  0  0  0  0  0  0  0  0  0  0  0
   45.6540   34.8220   42.0870 O   0  0  0  0  0  0  0  0  0  0  0  0
   44.5450   34.7600   41.2470 C   0  0  0  0  0  0  0  0  0  0  0  0
   44.6920   33.4800   40.8050 C   0  0  0  0  0  0  0  0  0  0  0  0
   43.1710   33.3580   39.6440 S   0  0  0  0  0  0  0  0  0  0  0  0
   42.7020   35.1420   40.0670 C   0  0  0  0  0  0  0  0  0  0  0  0
   43.4990   35.4170   40.7650 N   0  0  0  0  0  0  0  0  0  0  0  0
   45.2230   32.4600   40.7540 H   0  0  0  0  0  0  0  0  0  0  0  0
   41.5120   35.4700   39.3520 N   0  0  0  0  0  0  0  0  0  0  0  0
   41.0720   35.7660   38.0150 C   0  0  0  0  0  2  0  0  0  0  0  0
   40.0890   34.5970   37.8140 C   0  0  0  0  0  2  0  0  0  0  0  0
   39.4520   34.5050   39.2040 C   0  0  0  0  0  2  0  0  0  0  0  0
   40.2010   35.5640   40.0220 C   0  0  0  0  0  3  0  0  0  0  0  0
   40.2910   35.2440   41.0580 H   0  0  0  0  0  0  0  0  0  0  0  0
  1  2  2  0  0  0  0
  1  6  1  0  0  0  0
  2  3  1  0  0  0  0
  3  4  2  0  0  0  0
  3 10  1  0  0  0  0
  5  8  1  0  0  0  0
  5  4  1  0  0  0  0
  6  5  2  0  0  0  0
  7  2  1  0  0  0  0
  9 18  1  0  0  0  0
  9 17  1  0  0  0  0
 10  9  2  0  0  0  0
 11 10  1  0  0  0  0
 11 12  2  0  0  0  0
 12 16  1  0  0  0  0
 13 12  1  0  0  0  0
 13 14  1  0  0  0  0
 14 21  1  0  0  0  0
 14 15  2  0  0  0  0
 16 17  2  0  0  0  0
 16 15  1  0  0  0  0
 17 22  1  0  0  0  0
 19 11  1  0  0  0  0
 20 13  1  0  0  0  0
 23  1  1  0  0  0  0
 24 23  1  0  0  0  0
 25 24  2  0  0  0  0
 26 27  1  0  0  0  0
 26 25  1  0  0  0  0
 27 28  2  0  0  0  0
 28 24  1  0  0  0  0
 29 25  1  0  0  0  0
 30 34  1  0  0  0  0
 30 27  1  0  0  0  0
 31 30  1  0  0  0  0
 32 31  1  0  0  0  0
 32 33  1  0  0  0  0
 33 34  1  0  0  0  0
 34 35  1  0  0  0  0
M  END
>  <minimizedAffinity>
-6.98347664

>  <minimizedRMSD>
0.289622873

$$$$
