
 OpenBabel03252507313D

 46 49  0  0  1  0  0  0  0  0999 V2000
   47.5880   31.8200   46.3230 C   0  0  2  0  0  0  0  0  0  0  0  0
   47.3340   30.3660   45.8190 C   0  0  0  0  0  0  0  0  0  0  0  0
   48.1480   29.4170   46.6300 C   0  0  0  0  0  0  0  0  0  0  0  0
   48.1360   29.6400   48.1060 C   0  0  0  0  0  0  0  0  0  0  0  0
   48.1430   31.0300   48.4970 C   0  0  0  0  0  0  0  0  0  0  0  0
   47.1500   31.9040   47.7000 C   0  0  2  0  0  0  0  0  0  0  0  0
   48.6890   31.9130   46.2220 H   0  0  0  0  0  0  0  0  0  0  0  0
   47.6950   30.3870   44.7700 H   0  0  0  0  0  0  0  0  0  0  0  0
   46.2640   30.1380   45.7730 H   0  0  0  0  0  0  0  0  0  0  0  0
   49.1410   29.3680   46.1440 H   0  0  0  0  0  0  0  0  0  0  0  0
   47.7120   28.3920   46.4550 H   0  0  0  0  0  0  0  0  0  0  0  0
   47.7590   28.8440   48.7460 H   0  0  0  0  0  0  0  0  0  0  0  0
   49.2480   29.3790   48.3330 H   0  0  0  0  0  0  0  0  0  0  0  0
   47.8540   31.1300   49.5790 H   0  0  0  0  0  0  0  0  0  0  0  0
   49.1020   31.5980   48.4290 H   0  0  0  0  0  0  0  0  0  0  0  0
   47.2730   32.8670   48.1980 H   0  0  0  0  0  0  0  0  0  0  0  0
   46.9460   32.7980   45.4670 C   0  0  0  0  0  0  0  0  0  0  0  0
   45.8410   33.4670   45.9760 C   0  0  0  0  0  0  0  0  0  0  0  0
   45.1660   34.4120   45.1690 C   0  0  0  0  0  0  0  0  0  0  0  0
   45.6740   34.6130   43.8890 N   0  0  0  0  0  0  0  0  0  0  0  0
   46.7460   33.9360   43.4620 C   0  0  0  0  0  0  0  0  0  0  0  0
   47.3680   33.0470   44.2340 N   0  0  0  0  0  0  0  0  0  0  0  0
   45.3150   33.4990   46.9070 H   0  0  0  0  0  0  0  0  0  0  0  0
   44.3200   35.0070   45.3790 H   0  0  0  0  0  0  0  0  0  0  0  0
   47.2430   34.2090   42.1090 C   0  0  0  0  0  0  0  0  0  0  0  0
   48.2150   35.1590   41.8890 C   0  0  0  0  0  0  0  0  0  0  0  0
   48.7400   35.4800   40.6610 C   0  0  0  0  0  0  0  0  0  0  0  0
   48.2040   34.7510   39.6100 C   0  0  0  0  0  0  0  0  0  0  0  0
   47.2340   33.7990   39.8050 C   0  0  0  0  0  0  0  0  0  0  0  0
   46.7530   33.5270   41.0610 N   0  0  0  0  0  0  0  0  0  0  0  0
   48.5750   35.6780   42.7650 H   0  0  0  0  0  0  0  0  0  0  0  0
   49.5040   36.2400   40.5630 H   0  0  0  0  0  0  0  0  0  0  0  0
   48.5800   34.9600   38.6130 H   0  0  0  0  0  0  0  0  0  0  0  0
   46.6920   33.0580   38.7190 N   0  0  0  0  0  0  0  0  0  0  0  0
   46.8030   33.3580   37.3030 C   0  0  0  0  0  0  0  0  0  0  0  0
   45.3300   33.2320   36.8890 C   0  0  0  0  0  0  0  0  0  0  0  0
   44.8030   32.1590   37.8010 C   0  0  0  0  0  0  0  0  0  0  0  0
   45.9090   31.8390   38.7840 C   0  0  0  0  0  0  0  0  0  0  0  0
   46.4880   30.9850   38.3290 H   0  0  0  0  0  0  0  0  0  0  0  0
   45.8100   31.3290   47.8350 N   0  0  0  0  0  0  0  0  0  0  0  0
   45.1510   30.7450   48.9310 C   0  0  0  0  0  0  0  0  0  0  0  0
   44.6460   31.4320   49.8900 O   0  0  0  0  0  0  0  0  0  0  0  0
   45.0790   29.3190   48.8910 N   0  0  0  0  0  0  0  0  0  0  0  0
   45.1410   31.2300   46.9830 H   0  0  0  0  0  0  0  0  0  0  0  0
   44.6660   28.6880   48.1660 H   0  0  0  0  0  0  0  0  0  0  0  0
   45.2090   28.3140   49.1980 H   0  0  0  0  0  0  0  0  0  0  0  0
  1  7  1  6  0  0  0
  1  6  1  0  0  0  0
  2  1  1  0  0  0  0
  2  3  1  0  0  0  0
  3  4  1  0  0  0  0
  4 13  1  0  0  0  0
  4  5  1  0  0  0  0
  4 12  1  0  0  0  0
  5 14  1  0  0  0  0
  6 40  1  0  0  0  0
  6 16  1  1  0  0  0
  6  5  1  0  0  0  0
  8  2  1  0  0  0  0
  9  2  1  0  0  0  0
 10  3  1  0  0  0  0
 11  3  1  0  0  0  0
 15  5  1  0  0  0  0
 17 18  1  0  0  0  0
 17  1  1  0  0  0  0
 18 23  1  0  0  0  0
 19 24  1  0  0  0  0
 19 18  2  0  0  0  0
 20 19  1  0  0  0  0
 21 20  2  0  0  0  0
 21 22  1  0  0  0  0
 22 17  2  0  0  0  0
 25 21  1  0  0  0  0
 26 25  1  0  0  0  0
 26 31  1  0  0  0  0
 27 26  2  0  0  0  0
 28 29  2  0  0  0  0
 28 27  1  0  0  0  0
 29 30  1  0  0  0  0
 30 25  2  0  0  0  0
 32 27  1  0  0  0  0
 33 28  1  0  0  0  0
 34 38  1  0  0  0  0
 34 29  1  0  0  0  0
 35 34  1  0  0  0  0
 36 35  1  0  0  0  0
 36 37  1  0  0  0  0
 37 38  1  0  0  0  0
 39 38  1  0  0  0  0
 40 41  1  0  0  0  0
 41 42  2  0  0  0  0
 43 41  1  0  0  0  0
 43 46  1  0  0  0  0
 44 40  1  0  0  0  0
 45 43  1  0  0  0  0
M  END
>  <minimizedAffinity>
-6.71828365

>  <minimizedRMSD>
0.145568535

$$$$
