REMARK  Name = 
REMARK  3 active torsions:
REMARK  status: ('A' for Active; 'I' for Inactive)
REMARK    1  A    between atoms: C_3  and  C_9
REMARK    2  A    between atoms: C_8  and  C_15
REMARK    3  A    between atoms: C_13  and  N_23
REMARK                            x       y       z     vdW  Elec       q    Type
REMARK                         _______ _______ _______ _____ _____    ______ ____
ROOT
ATOM      1  C   UNL     1      47.966  34.633  40.097  0.00  0.00    +0.000 A 
ATOM      2  C   UNL     1      46.819  33.987  40.482  0.00  0.00    +0.000 A 
ATOM      3  C   UNL     1      46.163  33.256  39.535  0.00  0.00    +0.000 A 
ATOM      4  C   UNL     1      46.601  33.143  38.224  0.00  0.00    +0.000 A 
ATOM      5  C   UNL     1      47.765  33.810  37.872  0.00  0.00    +0.000 A 
ATOM      6  C   UNL     1      48.440  34.551  38.810  0.00  0.00    +0.000 A 
ATOM      7  H   UNL     1      45.255  32.749  39.853  0.00  0.00    +0.000 HD
ATOM      8  H   UNL     1      46.012  32.543  37.554  0.00  0.00    +0.000 HD
ATOM      9  H   UNL     1      48.103  33.717  36.841  0.00  0.00    +0.000 HD
ENDROOT
BRANCH   2  12
ATOM     10  C   UNL     1      44.903  35.040  43.556  0.00  0.00    +0.000 A 
ATOM     11  C   UNL     1      45.293  34.915  42.219  0.00  0.00    +0.000 A 
ATOM     12  C   UNL     1      46.396  34.132  41.864  0.00  0.00    +0.000 A 
ATOM     13  N   UNL     1      47.039  33.520  42.898  0.00  0.00    +0.000 NA
ATOM     14  C   UNL     1      46.650  33.653  44.172  0.00  0.00    +0.000 A 
ATOM     15  N   UNL     1      45.591  34.406  44.497  0.00  0.00    +0.000 NA
ATOM     16  N   UNL     1      43.778  35.845  43.860  0.00  0.00    +0.000 N 
ATOM     17  H   UNL     1      44.728  35.433  41.454  0.00  0.00    +0.000 HD
ATOM     18  H   UNL     1      47.250  33.113  44.890  0.00  0.00    +0.000 HD
ATOM     19  H   UNL     1      43.157  35.601  44.672  0.00  0.00    +0.000 HD
ATOM     20  H   UNL     1      43.474  36.706  43.341  0.00  0.00    +0.000 HD
ENDBRANCH   2  12
BRANCH   6  21
ATOM     21  N   UNL     1      49.621  35.199  38.357  0.00  0.00    +0.000 N 
ATOM     22  C   UNL     1      50.685  34.676  37.542  0.00  0.00    +0.000 C 
ATOM     23  C   UNL     1      51.445  35.941  37.127  0.00  0.00    +0.000 C 
ATOM     24  C   UNL     1      51.362  36.721  38.435  0.00  0.00    +0.000 C 
ATOM     25  C   UNL     1      49.872  36.577  38.716  0.00  0.00    +0.000 C 
ATOM     26  H   UNL     1      49.379  37.256  37.961  0.00  0.00    +0.000 HD
ENDBRANCH   6  21
BRANCH   1  28
ATOM     27  N   UNL     1      49.316  36.086  41.811  0.00  0.00    +0.000 NA
ATOM     28  C   UNL     1      48.716  35.425  41.038  0.00  0.00    +0.000 C 
ENDBRANCH   1  28
TORSDOF 3
