
 OpenBabel03252507133D

 39 41  0  0  1  0  0  0  0  0999 V2000
   46.6690   34.5300   42.2980 C   0  0  2  0  0  0  0  0  0  0  0  0
   46.4560   35.8560   42.9070 C   0  0  0  0  0  0  0  0  0  0  0  0
   44.9750   36.1780   42.9090 C   0  0  0  0  0  0  0  0  0  0  0  0
   44.2770   35.3900   43.7980 O   0  0  0  0  0  0  0  0  0  0  0  0
   44.8900   34.1520   43.9610 C   0  0  0  0  0  0  0  0  0  0  0  0
   45.4300   33.6820   42.6120 C   0  0  1  0  0  0  0  0  0  0  0  0
   46.5730   34.6330   41.1740 H   0  0  0  0  0  0  0  0  0  0  0  0
   46.9310   36.6490   42.2890 H   0  0  0  0  0  0  0  0  0  0  0  0
   46.8170   35.9680   43.9360 H   0  0  0  0  0  0  0  0  0  0  0  0
   44.9240   37.2210   43.3430 H   0  0  0  0  0  0  0  0  0  0  0  0
   44.5480   36.2820   41.9100 H   0  0  0  0  0  0  0  0  0  0  0  0
   45.7610   34.2530   44.6340 H   0  0  0  0  0  0  0  0  0  0  0  0
   44.1390   33.4070   44.3280 H   0  0  0  0  0  0  0  0  0  0  0  0
   45.6720   32.6030   42.6830 H   0  0  0  0  0  0  0  0  0  0  0  0
   44.3410   33.9200   41.7170 N   0  0  1  0  0  0  0  0  0  0  0  0
   44.6020   33.9350   40.3330 C   0  0  0  0  0  0  0  0  0  0  0  0
   43.1860   33.8830   39.7410 C   0  0  0  0  0  0  0  0  0  0  0  0
   42.6340   32.7160   40.5640 C   0  0  0  0  0  0  0  0  0  0  0  0
   43.4150   32.8210   41.8630 C   0  0  0  0  0  0  0  0  0  0  0  0
   43.9700   31.8560   42.0210 H   0  0  0  0  0  0  0  0  0  0  0  0
   47.8120   33.8920   42.5570 O   0  0  0  0  0  0  0  0  0  0  0  0
   50.3130   34.6670   42.4200 O   0  0  0  0  0  0  0  0  0  0  0  0
   49.1450   34.2000   41.6370 P   0  0  2  0  0  0  0  0  0  0  0  0
   48.7620   35.4400   40.5400 O   0  0  0  0  0  0  0  0  0  0  0  0
   48.6340   36.3050   40.9790 H   0  0  0  0  0  0  0  0  0  0  0  0
   49.5630   32.8130   40.7010 O   0  0  0  0  0  0  0  0  0  0  0  0
   49.9440   31.0680   42.2430 C   0  0  0  0  0  0  0  0  0  0  0  0
   50.4020   31.8340   41.1960 C   0  0  0  0  0  0  0  0  0  0  0  0
   51.6990   31.5850   40.6810 C   0  0  0  0  0  0  0  0  0  0  0  0
   52.4130   30.5960   41.2610 N   0  0  0  0  0  0  0  0  0  0  0  0
   51.9390   29.8780   42.2690 C   0  0  0  0  0  0  0  0  0  0  0  0
   50.6950   30.1250   42.7540 N   0  0  0  0  0  0  0  0  0  0  0  0
   47.5510   30.4170   42.4780 C   0  0  0  0  0  0  0  0  0  0  0  0
   47.4220   30.1080   41.2330 O   0  0  0  0  0  0  0  0  0  0  0  0
   48.7990   30.9230   43.0690 N   0  0  0  0  0  0  0  0  0  0  0  0
   52.0070   32.2160   39.8620 H   0  0  0  0  0  0  0  0  0  0  0  0
   52.5020   29.0990   42.7240 H   0  0  0  0  0  0  0  0  0  0  0  0
   46.6310   30.2600   43.0420 H   0  0  0  0  0  0  0  0  0  0  0  0
   48.7150   31.1390   44.0810 H   0  0  0  0  0  0  0  0  0  0  0  0
  1  7  1  6  0  0  0
  1 21  1  0  0  0  0
  1  6  1  0  0  0  0
  1  2  1  0  0  0  0
  2  3  1  0  0  0  0
  2  9  1  0  0  0  0
  3 10  1  0  0  0  0
  3  4  1  0  0  0  0
  4  5  1  0  0  0  0
  5 13  1  0  0  0  0
  5 12  1  0  0  0  0
  6 14  1  1  0  0  0
  6  5  1  0  0  0  0
  8  2  1  0  0  0  0
 11  3  1  0  0  0  0
 15 16  1  6  0  0  0
 15 19  1  0  0  0  0
 15  6  1  0  0  0  0
 17 16  1  0  0  0  0
 17 18  1  0  0  0  0
 18 19  1  0  0  0  0
 19 20  1  0  0  0  0
 23 22  2  1  0  0  0
 23 21  1  0  0  0  0
 24 25  1  0  0  0  0
 24 23  1  0  0  0  0
 26 28  1  0  0  0  0
 26 23  1  0  0  0  0
 27 32  1  0  0  0  0
 27 35  1  0  0  0  0
 28 27  2  0  0  0  0
 29 28  1  0  0  0  0
 29 30  2  0  0  0  0
 30 31  1  0  0  0  0
 31 37  1  0  0  0  0
 31 32  2  0  0  0  0
 33 38  1  0  0  0  0
 33 35  1  0  0  0  0
 34 33  2  0  0  0  0
 35 39  1  0  0  0  0
 36 29  1  0  0  0  0
M  END
>  <minimizedAffinity>
-4.14618444

>  <minimizedRMSD>
1.73540056

$$$$
