
     RDKit          3D

 42 46  0  0  0  0  0  0  0  0999 V2000
   45.4987   34.8268   43.5336 C   0  0  0  0  0  0  0  0  0  0  0  0
   46.1901   33.7523   44.1270 C   0  0  0  0  0  0  0  0  0  0  0  0
   46.0121   33.5210   45.4742 C   0  0  0  0  0  0  0  0  0  0  0  0
   45.1954   34.3193   46.1602 N   0  0  0  0  0  0  0  0  0  0  0  0
   44.5300   35.3536   45.5853 C   0  0  0  0  0  0  0  0  0  0  0  0
   44.6871   35.5953   44.2883 N   0  0  0  0  0  0  0  0  0  0  0  0
   47.0158   32.6886   47.5391 C   0  0  0  0  0  0  0  0  0  0  0  0
   46.6809   32.4410   46.2010 C   0  0  0  0  0  0  0  0  0  0  0  0
   46.9983   31.2224   45.6762 C   0  0  0  0  0  0  0  0  0  0  0  0
   47.6271   30.2366   46.3991 C   0  0  0  0  0  0  0  0  0  0  0  0
   48.0287   28.9859   46.0908 N   0  0  0  0  0  0  0  0  0  0  0  0
   48.6120   28.4496   47.2339 C   0  0  0  0  0  0  0  0  0  0  0  0
   48.5530   29.3761   48.1994 N   0  0  0  0  0  0  0  0  0  0  0  0
   47.9579   30.4696   47.7087 C   0  0  0  0  0  0  0  0  0  0  0  0
   47.6482   31.7016   48.2741 C   0  0  0  0  0  0  0  0  0  0  0  0
   45.6732   35.0645   42.1761 O   0  0  0  0  0  0  0  0  0  0  0  0
   44.6054   34.9194   41.2938 C   0  0  0  0  0  0  0  0  0  0  0  0
   45.0579   33.8394   40.5991 C   0  0  0  0  0  0  0  0  0  0  0  0
   43.6028   33.6062   39.3716 S   0  0  0  0  0  0  0  0  0  0  0  0
   42.7141   35.0896   40.1405 C   0  0  0  0  0  0  0  0  0  0  0  0
   43.4264   35.3921   40.9160 N   0  0  0  0  0  0  0  0  0  0  0  0
   46.8495   33.1118   43.5681 H   0  0  0  0  0  0  0  0  0  0  0  0
   43.8771   35.9927   46.1417 H   0  0  0  0  0  0  0  0  0  0  0  0
   46.7762   33.6538   47.9781 H   0  0  0  0  0  0  0  0  0  0  0  0
   46.7293   31.0437   44.6241 H   0  0  0  0  0  0  0  0  0  0  0  0
   47.9241   28.5011   45.1676 H   0  0  0  0  0  0  0  0  0  0  0  0
   49.0230   27.4521   47.2778 H   0  0  0  0  0  0  0  0  0  0  0  0
   47.8940   31.9150   49.3067 H   0  0  0  0  0  0  0  0  0  0  0  0
   45.8219   33.0124   40.3576 H   0  0  0  0  0  0  0  0  0  0  0  0
   41.4736   35.2668   39.4593 N   0  0  0  0  0  0  0  0  0  0  0  0
   40.5765   34.5496   38.5935 C   0  0  0  0  0  0  0  0  0  0  0  0
   39.3275   34.5266   39.4955 C   0  0  0  0  0  0  0  0  0  0  0  0
   39.3950   35.9216   40.1266 C   0  0  0  0  0  0  0  0  0  0  0  0
   40.6949   36.5141   39.5699 C   0  0  1  0  0  0  0  0  0  0  0  0
   41.1531   37.1726   40.3054 H   0  0  0  0  0  0  0  0  0  0  0  0
   40.3258   35.2215   37.7409 H   0  0  0  0  0  0  0  0  0  0  0  0
   40.8897   33.5585   38.2825 H   0  0  0  0  0  0  0  0  0  0  0  0
   39.5530   33.7681   40.2774 H   0  0  0  0  0  0  0  0  0  0  0  0
   38.4097   34.3513   38.9389 H   0  0  0  0  0  0  0  0  0  0  0  0
   38.5246   36.5302   39.8826 H   0  0  0  0  0  0  0  0  0  0  0  0
   39.4979   35.8207   41.2162 H   0  0  0  0  0  0  0  0  0  0  0  0
   40.5694   36.9796   38.5839 H   0  0  0  0  0  0  0  0  0  0  0  0
  1  2  2  0
  1  6  1  0
  2  3  1  0
  3  4  2  0
  3  8  1  0
  5  4  1  0
  6  5  2  0
  7 15  2  0
  8  7  1  0
  9  8  2  0
  9 10  1  0
 10 14  2  0
 11 10  1  0
 11 12  1  0
 12 13  2  0
 14 13  1  0
 14 15  1  0
 16  1  1  0
 17 16  1  0
 18 17  2  0
 19 20  1  0
 19 18  1  0
 20 21  2  0
 21 17  1  0
  2 22  1  0
  5 23  1  0
  7 24  1  0
  9 25  1  0
 11 26  1  0
 12 27  1  0
 15 28  1  0
 18 29  1  0
 30 31  1  0
 31 32  1  0
 32 33  1  0
 33 34  1  0
 34 35  1  1
 34 30  1  0
 31 36  1  0
 31 37  1  0
 32 38  1  0
 32 39  1  0
 33 40  1  0
 33 41  1  0
 34 42  1  0
 20 30  1  0
M  ISO  8  22  14  23  14  24  14  25  14  26   9  27  14  28  14  29  14
M  ISO  1  35  13
M  END
>  <DihAtoms>  (1) 
18,19,29,30

>  <DihDeg>  (1) 
-103.01658668780543

$$$$
