
 OpenBabel03252507373D

 35 39  0  0  0  0  0  0  0  0999 V2000
   45.8370   34.5930   43.9190 C   0  0  0  0  0  0  0  0  0  0  0  0
   46.5810   33.5640   44.5300 C   0  0  0  0  0  0  0  0  0  0  0  0
   46.3100   33.2490   45.8440 C   0  0  0  0  0  0  0  0  0  0  0  0
   45.3570   33.9260   46.4830 N   0  0  0  0  0  0  0  0  0  0  0  0
   44.6410   34.9170   45.8910 C   0  0  0  0  0  0  0  0  0  0  0  0
   44.8860   35.2370   44.6250 N   0  0  0  0  0  0  0  0  0  0  0  0
   47.3500   33.0220   44.0090 H   0  0  0  0  0  0  0  0  0  0  0  0
   43.8780   35.4580   46.4100 H   0  0  0  0  0  0  0  0  0  0  0  0
   47.3580   32.4910   47.9150 C   0  0  0  0  0  0  0  0  0  0  0  0
   47.0210   32.2060   46.5850 C   0  0  0  0  0  0  0  0  0  0  0  0
   47.3740   30.9890   46.0800 C   0  0  0  0  0  0  0  0  0  0  0  0
   48.0420   30.0400   46.8160 C   0  0  0  0  0  0  0  0  0  0  0  0
   48.4840   28.7970   46.5290 N   0  0  0  0  0  0  0  0  0  0  0  0
   49.0940   28.3030   47.6760 C   0  0  0  0  0  0  0  0  0  0  0  0
   49.0120   29.2450   48.6240 N   0  0  0  0  0  0  0  0  0  0  0  0
   48.3760   30.3090   48.1190 C   0  0  0  0  0  0  0  0  0  0  0  0
   48.0290   31.5400   48.6630 C   0  0  0  0  0  0  0  0  0  0  0  0
   47.0900   33.4560   48.3380 H   0  0  0  0  0  0  0  0  0  0  0  0
   47.1030   30.7820   45.0340 H   0  0  0  0  0  0  0  0  0  0  0  0
   48.3870   28.2910   45.6160 H   0  0  0  0  0  0  0  0  0  0  0  0
   49.5390   27.3210   47.7360 H   0  0  0  0  0  0  0  0  0  0  0  0
   48.2770   31.7810   49.6890 H   0  0  0  0  0  0  0  0  0  0  0  0
   46.1040   34.9150   42.5940 O   0  0  0  0  0  0  0  0  0  0  0  0
   45.1890   34.5950   41.5940 C   0  0  0  0  0  0  0  0  0  0  0  0
   45.9720   33.7560   40.8590 C   0  0  0  0  0  0  0  0  0  0  0  0
   44.7360   33.2910   39.4690 S   0  0  0  0  0  0  0  0  0  0  0  0
   43.4200   34.3940   40.2660 C   0  0  0  0  0  0  0  0  0  0  0  0
   43.9600   34.7820   41.1360 N   0  0  0  0  0  0  0  0  0  0  0  0
   46.9480   33.1910   40.6300 H   0  0  0  0  0  0  0  0  0  0  0  0
   42.2360   34.3160   39.4740 N   0  0  0  0  0  0  0  0  0  0  0  0
   40.9170   33.7430   39.5140 C   0  0  0  0  0  2  0  0  0  0  0  0
   40.0830   35.0380   39.4560 C   0  0  0  0  0  2  0  0  0  0  0  0
   40.9090   35.8760   38.4750 C   0  0  0  0  0  2  0  0  0  0  0  0
   42.1240   34.9920   38.1690 C   0  0  0  0  0  3  0  0  0  0  0  0
   43.0040   35.6100   37.9960 H   0  0  0  0  0  0  0  0  0  0  0  0
  1  2  2  0  0  0  0
  1  6  1  0  0  0  0
  2  3  1  0  0  0  0
  3  4  2  0  0  0  0
  3 10  1  0  0  0  0
  5  8  1  0  0  0  0
  5  4  1  0  0  0  0
  6  5  2  0  0  0  0
  7  2  1  0  0  0  0
  9 18  1  0  0  0  0
  9 17  1  0  0  0  0
 10  9  2  0  0  0  0
 11 10  1  0  0  0  0
 11 12  2  0  0  0  0
 12 16  1  0  0  0  0
 13 12  1  0  0  0  0
 13 14  1  0  0  0  0
 14 21  1  0  0  0  0
 14 15  2  0  0  0  0
 16 15  1  0  0  0  0
 16 17  2  0  0  0  0
 17 22  1  0  0  0  0
 19 11  1  0  0  0  0
 20 13  1  0  0  0  0
 23  1  1  0  0  0  0
 24 23  1  0  0  0  0
 25 24  2  0  0  0  0
 26 27  1  0  0  0  0
 26 25  1  0  0  0  0
 27 28  2  0  0  0  0
 28 24  1  0  0  0  0
 29 25  1  0  0  0  0
 30 31  1  0  0  0  0
 30 27  1  0  0  0  0
 32 31  1  0  0  0  0
 33 32  1  0  0  0  0
 34 33  1  0  0  0  0
 34 30  1  0  0  0  0
 35 34  1  0  0  0  0
M  END
>  <minimizedAffinity>
-6.44993877

>  <minimizedRMSD>
0.863240182

$$$$
