
 OpenBabel03252505523D

 30 32  0  0  0  0  0  0  0  0999 V2000
   45.2320   31.4560   47.8900 C   0  0  0  0  0  0  0  0  0  0  0  0
   44.8610   31.2350   48.9260 H   0  0  0  0  0  0  0  0  0  0  0  0
   44.5090   31.1000   47.1510 H   0  0  0  0  0  0  0  0  0  0  0  0
   46.4920   30.7080   47.7500 C   0  0  0  0  0  0  0  0  0  0  0  0
   46.8350   29.7210   46.8470 C   0  0  0  0  0  0  0  0  0  0  0  0
   48.0800   29.1720   46.9190 C   0  0  0  0  0  0  0  0  0  0  0  0
   48.9690   29.5690   47.8440 N   0  0  0  0  0  0  0  0  0  0  0  0
   48.6320   30.5260   48.7180 C   0  0  0  0  0  0  0  0  0  0  0  0
   47.4020   31.1010   48.6820 N   0  0  0  0  0  0  0  0  0  0  0  0
   46.0380   29.4940   46.1620 H   0  0  0  0  0  0  0  0  0  0  0  0
   48.2740   28.4050   46.1780 H   0  0  0  0  0  0  0  0  0  0  0  0
   49.5910   30.9340   49.6920 N   0  0  0  0  0  0  0  0  0  0  0  0
   49.9270   30.1360   50.8540 C   0  0  0  0  0  0  0  0  0  0  0  0
   51.1900   30.7250   51.4250 C   0  0  0  0  0  0  0  0  0  0  0  0
   51.7060   31.5670   50.2770 C   0  0  0  0  0  0  0  0  0  0  0  0
   50.3880   32.1430   49.7410 C   0  0  0  0  0  0  0  0  0  0  0  0
   50.6020   32.5640   48.7480 H   0  0  0  0  0  0  0  0  0  0  0  0
   45.5290   32.8190   47.8160 O   0  0  0  0  0  0  0  0  0  0  0  0
   44.6150   35.2570   45.3900 C   0  0  0  0  0  0  0  0  0  0  0  0
   45.3750   34.9150   44.2730 C   0  0  0  0  0  0  0  0  0  0  0  0
   46.2260   33.7990   44.3840 C   0  0  0  0  0  0  0  0  0  0  0  0
   46.2650   33.1300   45.5390 N   0  0  0  0  0  0  0  0  0  0  0  0
   45.5040   33.5010   46.6050 C   0  0  0  0  0  0  0  0  0  0  0  0
   44.6900   34.5490   46.5320 N   0  0  0  0  0  0  0  0  0  0  0  0
   43.9640   36.1150   45.2960 H   0  0  0  0  0  0  0  0  0  0  0  0
   46.8100   33.5450   43.5110 H   0  0  0  0  0  0  0  0  0  0  0  0
   45.2440   35.7450   43.0330 C   0  0  0  0  0  0  0  0  0  0  0  0
   45.2180   37.0430   43.4880 F   0  0  0  0  0  0  0  0  0  0  0  0
   43.9940   35.4170   42.4840 F   0  0  0  0  0  0  0  0  0  0  0  0
   46.2740   35.4640   42.1940 F   0  0  0  0  0  0  0  0  0  0  0  0
  1  2  1  0  0  0  0
  3  1  1  0  0  0  0
  4  1  1  0  0  0  0
  4  9  1  0  0  0  0
  5  6  1  0  0  0  0
  5  4  2  0  0  0  0
  6  7  2  0  0  0  0
  7  8  1  0  0  0  0
  8 12  1  0  0  0  0
  9  8  2  0  0  0  0
 10  5  1  0  0  0  0
 11  6  1  0  0  0  0
 12 16  1  0  0  0  0
 12 13  1  0  0  0  0
 13 14  1  0  0  0  0
 15 14  1  0  0  0  0
 16 15  1  0  0  0  0
 17 16  1  0  0  0  0
 18  1  1  0  0  0  0
 19 24  1  0  0  0  0
 20 21  1  0  0  0  0
 20 19  2  0  0  0  0
 21 22  2  0  0  0  0
 22 23  1  0  0  0  0
 23 18  1  0  0  0  0
 24 23  2  0  0  0  0
 25 19  1  0  0  0  0
 26 21  1  0  0  0  0
 27 28  1  0  0  0  0
 27 20  1  0  0  0  0
 29 27  1  0  0  0  0
 30 27  1  0  0  0  0
M  END
>  <minimizedAffinity>
-5.7531271

>  <minimizedRMSD>
0.799226463

$$$$
