
 OpenBabel03252503543D

 33 35  0  0  1  0  0  0  0  0999 V2000
   38.2500   28.9790   41.7590 N   0  0  0  0  0  0  0  0  0  0  0  0
   38.4550   28.9690   43.2030 C   0  0  0  0  0  0  0  0  0  0  0  0
   38.1240   27.5580   43.6680 C   0  0  0  0  0  0  0  0  0  0  0  0
   36.6620   27.3150   43.5330 C   0  0  0  0  0  0  0  0  0  0  0  0
   36.1720   27.8380   42.2000 C   0  0  0  0  0  0  0  0  0  0  0  0
   37.3030   28.0460   41.2430 C   0  0  1  0  0  0  0  0  0  0  0  0
   39.4910   29.2550   43.4680 H   0  0  0  0  0  0  0  0  0  0  0  0
   37.7400   29.6740   43.6510 H   0  0  0  0  0  0  0  0  0  0  0  0
   38.7010   26.8350   43.0470 H   0  0  0  0  0  0  0  0  0  0  0  0
   38.4530   27.4610   44.7130 H   0  0  0  0  0  0  0  0  0  0  0  0
   36.0900   27.7120   44.3910 H   0  0  0  0  0  0  0  0  0  0  0  0
   36.5010   26.2050   43.5260 H   0  0  0  0  0  0  0  0  0  0  0  0
   35.7960   28.8710   42.4680 H   0  0  0  0  0  0  0  0  0  0  0  0
   35.3860   27.1860   41.7970 H   0  0  0  0  0  0  0  0  0  0  0  0
   37.7870   27.0720   41.0570 H   0  0  0  0  0  0  0  0  0  0  0  0
   39.3560   32.0350   40.0010 C   0  0  0  0  0  0  0  0  0  0  0  0
   38.6100   31.2030   40.8520 C   0  0  0  0  0  0  0  0  0  0  0  0
   38.9270   29.8580   40.9190 C   0  0  0  0  0  0  0  0  0  0  0  0
   39.9500   29.4030   40.1520 N   0  0  0  0  0  0  0  0  0  0  0  0
   40.6650   30.2180   39.3320 C   0  0  0  0  0  0  0  0  0  0  0  0
   40.3620   31.5340   39.2620 N   0  0  0  0  0  0  0  0  0  0  0  0
   37.8060   31.6630   41.4010 H   0  0  0  0  0  0  0  0  0  0  0  0
   41.4780   29.8090   38.7320 H   0  0  0  0  0  0  0  0  0  0  0  0
   38.9870   33.4920   39.9860 C   0  0  0  0  0  0  0  0  0  0  0  0
   38.8780   33.9980   41.2770 F   0  0  0  0  0  0  0  0  0  0  0  0
   39.9600   34.1590   39.2670 F   0  0  0  0  0  0  0  0  0  0  0  0
   37.7770   33.6600   39.3260 F   0  0  0  0  0  0  0  0  0  0  0  0
   36.7000   28.4580   39.9920 N   0  0  2  0  0  0  0  0  0  0  0  0
   35.3760   28.9680   40.0770 C   0  0  0  0  0  2  0  0  0  0  0  0
   34.9920   28.9840   38.5820 C   0  0  0  0  0  2  0  0  0  0  0  0
   35.4030   27.5390   38.2620 C   0  0  0  0  0  2  0  0  0  0  0  0
   36.7560   27.4880   38.9480 C   0  0  0  0  0  3  0  0  0  0  0  0
   37.4830   27.8810   38.1920 H   0  0  0  0  0  0  0  0  0  0  0  0
  1  2  1  0  0  0  0
  2  7  1  0  0  0  0
  2  8  1  0  0  0  0
  2  3  1  0  0  0  0
  3 10  1  0  0  0  0
  4  3  1  0  0  0  0
  4 11  1  0  0  0  0
  5 13  1  0  0  0  0
  5  4  1  0  0  0  0
  6 15  1  6  0  0  0
  6  1  1  0  0  0  0
  6  5  1  0  0  0  0
  9  3  1  0  0  0  0
 12  4  1  0  0  0  0
 14  5  1  0  0  0  0
 16 17  1  0  0  0  0
 17 18  2  0  0  0  0
 17 22  1  0  0  0  0
 18  1  1  0  0  0  0
 19 18  1  0  0  0  0
 20 19  2  0  0  0  0
 21 20  1  0  0  0  0
 21 16  2  0  0  0  0
 23 20  1  0  0  0  0
 24 16  1  0  0  0  0
 24 25  1  0  0  0  0
 26 24  1  0  0  0  0
 27 24  1  0  0  0  0
 28 29  1  1  0  0  0
 28  6  1  0  0  0  0
 30 29  1  0  0  0  0
 31 30  1  0  0  0  0
 31 32  1  0  0  0  0
 32 28  1  0  0  0  0
 33 32  1  0  0  0  0
M  END
>  <minimizedAffinity>
-5.13882875

$$$$

 OpenBabel03252503543D

 33 35  0  0  1  0  0  0  0  0999 V2000
   37.9970   30.9140   40.2120 N   0  0  0  0  0  0  0  0  0  0  0  0
   36.8450   31.7950   40.0550 C   0  0  0  0  0  0  0  0  0  0  0  0
   37.3590   33.0450   39.3550 C   0  0  0  0  0  0  0  0  0  0  0  0
   38.2450   33.8080   40.2760 C   0  0  0  0  0  0  0  0  0  0  0  0
   39.1870   32.8620   40.9890 C   0  0  0  0  0  0  0  0  0  0  0  0
   39.2730   31.5420   40.2880 C   0  0  1  0  0  0  0  0  0  0  0  0
   36.0350   31.3070   39.4790 H   0  0  0  0  0  0  0  0  0  0  0  0
   36.4860   32.0650   41.0580 H   0  0  0  0  0  0  0  0  0  0  0  0
   37.9160   32.7360   38.4410 H   0  0  0  0  0  0  0  0  0  0  0  0
   36.4880   33.6420   39.0470 H   0  0  0  0  0  0  0  0  0  0  0  0
   37.6730   34.4530   40.9670 H   0  0  0  0  0  0  0  0  0  0  0  0
   38.8790   34.4900   39.6510 H   0  0  0  0  0  0  0  0  0  0  0  0
   38.6430   32.6630   41.9610 H   0  0  0  0  0  0  0  0  0  0  0  0
   40.1680   33.3340   41.1330 H   0  0  0  0  0  0  0  0  0  0  0  0
   39.6800   31.7110   39.2750 H   0  0  0  0  0  0  0  0  0  0  0  0
   37.4180   27.4960   41.4910 C   0  0  0  0  0  0  0  0  0  0  0  0
   37.5600   28.8930   41.4870 C   0  0  0  0  0  0  0  0  0  0  0  0
   37.8660   29.5310   40.2990 C   0  0  0  0  0  0  0  0  0  0  0  0
   38.0190   28.7700   39.1850 N   0  0  0  0  0  0  0  0  0  0  0  0
   37.8790   27.4180   39.2020 C   0  0  0  0  0  0  0  0  0  0  0  0
   37.5780   26.7880   40.3600 N   0  0  0  0  0  0  0  0  0  0  0  0
   37.4390   29.3980   42.4300 H   0  0  0  0  0  0  0  0  0  0  0  0
   38.0110   26.8460   38.2830 H   0  0  0  0  0  0  0  0  0  0  0  0
   37.0590   26.8570   42.8040 C   0  0  0  0  0  0  0  0  0  0  0  0
   35.9470   27.4670   43.3730 F   0  0  0  0  0  0  0  0  0  0  0  0
   36.8280   25.5170   42.5630 F   0  0  0  0  0  0  0  0  0  0  0  0
   38.1330   26.9550   43.6790 F   0  0  0  0  0  0  0  0  0  0  0  0
   40.2630   30.7690   41.0090 N   0  0  2  0  0  0  0  0  0  0  0  0
   40.4540   31.1200   42.3740 C   0  0  0  0  0  2  0  0  0  0  0  0
   41.7460   30.3330   42.6810 C   0  0  0  0  0  2  0  0  0  0  0  0
   42.5630   30.8300   41.4800 C   0  0  0  0  0  2  0  0  0  0  0  0
   41.5360   30.6750   40.3730 C   0  0  0  0  0  3  0  0  0  0  0  0
   41.6380   29.6150   40.0260 H   0  0  0  0  0  0  0  0  0  0  0  0
  1  6  1  0  0  0  0
  1 18  1  0  0  0  0
  2  1  1  0  0  0  0
  2  8  1  0  0  0  0
  3  2  1  0  0  0  0
  3  4  1  0  0  0  0
  4 11  1  0  0  0  0
  4  5  1  0  0  0  0
  5 14  1  0  0  0  0
  5 13  1  0  0  0  0
  6 15  1  6  0  0  0
  6  5  1  0  0  0  0
  6 28  1  0  0  0  0
  7  2  1  0  0  0  0
  9  3  1  0  0  0  0
 10  3  1  0  0  0  0
 12  4  1  0  0  0  0
 16 24  1  0  0  0  0
 17 16  1  0  0  0  0
 17 22  1  0  0  0  0
 18 17  2  0  0  0  0
 19 20  2  0  0  0  0
 19 18  1  0  0  0  0
 20 21  1  0  0  0  0
 21 16  2  0  0  0  0
 23 20  1  0  0  0  0
 24 25  1  0  0  0  0
 24 27  1  0  0  0  0
 26 24  1  0  0  0  0
 28 29  1  1  0  0  0
 29 30  1  0  0  0  0
 31 30  1  0  0  0  0
 32 28  1  0  0  0  0
 32 31  1  0  0  0  0
 33 32  1  0  0  0  0
M  END
>  <minimizedAffinity>
-5.07564163

$$$$

 OpenBabel03252503543D

 33 35  0  0  1  0  0  0  0  0999 V2000
   38.0810   29.7220   41.5260 N   0  0  0  0  0  0  0  0  0  0  0  0
   38.5200   29.6220   42.9140 C   0  0  0  0  0  0  0  0  0  0  0  0
   38.7310   28.1400   43.1850 C   0  0  0  0  0  0  0  0  0  0  0  0
   37.4190   27.4390   43.1960 C   0  0  0  0  0  0  0  0  0  0  0  0
   36.5710   27.9130   42.0340 C   0  0  0  0  0  0  0  0  0  0  0  0
   37.4010   28.5910   40.9900 C   0  0  1  0  0  0  0  0  0  0  0  0
   39.4440   30.2070   43.0900 H   0  0  0  0  0  0  0  0  0  0  0  0
   37.7080   29.9950   43.5540 H   0  0  0  0  0  0  0  0  0  0  0  0
   39.3920   27.7240   42.3910 H   0  0  0  0  0  0  0  0  0  0  0  0
   39.2470   28.0430   44.1530 H   0  0  0  0  0  0  0  0  0  0  0  0
   36.9050   27.5260   44.1700 H   0  0  0  0  0  0  0  0  0  0  0  0
   37.6140   26.3470   43.0320 H   0  0  0  0  0  0  0  0  0  0  0  0
   35.9410   28.7250   42.5080 H   0  0  0  0  0  0  0  0  0  0  0  0
   35.9730   27.0840   41.6330 H   0  0  0  0  0  0  0  0  0  0  0  0
   38.1260   27.8600   40.5920 H   0  0  0  0  0  0  0  0  0  0  0  0
   39.5400   32.1770   39.1810 C   0  0  0  0  0  0  0  0  0  0  0  0
   39.4040   31.0070   39.9450 C   0  0  0  0  0  0  0  0  0  0  0  0
   38.2960   30.8650   40.7610 C   0  0  0  0  0  0  0  0  0  0  0  0
   37.3870   31.8720   40.7860 N   0  0  0  0  0  0  0  0  0  0  0  0
   37.5290   33.0010   40.0410 C   0  0  0  0  0  0  0  0  0  0  0  0
   38.6090   33.1460   39.2400 N   0  0  0  0  0  0  0  0  0  0  0  0
   40.1940   30.2800   39.8670 H   0  0  0  0  0  0  0  0  0  0  0  0
   36.7740   33.7850   40.0920 H   0  0  0  0  0  0  0  0  0  0  0  0
   40.7490   32.2680   38.2930 C   0  0  0  0  0  0  0  0  0  0  0  0
   41.6560   31.2530   38.5710 F   0  0  0  0  0  0  0  0  0  0  0  0
   40.3090   32.2020   36.9850 F   0  0  0  0  0  0  0  0  0  0  0  0
   41.3690   33.4980   38.4740 F   0  0  0  0  0  0  0  0  0  0  0  0
   36.4970   28.9120   39.9050 N   0  0  2  0  0  0  0  0  0  0  0  0
   35.1170   28.9760   40.2420 C   0  0  0  0  0  2  0  0  0  0  0  0
   34.4920   29.0150   38.8320 C   0  0  0  0  0  2  0  0  0  0  0  0
   35.2440   27.8070   38.2540 C   0  0  0  0  0  2  0  0  0  0  0  0
   36.6510   28.1120   38.7350 C   0  0  0  0  0  3  0  0  0  0  0  0
   37.0890   28.7820   37.9510 H   0  0  0  0  0  0  0  0  0  0  0  0
  1  2  1  0  0  0  0
  2  7  1  0  0  0  0
  2  3  1  0  0  0  0
  2  8  1  0  0  0  0
  3  4  1  0  0  0  0
  3 10  1  0  0  0  0
  4 11  1  0  0  0  0
  5 13  1  0  0  0  0
  5  4  1  0  0  0  0
  6 15  1  6  0  0  0
  6  1  1  0  0  0  0
  6  5  1  0  0  0  0
  9  3  1  0  0  0  0
 12  4  1  0  0  0  0
 14  5  1  0  0  0  0
 16 21  2  0  0  0  0
 16 17  1  0  0  0  0
 17 18  2  0  0  0  0
 18 19  1  0  0  0  0
 18  1  1  0  0  0  0
 20 23  1  0  0  0  0
 20 19  2  0  0  0  0
 21 20  1  0  0  0  0
 22 17  1  0  0  0  0
 24 27  1  0  0  0  0
 24 25  1  0  0  0  0
 24 16  1  0  0  0  0
 26 24  1  0  0  0  0
 28 29  1  1  0  0  0
 28  6  1  0  0  0  0
 30 29  1  0  0  0  0
 31 32  1  0  0  0  0
 31 30  1  0  0  0  0
 32 28  1  0  0  0  0
 33 32  1  0  0  0  0
M  END
>  <minimizedAffinity>
-5.06992722

$$$$

 OpenBabel03252503543D

 33 35  0  0  1  0  0  0  0  0999 V2000
   37.6260   30.3040   41.0190 N   0  0  0  0  0  0  0  0  0  0  0  0
   36.5110   31.1840   40.6920 C   0  0  0  0  0  0  0  0  0  0  0  0
   36.9630   32.0170   39.5010 C   0  0  0  0  0  0  0  0  0  0  0  0
   38.0270   32.9650   39.9250 C   0  0  0  0  0  0  0  0  0  0  0  0
   39.0280   32.2550   40.8130 C   0  0  0  0  0  0  0  0  0  0  0  0
   38.9280   30.7690   40.6710 C   0  0  1  0  0  0  0  0  0  0  0  0
   35.5920   30.6090   40.4650 H   0  0  0  0  0  0  0  0  0  0  0  0
   36.3400   31.8480   41.5520 H   0  0  0  0  0  0  0  0  0  0  0  0
   37.3420   31.3290   38.7100 H   0  0  0  0  0  0  0  0  0  0  0  0
   36.0830   32.5490   39.1070 H   0  0  0  0  0  0  0  0  0  0  0  0
   37.6140   33.8810   40.3840 H   0  0  0  0  0  0  0  0  0  0  0  0
   38.5810   33.2890   39.0060 H   0  0  0  0  0  0  0  0  0  0  0  0
   38.6450   32.4960   41.8510 H   0  0  0  0  0  0  0  0  0  0  0  0
   40.0410   32.6350   40.6290 H   0  0  0  0  0  0  0  0  0  0  0  0
   39.1660   30.5010   39.6280 H   0  0  0  0  0  0  0  0  0  0  0  0
   37.1420   26.6950   41.6480 C   0  0  0  0  0  0  0  0  0  0  0  0
   37.2960   27.8990   40.9410 C   0  0  0  0  0  0  0  0  0  0  0  0
   37.4430   29.0770   41.6500 C   0  0  0  0  0  0  0  0  0  0  0  0
   37.4290   29.0140   43.0060 N   0  0  0  0  0  0  0  0  0  0  0  0
   37.2790   27.8430   43.6800 C   0  0  0  0  0  0  0  0  0  0  0  0
   37.1360   26.6870   42.9930 N   0  0  0  0  0  0  0  0  0  0  0  0
   37.2710   27.8390   39.8670 H   0  0  0  0  0  0  0  0  0  0  0  0
   37.2730   27.8390   44.7690 H   0  0  0  0  0  0  0  0  0  0  0  0
   37.0120   25.4420   40.8290 C   0  0  0  0  0  0  0  0  0  0  0  0
   38.2420   25.0450   40.3170 F   0  0  0  0  0  0  0  0  0  0  0  0
   36.4710   24.4670   41.6450 F   0  0  0  0  0  0  0  0  0  0  0  0
   36.1290   25.6600   39.7800 F   0  0  0  0  0  0  0  0  0  0  0  0
   39.9850   30.2160   41.4940 N   0  0  2  0  0  0  0  0  0  0  0  0
   40.5320   31.0890   42.4740 C   0  0  0  0  0  2  0  0  0  0  0  0
   41.7790   30.2820   42.8940 C   0  0  0  0  0  2  0  0  0  0  0  0
   42.3250   30.0250   41.4820 C   0  0  0  0  0  2  0  0  0  0  0  0
   41.0510   29.6030   40.7740 C   0  0  0  0  0  3  0  0  0  0  0  0
   40.9640   28.5020   40.9600 H   0  0  0  0  0  0  0  0  0  0  0  0
  1 18  1  0  0  0  0
  2  1  1  0  0  0  0
  2  8  1  0  0  0  0
  3  4  1  0  0  0  0
  3  2  1  0  0  0  0
  4 11  1  0  0  0  0
  4  5  1  0  0  0  0
  5 13  1  0  0  0  0
  6 15  1  6  0  0  0
  6  5  1  0  0  0  0
  6  1  1  0  0  0  0
  6 28  1  0  0  0  0
  7  2  1  0  0  0  0
  9  3  1  0  0  0  0
 10  3  1  0  0  0  0
 12  4  1  0  0  0  0
 14  5  1  0  0  0  0
 16 21  1  0  0  0  0
 17 16  2  0  0  0  0
 17 18  1  0  0  0  0
 18 19  2  0  0  0  0
 19 20  1  0  0  0  0
 20 23  1  0  0  0  0
 21 20  2  0  0  0  0
 22 17  1  0  0  0  0
 24 26  1  0  0  0  0
 24 16  1  0  0  0  0
 25 24  1  0  0  0  0
 27 24  1  0  0  0  0
 28 29  1  6  0  0  0
 29 30  1  0  0  0  0
 31 30  1  0  0  0  0
 32 33  1  0  0  0  0
 32 31  1  0  0  0  0
 32 28  1  0  0  0  0
M  END
>  <minimizedAffinity>
-5.00795174

$$$$

 OpenBabel03252503543D

 33 35  0  0  1  0  0  0  0  0999 V2000
   38.3570   27.8790   41.8050 N   0  0  0  0  0  0  0  0  0  0  0  0
   38.9670   28.5520   42.9460 C   0  0  0  0  0  0  0  0  0  0  0  0
   40.3050   27.8650   43.1760 C   0  0  0  0  0  0  0  0  0  0  0  0
   40.0820   26.4830   43.6790 C   0  0  0  0  0  0  0  0  0  0  0  0
   38.9820   25.8140   42.8810 C   0  0  0  0  0  0  0  0  0  0  0  0
   38.7360   26.5230   41.5860 C   0  0  1  0  0  0  0  0  0  0  0  0
   39.0890   29.6360   42.7610 H   0  0  0  0  0  0  0  0  0  0  0  0
   38.3210   28.3870   43.8210 H   0  0  0  0  0  0  0  0  0  0  0  0
   40.8650   27.8470   42.2120 H   0  0  0  0  0  0  0  0  0  0  0  0
   40.8760   28.4690   43.8980 H   0  0  0  0  0  0  0  0  0  0  0  0
   39.9020   26.4580   44.7690 H   0  0  0  0  0  0  0  0  0  0  0  0
   41.0200   25.8970   43.4940 H   0  0  0  0  0  0  0  0  0  0  0  0
   38.0670   26.0060   43.5200 H   0  0  0  0  0  0  0  0  0  0  0  0
   39.1990   24.7460   42.7490 H   0  0  0  0  0  0  0  0  0  0  0  0
   39.6580   26.4750   40.9810 H   0  0  0  0  0  0  0  0  0  0  0  0
   36.8400   29.7940   39.0310 C   0  0  0  0  0  0  0  0  0  0  0  0
   37.8260   29.2000   39.8360 C   0  0  0  0  0  0  0  0  0  0  0  0
   37.4390   28.5150   40.9730 C   0  0  0  0  0  0  0  0  0  0  0  0
   36.1140   28.4500   41.2610 N   0  0  0  0  0  0  0  0  0  0  0  0
   35.1680   29.0290   40.4740 C   0  0  0  0  0  0  0  0  0  0  0  0
   35.5400   29.6990   39.3600 N   0  0  0  0  0  0  0  0  0  0  0  0
   38.8500   29.3300   39.5280 H   0  0  0  0  0  0  0  0  0  0  0  0
   34.1150   28.9520   40.7430 H   0  0  0  0  0  0  0  0  0  0  0  0
   37.3150   30.5040   37.7940 C   0  0  0  0  0  0  0  0  0  0  0  0
   37.1510   31.8790   37.9080 F   0  0  0  0  0  0  0  0  0  0  0  0
   38.6420   30.1710   37.6080 F   0  0  0  0  0  0  0  0  0  0  0  0
   36.6010   30.0470   36.6930 F   0  0  0  0  0  0  0  0  0  0  0  0
   37.7370   25.7430   40.8850 N   0  0  2  0  0  0  0  0  0  0  0  0
   37.0090   24.8100   41.6740 C   0  0  0  0  0  2  0  0  0  0  0  0
   36.3160   23.9940   40.5630 C   0  0  0  0  0  2  0  0  0  0  0  0
   37.5700   23.7080   39.7240 C   0  0  0  0  0  2  0  0  0  0  0  0
   38.2010   25.0880   39.7060 C   0  0  0  0  0  3  0  0  0  0  0  0
   37.7230   25.6180   38.8430 H   0  0  0  0  0  0  0  0  0  0  0  0
  1  2  1  0  0  0  0
  2  3  1  0  0  0  0
  2  8  1  0  0  0  0
  3  4  1  0  0  0  0
  3 10  1  0  0  0  0
  4 11  1  0  0  0  0
  5 13  1  0  0  0  0
  5  4  1  0  0  0  0
  6 15  1  6  0  0  0
  6  1  1  0  0  0  0
  6  5  1  0  0  0  0
  7  2  1  0  0  0  0
  9  3  1  0  0  0  0
 12  4  1  0  0  0  0
 14  5  1  0  0  0  0
 16 21  2  0  0  0  0
 16 17  1  0  0  0  0
 17 18  2  0  0  0  0
 18 19  1  0  0  0  0
 18  1  1  0  0  0  0
 20 23  1  0  0  0  0
 20 19  2  0  0  0  0
 21 20  1  0  0  0  0
 22 17  1  0  0  0  0
 24 25  1  0  0  0  0
 24 16  1  0  0  0  0
 26 24  1  0  0  0  0
 27 24  1  0  0  0  0
 28  6  1  0  0  0  0
 28 29  1  1  0  0  0
 30 29  1  0  0  0  0
 31 30  1  0  0  0  0
 32 31  1  0  0  0  0
 32 28  1  0  0  0  0
 33 32  1  0  0  0  0
M  END
>  <minimizedAffinity>
-4.98213959

$$$$

 OpenBabel03252503543D

 33 35  0  0  1  0  0  0  0  0999 V2000
   36.8330   28.0560   40.9400 N   0  0  0  0  0  0  0  0  0  0  0  0
   36.9730   26.9200   41.8450 C   0  0  0  0  0  0  0  0  0  0  0  0
   36.6640   27.4480   43.2380 C   0  0  0  0  0  0  0  0  0  0  0  0
   37.7480   28.3670   43.6800 C   0  0  0  0  0  0  0  0  0  0  0  0
   38.1240   29.3030   42.5500 C   0  0  0  0  0  0  0  0  0  0  0  0
   37.0610   29.3470   41.4980 C   0  0  1  0  0  0  0  0  0  0  0  0
   36.2980   26.0900   41.5620 H   0  0  0  0  0  0  0  0  0  0  0  0
   38.0200   26.5870   41.8090 H   0  0  0  0  0  0  0  0  0  0  0  0
   35.6860   27.9810   43.2060 H   0  0  0  0  0  0  0  0  0  0  0  0
   36.5690   26.5850   43.9130 H   0  0  0  0  0  0  0  0  0  0  0  0
   38.6130   27.8230   44.0980 H   0  0  0  0  0  0  0  0  0  0  0  0
   37.3380   29.0040   44.5060 H   0  0  0  0  0  0  0  0  0  0  0  0
   39.0060   28.7730   42.0790 H   0  0  0  0  0  0  0  0  0  0  0  0
   38.3780   30.2960   42.9430 H   0  0  0  0  0  0  0  0  0  0  0  0
   36.1340   29.7370   41.9530 H   0  0  0  0  0  0  0  0  0  0  0  0
   35.0290   28.0970   37.7150 C   0  0  0  0  0  0  0  0  0  0  0  0
   35.2750   28.2620   39.0880 C   0  0  0  0  0  0  0  0  0  0  0  0
   36.5090   27.8970   39.5960 C   0  0  0  0  0  0  0  0  0  0  0  0
   37.4300   27.3910   38.7360 N   0  0  0  0  0  0  0  0  0  0  0  0
   37.1800   27.2360   37.4090 C   0  0  0  0  0  0  0  0  0  0  0  0
   35.9770   27.5920   36.9060 N   0  0  0  0  0  0  0  0  0  0  0  0
   34.4680   28.6520   39.6840 H   0  0  0  0  0  0  0  0  0  0  0  0
   37.9490   26.8250   36.7550 H   0  0  0  0  0  0  0  0  0  0  0  0
   33.6820   28.5340   37.2120 C   0  0  0  0  0  0  0  0  0  0  0  0
   32.9640   29.1950   38.2020 F   0  0  0  0  0  0  0  0  0  0  0  0
   33.8920   29.3490   36.1170 F   0  0  0  0  0  0  0  0  0  0  0  0
   32.9610   27.4250   36.7880 F   0  0  0  0  0  0  0  0  0  0  0  0
   37.4950   30.3330   40.5290 N   0  0  2  0  0  0  0  0  0  0  0  0
   38.8730   30.6820   40.5720 C   0  0  0  0  0  2  0  0  0  0  0  0
   38.8680   31.9280   39.6600 C   0  0  0  0  0  2  0  0  0  0  0  0
   37.7100   32.6650   40.3480 C   0  0  0  0  0  2  0  0  0  0  0  0
   36.7160   31.5270   40.4940 C   0  0  0  0  0  3  0  0  0  0  0  0
   36.1520   31.5060   39.5270 H   0  0  0  0  0  0  0  0  0  0  0  0
  1  6  1  0  0  0  0
  1  2  1  0  0  0  0
  2  3  1  0  0  0  0
  3  4  1  0  0  0  0
  3 10  1  0  0  0  0
  4 11  1  0  0  0  0
  4 12  1  0  0  0  0
  5 14  1  0  0  0  0
  5  4  1  0  0  0  0
  6 15  1  1  0  0  0
  6  5  1  0  0  0  0
  7  2  1  0  0  0  0
  8  2  1  0  0  0  0
  9  3  1  0  0  0  0
 13  5  1  0  0  0  0
 16 17  1  0  0  0  0
 17 18  2  0  0  0  0
 17 22  1  0  0  0  0
 18  1  1  0  0  0  0
 19 18  1  0  0  0  0
 20 19  2  0  0  0  0
 21 20  1  0  0  0  0
 21 16  2  0  0  0  0
 23 20  1  0  0  0  0
 24 16  1  0  0  0  0
 24 25  1  0  0  0  0
 26 24  1  0  0  0  0
 27 24  1  0  0  0  0
 28 29  1  1  0  0  0
 28  6  1  0  0  0  0
 30 31  1  0  0  0  0
 30 29  1  0  0  0  0
 31 32  1  0  0  0  0
 32 28  1  0  0  0  0
 33 32  1  0  0  0  0
M  END
>  <minimizedAffinity>
-4.96181583

$$$$

 OpenBabel03252503543D

 33 35  0  0  1  0  0  0  0  0999 V2000
   37.4940   29.7740   40.2360 N   0  0  0  0  0  0  0  0  0  0  0  0
   36.2740   30.1960   39.5580 C   0  0  0  0  0  0  0  0  0  0  0  0
   36.6810   30.5490   38.1350 C   0  0  0  0  0  0  0  0  0  0  0  0
   37.5090   31.7850   38.1390 C   0  0  0  0  0  0  0  0  0  0  0  0
   38.5300   31.7180   39.2550 C   0  0  0  0  0  0  0  0  0  0  0  0
   38.7170   30.3160   39.7440 C   0  0  1  0  0  0  0  0  0  0  0  0
   35.5030   29.4030   39.5790 H   0  0  0  0  0  0  0  0  0  0  0  0
   35.9020   31.1000   40.0620 H   0  0  0  0  0  0  0  0  0  0  0  0
   37.2540   29.6940   37.7070 H   0  0  0  0  0  0  0  0  0  0  0  0
   35.7620   30.6820   37.5440 H   0  0  0  0  0  0  0  0  0  0  0  0
   36.8930   32.7010   38.1710 H   0  0  0  0  0  0  0  0  0  0  0  0
   38.0810   31.8150   37.1760 H   0  0  0  0  0  0  0  0  0  0  0  0
   38.0110   32.2740   40.0930 H   0  0  0  0  0  0  0  0  0  0  0  0
   39.4710   32.1910   38.9430 H   0  0  0  0  0  0  0  0  0  0  0  0
   39.1010   29.7040   38.9100 H   0  0  0  0  0  0  0  0  0  0  0  0
   37.5280   26.7080   42.2970 C   0  0  0  0  0  0  0  0  0  0  0  0
   37.5220   27.5270   41.1560 C   0  0  0  0  0  0  0  0  0  0  0  0
   37.4770   28.8990   41.3180 C   0  0  0  0  0  0  0  0  0  0  0  0
   37.4370   29.3940   42.5820 N   0  0  0  0  0  0  0  0  0  0  0  0
   37.4430   28.5900   43.6790 C   0  0  0  0  0  0  0  0  0  0  0  0
   37.4900   27.2470   43.5280 N   0  0  0  0  0  0  0  0  0  0  0  0
   37.5350   27.0310   40.2010 H   0  0  0  0  0  0  0  0  0  0  0  0
   37.4100   29.0300   44.6760 H   0  0  0  0  0  0  0  0  0  0  0  0
   37.6050   25.2240   42.0640 C   0  0  0  0  0  0  0  0  0  0  0  0
   36.4270   24.5930   42.4460 F   0  0  0  0  0  0  0  0  0  0  0  0
   37.8670   25.0280   40.7220 F   0  0  0  0  0  0  0  0  0  0  0  0
   38.6640   24.6930   42.7890 F   0  0  0  0  0  0  0  0  0  0  0  0
   39.7720   30.3740   40.7360 N   0  0  2  0  0  0  0  0  0  0  0  0
   40.0170   31.6520   41.3100 C   0  0  0  0  0  2  0  0  0  0  0  0
   41.3520   31.3760   42.0320 C   0  0  0  0  0  2  0  0  0  0  0  0
   42.0880   30.7450   40.8410 C   0  0  0  0  0  2  0  0  0  0  0  0
   41.0130   29.8040   40.3290 C   0  0  0  0  0  3  0  0  0  0  0  0
   41.1390   28.8640   40.9270 H   0  0  0  0  0  0  0  0  0  0  0  0
  1 18  1  0  0  0  0
  2  7  1  0  0  0  0
  2  8  1  0  0  0  0
  2  1  1  0  0  0  0
  3  4  1  0  0  0  0
  3  2  1  0  0  0  0
  4 11  1  0  0  0  0
  4  5  1  0  0  0  0
  5  6  1  0  0  0  0
  5 13  1  0  0  0  0
  6 15  1  6  0  0  0
  6  1  1  0  0  0  0
  6 28  1  0  0  0  0
  9  3  1  0  0  0  0
 10  3  1  0  0  0  0
 12  4  1  0  0  0  0
 14  5  1  0  0  0  0
 16 21  1  0  0  0  0
 17 18  1  0  0  0  0
 17 16  2  0  0  0  0
 18 19  2  0  0  0  0
 19 20  1  0  0  0  0
 20 23  1  0  0  0  0
 21 20  2  0  0  0  0
 22 17  1  0  0  0  0
 24 16  1  0  0  0  0
 24 25  1  0  0  0  0
 24 27  1  0  0  0  0
 26 24  1  0  0  0  0
 28 29  1  6  0  0  0
 29 30  1  0  0  0  0
 31 30  1  0  0  0  0
 32 28  1  0  0  0  0
 32 31  1  0  0  0  0
 32 33  1  0  0  0  0
M  END
>  <minimizedAffinity>
-4.93800926

$$$$

 OpenBabel03252503543D

 33 35  0  0  1  0  0  0  0  0999 V2000
   37.0200   30.2320   39.1410 N   0  0  0  0  0  0  0  0  0  0  0  0
   36.3820   29.9380   37.8630 C   0  0  0  0  0  0  0  0  0  0  0  0
   35.1330   29.1330   38.1870 C   0  0  0  0  0  0  0  0  0  0  0  0
   35.5190   27.7860   38.6890 C   0  0  0  0  0  0  0  0  0  0  0  0
   36.6540   27.9110   39.6830 C   0  0  0  0  0  0  0  0  0  0  0  0
   36.7780   29.3100   40.2000 C   0  0  1  0  0  0  0  0  0  0  0  0
   36.1400   30.8650   37.3070 H   0  0  0  0  0  0  0  0  0  0  0  0
   37.0730   29.3140   37.2760 H   0  0  0  0  0  0  0  0  0  0  0  0
   34.5450   29.6840   38.9560 H   0  0  0  0  0  0  0  0  0  0  0  0
   34.5280   29.0620   37.2700 H   0  0  0  0  0  0  0  0  0  0  0  0
   35.7380   27.0800   37.8680 H   0  0  0  0  0  0  0  0  0  0  0  0
   34.6420   27.3660   39.2480 H   0  0  0  0  0  0  0  0  0  0  0  0
   37.5650   27.7370   39.0350 H   0  0  0  0  0  0  0  0  0  0  0  0
   36.5460   27.1680   40.4840 H   0  0  0  0  0  0  0  0  0  0  0  0
   35.8450   29.5700   40.7310 H   0  0  0  0  0  0  0  0  0  0  0  0
   39.8020   32.6500   38.8880 C   0  0  0  0  0  0  0  0  0  0  0  0
   39.0460   31.4860   38.6720 C   0  0  0  0  0  0  0  0  0  0  0  0
   37.8350   31.3450   39.3250 C   0  0  0  0  0  0  0  0  0  0  0  0
   37.4330   32.3440   40.1520 N   0  0  0  0  0  0  0  0  0  0  0  0
   38.1740   33.4660   40.3520 C   0  0  0  0  0  0  0  0  0  0  0  0
   39.3580   33.6120   39.7160 N   0  0  0  0  0  0  0  0  0  0  0  0
   39.4680   30.7470   38.0140 H   0  0  0  0  0  0  0  0  0  0  0  0
   37.8130   34.2440   41.0250 H   0  0  0  0  0  0  0  0  0  0  0  0
   41.0970   32.7640   38.1330 C   0  0  0  0  0  0  0  0  0  0  0  0
   42.1200   32.0810   38.7810 F   0  0  0  0  0  0  0  0  0  0  0  0
   40.8840   32.2620   36.8640 F   0  0  0  0  0  0  0  0  0  0  0  0
   41.4480   34.1030   38.0090 F   0  0  0  0  0  0  0  0  0  0  0  0
   37.8280   29.2770   41.1980 N   0  0  2  0  0  0  0  0  0  0  0  0
   38.7870   28.2360   41.0590 C   0  0  0  0  0  2  0  0  0  0  0  0
   39.5040   28.3410   42.4220 C   0  0  0  0  0  2  0  0  0  0  0  0
   38.2450   28.3220   43.3020 C   0  0  0  0  0  2  0  0  0  0  0  0
   37.3760   29.3130   42.5500 C   0  0  0  0  0  3  0  0  0  0  0  0
   37.6640   30.3180   42.9520 H   0  0  0  0  0  0  0  0  0  0  0  0
  1 18  1  0  0  0  0
  1  6  1  0  0  0  0
  2  3  1  0  0  0  0
  2  1  1  0  0  0  0
  3  4  1  0  0  0  0
  3  9  1  0  0  0  0
  4 12  1  0  0  0  0
  4  5  1  0  0  0  0
  5  6  1  0  0  0  0
  5 14  1  0  0  0  0
  6 15  1  1  0  0  0
  6 28  1  0  0  0  0
  7  2  1  0  0  0  0
  8  2  1  0  0  0  0
 10  3  1  0  0  0  0
 11  4  1  0  0  0  0
 13  5  1  0  0  0  0
 16 21  1  0  0  0  0
 17 16  2  0  0  0  0
 17 18  1  0  0  0  0
 18 19  2  0  0  0  0
 19 20  1  0  0  0  0
 20 23  1  0  0  0  0
 21 20  2  0  0  0  0
 22 17  1  0  0  0  0
 24 25  1  0  0  0  0
 24 16  1  0  0  0  0
 26 24  1  0  0  0  0
 27 24  1  0  0  0  0
 28 29  1  1  0  0  0
 28 32  1  0  0  0  0
 29 30  1  0  0  0  0
 30 31  1  0  0  0  0
 32 33  1  0  0  0  0
 32 31  1  0  0  0  0
M  END
>  <minimizedAffinity>
-4.88656521

$$$$

 OpenBabel03252503543D

 33 35  0  0  1  0  0  0  0  0999 V2000
   37.8120   30.5050   40.8760 N   0  0  0  0  0  0  0  0  0  0  0  0
   38.7510   31.6210   40.8700 C   0  0  0  0  0  0  0  0  0  0  0  0
   37.9390   32.8560   40.5080 C   0  0  0  0  0  0  0  0  0  0  0  0
   37.5040   32.7730   39.0880 C   0  0  0  0  0  0  0  0  0  0  0  0
   36.9940   31.3800   38.7840 C   0  0  0  0  0  0  0  0  0  0  0  0
   36.6670   30.6310   40.0370 C   0  0  1  0  0  0  0  0  0  0  0  0
   39.2540   31.7330   41.8500 H   0  0  0  0  0  0  0  0  0  0  0  0
   39.4940   31.4330   40.0820 H   0  0  0  0  0  0  0  0  0  0  0  0
   37.0570   32.9120   41.1870 H   0  0  0  0  0  0  0  0  0  0  0  0
   38.5710   33.7390   40.6850 H   0  0  0  0  0  0  0  0  0  0  0  0
   38.2910   33.1080   38.3890 H   0  0  0  0  0  0  0  0  0  0  0  0
   36.6380   33.4730   38.9550 H   0  0  0  0  0  0  0  0  0  0  0  0
   37.9090   30.8760   38.3490 H   0  0  0  0  0  0  0  0  0  0  0  0
   36.1520   31.4250   38.0810 H   0  0  0  0  0  0  0  0  0  0  0  0
   35.8610   31.1690   40.5650 H   0  0  0  0  0  0  0  0  0  0  0  0
   39.0810   27.2620   42.1120 C   0  0  0  0  0  0  0  0  0  0  0  0
   38.9040   28.3710   41.2690 C   0  0  0  0  0  0  0  0  0  0  0  0
   38.0190   29.3650   41.6470 C   0  0  0  0  0  0  0  0  0  0  0  0
   37.3570   29.2180   42.8230 N   0  0  0  0  0  0  0  0  0  0  0  0
   37.5370   28.1390   43.6310 C   0  0  0  0  0  0  0  0  0  0  0  0
   38.4020   27.1650   43.2690 N   0  0  0  0  0  0  0  0  0  0  0  0
   39.4630   28.3770   40.3490 H   0  0  0  0  0  0  0  0  0  0  0  0
   36.9840   28.0620   44.5670 H   0  0  0  0  0  0  0  0  0  0  0  0
   40.0730   26.2250   41.6660 C   0  0  0  0  0  0  0  0  0  0  0  0
   41.3720   26.7180   41.7100 F   0  0  0  0  0  0  0  0  0  0  0  0
   39.9260   25.1270   42.4920 F   0  0  0  0  0  0  0  0  0  0  0  0
   39.7790   25.8260   40.3680 F   0  0  0  0  0  0  0  0  0  0  0  0
   36.1110   29.3620   39.6120 N   0  0  2  0  0  0  0  0  0  0  0  0
   36.5080   28.9090   38.3240 C   0  0  0  0  0  2  0  0  0  0  0  0
   35.5030   27.7550   38.1190 C   0  0  0  0  0  2  0  0  0  0  0  0
   34.2320   28.5440   38.4660 C   0  0  0  0  0  2  0  0  0  0  0  0
   34.6940   29.2570   39.7240 C   0  0  0  0  0  3  0  0  0  0  0  0
   34.4960   28.5360   40.5580 H   0  0  0  0  0  0  0  0  0  0  0  0
  1 18  1  0  0  0  0
  2  1  1  0  0  0  0
  2  7  1  0  0  0  0
  3 10  1  0  0  0  0
  3  2  1  0  0  0  0
  3  9  1  0  0  0  0
  4  3  1  0  0  0  0
  5  4  1  0  0  0  0
  5  6  1  0  0  0  0
  6 15  1  1  0  0  0
  6  1  1  0  0  0  0
  8  2  1  0  0  0  0
 11  4  1  0  0  0  0
 12  4  1  0  0  0  0
 13  5  1  0  0  0  0
 14  5  1  0  0  0  0
 16 21  1  0  0  0  0
 17 18  1  0  0  0  0
 17 16  2  0  0  0  0
 18 19  2  0  0  0  0
 19 20  1  0  0  0  0
 20 23  1  0  0  0  0
 21 20  2  0  0  0  0
 22 17  1  0  0  0  0
 24 25  1  0  0  0  0
 24 16  1  0  0  0  0
 24 26  1  0  0  0  0
 27 24  1  0  0  0  0
 28 29  1  6  0  0  0
 28 32  1  0  0  0  0
 28  6  1  0  0  0  0
 30 29  1  0  0  0  0
 30 31  1  0  0  0  0
 31 32  1  0  0  0  0
 32 33  1  0  0  0  0
M  END
>  <minimizedAffinity>
-4.83762312

$$$$
