
 OpenBabel03252508123D

 27 29  0  0  1  0  0  0  0  0999 V2000
   46.3960   30.6490   46.1010 C   0  0  0  0  0  0  0  0  0  0  0  0
   47.3020   30.7170   46.6810 H   0  0  0  0  0  0  0  0  0  0  0  0
   46.5560   29.7750   45.3960 H   0  0  0  0  0  0  0  0  0  0  0  0
   45.1370   30.2960   46.8520 C   0  0  1  0  0  0  0  0  0  0  0  0
   45.0650   28.8890   47.3450 C   0  0  0  0  0  0  0  0  0  0  0  0
   45.2040   29.9680   48.3010 C   0  0  1  0  0  0  0  0  0  0  0  0
   44.1610   30.5780   46.3550 H   0  0  0  0  0  0  0  0  0  0  0  0
   44.1210   28.3070   47.3220 H   0  0  0  0  0  0  0  0  0  0  0  0
   45.9460   28.2280   47.1400 H   0  0  0  0  0  0  0  0  0  0  0  0
   44.2720   30.2640   48.8680 H   0  0  0  0  0  0  0  0  0  0  0  0
   46.3900   30.4030   48.9760 N   0  0  2  0  0  0  0  0  0  0  0  0
   46.5520   31.8510   48.9160 C   0  0  0  0  0  0  0  0  0  0  0  0
   47.9810   32.1420   48.5930 C   0  0  0  0  0  0  0  0  0  0  0  0
   48.6630   30.8270   48.3740 C   0  0  0  0  0  0  0  0  0  0  0  0
   47.5000   29.8910   48.1430 C   0  0  0  0  0  0  0  0  0  0  0  0
   47.7850   28.8690   48.3870 H   0  0  0  0  0  0  0  0  0  0  0  0
   45.9000   32.9500   45.6910 C   0  0  0  0  0  0  0  0  0  0  0  0
   46.1550   31.7980   45.1650 C   0  0  0  0  0  0  0  0  0  0  0  0
   44.5620   36.1210   44.4010 C   0  0  0  0  0  0  0  0  0  0  0  0
   45.1770   36.2310   43.1480 C   0  0  0  0  0  0  0  0  0  0  0  0
   46.0300   35.2190   42.7790 C   0  0  0  0  0  0  0  0  0  0  0  0
   46.2140   34.2040   43.6400 N   0  0  0  0  0  0  0  0  0  0  0  0
   45.6260   34.1000   44.8350 C   0  0  0  0  0  0  0  0  0  0  0  0
   44.8100   35.0640   45.1940 N   0  0  0  0  0  0  0  0  0  0  0  0
   43.8900   36.9340   44.6700 H   0  0  0  0  0  0  0  0  0  0  0  0
   45.0500   37.0300   42.4390 H   0  0  0  0  0  0  0  0  0  0  0  0
   46.5800   35.1640   41.8380 H   0  0  0  0  0  0  0  0  0  0  0  0
  1  2  1  0  0  0  0
  1  4  1  0  0  0  0
  3  1  1  0  0  0  0
  4  7  1  6  0  0  0
  4  5  1  0  0  0  0
  4  6  1  0  0  0  0
  5  6  1  0  0  0  0
  6 10  1  1  0  0  0
  6 11  1  0  0  0  0
  8  5  1  0  0  0  0
  9  5  1  0  0  0  0
 11 12  1  6  0  0  0
 13 12  1  0  0  0  0
 14 13  1  0  0  0  0
 15 14  1  0  0  0  0
 15 16  1  0  0  0  0
 15 11  1  0  0  0  0
 18 17  2  0  0  0  0
 18  1  1  0  0  0  0
 19 25  1  0  0  0  0
 19 24  1  0  0  0  0
 20 19  2  0  0  0  0
 21 20  1  0  0  0  0
 21 22  2  0  0  0  0
 22 23  1  0  0  0  0
 23 24  2  0  0  0  0
 23 17  1  0  0  0  0
 26 20  1  0  0  0  0
 27 21  1  0  0  0  0
M  END
>  <minimizedAffinity>
-4.53460741

>  <minimizedRMSD>
1.6144731

$$$$
