
 OpenBabel03252508193D

 44 48  0  0  1  0  0  0  0  0999 V2000
   35.8140   29.5090   40.5380 C   0  0  0  0  0  0  0  0  0  0  0  0
   35.2980   30.0870   41.3510 H   0  0  0  0  0  0  0  0  0  0  0  0
   36.1210   28.5610   40.9330 H   0  0  0  0  0  0  0  0  0  0  0  0
   36.8410   30.4120   39.9530 C   0  0  1  0  0  0  0  0  0  0  0  0
   37.0080   31.7120   40.6630 C   0  0  0  0  0  0  0  0  0  0  0  0
   38.0770   30.7200   40.6960 C   0  0  1  0  0  0  0  0  0  0  0  0
   36.7150   30.6120   38.8470 H   0  0  0  0  0  0  0  0  0  0  0  0
   36.4390   31.8840   41.6110 H   0  0  0  0  0  0  0  0  0  0  0  0
   37.1650   32.6690   40.1260 H   0  0  0  0  0  0  0  0  0  0  0  0
   38.9750   30.9380   40.0800 H   0  0  0  0  0  0  0  0  0  0  0  0
   38.3680   29.9250   41.9290 C   0  0  2  0  0  0  0  0  0  0  0  0
   39.8670   29.9060   42.3230 C   0  0  0  0  0  0  0  0  0  0  0  0
   39.2630   28.6920   41.7740 C   0  0  1  0  0  0  0  0  0  0  0  0
   37.7470   30.0320   42.8360 H   0  0  0  0  0  0  0  0  0  0  0  0
   40.1640   30.0260   43.3590 H   0  0  0  0  0  0  0  0  0  0  0  0
   40.5800   30.4360   41.6270 H   0  0  0  0  0  0  0  0  0  0  0  0
   39.4700   28.4160   40.6980 H   0  0  0  0  0  0  0  0  0  0  0  0
   38.7750   27.5850   42.5300 N   0  0  1  0  0  0  0  0  0  0  0  0
   37.9130   27.9660   43.6040 C   0  0  0  0  0  2  0  0  0  0  0  0
   36.5620   27.3020   43.3110 C   0  0  0  0  0  2  0  0  0  0  0  0
   37.0530   25.9850   42.6940 C   0  0  0  0  0  2  0  0  0  0  0  0
   38.1450   26.5540   41.7790 C   0  0  0  0  0  3  0  0  0  0  0  0
   37.6430   26.8460   40.8580 H   0  0  0  0  0  0  0  0  0  0  0  0
   35.0040   28.4230   38.6090 C   0  0  0  0  0  3  0  0  0  0  0  0
   34.7140   29.2320   39.5400 C   0  0  0  0  0  3  0  0  0  0  0  0
   32.8440   26.7630   36.1280 C   0  0  0  0  0  0  0  0  0  0  0  0
   32.0610   27.8060   35.6440 C   0  0  0  0  0  0  0  0  0  0  0  0
   32.2990   29.0290   36.1790 C   0  0  0  0  0  0  0  0  0  0  0  0
   33.2550   29.1900   37.1320 N   0  0  0  0  0  0  0  0  0  0  0  0
   33.9960   28.1610   37.5800 C   0  0  0  0  0  0  0  0  0  0  0  0
   33.7660   26.9680   37.0600 N   0  0  0  0  0  0  0  0  0  0  0  0
   32.6880   25.7680   35.7280 H   0  0  0  0  0  0  0  0  0  0  0  0
   31.3070   27.6540   34.8850 H   0  0  0  0  0  0  0  0  0  0  0  0
   31.5580   30.2230   35.7710 C   0  0  0  0  0  0  0  0  0  0  0  0
   31.6000   30.7700   34.5130 C   0  0  0  0  0  0  0  0  0  0  0  0
   30.8990   31.8960   34.1340 C   0  0  0  0  0  0  0  0  0  0  0  0
   30.1000   32.5270   35.0520 C   0  0  0  0  0  0  0  0  0  0  0  0
   30.0120   32.0330   36.3260 C   0  0  0  0  0  0  0  0  0  0  0  0
   30.7390   30.8990   36.6510 C   0  0  0  0  0  0  0  0  0  0  0  0
   32.2330   30.2840   33.7580 H   0  0  0  0  0  0  0  0  0  0  0  0
   30.9500   32.3070   33.1360 H   0  0  0  0  0  0  0  0  0  0  0  0
   29.4970   33.4260   34.8660 H   0  0  0  0  0  0  0  0  0  0  0  0
   29.3890   32.5000   37.0940 H   0  0  0  0  0  0  0  0  0  0  0  0
   30.6440   30.5360   37.6740 H   0  0  0  0  0  0  0  0  0  0  0  0
  1  3  1  0  0  0  0
  1  2  1  0  0  0  0
  4  7  1  6  0  0  0
  4  1  1  0  0  0  0
  4  5  1  0  0  0  0
  4  6  1  0  0  0  0
  5  6  1  0  0  0  0
  5  8  1  0  0  0  0
  6 10  1  6  0  0  0
  6 11  1  0  0  0  0
  9  5  1  0  0  0  0
 11 12  1  0  0  0  0
 11 14  1  1  0  0  0
 12 15  1  0  0  0  0
 13 17  1  6  0  0  0
 13 11  1  0  0  0  0
 13 12  1  0  0  0  0
 13 18  1  0  0  0  0
 16 12  1  0  0  0  0
 18 19  1  1  0  0  0
 20 19  1  0  0  0  0
 21 20  1  0  0  0  0
 22 18  1  0  0  0  0
 22 21  1  0  0  0  0
 23 22  1  0  0  0  0
 24 25  2  0  0  0  0
 25  1  1  0  0  0  0
 26 31  1  0  0  0  0
 27 26  2  0  0  0  0
 27 28  1  0  0  0  0
 28 29  2  0  0  0  0
 29 30  1  0  0  0  0
 30 24  1  0  0  0  0
 31 30  2  0  0  0  0
 32 26  1  0  0  0  0
 33 27  1  0  0  0  0
 34 28  1  0  0  0  0
 34 39  1  0  0  0  0
 35 34  2  0  0  0  0
 36 35  1  0  0  0  0
 36 37  2  0  0  0  0
 37 38  1  0  0  0  0
 38 39  2  0  0  0  0
 38 43  1  0  0  0  0
 39 44  1  0  0  0  0
 40 35  1  0  0  0  0
 41 36  1  0  0  0  0
 42 37  1  0  0  0  0
M  END
>  <minimizedAffinity>
-6.12186909

$$$$

 OpenBabel03252508193D

 44 48  0  0  1  0  0  0  0  0999 V2000
   37.2100   26.8380   39.4980 C   0  0  0  0  0  0  0  0  0  0  0  0
   38.0800   26.3970   38.9420 H   0  0  0  0  0  0  0  0  0  0  0  0
   37.3920   27.8840   39.6460 H   0  0  0  0  0  0  0  0  0  0  0  0
   36.9740   25.9730   40.6840 C   0  0  1  0  0  0  0  0  0  0  0  0
   38.2050   25.3750   41.2770 C   0  0  0  0  0  0  0  0  0  0  0  0
   37.4530   26.3830   42.0170 C   0  0  1  0  0  0  0  0  0  0  0  0
   36.2110   25.1540   40.5240 H   0  0  0  0  0  0  0  0  0  0  0  0
   39.2010   25.6790   40.8660 H   0  0  0  0  0  0  0  0  0  0  0  0
   38.2410   24.3340   41.6520 H   0  0  0  0  0  0  0  0  0  0  0  0
   36.8580   26.0210   42.8820 H   0  0  0  0  0  0  0  0  0  0  0  0
   37.9650   27.7790   42.1770 C   0  0  2  0  0  0  0  0  0  0  0  0
   37.8070   28.3440   43.6120 C   0  0  0  0  0  0  0  0  0  0  0  0
   36.9460   28.8620   42.5480 C   0  0  1  0  0  0  0  0  0  0  0  0
   38.9460   28.0780   41.7660 H   0  0  0  0  0  0  0  0  0  0  0  0
   38.6130   28.9040   44.0720 H   0  0  0  0  0  0  0  0  0  0  0  0
   37.2860   27.6820   44.3620 H   0  0  0  0  0  0  0  0  0  0  0  0
   35.8740   28.5110   42.4930 H   0  0  0  0  0  0  0  0  0  0  0  0
   37.1590   30.0640   41.8100 N   0  0  1  0  0  0  0  0  0  0  0  0
   38.3990   30.0830   41.0990 C   0  0  0  0  0  2  0  0  0  0  0  0
   38.0280   30.2140   39.6170 C   0  0  0  0  0  2  0  0  0  0  0  0
   36.8040   31.1320   39.7400 C   0  0  0  0  0  2  0  0  0  0  0  0
   36.1130   30.4350   40.9200 C   0  0  0  0  0  3  0  0  0  0  0  0
   35.5190   29.6320   40.4880 H   0  0  0  0  0  0  0  0  0  0  0  0
   35.3520   27.7670   38.3840 C   0  0  0  0  0  3  0  0  0  0  0  0
   36.0640   26.7280   38.5200 C   0  0  0  0  0  3  0  0  0  0  0  0
   32.8420   26.6310   35.9370 C   0  0  0  0  0  0  0  0  0  0  0  0
   31.9710   27.7120   35.8550 C   0  0  0  0  0  0  0  0  0  0  0  0
   32.2710   28.7820   36.6330 C   0  0  0  0  0  0  0  0  0  0  0  0
   33.3690   28.7640   37.4350 N   0  0  0  0  0  0  0  0  0  0  0  0
   34.1930   27.7020   37.4920 C   0  0  0  0  0  0  0  0  0  0  0  0
   33.9020   26.6590   36.7350 N   0  0  0  0  0  0  0  0  0  0  0  0
   32.6410   25.7550   35.3330 H   0  0  0  0  0  0  0  0  0  0  0  0
   31.1040   27.7040   35.2100 H   0  0  0  0  0  0  0  0  0  0  0  0
   31.4500   29.9930   36.6550 C   0  0  0  0  0  0  0  0  0  0  0  0
   30.7440   30.4310   37.7480 C   0  0  0  0  0  0  0  0  0  0  0  0
   29.9720   31.5740   37.7620 C   0  0  0  0  0  0  0  0  0  0  0  0
   29.8860   32.3390   36.6280 C   0  0  0  0  0  0  0  0  0  0  0  0
   30.5660   31.9580   35.5020 C   0  0  0  0  0  0  0  0  0  0  0  0
   31.3260   30.8010   35.5430 C   0  0  0  0  0  0  0  0  0  0  0  0
   30.7960   29.8370   38.6690 H   0  0  0  0  0  0  0  0  0  0  0  0
   29.4260   31.8980   38.6370 H   0  0  0  0  0  0  0  0  0  0  0  0
   29.3050   33.2650   36.5220 H   0  0  0  0  0  0  0  0  0  0  0  0
   30.5290   32.5330   34.5720 H   0  0  0  0  0  0  0  0  0  0  0  0
   31.8530   30.5300   34.6290 H   0  0  0  0  0  0  0  0  0  0  0  0
  1  3  1  0  0  0  0
  1  4  1  0  0  0  0
  2  1  1  0  0  0  0
  4  7  1  6  0  0  0
  4  5  1  0  0  0  0
  4  6  1  0  0  0  0
  5  9  1  0  0  0  0
  5  6  1  0  0  0  0
  6 11  1  0  0  0  0
  6 10  1  1  0  0  0
  8  5  1  0  0  0  0
 11 14  1  6  0  0  0
 11 13  1  0  0  0  0
 11 12  1  0  0  0  0
 12 15  1  0  0  0  0
 12 16  1  0  0  0  0
 13 17  1  1  0  0  0
 13 12  1  0  0  0  0
 18 19  1  6  0  0  0
 18 13  1  0  0  0  0
 20 21  1  0  0  0  0
 20 19  1  0  0  0  0
 21 22  1  0  0  0  0
 22 18  1  0  0  0  0
 23 22  1  0  0  0  0
 24 25  2  0  0  0  0
 25  1  1  0  0  0  0
 26 31  1  0  0  0  0
 27 26  2  0  0  0  0
 27 28  1  0  0  0  0
 28 34  1  0  0  0  0
 28 29  2  0  0  0  0
 29 30  1  0  0  0  0
 30 24  1  0  0  0  0
 31 30  2  0  0  0  0
 32 26  1  0  0  0  0
 33 27  1  0  0  0  0
 34 35  1  0  0  0  0
 35 36  2  0  0  0  0
 35 40  1  0  0  0  0
 36 41  1  0  0  0  0
 37 36  1  0  0  0  0
 38 39  1  0  0  0  0
 38 37  2  0  0  0  0
 39 34  2  0  0  0  0
 42 37  1  0  0  0  0
 43 38  1  0  0  0  0
 44 39  1  0  0  0  0
M  END
>  <minimizedAffinity>
-5.88420391

$$$$

 OpenBabel03252508193D

 44 48  0  0  1  0  0  0  0  0999 V2000
   42.1330   29.9430   42.9280 C   0  0  0  0  0  0  0  0  0  0  0  0
   42.9140   30.7400   43.0550 H   0  0  0  0  0  0  0  0  0  0  0  0
   41.5830   29.8530   43.8440 H   0  0  0  0  0  0  0  0  0  0  0  0
   42.8240   28.7460   42.3810 C   0  0  1  0  0  0  0  0  0  0  0  0
   43.3120   27.7820   43.4090 C   0  0  0  0  0  0  0  0  0  0  0  0
   42.2200   27.4070   42.5160 C   0  0  1  0  0  0  0  0  0  0  0  0
   43.6680   28.9760   41.6650 H   0  0  0  0  0  0  0  0  0  0  0  0
   43.0560   27.9660   44.4820 H   0  0  0  0  0  0  0  0  0  0  0  0
   44.2890   27.2660   43.3260 H   0  0  0  0  0  0  0  0  0  0  0  0
   42.4640   26.6780   41.7140 H   0  0  0  0  0  0  0  0  0  0  0  0
   40.8080   27.3220   43.0010 C   0  0  2  0  0  0  0  0  0  0  0  0
   40.2070   25.8950   42.9340 C   0  0  0  0  0  0  0  0  0  0  0  0
   39.7410   26.9060   41.9840 C   0  0  1  0  0  0  0  0  0  0  0  0
   40.4980   27.8110   43.9420 H   0  0  0  0  0  0  0  0  0  0  0  0
   39.6150   25.5090   43.7560 H   0  0  0  0  0  0  0  0  0  0  0  0
   40.8600   25.0910   42.4860 H   0  0  0  0  0  0  0  0  0  0  0  0
   40.1190   26.8730   40.9200 H   0  0  0  0  0  0  0  0  0  0  0  0
   38.5560   27.6890   42.1110 N   0  0  1  0  0  0  0  0  0  0  0  0
   37.3540   26.9380   41.9260 C   0  0  0  0  0  2  0  0  0  0  0  0
   36.5820   27.0530   43.2460 C   0  0  0  0  0  2  0  0  0  0  0  0
   36.9420   28.4960   43.6270 C   0  0  0  0  0  2  0  0  0  0  0  0
   38.4420   28.4490   43.3090 C   0  0  0  0  0  3  0  0  0  0  0  0
   38.9250   28.0490   44.1980 H   0  0  0  0  0  0  0  0  0  0  0  0
   40.3900   31.4150   42.3350 C   0  0  0  0  0  3  0  0  0  0  0  0
   41.1860   30.5280   41.9060 C   0  0  0  0  0  3  0  0  0  0  0  0
   38.4880   33.7210   40.1790 C   0  0  0  0  0  0  0  0  0  0  0  0
   37.5030   32.9030   39.6370 C   0  0  0  0  0  0  0  0  0  0  0  0
   37.5240   31.6040   40.0250 C   0  0  0  0  0  0  0  0  0  0  0  0
   38.4690   31.1610   40.8960 N   0  0  0  0  0  0  0  0  0  0  0  0
   39.4100   31.9770   41.4040 C   0  0  0  0  0  0  0  0  0  0  0  0
   39.3910   33.2430   41.0270 N   0  0  0  0  0  0  0  0  0  0  0  0
   38.5100   34.7670   39.8970 H   0  0  0  0  0  0  0  0  0  0  0  0
   36.7610   33.2790   38.9460 H   0  0  0  0  0  0  0  0  0  0  0  0
   36.5520   30.6240   39.5400 C   0  0  0  0  0  0  0  0  0  0  0  0
   36.4170   30.2500   38.2260 C   0  0  0  0  0  0  0  0  0  0  0  0
   35.4990   29.3250   37.7760 C   0  0  0  0  0  0  0  0  0  0  0  0
   34.6560   28.7250   38.6750 C   0  0  0  0  0  0  0  0  0  0  0  0
   34.7380   29.0520   40.0020 C   0  0  0  0  0  0  0  0  0  0  0  0
   35.6780   29.9880   40.3990 C   0  0  0  0  0  0  0  0  0  0  0  0
   37.0790   30.7150   37.4860 H   0  0  0  0  0  0  0  0  0  0  0  0
   35.4130   29.0470   36.7340 H   0  0  0  0  0  0  0  0  0  0  0  0
   33.8890   27.9770   38.4330 H   0  0  0  0  0  0  0  0  0  0  0  0
   34.0880   28.6020   40.7580 H   0  0  0  0  0  0  0  0  0  0  0  0
   35.7140   30.2230   41.4620 H   0  0  0  0  0  0  0  0  0  0  0  0
  1  2  1  0  0  0  0
  1  3  1  0  0  0  0
  4  7  1  6  0  0  0
  4  6  1  0  0  0  0
  4  1  1  0  0  0  0
  4  5  1  0  0  0  0
  5  8  1  0  0  0  0
  6 10  1  6  0  0  0
  6 11  1  0  0  0  0
  6  5  1  0  0  0  0
  9  5  1  0  0  0  0
 11 14  1  1  0  0  0
 12 11  1  0  0  0  0
 12 15  1  0  0  0  0
 13 17  1  6  0  0  0
 13 18  1  0  0  0  0
 13 12  1  0  0  0  0
 13 11  1  0  0  0  0
 16 12  1  0  0  0  0
 18 19  1  1  0  0  0
 18 22  1  0  0  0  0
 19 20  1  0  0  0  0
 20 21  1  0  0  0  0
 22 21  1  0  0  0  0
 22 23  1  0  0  0  0
 25 24  2  0  0  0  0
 25  1  1  0  0  0  0
 26 31  1  0  0  0  0
 27 28  1  0  0  0  0
 27 26  2  0  0  0  0
 28 29  2  0  0  0  0
 29 30  1  0  0  0  0
 30 24  1  0  0  0  0
 31 30  2  0  0  0  0
 32 26  1  0  0  0  0
 33 27  1  0  0  0  0
 34 28  1  0  0  0  0
 34 39  1  0  0  0  0
 35 34  2  0  0  0  0
 36 35  1  0  0  0  0
 36 37  2  0  0  0  0
 37 38  1  0  0  0  0
 38 39  2  0  0  0  0
 38 43  1  0  0  0  0
 39 44  1  0  0  0  0
 40 35  1  0  0  0  0
 41 36  1  0  0  0  0
 42 37  1  0  0  0  0
M  END
>  <minimizedAffinity>
-5.8299551

$$$$

 OpenBabel03252508193D

 44 48  0  0  1  0  0  0  0  0999 V2000
   37.2010   32.5190   39.8360 C   0  0  0  0  0  0  0  0  0  0  0  0
   36.5680   33.2140   39.2220 H   0  0  0  0  0  0  0  0  0  0  0  0
   36.7820   32.4540   40.8210 H   0  0  0  0  0  0  0  0  0  0  0  0
   38.6100   32.9680   39.6800 C   0  0  1  0  0  0  0  0  0  0  0  0
   39.0760   33.9350   40.7150 C   0  0  0  0  0  0  0  0  0  0  0  0
   39.6310   32.5860   40.6730 C   0  0  1  0  0  0  0  0  0  0  0  0
   38.8620   33.3780   38.6570 H   0  0  0  0  0  0  0  0  0  0  0  0
   38.3930   34.1810   41.5670 H   0  0  0  0  0  0  0  0  0  0  0  0
   39.7230   34.8010   40.4730 H   0  0  0  0  0  0  0  0  0  0  0  0
   40.6700   32.4890   40.2920 H   0  0  0  0  0  0  0  0  0  0  0  0
   39.2640   31.5570   41.6940 C   0  0  2  0  0  0  0  0  0  0  0  0
   40.4540   31.0910   42.5700 C   0  0  0  0  0  0  0  0  0  0  0  0
   39.9140   30.1760   41.5640 C   0  0  1  0  0  0  0  0  0  0  0  0
   38.3630   31.6740   42.3230 H   0  0  0  0  0  0  0  0  0  0  0  0
   40.3320   30.9630   43.6400 H   0  0  0  0  0  0  0  0  0  0  0  0
   41.4660   31.5230   42.3210 H   0  0  0  0  0  0  0  0  0  0  0  0
   40.4790   30.0320   40.5970 H   0  0  0  0  0  0  0  0  0  0  0  0
   38.9780   29.1260   41.8040 N   0  0  1  0  0  0  0  0  0  0  0  0
   39.5900   27.8450   41.9660 C   0  0  0  0  0  2  0  0  0  0  0  0
   39.2180   27.3820   43.3800 C   0  0  0  0  0  2  0  0  0  0  0  0
   37.7970   27.9540   43.4710 C   0  0  0  0  0  2  0  0  0  0  0  0
   38.0700   29.3420   42.8780 C   0  0  0  0  0  3  0  0  0  0  0  0
   38.4150   29.9590   43.7040 H   0  0  0  0  0  0  0  0  0  0  0  0
   36.1790   30.3960   39.7670 C   0  0  0  0  0  3  0  0  0  0  0  0
   36.9930   31.1720   39.1850 C   0  0  0  0  0  3  0  0  0  0  0  0
   35.0480   27.5640   37.6980 C   0  0  0  0  0  0  0  0  0  0  0  0
   35.6990   26.4760   38.2710 C   0  0  0  0  0  0  0  0  0  0  0  0
   36.4940   26.7490   39.3360 C   0  0  0  0  0  0  0  0  0  0  0  0
   36.6240   28.0230   39.7900 N   0  0  0  0  0  0  0  0  0  0  0  0
   35.9810   29.0550   39.2140 C   0  0  0  0  0  0  0  0  0  0  0  0
   35.2060   28.7910   38.1770 N   0  0  0  0  0  0  0  0  0  0  0  0
   34.4030   27.3930   36.8450 H   0  0  0  0  0  0  0  0  0  0  0  0
   35.5800   25.4710   37.8920 H   0  0  0  0  0  0  0  0  0  0  0  0
   37.2430   25.7090   40.0430 C   0  0  0  0  0  0  0  0  0  0  0  0
   36.8510   25.1440   41.2310 C   0  0  0  0  0  0  0  0  0  0  0  0
   37.5610   24.1650   41.8930 C   0  0  0  0  0  0  0  0  0  0  0  0
   38.7360   23.7080   41.3530 C   0  0  0  0  0  0  0  0  0  0  0  0
   39.1840   24.2300   40.1690 C   0  0  0  0  0  0  0  0  0  0  0  0
   38.4310   25.2120   39.5470 C   0  0  0  0  0  0  0  0  0  0  0  0
   35.9150   25.4920   41.6850 H   0  0  0  0  0  0  0  0  0  0  0  0
   37.2310   23.7350   42.8280 H   0  0  0  0  0  0  0  0  0  0  0  0
   39.3830   22.9340   41.7880 H   0  0  0  0  0  0  0  0  0  0  0  0
   40.1140   23.8990   39.6980 H   0  0  0  0  0  0  0  0  0  0  0  0
   38.8190   25.6030   38.6080 H   0  0  0  0  0  0  0  0  0  0  0  0
  1  3  1  0  0  0  0
  2  1  1  0  0  0  0
  4  7  1  6  0  0  0
  4  1  1  0  0  0  0
  4  6  1  0  0  0  0
  4  5  1  0  0  0  0
  5  8  1  0  0  0  0
  6 10  1  6  0  0  0
  6  5  1  0  0  0  0
  6 11  1  0  0  0  0
  9  5  1  0  0  0  0
 11 14  1  1  0  0  0
 11 12  1  0  0  0  0
 12 15  1  0  0  0  0
 13 17  1  6  0  0  0
 13 11  1  0  0  0  0
 13 18  1  0  0  0  0
 13 12  1  0  0  0  0
 16 12  1  0  0  0  0
 18 19  1  1  0  0  0
 18 22  1  0  0  0  0
 19 20  1  0  0  0  0
 20 21  1  0  0  0  0
 22 21  1  0  0  0  0
 22 23  1  0  0  0  0
 25 24  2  0  0  0  0
 25  1  1  0  0  0  0
 26 31  2  0  0  0  0
 26 27  1  0  0  0  0
 27 28  2  0  0  0  0
 28 29  1  0  0  0  0
 28 34  1  0  0  0  0
 30 24  1  0  0  0  0
 30 29  2  0  0  0  0
 31 30  1  0  0  0  0
 32 26  1  0  0  0  0
 33 27  1  0  0  0  0
 34 35  1  0  0  0  0
 35 40  1  0  0  0  0
 35 36  2  0  0  0  0
 36 41  1  0  0  0  0
 37 42  1  0  0  0  0
 37 36  1  0  0  0  0
 38 37  2  0  0  0  0
 39 34  2  0  0  0  0
 39 38  1  0  0  0  0
 43 38  1  0  0  0  0
 44 39  1  0  0  0  0
M  END
>  <minimizedAffinity>
-5.65844107

$$$$

 OpenBabel03252508193D

 44 48  0  0  1  0  0  0  0  0999 V2000
   37.8190   25.2300   39.7780 C   0  0  0  0  0  0  0  0  0  0  0  0
   37.6940   24.4450   38.9840 H   0  0  0  0  0  0  0  0  0  0  0  0
   38.8650   25.3520   39.9780 H   0  0  0  0  0  0  0  0  0  0  0  0
   36.9100   24.8610   40.8950 C   0  0  1  0  0  0  0  0  0  0  0  0
   37.5490   24.0720   41.9870 C   0  0  0  0  0  0  0  0  0  0  0  0
   37.1020   25.4380   42.2380 C   0  0  1  0  0  0  0  0  0  0  0  0
   35.9600   24.3380   40.5750 H   0  0  0  0  0  0  0  0  0  0  0  0
   38.6530   23.8940   41.9460 H   0  0  0  0  0  0  0  0  0  0  0  0
   37.0390   23.2280   42.4900 H   0  0  0  0  0  0  0  0  0  0  0  0
   36.1870   25.5550   42.8550 H   0  0  0  0  0  0  0  0  0  0  0  0
   38.0750   26.5650   42.3820 C   0  0  2  0  0  0  0  0  0  0  0  0
   37.8560   27.4240   43.6540 C   0  0  0  0  0  0  0  0  0  0  0  0
   37.5100   27.9890   42.3500 C   0  0  1  0  0  0  0  0  0  0  0  0
   39.1570   26.4090   42.2210 H   0  0  0  0  0  0  0  0  0  0  0  0
   38.7010   27.7430   44.2530 H   0  0  0  0  0  0  0  0  0  0  0  0
   36.9730   27.1530   44.3020 H   0  0  0  0  0  0  0  0  0  0  0  0
   36.4230   28.0370   42.0450 H   0  0  0  0  0  0  0  0  0  0  0  0
   38.3260   28.8640   41.5740 N   0  0  1  0  0  0  0  0  0  0  0  0
   38.1970   30.2390   41.9430 C   0  0  0  0  0  2  0  0  0  0  0  0
   39.5940   30.6800   42.3980 C   0  0  0  0  0  2  0  0  0  0  0  0
   40.4510   29.8700   41.4160 C   0  0  0  0  0  2  0  0  0  0  0  0
   39.7080   28.5310   41.5150 C   0  0  0  0  0  3  0  0  0  0  0  0
   40.1310   28.0150   42.3750 H   0  0  0  0  0  0  0  0  0  0  0  0
   38.1920   27.0600   38.3400 C   0  0  0  0  0  3  0  0  0  0  0  0
   37.3520   26.4990   39.1050 C   0  0  0  0  0  3  0  0  0  0  0  0
   36.8510   29.5740   36.0030 C   0  0  0  0  0  0  0  0  0  0  0  0
   37.1670   30.7790   36.6220 C   0  0  0  0  0  0  0  0  0  0  0  0
   37.8220   30.6890   37.8060 C   0  0  0  0  0  0  0  0  0  0  0  0
   38.1360   29.4730   38.3280 N   0  0  0  0  0  0  0  0  0  0  0  0
   37.8160   28.3250   37.7060 C   0  0  0  0  0  0  0  0  0  0  0  0
   37.1780   28.4110   36.5520 N   0  0  0  0  0  0  0  0  0  0  0  0
   36.3280   29.5980   35.0550 H   0  0  0  0  0  0  0  0  0  0  0  0
   36.9070   31.7330   36.1870 H   0  0  0  0  0  0  0  0  0  0  0  0
   38.2210   31.8680   38.5750 C   0  0  0  0  0  0  0  0  0  0  0  0
   39.5220   32.2430   38.8000 C   0  0  0  0  0  0  0  0  0  0  0  0
   39.8920   33.3560   39.5250 C   0  0  0  0  0  0  0  0  0  0  0  0
   38.9200   34.1560   40.0670 C   0  0  0  0  0  0  0  0  0  0  0  0
   37.6010   33.8390   39.8800 C   0  0  0  0  0  0  0  0  0  0  0  0
   37.2860   32.7090   39.1430 C   0  0  0  0  0  0  0  0  0  0  0  0
   40.3210   31.6190   38.3780 H   0  0  0  0  0  0  0  0  0  0  0  0
   40.9250   33.6290   39.6880 H   0  0  0  0  0  0  0  0  0  0  0  0
   39.0940   35.0640   40.6600 H   0  0  0  0  0  0  0  0  0  0  0  0
   36.7880   34.4450   40.2910 H   0  0  0  0  0  0  0  0  0  0  0  0
   36.2270   32.4890   39.0150 H   0  0  0  0  0  0  0  0  0  0  0  0
  1  3  1  0  0  0  0
  1  4  1  0  0  0  0
  2  1  1  0  0  0  0
  4  7  1  6  0  0  0
  4  5  1  0  0  0  0
  4  6  1  0  0  0  0
  5  6  1  0  0  0  0
  5  9  1  0  0  0  0
  6 11  1  0  0  0  0
  6 10  1  1  0  0  0
  8  5  1  0  0  0  0
 11 14  1  6  0  0  0
 11 12  1  0  0  0  0
 12 15  1  0  0  0  0
 12 16  1  0  0  0  0
 13 17  1  6  0  0  0
 13 11  1  0  0  0  0
 13 12  1  0  0  0  0
 18 19  1  1  0  0  0
 18 13  1  0  0  0  0
 19 20  1  0  0  0  0
 21 22  1  0  0  0  0
 21 20  1  0  0  0  0
 22 18  1  0  0  0  0
 22 23  1  0  0  0  0
 24 25  2  0  0  0  0
 25  1  1  0  0  0  0
 26 31  2  0  0  0  0
 26 27  1  0  0  0  0
 27 28  2  0  0  0  0
 28 29  1  0  0  0  0
 28 34  1  0  0  0  0
 30 29  2  0  0  0  0
 30 24  1  0  0  0  0
 31 30  1  0  0  0  0
 32 26  1  0  0  0  0
 33 27  1  0  0  0  0
 34 35  2  0  0  0  0
 34 39  1  0  0  0  0
 35 36  1  0  0  0  0
 36 41  1  0  0  0  0
 36 37  2  0  0  0  0
 37 42  1  0  0  0  0
 38 37  1  0  0  0  0
 38 43  1  0  0  0  0
 39 38  2  0  0  0  0
 40 35  1  0  0  0  0
 44 39  1  0  0  0  0
M  END
>  <minimizedAffinity>
-5.48933554

$$$$

 OpenBabel03252508193D

 44 48  0  0  1  0  0  0  0  0999 V2000
   36.8620   31.1220   40.8700 C   0  0  0  0  0  0  0  0  0  0  0  0
   35.7490   31.0800   41.0170 H   0  0  0  0  0  0  0  0  0  0  0  0
   37.2890   31.7160   41.6550 H   0  0  0  0  0  0  0  0  0  0  0  0
   37.0960   31.5200   39.4570 C   0  0  1  0  0  0  0  0  0  0  0  0
   37.0320   32.9880   39.2020 C   0  0  0  0  0  0  0  0  0  0  0  0
   38.3030   32.2810   39.0840 C   0  0  1  0  0  0  0  0  0  0  0  0
   36.4400   30.9900   38.7040 H   0  0  0  0  0  0  0  0  0  0  0  0
   36.9110   33.6800   40.0730 H   0  0  0  0  0  0  0  0  0  0  0  0
   36.5580   33.4160   38.2970 H   0  0  0  0  0  0  0  0  0  0  0  0
   38.6850   32.1160   38.0540 H   0  0  0  0  0  0  0  0  0  0  0  0
   39.3800   32.4310   40.1100 C   0  0  2  0  0  0  0  0  0  0  0  0
   40.4820   33.4480   39.7180 C   0  0  0  0  0  0  0  0  0  0  0  0
   40.7990   32.0200   39.7040 C   0  0  1  0  0  0  0  0  0  0  0  0
   39.1350   32.5430   41.1820 H   0  0  0  0  0  0  0  0  0  0  0  0
   40.8650   34.1510   40.4490 H   0  0  0  0  0  0  0  0  0  0  0  0
   40.3940   33.9230   38.6990 H   0  0  0  0  0  0  0  0  0  0  0  0
   40.8470   31.4800   38.7130 H   0  0  0  0  0  0  0  0  0  0  0  0
   41.4580   31.2990   40.7430 N   0  0  1  0  0  0  0  0  0  0  0  0
   42.8000   31.7320   40.9730 C   0  0  0  0  0  2  0  0  0  0  0  0
   42.8360   32.2280   42.4240 C   0  0  0  0  0  2  0  0  0  0  0  0
   41.8690   31.2200   43.0620 C   0  0  0  0  0  2  0  0  0  0  0  0
   40.7730   31.2440   41.9890 C   0  0  0  0  0  3  0  0  0  0  0  0
   40.1270   32.0840   42.2370 H   0  0  0  0  0  0  0  0  0  0  0  0
   37.8310   29.4640   42.2370 C   0  0  0  0  0  3  0  0  0  0  0  0
   37.3100   29.6990   41.1060 C   0  0  0  0  0  3  0  0  0  0  0  0
   39.6630   26.5970   43.6530 C   0  0  0  0  0  0  0  0  0  0  0  0
   39.2050   25.5260   42.8940 C   0  0  0  0  0  0  0  0  0  0  0  0
   38.2940   25.8200   41.9330 C   0  0  0  0  0  0  0  0  0  0  0  0
   37.8760   27.1000   41.7510 N   0  0  0  0  0  0  0  0  0  0  0  0
   38.3370   28.1160   42.5010 C   0  0  0  0  0  0  0  0  0  0  0  0
   39.2250   27.8310   43.4380 N   0  0  0  0  0  0  0  0  0  0  0  0
   40.3920   26.4090   44.4320 H   0  0  0  0  0  0  0  0  0  0  0  0
   39.5530   24.5150   43.0580 H   0  0  0  0  0  0  0  0  0  0  0  0
   37.7210   24.7990   41.0550 C   0  0  0  0  0  0  0  0  0  0  0  0
   38.2230   23.5290   40.9120 C   0  0  0  0  0  0  0  0  0  0  0  0
   37.6780   22.5720   40.0830 C   0  0  0  0  0  0  0  0  0  0  0  0
   36.5650   22.8800   39.3440 C   0  0  0  0  0  0  0  0  0  0  0  0
   36.0130   24.1290   39.4410 C   0  0  0  0  0  0  0  0  0  0  0  0
   36.6020   25.0530   40.2890 C   0  0  0  0  0  0  0  0  0  0  0  0
   39.1140   23.2570   41.4920 H   0  0  0  0  0  0  0  0  0  0  0  0
   38.0920   21.5780   39.9880 H   0  0  0  0  0  0  0  0  0  0  0  0
   36.0460   22.2010   38.6540 H   0  0  0  0  0  0  0  0  0  0  0  0
   35.1260   24.4240   38.8730 H   0  0  0  0  0  0  0  0  0  0  0  0
   36.1360   26.0360   40.3390 H   0  0  0  0  0  0  0  0  0  0  0  0
  1  2  1  0  0  0  0
  1 25  1  0  0  0  0
  1  3  1  0  0  0  0
  4  7  1  6  0  0  0
  4  1  1  0  0  0  0
  5  4  1  0  0  0  0
  5  8  1  0  0  0  0
  6 10  1  6  0  0  0
  6  5  1  0  0  0  0
  6  4  1  0  0  0  0
  6 11  1  0  0  0  0
  9  5  1  0  0  0  0
 11 14  1  1  0  0  0
 12 11  1  0  0  0  0
 12 15  1  0  0  0  0
 13 17  1  6  0  0  0
 13 12  1  0  0  0  0
 13 11  1  0  0  0  0
 13 18  1  0  0  0  0
 16 12  1  0  0  0  0
 18 19  1  1  0  0  0
 18 22  1  0  0  0  0
 19 20  1  0  0  0  0
 20 21  1  0  0  0  0
 22 23  1  0  0  0  0
 22 21  1  0  0  0  0
 24 30  1  0  0  0  0
 25 24  2  0  0  0  0
 26 32  1  0  0  0  0
 27 33  1  0  0  0  0
 27 26  2  0  0  0  0
 28 27  1  0  0  0  0
 29 28  2  0  0  0  0
 29 30  1  0  0  0  0
 30 31  2  0  0  0  0
 31 26  1  0  0  0  0
 34 28  1  0  0  0  0
 35 34  1  0  0  0  0
 35 40  1  0  0  0  0
 36 35  2  0  0  0  0
 37 38  2  0  0  0  0
 37 36  1  0  0  0  0
 38 39  1  0  0  0  0
 39 44  1  0  0  0  0
 39 34  2  0  0  0  0
 41 36  1  0  0  0  0
 42 37  1  0  0  0  0
 43 38  1  0  0  0  0
M  END
>  <minimizedAffinity>
-5.45572329

$$$$

 OpenBabel03252508193D

 44 48  0  0  1  0  0  0  0  0999 V2000
   40.6390   30.4340   39.7930 C   0  0  0  0  0  0  0  0  0  0  0  0
   41.6230   29.9240   39.6060 H   0  0  0  0  0  0  0  0  0  0  0  0
   40.2170   30.7190   38.8490 H   0  0  0  0  0  0  0  0  0  0  0  0
   40.8830   31.4800   40.8190 C   0  0  1  0  0  0  0  0  0  0  0  0
   41.6650   32.6560   40.3400 C   0  0  0  0  0  0  0  0  0  0  0  0
   40.2580   32.8100   40.6950 C   0  0  1  0  0  0  0  0  0  0  0  0
   41.3470   31.1000   41.7780 H   0  0  0  0  0  0  0  0  0  0  0  0
   41.9280   32.7200   39.2540 H   0  0  0  0  0  0  0  0  0  0  0  0
   42.4430   33.1470   40.9570 H   0  0  0  0  0  0  0  0  0  0  0  0
   40.0430   33.3390   41.6480 H   0  0  0  0  0  0  0  0  0  0  0  0
   39.2030   32.9930   39.6520 C   0  0  2  0  0  0  0  0  0  0  0  0
   38.2270   34.1610   39.9440 C   0  0  0  0  0  0  0  0  0  0  0  0
   37.7480   32.7850   40.0810 C   0  0  1  0  0  0  0  0  0  0  0  0
   39.4570   32.9810   38.5760 H   0  0  0  0  0  0  0  0  0  0  0  0
   37.9260   34.8360   39.1510 H   0  0  0  0  0  0  0  0  0  0  0  0
   38.3720   34.7100   40.9180 H   0  0  0  0  0  0  0  0  0  0  0  0
   37.6400   32.3440   41.1150 H   0  0  0  0  0  0  0  0  0  0  0  0
   37.0070   32.0560   39.1040 N   0  0  1  0  0  0  0  0  0  0  0  0
   37.6870   31.9270   37.8540 C   0  0  0  0  0  2  0  0  0  0  0  0
   37.8740   30.4200   37.6350 C   0  0  0  0  0  2  0  0  0  0  0  0
   36.5610   29.9090   38.2430 C   0  0  0  0  0  2  0  0  0  0  0  0
   36.5430   30.7740   39.5100 C   0  0  0  0  0  3  0  0  0  0  0  0
   37.1410   30.2400   40.2460 H   0  0  0  0  0  0  0  0  0  0  0  0
   39.1420   29.6080   41.4160 C   0  0  0  0  0  3  0  0  0  0  0  0
   39.7640   29.3340   40.3470 C   0  0  0  0  0  3  0  0  0  0  0  0
   36.9020   27.7540   43.6800 C   0  0  0  0  0  0  0  0  0  0  0  0
   36.8200   26.5000   43.0830 C   0  0  0  0  0  0  0  0  0  0  0  0
   37.5290   26.3350   41.9380 C   0  0  0  0  0  0  0  0  0  0  0  0
   38.2650   27.3600   41.4310 N   0  0  0  0  0  0  0  0  0  0  0  0
   38.3250   28.5610   42.0310 C   0  0  0  0  0  0  0  0  0  0  0  0
   37.6350   28.7230   43.1470 N   0  0  0  0  0  0  0  0  0  0  0  0
   36.3530   27.9300   44.5960 H   0  0  0  0  0  0  0  0  0  0  0  0
   36.2280   25.7000   43.5050 H   0  0  0  0  0  0  0  0  0  0  0  0
   37.5420   25.0740   41.1960 C   0  0  0  0  0  0  0  0  0  0  0  0
   36.4330   24.4980   40.6270 C   0  0  0  0  0  0  0  0  0  0  0  0
   36.4520   23.3080   39.9300 C   0  0  0  0  0  0  0  0  0  0  0  0
   37.6380   22.6390   39.7790 C   0  0  0  0  0  0  0  0  0  0  0  0
   38.7820   23.1590   40.3210 C   0  0  0  0  0  0  0  0  0  0  0  0
   38.7060   24.3570   41.0130 C   0  0  0  0  0  0  0  0  0  0  0  0
   35.4700   25.0130   40.7340 H   0  0  0  0  0  0  0  0  0  0  0  0
   35.5640   22.8760   39.4910 H   0  0  0  0  0  0  0  0  0  0  0  0
   37.7740   21.6880   39.2450 H   0  0  0  0  0  0  0  0  0  0  0  0
   39.7530   22.6640   40.2290 H   0  0  0  0  0  0  0  0  0  0  0  0
   39.6360   24.7400   41.4310 H   0  0  0  0  0  0  0  0  0  0  0  0
  1 25  1  0  0  0  0
  1  4  1  0  0  0  0
  2  1  1  0  0  0  0
  3  1  1  0  0  0  0
  4  7  1  1  0  0  0
  5  6  1  0  0  0  0
  5  4  1  0  0  0  0
  5  9  1  0  0  0  0
  6  4  1  0  0  0  0
  6 10  1  1  0  0  0
  8  5  1  0  0  0  0
 11 14  1  6  0  0  0
 11 12  1  0  0  0  0
 11 13  1  0  0  0  0
 11  6  1  0  0  0  0
 12 13  1  0  0  0  0
 12 16  1  0  0  0  0
 13 17  1  1  0  0  0
 15 12  1  0  0  0  0
 18 19  1  6  0  0  0
 18 22  1  0  0  0  0
 18 13  1  0  0  0  0
 20 19  1  0  0  0  0
 20 21  1  0  0  0  0
 21 22  1  0  0  0  0
 22 23  1  0  0  0  0
 24 30  1  0  0  0  0
 25 24  2  0  0  0  0
 26 32  1  0  0  0  0
 27 33  1  0  0  0  0
 27 26  2  0  0  0  0
 28 27  1  0  0  0  0
 29 28  2  0  0  0  0
 29 30  1  0  0  0  0
 30 31  2  0  0  0  0
 31 26  1  0  0  0  0
 34 28  1  0  0  0  0
 35 40  1  0  0  0  0
 35 34  2  0  0  0  0
 36 35  1  0  0  0  0
 37 36  2  0  0  0  0
 37 38  1  0  0  0  0
 38 39  2  0  0  0  0
 39 34  1  0  0  0  0
 39 44  1  0  0  0  0
 41 36  1  0  0  0  0
 42 37  1  0  0  0  0
 43 38  1  0  0  0  0
M  END
>  <minimizedAffinity>
-5.43531466

$$$$

 OpenBabel03252508193D

 44 48  0  0  1  0  0  0  0  0999 V2000
   33.8240   28.7740   38.0580 C   0  0  0  0  0  0  0  0  0  0  0  0
   33.7190   27.6790   38.2880 H   0  0  0  0  0  0  0  0  0  0  0  0
   32.8850   29.2550   38.2510 H   0  0  0  0  0  0  0  0  0  0  0  0
   34.4200   28.8750   36.7010 C   0  0  1  0  0  0  0  0  0  0  0  0
   34.3860   27.6120   35.9070 C   0  0  0  0  0  0  0  0  0  0  0  0
   33.5720   28.7530   35.5000 C   0  0  1  0  0  0  0  0  0  0  0  0
   35.4710   29.2920   36.6780 H   0  0  0  0  0  0  0  0  0  0  0  0
   33.8500   26.7260   36.3310 H   0  0  0  0  0  0  0  0  0  0  0  0
   35.2310   27.2860   35.2690 H   0  0  0  0  0  0  0  0  0  0  0  0
   33.9140   29.3110   34.6030 H   0  0  0  0  0  0  0  0  0  0  0  0
   32.0890   28.7620   35.6880 C   0  0  2  0  0  0  0  0  0  0  0  0
   31.2890   28.6880   34.3630 C   0  0  0  0  0  0  0  0  0  0  0  0
   31.3150   29.9480   35.1040 C   0  0  1  0  0  0  0  0  0  0  0  0
   31.6060   28.1230   36.4500 H   0  0  0  0  0  0  0  0  0  0  0  0
   30.4200   28.0440   34.2810 H   0  0  0  0  0  0  0  0  0  0  0  0
   31.8900   28.6880   33.4080 H   0  0  0  0  0  0  0  0  0  0  0  0
   31.9790   30.7850   34.7380 H   0  0  0  0  0  0  0  0  0  0  0  0
   30.3060   30.4130   35.9990 N   0  0  1  0  0  0  0  0  0  0  0  0
   30.0640   29.5270   37.0940 C   0  0  0  0  0  2  0  0  0  0  0  0
   30.3930   30.3290   38.3600 C   0  0  0  0  0  2  0  0  0  0  0  0
   29.8980   31.7130   37.9210 C   0  0  0  0  0  2  0  0  0  0  0  0
   30.4880   31.7300   36.5050 C   0  0  0  0  0  3  0  0  0  0  0  0
   31.5120   32.0840   36.6110 H   0  0  0  0  0  0  0  0  0  0  0  0
   35.5170   28.3860   39.6520 C   0  0  0  0  0  3  0  0  0  0  0  0
   34.7920   29.2700   39.1070 C   0  0  0  0  0  3  0  0  0  0  0  0
   37.3850   28.5770   42.8230 C   0  0  0  0  0  0  0  0  0  0  0  0
   38.2050   29.6860   42.6380 C   0  0  0  0  0  0  0  0  0  0  0  0
   38.0890   30.3230   41.4460 C   0  0  0  0  0  0  0  0  0  0  0  0
   37.2120   29.8750   40.5090 N   0  0  0  0  0  0  0  0  0  0  0  0
   36.4330   28.7990   40.7170 C   0  0  0  0  0  0  0  0  0  0  0  0
   36.5440   28.1780   41.8770 N   0  0  0  0  0  0  0  0  0  0  0  0
   37.4440   28.0380   43.7600 H   0  0  0  0  0  0  0  0  0  0  0  0
   38.8940   30.0240   43.3990 H   0  0  0  0  0  0  0  0  0  0  0  0
   38.8830   31.5040   41.1060 C   0  0  0  0  0  0  0  0  0  0  0  0
   38.3570   32.6890   40.6540 C   0  0  0  0  0  0  0  0  0  0  0  0
   39.1110   33.7980   40.3350 C   0  0  0  0  0  0  0  0  0  0  0  0
   40.4740   33.7430   40.4690 C   0  0  0  0  0  0  0  0  0  0  0  0
   41.0640   32.5910   40.9160 C   0  0  0  0  0  0  0  0  0  0  0  0
   40.2580   31.5060   41.2210 C   0  0  0  0  0  0  0  0  0  0  0  0
   37.2680   32.7600   40.5370 H   0  0  0  0  0  0  0  0  0  0  0  0
   38.6720   34.7200   39.9810 H   0  0  0  0  0  0  0  0  0  0  0  0
   41.1730   34.5600   40.2470 H   0  0  0  0  0  0  0  0  0  0  0  0
   42.1460   32.4960   41.0390 H   0  0  0  0  0  0  0  0  0  0  0  0
   40.7620   30.6070   41.5730 H   0  0  0  0  0  0  0  0  0  0  0  0
  1  3  1  0  0  0  0
  1  2  1  0  0  0  0
  1 25  1  0  0  0  0
  4  7  1  6  0  0  0
  4  1  1  0  0  0  0
  5  8  1  0  0  0  0
  5  4  1  0  0  0  0
  6 10  1  6  0  0  0
  6 11  1  0  0  0  0
  6  5  1  0  0  0  0
  6  4  1  0  0  0  0
  9  5  1  0  0  0  0
 11 14  1  1  0  0  0
 12 13  1  0  0  0  0
 12 11  1  0  0  0  0
 13 17  1  6  0  0  0
 13 11  1  0  0  0  0
 13 18  1  0  0  0  0
 15 12  1  0  0  0  0
 16 12  1  0  0  0  0
 18 22  1  0  0  0  0
 18 19  1  1  0  0  0
 19 20  1  0  0  0  0
 21 20  1  0  0  0  0
 22 23  1  0  0  0  0
 22 21  1  0  0  0  0
 24 30  1  0  0  0  0
 25 24  2  0  0  0  0
 26 32  1  0  0  0  0
 27 26  1  0  0  0  0
 27 33  1  0  0  0  0
 28 27  2  0  0  0  0
 29 30  2  0  0  0  0
 29 28  1  0  0  0  0
 30 31  1  0  0  0  0
 31 26  2  0  0  0  0
 34 39  1  0  0  0  0
 34 28  1  0  0  0  0
 35 34  2  0  0  0  0
 36 37  2  0  0  0  0
 36 35  1  0  0  0  0
 37 38  1  0  0  0  0
 38 43  1  0  0  0  0
 38 39  2  0  0  0  0
 39 44  1  0  0  0  0
 40 35  1  0  0  0  0
 41 36  1  0  0  0  0
 42 37  1  0  0  0  0
M  END
>  <minimizedAffinity>
-5.43383217

$$$$

 OpenBabel03252508193D

 44 48  0  0  1  0  0  0  0  0999 V2000
   37.3510   32.6000   39.4210 C   0  0  0  0  0  0  0  0  0  0  0  0
   36.8240   33.4130   38.8510 H   0  0  0  0  0  0  0  0  0  0  0  0
   36.7900   32.3870   40.3100 H   0  0  0  0  0  0  0  0  0  0  0  0
   38.7730   33.0150   39.5490 C   0  0  1  0  0  0  0  0  0  0  0  0
   39.0590   33.9220   40.6980 C   0  0  0  0  0  0  0  0  0  0  0  0
   39.5860   32.5600   40.6920 C   0  0  1  0  0  0  0  0  0  0  0  0
   39.2180   33.4630   38.6110 H   0  0  0  0  0  0  0  0  0  0  0  0
   38.2360   34.1490   41.4210 H   0  0  0  0  0  0  0  0  0  0  0  0
   39.7570   34.7790   40.6220 H   0  0  0  0  0  0  0  0  0  0  0  0
   40.6750   32.4510   40.5040 H   0  0  0  0  0  0  0  0  0  0  0  0
   39.0160   31.4980   41.5760 C   0  0  2  0  0  0  0  0  0  0  0  0
   40.0290   30.9220   42.5980 C   0  0  0  0  0  0  0  0  0  0  0  0
   39.6180   30.0940   41.4640 C   0  0  1  0  0  0  0  0  0  0  0  0
   38.0320   31.6270   42.0620 H   0  0  0  0  0  0  0  0  0  0  0  0
   39.7320   30.7430   43.6250 H   0  0  0  0  0  0  0  0  0  0  0  0
   41.0860   31.3130   42.5380 H   0  0  0  0  0  0  0  0  0  0  0  0
   40.3230   29.9730   40.5900 H   0  0  0  0  0  0  0  0  0  0  0  0
   38.6110   29.0830   41.4880 N   0  0  1  0  0  0  0  0  0  0  0  0
   39.0850   27.8200   41.9590 C   0  0  0  0  0  2  0  0  0  0  0  0
   38.2620   27.5080   43.2150 C   0  0  0  0  0  2  0  0  0  0  0  0
   36.9110   28.0990   42.7890 C   0  0  0  0  0  2  0  0  0  0  0  0
   37.4170   29.4160   42.1870 C   0  0  0  0  0  3  0  0  0  0  0  0
   37.5060   30.1120   43.0180 H   0  0  0  0  0  0  0  0  0  0  0  0
   36.3370   30.5490   38.8540 C   0  0  0  0  0  3  0  0  0  0  0  0
   37.2250   31.3910   38.5240 C   0  0  0  0  0  3  0  0  0  0  0  0
   35.9490   28.1950   36.0460 C   0  0  0  0  0  0  0  0  0  0  0  0
   35.9760   26.9530   36.6710 C   0  0  0  0  0  0  0  0  0  0  0  0
   36.1240   26.9650   38.0190 C   0  0  0  0  0  0  0  0  0  0  0  0
   36.2370   28.1440   38.6880 N   0  0  0  0  0  0  0  0  0  0  0  0
   36.2080   29.3290   38.0550 C   0  0  0  0  0  0  0  0  0  0  0  0
   36.0630   29.3190   36.7420 N   0  0  0  0  0  0  0  0  0  0  0  0
   35.8320   28.2330   34.9700 H   0  0  0  0  0  0  0  0  0  0  0  0
   35.8840   26.0290   36.1170 H   0  0  0  0  0  0  0  0  0  0  0  0
   36.1700   25.7390   38.8160 C   0  0  0  0  0  0  0  0  0  0  0  0
   36.8130   25.6230   40.0230 C   0  0  0  0  0  0  0  0  0  0  0  0
   36.8530   24.4640   40.7700 C   0  0  0  0  0  0  0  0  0  0  0  0
   36.2180   23.3430   40.3010 C   0  0  0  0  0  0  0  0  0  0  0  0
   35.5580   23.3910   39.1030 C   0  0  0  0  0  0  0  0  0  0  0  0
   35.5500   24.5810   38.3940 C   0  0  0  0  0  0  0  0  0  0  0  0
   37.3300   26.5050   40.4220 H   0  0  0  0  0  0  0  0  0  0  0  0
   37.3660   24.3980   41.7190 H   0  0  0  0  0  0  0  0  0  0  0  0
   36.1820   22.3680   40.8060 H   0  0  0  0  0  0  0  0  0  0  0  0
   35.0360   22.5240   38.6850 H   0  0  0  0  0  0  0  0  0  0  0  0
   35.0150   24.5810   37.4460 H   0  0  0  0  0  0  0  0  0  0  0  0
  1  4  1  0  0  0  0
  1  3  1  0  0  0  0
  2  1  1  0  0  0  0
  4  7  1  6  0  0  0
  4  6  1  0  0  0  0
  4  5  1  0  0  0  0
  5  8  1  0  0  0  0
  6 10  1  6  0  0  0
  6  5  1  0  0  0  0
  6 11  1  0  0  0  0
  9  5  1  0  0  0  0
 11 14  1  1  0  0  0
 11 12  1  0  0  0  0
 12 15  1  0  0  0  0
 13 17  1  6  0  0  0
 13 18  1  0  0  0  0
 13 11  1  0  0  0  0
 13 12  1  0  0  0  0
 16 12  1  0  0  0  0
 18 19  1  1  0  0  0
 18 22  1  0  0  0  0
 19 20  1  0  0  0  0
 21 20  1  0  0  0  0
 22 21  1  0  0  0  0
 22 23  1  0  0  0  0
 25 24  2  0  0  0  0
 25  1  1  0  0  0  0
 26 27  2  0  0  0  0
 26 31  1  0  0  0  0
 27 28  1  0  0  0  0
 28 29  2  0  0  0  0
 28 34  1  0  0  0  0
 30 29  1  0  0  0  0
 30 24  1  0  0  0  0
 31 30  2  0  0  0  0
 32 26  1  0  0  0  0
 33 27  1  0  0  0  0
 34 35  1  0  0  0  0
 35 40  1  0  0  0  0
 35 36  2  0  0  0  0
 36 41  1  0  0  0  0
 37 36  1  0  0  0  0
 37 42  1  0  0  0  0
 38 37  2  0  0  0  0
 39 34  2  0  0  0  0
 39 38  1  0  0  0  0
 43 38  1  0  0  0  0
 44 39  1  0  0  0  0
M  END
>  <minimizedAffinity>
-5.42495441

$$$$
