
 OpenBabel03252500213D

 19 20  0  0  0  0  0  0  0  0999 V2000
   39.1010   31.0380   41.5070 C   0  0  0  0  0  0  0  0  0  0  0  0
   37.8970   30.3570   41.6000 C   0  0  0  0  0  0  0  0  0  0  0  0
   36.7920   30.9580   40.9820 C   0  0  0  0  0  0  0  0  0  0  0  0
   36.9420   32.1510   40.3330 N   0  0  0  0  0  0  0  0  0  0  0  0
   38.1460   32.7440   40.2890 C   0  0  0  0  0  0  0  0  0  0  0  0
   39.2260   32.1980   40.8710 N   0  0  0  0  0  0  0  0  0  0  0  0
   38.3340   33.9900   39.6190 N   0  0  0  0  0  0  0  0  0  0  0  0
   39.9900   30.6100   41.9730 H   0  0  0  0  0  0  0  0  0  0  0  0
   38.6050   34.1430   38.6140 H   0  0  0  0  0  0  0  0  0  0  0  0
   38.1390   34.6880   40.3730 H   0  0  0  0  0  0  0  0  0  0  0  0
   37.8600   29.1310   42.2950 N   0  0  0  0  0  0  0  0  0  0  0  0
   38.2830   27.8690   41.6910 C   0  0  0  0  0  2  0  0  0  0  0  0
   36.9600   27.1000   41.8210 C   0  0  0  0  0  2  0  0  0  0  0  0
   36.6520   27.3730   43.2900 C   0  0  0  0  0  2  0  0  0  0  0  0
   37.4860   28.6090   43.6180 C   0  0  0  0  0  3  0  0  0  0  0  0
   38.4340   28.3200   44.1220 H   0  0  0  0  0  0  0  0  0  0  0  0
   35.5460   30.2750   41.0660 N   0  0  0  0  0  0  0  0  0  0  0  0
   35.4430   29.9540   40.0830 H   0  0  0  0  0  0  0  0  0  0  0  0
   34.8770   30.1060   41.8460 H   0  0  0  0  0  0  0  0  0  0  0  0
  1  2  1  0  0  0  0
  1  8  1  0  0  0  0
  2 11  1  0  0  0  0
  3 17  1  0  0  0  0
  3  2  2  0  0  0  0
  4  3  1  0  0  0  0
  5  4  2  0  0  0  0
  5  6  1  0  0  0  0
  6  1  2  0  0  0  0
  7  5  1  0  0  0  0
  7 10  1  0  0  0  0
  9  7  1  0  0  0  0
 11 15  1  0  0  0  0
 12 13  1  0  0  0  0
 12 11  1  0  0  0  0
 13 14  1  0  0  0  0
 14 15  1  0  0  0  0
 15 16  1  0  0  0  0
 17 19  1  0  0  0  0
 18 17  1  0  0  0  0
M  END
>  <minimizedAffinity>
-4.91140318

$$$$

 OpenBabel03252500213D

 19 20  0  0  0  0  0  0  0  0999 V2000
   38.9820   29.9620   39.5710 C   0  0  0  0  0  0  0  0  0  0  0  0
   37.9630   29.9620   40.5110 C   0  0  0  0  0  0  0  0  0  0  0  0
   36.8780   30.8120   40.2570 C   0  0  0  0  0  0  0  0  0  0  0  0
   36.8690   31.5810   39.1270 N   0  0  0  0  0  0  0  0  0  0  0  0
   37.8980   31.5200   38.2650 C   0  0  0  0  0  0  0  0  0  0  0  0
   38.9530   30.7180   38.4780 N   0  0  0  0  0  0  0  0  0  0  0  0
   37.9170   32.3100   37.0770 N   0  0  0  0  0  0  0  0  0  0  0  0
   39.8480   29.3170   39.7260 H   0  0  0  0  0  0  0  0  0  0  0  0
   37.5530   32.0470   36.1260 H   0  0  0  0  0  0  0  0  0  0  0  0
   38.3780   33.1940   37.3960 H   0  0  0  0  0  0  0  0  0  0  0  0
   38.0790   29.1260   41.6410 N   0  0  0  0  0  0  0  0  0  0  0  0
   38.0060   27.6680   41.5530 C   0  0  0  0  0  2  0  0  0  0  0  0
   36.7960   27.4470   42.4720 C   0  0  0  0  0  2  0  0  0  0  0  0
   37.2290   28.2880   43.6690 C   0  0  0  0  0  2  0  0  0  0  0  0
   38.2800   29.2340   43.0930 C   0  0  0  0  0  3  0  0  0  0  0  0
   39.3040   28.8530   43.2990 H   0  0  0  0  0  0  0  0  0  0  0  0
   35.8220   30.8270   41.2100 N   0  0  0  0  0  0  0  0  0  0  0  0
   35.0790   30.3390   40.6720 H   0  0  0  0  0  0  0  0  0  0  0  0
   35.7420   31.1990   42.1790 H   0  0  0  0  0  0  0  0  0  0  0  0
  1  8  1  0  0  0  0
  1  2  1  0  0  0  0
  2 11  1  0  0  0  0
  3  2  2  0  0  0  0
  3 17  1  0  0  0  0
  4  3  1  0  0  0  0
  5  6  1  0  0  0  0
  5  4  2  0  0  0  0
  6  1  2  0  0  0  0
  7 10  1  0  0  0  0
  7  5  1  0  0  0  0
  9  7  1  0  0  0  0
 11 15  1  0  0  0  0
 12 11  1  0  0  0  0
 12 13  1  0  0  0  0
 13 14  1  0  0  0  0
 15 16  1  0  0  0  0
 15 14  1  0  0  0  0
 17 19  1  0  0  0  0
 18 17  1  0  0  0  0
M  END
>  <minimizedAffinity>
-4.65874672

$$$$

 OpenBabel03252500213D

 19 20  0  0  0  0  0  0  0  0999 V2000
   38.7130   29.5620   39.7410 C   0  0  0  0  0  0  0  0  0  0  0  0
   37.6850   29.8060   40.6390 C   0  0  0  0  0  0  0  0  0  0  0  0
   36.7720   30.8090   40.2860 C   0  0  0  0  0  0  0  0  0  0  0  0
   36.9270   31.4830   39.1080 N   0  0  0  0  0  0  0  0  0  0  0  0
   37.9510   31.1840   38.2920 C   0  0  0  0  0  0  0  0  0  0  0  0
   38.8440   30.2300   38.5990 N   0  0  0  0  0  0  0  0  0  0  0  0
   38.1390   31.8700   37.0550 N   0  0  0  0  0  0  0  0  0  0  0  0
   39.4480   28.7900   39.9720 H   0  0  0  0  0  0  0  0  0  0  0  0
   37.7590   31.6050   36.1110 H   0  0  0  0  0  0  0  0  0  0  0  0
   38.7380   32.6820   37.3320 H   0  0  0  0  0  0  0  0  0  0  0  0
   37.6240   29.0460   41.8260 N   0  0  0  0  0  0  0  0  0  0  0  0
   38.4030   29.3830   43.0170 C   0  0  0  0  0  2  0  0  0  0  0  0
   39.2070   28.0810   43.1370 C   0  0  0  0  0  2  0  0  0  0  0  0
   38.0710   27.0690   43.0210 C   0  0  0  0  0  2  0  0  0  0  0  0
   36.9450   27.8560   42.3550 C   0  0  0  0  0  3  0  0  0  0  0  0
   36.2190   28.2190   43.1150 H   0  0  0  0  0  0  0  0  0  0  0  0
   35.7110   31.0740   41.1950 N   0  0  0  0  0  0  0  0  0  0  0  0
   34.9080   30.6840   40.6630 H   0  0  0  0  0  0  0  0  0  0  0  0
   35.6710   31.5240   42.1340 H   0  0  0  0  0  0  0  0  0  0  0  0
  1  8  1  0  0  0  0
  1  2  1  0  0  0  0
  2 11  1  0  0  0  0
  3  2  2  0  0  0  0
  3 17  1  0  0  0  0
  4  3  1  0  0  0  0
  5  6  1  0  0  0  0
  5  4  2  0  0  0  0
  6  1  2  0  0  0  0
  7 10  1  0  0  0  0
  7  5  1  0  0  0  0
  9  7  1  0  0  0  0
 11 15  1  0  0  0  0
 11 12  1  0  0  0  0
 12 13  1  0  0  0  0
 14 13  1  0  0  0  0
 15 14  1  0  0  0  0
 15 16  1  0  0  0  0
 17 19  1  0  0  0  0
 18 17  1  0  0  0  0
M  END
>  <minimizedAffinity>
-4.59973669

$$$$

 OpenBabel03252500213D

 19 20  0  0  0  0  0  0  0  0999 V2000
   39.3190   30.0480   41.1870 C   0  0  0  0  0  0  0  0  0  0  0  0
   38.1190   30.6960   40.9400 C   0  0  0  0  0  0  0  0  0  0  0  0
   36.9930   30.2040   41.6140 C   0  0  0  0  0  0  0  0  0  0  0  0
   37.1210   29.1400   42.4620 N   0  0  0  0  0  0  0  0  0  0  0  0
   38.3220   28.5690   42.6470 C   0  0  0  0  0  0  0  0  0  0  0  0
   39.4210   29.0140   42.0160 N   0  0  0  0  0  0  0  0  0  0  0  0
   38.4880   27.4580   43.5260 N   0  0  0  0  0  0  0  0  0  0  0  0
   40.2230   30.3940   40.6850 H   0  0  0  0  0  0  0  0  0  0  0  0
   38.7240   27.4800   44.5500 H   0  0  0  0  0  0  0  0  0  0  0  0
   38.3180   26.6400   42.8970 H   0  0  0  0  0  0  0  0  0  0  0  0
   38.1050   31.7850   40.0430 N   0  0  0  0  0  0  0  0  0  0  0  0
   39.1890   32.7650   39.9780 C   0  0  0  0  0  2  0  0  0  0  0  0
   38.3750   34.0240   40.3120 C   0  0  0  0  0  2  0  0  0  0  0  0
   37.2190   33.8460   39.3330 C   0  0  0  0  0  2  0  0  0  0  0  0
   37.2480   32.3570   38.9960 C   0  0  0  0  0  3  0  0  0  0  0  0
   37.7730   32.1850   38.0300 H   0  0  0  0  0  0  0  0  0  0  0  0
   35.7520   30.8550   41.3730 N   0  0  0  0  0  0  0  0  0  0  0  0
   35.6150   31.3390   42.2820 H   0  0  0  0  0  0  0  0  0  0  0  0
   35.1090   30.8850   40.5540 H   0  0  0  0  0  0  0  0  0  0  0  0
  1  6  1  0  0  0  0
  2  1  2  0  0  0  0
  2  3  1  0  0  0  0
  3  4  2  0  0  0  0
  4  5  1  0  0  0  0
  5  7  1  0  0  0  0
  6  5  2  0  0  0  0
  7  9  1  0  0  0  0
  8  1  1  0  0  0  0
 10  7  1  0  0  0  0
 11  2  1  0  0  0  0
 12 11  1  0  0  0  0
 12 13  1  0  0  0  0
 14 13  1  0  0  0  0
 15 14  1  0  0  0  0
 15 11  1  0  0  0  0
 16 15  1  0  0  0  0
 17  3  1  0  0  0  0
 17 18  1  0  0  0  0
 19 17  1  0  0  0  0
M  END
>  <minimizedAffinity>
-4.50300694

$$$$

 OpenBabel03252500213D

 19 20  0  0  0  0  0  0  0  0999 V2000
   41.0150   27.4920   43.2000 C   0  0  0  0  0  0  0  0  0  0  0  0
   39.8330   26.8810   42.8100 C   0  0  0  0  0  0  0  0  0  0  0  0
   39.8680   25.4880   42.6650 C   0  0  0  0  0  0  0  0  0  0  0  0
   41.0290   24.8090   42.9070 N   0  0  0  0  0  0  0  0  0  0  0  0
   42.1320   25.4770   43.2820 C   0  0  0  0  0  0  0  0  0  0  0  0
   42.1340   26.8120   43.4310 N   0  0  0  0  0  0  0  0  0  0  0  0
   43.3590   24.7970   43.5420 N   0  0  0  0  0  0  0  0  0  0  0  0
   41.0380   28.5750   43.3270 H   0  0  0  0  0  0  0  0  0  0  0  0
   43.6960   24.4120   44.4610 H   0  0  0  0  0  0  0  0  0  0  0  0
   43.8180   24.7850   42.6030 H   0  0  0  0  0  0  0  0  0  0  0  0
   38.6940   27.6830   42.5880 N   0  0  0  0  0  0  0  0  0  0  0  0
   37.8370   28.1530   43.6760 C   0  0  0  0  0  2  0  0  0  0  0  0
   36.5200   27.5070   43.2220 C   0  0  0  0  0  2  0  0  0  0  0  0
   36.5070   27.9560   41.7640 C   0  0  0  0  0  2  0  0  0  0  0  0
   37.9650   28.3010   41.4720 C   0  0  0  0  0  3  0  0  0  0  0  0
   38.1320   29.3970   41.5550 H   0  0  0  0  0  0  0  0  0  0  0  0
   38.6650   24.8430   42.2650 N   0  0  0  0  0  0  0  0  0  0  0  0
   38.4070   24.3640   43.1500 H   0  0  0  0  0  0  0  0  0  0  0  0
   38.1370   24.8110   41.3680 H   0  0  0  0  0  0  0  0  0  0  0  0
  1  8  1  0  0  0  0
  1  6  1  0  0  0  0
  2  1  2  0  0  0  0
  3  2  1  0  0  0  0
  3  4  2  0  0  0  0
  4  5  1  0  0  0  0
  5  6  2  0  0  0  0
  5  7  1  0  0  0  0
  7  9  1  0  0  0  0
 10  7  1  0  0  0  0
 11  2  1  0  0  0  0
 11 12  1  0  0  0  0
 13 12  1  0  0  0  0
 14 13  1  0  0  0  0
 15 16  1  0  0  0  0
 15 14  1  0  0  0  0
 15 11  1  0  0  0  0
 17  3  1  0  0  0  0
 17 18  1  0  0  0  0
 19 17  1  0  0  0  0
M  END
>  <minimizedAffinity>
-4.28784752

$$$$

 OpenBabel03252500213D

 19 20  0  0  0  0  0  0  0  0999 V2000
   36.8080   30.3560   40.1260 C   0  0  0  0  0  0  0  0  0  0  0  0
   37.8040   30.1270   41.0630 C   0  0  0  0  0  0  0  0  0  0  0  0
   38.6060   31.2240   41.4030 C   0  0  0  0  0  0  0  0  0  0  0  0
   38.3800   32.4380   40.8180 N   0  0  0  0  0  0  0  0  0  0  0  0
   37.3920   32.5760   39.9180 C   0  0  0  0  0  0  0  0  0  0  0  0
   36.6050   31.5460   39.5680 N   0  0  0  0  0  0  0  0  0  0  0  0
   37.1310   33.8300   39.2900 N   0  0  0  0  0  0  0  0  0  0  0  0
   36.1580   29.5320   39.8290 H   0  0  0  0  0  0  0  0  0  0  0  0
   36.4750   34.5860   39.6140 H   0  0  0  0  0  0  0  0  0  0  0  0
   37.7470   33.7960   38.4450 H   0  0  0  0  0  0  0  0  0  0  0  0
   37.9450   28.8310   41.6020 N   0  0  0  0  0  0  0  0  0  0  0  0
   36.8790   28.1690   42.3530 C   0  0  0  0  0  2  0  0  0  0  0  0
   37.6270   27.9670   43.6780 C   0  0  0  0  0  2  0  0  0  0  0  0
   38.9180   27.3480   43.1500 C   0  0  0  0  0  2  0  0  0  0  0  0
   38.9460   27.7580   41.6790 C   0  0  0  0  0  3  0  0  0  0  0  0
   38.5730   26.9320   41.0350 H   0  0  0  0  0  0  0  0  0  0  0  0
   39.6340   31.0090   42.3630 N   0  0  0  0  0  0  0  0  0  0  0  0
   39.2420   31.5250   43.1750 H   0  0  0  0  0  0  0  0  0  0  0  0
   40.5410   30.4980   42.3340 H   0  0  0  0  0  0  0  0  0  0  0  0
  1  2  1  0  0  0  0
  2  3  2  0  0  0  0
  2 11  1  0  0  0  0
  3 17  1  0  0  0  0
  4  3  1  0  0  0  0
  5  4  2  0  0  0  0
  6  5  1  0  0  0  0
  6  1  2  0  0  0  0
  7  9  1  0  0  0  0
  7  5  1  0  0  0  0
  8  1  1  0  0  0  0
 10  7  1  0  0  0  0
 11 15  1  0  0  0  0
 11 12  1  0  0  0  0
 12 13  1  0  0  0  0
 14 13  1  0  0  0  0
 15 14  1  0  0  0  0
 16 15  1  0  0  0  0
 17 18  1  0  0  0  0
 19 17  1  0  0  0  0
M  END
>  <minimizedAffinity>
-4.24765396

$$$$

 OpenBabel03252500213D

 19 20  0  0  0  0  0  0  0  0999 V2000
   39.8450   31.8990   37.9190 C   0  0  0  0  0  0  0  0  0  0  0  0
   39.5600   32.3530   39.1970 C   0  0  0  0  0  0  0  0  0  0  0  0
   40.3460   33.4100   39.6750 C   0  0  0  0  0  0  0  0  0  0  0  0
   41.3300   33.9350   38.8840 N   0  0  0  0  0  0  0  0  0  0  0  0
   41.5410   33.4370   37.6550 C   0  0  0  0  0  0  0  0  0  0  0  0
   40.8070   32.4240   37.1670 N   0  0  0  0  0  0  0  0  0  0  0  0
   42.5610   33.9630   36.8060 N   0  0  0  0  0  0  0  0  0  0  0  0
   39.2600   31.0780   37.5040 H   0  0  0  0  0  0  0  0  0  0  0  0
   42.4710   34.7390   36.1030 H   0  0  0  0  0  0  0  0  0  0  0  0
   43.3940   33.3860   37.0650 H   0  0  0  0  0  0  0  0  0  0  0  0
   38.5190   31.7360   39.9220 N   0  0  0  0  0  0  0  0  0  0  0  0
   38.6670   30.4230   40.5500 C   0  0  0  0  0  2  0  0  0  0  0  0
   37.5430   29.6880   39.8050 C   0  0  0  0  0  2  0  0  0  0  0  0
   36.4110   30.6920   39.9990 C   0  0  0  0  0  2  0  0  0  0  0  0
   37.1300   31.9990   40.3240 C   0  0  0  0  0  3  0  0  0  0  0  0
   37.1480   32.1740   41.4220 H   0  0  0  0  0  0  0  0  0  0  0  0
   40.0690   33.8900   40.9850 N   0  0  0  0  0  0  0  0  0  0  0  0
   39.6420   34.8100   40.7600 H   0  0  0  0  0  0  0  0  0  0  0  0
   40.2220   33.4950   41.9360 H   0  0  0  0  0  0  0  0  0  0  0  0
  1  2  1  0  0  0  0
  2  3  2  0  0  0  0
  2 11  1  0  0  0  0
  3 17  1  0  0  0  0
  4  3  1  0  0  0  0
  5  4  2  0  0  0  0
  6  5  1  0  0  0  0
  6  1  2  0  0  0  0
  7 10  1  0  0  0  0
  7  5  1  0  0  0  0
  8  1  1  0  0  0  0
  9  7  1  0  0  0  0
 11 15  1  0  0  0  0
 11 12  1  0  0  0  0
 13 14  1  0  0  0  0
 13 12  1  0  0  0  0
 14 15  1  0  0  0  0
 15 16  1  0  0  0  0
 17 19  1  0  0  0  0
 18 17  1  0  0  0  0
M  END
>  <minimizedAffinity>
-4.24170828

$$$$

 OpenBabel03252500213D

 19 20  0  0  0  0  0  0  0  0999 V2000
   36.5560   27.4410   40.6150 C   0  0  0  0  0  0  0  0  0  0  0  0
   37.4760   27.0880   41.5900 C   0  0  0  0  0  0  0  0  0  0  0  0
   37.8340   28.0890   42.5030 C   0  0  0  0  0  0  0  0  0  0  0  0
   37.2760   29.3320   42.4000 N   0  0  0  0  0  0  0  0  0  0  0  0
   36.3900   29.5920   41.4240 C   0  0  0  0  0  0  0  0  0  0  0  0
   36.0260   28.6570   40.5320 N   0  0  0  0  0  0  0  0  0  0  0  0
   35.7920   30.8810   41.2900 N   0  0  0  0  0  0  0  0  0  0  0  0
   36.2470   26.6960   39.8800 H   0  0  0  0  0  0  0  0  0  0  0  0
   34.8950   31.2190   41.7230 H   0  0  0  0  0  0  0  0  0  0  0  0
   36.4630   31.3820   40.6640 H   0  0  0  0  0  0  0  0  0  0  0  0
   37.9850   25.7720   41.6010 N   0  0  0  0  0  0  0  0  0  0  0  0
   39.1630   25.3770   40.8290 C   0  0  0  0  0  2  0  0  0  0  0  0
   38.5100   24.2940   39.9580 C   0  0  0  0  0  2  0  0  0  0  0  0
   37.7930   23.4940   41.0420 C   0  0  0  0  0  2  0  0  0  0  0  0
   37.6940   24.4690   42.2140 C   0  0  0  0  0  3  0  0  0  0  0  0
   38.5050   24.2790   42.9500 H   0  0  0  0  0  0  0  0  0  0  0  0
   38.7770   27.7460   43.5110 N   0  0  0  0  0  0  0  0  0  0  0  0
   38.1600   27.7320   44.3470 H   0  0  0  0  0  0  0  0  0  0  0  0
   39.8000   27.5520   43.4940 H   0  0  0  0  0  0  0  0  0  0  0  0
  1  2  1  0  0  0  0
  2 11  1  0  0  0  0
  2  3  2  0  0  0  0
  3 17  1  0  0  0  0
  4  3  1  0  0  0  0
  5  4  2  0  0  0  0
  6  1  2  0  0  0  0
  6  5  1  0  0  0  0
  7  5  1  0  0  0  0
  7  9  1  0  0  0  0
  8  1  1  0  0  0  0
 10  7  1  0  0  0  0
 11 15  1  0  0  0  0
 12 11  1  0  0  0  0
 13 12  1  0  0  0  0
 13 14  1  0  0  0  0
 14 15  1  0  0  0  0
 15 16  1  0  0  0  0
 17 18  1  0  0  0  0
 19 17  1  0  0  0  0
M  END
>  <minimizedAffinity>
-4.20256233

$$$$

 OpenBabel03252500213D

 19 20  0  0  0  0  0  0  0  0999 V2000
   39.0730   29.9340   40.5490 C   0  0  0  0  0  0  0  0  0  0  0  0
   38.5670   29.2160   41.6220 C   0  0  0  0  0  0  0  0  0  0  0  0
   37.3730   29.6890   42.1830 C   0  0  0  0  0  0  0  0  0  0  0  0
   36.7730   30.8010   41.6640 N   0  0  0  0  0  0  0  0  0  0  0  0
   37.3290   31.4400   40.6210 C   0  0  0  0  0  0  0  0  0  0  0  0
   38.4730   31.0150   40.0600 N   0  0  0  0  0  0  0  0  0  0  0  0
   36.7270   32.6040   40.0580 N   0  0  0  0  0  0  0  0  0  0  0  0
   40.0010   29.6060   40.0800 H   0  0  0  0  0  0  0  0  0  0  0  0
   36.0290   32.6490   39.2720 H   0  0  0  0  0  0  0  0  0  0  0  0
   37.1530   33.3770   40.6180 H   0  0  0  0  0  0  0  0  0  0  0  0
   39.2720   28.0810   42.0730 N   0  0  0  0  0  0  0  0  0  0  0  0
   39.1650   26.7760   41.4210 C   0  0  0  0  0  2  0  0  0  0  0  0
   38.6360   25.9690   42.6160 C   0  0  0  0  0  2  0  0  0  0  0  0
   39.6420   26.4000   43.6790 C   0  0  0  0  0  2  0  0  0  0  0  0
   40.2190   27.7030   43.1320 C   0  0  0  0  0  3  0  0  0  0  0  0
   41.1950   27.5190   42.6300 H   0  0  0  0  0  0  0  0  0  0  0  0
   36.8390   28.9650   43.2850 N   0  0  0  0  0  0  0  0  0  0  0  0
   36.0110   28.5260   42.8360 H   0  0  0  0  0  0  0  0  0  0  0  0
   37.1330   28.8600   44.2790 H   0  0  0  0  0  0  0  0  0  0  0  0
  1  2  1  0  0  0  0
  2 11  1  0  0  0  0
  2  3  2  0  0  0  0
  3 17  1  0  0  0  0
  4  3  1  0  0  0  0
  5  4  2  0  0  0  0
  6  1  2  0  0  0  0
  6  5  1  0  0  0  0
  7 10  1  0  0  0  0
  7  5  1  0  0  0  0
  8  1  1  0  0  0  0
  9  7  1  0  0  0  0
 11 15  1  0  0  0  0
 12 11  1  0  0  0  0
 12 13  1  0  0  0  0
 13 14  1  0  0  0  0
 15 14  1  0  0  0  0
 16 15  1  0  0  0  0
 17 19  1  0  0  0  0
 18 17  1  0  0  0  0
M  END
>  <minimizedAffinity>
-4.1906147

$$$$
