REMARK  Name = 
REMARK  2 active torsions:
REMARK  status: ('A' for Active; 'I' for Inactive)
REMARK    1  A    between atoms: C_3  and  C_7
REMARK    2  A    between atoms: C_7  and  N_13
REMARK                            x       y       z     vdW  Elec       q    Type
REMARK                         _______ _______ _______ _____ _____    ______ ____
ROOT
ATOM      1  C   UNL     1      44.561  36.010  44.495  0.00  0.00    +0.000 A 
ATOM      2  C   UNL     1      45.305  35.919  43.301  0.00  0.00    +0.000 A 
ATOM      3  C   UNL     1      46.194  34.864  43.164  0.00  0.00    +0.000 A 
ATOM      4  N   UNL     1      46.304  33.967  44.189  0.00  0.00    +0.000 NA
ATOM      5  C   UNL     1      45.567  34.087  45.330  0.00  0.00    +0.000 A 
ATOM      6  N   UNL     1      44.707  35.099  45.475  0.00  0.00    +0.000 NA
ATOM      7  H   UNL     1      43.869  36.844  44.584  0.00  0.00    +0.000 HD
ATOM      8  H   UNL     1      45.208  36.638  42.495  0.00  0.00    +0.000 HD
ATOM      9  H   UNL     1      45.688  33.351  46.118  0.00  0.00    +0.000 HD
ENDROOT
BRANCH   3  10
ATOM     10  C   UNL     1      46.965  34.770  41.928  0.00  0.00    +0.000 C 
ATOM     11  H   UNL     1      47.105  33.695  41.705  0.00  0.00    +0.000 HD
ATOM     12  H   UNL     1      46.395  35.231  41.097  0.00  0.00    +0.000 HD
BRANCH  10  13
ATOM     13  N   UNL     1      48.230  35.474  41.988  0.00  0.00    +0.000 NA
ATOM     14  C   UNL     1      49.242  34.829  42.748  0.00  0.00    +0.000 C 
ATOM     15  C   UNL     1      50.388  34.504  41.820  0.00  0.00    +0.000 C 
ATOM     16  C   UNL     1      50.101  35.231  40.538  0.00  0.00    +0.000 C 
ATOM     17  C   UNL     1      48.733  35.828  40.709  0.00  0.00    +0.000 C 
ATOM     18  H   UNL     1      48.065  35.553  39.867  0.00  0.00    +0.000 HD
ENDBRANCH  10  13
ENDBRANCH   3  10
TORSDOF 2
