
 OpenBabel03252508523D

 40 43  0  0  1  0  0  0  0  0999 V2000
   43.2340   34.3360   40.6400 C   0  0  0  0  0  0  0  0  0  0  0  0
   43.1900   35.5160   40.1620 O   0  0  0  0  0  0  0  0  0  0  0  0
   41.8530   33.9300   40.4420 N   0  0  0  0  0  0  0  0  0  0  0  0
   41.4110   33.9320   39.0700 C   0  0  0  0  0  0  0  0  0  0  0  0
   40.6290   35.2520   38.9030 C   0  0  0  0  0  0  0  0  0  0  0  0
   39.9110   35.4930   40.2300 C   0  0  0  0  0  0  0  0  0  0  0  0
   39.5640   34.1820   40.9040 C   0  0  0  0  0  0  0  0  0  0  0  0
   40.8560   33.5240   41.4120 C   0  0  1  0  0  0  0  0  0  0  0  0
   42.2150   33.9740   38.3280 H   0  0  0  0  0  0  0  0  0  0  0  0
   40.7450   33.0850   38.8290 H   0  0  0  0  0  0  0  0  0  0  0  0
   39.9110   35.1560   38.0600 H   0  0  0  0  0  0  0  0  0  0  0  0
   41.3140   36.0880   38.7120 H   0  0  0  0  0  0  0  0  0  0  0  0
   40.5660   36.1260   40.8890 H   0  0  0  0  0  0  0  0  0  0  0  0
   38.9930   36.0950   40.0800 H   0  0  0  0  0  0  0  0  0  0  0  0
   39.1630   33.5210   40.1090 H   0  0  0  0  0  0  0  0  0  0  0  0
   38.8590   34.3950   41.7240 H   0  0  0  0  0  0  0  0  0  0  0  0
   41.1050   34.0150   42.3730 H   0  0  0  0  0  0  0  0  0  0  0  0
   40.7280   32.0970   41.4960 N   0  0  1  0  0  0  0  0  0  0  0  0
   39.3160   31.7730   41.4870 C   0  0  0  0  0  2  0  0  0  0  0  0
   39.2940   30.3020   41.0850 C   0  0  0  0  0  2  0  0  0  0  0  0
   40.4660   30.1300   40.1630 C   0  0  0  0  0  2  0  0  0  0  0  0
   41.2480   31.3800   40.3910 C   0  0  0  0  0  3  0  0  0  0  0  0
   41.4210   31.9780   39.4760 H   0  0  0  0  0  0  0  0  0  0  0  0
   44.3170   33.7120   41.1700 O   0  0  0  0  0  0  0  0  0  0  0  0
   45.6400   34.0050   40.9670 C   0  0  0  0  0  0  0  0  0  0  0  0
   46.3240   34.6340   42.0170 C   0  0  0  0  0  0  0  0  0  0  0  0
   47.6770   34.9300   41.7990 C   0  0  0  0  0  0  0  0  0  0  0  0
   48.2350   34.5920   40.5960 N   0  0  0  0  0  0  0  0  0  0  0  0
   47.5350   33.9970   39.6390 C   0  0  0  0  0  0  0  0  0  0  0  0
   46.2350   33.7000   39.8180 N   0  0  0  0  0  0  0  0  0  0  0  0
   48.2130   35.4170   42.6100 H   0  0  0  0  0  0  0  0  0  0  0  0
   48.0570   33.7630   38.7140 H   0  0  0  0  0  0  0  0  0  0  0  0
   45.6350   34.9490   43.2560 C   0  0  0  0  0  0  0  0  0  0  0  0
   45.0200   36.1840   43.4850 C   0  0  0  0  0  0  0  0  0  0  0  0
   44.5050   36.0520   44.7480 C   0  0  0  0  0  0  0  0  0  0  0  0
   44.7780   34.8410   45.2510 N   0  0  0  0  0  0  0  0  0  0  0  0
   45.4660   34.1860   44.3310 N   0  0  0  0  0  0  0  0  0  0  0  0
   44.9300   37.0670   42.8770 H   0  0  0  0  0  0  0  0  0  0  0  0
   43.9410   36.8420   45.2720 H   0  0  0  0  0  0  0  0  0  0  0  0
   44.4780   34.5320   46.2010 H   0  0  0  0  0  0  0  0  0  0  0  0
  1 24  1  0  0  0  0
  2  1  2  0  0  0  0
  3  1  1  0  0  0  0
  3  8  1  0  0  0  0
  4  3  1  0  0  0  0
  5  4  1  0  0  0  0
  5  6  1  0  0  0  0
  6 13  1  0  0  0  0
  6  7  1  0  0  0  0
  7  8  1  0  0  0  0
  7 16  1  0  0  0  0
  8 18  1  0  0  0  0
  8 17  1  1  0  0  0
  9  4  1  0  0  0  0
 10  4  1  0  0  0  0
 11  5  1  0  0  0  0
 12  5  1  0  0  0  0
 14  6  1  0  0  0  0
 15  7  1  0  0  0  0
 18 19  1  6  0  0  0
 20 19  1  0  0  0  0
 21 22  1  0  0  0  0
 21 20  1  0  0  0  0
 22 18  1  0  0  0  0
 23 22  1  0  0  0  0
 25 24  1  0  0  0  0
 25 26  1  0  0  0  0
 26 33  1  0  0  0  0
 27 26  2  0  0  0  0
 27 31  1  0  0  0  0
 28 27  1  0  0  0  0
 29 30  1  0  0  0  0
 29 28  2  0  0  0  0
 30 25  2  0  0  0  0
 32 29  1  0  0  0  0
 33 34  1  0  0  0  0
 33 37  2  0  0  0  0
 34 35  2  0  0  0  0
 35 36  1  0  0  0  0
 35 39  1  0  0  0  0
 36 40  1  0  0  0  0
 37 36  1  0  0  0  0
 38 34  1  0  0  0  0
M  END
>  <minimizedAffinity>
-6.52687359

>  <minimizedRMSD>
0.888645053

$$$$
