
     RDKit          3D

 35 38  0  0  0  0  0  0  0  0999 V2000
   47.2186   31.3701   45.0843 C   0  0  0  0  0  0  0  0  0  0  0  0
   46.8803   32.6995   45.0894 C   0  0  0  0  0  0  0  0  0  0  0  0
   46.2755   33.3200   46.1832 C   0  0  0  0  0  0  0  0  0  0  0  0
   45.9964   32.5688   47.3290 C   0  0  0  0  0  0  0  0  0  0  0  0
   45.4441   32.8002   48.5365 N   0  0  0  0  0  0  0  0  0  0  0  0
   45.4378   31.6544   49.2608 C   0  0  0  0  0  0  0  0  0  0  0  0
   45.9989   30.7116   48.4718 N   0  0  0  0  0  0  0  0  0  0  0  0
   46.3465   31.2404   47.2947 C   0  0  0  0  0  0  0  0  0  0  0  0
   46.9481   30.6034   46.2185 C   0  0  0  0  0  0  0  0  0  0  0  0
   46.5061   35.2090   42.4250 C   0  0  0  0  0  0  0  0  0  0  0  0
   47.7170   35.0603   41.7101 C   0  0  0  0  0  0  0  0  0  0  0  0
   48.6546   34.0956   42.1515 C   0  0  0  0  0  0  0  0  0  0  0  0
   48.3120   33.3595   43.2650 N   0  0  0  0  0  0  0  0  0  0  0  0
   47.1508   33.5247   43.9240 C   0  0  0  0  0  0  0  0  0  0  0  0
   46.2784   34.4344   43.4992 N   0  0  0  0  0  0  0  0  0  0  0  0
   47.6861   30.9268   44.2163 H   0  0  0  0  0  0  0  0  0  0  0  0
   45.1061   33.7582   48.7706 H   0  0  0  0  0  0  0  0  0  0  0  0
   45.0243   31.6912   50.2491 H   0  0  0  0  0  0  0  0  0  0  0  0
   47.2050   29.5532   46.2398 H   0  0  0  0  0  0  0  0  0  0  0  0
   45.8292   35.9567   42.0464 H   0  0  0  0  0  0  0  0  0  0  0  0
   48.0103   35.6229   40.8360 H   0  0  0  0  0  0  0  0  0  0  0  0
   49.5951   33.9425   41.6404 H   0  0  0  0  0  0  0  0  0  0  0  0
   45.9031   34.6915   46.2439 N   0  0  0  0  0  0  0  0  0  0  0  0
   46.5315   35.9899   46.4003 C   0  0  0  0  0  0  0  0  0  0  0  0
   45.4017   36.8160   46.9823 C   0  0  0  0  0  0  0  0  0  0  0  0
   44.2445   36.3762   46.0833 C   0  0  0  0  0  0  0  0  0  0  0  0
   44.4513   34.8772   46.1108 C   0  0  1  0  0  0  0  0  0  0  0  0
   44.1294   34.4930   45.1181 H   0  0  0  0  0  0  0  0  0  0  0  0
   47.4477   35.9938   46.9843 H   0  0  0  0  0  0  0  0  0  0  0  0
   46.7784   36.4508   45.4231 H   0  0  0  0  0  0  0  0  0  0  0  0
   45.5916   37.9024   46.8830 H   0  0  0  0  0  0  0  0  0  0  0  0
   45.1213   36.5217   48.0093 H   0  0  0  0  0  0  0  0  0  0  0  0
   44.5038   36.7775   45.0772 H   0  0  0  0  0  0  0  0  0  0  0  0
   43.2781   36.7090   46.4668 H   0  0  0  0  0  0  0  0  0  0  0  0
   43.8864   34.4282   46.9327 H   0  0  0  0  0  0  0  0  0  0  0  0
  1  2  2  0
  1  9  1  0
  2  3  1  0
  3  4  2  0
  4  5  1  0
  5  6  1  0
  7  6  2  0
  8  4  1  0
  8  7  1  0
  9  8  2  0
 10 15  2  0
 11 12  2  0
 11 10  1  0
 12 13  1  0
 13 14  2  0
 14  2  1  0
 15 14  1  0
  1 16  1  0
  5 17  1  0
  6 18  1  0
  9 19  1  0
 10 20  1  0
 11 21  1  0
 12 22  1  0
 23 24  1  0
 24 25  1  0
 25 26  1  0
 26 27  1  0
 27 28  1  6
 27 23  1  0
 24 29  1  0
 24 30  1  0
 25 31  1  0
 25 32  1  0
 26 33  1  0
 26 34  1  0
 27 35  1  0
  3 23  1  0
M  ISO  8  16  14  17   9  18  14  19  14  20  14  21  14  22  14  28  13
M  END
>  <DihAtoms>  (1) 
1,2,22,23

>  <DihDeg>  (1) 
90.03898856501284

$$$$
