
 OpenBabel03252509283D

 18 19  0  0  0  0  0  0  0  0999 V2000
   45.0810   36.0110   43.2490 C   0  0  0  0  0  0  0  0  0  0  0  0
   46.1140   35.1080   42.9280 C   0  0  0  0  0  0  0  0  0  0  0  0
   46.4720   34.1620   43.8760 C   0  0  0  0  0  0  0  0  0  0  0  0
   45.8080   34.1510   45.0700 N   0  0  0  0  0  0  0  0  0  0  0  0
   44.8120   35.0410   45.3450 C   0  0  0  0  0  0  0  0  0  0  0  0
   44.4570   35.9580   44.4410 N   0  0  0  0  0  0  0  0  0  0  0  0
   44.8140   36.7460   42.4930 H   0  0  0  0  0  0  0  0  0  0  0  0
   46.6340   35.1280   41.9770 H   0  0  0  0  0  0  0  0  0  0  0  0
   44.3120   34.9950   46.3070 H   0  0  0  0  0  0  0  0  0  0  0  0
   47.5430   33.2260   43.5440 C   0  0  0  0  0  0  0  0  0  0  0  0
   48.1380   33.0630   44.4630 H   0  0  0  0  0  0  0  0  0  0  0  0
   47.1070   32.2570   43.2290 H   0  0  0  0  0  0  0  0  0  0  0  0
   48.3710   33.6730   42.4420 N   0  0  0  0  0  0  0  0  0  0  0  0
   49.5660   34.3420   42.8200 C   0  0  0  0  0  3  0  0  0  0  0  0
   50.7360   33.5320   42.3140 C   0  0  0  0  0  3  0  0  0  0  0  0
   50.1550   32.4980   41.3930 C   0  0  0  0  0  2  0  0  0  0  0  0
   48.6640   32.6430   41.5110 C   0  0  0  0  0  3  0  0  0  0  0  0
   48.1820   31.6710   41.7430 H   0  0  0  0  0  0  0  0  0  0  0  0
  1  6  1  0  0  0  0
  2  1  2  0  0  0  0
  2  3  1  0  0  0  0
  3  4  2  0  0  0  0
  4  5  1  0  0  0  0
  5  9  1  0  0  0  0
  6  5  2  0  0  0  0
  7  1  1  0  0  0  0
  8  2  1  0  0  0  0
 10  3  1  0  0  0  0
 10 11  1  0  0  0  0
 12 10  1  0  0  0  0
 13 14  1  0  0  0  0
 13 10  1  0  0  0  0
 15 14  2  0  0  0  0
 16 17  1  0  0  0  0
 16 15  1  0  0  0  0
 17 18  1  0  0  0  0
 17 13  1  0  0  0  0
M  END
>  <minimizedAffinity>
-3.89187622

>  <minimizedRMSD>
1.78437948

$$$$
