
 OpenBabel03252503043D

 17 18  0  0  0  0  0  0  0  0999 V2000
   45.3890   36.0150   43.1630 C   0  0  0  0  0  0  0  0  0  0  0  0
   46.2300   34.9040   43.1420 C   0  0  0  0  0  0  0  0  0  0  0  0
   46.1980   34.0560   44.2370 C   0  0  0  0  0  0  0  0  0  0  0  0
   45.3690   34.3240   45.2730 N   0  0  0  0  0  0  0  0  0  0  0  0
   44.5550   35.4170   45.2700 C   0  0  0  0  0  0  0  0  0  0  0  0
   44.5770   36.2410   44.2210 N   0  0  0  0  0  0  0  0  0  0  0  0
   45.3780   36.7090   42.3290 H   0  0  0  0  0  0  0  0  0  0  0  0
   43.9010   35.6120   46.1060 H   0  0  0  0  0  0  0  0  0  0  0  0
   47.0170   32.8910   44.3210 N   0  0  0  0  0  0  0  0  0  0  0  0
   48.0200   32.5170   43.3350 C   0  0  0  0  0  0  0  0  0  0  0  0
   47.4020   31.1830   42.8940 C   0  0  0  0  0  0  0  0  0  0  0  0
   47.2670   30.5340   44.2720 C   0  0  0  0  0  0  0  0  0  0  0  0
   47.2530   31.7390   45.1900 C   0  0  0  0  0  0  0  0  0  0  0  0
   48.2350   31.8450   45.7230 H   0  0  0  0  0  0  0  0  0  0  0  0
   47.0980   34.6430   42.0370 C   0  0  0  0  0  0  0  0  0  0  0  0
   47.9660   35.5160   41.7510 O   0  0  0  0  0  0  0  0  0  0  0  0
   47.0900   33.7500   41.3990 H   0  0  0  0  0  0  0  0  0  0  0  0
  1  6  1  0  0  0  0
  2  1  2  0  0  0  0
  2  3  1  0  0  0  0
  3  9  1  0  0  0  0
  3  4  2  0  0  0  0
  5  4  1  0  0  0  0
  5  8  1  0  0  0  0
  6  5  2  0  0  0  0
  7  1  1  0  0  0  0
  9 13  1  0  0  0  0
 10  9  1  0  0  0  0
 11 10  1  0  0  0  0
 11 12  1  0  0  0  0
 12 13  1  0  0  0  0
 13 14  1  0  0  0  0
 15  2  1  0  0  0  0
 16 15  2  0  0  0  0
 17 15  1  0  0  0  0
M  END
>  <minimizedAffinity>
-3.67640972

>  <minimizedRMSD>
0.41195941

$$$$
