
 OpenBabel03252504163D

 35 37  0  0  0  0  0  0  0  0999 V2000
   47.7690   30.0970   44.9340 F   0  0  0  0  0  0  0  0  0  0  0  0
   47.5620   30.8590   46.0740 C   0  0  0  0  0  0  0  0  0  0  0  0
   46.9250   32.0730   45.9720 C   0  0  0  0  0  0  0  0  0  0  0  0
   46.7560   32.7770   47.1570 C   0  0  0  0  0  0  0  0  0  0  0  0
   47.2100   32.2630   48.3510 C   0  0  0  0  0  0  0  0  0  0  0  0
   47.8440   31.0360   48.3940 C   0  0  0  0  0  0  0  0  0  0  0  0
   48.0410   30.2870   47.2300 C   0  0  0  0  0  0  0  0  0  0  0  0
   46.2690   33.7290   47.1560 H   0  0  0  0  0  0  0  0  0  0  0  0
   47.0900   32.7950   49.2960 H   0  0  0  0  0  0  0  0  0  0  0  0
   48.1910   30.6510   49.3300 H   0  0  0  0  0  0  0  0  0  0  0  0
   46.7780   34.1180   42.9430 C   0  0  0  0  0  0  0  0  0  0  0  0
   45.6560   33.6410   42.2720 C   0  0  0  0  0  0  0  0  0  0  0  0
   44.9430   32.5930   42.8820 C   0  0  0  0  0  0  0  0  0  0  0  0
   45.3610   32.1020   44.0680 N   0  0  0  0  0  0  0  0  0  0  0  0
   46.4530   32.5930   44.6840 C   0  0  0  0  0  0  0  0  0  0  0  0
   47.1570   33.5930   44.1270 N   0  0  0  0  0  0  0  0  0  0  0  0
   44.0640   32.2120   42.3660 H   0  0  0  0  0  0  0  0  0  0  0  0
   45.2680   34.2290   40.9860 C   0  0  0  0  0  0  0  0  0  0  0  0
   44.9210   35.5600   41.1540 F   0  0  0  0  0  0  0  0  0  0  0  0
   46.3780   34.2080   40.1440 F   0  0  0  0  0  0  0  0  0  0  0  0
   44.2440   33.6220   40.3540 F   0  0  0  0  0  0  0  0  0  0  0  0
   47.4640   35.1200   42.3630 O   0  0  0  0  0  0  0  0  0  0  0  0
   48.8080   35.0800   41.8930 C   0  0  0  0  0  0  0  0  0  0  0  0
   49.6310   35.3340   42.9730 F   0  0  0  0  0  0  0  0  0  0  0  0
   49.0500   33.8600   41.3060 F   0  0  0  0  0  0  0  0  0  0  0  0
   49.0170   36.1290   41.0240 F   0  0  0  0  0  0  0  0  0  0  0  0
   48.7170   28.9660   47.2380 C   0  0  0  0  0  0  0  0  0  0  0  0
   47.9330   28.2200   47.5530 H   0  0  0  0  0  0  0  0  0  0  0  0
   49.0650   28.6390   46.2580 H   0  0  0  0  0  0  0  0  0  0  0  0
   49.7430   28.8840   48.2490 N   0  0  0  0  0  0  0  0  0  0  0  0
   49.9270   27.5260   48.7240 C   0  0  0  0  0  0  0  0  0  0  0  0
   51.3840   27.4330   49.1930 C   0  0  0  0  0  0  0  0  0  0  0  0
   51.9320   28.8300   48.8750 C   0  0  0  0  0  0  0  0  0  0  0  0
   51.0430   29.1620   47.6690 C   0  0  0  0  0  0  0  0  0  0  0  0
   51.3380   28.4280   46.8820 H   0  0  0  0  0  0  0  0  0  0  0  0
  1  2  1  0  0  0  0
  2  7  1  0  0  0  0
  3  2  2  0  0  0  0
  3  4  1  0  0  0  0
  4  5  2  0  0  0  0
  5  6  1  0  0  0  0
  5  9  1  0  0  0  0
  6 10  1  0  0  0  0
  7 27  1  0  0  0  0
  7  6  2  0  0  0  0
  8  4  1  0  0  0  0
 11 16  1  0  0  0  0
 12 13  1  0  0  0  0
 12 11  2  0  0  0  0
 13 14  2  0  0  0  0
 14 15  1  0  0  0  0
 15  3  1  0  0  0  0
 16 15  2  0  0  0  0
 17 13  1  0  0  0  0
 18 19  1  0  0  0  0
 18 12  1  0  0  0  0
 20 18  1  0  0  0  0
 21 18  1  0  0  0  0
 22 11  1  0  0  0  0
 23 22  1  0  0  0  0
 23 24  1  0  0  0  0
 25 23  1  0  0  0  0
 26 23  1  0  0  0  0
 27 28  1  0  0  0  0
 27 30  1  0  0  0  0
 29 27  1  0  0  0  0
 30 31  1  0  0  0  0
 31 32  1  0  0  0  0
 33 32  1  0  0  0  0
 34 30  1  0  0  0  0
 34 33  1  0  0  0  0
 35 34  1  0  0  0  0
M  END
>  <minimizedAffinity>
-5.46474218

>  <minimizedRMSD>
1.3891288

$$$$
