
 OpenBabel03252504193D

 35 37  0  0  0  0  0  0  0  0999 V2000
   33.0210   28.9230   38.7360 F   0  0  0  0  0  0  0  0  0  0  0  0
   33.8660   28.8800   37.6370 C   0  0  0  0  0  0  0  0  0  0  0  0
   35.2140   28.6830   37.8250 C   0  0  0  0  0  0  0  0  0  0  0  0
   35.9940   28.6520   36.6760 C   0  0  0  0  0  0  0  0  0  0  0  0
   35.4220   28.8120   35.4340 C   0  0  0  0  0  0  0  0  0  0  0  0
   34.0610   29.0070   35.3050 C   0  0  0  0  0  0  0  0  0  0  0  0
   33.2300   29.0470   36.4290 C   0  0  0  0  0  0  0  0  0  0  0  0
   37.0510   28.5030   36.7440 H   0  0  0  0  0  0  0  0  0  0  0  0
   36.0120   28.7930   34.5160 H   0  0  0  0  0  0  0  0  0  0  0  0
   33.6320   29.1300   34.3330 H   0  0  0  0  0  0  0  0  0  0  0  0
   36.9290   27.1180   40.6520 C   0  0  0  0  0  0  0  0  0  0  0  0
   36.9070   28.0990   41.6400 C   0  0  0  0  0  0  0  0  0  0  0  0
   36.2870   29.3190   41.3160 C   0  0  0  0  0  0  0  0  0  0  0  0
   35.7480   29.4920   40.0900 N   0  0  0  0  0  0  0  0  0  0  0  0
   35.7920   28.5160   39.1630 C   0  0  0  0  0  0  0  0  0  0  0  0
   36.3770   27.3390   39.4390 N   0  0  0  0  0  0  0  0  0  0  0  0
   36.2630   30.0930   42.0810 H   0  0  0  0  0  0  0  0  0  0  0  0
   37.5140   27.8330   42.9470 C   0  0  0  0  0  0  0  0  0  0  0  0
   37.6540   29.0130   43.6590 F   0  0  0  0  0  0  0  0  0  0  0  0
   36.6420   27.0260   43.6770 F   0  0  0  0  0  0  0  0  0  0  0  0
   38.7210   27.2350   42.9170 F   0  0  0  0  0  0  0  0  0  0  0  0
   37.5210   25.9500   40.9560 O   0  0  0  0  0  0  0  0  0  0  0  0
   36.8840   24.6910   41.1520 C   0  0  0  0  0  0  0  0  0  0  0  0
   37.8520   23.7130   41.0270 F   0  0  0  0  0  0  0  0  0  0  0  0
   36.2620   24.6800   42.3780 F   0  0  0  0  0  0  0  0  0  0  0  0
   36.0030   24.4620   40.1160 F   0  0  0  0  0  0  0  0  0  0  0  0
   31.7630   29.2530   36.3290 C   0  0  0  0  0  0  0  0  0  0  0  0
   31.5170   29.1930   35.2310 H   0  0  0  0  0  0  0  0  0  0  0  0
   31.1720   28.4770   36.8120 H   0  0  0  0  0  0  0  0  0  0  0  0
   31.3710   30.5840   36.7300 N   0  0  0  0  0  0  0  0  0  0  0  0
   30.8690   31.3590   35.6120 C   0  0  0  0  0  2  0  0  0  0  0  0
   29.8880   32.3770   36.2070 C   0  0  0  0  0  2  0  0  0  0  0  0
   29.8990   32.0250   37.7010 C   0  0  0  0  0  2  0  0  0  0  0  0
   30.2010   30.5250   37.5860 C   0  0  0  0  0  3  0  0  0  0  0  0
   29.3080   30.0890   37.0790 H   0  0  0  0  0  0  0  0  0  0  0  0
  2  3  1  0  0  0  0
  2  1  1  0  0  0  0
  3 15  1  0  0  0  0
  4  8  1  0  0  0  0
  4  3  2  0  0  0  0
  5  4  1  0  0  0  0
  6  5  2  0  0  0  0
  6  7  1  0  0  0  0
  7  2  2  0  0  0  0
  9  5  1  0  0  0  0
 10  6  1  0  0  0  0
 11 22  1  0  0  0  0
 11 12  1  0  0  0  0
 12 18  1  0  0  0  0
 13 12  2  0  0  0  0
 13 17  1  0  0  0  0
 14 13  1  0  0  0  0
 15 16  1  0  0  0  0
 15 14  2  0  0  0  0
 16 11  2  0  0  0  0
 18 19  1  0  0  0  0
 18 20  1  0  0  0  0
 21 18  1  0  0  0  0
 22 23  1  0  0  0  0
 23 25  1  0  0  0  0
 24 23  1  0  0  0  0
 26 23  1  0  0  0  0
 27  7  1  0  0  0  0
 27 30  1  0  0  0  0
 27 29  1  0  0  0  0
 28 27  1  0  0  0  0
 30 34  1  0  0  0  0
 31 32  1  0  0  0  0
 31 30  1  0  0  0  0
 32 33  1  0  0  0  0
 34 33  1  0  0  0  0
 35 34  1  0  0  0  0
M  END
>  <minimizedAffinity>
-6.29820633

$$$$

 OpenBabel03252504193D

 35 37  0  0  0  0  0  0  0  0999 V2000
   33.2200   28.9100   38.8410 F   0  0  0  0  0  0  0  0  0  0  0  0
   33.9830   28.9220   37.6820 C   0  0  0  0  0  0  0  0  0  0  0  0
   35.3480   28.7820   37.7680 C   0  0  0  0  0  0  0  0  0  0  0  0
   36.0410   28.8060   36.5640 C   0  0  0  0  0  0  0  0  0  0  0  0
   35.3730   28.9630   35.3700 C   0  0  0  0  0  0  0  0  0  0  0  0
   33.9990   29.0990   35.3460 C   0  0  0  0  0  0  0  0  0  0  0  0
   33.2530   29.0830   36.5280 C   0  0  0  0  0  0  0  0  0  0  0  0
   37.1060   28.7020   36.5510 H   0  0  0  0  0  0  0  0  0  0  0  0
   35.8930   28.9850   34.4110 H   0  0  0  0  0  0  0  0  0  0  0  0
   33.4950   29.2210   34.4100 H   0  0  0  0  0  0  0  0  0  0  0  0
   37.1360   29.6470   40.8390 C   0  0  0  0  0  0  0  0  0  0  0  0
   37.3240   28.4210   41.4720 C   0  0  0  0  0  0  0  0  0  0  0  0
   36.8210   27.2800   40.8200 C   0  0  0  0  0  0  0  0  0  0  0  0
   36.1900   27.4120   39.6330 N   0  0  0  0  0  0  0  0  0  0  0  0
   36.0300   28.6170   39.0560 C   0  0  0  0  0  0  0  0  0  0  0  0
   36.4980   29.7270   39.6520 N   0  0  0  0  0  0  0  0  0  0  0  0
   36.9630   26.3170   41.3060 H   0  0  0  0  0  0  0  0  0  0  0  0
   38.0190   28.3630   42.7610 C   0  0  0  0  0  0  0  0  0  0  0  0
   37.3950   29.1930   43.6800 F   0  0  0  0  0  0  0  0  0  0  0  0
   37.9110   27.0650   43.2570 F   0  0  0  0  0  0  0  0  0  0  0  0
   39.3240   28.7000   42.7350 F   0  0  0  0  0  0  0  0  0  0  0  0
   37.6140   30.7400   41.4590 O   0  0  0  0  0  0  0  0  0  0  0  0
   38.7450   31.5180   41.0750 C   0  0  0  0  0  0  0  0  0  0  0  0
   39.5470   31.6580   42.1910 F   0  0  0  0  0  0  0  0  0  0  0  0
   39.3850   30.9040   40.0250 F   0  0  0  0  0  0  0  0  0  0  0  0
   38.3320   32.7950   40.7620 F   0  0  0  0  0  0  0  0  0  0  0  0
   31.7750   29.2270   36.5400 C   0  0  0  0  0  0  0  0  0  0  0  0
   31.4430   29.0940   35.4720 H   0  0  0  0  0  0  0  0  0  0  0  0
   31.2590   28.4570   37.1130 H   0  0  0  0  0  0  0  0  0  0  0  0
   31.3590   30.5620   36.8990 N   0  0  0  0  0  0  0  0  0  0  0  0
   30.8600   31.2980   35.7540 C   0  0  0  0  0  2  0  0  0  0  0  0
   29.8580   32.3180   36.3090 C   0  0  0  0  0  2  0  0  0  0  0  0
   29.8560   32.0090   37.8120 C   0  0  0  0  0  2  0  0  0  0  0  0
   30.1800   30.5100   37.7430 C   0  0  0  0  0  3  0  0  0  0  0  0
   29.3000   30.0470   37.2380 H   0  0  0  0  0  0  0  0  0  0  0  0
  2  3  1  0  0  0  0
  2  1  1  0  0  0  0
  3 15  1  0  0  0  0
  4  3  2  0  0  0  0
  5  4  1  0  0  0  0
  6  5  2  0  0  0  0
  6  7  1  0  0  0  0
  7 27  1  0  0  0  0
  7  2  2  0  0  0  0
  8  4  1  0  0  0  0
  9  5  1  0  0  0  0
 10  6  1  0  0  0  0
 11 22  1  0  0  0  0
 11 12  1  0  0  0  0
 12 18  1  0  0  0  0
 13 17  1  0  0  0  0
 13 12  2  0  0  0  0
 14 13  1  0  0  0  0
 15 14  2  0  0  0  0
 15 16  1  0  0  0  0
 16 11  2  0  0  0  0
 18 20  1  0  0  0  0
 18 19  1  0  0  0  0
 21 18  1  0  0  0  0
 23 22  1  0  0  0  0
 23 24  1  0  0  0  0
 25 23  1  0  0  0  0
 26 23  1  0  0  0  0
 27 30  1  0  0  0  0
 27 29  1  0  0  0  0
 28 27  1  0  0  0  0
 30 34  1  0  0  0  0
 31 32  1  0  0  0  0
 31 30  1  0  0  0  0
 32 33  1  0  0  0  0
 34 33  1  0  0  0  0
 35 34  1  0  0  0  0
M  END
>  <minimizedAffinity>
-5.88848972

$$$$

 OpenBabel03252504193D

 35 37  0  0  0  0  0  0  0  0999 V2000
   33.7480   29.1890   38.8830 F   0  0  0  0  0  0  0  0  0  0  0  0
   34.4610   29.1350   37.6940 C   0  0  0  0  0  0  0  0  0  0  0  0
   35.8360   29.1790   37.7250 C   0  0  0  0  0  0  0  0  0  0  0  0
   36.4770   29.1200   36.4950 C   0  0  0  0  0  0  0  0  0  0  0  0
   35.7540   29.0250   35.3280 C   0  0  0  0  0  0  0  0  0  0  0  0
   34.3730   28.9840   35.3570 C   0  0  0  0  0  0  0  0  0  0  0  0
   33.6770   29.0410   36.5680 C   0  0  0  0  0  0  0  0  0  0  0  0
   37.5450   29.1500   36.4400 H   0  0  0  0  0  0  0  0  0  0  0  0
   36.2330   28.9770   34.3480 H   0  0  0  0  0  0  0  0  0  0  0  0
   33.8250   28.9100   34.4410 H   0  0  0  0  0  0  0  0  0  0  0  0
   37.7140   28.1620   40.6950 C   0  0  0  0  0  0  0  0  0  0  0  0
   37.9790   29.3610   41.3490 C   0  0  0  0  0  0  0  0  0  0  0  0
   37.4980   30.5390   40.7470 C   0  0  0  0  0  0  0  0  0  0  0  0
   36.8120   30.4640   39.5860 N   0  0  0  0  0  0  0  0  0  0  0  0
   36.5780   29.2820   38.9860 C   0  0  0  0  0  0  0  0  0  0  0  0
   37.0240   28.1390   39.5340 N   0  0  0  0  0  0  0  0  0  0  0  0
   37.7000   31.4820   41.2500 H   0  0  0  0  0  0  0  0  0  0  0  0
   38.7320   29.3570   42.6070 C   0  0  0  0  0  0  0  0  0  0  0  0
   39.8910   28.6100   42.4690 F   0  0  0  0  0  0  0  0  0  0  0  0
   39.1290   30.6650   42.8820 F   0  0  0  0  0  0  0  0  0  0  0  0
   38.0700   28.8810   43.6790 F   0  0  0  0  0  0  0  0  0  0  0  0
   38.1730   27.0340   41.2650 O   0  0  0  0  0  0  0  0  0  0  0  0
   37.4110   26.0590   41.9720 C   0  0  0  0  0  0  0  0  0  0  0  0
   36.7060   25.3270   41.0370 F   0  0  0  0  0  0  0  0  0  0  0  0
   38.2550   25.2870   42.7360 F   0  0  0  0  0  0  0  0  0  0  0  0
   36.4530   26.6950   42.7320 F   0  0  0  0  0  0  0  0  0  0  0  0
   32.1940   28.9990   36.6380 C   0  0  0  0  0  0  0  0  0  0  0  0
   31.8460   28.6700   35.6190 H   0  0  0  0  0  0  0  0  0  0  0  0
   31.8040   28.2640   37.3410 H   0  0  0  0  0  0  0  0  0  0  0  0
   31.6200   30.3100   36.8270 N   0  0  0  0  0  0  0  0  0  0  0  0
   31.0640   30.8380   35.5960 C   0  0  0  0  0  2  0  0  0  0  0  0
   29.9400   31.7940   36.0140 C   0  0  0  0  0  2  0  0  0  0  0  0
   29.9410   31.6720   37.5430 C   0  0  0  0  0  2  0  0  0  0  0  0
   30.4370   30.2240   37.6620 C   0  0  0  0  0  3  0  0  0  0  0  0
   29.6270   29.6040   37.2110 H   0  0  0  0  0  0  0  0  0  0  0  0
  2  3  1  0  0  0  0
  2  1  1  0  0  0  0
  3 15  1  0  0  0  0
  4  3  2  0  0  0  0
  5  6  2  0  0  0  0
  5  4  1  0  0  0  0
  6  7  1  0  0  0  0
  7 27  1  0  0  0  0
  7  2  2  0  0  0  0
  8  4  1  0  0  0  0
  9  5  1  0  0  0  0
 10  6  1  0  0  0  0
 11 22  1  0  0  0  0
 11 12  1  0  0  0  0
 12 18  1  0  0  0  0
 13 17  1  0  0  0  0
 13 12  2  0  0  0  0
 14 13  1  0  0  0  0
 15 16  1  0  0  0  0
 15 14  2  0  0  0  0
 16 11  2  0  0  0  0
 18 20  1  0  0  0  0
 18 21  1  0  0  0  0
 19 18  1  0  0  0  0
 22 23  1  0  0  0  0
 23 26  1  0  0  0  0
 23 25  1  0  0  0  0
 24 23  1  0  0  0  0
 27 30  1  0  0  0  0
 27 29  1  0  0  0  0
 28 27  1  0  0  0  0
 30 34  1  0  0  0  0
 31 32  1  0  0  0  0
 31 30  1  0  0  0  0
 32 33  1  0  0  0  0
 33 34  1  0  0  0  0
 35 34  1  0  0  0  0
M  END
>  <minimizedAffinity>
-5.85506392

$$$$

 OpenBabel03252504193D

 35 37  0  0  0  0  0  0  0  0999 V2000
   33.2570   28.1700   37.9810 F   0  0  0  0  0  0  0  0  0  0  0  0
   34.2130   28.5320   37.0420 C   0  0  0  0  0  0  0  0  0  0  0  0
   35.5460   28.3510   37.3270 C   0  0  0  0  0  0  0  0  0  0  0  0
   36.4400   28.7380   36.3380 C   0  0  0  0  0  0  0  0  0  0  0  0
   35.9890   29.2690   35.1500 C   0  0  0  0  0  0  0  0  0  0  0  0
   34.6360   29.4260   34.9180 C   0  0  0  0  0  0  0  0  0  0  0  0
   33.6930   29.0540   35.8810 C   0  0  0  0  0  0  0  0  0  0  0  0
   37.4930   28.6290   36.4880 H   0  0  0  0  0  0  0  0  0  0  0  0
   36.6700   29.5810   34.3560 H   0  0  0  0  0  0  0  0  0  0  0  0
   34.3020   29.8400   33.9900 H   0  0  0  0  0  0  0  0  0  0  0  0
   36.6690   28.1890   40.8050 C   0  0  0  0  0  0  0  0  0  0  0  0
   36.8410   26.8270   41.0370 C   0  0  0  0  0  0  0  0  0  0  0  0
   36.5610   25.9560   39.9680 C   0  0  0  0  0  0  0  0  0  0  0  0
   36.1470   26.4590   38.7850 N   0  0  0  0  0  0  0  0  0  0  0  0
   35.9940   27.7840   38.6030 C   0  0  0  0  0  0  0  0  0  0  0  0
   36.2530   28.6440   39.6040 N   0  0  0  0  0  0  0  0  0  0  0  0
   36.6910   24.8890   40.1390 H   0  0  0  0  0  0  0  0  0  0  0  0
   37.2930   26.3610   42.3510 C   0  0  0  0  0  0  0  0  0  0  0  0
   36.4670   26.8580   43.3460 F   0  0  0  0  0  0  0  0  0  0  0  0
   37.1710   24.9730   42.3860 F   0  0  0  0  0  0  0  0  0  0  0  0
   38.5600   26.6840   42.6780 F   0  0  0  0  0  0  0  0  0  0  0  0
   36.9350   29.0260   41.8230 O   0  0  0  0  0  0  0  0  0  0  0  0
   38.0950   29.8370   41.9860 C   0  0  0  0  0  0  0  0  0  0  0  0
   37.7970   31.0910   41.4890 F   0  0  0  0  0  0  0  0  0  0  0  0
   38.4550   29.8550   43.3130 F   0  0  0  0  0  0  0  0  0  0  0  0
   39.1030   29.3570   41.1780 F   0  0  0  0  0  0  0  0  0  0  0  0
   32.2320   29.2080   35.6670 C   0  0  0  0  0  0  0  0  0  0  0  0
   32.0930   29.3200   34.5550 H   0  0  0  0  0  0  0  0  0  0  0  0
   31.6470   28.3360   35.9560 H   0  0  0  0  0  0  0  0  0  0  0  0
   31.7240   30.4340   36.2350 N   0  0  0  0  0  0  0  0  0  0  0  0
   31.1380   31.2950   35.2250 C   0  0  0  0  0  2  0  0  0  0  0  0
   30.0760   32.1330   35.9460 C   0  0  0  0  0  2  0  0  0  0  0  0
   30.1380   31.5980   37.3830 C   0  0  0  0  0  2  0  0  0  0  0  0
   30.5760   30.1590   37.0770 C   0  0  0  0  0  3  0  0  0  0  0  0
   29.7200   29.7090   36.5190 H   0  0  0  0  0  0  0  0  0  0  0  0
  2  3  1  0  0  0  0
  2  1  1  0  0  0  0
  3 15  1  0  0  0  0
  4  8  1  0  0  0  0
  4  3  2  0  0  0  0
  5  4  1  0  0  0  0
  6  5  2  0  0  0  0
  6  7  1  0  0  0  0
  7  2  2  0  0  0  0
  9  5  1  0  0  0  0
 10  6  1  0  0  0  0
 11 12  1  0  0  0  0
 11 22  1  0  0  0  0
 12 18  1  0  0  0  0
 13 17  1  0  0  0  0
 13 12  2  0  0  0  0
 14 13  1  0  0  0  0
 15 14  2  0  0  0  0
 15 16  1  0  0  0  0
 16 11  2  0  0  0  0
 18 20  1  0  0  0  0
 18 21  1  0  0  0  0
 18 19  1  0  0  0  0
 22 23  1  0  0  0  0
 23 25  1  0  0  0  0
 24 23  1  0  0  0  0
 26 23  1  0  0  0  0
 27  7  1  0  0  0  0
 27 29  1  0  0  0  0
 27 30  1  0  0  0  0
 28 27  1  0  0  0  0
 30 34  1  0  0  0  0
 31 32  1  0  0  0  0
 31 30  1  0  0  0  0
 32 33  1  0  0  0  0
 34 33  1  0  0  0  0
 35 34  1  0  0  0  0
M  END
>  <minimizedAffinity>
-5.64804316

$$$$

 OpenBabel03252504193D

 35 37  0  0  0  0  0  0  0  0999 V2000
   38.2700   28.8510   39.5860 F   0  0  0  0  0  0  0  0  0  0  0  0
   38.1630   30.2330   39.6510 C   0  0  0  0  0  0  0  0  0  0  0  0
   37.3220   30.8900   38.7840 C   0  0  0  0  0  0  0  0  0  0  0  0
   37.2710   32.2720   38.9110 C   0  0  0  0  0  0  0  0  0  0  0  0
   38.0300   32.9200   39.8600 C   0  0  0  0  0  0  0  0  0  0  0  0
   38.8590   32.2080   40.7050 C   0  0  0  0  0  0  0  0  0  0  0  0
   38.9490   30.8150   40.6190 C   0  0  0  0  0  0  0  0  0  0  0  0
   36.6390   32.8510   38.2720 H   0  0  0  0  0  0  0  0  0  0  0  0
   38.0090   34.0040   39.9810 H   0  0  0  0  0  0  0  0  0  0  0  0
   39.4420   32.7260   41.4360 H   0  0  0  0  0  0  0  0  0  0  0  0
   36.1690   29.7050   35.5210 C   0  0  0  0  0  0  0  0  0  0  0  0
   35.1010   28.8680   35.8280 C   0  0  0  0  0  0  0  0  0  0  0  0
   34.7790   28.7140   37.1900 C   0  0  0  0  0  0  0  0  0  0  0  0
   35.5000   29.3690   38.1250 N   0  0  0  0  0  0  0  0  0  0  0  0
   36.5260   30.1700   37.7840 C   0  0  0  0  0  0  0  0  0  0  0  0
   36.8600   30.3380   36.4930 N   0  0  0  0  0  0  0  0  0  0  0  0
   33.9460   28.0620   37.4410 H   0  0  0  0  0  0  0  0  0  0  0  0
   34.3690   28.1920   34.7530 C   0  0  0  0  0  0  0  0  0  0  0  0
   33.7280   27.0660   35.2440 F   0  0  0  0  0  0  0  0  0  0  0  0
   33.3710   29.0530   34.2970 F   0  0  0  0  0  0  0  0  0  0  0  0
   35.1110   27.8060   33.6970 F   0  0  0  0  0  0  0  0  0  0  0  0
   36.4810   29.8550   34.2220 O   0  0  0  0  0  0  0  0  0  0  0  0
   36.2790   31.0150   33.4190 C   0  0  0  0  0  0  0  0  0  0  0  0
   37.0280   32.0360   33.9710 F   0  0  0  0  0  0  0  0  0  0  0  0
   36.6250   30.7350   32.1180 F   0  0  0  0  0  0  0  0  0  0  0  0
   34.9670   31.4230   33.5340 F   0  0  0  0  0  0  0  0  0  0  0  0
   39.8270   30.0170   41.5100 C   0  0  0  0  0  0  0  0  0  0  0  0
   40.6510   29.6170   40.8550 H   0  0  0  0  0  0  0  0  0  0  0  0
   40.3180   30.6000   42.2880 H   0  0  0  0  0  0  0  0  0  0  0  0
   39.1590   28.8470   42.0290 N   0  0  0  0  0  0  0  0  0  0  0  0
   40.0960   27.9010   42.6060 C   0  0  0  0  0  2  0  0  0  0  0  0
   39.3160   27.1320   43.6790 C   0  0  0  0  0  2  0  0  0  0  0  0
   37.9320   27.7920   43.6320 C   0  0  0  0  0  2  0  0  0  0  0  0
   38.3580   29.1980   43.1860 C   0  0  0  0  0  3  0  0  0  0  0  0
   38.9640   29.5980   44.0330 H   0  0  0  0  0  0  0  0  0  0  0  0
  1  2  1  0  0  0  0
  2  7  1  0  0  0  0
  3  4  1  0  0  0  0
  3  2  2  0  0  0  0
  4  5  2  0  0  0  0
  5  9  1  0  0  0  0
  5  6  1  0  0  0  0
  6 10  1  0  0  0  0
  7  6  2  0  0  0  0
  7 27  1  0  0  0  0
  8  4  1  0  0  0  0
 11 12  2  0  0  0  0
 11 16  1  0  0  0  0
 12 13  1  0  0  0  0
 13 17  1  0  0  0  0
 13 14  2  0  0  0  0
 15 14  1  0  0  0  0
 15  3  1  0  0  0  0
 16 15  2  0  0  0  0
 18 19  1  0  0  0  0
 18 12  1  0  0  0  0
 20 18  1  0  0  0  0
 21 18  1  0  0  0  0
 22 11  1  0  0  0  0
 23 26  1  0  0  0  0
 23 24  1  0  0  0  0
 23 22  1  0  0  0  0
 25 23  1  0  0  0  0
 27 30  1  0  0  0  0
 27 29  1  0  0  0  0
 28 27  1  0  0  0  0
 30 31  1  0  0  0  0
 30 34  1  0  0  0  0
 31 32  1  0  0  0  0
 33 32  1  0  0  0  0
 34 33  1  0  0  0  0
 34 35  1  0  0  0  0
M  END
>  <minimizedAffinity>
-5.63949728

$$$$

 OpenBabel03252504193D

 35 37  0  0  0  0  0  0  0  0999 V2000
   39.5470   29.4210   38.3960 F   0  0  0  0  0  0  0  0  0  0  0  0
   38.7340   30.3790   38.9840 C   0  0  0  0  0  0  0  0  0  0  0  0
   37.7280   29.9850   39.8360 C   0  0  0  0  0  0  0  0  0  0  0  0
   36.9580   31.0020   40.3840 C   0  0  0  0  0  0  0  0  0  0  0  0
   37.2090   32.3200   40.0740 C   0  0  0  0  0  0  0  0  0  0  0  0
   38.2340   32.6580   39.2110 C   0  0  0  0  0  0  0  0  0  0  0  0
   39.0390   31.6730   38.6310 C   0  0  0  0  0  0  0  0  0  0  0  0
   36.1570   30.7730   41.0550 H   0  0  0  0  0  0  0  0  0  0  0  0
   36.6190   33.1380   40.4900 H   0  0  0  0  0  0  0  0  0  0  0  0
   38.4160   33.6860   38.9800 H   0  0  0  0  0  0  0  0  0  0  0  0
   37.8510   26.7920   41.6150 C   0  0  0  0  0  0  0  0  0  0  0  0
   37.0940   25.9370   40.8190 C   0  0  0  0  0  0  0  0  0  0  0  0
   36.5340   26.4810   39.6480 C   0  0  0  0  0  0  0  0  0  0  0  0
   36.7460   27.7800   39.3470 N   0  0  0  0  0  0  0  0  0  0  0  0
   37.4860   28.5720   40.1450 C   0  0  0  0  0  0  0  0  0  0  0  0
   38.0350   28.0840   41.2710 N   0  0  0  0  0  0  0  0  0  0  0  0
   35.9400   25.8210   39.0190 H   0  0  0  0  0  0  0  0  0  0  0  0
   36.9110   24.5380   41.2170 C   0  0  0  0  0  0  0  0  0  0  0  0
   36.3470   24.4700   42.4810 F   0  0  0  0  0  0  0  0  0  0  0  0
   35.9990   23.9510   40.3410 F   0  0  0  0  0  0  0  0  0  0  0  0
   38.0280   23.7860   41.2330 F   0  0  0  0  0  0  0  0  0  0  0  0
   38.3890   26.2770   42.7350 O   0  0  0  0  0  0  0  0  0  0  0  0
   39.7680   26.0230   42.9870 C   0  0  0  0  0  0  0  0  0  0  0  0
   40.2700   27.1110   43.6740 F   0  0  0  0  0  0  0  0  0  0  0  0
   39.8950   24.8420   43.6800 F   0  0  0  0  0  0  0  0  0  0  0  0
   40.4520   26.0030   41.7900 F   0  0  0  0  0  0  0  0  0  0  0  0
   40.1490   31.9980   37.7000 C   0  0  0  0  0  0  0  0  0  0  0  0
   40.7340   31.0430   37.5720 H   0  0  0  0  0  0  0  0  0  0  0  0
   39.8220   32.2860   36.7020 H   0  0  0  0  0  0  0  0  0  0  0  0
   41.0840   32.9370   38.2730 N   0  0  0  0  0  0  0  0  0  0  0  0
   41.9120   32.3210   39.2920 C   0  0  0  0  0  2  0  0  0  0  0  0
   43.2270   33.1090   39.3050 C   0  0  0  0  0  2  0  0  0  0  0  0
   43.0170   34.1370   38.1860 C   0  0  0  0  0  2  0  0  0  0  0  0
   42.0790   33.3190   37.2890 C   0  0  0  0  0  3  0  0  0  0  0  0
   42.6960   32.4600   36.9330 H   0  0  0  0  0  0  0  0  0  0  0  0
  1  2  1  0  0  0  0
  2  3  1  0  0  0  0
  3 15  1  0  0  0  0
  3  4  2  0  0  0  0
  4  8  1  0  0  0  0
  5  4  1  0  0  0  0
  5  9  1  0  0  0  0
  6  5  2  0  0  0  0
  7  2  2  0  0  0  0
  7  6  1  0  0  0  0
 10  6  1  0  0  0  0
 11 22  1  0  0  0  0
 12 18  1  0  0  0  0
 12 11  2  0  0  0  0
 13 12  1  0  0  0  0
 14 13  2  0  0  0  0
 14 15  1  0  0  0  0
 15 16  2  0  0  0  0
 16 11  1  0  0  0  0
 17 13  1  0  0  0  0
 18 21  1  0  0  0  0
 18 19  1  0  0  0  0
 20 18  1  0  0  0  0
 22 23  1  0  0  0  0
 23 24  1  0  0  0  0
 23 25  1  0  0  0  0
 26 23  1  0  0  0  0
 27 30  1  0  0  0  0
 27  7  1  0  0  0  0
 28 27  1  0  0  0  0
 29 27  1  0  0  0  0
 30 31  1  0  0  0  0
 31 32  1  0  0  0  0
 33 32  1  0  0  0  0
 34 33  1  0  0  0  0
 34 30  1  0  0  0  0
 35 34  1  0  0  0  0
M  END
>  <minimizedAffinity>
-5.60074282

$$$$

 OpenBabel03252504193D

 35 37  0  0  0  0  0  0  0  0999 V2000
   39.8670   26.9610   40.7840 F   0  0  0  0  0  0  0  0  0  0  0  0
   38.7590   27.0480   41.6150 C   0  0  0  0  0  0  0  0  0  0  0  0
   38.3740   28.2740   42.1060 C   0  0  0  0  0  0  0  0  0  0  0  0
   37.2560   28.2780   42.9300 C   0  0  0  0  0  0  0  0  0  0  0  0
   36.5920   27.1070   43.2220 C   0  0  0  0  0  0  0  0  0  0  0  0
   37.0250   25.9040   42.7000 C   0  0  0  0  0  0  0  0  0  0  0  0
   38.1450   25.8430   41.8650 C   0  0  0  0  0  0  0  0  0  0  0  0
   36.8970   29.1940   43.3500 H   0  0  0  0  0  0  0  0  0  0  0  0
   35.7130   27.0830   43.8670 H   0  0  0  0  0  0  0  0  0  0  0  0
   36.4990   25.0030   42.9360 H   0  0  0  0  0  0  0  0  0  0  0  0
   39.2430   31.4000   40.4170 C   0  0  0  0  0  0  0  0  0  0  0  0
   40.3930   31.8270   41.0770 C   0  0  0  0  0  0  0  0  0  0  0  0
   40.8690   31.0150   42.1230 C   0  0  0  0  0  0  0  0  0  0  0  0
   40.2110   29.8790   42.4410 N   0  0  0  0  0  0  0  0  0  0  0  0
   39.1030   29.5030   41.7760 C   0  0  0  0  0  0  0  0  0  0  0  0
   38.6210   30.2560   40.7730 N   0  0  0  0  0  0  0  0  0  0  0  0
   41.7660   31.3390   42.6450 H   0  0  0  0  0  0  0  0  0  0  0  0
   41.0480   33.0730   40.6710 C   0  0  0  0  0  0  0  0  0  0  0  0
   40.1850   34.1450   40.8390 F   0  0  0  0  0  0  0  0  0  0  0  0
   42.1300   33.2940   41.5220 F   0  0  0  0  0  0  0  0  0  0  0  0
   41.4930   33.1100   39.4000 F   0  0  0  0  0  0  0  0  0  0  0  0
   38.7840   32.1720   39.4170 O   0  0  0  0  0  0  0  0  0  0  0  0
   37.4850   32.7460   39.3030 C   0  0  0  0  0  0  0  0  0  0  0  0
   37.1080   32.6560   37.9770 F   0  0  0  0  0  0  0  0  0  0  0  0
   36.6230   32.0950   40.1540 F   0  0  0  0  0  0  0  0  0  0  0  0
   37.5600   34.0960   39.5680 F   0  0  0  0  0  0  0  0  0  0  0  0
   38.6390   24.5680   41.2850 C   0  0  0  0  0  0  0  0  0  0  0  0
   39.4370   24.8550   40.5440 H   0  0  0  0  0  0  0  0  0  0  0  0
   39.1200   23.9090   42.0060 H   0  0  0  0  0  0  0  0  0  0  0  0
   37.6260   23.8960   40.5050 N   0  0  0  0  0  0  0  0  0  0  0  0
   37.6430   24.3200   39.1180 C   0  0  0  0  0  2  0  0  0  0  0  0
   37.1000   23.1380   38.3060 C   0  0  0  0  0  2  0  0  0  0  0  0
   36.8520   22.0720   39.3820 C   0  0  0  0  0  2  0  0  0  0  0  0
   37.9450   22.4870   40.3780 C   0  0  0  0  0  3  0  0  0  0  0  0
   38.9070   22.3020   39.8450 H   0  0  0  0  0  0  0  0  0  0  0  0
  1  2  1  0  0  0  0
  2  7  2  0  0  0  0
  2  3  1  0  0  0  0
  3  4  2  0  0  0  0
  4  5  1  0  0  0  0
  4  8  1  0  0  0  0
  5  9  1  0  0  0  0
  6 10  1  0  0  0  0
  6  5  2  0  0  0  0
  7  6  1  0  0  0  0
 11 16  2  0  0  0  0
 11 12  1  0  0  0  0
 12 13  2  0  0  0  0
 13 14  1  0  0  0  0
 13 17  1  0  0  0  0
 15  3  1  0  0  0  0
 15 14  2  0  0  0  0
 16 15  1  0  0  0  0
 18 19  1  0  0  0  0
 18 12  1  0  0  0  0
 18 20  1  0  0  0  0
 21 18  1  0  0  0  0
 22 11  1  0  0  0  0
 23 22  1  0  0  0  0
 23 26  1  0  0  0  0
 23 25  1  0  0  0  0
 24 23  1  0  0  0  0
 27  7  1  0  0  0  0
 27 29  1  0  0  0  0
 28 27  1  0  0  0  0
 30 27  1  0  0  0  0
 31 30  1  0  0  0  0
 32 31  1  0  0  0  0
 32 33  1  0  0  0  0
 33 34  1  0  0  0  0
 34 30  1  0  0  0  0
 35 34  1  0  0  0  0
M  END
>  <minimizedAffinity>
-5.49813032

$$$$

 OpenBabel03252504193D

 35 37  0  0  0  0  0  0  0  0999 V2000
   36.8660   26.8150   38.7050 F   0  0  0  0  0  0  0  0  0  0  0  0
   36.8960   26.2490   39.9710 C   0  0  0  0  0  0  0  0  0  0  0  0
   37.1980   27.0350   41.0580 C   0  0  0  0  0  0  0  0  0  0  0  0
   37.2090   26.3950   42.2910 C   0  0  0  0  0  0  0  0  0  0  0  0
   36.9290   25.0510   42.3890 C   0  0  0  0  0  0  0  0  0  0  0  0
   36.6310   24.3100   41.2610 C   0  0  0  0  0  0  0  0  0  0  0  0
   36.6080   24.9040   39.9950 C   0  0  0  0  0  0  0  0  0  0  0  0
   37.4360   26.9420   43.1820 H   0  0  0  0  0  0  0  0  0  0  0  0
   36.9310   24.5240   43.3440 H   0  0  0  0  0  0  0  0  0  0  0  0
   36.4160   23.2660   41.3530 H   0  0  0  0  0  0  0  0  0  0  0  0
   37.3040   30.3940   39.6130 C   0  0  0  0  0  0  0  0  0  0  0  0
   37.9920   31.1440   40.5630 C   0  0  0  0  0  0  0  0  0  0  0  0
   38.4230   30.4710   41.7200 C   0  0  0  0  0  0  0  0  0  0  0  0
   38.1620   29.1540   41.8650 N   0  0  0  0  0  0  0  0  0  0  0  0
   37.4930   28.4650   40.9210 C   0  0  0  0  0  0  0  0  0  0  0  0
   37.0660   29.0780   39.8040 N   0  0  0  0  0  0  0  0  0  0  0  0
   38.9620   31.0480   42.4690 H   0  0  0  0  0  0  0  0  0  0  0  0
   38.2350   32.5710   40.3310 C   0  0  0  0  0  0  0  0  0  0  0  0
   39.0950   32.7420   39.2580 F   0  0  0  0  0  0  0  0  0  0  0  0
   37.0270   33.1660   39.9730 F   0  0  0  0  0  0  0  0  0  0  0  0
   38.7510   33.2500   41.3730 F   0  0  0  0  0  0  0  0  0  0  0  0
   36.8880   31.0330   38.5050 O   0  0  0  0  0  0  0  0  0  0  0  0
   37.3690   30.8470   37.1770 C   0  0  0  0  0  0  0  0  0  0  0  0
   38.6370   30.3080   37.2680 F   0  0  0  0  0  0  0  0  0  0  0  0
   36.4920   30.0490   36.4820 F   0  0  0  0  0  0  0  0  0  0  0  0
   37.5410   32.0780   36.5800 F   0  0  0  0  0  0  0  0  0  0  0  0
   36.2910   24.1410   38.7620 C   0  0  0  0  0  0  0  0  0  0  0  0
   35.5410   23.3580   39.0670 H   0  0  0  0  0  0  0  0  0  0  0  0
   35.8090   24.7330   37.9850 H   0  0  0  0  0  0  0  0  0  0  0  0
   37.4290   23.4000   38.2720 N   0  0  0  0  0  0  0  0  0  0  0  0
   38.6610   24.1550   38.4000 C   0  0  0  0  0  2  0  0  0  0  0  0
   39.7820   23.1180   38.5380 C   0  0  0  0  0  2  0  0  0  0  0  0
   39.0190   21.7870   38.5160 C   0  0  0  0  0  2  0  0  0  0  0  0
   37.6980   22.2650   39.1350 C   0  0  0  0  0  3  0  0  0  0  0  0
   37.9580   22.5600   40.1790 H   0  0  0  0  0  0  0  0  0  0  0  0
  1  2  1  0  0  0  0
  2  7  2  0  0  0  0
  2  3  1  0  0  0  0
  3  4  2  0  0  0  0
  4  5  1  0  0  0  0
  4  8  1  0  0  0  0
  5  9  1  0  0  0  0
  6 10  1  0  0  0  0
  6  5  2  0  0  0  0
  7  6  1  0  0  0  0
 11 16  2  0  0  0  0
 11 12  1  0  0  0  0
 12 13  2  0  0  0  0
 13 14  1  0  0  0  0
 13 17  1  0  0  0  0
 15  3  1  0  0  0  0
 15 14  2  0  0  0  0
 16 15  1  0  0  0  0
 18 12  1  0  0  0  0
 18 21  1  0  0  0  0
 19 18  1  0  0  0  0
 20 18  1  0  0  0  0
 22 11  1  0  0  0  0
 23 24  1  0  0  0  0
 23 22  1  0  0  0  0
 25 23  1  0  0  0  0
 26 23  1  0  0  0  0
 27 28  1  0  0  0  0
 27  7  1  0  0  0  0
 29 27  1  0  0  0  0
 30 31  1  0  0  0  0
 30 27  1  0  0  0  0
 30 34  1  0  0  0  0
 31 32  1  0  0  0  0
 33 32  1  0  0  0  0
 33 34  1  0  0  0  0
 34 35  1  0  0  0  0
M  END
>  <minimizedAffinity>
-5.49267149

$$$$

 OpenBabel03252504193D

 35 37  0  0  0  0  0  0  0  0999 V2000
   37.4170   27.2380   39.2210 F   0  0  0  0  0  0  0  0  0  0  0  0
   37.2300   26.9050   40.5550 C   0  0  0  0  0  0  0  0  0  0  0  0
   37.2420   27.8950   41.5100 C   0  0  0  0  0  0  0  0  0  0  0  0
   37.0480   27.4820   42.8210 C   0  0  0  0  0  0  0  0  0  0  0  0
   36.8570   26.1510   43.1190 C   0  0  0  0  0  0  0  0  0  0  0  0
   36.8530   25.1990   42.1180 C   0  0  0  0  0  0  0  0  0  0  0  0
   37.0450   25.5610   40.7810 C   0  0  0  0  0  0  0  0  0  0  0  0
   37.0460   28.1950   43.6180 H   0  0  0  0  0  0  0  0  0  0  0  0
   36.7020   25.8000   44.1410 H   0  0  0  0  0  0  0  0  0  0  0  0
   36.7030   24.1700   42.3650 H   0  0  0  0  0  0  0  0  0  0  0  0
   38.9790   30.9990   40.6570 C   0  0  0  0  0  0  0  0  0  0  0  0
   37.9520   31.9250   40.5020 C   0  0  0  0  0  0  0  0  0  0  0  0
   36.6380   31.4610   40.6970 C   0  0  0  0  0  0  0  0  0  0  0  0
   36.4260   30.1670   41.0200 N   0  0  0  0  0  0  0  0  0  0  0  0
   37.4500   29.3040   41.1600 C   0  0  0  0  0  0  0  0  0  0  0  0
   38.7170   29.7150   40.9800 N   0  0  0  0  0  0  0  0  0  0  0  0
   35.8270   32.1760   40.5780 H   0  0  0  0  0  0  0  0  0  0  0  0
   38.2650   33.3130   40.1500 C   0  0  0  0  0  0  0  0  0  0  0  0
   37.1140   33.9800   39.7620 F   0  0  0  0  0  0  0  0  0  0  0  0
   38.7350   33.9580   41.2930 F   0  0  0  0  0  0  0  0  0  0  0  0
   39.1740   33.4730   39.1680 F   0  0  0  0  0  0  0  0  0  0  0  0
   40.2370   31.4380   40.4720 O   0  0  0  0  0  0  0  0  0  0  0  0
   41.2050   31.7180   41.4790 C   0  0  0  0  0  0  0  0  0  0  0  0
   41.5870   33.0370   41.3290 F   0  0  0  0  0  0  0  0  0  0  0  0
   40.6680   31.4490   42.7150 F   0  0  0  0  0  0  0  0  0  0  0  0
   42.3440   30.9810   41.2320 F   0  0  0  0  0  0  0  0  0  0  0  0
   37.0470   24.5660   39.6790 C   0  0  0  0  0  0  0  0  0  0  0  0
   37.3960   25.1210   38.7630 H   0  0  0  0  0  0  0  0  0  0  0  0
   37.7510   23.7480   39.8210 H   0  0  0  0  0  0  0  0  0  0  0  0
   35.7170   24.1070   39.3560 N   0  0  0  0  0  0  0  0  0  0  0  0
   35.2870   24.5700   38.0500 C   0  0  0  0  0  2  0  0  0  0  0  0
   34.2840   23.5290   37.5390 C   0  0  0  0  0  2  0  0  0  0  0  0
   34.2750   22.4860   38.6640 C   0  0  0  0  0  2  0  0  0  0  0  0
   35.7140   22.6690   39.1650 C   0  0  0  0  0  3  0  0  0  0  0  0
   36.3600   22.3390   38.3170 H   0  0  0  0  0  0  0  0  0  0  0  0
  1  2  1  0  0  0  0
  2  7  2  0  0  0  0
  2  3  1  0  0  0  0
  3  4  2  0  0  0  0
  4  5  1  0  0  0  0
  4  8  1  0  0  0  0
  5  9  1  0  0  0  0
  6 10  1  0  0  0  0
  6  5  2  0  0  0  0
  7  6  1  0  0  0  0
 11 16  1  0  0  0  0
 12 11  2  0  0  0  0
 12 13  1  0  0  0  0
 13 14  2  0  0  0  0
 14 15  1  0  0  0  0
 15  3  1  0  0  0  0
 16 15  2  0  0  0  0
 17 13  1  0  0  0  0
 18 12  1  0  0  0  0
 18 20  1  0  0  0  0
 19 18  1  0  0  0  0
 21 18  1  0  0  0  0
 22 11  1  0  0  0  0
 22 23  1  0  0  0  0
 23 25  1  0  0  0  0
 24 23  1  0  0  0  0
 26 23  1  0  0  0  0
 27 29  1  0  0  0  0
 27  7  1  0  0  0  0
 28 27  1  0  0  0  0
 30 27  1  0  0  0  0
 31 30  1  0  0  0  0
 32 31  1  0  0  0  0
 32 33  1  0  0  0  0
 33 34  1  0  0  0  0
 34 30  1  0  0  0  0
 35 34  1  0  0  0  0
M  END
>  <minimizedAffinity>
-5.39087248

$$$$
