
 OpenBabel03252509283D

 18 19  0  0  0  0  0  0  0  0999 V2000
   44.5170   35.9090   44.3360 C   0  0  0  0  0  0  0  0  0  0  0  0
   45.1270   35.2170   43.2710 C   0  0  0  0  0  0  0  0  0  0  0  0
   45.7620   34.0170   43.5500 C   0  0  0  0  0  0  0  0  0  0  0  0
   45.7640   33.5650   44.8390 N   0  0  0  0  0  0  0  0  0  0  0  0
   45.1630   34.2620   45.8450 C   0  0  0  0  0  0  0  0  0  0  0  0
   44.5480   35.4200   45.5900 N   0  0  0  0  0  0  0  0  0  0  0  0
   44.0240   36.8490   44.0980 H   0  0  0  0  0  0  0  0  0  0  0  0
   45.1180   35.5870   42.2510 H   0  0  0  0  0  0  0  0  0  0  0  0
   45.1900   33.8650   46.8540 H   0  0  0  0  0  0  0  0  0  0  0  0
   46.3940   33.3000   42.4460 C   0  0  0  0  0  0  0  0  0  0  0  0
   46.6720   32.2950   42.8190 H   0  0  0  0  0  0  0  0  0  0  0  0
   45.6710   33.1810   41.6160 H   0  0  0  0  0  0  0  0  0  0  0  0
   47.5350   33.9980   41.8900 N   0  0  0  0  0  0  0  0  0  0  0  0
   48.5320   34.3690   42.8310 C   0  0  0  0  0  3  0  0  0  0  0  0
   49.8100   33.6550   42.4640 C   0  0  0  0  0  3  0  0  0  0  0  0
   49.5770   33.0580   41.1060 C   0  0  0  0  0  2  0  0  0  0  0  0
   48.1290   33.3160   40.7960 C   0  0  0  0  0  3  0  0  0  0  0  0
   47.6070   32.3810   40.5080 H   0  0  0  0  0  0  0  0  0  0  0  0
  1  6  1  0  0  0  0
  2  3  1  0  0  0  0
  2  1  2  0  0  0  0
  3  4  2  0  0  0  0
  4  5  1  0  0  0  0
  5  9  1  0  0  0  0
  6  5  2  0  0  0  0
  7  1  1  0  0  0  0
  8  2  1  0  0  0  0
 10 11  1  0  0  0  0
 10  3  1  0  0  0  0
 12 10  1  0  0  0  0
 13 10  1  0  0  0  0
 13 14  1  0  0  0  0
 15 14  2  0  0  0  0
 16 15  1  0  0  0  0
 17 16  1  0  0  0  0
 17 13  1  0  0  0  0
 18 17  1  0  0  0  0
M  END
>  <minimizedAffinity>
-3.52652097

>  <minimizedRMSD>
1.28545165

$$$$
