
 OpenBabel03252502513D

 31 33  0  0  0  0  0  0  0  0999 V2000
   37.1610   28.1480   43.6800 C   0  0  0  0  0  0  0  0  0  0  0  0
   38.0650   29.1170   43.2220 C   0  0  0  0  0  0  0  0  0  0  0  0
   38.8030   28.8240   42.0630 C   0  0  0  0  0  0  0  0  0  0  0  0
   38.6030   27.6370   41.4570 N   0  0  0  0  0  0  0  0  0  0  0  0
   37.7170   26.7180   41.9290 C   0  0  0  0  0  0  0  0  0  0  0  0
   37.0010   26.9720   43.0340 N   0  0  0  0  0  0  0  0  0  0  0  0
   36.5980   28.3920   44.5800 H   0  0  0  0  0  0  0  0  0  0  0  0
   38.1900   30.0530   43.7400 H   0  0  0  0  0  0  0  0  0  0  0  0
   39.3880   24.4660   42.9230 Cl  0  0  0  0  0  0  0  0  0  0  0  0
   38.2810   24.3540   41.5860 C   0  0  0  0  0  0  0  0  0  0  0  0
   37.5600   25.4460   41.2080 C   0  0  0  0  0  0  0  0  0  0  0  0
   36.6540   25.3980   40.1320 C   0  0  0  0  0  0  0  0  0  0  0  0
   36.5410   24.1840   39.4870 C   0  0  0  0  0  0  0  0  0  0  0  0
   37.2670   23.0890   39.8690 C   0  0  0  0  0  0  0  0  0  0  0  0
   38.1370   23.1580   40.9130 C   0  0  0  0  0  0  0  0  0  0  0  0
   36.1020   26.3020   39.8710 H   0  0  0  0  0  0  0  0  0  0  0  0
   35.8380   24.1820   38.6650 H   0  0  0  0  0  0  0  0  0  0  0  0
   37.1540   22.1540   39.3420 H   0  0  0  0  0  0  0  0  0  0  0  0
   38.6940   22.2710   41.1860 H   0  0  0  0  0  0  0  0  0  0  0  0
   39.7620   29.8520   41.5780 C   0  0  0  0  0  0  0  0  0  0  0  0
   40.7250   29.3450   41.4070 H   0  0  0  0  0  0  0  0  0  0  0  0
   39.9510   30.5110   42.4750 H   0  0  0  0  0  0  0  0  0  0  0  0
   39.2320   30.6400   40.4240 C   0  0  0  0  0  0  0  0  0  0  0  0
   40.0690   30.9760   39.7770 H   0  0  0  0  0  0  0  0  0  0  0  0
   38.6420   29.9290   39.7750 H   0  0  0  0  0  0  0  0  0  0  0  0
   38.4090   31.7050   40.8860 N   0  0  0  0  0  0  0  0  0  0  0  0
   39.0170   33.0100   40.7230 C   0  0  0  0  0  2  0  0  0  0  0  0
   38.0180   33.8810   39.9980 C   0  0  0  0  0  2  0  0  0  0  0  0
   37.2350   32.8230   39.2490 C   0  0  0  0  0  2  0  0  0  0  0  0
   37.0900   31.7770   40.3660 C   0  0  0  0  0  3  0  0  0  0  0  0
   36.6750   30.8610   39.9460 H   0  0  0  0  0  0  0  0  0  0  0  0
  1  7  1  0  0  0  0
  2  1  1  0  0  0  0
  2  8  1  0  0  0  0
  3  2  2  0  0  0  0
  4  5  2  0  0  0  0
  4  3  1  0  0  0  0
  5  6  1  0  0  0  0
  6  1  2  0  0  0  0
 10  9  1  0  0  0  0
 11 10  1  0  0  0  0
 11  5  1  0  0  0  0
 12 11  2  0  0  0  0
 13 14  2  0  0  0  0
 13 12  1  0  0  0  0
 14 15  1  0  0  0  0
 15 19  1  0  0  0  0
 15 10  2  0  0  0  0
 16 12  1  0  0  0  0
 17 13  1  0  0  0  0
 18 14  1  0  0  0  0
 20  3  1  0  0  0  0
 20 22  1  0  0  0  0
 21 20  1  0  0  0  0
 23 26  1  0  0  0  0
 23 20  1  0  0  0  0
 24 23  1  0  0  0  0
 25 23  1  0  0  0  0
 27 26  1  0  0  0  0
 28 27  1  0  0  0  0
 29 28  1  0  0  0  0
 29 30  1  0  0  0  0
 30 26  1  0  0  0  0
 31 30  1  0  0  0  0
M  END
>  <minimizedAffinity>
-5.22292423

$$$$

 OpenBabel03252502513D

 31 33  0  0  0  0  0  0  0  0999 V2000
   37.7870   32.8300   40.1050 C   0  0  0  0  0  0  0  0  0  0  0  0
   38.4860   32.1810   41.1320 C   0  0  0  0  0  0  0  0  0  0  0  0
   38.4560   30.7770   41.1530 C   0  0  0  0  0  0  0  0  0  0  0  0
   37.7630   30.1330   40.1920 N   0  0  0  0  0  0  0  0  0  0  0  0
   37.0950   30.7960   39.2090 C   0  0  0  0  0  0  0  0  0  0  0  0
   37.1070   32.1360   39.1660 N   0  0  0  0  0  0  0  0  0  0  0  0
   37.8210   33.9190   40.1040 H   0  0  0  0  0  0  0  0  0  0  0  0
   39.0270   32.7380   41.8780 H   0  0  0  0  0  0  0  0  0  0  0  0
   34.7670   29.2460   40.2230 Cl  0  0  0  0  0  0  0  0  0  0  0  0
   35.2810   29.2740   38.5620 C   0  0  0  0  0  0  0  0  0  0  0  0
   36.3630   30.0180   38.1990 C   0  0  0  0  0  0  0  0  0  0  0  0
   36.8120   30.0680   36.8650 C   0  0  0  0  0  0  0  0  0  0  0  0
   36.0940   29.3220   35.9540 C   0  0  0  0  0  0  0  0  0  0  0  0
   35.0070   28.5760   36.3220 C   0  0  0  0  0  0  0  0  0  0  0  0
   34.5910   28.5430   37.6170 C   0  0  0  0  0  0  0  0  0  0  0  0
   37.6840   30.6790   36.6290 H   0  0  0  0  0  0  0  0  0  0  0  0
   36.4660   29.3810   34.9410 H   0  0  0  0  0  0  0  0  0  0  0  0
   34.4680   28.0040   35.5840 H   0  0  0  0  0  0  0  0  0  0  0  0
   33.7270   27.9420   37.8710 H   0  0  0  0  0  0  0  0  0  0  0  0
   39.1970   30.0880   42.2430 C   0  0  0  0  0  0  0  0  0  0  0  0
   38.6020   30.1990   43.1640 H   0  0  0  0  0  0  0  0  0  0  0  0
   40.1070   30.7330   42.4210 H   0  0  0  0  0  0  0  0  0  0  0  0
   39.5820   28.6880   41.8870 C   0  0  0  0  0  0  0  0  0  0  0  0
   39.3720   28.4980   40.8140 H   0  0  0  0  0  0  0  0  0  0  0  0
   40.7050   28.6170   41.9710 H   0  0  0  0  0  0  0  0  0  0  0  0
   38.9490   27.7610   42.7620 N   0  0  0  0  0  0  0  0  0  0  0  0
   37.8650   28.3450   43.5260 C   0  0  0  0  0  2  0  0  0  0  0  0
   36.6550   27.4610   43.3320 C   0  0  0  0  0  2  0  0  0  0  0  0
   36.9780   26.8590   41.9800 C   0  0  0  0  0  2  0  0  0  0  0  0
   38.4700   26.5540   42.1890 C   0  0  0  0  0  3  0  0  0  0  0  0
   38.9100   26.2510   41.2390 H   0  0  0  0  0  0  0  0  0  0  0  0
  1  2  1  0  0  0  0
  2  3  2  0  0  0  0
  2  8  1  0  0  0  0
  3 20  1  0  0  0  0
  4  3  1  0  0  0  0
  5  4  2  0  0  0  0
  6  5  1  0  0  0  0
  6  1  2  0  0  0  0
  7  1  1  0  0  0  0
 10  9  1  0  0  0  0
 11 10  1  0  0  0  0
 11  5  1  0  0  0  0
 12 11  2  0  0  0  0
 13 14  2  0  0  0  0
 13 12  1  0  0  0  0
 14 15  1  0  0  0  0
 15 19  1  0  0  0  0
 15 10  2  0  0  0  0
 16 12  1  0  0  0  0
 17 13  1  0  0  0  0
 18 14  1  0  0  0  0
 20 22  1  0  0  0  0
 20 21  1  0  0  0  0
 23 25  1  0  0  0  0
 23 20  1  0  0  0  0
 23 26  1  0  0  0  0
 24 23  1  0  0  0  0
 26 27  1  0  0  0  0
 28 27  1  0  0  0  0
 29 30  1  0  0  0  0
 29 28  1  0  0  0  0
 30 26  1  0  0  0  0
 31 30  1  0  0  0  0
M  END
>  <minimizedAffinity>
-5.09112787

$$$$

 OpenBabel03252502513D

 31 33  0  0  0  0  0  0  0  0999 V2000
   37.2410   28.0480   43.6720 C   0  0  0  0  0  0  0  0  0  0  0  0
   37.1340   26.9220   42.8430 C   0  0  0  0  0  0  0  0  0  0  0  0
   37.3130   27.1120   41.4620 C   0  0  0  0  0  0  0  0  0  0  0  0
   37.5760   28.3540   41.0120 N   0  0  0  0  0  0  0  0  0  0  0  0
   37.6730   29.4260   41.8460 C   0  0  0  0  0  0  0  0  0  0  0  0
   37.5060   29.2730   43.1680 N   0  0  0  0  0  0  0  0  0  0  0  0
   37.0990   27.8820   44.7400 H   0  0  0  0  0  0  0  0  0  0  0  0
   36.9220   25.9470   43.2490 H   0  0  0  0  0  0  0  0  0  0  0  0
   40.4050   30.4800   42.3700 Cl  0  0  0  0  0  0  0  0  0  0  0  0
   39.1860   31.3190   41.4580 C   0  0  0  0  0  0  0  0  0  0  0  0
   37.9620   30.7490   41.2740 C   0  0  0  0  0  0  0  0  0  0  0  0
   36.9480   31.3940   40.5420 C   0  0  0  0  0  0  0  0  0  0  0  0
   37.2660   32.6320   40.0240 C   0  0  0  0  0  0  0  0  0  0  0  0
   38.4960   33.2030   40.2100 C   0  0  0  0  0  0  0  0  0  0  0  0
   39.4620   32.5600   40.9210 C   0  0  0  0  0  0  0  0  0  0  0  0
   35.9860   30.8920   40.4250 H   0  0  0  0  0  0  0  0  0  0  0  0
   36.4650   33.1000   39.4690 H   0  0  0  0  0  0  0  0  0  0  0  0
   38.7120   34.1730   39.7910 H   0  0  0  0  0  0  0  0  0  0  0  0
   40.4230   33.0420   41.0480 H   0  0  0  0  0  0  0  0  0  0  0  0
   37.1990   25.9180   40.5820 C   0  0  0  0  0  0  0  0  0  0  0  0
   37.4170   26.2480   39.5540 H   0  0  0  0  0  0  0  0  0  0  0  0
   36.0960   25.6790   40.5690 H   0  0  0  0  0  0  0  0  0  0  0  0
   38.0030   24.7580   41.0740 C   0  0  0  0  0  0  0  0  0  0  0  0
   38.9810   24.7250   40.5500 H   0  0  0  0  0  0  0  0  0  0  0  0
   38.2670   24.9650   42.1520 H   0  0  0  0  0  0  0  0  0  0  0  0
   37.2570   23.5520   40.9580 N   0  0  0  0  0  0  0  0  0  0  0  0
   36.0050   23.7200   40.2480 C   0  0  0  0  0  2  0  0  0  0  0  0
   35.9660   22.6750   39.1560 C   0  0  0  0  0  2  0  0  0  0  0  0
   37.4500   22.4670   38.9340 C   0  0  0  0  0  2  0  0  0  0  0  0
   37.9220   22.4300   40.3960 C   0  0  0  0  0  3  0  0  0  0  0  0
   39.0120   22.4410   40.4210 H   0  0  0  0  0  0  0  0  0  0  0  0
  1  7  1  0  0  0  0
  2  8  1  0  0  0  0
  2  1  2  0  0  0  0
  3  2  1  0  0  0  0
  4  3  2  0  0  0  0
  4  5  1  0  0  0  0
  5  6  2  0  0  0  0
  6  1  1  0  0  0  0
 10  9  1  0  0  0  0
 11 10  1  0  0  0  0
 11  5  1  0  0  0  0
 12 11  2  0  0  0  0
 13 14  2  0  0  0  0
 13 12  1  0  0  0  0
 14 15  1  0  0  0  0
 15 19  1  0  0  0  0
 15 10  2  0  0  0  0
 16 12  1  0  0  0  0
 17 13  1  0  0  0  0
 18 14  1  0  0  0  0
 20 23  1  0  0  0  0
 20  3  1  0  0  0  0
 21 20  1  0  0  0  0
 22 20  1  0  0  0  0
 23 25  1  0  0  0  0
 24 23  1  0  0  0  0
 26 23  1  0  0  0  0
 27 26  1  0  0  0  0
 28 27  1  0  0  0  0
 29 28  1  0  0  0  0
 29 30  1  0  0  0  0
 30 31  1  0  0  0  0
 30 26  1  0  0  0  0
M  END
>  <minimizedAffinity>
-4.93023157

$$$$

 OpenBabel03252502513D

 31 33  0  0  0  0  0  0  0  0999 V2000
   37.2020   30.3830   38.1800 C   0  0  0  0  0  0  0  0  0  0  0  0
   37.3450   31.7620   38.3850 C   0  0  0  0  0  0  0  0  0  0  0  0
   37.6440   32.1990   39.6870 C   0  0  0  0  0  0  0  0  0  0  0  0
   37.7770   31.2760   40.6600 N   0  0  0  0  0  0  0  0  0  0  0  0
   37.6320   29.9430   40.4250 C   0  0  0  0  0  0  0  0  0  0  0  0
   37.3460   29.5000   39.1930 N   0  0  0  0  0  0  0  0  0  0  0  0
   36.9710   30.0620   37.1650 H   0  0  0  0  0  0  0  0  0  0  0  0
   37.2300   32.4630   37.5750 H   0  0  0  0  0  0  0  0  0  0  0  0
   40.4380   29.2140   41.0930 Cl  0  0  0  0  0  0  0  0  0  0  0  0
   39.0390   28.6060   41.9270 C   0  0  0  0  0  0  0  0  0  0  0  0
   37.7930   29.0020   41.5440 C   0  0  0  0  0  0  0  0  0  0  0  0
   36.6340   28.5340   42.1920 C   0  0  0  0  0  0  0  0  0  0  0  0
   36.8370   27.6540   43.2350 C   0  0  0  0  0  0  0  0  0  0  0  0
   38.0890   27.2570   43.6180 C   0  0  0  0  0  0  0  0  0  0  0  0
   39.1940   27.7240   42.9770 C   0  0  0  0  0  0  0  0  0  0  0  0
   35.6620   28.8830   41.8440 H   0  0  0  0  0  0  0  0  0  0  0  0
   35.9270   27.3130   43.7100 H   0  0  0  0  0  0  0  0  0  0  0  0
   38.2110   26.5670   44.4390 H   0  0  0  0  0  0  0  0  0  0  0  0
   40.1690   27.3880   43.3080 H   0  0  0  0  0  0  0  0  0  0  0  0
   37.7940   33.6620   39.9050 C   0  0  0  0  0  0  0  0  0  0  0  0
   36.8690   34.0180   40.3870 H   0  0  0  0  0  0  0  0  0  0  0  0
   37.7570   34.1100   38.8690 H   0  0  0  0  0  0  0  0  0  0  0  0
   39.0660   34.0150   40.6070 C   0  0  0  0  0  0  0  0  0  0  0  0
   39.1900   35.1170   40.6370 H   0  0  0  0  0  0  0  0  0  0  0  0
   38.9470   33.7150   41.6890 H   0  0  0  0  0  0  0  0  0  0  0  0
   40.1660   33.3360   40.0120 N   0  0  0  0  0  0  0  0  0  0  0  0
   40.9130   34.1610   39.0850 C   0  0  0  0  0  2  0  0  0  0  0  0
   42.3680   34.0820   39.4870 C   0  0  0  0  0  2  0  0  0  0  0  0
   42.2200   33.7710   40.9620 C   0  0  0  0  0  2  0  0  0  0  0  0
   41.0990   32.7220   40.8890 C   0  0  0  0  0  3  0  0  0  0  0  0
   40.7530   32.4980   41.8980 H   0  0  0  0  0  0  0  0  0  0  0  0
  1  2  2  0  0  0  0
  1  6  1  0  0  0  0
  2  3  1  0  0  0  0
  3 20  1  0  0  0  0
  3  4  2  0  0  0  0
  5  4  1  0  0  0  0
  5 11  1  0  0  0  0
  6  5  2  0  0  0  0
  7  1  1  0  0  0  0
  8  2  1  0  0  0  0
  9 10  1  0  0  0  0
 10 15  1  0  0  0  0
 11 10  2  0  0  0  0
 11 12  1  0  0  0  0
 12 13  2  0  0  0  0
 13 14  1  0  0  0  0
 13 17  1  0  0  0  0
 14 18  1  0  0  0  0
 15 19  1  0  0  0  0
 15 14  2  0  0  0  0
 16 12  1  0  0  0  0
 20 21  1  0  0  0  0
 20 23  1  0  0  0  0
 22 20  1  0  0  0  0
 23 24  1  0  0  0  0
 23 25  1  0  0  0  0
 26 23  1  0  0  0  0
 26 30  1  0  0  0  0
 27 28  1  0  0  0  0
 27 26  1  0  0  0  0
 28 29  1  0  0  0  0
 30 29  1  0  0  0  0
 30 31  1  0  0  0  0
M  END
>  <minimizedAffinity>
-4.92650938

$$$$

 OpenBabel03252502513D

 31 33  0  0  0  0  0  0  0  0999 V2000
   36.3770   28.6380   37.3230 C   0  0  0  0  0  0  0  0  0  0  0  0
   35.0070   28.8990   37.1780 C   0  0  0  0  0  0  0  0  0  0  0  0
   34.2280   28.9540   38.3460 C   0  0  0  0  0  0  0  0  0  0  0  0
   34.8340   28.7550   39.5330 N   0  0  0  0  0  0  0  0  0  0  0  0
   36.1680   28.5030   39.6370 C   0  0  0  0  0  0  0  0  0  0  0  0
   36.9340   28.4450   38.5390 N   0  0  0  0  0  0  0  0  0  0  0  0
   36.9660   28.5990   36.4070 H   0  0  0  0  0  0  0  0  0  0  0  0
   34.5670   29.0520   36.2070 H   0  0  0  0  0  0  0  0  0  0  0  0
   36.9230   30.9790   41.1040 Cl  0  0  0  0  0  0  0  0  0  0  0  0
   37.1290   29.3680   41.7240 C   0  0  0  0  0  0  0  0  0  0  0  0
   36.7500   28.2970   40.9720 C   0  0  0  0  0  0  0  0  0  0  0  0
   36.9000   26.9760   41.4360 C   0  0  0  0  0  0  0  0  0  0  0  0
   37.4510   26.8330   42.6930 C   0  0  0  0  0  0  0  0  0  0  0  0
   37.8300   27.9110   43.4460 C   0  0  0  0  0  0  0  0  0  0  0  0
   37.6750   29.1780   42.9770 C   0  0  0  0  0  0  0  0  0  0  0  0
   36.5800   26.1550   40.7930 H   0  0  0  0  0  0  0  0  0  0  0  0
   37.5530   25.8070   43.0180 H   0  0  0  0  0  0  0  0  0  0  0  0
   38.2580   27.7630   44.4250 H   0  0  0  0  0  0  0  0  0  0  0  0
   37.9870   30.0060   43.6010 H   0  0  0  0  0  0  0  0  0  0  0  0
   32.7750   29.2300   38.1930 C   0  0  0  0  0  0  0  0  0  0  0  0
   32.5320   30.0800   38.8500 H   0  0  0  0  0  0  0  0  0  0  0  0
   32.2650   28.3480   38.6800 H   0  0  0  0  0  0  0  0  0  0  0  0
   32.3610   29.3780   36.7640 C   0  0  0  0  0  0  0  0  0  0  0  0
   33.0390   30.0870   36.2440 H   0  0  0  0  0  0  0  0  0  0  0  0
   32.5470   28.3870   36.2560 H   0  0  0  0  0  0  0  0  0  0  0  0
   30.9880   29.7400   36.6790 N   0  0  0  0  0  0  0  0  0  0  0  0
   30.4790   30.3410   37.8950 C   0  0  0  0  0  2  0  0  0  0  0  0
   29.8160   31.6420   37.5070 C   0  0  0  0  0  2  0  0  0  0  0  0
   30.5830   31.9650   36.2420 C   0  0  0  0  0  2  0  0  0  0  0  0
   30.6030   30.5720   35.5950 C   0  0  0  0  0  3  0  0  0  0  0  0
   31.2650   30.5890   34.7290 H   0  0  0  0  0  0  0  0  0  0  0  0
  1  6  1  0  0  0  0
  2  1  2  0  0  0  0
  2  3  1  0  0  0  0
  3  4  2  0  0  0  0
  4  5  1  0  0  0  0
  5 11  1  0  0  0  0
  6  5  2  0  0  0  0
  7  1  1  0  0  0  0
  8  2  1  0  0  0  0
  9 10  1  0  0  0  0
 10 15  1  0  0  0  0
 11 12  1  0  0  0  0
 11 10  2  0  0  0  0
 12 13  2  0  0  0  0
 13 17  1  0  0  0  0
 13 14  1  0  0  0  0
 14 18  1  0  0  0  0
 15 14  2  0  0  0  0
 15 19  1  0  0  0  0
 16 12  1  0  0  0  0
 20  3  1  0  0  0  0
 20 22  1  0  0  0  0
 20 21  1  0  0  0  0
 23 20  1  0  0  0  0
 24 23  1  0  0  0  0
 25 23  1  0  0  0  0
 26 23  1  0  0  0  0
 26 27  1  0  0  0  0
 28 27  1  0  0  0  0
 29 28  1  0  0  0  0
 30 29  1  0  0  0  0
 30 26  1  0  0  0  0
 31 30  1  0  0  0  0
M  END
>  <minimizedAffinity>
-4.89280891

$$$$

 OpenBabel03252502513D

 31 33  0  0  0  0  0  0  0  0999 V2000
   37.0180   30.5780   41.4250 C   0  0  0  0  0  0  0  0  0  0  0  0
   37.2450   29.4590   42.2380 C   0  0  0  0  0  0  0  0  0  0  0  0
   36.7580   28.2200   41.7890 C   0  0  0  0  0  0  0  0  0  0  0  0
   36.1030   28.1740   40.6120 N   0  0  0  0  0  0  0  0  0  0  0  0
   35.9000   29.2820   39.8480 C   0  0  0  0  0  0  0  0  0  0  0  0
   36.3540   30.4760   40.2530 N   0  0  0  0  0  0  0  0  0  0  0  0
   37.4030   31.5310   41.7880 H   0  0  0  0  0  0  0  0  0  0  0  0
   37.7750   29.5440   43.1720 H   0  0  0  0  0  0  0  0  0  0  0  0
   37.5930   29.2640   37.4020 Cl  0  0  0  0  0  0  0  0  0  0  0  0
   35.8600   29.1260   37.3990 C   0  0  0  0  0  0  0  0  0  0  0  0
   35.1750   29.1450   38.5760 C   0  0  0  0  0  0  0  0  0  0  0  0
   33.7720   29.0360   38.6180 C   0  0  0  0  0  0  0  0  0  0  0  0
   33.1370   28.9090   37.4000 C   0  0  0  0  0  0  0  0  0  0  0  0
   33.8270   28.8910   36.2190 C   0  0  0  0  0  0  0  0  0  0  0  0
   35.1840   28.9970   36.2030 C   0  0  0  0  0  0  0  0  0  0  0  0
   33.2730   29.0560   39.5880 H   0  0  0  0  0  0  0  0  0  0  0  0
   32.0610   28.8290   37.4670 H   0  0  0  0  0  0  0  0  0  0  0  0
   33.2990   28.7900   35.2830 H   0  0  0  0  0  0  0  0  0  0  0  0
   35.6970   28.9790   35.2500 H   0  0  0  0  0  0  0  0  0  0  0  0
   36.9990   27.0320   42.6510 C   0  0  0  0  0  0  0  0  0  0  0  0
   36.1410   26.3530   42.5200 H   0  0  0  0  0  0  0  0  0  0  0  0
   36.8870   27.4180   43.7060 H   0  0  0  0  0  0  0  0  0  0  0  0
   38.3460   26.4220   42.4330 C   0  0  0  0  0  0  0  0  0  0  0  0
   38.9430   27.0560   41.7460 H   0  0  0  0  0  0  0  0  0  0  0  0
   38.8990   26.4710   43.4160 H   0  0  0  0  0  0  0  0  0  0  0  0
   38.2160   25.0750   41.9920 N   0  0  0  0  0  0  0  0  0  0  0  0
   36.8580   24.5760   42.0710 C   0  0  0  0  0  2  0  0  0  0  0  0
   36.5140   24.0020   40.7160 C   0  0  0  0  0  2  0  0  0  0  0  0
   37.4420   24.8160   39.8380 C   0  0  0  0  0  2  0  0  0  0  0  0
   38.7130   24.7660   40.6990 C   0  0  0  0  0  3  0  0  0  0  0  0
   39.4550   25.4470   40.2810 H   0  0  0  0  0  0  0  0  0  0  0  0
  1  7  1  0  0  0  0
  1  2  1  0  0  0  0
  2  8  1  0  0  0  0
  3  2  2  0  0  0  0
  3 20  1  0  0  0  0
  4  3  1  0  0  0  0
  5  6  1  0  0  0  0
  5  4  2  0  0  0  0
  6  1  2  0  0  0  0
 10  9  1  0  0  0  0
 10 11  1  0  0  0  0
 11 12  2  0  0  0  0
 11  5  1  0  0  0  0
 12 16  1  0  0  0  0
 13 17  1  0  0  0  0
 13 12  1  0  0  0  0
 14 13  2  0  0  0  0
 15 14  1  0  0  0  0
 15 10  2  0  0  0  0
 18 14  1  0  0  0  0
 19 15  1  0  0  0  0
 20 22  1  0  0  0  0
 21 20  1  0  0  0  0
 23 20  1  0  0  0  0
 23 25  1  0  0  0  0
 24 23  1  0  0  0  0
 26 27  1  0  0  0  0
 26 23  1  0  0  0  0
 28 27  1  0  0  0  0
 29 30  1  0  0  0  0
 29 28  1  0  0  0  0
 30 26  1  0  0  0  0
 31 30  1  0  0  0  0
M  END
>  <minimizedAffinity>
-4.8533864

$$$$

 OpenBabel03252502513D

 31 33  0  0  0  0  0  0  0  0999 V2000
   35.4610   29.1840   40.6780 C   0  0  0  0  0  0  0  0  0  0  0  0
   36.0990   29.8950   39.6520 C   0  0  0  0  0  0  0  0  0  0  0  0
   37.4020   29.5040   39.3010 C   0  0  0  0  0  0  0  0  0  0  0  0
   37.9640   28.4740   39.9640 N   0  0  0  0  0  0  0  0  0  0  0  0
   37.3160   27.8050   40.9560 C   0  0  0  0  0  0  0  0  0  0  0  0
   36.0720   28.1590   41.3110 N   0  0  0  0  0  0  0  0  0  0  0  0
   34.4510   29.5010   40.9370 H   0  0  0  0  0  0  0  0  0  0  0  0
   35.6080   30.7120   39.1500 H   0  0  0  0  0  0  0  0  0  0  0  0
   39.1120   28.5760   43.2000 Cl  0  0  0  0  0  0  0  0  0  0  0  0
   38.8460   26.9410   42.6690 C   0  0  0  0  0  0  0  0  0  0  0  0
   38.0020   26.6930   41.6300 C   0  0  0  0  0  0  0  0  0  0  0  0
   37.7600   25.3850   41.1690 C   0  0  0  0  0  0  0  0  0  0  0  0
   38.4260   24.3750   41.8320 C   0  0  0  0  0  0  0  0  0  0  0  0
   39.2730   24.6270   42.8760 C   0  0  0  0  0  0  0  0  0  0  0  0
   39.4920   25.9000   43.3050 C   0  0  0  0  0  0  0  0  0  0  0  0
   37.0750   25.2420   40.3330 H   0  0  0  0  0  0  0  0  0  0  0  0
   38.2190   23.3840   41.4530 H   0  0  0  0  0  0  0  0  0  0  0  0
   39.7790   23.8130   43.3730 H   0  0  0  0  0  0  0  0  0  0  0  0
   40.1690   26.0610   44.1340 H   0  0  0  0  0  0  0  0  0  0  0  0
   38.0780   30.2580   38.2130 C   0  0  0  0  0  0  0  0  0  0  0  0
   37.6220   29.9410   37.2610 H   0  0  0  0  0  0  0  0  0  0  0  0
   39.1220   29.8290   38.1750 H   0  0  0  0  0  0  0  0  0  0  0  0
   38.1020   31.7320   38.4590 C   0  0  0  0  0  0  0  0  0  0  0  0
   38.2990   32.2730   37.5090 H   0  0  0  0  0  0  0  0  0  0  0  0
   37.0560   32.0410   38.7480 H   0  0  0  0  0  0  0  0  0  0  0  0
   39.0270   32.0480   39.4930 N   0  0  0  0  0  0  0  0  0  0  0  0
   40.1540   32.8350   39.0320 C   0  0  0  0  0  2  0  0  0  0  0  0
   40.2590   34.0390   39.9390 C   0  0  0  0  0  2  0  0  0  0  0  0
   38.8170   34.1600   40.3890 C   0  0  0  0  0  2  0  0  0  0  0  0
   38.5100   32.6780   40.6550 C   0  0  0  0  0  3  0  0  0  0  0  0
   37.4420   32.5630   40.8430 H   0  0  0  0  0  0  0  0  0  0  0  0
  1  7  1  0  0  0  0
  1  6  1  0  0  0  0
  2  1  2  0  0  0  0
  3  2  1  0  0  0  0
  3  4  2  0  0  0  0
  4  5  1  0  0  0  0
  5  6  2  0  0  0  0
  5 11  1  0  0  0  0
  8  2  1  0  0  0  0
 10  9  1  0  0  0  0
 10 15  1  0  0  0  0
 11 10  2  0  0  0  0
 12 11  1  0  0  0  0
 12 13  2  0  0  0  0
 13 14  1  0  0  0  0
 14 15  2  0  0  0  0
 14 18  1  0  0  0  0
 15 19  1  0  0  0  0
 16 12  1  0  0  0  0
 17 13  1  0  0  0  0
 20 23  1  0  0  0  0
 20  3  1  0  0  0  0
 21 20  1  0  0  0  0
 22 20  1  0  0  0  0
 23 25  1  0  0  0  0
 23 26  1  0  0  0  0
 24 23  1  0  0  0  0
 26 30  1  0  0  0  0
 27 26  1  0  0  0  0
 27 28  1  0  0  0  0
 28 29  1  0  0  0  0
 29 30  1  0  0  0  0
 30 31  1  0  0  0  0
M  END
>  <minimizedAffinity>
-4.84764814

$$$$

 OpenBabel03252502513D

 31 33  0  0  0  0  0  0  0  0999 V2000
   35.8200   30.3690   40.6890 C   0  0  0  0  0  0  0  0  0  0  0  0
   36.9680   31.1290   40.9550 C   0  0  0  0  0  0  0  0  0  0  0  0
   38.1520   30.4360   41.2550 C   0  0  0  0  0  0  0  0  0  0  0  0
   38.1220   29.0880   41.2710 N   0  0  0  0  0  0  0  0  0  0  0  0
   36.9890   28.3820   41.0080 C   0  0  0  0  0  0  0  0  0  0  0  0
   35.8450   29.0190   40.7190 N   0  0  0  0  0  0  0  0  0  0  0  0
   34.9110   30.9230   40.4570 H   0  0  0  0  0  0  0  0  0  0  0  0
   36.9430   32.2060   40.9290 H   0  0  0  0  0  0  0  0  0  0  0  0
   36.5360   27.1520   43.6790 Cl  0  0  0  0  0  0  0  0  0  0  0  0
   36.8480   26.2540   42.2240 C   0  0  0  0  0  0  0  0  0  0  0  0
   37.0420   26.9130   41.0470 C   0  0  0  0  0  0  0  0  0  0  0  0
   37.2980   26.2240   39.8460 C   0  0  0  0  0  0  0  0  0  0  0  0
   37.3380   24.8480   39.9330 C   0  0  0  0  0  0  0  0  0  0  0  0
   37.1420   24.1880   41.1160 C   0  0  0  0  0  0  0  0  0  0  0  0
   36.8960   24.8760   42.2640 C   0  0  0  0  0  0  0  0  0  0  0  0
   37.4460   26.8010   38.9330 H   0  0  0  0  0  0  0  0  0  0  0  0
   37.5370   24.3500   38.9940 H   0  0  0  0  0  0  0  0  0  0  0  0
   37.1800   23.1100   41.1480 H   0  0  0  0  0  0  0  0  0  0  0  0
   36.7460   24.3200   43.1820 H   0  0  0  0  0  0  0  0  0  0  0  0
   39.3700   31.2420   41.5380 C   0  0  0  0  0  0  0  0  0  0  0  0
   40.2340   30.6720   41.1600 H   0  0  0  0  0  0  0  0  0  0  0  0
   39.4820   31.2030   42.6610 H   0  0  0  0  0  0  0  0  0  0  0  0
   39.2580   32.6500   41.0490 C   0  0  0  0  0  0  0  0  0  0  0  0
   38.4470   32.7270   40.2950 H   0  0  0  0  0  0  0  0  0  0  0  0
   38.9000   33.2780   41.9150 H   0  0  0  0  0  0  0  0  0  0  0  0
   40.5180   33.1120   40.5750 N   0  0  0  0  0  0  0  0  0  0  0  0
   41.5270   32.0740   40.5290 C   0  0  0  0  0  2  0  0  0  0  0  0
   42.1230   32.0910   39.1390 C   0  0  0  0  0  2  0  0  0  0  0  0
   40.9590   32.6660   38.3580 C   0  0  0  0  0  2  0  0  0  0  0  0
   40.5330   33.7830   39.3240 C   0  0  0  0  0  3  0  0  0  0  0  0
   39.5900   34.2100   38.9830 H   0  0  0  0  0  0  0  0  0  0  0  0
  1  6  2  0  0  0  0
  1  2  1  0  0  0  0
  2  3  2  0  0  0  0
  3  4  1  0  0  0  0
  3 20  1  0  0  0  0
  5 11  1  0  0  0  0
  5  4  2  0  0  0  0
  6  5  1  0  0  0  0
  7  1  1  0  0  0  0
  8  2  1  0  0  0  0
 10 15  1  0  0  0  0
 10  9  1  0  0  0  0
 11 10  2  0  0  0  0
 12 13  2  0  0  0  0
 12 11  1  0  0  0  0
 13 14  1  0  0  0  0
 14 18  1  0  0  0  0
 14 15  2  0  0  0  0
 15 19  1  0  0  0  0
 16 12  1  0  0  0  0
 17 13  1  0  0  0  0
 20 22  1  0  0  0  0
 21 20  1  0  0  0  0
 23 20  1  0  0  0  0
 23 25  1  0  0  0  0
 24 23  1  0  0  0  0
 26 23  1  0  0  0  0
 27 26  1  0  0  0  0
 28 27  1  0  0  0  0
 29 28  1  0  0  0  0
 29 30  1  0  0  0  0
 30 26  1  0  0  0  0
 31 30  1  0  0  0  0
M  END
>  <minimizedAffinity>
-4.84273672

$$$$

 OpenBabel03252502513D

 31 33  0  0  0  0  0  0  0  0999 V2000
   37.0530   30.1410   37.0480 C   0  0  0  0  0  0  0  0  0  0  0  0
   36.4950   29.1780   37.9000 C   0  0  0  0  0  0  0  0  0  0  0  0
   36.9020   29.1840   39.2440 C   0  0  0  0  0  0  0  0  0  0  0  0
   37.8010   30.1070   39.6400 N   0  0  0  0  0  0  0  0  0  0  0  0
   38.3230   31.0280   38.7850 C   0  0  0  0  0  0  0  0  0  0  0  0
   37.9520   31.0450   37.4970 N   0  0  0  0  0  0  0  0  0  0  0  0
   36.7260   30.1220   36.0090 H   0  0  0  0  0  0  0  0  0  0  0  0
   35.7790   28.4590   37.5380 H   0  0  0  0  0  0  0  0  0  0  0  0
   37.2090   33.6760   39.5600 Cl  0  0  0  0  0  0  0  0  0  0  0  0
   38.8890   33.2430   39.6800 C   0  0  0  0  0  0  0  0  0  0  0  0
   39.2990   32.0010   39.2990 C   0  0  0  0  0  0  0  0  0  0  0  0
   40.6490   31.6110   39.3790 C   0  0  0  0  0  0  0  0  0  0  0  0
   41.5270   32.5570   39.8670 C   0  0  0  0  0  0  0  0  0  0  0  0
   41.1120   33.8030   40.2500 C   0  0  0  0  0  0  0  0  0  0  0  0
   39.8010   34.1580   40.1630 C   0  0  0  0  0  0  0  0  0  0  0  0
   40.9240   30.6040   39.0600 H   0  0  0  0  0  0  0  0  0  0  0  0
   42.5550   32.2250   39.9150 H   0  0  0  0  0  0  0  0  0  0  0  0
   41.8250   34.5200   40.6270 H   0  0  0  0  0  0  0  0  0  0  0  0
   39.5090   35.1530   40.4750 H   0  0  0  0  0  0  0  0  0  0  0  0
   36.3110   28.1620   40.1480 C   0  0  0  0  0  0  0  0  0  0  0  0
   36.8740   27.2270   39.9990 H   0  0  0  0  0  0  0  0  0  0  0  0
   35.2940   27.9460   39.7070 H   0  0  0  0  0  0  0  0  0  0  0  0
   36.2030   28.6330   41.5630 C   0  0  0  0  0  0  0  0  0  0  0  0
   36.8010   29.5570   41.7020 H   0  0  0  0  0  0  0  0  0  0  0  0
   35.1350   28.9590   41.7270 H   0  0  0  0  0  0  0  0  0  0  0  0
   36.5570   27.5880   42.4620 N   0  0  0  0  0  0  0  0  0  0  0  0
   37.3640   26.5540   41.8480 C   0  0  0  0  0  2  0  0  0  0  0  0
   38.5840   26.3620   42.7200 C   0  0  0  0  0  2  0  0  0  0  0  0
   38.6760   27.7340   43.3540 C   0  0  0  0  0  2  0  0  0  0  0  0
   37.1900   27.9650   43.6750 C   0  0  0  0  0  3  0  0  0  0  0  0
   37.0520   28.9950   44.0040 H   0  0  0  0  0  0  0  0  0  0  0  0
  1  6  2  0  0  0  0
  1  2  1  0  0  0  0
  2  3  2  0  0  0  0
  3  4  1  0  0  0  0
  3 20  1  0  0  0  0
  5 11  1  0  0  0  0
  5  4  2  0  0  0  0
  6  5  1  0  0  0  0
  7  1  1  0  0  0  0
  8  2  1  0  0  0  0
  9 10  1  0  0  0  0
 10 15  1  0  0  0  0
 11 12  1  0  0  0  0
 11 10  2  0  0  0  0
 12 13  2  0  0  0  0
 13 17  1  0  0  0  0
 13 14  1  0  0  0  0
 14 18  1  0  0  0  0
 15 14  2  0  0  0  0
 15 19  1  0  0  0  0
 16 12  1  0  0  0  0
 20 23  1  0  0  0  0
 21 20  1  0  0  0  0
 22 20  1  0  0  0  0
 23 24  1  0  0  0  0
 23 25  1  0  0  0  0
 23 26  1  0  0  0  0
 26 30  1  0  0  0  0
 27 26  1  0  0  0  0
 27 28  1  0  0  0  0
 28 29  1  0  0  0  0
 29 30  1  0  0  0  0
 30 31  1  0  0  0  0
M  END
>  <minimizedAffinity>
-4.82645607

$$$$
