
 OpenBabel03252509283D

 18 19  0  0  0  0  0  0  0  0999 V2000
   44.7310   35.9960   44.2190 C   0  0  0  0  0  0  0  0  0  0  0  0
   45.1240   35.7730   42.8840 C   0  0  0  0  0  0  0  0  0  0  0  0
   45.7500   34.5740   42.5790 C   0  0  0  0  0  0  0  0  0  0  0  0
   45.9530   33.6710   43.5840 N   0  0  0  0  0  0  0  0  0  0  0  0
   45.5580   33.9220   44.8650 C   0  0  0  0  0  0  0  0  0  0  0  0
   44.9550   35.0730   45.1720 N   0  0  0  0  0  0  0  0  0  0  0  0
   44.2420   36.9420   44.4380 H   0  0  0  0  0  0  0  0  0  0  0  0
   44.9560   36.4980   42.0950 H   0  0  0  0  0  0  0  0  0  0  0  0
   45.7410   33.1750   45.6310 H   0  0  0  0  0  0  0  0  0  0  0  0
   46.1570   34.3420   41.1970 C   0  0  0  0  0  0  0  0  0  0  0  0
   45.8460   33.3150   40.9260 H   0  0  0  0  0  0  0  0  0  0  0  0
   45.6350   35.0560   40.5290 H   0  0  0  0  0  0  0  0  0  0  0  0
   47.5740   34.5480   40.9760 N   0  0  0  0  0  0  0  0  0  0  0  0
   48.1970   35.4560   41.8730 C   0  0  0  0  0  3  0  0  0  0  0  0
   49.2490   34.7000   42.6490 C   0  0  0  0  0  3  0  0  0  0  0  0
   49.3880   33.3680   41.9690 C   0  0  0  0  0  2  0  0  0  0  0  0
   48.3120   33.3360   40.9200 C   0  0  0  0  0  3  0  0  0  0  0  0
   47.6900   32.4230   41.0080 H   0  0  0  0  0  0  0  0  0  0  0  0
  1  7  1  0  0  0  0
  1  6  1  0  0  0  0
  2  1  2  0  0  0  0
  3  2  1  0  0  0  0
  3  4  2  0  0  0  0
  4  5  1  0  0  0  0
  5  6  2  0  0  0  0
  5  9  1  0  0  0  0
  8  2  1  0  0  0  0
 10  3  1  0  0  0  0
 11 10  1  0  0  0  0
 12 10  1  0  0  0  0
 13 10  1  0  0  0  0
 13 14  1  0  0  0  0
 14 15  2  0  0  0  0
 16 15  1  0  0  0  0
 17 13  1  0  0  0  0
 17 18  1  0  0  0  0
 17 16  1  0  0  0  0
M  END
>  <minimizedAffinity>
-3.85514092

>  <minimizedRMSD>
1.26338828

$$$$
