REMARK  Name = 
REMARK  2 active torsions:
REMARK  status: ('A' for Active; 'I' for Inactive)
REMARK    1  A    between atoms: C_2  and  C_14
REMARK    2  A    between atoms: C_3  and  N_23
REMARK                            x       y       z     vdW  Elec       q    Type
REMARK                         _______ _______ _______ _____ _____    ______ ____
ROOT
ATOM      1  C   UNL     1      47.219  31.370  45.084  0.00  0.00    +0.000 A 
ATOM      2  C   UNL     1      46.880  32.700  45.089  0.00  0.00    +0.000 A 
ATOM      3  C   UNL     1      46.276  33.320  46.183  0.00  0.00    +0.000 A 
ATOM      4  C   UNL     1      45.996  32.569  47.329  0.00  0.00    +0.000 A 
ATOM      5  N   UNL     1      45.444  32.800  48.536  0.00  0.00    +0.000 N 
ATOM      6  C   UNL     1      45.438  31.654  49.261  0.00  0.00    +0.000 A 
ATOM      7  N   UNL     1      45.999  30.712  48.472  0.00  0.00    +0.000 NA
ATOM      8  C   UNL     1      46.346  31.240  47.295  0.00  0.00    +0.000 A 
ATOM      9  C   UNL     1      46.948  30.603  46.218  0.00  0.00    +0.000 A 
ATOM     10  H   UNL     1      47.686  30.927  44.216  0.00  0.00    +0.000 HD
ATOM     11  H   UNL     1      45.106  33.758  48.771  0.00  0.00    +0.000 HD
ATOM     12  H   UNL     1      45.024  31.691  50.249  0.00  0.00    +0.000 HD
ATOM     13  H   UNL     1      47.205  29.553  46.240  0.00  0.00    +0.000 HD
ENDROOT
BRANCH   2  18
ATOM     14  C   UNL     1      46.506  35.209  42.425  0.00  0.00    +0.000 A 
ATOM     15  C   UNL     1      47.717  35.060  41.710  0.00  0.00    +0.000 A 
ATOM     16  C   UNL     1      48.655  34.096  42.151  0.00  0.00    +0.000 A 
ATOM     17  N   UNL     1      48.312  33.359  43.265  0.00  0.00    +0.000 NA
ATOM     18  C   UNL     1      47.151  33.525  43.924  0.00  0.00    +0.000 A 
ATOM     19  N   UNL     1      46.278  34.434  43.499  0.00  0.00    +0.000 NA
ATOM     20  H   UNL     1      45.829  35.957  42.046  0.00  0.00    +0.000 HD
ATOM     21  H   UNL     1      48.010  35.623  40.836  0.00  0.00    +0.000 HD
ATOM     22  H   UNL     1      49.595  33.943  41.640  0.00  0.00    +0.000 HD
ENDBRANCH   2  18
BRANCH   3  23
ATOM     23  N   UNL     1      45.903  34.691  46.244  0.00  0.00    +0.000 N 
ATOM     24  C   UNL     1      46.532  35.990  46.400  0.00  0.00    +0.000 C 
ATOM     25  C   UNL     1      45.402  36.816  46.982  0.00  0.00    +0.000 C 
ATOM     26  C   UNL     1      44.245  36.376  46.083  0.00  0.00    +0.000 C 
ATOM     27  C   UNL     1      44.451  34.877  46.111  0.00  0.00    +0.000 C 
ATOM     28  H   UNL     1      44.129  34.493  45.118  0.00  0.00    +0.000 HD
ENDBRANCH   3  23
TORSDOF 2
