
     RDKit          3D

 25 26  0  0  0  0  0  0  0  0999 V2000
   44.5610   36.0098   44.4948 C   0  0  0  0  0  0  0  0  0  0  0  0
   45.3051   35.9188   43.3015 C   0  0  0  0  0  0  0  0  0  0  0  0
   46.1935   34.8637   43.1645 C   0  0  0  0  0  0  0  0  0  0  0  0
   46.3036   33.9673   44.1892 N   0  0  0  0  0  0  0  0  0  0  0  0
   45.5671   34.0869   45.3301 C   0  0  0  0  0  0  0  0  0  0  0  0
   44.7071   35.0990   45.4754 N   0  0  0  0  0  0  0  0  0  0  0  0
   46.9646   34.7696   41.9275 C   0  0  0  0  0  0  0  0  0  0  0  0
   43.8689   36.8443   44.5842 H   0  0  0  0  0  0  0  0  0  0  0  0
   45.2078   36.6383   42.4947 H   0  0  0  0  0  0  0  0  0  0  0  0
   45.6881   33.3507   46.1176 H   0  0  0  0  0  0  0  0  0  0  0  0
   47.1054   33.6953   41.7051 H   0  0  0  0  0  0  0  0  0  0  0  0
   46.3953   35.2309   41.0970 H   0  0  0  0  0  0  0  0  0  0  0  0
   48.2299   35.4736   41.9883 N   0  0  0  0  0  0  0  0  0  0  0  0
   49.2424   34.8292   42.7482 C   0  0  0  0  0  0  0  0  0  0  0  0
   50.3875   34.5043   41.8199 C   0  0  0  0  0  0  0  0  0  0  0  0
   50.1012   35.2307   40.5377 C   0  0  0  0  0  0  0  0  0  0  0  0
   48.7331   35.8279   40.7090 C   0  0  1  0  0  0  0  0  0  0  0  0
   48.0652   35.5530   39.8675 H   0  0  0  0  0  0  0  0  0  0  0  0
   48.9273   33.9460   43.3214 H   0  0  0  0  0  0  0  0  0  0  0  0
   49.6006   35.5813   43.5110 H   0  0  0  0  0  0  0  0  0  0  0  0
   50.4352   33.3988   41.6538 H   0  0  0  0  0  0  0  0  0  0  0  0
   51.3788   34.8415   42.2235 H   0  0  0  0  0  0  0  0  0  0  0  0
   50.1149   34.6048   39.6409 H   0  0  0  0  0  0  0  0  0  0  0  0
   50.8770   36.0359   40.3753 H   0  0  0  0  0  0  0  0  0  0  0  0
   48.8296   36.9392   40.6810 H   0  0  0  0  0  0  0  0  0  0  0  0
  1  6  2  0
  2  1  1  0
  3  2  2  0
  3  4  1  0
  4  5  2  0
  5  6  1  0
  7  3  1  0
  1  8  1  0
  2  9  1  0
  5 10  1  0
  7 11  1  0
  7 12  1  0
 13 14  1  0
 14 15  1  0
 15 16  1  0
 16 17  1  0
 17 18  1  6
 17 13  1  0
 14 19  1  0
 14 20  1  0
 15 21  1  0
 15 22  1  0
 16 23  1  0
 16 24  1  0
 17 25  1  0
  7 13  1  0
M  ISO  6   8  14   9  14  10  14  11   8  12   8  18  13
M  END
>  <DihAtoms>  (1) 
2,6,12,13

>  <DihDeg>  (1) 
60.044159262947026

$$$$
