
 OpenBabel03252501243D

 32 35  0  0  0  0  0  0  0  0999 V2000
   46.3980   32.4580   45.2670 C   0  0  0  0  0  0  0  0  0  0  0  0
   47.3190   32.3380   44.2410 C   0  0  0  0  0  0  0  0  0  0  0  0
   46.7990   32.8920   43.1130 C   0  0  0  0  0  0  0  0  0  0  0  0
   45.5810   33.3450   43.4400 N   0  0  0  0  0  0  0  0  0  0  0  0
   45.3560   33.0800   44.7260 N   0  0  0  0  0  0  0  0  0  0  0  0
   48.3020   31.8720   44.3330 H   0  0  0  0  0  0  0  0  0  0  0  0
   47.2230   32.9830   42.1260 H   0  0  0  0  0  0  0  0  0  0  0  0
   43.3130   32.0830   42.3180 F   0  0  0  0  0  0  0  0  0  0  0  0
   43.5260   33.3860   42.0950 C   0  0  0  0  0  0  0  0  0  0  0  0
   44.6320   33.9960   42.6440 C   0  0  0  0  0  0  0  0  0  0  0  0
   44.8560   35.3480   42.4140 C   0  0  0  0  0  0  0  0  0  0  0  0
   44.0160   36.1160   41.6560 C   0  0  0  0  0  0  0  0  0  0  0  0
   42.9270   35.4910   41.1220 C   0  0  0  0  0  0  0  0  0  0  0  0
   42.6740   34.1530   41.3300 C   0  0  0  0  0  0  0  0  0  0  0  0
   45.7320   35.8580   42.8410 H   0  0  0  0  0  0  0  0  0  0  0  0
   44.1670   37.1760   41.4600 H   0  0  0  0  0  0  0  0  0  0  0  0
   42.2380   36.0710   40.5150 H   0  0  0  0  0  0  0  0  0  0  0  0
   41.5140   33.5850   40.7340 N   0  0  0  0  0  0  0  0  0  0  0  0
   41.1810   32.8720   39.4940 C   0  0  0  0  0  0  0  0  0  0  0  0
   40.0090   33.6880   38.9890 C   0  0  0  0  0  0  0  0  0  0  0  0
   39.3510   34.2320   40.2590 C   0  0  0  0  0  0  0  0  0  0  0  0
   40.1860   33.6120   41.3590 C   0  0  0  0  0  0  0  0  0  0  0  0
   39.8400   32.5700   41.4990 H   0  0  0  0  0  0  0  0  0  0  0  0
   47.6990   30.6150   48.1580 C   0  0  0  0  0  0  0  0  0  0  0  0
   46.9210   31.1280   49.2120 C   0  0  0  0  0  0  0  0  0  0  0  0
   45.9590   32.1010   48.9240 C   0  0  0  0  0  0  0  0  0  0  0  0
   45.8600   32.4680   47.6350 N   0  0  0  0  0  0  0  0  0  0  0  0
   46.5950   31.9870   46.6180 C   0  0  0  0  0  0  0  0  0  0  0  0
   47.5250   31.0490   46.8860 N   0  0  0  0  0  0  0  0  0  0  0  0
   48.4350   29.8610   48.4220 H   0  0  0  0  0  0  0  0  0  0  0  0
   47.0210   30.8180   50.2320 H   0  0  0  0  0  0  0  0  0  0  0  0
   45.3060   32.5660   49.6510 H   0  0  0  0  0  0  0  0  0  0  0  0
  1 28  1  0  0  0  0
  2  6  1  0  0  0  0
  2  1  1  0  0  0  0
  3  4  1  0  0  0  0
  3  2  2  0  0  0  0
  4  5  1  0  0  0  0
  5  1  2  0  0  0  0
  7  3  1  0  0  0  0
  9  8  1  0  0  0  0
  9 10  1  0  0  0  0
 10  4  1  0  0  0  0
 11 10  2  0  0  0  0
 11 15  1  0  0  0  0
 12 11  1  0  0  0  0
 13 14  1  0  0  0  0
 13 12  2  0  0  0  0
 14  9  2  0  0  0  0
 16 12  1  0  0  0  0
 17 13  1  0  0  0  0
 18 14  1  0  0  0  0
 18 22  1  0  0  0  0
 19 18  1  0  0  0  0
 20 19  1  0  0  0  0
 20 21  1  0  0  0  0
 21 22  1  0  0  0  0
 22 23  1  0  0  0  0
 24 30  1  0  0  0  0
 24 25  1  0  0  0  0
 25 31  1  0  0  0  0
 26 25  2  0  0  0  0
 26 32  1  0  0  0  0
 27 26  1  0  0  0  0
 28 29  1  0  0  0  0
 28 27  2  0  0  0  0
 29 24  2  0  0  0  0
M  END
>  <minimizedAffinity>
-5.38447571

>  <minimizedRMSD>
2.24458432

$$$$
