
 OpenBabel03252508163D

 34 37  0  0  1  0  0  0  0  0999 V2000
   39.2550   26.8440   43.5920 C   0  0  0  0  0  0  0  0  0  0  0  0
   39.9130   27.1080   44.4240 H   0  0  0  0  0  0  0  0  0  0  0  0
   38.2610   26.5340   43.9300 H   0  0  0  0  0  0  0  0  0  0  0  0
   39.8560   25.7380   42.7550 C   0  0  1  0  0  0  0  0  0  0  0  0
   39.7590   24.3600   43.3080 C   0  0  0  0  0  0  0  0  0  0  0  0
   38.9640   24.7230   42.1520 C   0  0  1  0  0  0  0  0  0  0  0  0
   40.7840   26.0000   42.2110 H   0  0  0  0  0  0  0  0  0  0  0  0
   39.2460   24.2440   44.3040 H   0  0  0  0  0  0  0  0  0  0  0  0
   40.5940   23.6360   43.1930 H   0  0  0  0  0  0  0  0  0  0  0  0
   39.3290   24.3100   41.1610 H   0  0  0  0  0  0  0  0  0  0  0  0
   37.5080   24.9860   42.1530 C   0  0  0  0  0  0  0  0  0  0  0  0
   36.7000   24.1080   41.1600 C   0  0  0  0  0  0  0  0  0  0  0  0
   36.9310   25.5360   40.8320 C   0  0  0  0  0  0  0  0  0  0  0  0
   36.9720   25.3370   43.0460 H   0  0  0  0  0  0  0  0  0  0  0  0
   37.2340   23.2790   40.6760 H   0  0  0  0  0  0  0  0  0  0  0  0
   35.6490   23.8690   41.4750 H   0  0  0  0  0  0  0  0  0  0  0  0
   37.6450   25.6890   39.9840 H   0  0  0  0  0  0  0  0  0  0  0  0
   36.0910   26.2460   40.8880 H   0  0  0  0  0  0  0  0  0  0  0  0
   37.9190   28.6170   42.7640 C   0  0  0  0  0  3  0  0  0  0  0  0
   39.0830   28.0950   42.7360 C   0  0  0  0  0  3  0  0  0  0  0  0
   36.3040   31.1660   40.6430 C   0  0  0  0  0  0  0  0  0  0  0  0
   37.3310   32.0690   40.4060 C   0  0  0  0  0  0  0  0  0  0  0  0
   38.5410   31.8050   40.9740 C   0  0  0  0  0  0  0  0  0  0  0  0
   38.6690   30.6920   41.7250 N   0  0  0  0  0  0  0  0  0  0  0  0
   37.6800   29.8100   41.9610 C   0  0  0  0  0  0  0  0  0  0  0  0
   36.5090   30.0910   41.3960 N   0  0  0  0  0  0  0  0  0  0  0  0
   35.3140   31.3040   40.2290 H   0  0  0  0  0  0  0  0  0  0  0  0
   37.1550   32.9410   39.7920 H   0  0  0  0  0  0  0  0  0  0  0  0
   39.6560   32.6710   40.7890 N   0  0  0  0  0  0  0  0  0  0  0  0
   39.5680   34.0750   40.4320 C   0  0  0  0  0  2  0  0  0  0  0  0
   40.8580   34.3030   39.7190 C   0  0  0  0  0  2  0  0  0  0  0  0
   41.6500   33.0140   39.7340 C   0  0  0  0  0  2  0  0  0  0  0  0
   41.0540   32.2920   40.9250 C   0  0  0  0  0  3  0  0  0  0  0  0
   41.4910   32.6920   41.8640 H   0  0  0  0  0  0  0  0  0  0  0  0
  1  3  1  0  0  0  0
  1  2  1  0  0  0  0
  4  7  1  6  0  0  0
  4  5  1  0  0  0  0
  4  1  1  0  0  0  0
  5  8  1  0  0  0  0
  6 10  1  6  0  0  0
  6 11  1  0  0  0  0
  6  4  1  0  0  0  0
  6  5  1  0  0  0  0
  9  5  1  0  0  0  0
 11 14  1  0  0  0  0
 12 16  1  0  0  0  0
 12 11  1  0  0  0  0
 13 18  1  0  0  0  0
 13 12  1  0  0  0  0
 13 11  1  0  0  0  0
 15 12  1  0  0  0  0
 17 13  1  0  0  0  0
 20 19  2  0  0  0  0
 20  1  1  0  0  0  0
 21 26  1  0  0  0  0
 22 21  2  0  0  0  0
 22 23  1  0  0  0  0
 23 24  2  0  0  0  0
 24 25  1  0  0  0  0
 25 19  1  0  0  0  0
 26 25  2  0  0  0  0
 27 21  1  0  0  0  0
 28 22  1  0  0  0  0
 29 33  1  0  0  0  0
 29 23  1  0  0  0  0
 30 29  1  0  0  0  0
 31 32  1  0  0  0  0
 31 30  1  0  0  0  0
 32 33  1  0  0  0  0
 33 34  1  0  0  0  0
M  END
>  <minimizedAffinity>
-5.33383799

$$$$

 OpenBabel03252508163D

 34 37  0  0  1  0  0  0  0  0999 V2000
   38.4090   28.0530   43.6550 C   0  0  0  0  0  0  0  0  0  0  0  0
   38.7100   28.2340   44.6900 H   0  0  0  0  0  0  0  0  0  0  0  0
   37.4260   27.5780   43.5840 H   0  0  0  0  0  0  0  0  0  0  0  0
   39.4240   27.1910   42.9380 C   0  0  1  0  0  0  0  0  0  0  0  0
   39.8030   25.9170   43.6080 C   0  0  0  0  0  0  0  0  0  0  0  0
   39.0040   25.8780   42.3990 C   0  0  1  0  0  0  0  0  0  0  0  0
   40.2230   27.7380   42.4020 H   0  0  0  0  0  0  0  0  0  0  0  0
   39.3080   25.6900   44.5930 H   0  0  0  0  0  0  0  0  0  0  0  0
   40.8500   25.5470   43.5830 H   0  0  0  0  0  0  0  0  0  0  0  0
   39.5550   25.5610   41.4610 H   0  0  0  0  0  0  0  0  0  0  0  0
   37.5560   25.5840   42.3310 C   0  0  0  0  0  0  0  0  0  0  0  0
   37.2120   24.2140   41.6870 C   0  0  0  0  0  0  0  0  0  0  0  0
   36.9700   25.4540   40.9090 C   0  0  0  0  0  0  0  0  0  0  0  0
   36.8390   25.9740   43.0670 H   0  0  0  0  0  0  0  0  0  0  0  0
   38.0490   23.5280   41.4920 H   0  0  0  0  0  0  0  0  0  0  0  0
   36.2810   23.7200   42.0740 H   0  0  0  0  0  0  0  0  0  0  0  0
   37.6740   25.5870   40.0490 H   0  0  0  0  0  0  0  0  0  0  0  0
   35.9360   25.7920   40.7410 H   0  0  0  0  0  0  0  0  0  0  0  0
   38.5190   29.3960   41.7060 C   0  0  0  0  0  3  0  0  0  0  0  0
   38.3170   29.4110   42.9660 C   0  0  0  0  0  3  0  0  0  0  0  0
   37.2810   32.4950   40.1370 C   0  0  0  0  0  0  0  0  0  0  0  0
   38.4200   33.0210   39.5450 C   0  0  0  0  0  0  0  0  0  0  0  0
   39.5820   32.3250   39.6960 C   0  0  0  0  0  0  0  0  0  0  0  0
   39.5560   31.1770   40.4040 N   0  0  0  0  0  0  0  0  0  0  0  0
   38.4570   30.6590   40.9830 C   0  0  0  0  0  0  0  0  0  0  0  0
   37.3370   31.3570   40.8210 N   0  0  0  0  0  0  0  0  0  0  0  0
   36.3190   32.9880   40.0640 H   0  0  0  0  0  0  0  0  0  0  0  0
   38.3660   33.9470   38.9910 H   0  0  0  0  0  0  0  0  0  0  0  0
   40.8040   32.7820   39.1250 N   0  0  0  0  0  0  0  0  0  0  0  0
   41.2650   34.1590   39.1400 C   0  0  0  0  0  2  0  0  0  0  0  0
   42.1180   34.2210   37.9190 C   0  0  0  0  0  2  0  0  0  0  0  0
   42.1360   32.8520   37.2750 C   0  0  0  0  0  2  0  0  0  0  0  0
   41.7820   31.9510   38.4390 C   0  0  0  0  0  3  0  0  0  0  0  0
   42.6790   31.7800   39.0690 H   0  0  0  0  0  0  0  0  0  0  0  0
  1  2  1  0  0  0  0
  3  1  1  0  0  0  0
  4  7  1  6  0  0  0
  4  5  1  0  0  0  0
  4  1  1  0  0  0  0
  5  8  1  0  0  0  0
  6 10  1  6  0  0  0
  6  4  1  0  0  0  0
  6  5  1  0  0  0  0
  9  5  1  0  0  0  0
 11  6  1  0  0  0  0
 11 14  1  0  0  0  0
 12 16  1  0  0  0  0
 12 11  1  0  0  0  0
 13 12  1  0  0  0  0
 13 11  1  0  0  0  0
 15 12  1  0  0  0  0
 17 13  1  0  0  0  0
 18 13  1  0  0  0  0
 19 20  2  0  0  0  0
 20  1  1  0  0  0  0
 21 26  1  0  0  0  0
 22 23  1  0  0  0  0
 22 21  2  0  0  0  0
 23 24  2  0  0  0  0
 24 25  1  0  0  0  0
 25 19  1  0  0  0  0
 26 25  2  0  0  0  0
 27 21  1  0  0  0  0
 28 22  1  0  0  0  0
 29 30  1  0  0  0  0
 29 23  1  0  0  0  0
 31 30  1  0  0  0  0
 32 31  1  0  0  0  0
 32 33  1  0  0  0  0
 33 34  1  0  0  0  0
 33 29  1  0  0  0  0
M  END
>  <minimizedAffinity>
-4.9198122

$$$$

 OpenBabel03252508163D

 34 37  0  0  1  0  0  0  0  0999 V2000
   37.2060   32.4790   39.4650 C   0  0  0  0  0  0  0  0  0  0  0  0
   37.6400   31.9860   38.5920 H   0  0  0  0  0  0  0  0  0  0  0  0
   36.1660   32.7760   39.3010 H   0  0  0  0  0  0  0  0  0  0  0  0
   38.0100   33.6980   39.8570 C   0  0  1  0  0  0  0  0  0  0  0  0
   38.9340   33.5390   41.0120 C   0  0  0  0  0  0  0  0  0  0  0  0
   39.4790   33.6820   39.6760 C   0  0  1  0  0  0  0  0  0  0  0  0
   37.4870   34.6680   39.7570 H   0  0  0  0  0  0  0  0  0  0  0  0
   38.9660   32.5280   41.5060 H   0  0  0  0  0  0  0  0  0  0  0  0
   39.0740   34.3580   41.7500 H   0  0  0  0  0  0  0  0  0  0  0  0
   39.9310   34.6940   39.4400 H   0  0  0  0  0  0  0  0  0  0  0  0
   40.0690   32.5950   38.8650 C   0  0  0  0  0  0  0  0  0  0  0  0
   41.5890   32.3790   39.0970 C   0  0  0  0  0  0  0  0  0  0  0  0
   41.1400   33.0350   37.8440 C   0  0  0  0  0  0  0  0  0  0  0  0
   39.4920   31.7170   38.5440 H   0  0  0  0  0  0  0  0  0  0  0  0
   42.0490   32.9200   39.9350 H   0  0  0  0  0  0  0  0  0  0  0  0
   41.9500   31.3240   38.9640 H   0  0  0  0  0  0  0  0  0  0  0  0
   41.3880   34.1250   37.7980 H   0  0  0  0  0  0  0  0  0  0  0  0
   41.2070   32.4850   36.8930 H   0  0  0  0  0  0  0  0  0  0  0  0
   37.4570   30.2630   40.2650 C   0  0  0  0  0  3  0  0  0  0  0  0
   37.2230   31.4690   40.6090 C   0  0  0  0  0  3  0  0  0  0  0  0
   37.5060   28.5850   43.5490 C   0  0  0  0  0  0  0  0  0  0  0  0
   37.5820   27.2410   43.2100 C   0  0  0  0  0  0  0  0  0  0  0  0
   37.6040   26.9290   41.8840 C   0  0  0  0  0  0  0  0  0  0  0  0
   37.5530   27.9360   40.9870 N   0  0  0  0  0  0  0  0  0  0  0  0
   37.4790   29.2420   41.3050 C   0  0  0  0  0  0  0  0  0  0  0  0
   37.4580   29.5180   42.6050 N   0  0  0  0  0  0  0  0  0  0  0  0
   37.4830   28.9140   44.5800 H   0  0  0  0  0  0  0  0  0  0  0  0
   37.6200   26.4880   43.9840 H   0  0  0  0  0  0  0  0  0  0  0  0
   37.6820   25.5800   41.4360 N   0  0  0  0  0  0  0  0  0  0  0  0
   38.6270   25.0840   40.4520 C   0  0  0  0  0  2  0  0  0  0  0  0
   37.8930   23.9280   39.8610 C   0  0  0  0  0  2  0  0  0  0  0  0
   36.5620   23.7920   40.5670 C   0  0  0  0  0  2  0  0  0  0  0  0
   36.8330   24.4880   41.8850 C   0  0  0  0  0  3  0  0  0  0  0  0
   37.3810   23.8050   42.5660 H   0  0  0  0  0  0  0  0  0  0  0  0
  1  4  1  0  0  0  0
  1 20  1  0  0  0  0
  2  1  1  0  0  0  0
  3  1  1  0  0  0  0
  4  7  1  6  0  0  0
  4  5  1  0  0  0  0
  5  8  1  0  0  0  0
  5  9  1  0  0  0  0
  6 10  1  6  0  0  0
  6  4  1  0  0  0  0
  6  5  1  0  0  0  0
 11 12  1  0  0  0  0
 11  6  1  0  0  0  0
 12 15  1  0  0  0  0
 13 11  1  0  0  0  0
 13 12  1  0  0  0  0
 14 11  1  0  0  0  0
 16 12  1  0  0  0  0
 17 13  1  0  0  0  0
 18 13  1  0  0  0  0
 19 20  2  0  0  0  0
 19 25  1  0  0  0  0
 21 27  1  0  0  0  0
 22 21  1  0  0  0  0
 22 28  1  0  0  0  0
 23 22  2  0  0  0  0
 24 25  2  0  0  0  0
 24 23  1  0  0  0  0
 25 26  1  0  0  0  0
 26 21  2  0  0  0  0
 29 23  1  0  0  0  0
 29 33  1  0  0  0  0
 30 29  1  0  0  0  0
 31 30  1  0  0  0  0
 31 32  1  0  0  0  0
 32 33  1  0  0  0  0
 33 34  1  0  0  0  0
M  END
>  <minimizedAffinity>
-4.85518312

$$$$

 OpenBabel03252508163D

 34 37  0  0  1  0  0  0  0  0999 V2000
   37.1620   28.5030   41.3030 C   0  0  0  0  0  0  0  0  0  0  0  0
   36.1440   28.2860   40.9700 H   0  0  0  0  0  0  0  0  0  0  0  0
   37.8810   27.7490   40.9680 H   0  0  0  0  0  0  0  0  0  0  0  0
   37.2270   28.6090   42.8100 C   0  0  1  0  0  0  0  0  0  0  0  0
   36.5690   27.5190   43.5810 C   0  0  0  0  0  0  0  0  0  0  0  0
   38.0150   27.6130   43.5700 C   0  0  1  0  0  0  0  0  0  0  0  0
   37.1550   29.6340   43.2220 H   0  0  0  0  0  0  0  0  0  0  0  0
   36.0740   26.7010   42.9870 H   0  0  0  0  0  0  0  0  0  0  0  0
   36.0130   27.7360   44.5180 H   0  0  0  0  0  0  0  0  0  0  0  0
   38.4840   28.0150   44.5210 H   0  0  0  0  0  0  0  0  0  0  0  0
   38.9320   26.7280   42.8180 C   0  0  0  0  0  0  0  0  0  0  0  0
   40.0530   26.0900   43.6800 C   0  0  0  0  0  0  0  0  0  0  0  0
   40.4010   27.1950   42.7540 C   0  0  0  0  0  0  0  0  0  0  0  0
   38.6120   26.1630   41.9310 H   0  0  0  0  0  0  0  0  0  0  0  0
   39.9770   26.2100   44.7700 H   0  0  0  0  0  0  0  0  0  0  0  0
   40.4000   25.0760   43.3440 H   0  0  0  0  0  0  0  0  0  0  0  0
   40.6600   28.1500   43.2760 H   0  0  0  0  0  0  0  0  0  0  0  0
   40.9770   26.9740   41.8420 H   0  0  0  0  0  0  0  0  0  0  0  0
   38.5830   30.3970   41.2120 C   0  0  0  0  0  3  0  0  0  0  0  0
   37.5670   29.8360   40.6820 C   0  0  0  0  0  3  0  0  0  0  0  0
   38.9080   34.0110   40.5550 C   0  0  0  0  0  0  0  0  0  0  0  0
   39.8730   34.0610   39.5590 C   0  0  0  0  0  0  0  0  0  0  0  0
   40.4000   32.8770   39.1380 C   0  0  0  0  0  0  0  0  0  0  0  0
   39.9570   31.7380   39.7080 N   0  0  0  0  0  0  0  0  0  0  0  0
   39.0220   31.6790   40.6750 C   0  0  0  0  0  0  0  0  0  0  0  0
   38.5240   32.8480   41.0670 N   0  0  0  0  0  0  0  0  0  0  0  0
   38.4410   34.9080   40.9440 H   0  0  0  0  0  0  0  0  0  0  0  0
   40.1790   35.0120   39.1470 H   0  0  0  0  0  0  0  0  0  0  0  0
   41.3950   32.8240   38.1210 N   0  0  0  0  0  0  0  0  0  0  0  0
   41.7040   31.6510   37.3220 C   0  0  0  0  0  2  0  0  0  0  0  0
   43.1370   31.8740   36.9740 C   0  0  0  0  0  2  0  0  0  0  0  0
   43.5760   33.1960   37.5640 C   0  0  0  0  0  2  0  0  0  0  0  0
   42.2570   33.9240   37.7190 C   0  0  0  0  0  3  0  0  0  0  0  0
   41.9430   34.3470   36.7430 H   0  0  0  0  0  0  0  0  0  0  0  0
  1  4  1  0  0  0  0
  2  1  1  0  0  0  0
  3  1  1  0  0  0  0
  4  7  1  1  0  0  0
  4  6  1  0  0  0  0
  4  5  1  0  0  0  0
  5  9  1  0  0  0  0
  6  5  1  0  0  0  0
  6 10  1  1  0  0  0
  8  5  1  0  0  0  0
 11  6  1  0  0  0  0
 11 12  1  0  0  0  0
 12 15  1  0  0  0  0
 13 11  1  0  0  0  0
 13 17  1  0  0  0  0
 13 12  1  0  0  0  0
 14 11  1  0  0  0  0
 16 12  1  0  0  0  0
 18 13  1  0  0  0  0
 20 19  2  0  0  0  0
 20  1  1  0  0  0  0
 21 27  1  0  0  0  0
 21 26  1  0  0  0  0
 22 21  2  0  0  0  0
 23 22  1  0  0  0  0
 23 24  2  0  0  0  0
 24 25  1  0  0  0  0
 25 26  2  0  0  0  0
 25 19  1  0  0  0  0
 28 22  1  0  0  0  0
 29 23  1  0  0  0  0
 30 29  1  0  0  0  0
 31 30  1  0  0  0  0
 31 32  1  0  0  0  0
 32 33  1  0  0  0  0
 33 29  1  0  0  0  0
 34 33  1  0  0  0  0
M  END
>  <minimizedAffinity>
-4.82971239

$$$$

 OpenBabel03252508163D

 34 37  0  0  1  0  0  0  0  0999 V2000
   33.9820   28.9370   38.0490 C   0  0  0  0  0  0  0  0  0  0  0  0
   33.0790   29.0110   38.6610 H   0  0  0  0  0  0  0  0  0  0  0  0
   34.2190   29.8780   37.5420 H   0  0  0  0  0  0  0  0  0  0  0  0
   33.8480   27.8430   37.0150 C   0  0  1  0  0  0  0  0  0  0  0  0
   32.9620   28.1320   35.8540 C   0  0  0  0  0  0  0  0  0  0  0  0
   34.3970   28.0600   35.6580 C   0  0  1  0  0  0  0  0  0  0  0  0
   33.8410   26.8090   37.4110 H   0  0  0  0  0  0  0  0  0  0  0  0
   32.4610   29.1400   35.8320 H   0  0  0  0  0  0  0  0  0  0  0  0
   32.3110   27.3430   35.4200 H   0  0  0  0  0  0  0  0  0  0  0  0
   34.7720   27.1190   35.1500 H   0  0  0  0  0  0  0  0  0  0  0  0
   35.2980   29.2150   35.4470 C   0  0  0  0  0  0  0  0  0  0  0  0
   36.1430   29.1360   34.1490 C   0  0  0  0  0  0  0  0  0  0  0  0
   36.8060   28.8900   35.4530 C   0  0  0  0  0  0  0  0  0  0  0  0
   35.0640   30.2220   35.8220 H   0  0  0  0  0  0  0  0  0  0  0  0
   35.8910   28.3400   33.4340 H   0  0  0  0  0  0  0  0  0  0  0  0
   36.3960   30.1240   33.6790 H   0  0  0  0  0  0  0  0  0  0  0  0
   37.1010   27.8210   35.6080 H   0  0  0  0  0  0  0  0  0  0  0  0
   37.4980   29.6440   35.8570 H   0  0  0  0  0  0  0  0  0  0  0  0
   35.0970   29.1910   40.1240 C   0  0  0  0  0  3  0  0  0  0  0  0
   35.1400   28.6120   38.9870 C   0  0  0  0  0  3  0  0  0  0  0  0
   37.8480   29.6580   42.5360 C   0  0  0  0  0  0  0  0  0  0  0  0
   38.2510   28.3570   42.8030 C   0  0  0  0  0  0  0  0  0  0  0  0
   37.5810   27.3520   42.1730 C   0  0  0  0  0  0  0  0  0  0  0  0
   36.5760   27.6770   41.3340 N   0  0  0  0  0  0  0  0  0  0  0  0
   36.1770   28.9340   41.0690 C   0  0  0  0  0  0  0  0  0  0  0  0
   36.8460   29.8970   41.6960 N   0  0  0  0  0  0  0  0  0  0  0  0
   38.3280   30.5110   42.9970 H   0  0  0  0  0  0  0  0  0  0  0  0
   39.0670   28.1720   43.4880 H   0  0  0  0  0  0  0  0  0  0  0  0
   37.9210   25.9840   42.3810 N   0  0  0  0  0  0  0  0  0  0  0  0
   39.1990   25.5130   42.8830 C   0  0  0  0  0  2  0  0  0  0  0  0
   39.2930   24.1510   42.2810 C   0  0  0  0  0  2  0  0  0  0  0  0
   38.0340   23.8900   41.4840 C   0  0  0  0  0  2  0  0  0  0  0  0
   37.0510   24.8470   42.1250 C   0  0  0  0  0  3  0  0  0  0  0  0
   36.6650   24.4130   43.0710 H   0  0  0  0  0  0  0  0  0  0  0  0
  1  2  1  0  0  0  0
  1 20  1  0  0  0  0
  3  1  1  0  0  0  0
  4  7  1  1  0  0  0
  4  1  1  0  0  0  0
  5  4  1  0  0  0  0
  6 10  1  6  0  0  0
  6  5  1  0  0  0  0
  6  4  1  0  0  0  0
  8  5  1  0  0  0  0
  9  5  1  0  0  0  0
 11 13  1  0  0  0  0
 11  6  1  0  0  0  0
 11 14  1  0  0  0  0
 12 11  1  0  0  0  0
 12 13  1  0  0  0  0
 13 17  1  0  0  0  0
 13 18  1  0  0  0  0
 15 12  1  0  0  0  0
 16 12  1  0  0  0  0
 19 25  1  0  0  0  0
 20 19  2  0  0  0  0
 21 22  1  0  0  0  0
 21 27  1  0  0  0  0
 22 28  1  0  0  0  0
 23 29  1  0  0  0  0
 23 22  2  0  0  0  0
 24 23  1  0  0  0  0
 25 24  2  0  0  0  0
 25 26  1  0  0  0  0
 26 21  2  0  0  0  0
 29 30  1  0  0  0  0
 31 30  1  0  0  0  0
 32 33  1  0  0  0  0
 32 31  1  0  0  0  0
 33 29  1  0  0  0  0
 33 34  1  0  0  0  0
M  END
>  <minimizedAffinity>
-4.7579155

$$$$

 OpenBabel03252508163D

 34 37  0  0  1  0  0  0  0  0999 V2000
   38.4500   27.1770   43.5330 C   0  0  0  0  0  0  0  0  0  0  0  0
   38.8680   27.7040   44.3940 H   0  0  0  0  0  0  0  0  0  0  0  0
   37.6690   26.4660   43.8180 H   0  0  0  0  0  0  0  0  0  0  0  0
   39.5290   26.4420   42.7720 C   0  0  1  0  0  0  0  0  0  0  0  0
   40.0760   25.2160   43.4150 C   0  0  0  0  0  0  0  0  0  0  0  0
   39.2430   25.0920   42.2360 C   0  0  1  0  0  0  0  0  0  0  0  0
   40.2400   27.0800   42.2120 H   0  0  0  0  0  0  0  0  0  0  0  0
   39.6470   24.9290   44.4150 H   0  0  0  0  0  0  0  0  0  0  0  0
   41.1580   24.9680   43.3490 H   0  0  0  0  0  0  0  0  0  0  0  0
   39.7910   24.8450   41.2750 H   0  0  0  0  0  0  0  0  0  0  0  0
   37.8360   24.6340   42.2180 C   0  0  0  0  0  0  0  0  0  0  0  0
   37.5310   23.5500   41.1500 C   0  0  0  0  0  0  0  0  0  0  0  0
   37.0550   24.9360   40.9210 C   0  0  0  0  0  0  0  0  0  0  0  0
   37.2060   24.6270   43.1180 H   0  0  0  0  0  0  0  0  0  0  0  0
   38.3910   23.1070   40.6260 H   0  0  0  0  0  0  0  0  0  0  0  0
   36.7220   22.8200   41.4220 H   0  0  0  0  0  0  0  0  0  0  0  0
   37.6040   25.4670   40.1030 H   0  0  0  0  0  0  0  0  0  0  0  0
   35.9800   25.1570   41.0030 H   0  0  0  0  0  0  0  0  0  0  0  0
   38.6130   28.8040   41.8180 C   0  0  0  0  0  3  0  0  0  0  0  0
   37.8120   28.2260   42.6260 C   0  0  0  0  0  3  0  0  0  0  0  0
   37.5970   32.0510   40.3940 C   0  0  0  0  0  0  0  0  0  0  0  0
   36.9770   31.6900   39.2060 C   0  0  0  0  0  0  0  0  0  0  0  0
   36.9240   30.3610   38.9070 C   0  0  0  0  0  0  0  0  0  0  0  0
   37.4720   29.4850   39.7740 N   0  0  0  0  0  0  0  0  0  0  0  0
   38.0750   29.8250   40.9280 C   0  0  0  0  0  0  0  0  0  0  0  0
   38.1130   31.1270   41.1970 N   0  0  0  0  0  0  0  0  0  0  0  0
   37.6810   33.0850   40.7030 H   0  0  0  0  0  0  0  0  0  0  0  0
   36.5600   32.4480   38.5590 H   0  0  0  0  0  0  0  0  0  0  0  0
   36.3090   29.8900   37.7120 N   0  0  0  0  0  0  0  0  0  0  0  0
   35.0150   29.2350   37.6470 C   0  0  0  0  0  2  0  0  0  0  0  0
   35.1540   28.3800   36.4320 C   0  0  0  0  0  2  0  0  0  0  0  0
   36.5220   28.6170   35.8310 C   0  0  0  0  0  2  0  0  0  0  0  0
   36.8720   29.9870   36.3740 C   0  0  0  0  0  3  0  0  0  0  0  0
   36.3610   30.7700   35.7770 H   0  0  0  0  0  0  0  0  0  0  0  0
  1  3  1  0  0  0  0
  1  2  1  0  0  0  0
  4  7  1  6  0  0  0
  4  5  1  0  0  0  0
  4  1  1  0  0  0  0
  5  8  1  0  0  0  0
  6 10  1  6  0  0  0
  6  4  1  0  0  0  0
  6  5  1  0  0  0  0
  9  5  1  0  0  0  0
 11  6  1  0  0  0  0
 11 14  1  0  0  0  0
 12 16  1  0  0  0  0
 12 11  1  0  0  0  0
 13 18  1  0  0  0  0
 13 12  1  0  0  0  0
 13 11  1  0  0  0  0
 15 12  1  0  0  0  0
 17 13  1  0  0  0  0
 19 20  2  0  0  0  0
 20  1  1  0  0  0  0
 21 27  1  0  0  0  0
 21 26  1  0  0  0  0
 22 21  2  0  0  0  0
 23 22  1  0  0  0  0
 23 24  2  0  0  0  0
 24 25  1  0  0  0  0
 25 26  2  0  0  0  0
 25 19  1  0  0  0  0
 28 22  1  0  0  0  0
 29 23  1  0  0  0  0
 30 29  1  0  0  0  0
 31 30  1  0  0  0  0
 32 33  1  0  0  0  0
 32 31  1  0  0  0  0
 33 29  1  0  0  0  0
 34 33  1  0  0  0  0
M  END
>  <minimizedAffinity>
-4.66850328

$$$$

 OpenBabel03252508163D

 34 37  0  0  1  0  0  0  0  0999 V2000
   39.0790   32.1340   40.7340 C   0  0  0  0  0  0  0  0  0  0  0  0
   39.3980   32.7070   41.6080 H   0  0  0  0  0  0  0  0  0  0  0  0
   39.6890   32.3480   39.8510 H   0  0  0  0  0  0  0  0  0  0  0  0
   37.6280   32.4070   40.4060 C   0  0  1  0  0  0  0  0  0  0  0  0
   37.3440   33.6510   39.6410 C   0  0  0  0  0  0  0  0  0  0  0  0
   37.1860   32.3640   38.9950 C   0  0  1  0  0  0  0  0  0  0  0  0
   36.8990   32.1150   41.1860 H   0  0  0  0  0  0  0  0  0  0  0  0
   38.2260   34.2940   39.3630 H   0  0  0  0  0  0  0  0  0  0  0  0
   36.4450   34.2670   39.8610 H   0  0  0  0  0  0  0  0  0  0  0  0
   36.1160   32.0180   38.8510 H   0  0  0  0  0  0  0  0  0  0  0  0
   38.1070   31.7820   37.9940 C   0  0  0  0  0  0  0  0  0  0  0  0
   37.4940   31.6250   36.5770 C   0  0  0  0  0  0  0  0  0  0  0  0
   37.6830   30.4160   37.4150 C   0  0  0  0  0  0  0  0  0  0  0  0
   39.1970   31.9170   38.0450 H   0  0  0  0  0  0  0  0  0  0  0  0
   36.5160   32.0950   36.3990 H   0  0  0  0  0  0  0  0  0  0  0  0
   38.2200   31.7170   35.7250 H   0  0  0  0  0  0  0  0  0  0  0  0
   36.7230   29.9760   37.7870 H   0  0  0  0  0  0  0  0  0  0  0  0
   38.4730   29.6950   37.1530 H   0  0  0  0  0  0  0  0  0  0  0  0
   38.3620   30.1640   41.8370 C   0  0  0  0  0  3  0  0  0  0  0  0
   39.2560   30.6570   41.0710 C   0  0  0  0  0  3  0  0  0  0  0  0
   39.3700   27.0360   43.5100 C   0  0  0  0  0  0  0  0  0  0  0  0
   38.6640   26.0670   42.8100 C   0  0  0  0  0  0  0  0  0  0  0  0
   37.8560   26.4900   41.7980 C   0  0  0  0  0  0  0  0  0  0  0  0
   37.7920   27.8130   41.5370 N   0  0  0  0  0  0  0  0  0  0  0  0
   38.4730   28.7600   42.2090 C   0  0  0  0  0  0  0  0  0  0  0  0
   39.2530   28.3200   43.1930 N   0  0  0  0  0  0  0  0  0  0  0  0
   40.0320   26.7810   44.3280 H   0  0  0  0  0  0  0  0  0  0  0  0
   38.7650   25.0250   43.0750 H   0  0  0  0  0  0  0  0  0  0  0  0
   37.0920   25.5740   41.0210 N   0  0  0  0  0  0  0  0  0  0  0  0
   36.7660   24.2160   41.4200 C   0  0  0  0  0  2  0  0  0  0  0  0
   36.6150   23.5280   40.1050 C   0  0  0  0  0  2  0  0  0  0  0  0
   36.8260   24.5420   39.0030 C   0  0  0  0  0  2  0  0  0  0  0  0
   36.5180   25.8450   39.7120 C   0  0  0  0  0  3  0  0  0  0  0  0
   35.4200   25.9890   39.7740 H   0  0  0  0  0  0  0  0  0  0  0  0
  1 20  1  0  0  0  0
  1  2  1  0  0  0  0
  3  1  1  0  0  0  0
  4  1  1  0  0  0  0
  4  7  1  1  0  0  0
  5  9  1  0  0  0  0
  5  4  1  0  0  0  0
  6 10  1  6  0  0  0
  6  5  1  0  0  0  0
  6  4  1  0  0  0  0
  8  5  1  0  0  0  0
 11 14  1  0  0  0  0
 11  6  1  0  0  0  0
 12 13  1  0  0  0  0
 12 11  1  0  0  0  0
 13 17  1  0  0  0  0
 13 11  1  0  0  0  0
 15 12  1  0  0  0  0
 16 12  1  0  0  0  0
 18 13  1  0  0  0  0
 19 25  1  0  0  0  0
 20 19  2  0  0  0  0
 21 27  1  0  0  0  0
 22 28  1  0  0  0  0
 22 21  2  0  0  0  0
 23 22  1  0  0  0  0
 24 23  2  0  0  0  0
 24 25  1  0  0  0  0
 25 26  2  0  0  0  0
 26 21  1  0  0  0  0
 29 30  1  0  0  0  0
 29 23  1  0  0  0  0
 31 30  1  0  0  0  0
 32 33  1  0  0  0  0
 32 31  1  0  0  0  0
 33 34  1  0  0  0  0
 33 29  1  0  0  0  0
M  END
>  <minimizedAffinity>
-4.62250805

$$$$

 OpenBabel03252508163D

 34 37  0  0  1  0  0  0  0  0999 V2000
   39.1890   32.5750   40.7010 C   0  0  0  0  0  0  0  0  0  0  0  0
   39.5390   33.3420   41.3970 H   0  0  0  0  0  0  0  0  0  0  0  0
   39.7270   32.5990   39.7490 H   0  0  0  0  0  0  0  0  0  0  0  0
   37.7080   32.7220   40.4330 C   0  0  1  0  0  0  0  0  0  0  0  0
   37.3080   33.8150   39.5050 C   0  0  0  0  0  0  0  0  0  0  0  0
   37.1880   32.4360   39.0770 C   0  0  1  0  0  0  0  0  0  0  0  0
   37.0430   32.5210   41.2950 H   0  0  0  0  0  0  0  0  0  0  0  0
   38.1330   34.4480   39.0740 H   0  0  0  0  0  0  0  0  0  0  0  0
   36.3890   34.4130   39.6880 H   0  0  0  0  0  0  0  0  0  0  0  0
   36.1330   32.0210   39.0600 H   0  0  0  0  0  0  0  0  0  0  0  0
   38.0820   31.7490   38.1190 C   0  0  0  0  0  0  0  0  0  0  0  0
   37.3410   30.9930   36.9840 C   0  0  0  0  0  0  0  0  0  0  0  0
   37.9610   30.2110   38.0820 C   0  0  0  0  0  0  0  0  0  0  0  0
   39.0920   32.1150   37.8870 H   0  0  0  0  0  0  0  0  0  0  0  0
   36.2590   31.1620   36.8930 H   0  0  0  0  0  0  0  0  0  0  0  0
   37.8900   30.9350   36.0060 H   0  0  0  0  0  0  0  0  0  0  0  0
   37.2140   29.7380   38.7690 H   0  0  0  0  0  0  0  0  0  0  0  0
   38.8690   29.6230   37.8800 H   0  0  0  0  0  0  0  0  0  0  0  0
   38.4220   30.6100   41.7810 C   0  0  0  0  0  3  0  0  0  0  0  0
   39.4570   31.2200   41.3490 C   0  0  0  0  0  3  0  0  0  0  0  0
   37.8140   27.5080   43.6800 C   0  0  0  0  0  0  0  0  0  0  0  0
   39.0530   26.8810   43.6570 C   0  0  0  0  0  0  0  0  0  0  0  0
   40.0620   27.5130   42.9940 C   0  0  0  0  0  0  0  0  0  0  0  0
   39.8000   28.6990   42.4060 N   0  0  0  0  0  0  0  0  0  0  0  0
   38.6030   29.3140   42.4220 C   0  0  0  0  0  0  0  0  0  0  0  0
   37.6360   28.6770   43.0750 N   0  0  0  0  0  0  0  0  0  0  0  0
   36.9620   27.0700   44.1840 H   0  0  0  0  0  0  0  0  0  0  0  0
   39.1890   25.9310   44.1520 H   0  0  0  0  0  0  0  0  0  0  0  0
   41.3680   26.9520   42.9150 N   0  0  0  0  0  0  0  0  0  0  0  0
   41.7130   25.5930   43.2910 C   0  0  0  0  0  2  0  0  0  0  0  0
   43.1470   25.7250   43.6790 C   0  0  0  0  0  2  0  0  0  0  0  0
   43.5710   27.1620   43.4710 C   0  0  0  0  0  2  0  0  0  0  0  0
   42.5610   27.6440   42.4500 C   0  0  0  0  0  3  0  0  0  0  0  0
   42.8570   27.3010   41.4370 H   0  0  0  0  0  0  0  0  0  0  0  0
  1 20  1  0  0  0  0
  1  2  1  0  0  0  0
  3  1  1  0  0  0  0
  4  1  1  0  0  0  0
  4  7  1  1  0  0  0
  5  9  1  0  0  0  0
  5  4  1  0  0  0  0
  6 10  1  6  0  0  0
  6  5  1  0  0  0  0
  6  4  1  0  0  0  0
  8  5  1  0  0  0  0
 11  6  1  0  0  0  0
 12 13  1  0  0  0  0
 12 11  1  0  0  0  0
 13 11  1  0  0  0  0
 13 17  1  0  0  0  0
 14 11  1  0  0  0  0
 15 12  1  0  0  0  0
 16 12  1  0  0  0  0
 18 13  1  0  0  0  0
 19 25  1  0  0  0  0
 20 19  2  0  0  0  0
 21 27  1  0  0  0  0
 22 21  1  0  0  0  0
 22 28  1  0  0  0  0
 23 22  2  0  0  0  0
 24 25  2  0  0  0  0
 24 23  1  0  0  0  0
 25 26  1  0  0  0  0
 26 21  2  0  0  0  0
 29 23  1  0  0  0  0
 29 30  1  0  0  0  0
 30 31  1  0  0  0  0
 32 31  1  0  0  0  0
 33 29  1  0  0  0  0
 33 32  1  0  0  0  0
 34 33  1  0  0  0  0
M  END
>  <minimizedAffinity>
-4.60695934

$$$$

 OpenBabel03252508163D

 34 37  0  0  1  0  0  0  0  0999 V2000
   37.0590   26.8860   41.2640 C   0  0  0  0  0  0  0  0  0  0  0  0
   36.8340   25.8590   41.5650 H   0  0  0  0  0  0  0  0  0  0  0  0
   38.1340   27.0670   41.1730 H   0  0  0  0  0  0  0  0  0  0  0  0
   36.4750   27.8780   42.2440 C   0  0  1  0  0  0  0  0  0  0  0  0
   36.8290   27.6830   43.6760 C   0  0  0  0  0  0  0  0  0  0  0  0
   37.3790   28.8120   42.9520 C   0  0  1  0  0  0  0  0  0  0  0  0
   35.4470   28.2240   42.0190 H   0  0  0  0  0  0  0  0  0  0  0  0
   37.5020   26.8150   43.9230 H   0  0  0  0  0  0  0  0  0  0  0  0
   36.0820   27.8600   44.4800 H   0  0  0  0  0  0  0  0  0  0  0  0
   36.9160   29.8180   43.1930 H   0  0  0  0  0  0  0  0  0  0  0  0
   38.7730   28.9310   42.4710 C   0  0  0  0  0  0  0  0  0  0  0  0
   39.4060   30.3310   42.6880 C   0  0  0  0  0  0  0  0  0  0  0  0
   38.9940   29.9340   41.3190 C   0  0  0  0  0  0  0  0  0  0  0  0
   39.4650   28.0780   42.4480 H   0  0  0  0  0  0  0  0  0  0  0  0
   38.8440   31.0430   43.3100 H   0  0  0  0  0  0  0  0  0  0  0  0
   40.5160   30.3370   42.8560 H   0  0  0  0  0  0  0  0  0  0  0  0
   38.0990   30.4910   40.9440 H   0  0  0  0  0  0  0  0  0  0  0  0
   39.7670   29.7020   40.5700 H   0  0  0  0  0  0  0  0  0  0  0  0
   35.8240   28.2110   39.7370 C   0  0  0  0  0  3  0  0  0  0  0  0
   36.4350   27.1010   39.8890 C   0  0  0  0  0  3  0  0  0  0  0  0
   35.2750   28.7160   36.1250 C   0  0  0  0  0  0  0  0  0  0  0  0
   33.9330   29.0640   36.0600 C   0  0  0  0  0  0  0  0  0  0  0  0
   33.2410   29.1110   37.2330 C   0  0  0  0  0  0  0  0  0  0  0  0
   33.8950   28.8200   38.3770 N   0  0  0  0  0  0  0  0  0  0  0  0
   35.1950   28.4810   38.4510 C   0  0  0  0  0  0  0  0  0  0  0  0
   35.8480   28.4420   37.2920 N   0  0  0  0  0  0  0  0  0  0  0  0
   35.8940   28.6560   35.2390 H   0  0  0  0  0  0  0  0  0  0  0  0
   33.4760   29.2860   35.1060 H   0  0  0  0  0  0  0  0  0  0  0  0
   31.8610   29.4590   37.2700 N   0  0  0  0  0  0  0  0  0  0  0  0
   30.9800   29.4890   36.1160 C   0  0  0  0  0  2  0  0  0  0  0  0
   29.9660   30.5060   36.5190 C   0  0  0  0  0  2  0  0  0  0  0  0
   30.2960   30.9890   37.9140 C   0  0  0  0  0  2  0  0  0  0  0  0
   31.1140   29.8380   38.4600 C   0  0  0  0  0  3  0  0  0  0  0  0
   30.4410   29.0210   38.7910 H   0  0  0  0  0  0  0  0  0  0  0  0
  1  2  1  0  0  0  0
  1  4  1  0  0  0  0
  3  1  1  0  0  0  0
  4  7  1  6  0  0  0
  4  6  1  0  0  0  0
  4  5  1  0  0  0  0
  5  8  1  0  0  0  0
  5  9  1  0  0  0  0
  6 10  1  1  0  0  0
  6  5  1  0  0  0  0
 11 12  1  0  0  0  0
 11  6  1  0  0  0  0
 12 16  1  0  0  0  0
 12 15  1  0  0  0  0
 13 11  1  0  0  0  0
 13 12  1  0  0  0  0
 14 11  1  0  0  0  0
 17 13  1  0  0  0  0
 18 13  1  0  0  0  0
 19 20  2  0  0  0  0
 20  1  1  0  0  0  0
 21 26  1  0  0  0  0
 22 21  2  0  0  0  0
 22 23  1  0  0  0  0
 23 29  1  0  0  0  0
 23 24  2  0  0  0  0
 24 25  1  0  0  0  0
 25 19  1  0  0  0  0
 26 25  2  0  0  0  0
 27 21  1  0  0  0  0
 28 22  1  0  0  0  0
 29 33  1  0  0  0  0
 30 31  1  0  0  0  0
 30 29  1  0  0  0  0
 31 32  1  0  0  0  0
 32 33  1  0  0  0  0
 33 34  1  0  0  0  0
M  END
>  <minimizedAffinity>
-4.60224152

$$$$
