
 OpenBabel03252505203D

 25 27  0  0  0  0  0  0  0  0999 V2000
   46.4550   33.6020   44.9650 F   0  0  0  0  0  0  0  0  0  0  0  0
   47.0390   32.3900   44.7870 C   0  0  0  0  0  0  0  0  0  0  0  0
   47.8860   32.2170   43.7210 C   0  0  0  0  0  0  0  0  0  0  0  0
   48.4690   30.9900   43.5520 C   0  0  0  0  0  0  0  0  0  0  0  0
   48.1910   29.9710   44.4480 C   0  0  0  0  0  0  0  0  0  0  0  0
   47.3460   30.1340   45.5170 C   0  0  0  0  0  0  0  0  0  0  0  0
   46.7620   31.3870   45.6760 C   0  0  0  0  0  0  0  0  0  0  0  0
   49.1320   30.8710   42.7090 H   0  0  0  0  0  0  0  0  0  0  0  0
   48.6970   29.0300   44.2380 H   0  0  0  0  0  0  0  0  0  0  0  0
   47.2020   29.2760   46.1490 H   0  0  0  0  0  0  0  0  0  0  0  0
   49.4440   35.1610   42.1820 C   0  0  0  0  0  0  0  0  0  0  0  0
   48.6000   35.4110   41.0680 C   0  0  0  0  0  0  0  0  0  0  0  0
   47.5050   34.5420   40.8840 C   0  0  0  0  0  0  0  0  0  0  0  0
   47.3260   33.5280   41.7730 N   0  0  0  0  0  0  0  0  0  0  0  0
   48.1420   33.3250   42.8090 C   0  0  0  0  0  0  0  0  0  0  0  0
   49.1970   34.1370   43.0150 N   0  0  0  0  0  0  0  0  0  0  0  0
   50.2860   35.8360   42.3160 H   0  0  0  0  0  0  0  0  0  0  0  0
   48.7720   36.2300   40.3770 H   0  0  0  0  0  0  0  0  0  0  0  0
   46.8310   34.6880   40.0510 H   0  0  0  0  0  0  0  0  0  0  0  0
   45.8910   31.5210   46.7920 N   0  0  0  0  0  0  0  0  0  0  0  0
   45.1290   30.5270   47.5130 C   0  0  0  0  0  0  0  0  0  0  0  0
   45.4880   30.8230   48.9760 C   0  0  0  0  0  0  0  0  0  0  0  0
   45.9190   32.2670   48.9510 C   0  0  0  0  0  0  0  0  0  0  0  0
   45.4950   32.6940   47.5590 C   0  0  0  0  0  0  0  0  0  0  0  0
   46.0200   33.6120   47.2350 H   0  0  0  0  0  0  0  0  0  0  0  0
  2  1  1  0  0  0  0
  2  7  1  0  0  0  0
  3  2  2  0  0  0  0
  4  3  1  0  0  0  0
  4  5  2  0  0  0  0
  5  6  1  0  0  0  0
  6  7  2  0  0  0  0
  6 10  1  0  0  0  0
  7 20  1  0  0  0  0
  8  4  1  0  0  0  0
  9  5  1  0  0  0  0
 11 17  1  0  0  0  0
 11 16  1  0  0  0  0
 12 11  2  0  0  0  0
 13 12  1  0  0  0  0
 13 14  2  0  0  0  0
 14 15  1  0  0  0  0
 15 16  2  0  0  0  0
 15  3  1  0  0  0  0
 18 12  1  0  0  0  0
 19 13  1  0  0  0  0
 20 21  1  0  0  0  0
 20 24  1  0  0  0  0
 21 22  1  0  0  0  0
 23 22  1  0  0  0  0
 24 23  1  0  0  0  0
 25 24  1  0  0  0  0
M  END
>  <minimizedAffinity>
-5.00467825

>  <minimizedRMSD>
3.5443399

$$$$
