
 OpenBabel03252509073D

 38 41  0  0  1  0  0  0  0  0999 V2000
   45.3490   35.5210   43.1630 Cl  0  0  0  0  0  0  0  0  0  0  0  0
   45.1690   34.6920   41.6410 C   0  0  0  0  0  0  0  0  0  0  0  0
   46.2430   34.2190   40.9730 C   0  0  0  0  0  0  0  0  0  0  0  0
   45.9900   33.5730   39.7670 C   0  0  0  0  0  0  0  0  0  0  0  0
   44.7210   33.4180   39.2680 C   0  0  0  0  0  0  0  0  0  0  0  0
   43.6570   33.9020   39.9590 C   0  0  0  0  0  0  0  0  0  0  0  0
   43.8910   34.5430   41.1540 C   0  0  0  0  0  0  0  0  0  0  0  0
   44.5300   32.9150   38.3290 H   0  0  0  0  0  0  0  0  0  0  0  0
   42.6370   33.7970   39.5940 H   0  0  0  0  0  0  0  0  0  0  0  0
   43.0350   34.9320   41.7090 H   0  0  0  0  0  0  0  0  0  0  0  0
   47.5160   31.7310   39.0540 C   0  0  0  0  0  0  0  0  0  0  0  0
   47.1090   33.0310   39.0130 C   0  0  0  0  0  0  0  0  0  0  0  0
   47.7930   33.9140   38.2000 C   0  0  0  0  0  0  0  0  0  0  0  0
   48.8620   33.4890   37.4490 C   0  0  0  0  0  0  0  0  0  0  0  0
   49.2920   32.1680   37.4770 C   0  0  0  0  0  0  0  0  0  0  0  0
   48.5990   31.2850   38.2960 C   0  0  0  0  0  0  0  0  0  0  0  0
   47.4880   34.9660   38.1480 H   0  0  0  0  0  0  0  0  0  0  0  0
   49.3560   34.2280   36.8340 H   0  0  0  0  0  0  0  0  0  0  0  0
   50.1190   31.8340   36.8950 H   0  0  0  0  0  0  0  0  0  0  0  0
   48.9260   30.2590   38.3230 H   0  0  0  0  0  0  0  0  0  0  0  0
   46.7140   30.5860   39.9990 S   0  0  0  0  0  0  0  0  0  0  0  0
   46.1240   31.1680   41.2610 O   0  0  0  0  0  0  0  0  0  0  0  0
   45.4600   30.2160   39.1500 O   0  0  0  0  0  0  0  0  0  0  0  0
   47.0460   29.2930   42.4590 H   0  0  0  0  0  0  0  0  0  0  0  0
   47.7780   28.9070   41.8260 N   0  0  0  0  0  0  0  0  0  0  0  0
   47.8590   27.4590   41.8860 C   0  0  0  0  0  2  0  0  0  0  0  0
   46.4310   27.1080   41.5780 C   0  0  0  0  0  2  0  0  0  0  0  0
   45.9210   28.2990   40.8410 C   0  0  0  0  0  2  0  0  0  0  0  0
   47.2400   29.0570   40.4560 C   0  0  1  0  0  3  0  0  0  0  0  0
   49.5690   35.7190   41.9320 C   0  0  0  0  0  0  0  0  0  0  0  0
   48.2930   35.5620   41.3800 C   0  0  0  0  0  0  0  0  0  0  0  0
   47.5610   34.3960   41.5300 C   0  0  0  0  0  0  0  0  0  0  0  0
   48.1740   33.4210   42.2510 N   0  0  0  0  0  0  0  0  0  0  0  0
   49.3980   33.5720   42.7800 C   0  0  0  0  0  0  0  0  0  0  0  0
   50.0850   34.7080   42.6210 N   0  0  0  0  0  0  0  0  0  0  0  0
   50.0320   36.6960   41.7340 H   0  0  0  0  0  0  0  0  0  0  0  0
   47.8210   36.3490   40.8090 H   0  0  0  0  0  0  0  0  0  0  0  0
   49.9100   32.8150   43.3580 H   0  0  0  0  0  0  0  0  0  0  0  0
  2  1  1  0  0  0  0
  3 32  1  0  0  0  0
  3  2  2  0  0  0  0
  4  3  1  0  0  0  0
  5  4  2  0  0  0  0
  5  6  1  0  0  0  0
  6  7  2  0  0  0  0
  7  2  1  0  0  0  0
  7 10  1  0  0  0  0
  8  5  1  0  0  0  0
  9  6  1  0  0  0  0
 11 21  1  0  0  0  0
 12 11  1  0  0  0  0
 12  4  1  0  0  0  0
 13 12  2  0  0  0  0
 14 15  2  0  0  0  0
 14 13  1  0  0  0  0
 15 16  1  0  0  0  0
 16 20  1  0  0  0  0
 16 11  2  0  0  0  0
 17 13  1  0  0  0  0
 18 14  1  0  0  0  0
 19 15  1  0  0  0  0
 21 22  2  0  0  0  0
 23 21  2  0  0  0  0
 25 26  1  0  0  0  0
 25 24  1  0  0  0  0
 27 26  1  0  0  0  0
 28 27  1  0  0  0  0
 29 21  1  1  0  0  0
 29 28  1  0  0  0  0
 29 25  1  0  0  0  0
 30 35  1  0  0  0  0
 31 32  1  0  0  0  0
 31 30  2  0  0  0  0
 32 33  2  0  0  0  0
 33 34  1  0  0  0  0
 34 38  1  0  0  0  0
 35 34  2  0  0  0  0
 36 30  1  0  0  0  0
 37 31  1  0  0  0  0
M  END
>  <minimizedAffinity>
-4.41500664

>  <minimizedRMSD>
1.98271835

$$$$
