
 OpenBabel03252501123D

 36 39  0  0  1  0  0  0  0  0999 V2000
   48.9680   31.6000   39.5100 C   0  0  2  0  0  0  0  0  0  0  0  0
   50.0770   31.9190   40.4040 C   0  0  0  0  0  0  0  0  0  0  0  0
   49.7140   32.8470   41.4080 N   0  0  0  0  0  0  0  0  0  0  0  0
   49.5380   33.9080   42.3310 C   0  0  0  0  0  0  0  0  0  0  0  0
   50.3400   34.8790   42.5290 O   0  0  0  0  0  0  0  0  0  0  0  0
   48.2540   33.4430   42.8360 C   0  0  2  0  0  0  0  0  0  0  0  0
   48.5850   32.2120   42.0190 C   0  0  1  0  0  0  0  0  0  0  0  0
   47.5200   31.9280   40.5770 S   0  0  0  0  0  0  0  0  0  0  0  0
   51.0010   32.3060   39.8760 H   0  0  0  0  0  0  0  0  0  0  0  0
   50.4450   30.9890   40.9130 H   0  0  0  0  0  0  0  0  0  0  0  0
   48.3110   33.2630   43.9270 H   0  0  0  0  0  0  0  0  0  0  0  0
   48.8210   31.3230   42.6200 H   0  0  0  0  0  0  0  0  0  0  0  0
   48.9480   30.1310   39.1990 C   0  0  0  0  0  0  0  0  0  0  0  0
   49.2860   29.9780   38.1640 H   0  0  0  0  0  0  0  0  0  0  0  0
   47.9960   29.6440   39.4580 H   0  0  0  0  0  0  0  0  0  0  0  0
   49.7140   29.5840   39.8260 H   0  0  0  0  0  0  0  0  0  0  0  0
   48.9160   32.4680   38.2640 C   0  0  0  0  0  0  0  0  0  0  0  0
   49.7700   32.1380   37.6240 H   0  0  0  0  0  0  0  0  0  0  0  0
   49.1680   33.4970   38.5920 H   0  0  0  0  0  0  0  0  0  0  0  0
   47.7430   32.3330   37.5110 N   0  0  0  0  0  0  0  0  0  0  0  0
   48.0360   31.9000   36.1700 C   0  0  0  0  0  0  0  0  0  0  0  0
   46.7050   32.0310   35.4570 C   0  0  0  0  0  0  0  0  0  0  0  0
   45.8110   32.7970   36.4200 C   0  0  0  0  0  0  0  0  0  0  0  0
   46.8760   33.4330   37.3330 C   0  0  0  0  0  0  0  0  0  0  0  0
   46.3020   33.7150   38.2450 H   0  0  0  0  0  0  0  0  0  0  0  0
   47.1490   34.2840   42.3770 C   0  0  0  0  0  0  0  0  0  0  0  0
   46.9550   34.7180   41.2170 O   0  0  0  0  0  0  0  0  0  0  0  0
   44.5890   35.9640   44.4370 C   0  0  0  0  0  0  0  0  0  0  0  0
   45.4490   35.6590   43.3660 C   0  0  0  0  0  0  0  0  0  0  0  0
   46.2950   34.5490   43.5000 C   0  0  0  0  0  0  0  0  0  0  0  0
   46.2500   33.8200   44.6450 N   0  0  0  0  0  0  0  0  0  0  0  0
   45.4070   34.1420   45.6600 C   0  0  0  0  0  0  0  0  0  0  0  0
   44.5640   35.2210   45.5660 N   0  0  0  0  0  0  0  0  0  0  0  0
   43.9160   36.8060   44.3950 H   0  0  0  0  0  0  0  0  0  0  0  0
   45.3650   36.3310   42.5300 H   0  0  0  0  0  0  0  0  0  0  0  0
   45.3690   33.5730   46.5640 H   0  0  0  0  0  0  0  0  0  0  0  0
  1 17  1  6  0  0  0
  1  2  1  0  0  0  0
  1  8  1  0  0  0  0
  2 10  1  0  0  0  0
  2  3  1  0  0  0  0
  3  7  1  0  0  0  0
  3  4  1  0  0  0  0
  4  5  2  0  0  0  0
  4  6  1  0  0  0  0
  6 11  1  1  0  0  0
  7 12  1  1  0  0  0
  7  6  1  0  0  0  0
  8  7  1  0  0  0  0
  9  2  1  0  0  0  0
 13 15  1  0  0  0  0
 13  1  1  0  0  0  0
 13 16  1  0  0  0  0
 14 13  1  0  0  0  0
 17 19  1  0  0  0  0
 18 17  1  0  0  0  0
 20 17  1  0  0  0  0
 21 20  1  0  0  0  0
 22 21  1  0  0  0  0
 22 23  1  0  0  0  0
 23 24  1  0  0  0  0
 24 20  1  0  0  0  0
 24 25  1  0  0  0  0
 26  6  1  0  0  0  0
 26 30  1  0  0  0  0
 27 26  2  0  0  0  0
 28 33  1  0  0  0  0
 29 30  1  0  0  0  0
 29 28  2  0  0  0  0
 30 31  2  0  0  0  0
 31 32  1  0  0  0  0
 32 36  1  0  0  0  0
 33 32  2  0  0  0  0
 34 28  1  0  0  0  0
 35 29  1  0  0  0  0
M  END
>  <minimizedAffinity>
-5.16432858

>  <minimizedRMSD>
2.26951122

$$$$
