
 OpenBabel03252504563D

 28 30  0  0  1  0  0  0  0  0999 V2000
   37.1440   30.6290   40.1670 N   0  0  0  0  0  0  0  0  0  0  0  0
   36.8240   29.8960   38.9910 C   0  0  0  0  0  0  0  0  0  0  0  0
   36.9370   30.9060   37.9090 C   0  0  0  0  0  0  0  0  0  0  0  0
   37.3900   32.2130   38.5370 C   0  0  0  0  0  0  0  0  0  0  0  0
   37.9610   31.6920   39.8680 C   0  0  1  0  0  0  0  0  0  0  0  0
   36.5550   28.9020   38.7580 H   0  0  0  0  0  0  0  0  0  0  0  0
   36.7620   30.7330   36.8390 H   0  0  0  0  0  0  0  0  0  0  0  0
   36.5050   32.8170   38.6340 H   0  0  0  0  0  0  0  0  0  0  0  0
   38.1430   32.6620   37.9000 H   0  0  0  0  0  0  0  0  0  0  0  0
   38.9210   31.1990   39.4710 H   0  0  0  0  0  0  0  0  0  0  0  0
   38.4040   32.6830   40.7310 N   0  0  1  0  0  0  0  0  0  0  0  0
   39.7170   32.3890   41.2900 C   0  0  0  0  0  2  0  0  0  0  0  0
   40.7670   33.1390   40.5710 C   0  0  0  0  0  2  0  0  0  0  0  0
   40.0280   34.1610   39.7670 C   0  0  0  0  0  2  0  0  0  0  0  0
   38.6080   33.9990   40.1700 C   0  0  0  0  0  3  0  0  0  0  0  0
   37.8690   34.2550   39.3880 H   0  0  0  0  0  0  0  0  0  0  0  0
   36.5940   30.2960   41.3550 C   0  0  0  0  0  0  0  0  0  0  0  0
   36.4570   31.0990   42.1340 H   0  0  0  0  0  0  0  0  0  0  0  0
   35.5060   30.0010   41.1810 H   0  0  0  0  0  0  0  0  0  0  0  0
   37.1950   26.8810   42.8260 C   0  0  0  0  0  0  0  0  0  0  0  0
   36.5080   27.9090   42.1750 C   0  0  0  0  0  0  0  0  0  0  0  0
   37.1570   29.1340   42.0360 C   0  0  0  0  0  0  0  0  0  0  0  0
   38.4030   29.2450   42.5410 N   0  0  0  0  0  0  0  0  0  0  0  0
   39.0560   28.2140   43.1790 C   0  0  0  0  0  0  0  0  0  0  0  0
   38.4420   27.0390   43.3160 N   0  0  0  0  0  0  0  0  0  0  0  0
   36.6350   25.9580   42.9010 H   0  0  0  0  0  0  0  0  0  0  0  0
   35.5170   27.8090   41.7770 H   0  0  0  0  0  0  0  0  0  0  0  0
   40.0520   28.4530   43.5310 H   0  0  0  0  0  0  0  0  0  0  0  0
  1 17  1  0  0  0  0
  2  1  1  0  0  0  0
  3  4  1  0  0  0  0
  3  2  2  0  0  0  0
  4  8  1  0  0  0  0
  4  5  1  0  0  0  0
  5 10  1  6  0  0  0
  5  1  1  0  0  0  0
  5 11  1  0  0  0  0
  6  2  1  0  0  0  0
  7  3  1  0  0  0  0
  9  4  1  0  0  0  0
 11 12  1  6  0  0  0
 13 12  1  0  0  0  0
 14 15  1  0  0  0  0
 14 13  1  0  0  0  0
 15 11  1  0  0  0  0
 16 15  1  0  0  0  0
 17 22  1  0  0  0  0
 17 18  1  0  0  0  0
 19 17  1  0  0  0  0
 20 26  1  0  0  0  0
 20 25  1  0  0  0  0
 21 20  2  0  0  0  0
 22 21  1  0  0  0  0
 22 23  2  0  0  0  0
 23 24  1  0  0  0  0
 24 25  2  0  0  0  0
 24 28  1  0  0  0  0
 27 21  1  0  0  0  0
M  END
>  <minimizedAffinity>
-4.62666035

$$$$

 OpenBabel03252504563D

 28 30  0  0  1  0  0  0  0  0999 V2000
   38.8780   27.7940   42.9780 N   0  0  0  0  0  0  0  0  0  0  0  0
   40.2620   27.7980   43.3050 C   0  0  0  0  0  0  0  0  0  0  0  0
   40.5740   26.3640   43.5230 C   0  0  0  0  0  0  0  0  0  0  0  0
   39.3120   25.5660   43.2450 C   0  0  0  0  0  0  0  0  0  0  0  0
   38.5160   26.5930   42.4190 C   0  0  1  0  0  0  0  0  0  0  0  0
   41.0210   28.5250   43.4120 H   0  0  0  0  0  0  0  0  0  0  0  0
   41.5510   25.9470   43.8000 H   0  0  0  0  0  0  0  0  0  0  0  0
   38.8880   25.3380   44.2070 H   0  0  0  0  0  0  0  0  0  0  0  0
   39.5770   24.6820   42.6780 H   0  0  0  0  0  0  0  0  0  0  0  0
   39.1230   26.5480   41.4430 H   0  0  0  0  0  0  0  0  0  0  0  0
   37.2420   26.1800   42.0620 N   0  0  1  0  0  0  0  0  0  0  0  0
   36.9500   26.4270   40.6560 C   0  0  0  0  0  2  0  0  0  0  0  0
   37.1120   25.1890   39.8660 C   0  0  0  0  0  2  0  0  0  0  0  0
   37.1870   24.0930   40.8820 C   0  0  0  0  0  2  0  0  0  0  0  0
   36.9500   24.7710   42.1820 C   0  0  0  0  0  3  0  0  0  0  0  0
   37.4450   24.2990   43.0510 H   0  0  0  0  0  0  0  0  0  0  0  0
   38.0940   28.8470   43.2980 C   0  0  0  0  0  0  0  0  0  0  0  0
   37.1140   28.6530   43.8210 H   0  0  0  0  0  0  0  0  0  0  0  0
   38.6250   29.4670   44.0940 H   0  0  0  0  0  0  0  0  0  0  0  0
   38.3690   31.5260   40.6650 C   0  0  0  0  0  0  0  0  0  0  0  0
   38.7750   30.6820   41.7030 C   0  0  0  0  0  0  0  0  0  0  0  0
   37.8260   29.8120   42.2370 C   0  0  0  0  0  0  0  0  0  0  0  0
   36.5810   29.8460   41.7180 N   0  0  0  0  0  0  0  0  0  0  0  0
   36.2100   30.6900   40.6940 C   0  0  0  0  0  0  0  0  0  0  0  0
   37.1120   31.5240   40.1780 N   0  0  0  0  0  0  0  0  0  0  0  0
   39.1530   32.1750   40.2970 H   0  0  0  0  0  0  0  0  0  0  0  0
   39.7670   30.6650   42.1070 H   0  0  0  0  0  0  0  0  0  0  0  0
   35.1770   30.6030   40.3830 H   0  0  0  0  0  0  0  0  0  0  0  0
  1 17  1  0  0  0  0
  1  2  1  0  0  0  0
  2  6  1  0  0  0  0
  2  3  2  0  0  0  0
  3  7  1  0  0  0  0
  4  3  1  0  0  0  0
  4  8  1  0  0  0  0
  5 10  1  6  0  0  0
  5  1  1  0  0  0  0
  5  4  1  0  0  0  0
  9  4  1  0  0  0  0
 11 12  1  6  0  0  0
 11 15  1  0  0  0  0
 11  5  1  0  0  0  0
 13 12  1  0  0  0  0
 13 14  1  0  0  0  0
 14 15  1  0  0  0  0
 15 16  1  0  0  0  0
 17 18  1  0  0  0  0
 17 19  1  0  0  0  0
 20 21  1  0  0  0  0
 21 27  1  0  0  0  0
 21 22  2  0  0  0  0
 22 17  1  0  0  0  0
 23 22  1  0  0  0  0
 24 23  2  0  0  0  0
 25 20  2  0  0  0  0
 25 24  1  0  0  0  0
 26 20  1  0  0  0  0
 28 24  1  0  0  0  0
M  END
>  <minimizedAffinity>
-4.48701239

$$$$

 OpenBabel03252504563D

 28 30  0  0  1  0  0  0  0  0999 V2000
   37.2500   29.1690   41.8880 N   0  0  0  0  0  0  0  0  0  0  0  0
   36.2920   28.1780   41.5390 C   0  0  0  0  0  0  0  0  0  0  0  0
   35.3540   28.8990   40.6440 C   0  0  0  0  0  0  0  0  0  0  0  0
   35.8710   30.3170   40.4720 C   0  0  0  0  0  0  0  0  0  0  0  0
   37.3350   30.1270   40.9080 C   0  0  1  0  0  0  0  0  0  0  0  0
   36.1320   27.1570   41.7590 H   0  0  0  0  0  0  0  0  0  0  0  0
   34.4630   28.4760   40.1610 H   0  0  0  0  0  0  0  0  0  0  0  0
   35.2820   30.9290   41.1310 H   0  0  0  0  0  0  0  0  0  0  0  0
   35.7730   30.5980   39.4300 H   0  0  0  0  0  0  0  0  0  0  0  0
   37.7230   29.5510   39.9920 H   0  0  0  0  0  0  0  0  0  0  0  0
   38.0830   31.2940   40.9330 N   0  0  1  0  0  0  0  0  0  0  0  0
   39.3330   31.1710   40.1960 C   0  0  0  0  0  2  0  0  0  0  0  0
   39.2090   31.7830   38.8570 C   0  0  0  0  0  2  0  0  0  0  0  0
   37.9470   32.5840   38.9160 C   0  0  0  0  0  2  0  0  0  0  0  0
   37.4950   32.4650   40.3250 C   0  0  0  0  0  3  0  0  0  0  0  0
   36.3990   32.5230   40.4690 H   0  0  0  0  0  0  0  0  0  0  0  0
   37.8720   29.1310   43.0870 C   0  0  0  0  0  0  0  0  0  0  0  0
   38.1240   30.1030   43.5990 H   0  0  0  0  0  0  0  0  0  0  0  0
   37.1560   28.6830   43.8530 H   0  0  0  0  0  0  0  0  0  0  0  0
   40.2590   26.2780   43.6790 C   0  0  0  0  0  0  0  0  0  0  0  0
   39.0480   26.9760   43.6790 C   0  0  0  0  0  0  0  0  0  0  0  0
   39.0530   28.2800   43.1870 C   0  0  0  0  0  0  0  0  0  0  0  0
   40.2260   28.7790   42.7450 N   0  0  0  0  0  0  0  0  0  0  0  0
   41.4050   28.0670   42.7570 C   0  0  0  0  0  0  0  0  0  0  0  0
   41.4090   26.8190   43.2260 N   0  0  0  0  0  0  0  0  0  0  0  0
   40.1860   25.2730   44.0740 H   0  0  0  0  0  0  0  0  0  0  0  0
   38.1220   26.5680   44.0330 H   0  0  0  0  0  0  0  0  0  0  0  0
   42.2650   28.6000   42.3700 H   0  0  0  0  0  0  0  0  0  0  0  0
  1 17  1  0  0  0  0
  2  6  1  0  0  0  0
  2  1  1  0  0  0  0
  3  2  2  0  0  0  0
  4  3  1  0  0  0  0
  4  5  1  0  0  0  0
  4  8  1  0  0  0  0
  5 10  1  6  0  0  0
  5 11  1  0  0  0  0
  5  1  1  0  0  0  0
  7  3  1  0  0  0  0
  9  4  1  0  0  0  0
 11 12  1  6  0  0  0
 13 14  1  0  0  0  0
 13 12  1  0  0  0  0
 14 15  1  0  0  0  0
 15 16  1  0  0  0  0
 15 11  1  0  0  0  0
 17 22  1  0  0  0  0
 17 18  1  0  0  0  0
 17 19  1  0  0  0  0
 20 21  1  0  0  0  0
 20 26  1  0  0  0  0
 21 27  1  0  0  0  0
 22 21  2  0  0  0  0
 23 24  2  0  0  0  0
 23 22  1  0  0  0  0
 24 25  1  0  0  0  0
 25 20  2  0  0  0  0
 28 24  1  0  0  0  0
M  END
>  <minimizedAffinity>
-4.46824694

$$$$

 OpenBabel03252504563D

 28 30  0  0  1  0  0  0  0  0999 V2000
   36.3270   29.5370   40.4710 N   0  0  0  0  0  0  0  0  0  0  0  0
   36.3320   29.4140   39.0540 C   0  0  0  0  0  0  0  0  0  0  0  0
   37.0830   28.1560   38.8160 C   0  0  0  0  0  0  0  0  0  0  0  0
   37.4410   27.5640   40.1680 C   0  0  0  0  0  0  0  0  0  0  0  0
   36.4320   28.3040   41.0650 C   0  0  1  0  0  0  0  0  0  0  0  0
   35.9570   29.9660   38.2360 H   0  0  0  0  0  0  0  0  0  0  0  0
   37.3090   27.7110   37.8380 H   0  0  0  0  0  0  0  0  0  0  0  0
   38.4700   27.8240   40.3420 H   0  0  0  0  0  0  0  0  0  0  0  0
   37.2730   26.4940   40.1340 H   0  0  0  0  0  0  0  0  0  0  0  0
   35.4720   27.7590   40.7420 H   0  0  0  0  0  0  0  0  0  0  0  0
   36.5560   28.0280   42.4180 N   0  0  1  0  0  0  0  0  0  0  0  0
   37.0070   26.6650   42.6700 C   0  0  0  0  0  2  0  0  0  0  0  0
   38.4540   26.6440   42.9680 C   0  0  0  0  0  2  0  0  0  0  0  0
   38.8150   28.0740   43.2210 C   0  0  0  0  0  2  0  0  0  0  0  0
   37.5220   28.8020   43.1610 C   0  0  0  0  0  3  0  0  0  0  0  0
   37.5940   29.8500   42.8160 H   0  0  0  0  0  0  0  0  0  0  0  0
   36.3110   30.7560   41.0540 C   0  0  0  0  0  0  0  0  0  0  0  0
   35.3780   31.3820   40.9740 H   0  0  0  0  0  0  0  0  0  0  0  0
   36.3620   30.6180   42.1850 H   0  0  0  0  0  0  0  0  0  0  0  0
   39.7410   32.2670   40.6840 C   0  0  0  0  0  0  0  0  0  0  0  0
   38.7700   31.3320   41.0510 C   0  0  0  0  0  0  0  0  0  0  0  0
   37.4400   31.6350   40.7670 C   0  0  0  0  0  0  0  0  0  0  0  0
   37.1810   32.8120   40.1600 N   0  0  0  0  0  0  0  0  0  0  0  0
   38.1600   33.7150   39.8100 C   0  0  0  0  0  0  0  0  0  0  0  0
   39.4340   33.4320   40.0770 N   0  0  0  0  0  0  0  0  0  0  0  0
   40.7520   31.9700   40.9330 H   0  0  0  0  0  0  0  0  0  0  0  0
   38.9880   30.4000   41.5340 H   0  0  0  0  0  0  0  0  0  0  0  0
   37.7990   34.6160   39.3280 H   0  0  0  0  0  0  0  0  0  0  0  0
  1 17  1  0  0  0  0
  1  5  1  0  0  0  0
  2  1  1  0  0  0  0
  3  2  2  0  0  0  0
  3  4  1  0  0  0  0
  4  8  1  0  0  0  0
  4  5  1  0  0  0  0
  5 10  1  6  0  0  0
  5 11  1  0  0  0  0
  6  2  1  0  0  0  0
  7  3  1  0  0  0  0
  9  4  1  0  0  0  0
 11 12  1  6  0  0  0
 11 15  1  0  0  0  0
 12 13  1  0  0  0  0
 13 14  1  0  0  0  0
 15 14  1  0  0  0  0
 16 15  1  0  0  0  0
 17 19  1  0  0  0  0
 18 17  1  0  0  0  0
 20 26  1  0  0  0  0
 20 21  1  0  0  0  0
 21 27  1  0  0  0  0
 22 21  2  0  0  0  0
 22 17  1  0  0  0  0
 23 22  1  0  0  0  0
 24 25  1  0  0  0  0
 24 23  2  0  0  0  0
 25 20  2  0  0  0  0
 28 24  1  0  0  0  0
M  END
>  <minimizedAffinity>
-4.434062

$$$$

 OpenBabel03252504563D

 28 30  0  0  1  0  0  0  0  0999 V2000
   37.0830   29.5400   39.1300 N   0  0  0  0  0  0  0  0  0  0  0  0
   35.8720   29.4520   38.3910 C   0  0  0  0  0  0  0  0  0  0  0  0
   35.3720   28.0890   38.7020 C   0  0  0  0  0  0  0  0  0  0  0  0
   36.3350   27.4550   39.6910 C   0  0  0  0  0  0  0  0  0  0  0  0
   37.0450   28.7120   40.2240 C   0  0  1  0  0  0  0  0  0  0  0  0
   35.3210   30.0800   37.7440 H   0  0  0  0  0  0  0  0  0  0  0  0
   34.4510   27.6320   38.3160 H   0  0  0  0  0  0  0  0  0  0  0  0
   36.9600   26.7960   39.1140 H   0  0  0  0  0  0  0  0  0  0  0  0
   35.7610   26.9380   40.4500 H   0  0  0  0  0  0  0  0  0  0  0  0
   36.1930   29.1410   40.8660 H   0  0  0  0  0  0  0  0  0  0  0  0
   38.0690   28.4550   41.1230 N   0  0  1  0  0  0  0  0  0  0  0  0
   38.0180   29.3270   42.2900 C   0  0  0  0  0  2  0  0  0  0  0  0
   37.4080   28.6240   43.4370 C   0  0  0  0  0  2  0  0  0  0  0  0
   37.3900   27.1820   43.0380 C   0  0  0  0  0  2  0  0  0  0  0  0
   38.0960   27.1460   41.7330 C   0  0  0  0  0  3  0  0  0  0  0  0
   37.7670   26.3430   41.0460 H   0  0  0  0  0  0  0  0  0  0  0  0
   38.1080   30.2980   38.6800 C   0  0  0  0  0  0  0  0  0  0  0  0
   39.1390   29.8450   38.6360 H   0  0  0  0  0  0  0  0  0  0  0  0
   37.9390   30.5170   37.5740 H   0  0  0  0  0  0  0  0  0  0  0  0
   37.6000   33.8660   39.7770 C   0  0  0  0  0  0  0  0  0  0  0  0
   37.3350   32.6620   39.1180 C   0  0  0  0  0  0  0  0  0  0  0  0
   38.2520   31.6240   39.2720 C   0  0  0  0  0  0  0  0  0  0  0  0
   39.3330   31.8530   40.0470 N   0  0  0  0  0  0  0  0  0  0  0  0
   39.5680   33.0500   40.6840 C   0  0  0  0  0  0  0  0  0  0  0  0
   38.6960   34.0480   40.5420 N   0  0  0  0  0  0  0  0  0  0  0  0
   36.8490   34.6290   39.6150 H   0  0  0  0  0  0  0  0  0  0  0  0
   36.4710   32.4920   38.5050 H   0  0  0  0  0  0  0  0  0  0  0  0
   40.4780   33.0840   41.2710 H   0  0  0  0  0  0  0  0  0  0  0  0
  1  5  1  0  0  0  0
  2  3  2  0  0  0  0
  2  1  1  0  0  0  0
  3  4  1  0  0  0  0
  4  5  1  0  0  0  0
  4  9  1  0  0  0  0
  5 10  1  1  0  0  0
  5 11  1  0  0  0  0
  6  2  1  0  0  0  0
  7  3  1  0  0  0  0
  8  4  1  0  0  0  0
 11 15  1  0  0  0  0
 11 12  1  1  0  0  0
 12 13  1  0  0  0  0
 14 13  1  0  0  0  0
 15 14  1  0  0  0  0
 16 15  1  0  0  0  0
 17  1  1  0  0  0  0
 17 22  1  0  0  0  0
 18 17  1  0  0  0  0
 19 17  1  0  0  0  0
 20 25  1  0  0  0  0
 21 22  1  0  0  0  0
 21 20  2  0  0  0  0
 22 23  2  0  0  0  0
 23 24  1  0  0  0  0
 24 28  1  0  0  0  0
 25 24  2  0  0  0  0
 26 20  1  0  0  0  0
 27 21  1  0  0  0  0
M  END
>  <minimizedAffinity>
-4.37742281

$$$$

 OpenBabel03252504563D

 28 30  0  0  1  0  0  0  0  0999 V2000
   36.9020   28.0370   41.5290 N   0  0  0  0  0  0  0  0  0  0  0  0
   36.5690   27.6960   42.8690 C   0  0  0  0  0  0  0  0  0  0  0  0
   37.5280   28.4880   43.6790 C   0  0  0  0  0  0  0  0  0  0  0  0
   38.3650   29.3220   42.7250 C   0  0  0  0  0  0  0  0  0  0  0  0
   37.4700   29.2850   41.4730 C   0  0  1  0  0  0  0  0  0  0  0  0
   35.8650   27.0720   43.3480 H   0  0  0  0  0  0  0  0  0  0  0  0
   37.5980   28.4990   44.7750 H   0  0  0  0  0  0  0  0  0  0  0  0
   39.3020   28.8030   42.6220 H   0  0  0  0  0  0  0  0  0  0  0  0
   38.4750   30.3170   43.1380 H   0  0  0  0  0  0  0  0  0  0  0  0
   36.6320   29.9860   41.8310 H   0  0  0  0  0  0  0  0  0  0  0  0
   38.0080   29.9170   40.3630 N   0  0  1  0  0  0  0  0  0  0  0  0
   37.0090   30.6620   39.6070 C   0  0  0  0  0  2  0  0  0  0  0  0
   37.0800   32.1020   39.9310 C   0  0  0  0  0  2  0  0  0  0  0  0
   38.3760   32.2680   40.6600 C   0  0  0  0  0  2  0  0  0  0  0  0
   39.0120   30.9280   40.6040 C   0  0  0  0  0  3  0  0  0  0  0  0
   39.6700   30.6880   41.4590 H   0  0  0  0  0  0  0  0  0  0  0  0
   36.7260   27.1440   40.5300 C   0  0  0  0  0  0  0  0  0  0  0  0
   35.6810   26.9440   40.1600 H   0  0  0  0  0  0  0  0  0  0  0  0
   37.1960   27.5650   39.5800 H   0  0  0  0  0  0  0  0  0  0  0  0
   37.4760   23.4700   40.8830 C   0  0  0  0  0  0  0  0  0  0  0  0
   36.7050   24.6300   40.7670 C   0  0  0  0  0  0  0  0  0  0  0  0
   37.3780   25.8480   40.6860 C   0  0  0  0  0  0  0  0  0  0  0  0
   38.7260   25.8240   40.7270 N   0  0  0  0  0  0  0  0  0  0  0  0
   39.4600   24.6640   40.8420 C   0  0  0  0  0  0  0  0  0  0  0  0
   38.8240   23.4950   40.9190 N   0  0  0  0  0  0  0  0  0  0  0  0
   36.8930   22.5600   40.9410 H   0  0  0  0  0  0  0  0  0  0  0  0
   35.6340   24.6360   40.7360 H   0  0  0  0  0  0  0  0  0  0  0  0
   40.5340   24.8020   40.8610 H   0  0  0  0  0  0  0  0  0  0  0  0
  1  2  1  0  0  0  0
  2  6  1  0  0  0  0
  2  3  2  0  0  0  0
  3  7  1  0  0  0  0
  4  9  1  0  0  0  0
  4  3  1  0  0  0  0
  5  1  1  0  0  0  0
  5 10  1  1  0  0  0
  5  4  1  0  0  0  0
  8  4  1  0  0  0  0
 11 12  1  1  0  0  0
 11 15  1  0  0  0  0
 11  5  1  0  0  0  0
 12 13  1  0  0  0  0
 13 14  1  0  0  0  0
 15 14  1  0  0  0  0
 15 16  1  0  0  0  0
 17 22  1  0  0  0  0
 17  1  1  0  0  0  0
 18 17  1  0  0  0  0
 19 17  1  0  0  0  0
 20 25  1  0  0  0  0
 20 26  1  0  0  0  0
 21 20  2  0  0  0  0
 22 23  2  0  0  0  0
 22 21  1  0  0  0  0
 23 24  1  0  0  0  0
 24 28  1  0  0  0  0
 24 25  2  0  0  0  0
 27 21  1  0  0  0  0
M  END
>  <minimizedAffinity>
-4.34503746

$$$$

 OpenBabel03252504563D

 28 30  0  0  1  0  0  0  0  0999 V2000
   38.6300   28.3560   42.0000 N   0  0  0  0  0  0  0  0  0  0  0  0
   38.3320   28.8860   43.2860 C   0  0  0  0  0  0  0  0  0  0  0  0
   37.0870   28.1780   43.6750 C   0  0  0  0  0  0  0  0  0  0  0  0
   36.7470   27.1930   42.5710 C   0  0  0  0  0  0  0  0  0  0  0  0
   38.1110   27.0920   41.8650 C   0  0  1  0  0  0  0  0  0  0  0  0
   38.7620   29.5950   43.9400 H   0  0  0  0  0  0  0  0  0  0  0  0
   36.5300   28.3130   44.6120 H   0  0  0  0  0  0  0  0  0  0  0  0
   35.9730   27.6590   41.9860 H   0  0  0  0  0  0  0  0  0  0  0  0
   36.4330   26.2600   43.0220 H   0  0  0  0  0  0  0  0  0  0  0  0
   38.6770   26.4760   42.6550 H   0  0  0  0  0  0  0  0  0  0  0  0
   38.1140   26.2970   40.7300 N   0  0  1  0  0  0  0  0  0  0  0  0
   39.2480   25.3820   40.6930 C   0  0  0  0  0  2  0  0  0  0  0  0
   38.8380   24.0290   41.1220 C   0  0  0  0  0  2  0  0  0  0  0  0
   37.3420   24.0570   41.1050 C   0  0  0  0  0  2  0  0  0  0  0  0
   37.0000   25.3940   40.5570 C   0  0  0  0  0  3  0  0  0  0  0  0
   36.0420   25.8140   40.9190 H   0  0  0  0  0  0  0  0  0  0  0  0
   39.2640   29.1110   41.0760 C   0  0  0  0  0  0  0  0  0  0  0  0
   40.3570   29.3430   41.2230 H   0  0  0  0  0  0  0  0  0  0  0  0
   39.3150   28.5230   40.1000 H   0  0  0  0  0  0  0  0  0  0  0  0
   36.8800   31.7120   39.7570 C   0  0  0  0  0  0  0  0  0  0  0  0
   37.3880   30.4390   40.0300 C   0  0  0  0  0  0  0  0  0  0  0  0
   38.6130   30.3580   40.6890 C   0  0  0  0  0  0  0  0  0  0  0  0
   39.2260   31.5150   41.0170 N   0  0  0  0  0  0  0  0  0  0  0  0
   38.7010   32.7570   40.7340 C   0  0  0  0  0  0  0  0  0  0  0  0
   37.5300   32.8420   40.1050 N   0  0  0  0  0  0  0  0  0  0  0  0
   35.9270   31.7030   39.2450 H   0  0  0  0  0  0  0  0  0  0  0  0
   36.8910   29.5270   39.7650 H   0  0  0  0  0  0  0  0  0  0  0  0
   39.3080   33.5930   41.0590 H   0  0  0  0  0  0  0  0  0  0  0  0
  1  2  1  0  0  0  0
  2  3  2  0  0  0  0
  2  6  1  0  0  0  0
  3  7  1  0  0  0  0
  4  9  1  0  0  0  0
  4  3  1  0  0  0  0
  5  1  1  0  0  0  0
  5  4  1  0  0  0  0
  5 10  1  1  0  0  0
  8  4  1  0  0  0  0
 11 12  1  1  0  0  0
 11  5  1  0  0  0  0
 12 13  1  0  0  0  0
 14 13  1  0  0  0  0
 15 11  1  0  0  0  0
 15 16  1  0  0  0  0
 15 14  1  0  0  0  0
 17 18  1  0  0  0  0
 17  1  1  0  0  0  0
 19 17  1  0  0  0  0
 20 21  2  0  0  0  0
 20 25  1  0  0  0  0
 21 22  1  0  0  0  0
 22 23  2  0  0  0  0
 22 17  1  0  0  0  0
 24 23  1  0  0  0  0
 24 28  1  0  0  0  0
 25 24  2  0  0  0  0
 26 20  1  0  0  0  0
 27 21  1  0  0  0  0
M  END
>  <minimizedAffinity>
-4.34243298

$$$$

 OpenBabel03252504563D

 28 30  0  0  1  0  0  0  0  0999 V2000
   36.8640   28.4320   41.4930 N   0  0  0  0  0  0  0  0  0  0  0  0
   37.3420   29.3030   42.5110 C   0  0  0  0  0  0  0  0  0  0  0  0
   37.5250   28.4070   43.6790 C   0  0  0  0  0  0  0  0  0  0  0  0
   37.1820   26.9940   43.2410 C   0  0  0  0  0  0  0  0  0  0  0  0
   37.2960   27.1470   41.7140 C   0  0  1  0  0  0  0  0  0  0  0  0
   37.5650   30.3320   42.5950 H   0  0  0  0  0  0  0  0  0  0  0  0
   37.8810   28.7040   44.6750 H   0  0  0  0  0  0  0  0  0  0  0  0
   36.1850   26.8060   43.6000 H   0  0  0  0  0  0  0  0  0  0  0  0
   37.9170   26.3140   43.6540 H   0  0  0  0  0  0  0  0  0  0  0  0
   38.4400   27.2210   41.6250 H   0  0  0  0  0  0  0  0  0  0  0  0
   36.9590   26.0100   40.9950 N   0  0  1  0  0  0  0  0  0  0  0  0
   37.9550   25.6730   39.9860 C   0  0  0  0  0  2  0  0  0  0  0  0
   38.8370   24.5910   40.4680 C   0  0  0  0  0  2  0  0  0  0  0  0
   38.1450   24.0400   41.6740 C   0  0  0  0  0  2  0  0  0  0  0  0
   36.8560   24.7730   41.7340 C   0  0  0  0  0  3  0  0  0  0  0  0
   36.4430   24.9100   42.7510 H   0  0  0  0  0  0  0  0  0  0  0  0
   36.0300   28.8890   40.5330 C   0  0  0  0  0  0  0  0  0  0  0  0
   35.2970   28.1720   40.0660 H   0  0  0  0  0  0  0  0  0  0  0  0
   35.3070   29.6340   41.0060 H   0  0  0  0  0  0  0  0  0  0  0  0
   37.3860   31.6130   38.3130 C   0  0  0  0  0  0  0  0  0  0  0  0
   36.7480   31.0360   39.4150 C   0  0  0  0  0  0  0  0  0  0  0  0
   36.6370   29.6470   39.4440 C   0  0  0  0  0  0  0  0  0  0  0  0
   37.1500   28.9550   38.4060 N   0  0  0  0  0  0  0  0  0  0  0  0
   37.7740   29.5510   37.3320 C   0  0  0  0  0  0  0  0  0  0  0  0
   37.8850   30.8790   37.2970 N   0  0  0  0  0  0  0  0  0  0  0  0
   37.4390   32.6930   38.3520 H   0  0  0  0  0  0  0  0  0  0  0  0
   36.3440   31.5970   40.2340 H   0  0  0  0  0  0  0  0  0  0  0  0
   38.1360   28.8650   36.5760 H   0  0  0  0  0  0  0  0  0  0  0  0
  1  5  1  0  0  0  0
  1  2  1  0  0  0  0
  2  6  1  0  0  0  0
  2  3  2  0  0  0  0
  3  7  1  0  0  0  0
  4  8  1  0  0  0  0
  4  9  1  0  0  0  0
  4  3  1  0  0  0  0
  5 10  1  6  0  0  0
  5  4  1  0  0  0  0
 11 12  1  6  0  0  0
 11  5  1  0  0  0  0
 11 15  1  0  0  0  0
 12 13  1  0  0  0  0
 13 14  1  0  0  0  0
 14 15  1  0  0  0  0
 15 16  1  0  0  0  0
 17 19  1  0  0  0  0
 17  1  1  0  0  0  0
 18 17  1  0  0  0  0
 20 26  1  0  0  0  0
 20 21  1  0  0  0  0
 21 22  2  0  0  0  0
 21 27  1  0  0  0  0
 22 17  1  0  0  0  0
 23 22  1  0  0  0  0
 24 23  2  0  0  0  0
 25 24  1  0  0  0  0
 25 20  2  0  0  0  0
 28 24  1  0  0  0  0
M  END
>  <minimizedAffinity>
-4.33279133

$$$$

 OpenBabel03252504563D

 28 30  0  0  1  0  0  0  0  0999 V2000
   36.5000   31.0650   39.8770 N   0  0  0  0  0  0  0  0  0  0  0  0
   37.1220   32.2880   39.5030 C   0  0  0  0  0  0  0  0  0  0  0  0
   37.8200   31.9510   38.2370 C   0  0  0  0  0  0  0  0  0  0  0  0
   37.5050   30.5030   37.9030 C   0  0  0  0  0  0  0  0  0  0  0  0
   36.2530   30.2890   38.7720 C   0  0  1  0  0  0  0  0  0  0  0  0
   37.1820   33.2670   39.8940 H   0  0  0  0  0  0  0  0  0  0  0  0
   38.4260   32.6350   37.6290 H   0  0  0  0  0  0  0  0  0  0  0  0
   38.3660   29.9350   38.2090 H   0  0  0  0  0  0  0  0  0  0  0  0
   37.3020   30.4280   36.8420 H   0  0  0  0  0  0  0  0  0  0  0  0
   35.5020   30.9100   38.1610 H   0  0  0  0  0  0  0  0  0  0  0  0
   35.7480   28.9980   38.7440 N   0  0  1  0  0  0  0  0  0  0  0  0
   34.3000   28.9620   38.9010 C   0  0  0  0  0  2  0  0  0  0  0  0
   33.6400   28.7930   37.5900 C   0  0  0  0  0  2  0  0  0  0  0  0
   34.7370   28.3900   36.6560 C   0  0  0  0  0  2  0  0  0  0  0  0
   35.9330   28.2460   37.5250 C   0  0  0  0  0  3  0  0  0  0  0  0
   36.8980   28.4590   37.0280 H   0  0  0  0  0  0  0  0  0  0  0  0
   36.3050   30.7640   41.1800 C   0  0  0  0  0  0  0  0  0  0  0  0
   36.1610   31.6060   41.9150 H   0  0  0  0  0  0  0  0  0  0  0  0
   35.2990   30.2350   41.2840 H   0  0  0  0  0  0  0  0  0  0  0  0
   39.3460   29.1220   42.6770 C   0  0  0  0  0  0  0  0  0  0  0  0
   38.5800   30.1180   42.0650 C   0  0  0  0  0  0  0  0  0  0  0  0
   37.2460   29.8280   41.7850 C   0  0  0  0  0  0  0  0  0  0  0  0
   36.7860   28.6050   42.1230 N   0  0  0  0  0  0  0  0  0  0  0  0
   37.5650   27.6420   42.7270 C   0  0  0  0  0  0  0  0  0  0  0  0
   38.8420   27.9130   42.9980 N   0  0  0  0  0  0  0  0  0  0  0  0
   40.3720   29.4120   42.8660 H   0  0  0  0  0  0  0  0  0  0  0  0
   38.9570   31.0860   41.8010 H   0  0  0  0  0  0  0  0  0  0  0  0
   37.0570   26.7100   42.9380 H   0  0  0  0  0  0  0  0  0  0  0  0
  1 17  1  0  0  0  0
  2  1  1  0  0  0  0
  2  6  1  0  0  0  0
  3  2  2  0  0  0  0
  4  8  1  0  0  0  0
  4  3  1  0  0  0  0
  4  5  1  0  0  0  0
  5 10  1  6  0  0  0
  5  1  1  0  0  0  0
  7  3  1  0  0  0  0
  9  4  1  0  0  0  0
 11  5  1  0  0  0  0
 11 12  1  6  0  0  0
 13 12  1  0  0  0  0
 14 15  1  0  0  0  0
 14 13  1  0  0  0  0
 15 11  1  0  0  0  0
 16 15  1  0  0  0  0
 17 19  1  0  0  0  0
 17 22  1  0  0  0  0
 17 18  1  0  0  0  0
 20 26  1  0  0  0  0
 20 25  1  0  0  0  0
 21 20  2  0  0  0  0
 22 21  1  0  0  0  0
 22 23  2  0  0  0  0
 23 24  1  0  0  0  0
 24 28  1  0  0  0  0
 24 25  2  0  0  0  0
 27 21  1  0  0  0  0
M  END
>  <minimizedAffinity>
-4.30168533

$$$$
