
 OpenBabel03242521483D

 17 18  0  0  0  0  0  0  0  0999 V2000
   44.4760   35.9290   44.7660 C   0  0  0  0  0  0  0  0  0  0  0  0
   45.1090   35.8680   43.5130 C   0  0  0  0  0  0  0  0  0  0  0  0
   46.0140   34.8350   43.2910 C   0  0  0  0  0  0  0  0  0  0  0  0
   46.2340   33.9410   44.3010 N   0  0  0  0  0  0  0  0  0  0  0  0
   45.6090   34.0380   45.4810 C   0  0  0  0  0  0  0  0  0  0  0  0
   44.7410   35.0140   45.7200 N   0  0  0  0  0  0  0  0  0  0  0  0
   43.7890   36.7360   44.9000 H   0  0  0  0  0  0  0  0  0  0  0  0
   44.8940   36.5940   42.7680 H   0  0  0  0  0  0  0  0  0  0  0  0
   45.9200   33.0470   46.4580 N   0  0  0  0  0  0  0  0  0  0  0  0
   45.1490   32.7860   47.6600 C   0  0  0  0  0  0  0  0  0  0  0  0
   46.1250   32.1120   48.6310 C   0  0  0  0  0  0  0  0  0  0  0  0
   47.4450   32.4160   47.9620 C   0  0  0  0  0  0  0  0  0  0  0  0
   47.0160   32.0910   46.5240 C   0  0  0  0  0  0  0  0  0  0  0  0
   46.6130   31.0690   46.5040 H   0  0  0  0  0  0  0  0  0  0  0  0
   46.6710   34.7290   42.0560 N   0  0  0  0  0  0  0  0  0  0  0  0
   45.9750   34.3330   41.3850 H   0  0  0  0  0  0  0  0  0  0  0  0
   47.6750   34.9990   41.8510 H   0  0  0  0  0  0  0  0  0  0  0  0
  1  7  1  0  0  0  0
  1  6  1  0  0  0  0
  2  1  2  0  0  0  0
  3  2  1  0  0  0  0
  3  4  2  0  0  0  0
  4  5  1  0  0  0  0
  5  6  2  0  0  0  0
  5  9  1  0  0  0  0
  8  2  1  0  0  0  0
  9 13  1  0  0  0  0
  9 10  1  0  0  0  0
 10 11  1  0  0  0  0
 12 11  1  0  0  0  0
 13 12  1  0  0  0  0
 14 13  1  0  0  0  0
 15  3  1  0  0  0  0
 16 15  1  0  0  0  0
 17 15  1  0  0  0  0
M  END
>  <minimizedAffinity>
-4.76458454

>  <minimizedRMSD>
0.246636361

$$$$
