
 OpenBabel03252506393D

 41 44  0  0  1  0  0  0  0  0999 V2000
   37.0570   30.2530   36.6250 C   0  0  0  0  0  0  0  0  0  0  0  0
   37.7670   29.0760   36.3050 C   0  0  0  0  0  0  0  0  0  0  0  0
   38.7120   28.6250   37.1620 C   0  0  0  0  0  0  0  0  0  0  0  0
   38.9250   29.3420   38.2950 N   0  0  0  0  0  0  0  0  0  0  0  0
   38.2540   30.4460   38.5870 C   0  0  0  0  0  0  0  0  0  0  0  0
   37.3170   30.9140   37.7620 N   0  0  0  0  0  0  0  0  0  0  0  0
   38.5540   31.1350   39.8130 N   0  0  0  0  0  0  0  0  0  0  0  0
   37.7600   32.1820   40.3610 C   0  0  0  0  0  0  0  0  0  0  0  0
   38.7920   33.1120   40.9660 C   0  0  0  0  0  0  0  0  0  0  0  0
   40.1100   32.4170   40.8500 C   0  0  0  0  0  0  0  0  0  0  0  0
   39.6860   30.9540   40.6890 C   0  0  1  0  0  0  0  0  0  0  0  0
   36.3000   30.6060   35.9310 H   0  0  0  0  0  0  0  0  0  0  0  0
   39.2770   27.7260   36.9500 H   0  0  0  0  0  0  0  0  0  0  0  0
   36.8810   32.0330   40.9120 H   0  0  0  0  0  0  0  0  0  0  0  0
   37.4030   32.7810   39.4590 H   0  0  0  0  0  0  0  0  0  0  0  0
   38.5670   33.2320   42.0660 H   0  0  0  0  0  0  0  0  0  0  0  0
   38.8480   34.1020   40.5310 H   0  0  0  0  0  0  0  0  0  0  0  0
   40.6960   32.5380   41.7910 H   0  0  0  0  0  0  0  0  0  0  0  0
   40.6730   32.7220   39.9610 H   0  0  0  0  0  0  0  0  0  0  0  0
   40.5180   30.3850   40.2160 H   0  0  0  0  0  0  0  0  0  0  0  0
   37.4440   28.4100   35.0760 N   0  0  0  0  0  0  0  0  0  0  0  0
   38.1800   28.4280   34.3380 H   0  0  0  0  0  0  0  0  0  0  0  0
   36.5420   27.9190   34.8720 H   0  0  0  0  0  0  0  0  0  0  0  0
   39.2120   30.3110   42.2720 S   0  0  0  0  0  0  0  0  0  0  0  0
   39.2000   27.3430   40.7630 O   0  0  0  0  0  0  0  0  0  0  0  0
   38.3720   27.7740   41.5850 C   0  0  0  0  0  0  0  0  0  0  0  0
   38.0200   29.0330   42.2930 C   0  0  1  0  0  0  0  0  0  0  0  0
   37.6410   28.5140   43.6540 C   0  0  0  0  0  0  0  0  0  0  0  0
   36.6150   27.4720   43.1960 C   0  0  0  0  0  0  0  0  0  0  0  0
   37.3690   26.8720   42.1000 N   0  0  0  0  0  0  0  0  0  0  0  0
   37.0180   29.2350   41.8410 H   0  0  0  0  0  0  0  0  0  0  0  0
   38.4960   28.0110   44.1400 H   0  0  0  0  0  0  0  0  0  0  0  0
   37.1660   29.2800   44.2690 H   0  0  0  0  0  0  0  0  0  0  0  0
   35.7300   28.0190   42.8010 H   0  0  0  0  0  0  0  0  0  0  0  0
   36.3730   26.7630   43.9850 H   0  0  0  0  0  0  0  0  0  0  0  0
   37.9960   25.5760   39.8660 H   0  0  0  0  0  0  0  0  0  0  0  0
   37.0360   25.3810   40.2420 N   0  0  0  0  0  0  0  0  0  0  0  0
   36.8350   23.9280   40.1180 C   0  0  0  0  0  2  0  0  0  0  0  0
   37.7490   23.3330   41.1950 C   0  0  0  0  0  2  0  0  0  0  0  0
   38.1470   24.5410   42.0330 C   0  0  0  0  0  2  0  0  0  0  0  0
   37.0580   25.5140   41.6640 C   0  0  1  0  0  3  0  0  0  0  0  0
  1  6  1  0  0  0  0
  2  1  2  0  0  0  0
  2  3  1  0  0  0  0
  3  4  2  0  0  0  0
  4  5  1  0  0  0  0
  5  7  1  0  0  0  0
  6  5  2  0  0  0  0
  7  8  1  0  0  0  0
  7 11  1  0  0  0  0
  8 14  1  0  0  0  0
  8  9  1  0  0  0  0
  9 16  1  0  0  0  0
 10  9  1  0  0  0  0
 10 18  1  0  0  0  0
 11 20  1  6  0  0  0
 11 10  1  0  0  0  0
 11 24  1  0  0  0  0
 12  1  1  0  0  0  0
 13  3  1  0  0  0  0
 15  8  1  0  0  0  0
 17  9  1  0  0  0  0
 19 10  1  0  0  0  0
 21  2  1  0  0  0  0
 22 21  1  0  0  0  0
 23 21  1  0  0  0  0
 24 27  1  0  0  0  0
 25 26  2  0  0  0  0
 26 30  1  0  0  0  0
 26 27  1  0  0  0  0
 27 31  1  6  0  0  0
 27 28  1  0  0  0  0
 28 32  1  0  0  0  0
 28 33  1  0  0  0  0
 29 28  1  0  0  0  0
 29 35  1  0  0  0  0
 30 29  1  0  0  0  0
 34 29  1  0  0  0  0
 36 37  1  0  0  0  0
 37 41  1  0  0  0  0
 38 37  1  0  0  0  0
 38 39  1  0  0  0  0
 39 40  1  0  0  0  0
 41 40  1  1  0  0  0
 41 30  1  0  0  0  0
M  END
>  <minimizedAffinity>
-5.74359846

$$$$

 OpenBabel03252506393D

 41 44  0  0  1  0  0  0  0  0999 V2000
   38.2710   26.0290   36.8100 C   0  0  0  0  0  0  0  0  0  0  0  0
   37.1170   26.7410   36.4170 C   0  0  0  0  0  0  0  0  0  0  0  0
   36.2290   27.1280   37.3620 C   0  0  0  0  0  0  0  0  0  0  0  0
   36.5040   26.8020   38.6510 N   0  0  0  0  0  0  0  0  0  0  0  0
   37.5890   26.1320   39.0110 C   0  0  0  0  0  0  0  0  0  0  0  0
   38.4820   25.7390   38.1020 N   0  0  0  0  0  0  0  0  0  0  0  0
   37.7880   25.8350   40.4030 N   0  0  0  0  0  0  0  0  0  0  0  0
   39.0060   25.3410   40.9530 C   0  0  0  0  0  0  0  0  0  0  0  0
   38.5320   24.3890   42.0320 C   0  0  0  0  0  0  0  0  0  0  0  0
   37.0470   24.5490   42.1170 C   0  0  0  0  0  0  0  0  0  0  0  0
   36.8390   25.9280   41.4850 C   0  0  1  0  0  0  0  0  0  0  0  0
   38.9780   25.7240   36.0440 H   0  0  0  0  0  0  0  0  0  0  0  0
   35.3330   27.6750   37.0980 H   0  0  0  0  0  0  0  0  0  0  0  0
   39.8370   25.9360   41.1830 H   0  0  0  0  0  0  0  0  0  0  0  0
   39.4110   24.6220   40.1660 H   0  0  0  0  0  0  0  0  0  0  0  0
   38.9650   24.7220   43.0200 H   0  0  0  0  0  0  0  0  0  0  0  0
   38.7920   23.3480   41.8920 H   0  0  0  0  0  0  0  0  0  0  0  0
   36.7210   24.5700   43.1830 H   0  0  0  0  0  0  0  0  0  0  0  0
   36.5070   23.8020   41.5250 H   0  0  0  0  0  0  0  0  0  0  0  0
   35.7850   26.0110   41.1350 H   0  0  0  0  0  0  0  0  0  0  0  0
   36.9470   27.0250   35.0210 N   0  0  0  0  0  0  0  0  0  0  0  0
   36.1630   26.5290   34.5450 H   0  0  0  0  0  0  0  0  0  0  0  0
   37.5400   27.6780   34.4590 H   0  0  0  0  0  0  0  0  0  0  0  0
   37.2840   27.1780   42.6620 S   0  0  0  0  0  0  0  0  0  0  0  0
   36.3580   29.5560   40.5230 O   0  0  0  0  0  0  0  0  0  0  0  0
   37.4110   29.5040   41.1830 C   0  0  0  0  0  0  0  0  0  0  0  0
   38.1590   28.5670   42.0620 C   0  0  1  0  0  0  0  0  0  0  0  0
   38.6960   29.5050   43.1100 C   0  0  0  0  0  0  0  0  0  0  0  0
   39.3620   30.5090   42.1620 C   0  0  0  0  0  0  0  0  0  0  0  0
   38.2870   30.6520   41.1860 N   0  0  0  0  0  0  0  0  0  0  0  0
   39.0650   28.3920   41.4310 H   0  0  0  0  0  0  0  0  0  0  0  0
   37.8750   29.9960   43.6620 H   0  0  0  0  0  0  0  0  0  0  0  0
   39.4390   29.0250   43.7500 H   0  0  0  0  0  0  0  0  0  0  0  0
   40.2400   30.0060   41.6990 H   0  0  0  0  0  0  0  0  0  0  0  0
   39.6090   31.4410   42.6650 H   0  0  0  0  0  0  0  0  0  0  0  0
   36.6640   32.7510   41.3320 H   0  0  0  0  0  0  0  0  0  0  0  0
   36.9030   32.4380   40.3600 N   0  0  0  0  0  0  0  0  0  0  0  0
   37.1650   33.6630   39.5870 C   0  0  0  0  0  2  0  0  0  0  0  0
   38.5110   34.1600   40.1250 C   0  0  0  0  0  2  0  0  0  0  0  0
   39.0270   32.9830   40.9420 C   0  0  0  0  0  2  0  0  0  0  0  0
   38.2090   31.8570   40.3660 C   0  0  1  0  0  3  0  0  0  0  0  0
  1  6  1  0  0  0  0
  2  1  2  0  0  0  0
  2  3  1  0  0  0  0
  3  4  2  0  0  0  0
  4  5  1  0  0  0  0
  5  7  1  0  0  0  0
  6  5  2  0  0  0  0
  7  8  1  0  0  0  0
  7 11  1  0  0  0  0
  8 14  1  0  0  0  0
  8  9  1  0  0  0  0
  9 10  1  0  0  0  0
  9 16  1  0  0  0  0
 10 18  1  0  0  0  0
 11 20  1  6  0  0  0
 11 10  1  0  0  0  0
 11 24  1  0  0  0  0
 12  1  1  0  0  0  0
 13  3  1  0  0  0  0
 15  8  1  0  0  0  0
 17  9  1  0  0  0  0
 19 10  1  0  0  0  0
 21  2  1  0  0  0  0
 22 21  1  0  0  0  0
 23 21  1  0  0  0  0
 25 26  2  0  0  0  0
 26 30  1  0  0  0  0
 26 27  1  0  0  0  0
 27 31  1  6  0  0  0
 27 24  1  0  0  0  0
 27 28  1  0  0  0  0
 28 32  1  0  0  0  0
 28 33  1  0  0  0  0
 29 35  1  0  0  0  0
 29 28  1  0  0  0  0
 30 29  1  0  0  0  0
 34 29  1  0  0  0  0
 37 41  1  0  0  0  0
 37 36  1  0  0  0  0
 38 39  1  0  0  0  0
 38 37  1  0  0  0  0
 39 40  1  0  0  0  0
 41 40  1  1  0  0  0
 41 30  1  0  0  0  0
M  END
>  <minimizedAffinity>
-5.66640568

$$$$

 OpenBabel03252506393D

 41 44  0  0  1  0  0  0  0  0999 V2000
   38.7190   27.5370   36.3060 C   0  0  0  0  0  0  0  0  0  0  0  0
   37.4890   28.1430   35.9720 C   0  0  0  0  0  0  0  0  0  0  0  0
   36.4780   28.1190   36.8710 C   0  0  0  0  0  0  0  0  0  0  0  0
   36.7100   27.5030   38.0580 N   0  0  0  0  0  0  0  0  0  0  0  0
   37.8680   26.9360   38.3630 C   0  0  0  0  0  0  0  0  0  0  0  0
   38.8820   26.9450   37.4970 N   0  0  0  0  0  0  0  0  0  0  0  0
   38.0130   26.3080   39.6480 N   0  0  0  0  0  0  0  0  0  0  0  0
   39.2560   25.8770   40.1950 C   0  0  0  0  0  0  0  0  0  0  0  0
   38.8820   24.6080   40.9340 C   0  0  0  0  0  0  0  0  0  0  0  0
   37.3910   24.5090   40.8790 C   0  0  0  0  0  0  0  0  0  0  0  0
   36.9850   25.9590   40.5970 C   0  0  1  0  0  0  0  0  0  0  0  0
   39.5240   27.5630   35.5770 H   0  0  0  0  0  0  0  0  0  0  0  0
   35.5210   28.5730   36.6500 H   0  0  0  0  0  0  0  0  0  0  0  0
   39.9470   26.5080   40.6660 H   0  0  0  0  0  0  0  0  0  0  0  0
   39.8410   25.4680   39.3060 H   0  0  0  0  0  0  0  0  0  0  0  0
   39.1740   24.7230   42.0180 H   0  0  0  0  0  0  0  0  0  0  0  0
   39.3340   23.6950   40.5660 H   0  0  0  0  0  0  0  0  0  0  0  0
   36.9880   24.1900   41.8690 H   0  0  0  0  0  0  0  0  0  0  0  0
   37.0390   23.8760   40.0570 H   0  0  0  0  0  0  0  0  0  0  0  0
   35.9630   25.9700   40.1570 H   0  0  0  0  0  0  0  0  0  0  0  0
   37.3740   28.7640   34.6830 N   0  0  0  0  0  0  0  0  0  0  0  0
   36.7300   28.3000   34.0080 H   0  0  0  0  0  0  0  0  0  0  0  0
   37.8810   29.6280   34.3800 H   0  0  0  0  0  0  0  0  0  0  0  0
   37.1110   26.8970   42.0970 S   0  0  0  0  0  0  0  0  0  0  0  0
   39.4810   29.1570   41.4980 O   0  0  0  0  0  0  0  0  0  0  0  0
   38.2560   29.3540   41.5820 C   0  0  0  0  0  0  0  0  0  0  0  0
   37.0110   28.6360   41.9640 C   0  0  1  0  0  0  0  0  0  0  0  0
   36.0390   29.1610   40.9400 C   0  0  0  0  0  0  0  0  0  0  0  0
   36.2760   30.6550   41.1810 C   0  0  0  0  0  0  0  0  0  0  0  0
   37.7350   30.6530   41.2270 N   0  0  0  0  0  0  0  0  0  0  0  0
   36.7210   29.2220   42.8700 H   0  0  0  0  0  0  0  0  0  0  0  0
   36.3550   28.8890   39.9160 H   0  0  0  0  0  0  0  0  0  0  0  0
   35.0080   28.8890   41.1750 H   0  0  0  0  0  0  0  0  0  0  0  0
   35.8580   30.9070   42.1810 H   0  0  0  0  0  0  0  0  0  0  0  0
   35.8760   31.2660   40.3750 H   0  0  0  0  0  0  0  0  0  0  0  0
   39.0520   31.4040   39.0450 H   0  0  0  0  0  0  0  0  0  0  0  0
   39.4950   31.6850   39.9530 N   0  0  0  0  0  0  0  0  0  0  0  0
   39.9520   33.0730   39.7750 C   0  0  0  0  0  2  0  0  0  0  0  0
   38.6570   33.8910   39.7620 C   0  0  0  0  0  2  0  0  0  0  0  0
   37.6050   32.9040   40.2480 C   0  0  0  0  0  2  0  0  0  0  0  0
   38.4710   31.8780   40.9300 C   0  0  1  0  0  3  0  0  0  0  0  0
  1  6  1  0  0  0  0
  2  1  2  0  0  0  0
  2  3  1  0  0  0  0
  3  4  2  0  0  0  0
  4  5  1  0  0  0  0
  5  7  1  0  0  0  0
  6  5  2  0  0  0  0
  7  8  1  0  0  0  0
  7 11  1  0  0  0  0
  8 14  1  0  0  0  0
  8  9  1  0  0  0  0
  9 16  1  0  0  0  0
 10  9  1  0  0  0  0
 10 18  1  0  0  0  0
 11 20  1  6  0  0  0
 11 10  1  0  0  0  0
 11 24  1  0  0  0  0
 12  1  1  0  0  0  0
 13  3  1  0  0  0  0
 15  8  1  0  0  0  0
 17  9  1  0  0  0  0
 19 10  1  0  0  0  0
 21  2  1  0  0  0  0
 22 21  1  0  0  0  0
 23 21  1  0  0  0  0
 25 26  2  0  0  0  0
 26 27  1  0  0  0  0
 27 24  1  0  0  0  0
 27 31  1  1  0  0  0
 28 33  1  0  0  0  0
 28 29  1  0  0  0  0
 28 27  1  0  0  0  0
 29 30  1  0  0  0  0
 29 34  1  0  0  0  0
 30 26  1  0  0  0  0
 32 28  1  0  0  0  0
 35 29  1  0  0  0  0
 36 37  1  0  0  0  0
 37 41  1  0  0  0  0
 38 37  1  0  0  0  0
 39 38  1  0  0  0  0
 39 40  1  0  0  0  0
 41 40  1  6  0  0  0
 41 30  1  0  0  0  0
M  END
>  <minimizedAffinity>
-5.41859531

$$$$

 OpenBabel03252506393D

 41 44  0  0  1  0  0  0  0  0999 V2000
   42.4640   30.9740   40.1230 C   0  0  0  0  0  0  0  0  0  0  0  0
   42.6850   31.0850   41.5130 C   0  0  0  0  0  0  0  0  0  0  0  0
   41.6330   31.3220   42.3290 C   0  0  0  0  0  0  0  0  0  0  0  0
   40.4090   31.4430   41.7550 N   0  0  0  0  0  0  0  0  0  0  0  0
   40.2100   31.3380   40.4490 C   0  0  0  0  0  0  0  0  0  0  0  0
   41.2280   31.1040   39.6210 N   0  0  0  0  0  0  0  0  0  0  0  0
   38.8740   31.4820   39.9390 N   0  0  0  0  0  0  0  0  0  0  0  0
   38.4840   31.1610   38.6070 C   0  0  0  0  0  0  0  0  0  0  0  0
   37.4560   32.2260   38.2860 C   0  0  0  0  0  0  0  0  0  0  0  0
   37.2220   32.9860   39.5530 C   0  0  0  0  0  0  0  0  0  0  0  0
   37.7060   31.9940   40.6140 C   0  0  1  0  0  0  0  0  0  0  0  0
   43.3160   30.7830   39.4770 H   0  0  0  0  0  0  0  0  0  0  0  0
   41.7640   31.4140   43.4000 H   0  0  0  0  0  0  0  0  0  0  0  0
   38.2780   30.1910   38.2670 H   0  0  0  0  0  0  0  0  0  0  0  0
   39.3660   31.4820   37.9590 H   0  0  0  0  0  0  0  0  0  0  0  0
   36.4850   31.7180   38.0120 H   0  0  0  0  0  0  0  0  0  0  0  0
   37.7120   32.9040   37.4810 H   0  0  0  0  0  0  0  0  0  0  0  0
   36.1340   33.1840   39.6900 H   0  0  0  0  0  0  0  0  0  0  0  0
   37.8270   33.8970   39.6170 H   0  0  0  0  0  0  0  0  0  0  0  0
   37.9500   32.5500   41.5460 H   0  0  0  0  0  0  0  0  0  0  0  0
   44.0290   30.9350   41.9930 N   0  0  0  0  0  0  0  0  0  0  0  0
   44.4740   31.7920   42.3840 H   0  0  0  0  0  0  0  0  0  0  0  0
   44.5820   30.0460   41.9770 H   0  0  0  0  0  0  0  0  0  0  0  0
   36.4680   30.7460   40.8470 S   0  0  0  0  0  0  0  0  0  0  0  0
   37.9250   27.9390   39.8090 O   0  0  0  0  0  0  0  0  0  0  0  0
   37.6660   28.2640   40.9810 C   0  0  0  0  0  0  0  0  0  0  0  0
   36.9310   29.3140   41.7350 C   0  0  1  0  0  0  0  0  0  0  0  0
   37.8510   29.5380   42.9060 C   0  0  0  0  0  0  0  0  0  0  0  0
   37.9640   28.0780   43.3580 C   0  0  0  0  0  0  0  0  0  0  0  0
   38.1790   27.4510   42.0580 N   0  0  0  0  0  0  0  0  0  0  0  0
   36.1260   28.6920   42.1960 H   0  0  0  0  0  0  0  0  0  0  0  0
   38.8370   29.9070   42.5730 H   0  0  0  0  0  0  0  0  0  0  0  0
   37.3860   30.1480   43.6830 H   0  0  0  0  0  0  0  0  0  0  0  0
   36.9780   27.7750   43.7740 H   0  0  0  0  0  0  0  0  0  0  0  0
   38.7930   27.9280   44.0460 H   0  0  0  0  0  0  0  0  0  0  0  0
   38.6230   25.6100   43.9230 H   0  0  0  0  0  0  0  0  0  0  0  0
   39.4000   25.7420   43.2310 N   0  0  0  0  0  0  0  0  0  0  0  0
   39.8670   24.3910   42.8770 C   0  0  0  0  0  2  0  0  0  0  0  0
   38.7360   23.8210   42.0140 C   0  0  0  0  0  2  0  0  0  0  0  0
   37.8710   25.0370   41.7100 C   0  0  0  0  0  2  0  0  0  0  0  0
   38.8440   26.1540   41.9800 C   0  0  1  0  0  3  0  0  0  0  0  0
  1  2  1  0  0  0  0
  2 21  1  0  0  0  0
  2  3  2  0  0  0  0
  3 13  1  0  0  0  0
  4  3  1  0  0  0  0
  5  4  2  0  0  0  0
  6  1  2  0  0  0  0
  6  5  1  0  0  0  0
  7  5  1  0  0  0  0
  7 11  1  0  0  0  0
  8  7  1  0  0  0  0
  9  8  1  0  0  0  0
  9 10  1  0  0  0  0
 10 19  1  0  0  0  0
 10 18  1  0  0  0  0
 10 11  1  0  0  0  0
 11 24  1  0  0  0  0
 11 20  1  1  0  0  0
 12  1  1  0  0  0  0
 14  8  1  0  0  0  0
 15  8  1  0  0  0  0
 16  9  1  0  0  0  0
 17  9  1  0  0  0  0
 21 22  1  0  0  0  0
 23 21  1  0  0  0  0
 24 27  1  0  0  0  0
 25 26  2  0  0  0  0
 26 27  1  0  0  0  0
 26 30  1  0  0  0  0
 27 31  1  1  0  0  0
 27 28  1  0  0  0  0
 28 29  1  0  0  0  0
 28 33  1  0  0  0  0
 29 34  1  0  0  0  0
 29 35  1  0  0  0  0
 30 29  1  0  0  0  0
 32 28  1  0  0  0  0
 37 36  1  0  0  0  0
 38 37  1  0  0  0  0
 39 38  1  0  0  0  0
 40 39  1  0  0  0  0
 41 40  1  1  0  0  0
 41 30  1  0  0  0  0
 41 37  1  0  0  0  0
M  END
>  <minimizedAffinity>
-5.30630922

$$$$

 OpenBabel03252506393D

 41 44  0  0  1  0  0  0  0  0999 V2000
   36.8870   29.6520   36.5510 C   0  0  0  0  0  0  0  0  0  0  0  0
   37.8100   28.5890   36.4560 C   0  0  0  0  0  0  0  0  0  0  0  0
   38.8600   28.5510   37.3090 C   0  0  0  0  0  0  0  0  0  0  0  0
   38.9650   29.5540   38.2180 N   0  0  0  0  0  0  0  0  0  0  0  0
   38.0940   30.5490   38.3000 C   0  0  0  0  0  0  0  0  0  0  0  0
   37.0490   30.6110   37.4740 N   0  0  0  0  0  0  0  0  0  0  0  0
   38.2940   31.5630   39.2990 N   0  0  0  0  0  0  0  0  0  0  0  0
   37.3240   32.5440   39.6530 C   0  0  0  0  0  0  0  0  0  0  0  0
   38.1660   33.7730   39.9300 C   0  0  0  0  0  0  0  0  0  0  0  0
   39.5930   33.3320   39.8650 C   0  0  0  0  0  0  0  0  0  0  0  0
   39.4720   31.8220   40.0900 C   0  0  1  0  0  0  0  0  0  0  0  0
   36.0470   29.6720   35.8620 H   0  0  0  0  0  0  0  0  0  0  0  0
   39.5890   27.7520   37.2650 H   0  0  0  0  0  0  0  0  0  0  0  0
   36.5160   32.3720   40.2990 H   0  0  0  0  0  0  0  0  0  0  0  0
   36.8170   32.8220   38.6700 H   0  0  0  0  0  0  0  0  0  0  0  0
   37.9650   34.1160   40.9860 H   0  0  0  0  0  0  0  0  0  0  0  0
   38.0010   34.6160   39.2710 H   0  0  0  0  0  0  0  0  0  0  0  0
   40.1780   33.7920   40.6960 H   0  0  0  0  0  0  0  0  0  0  0  0
   40.0470   33.5090   38.8840 H   0  0  0  0  0  0  0  0  0  0  0  0
   40.3840   31.3220   39.6930 H   0  0  0  0  0  0  0  0  0  0  0  0
   37.5830   27.5900   35.4510 N   0  0  0  0  0  0  0  0  0  0  0  0
   38.2700   27.5640   34.6680 H   0  0  0  0  0  0  0  0  0  0  0  0
   36.7940   26.9030   35.4470 H   0  0  0  0  0  0  0  0  0  0  0  0
   39.2010   31.5140   41.8150 S   0  0  0  0  0  0  0  0  0  0  0  0
   36.9630   29.0890   41.3700 O   0  0  0  0  0  0  0  0  0  0  0  0
   38.0920   28.9880   41.8840 C   0  0  0  0  0  0  0  0  0  0  0  0
   39.2140   29.8490   42.3420 C   0  0  1  0  0  0  0  0  0  0  0  0
   40.4070   29.0350   41.9150 C   0  0  0  0  0  0  0  0  0  0  0  0
   40.0060   27.7170   42.5850 C   0  0  0  0  0  0  0  0  0  0  0  0
   38.6030   27.6730   42.1860 N   0  0  0  0  0  0  0  0  0  0  0  0
   39.1810   29.6390   43.4400 H   0  0  0  0  0  0  0  0  0  0  0  0
   40.4280   28.9080   40.8170 H   0  0  0  0  0  0  0  0  0  0  0  0
   41.3390   29.4170   42.3370 H   0  0  0  0  0  0  0  0  0  0  0  0
   40.0900   27.8580   43.6860 H   0  0  0  0  0  0  0  0  0  0  0  0
   40.5840   26.8760   42.2080 H   0  0  0  0  0  0  0  0  0  0  0  0
   38.2280   25.9760   40.1750 H   0  0  0  0  0  0  0  0  0  0  0  0
   37.4140   26.0810   40.8290 N   0  0  0  0  0  0  0  0  0  0  0  0
   36.8970   24.7220   41.0600 C   0  0  0  0  0  2  0  0  0  0  0  0
   37.9620   24.0650   41.9440 C   0  0  0  0  0  2  0  0  0  0  0  0
   38.8350   25.2330   42.3810 C   0  0  0  0  0  2  0  0  0  0  0  0
   37.9050   26.3920   42.1350 C   0  0  1  0  0  3  0  0  0  0  0  0
  1  6  1  0  0  0  0
  2  1  2  0  0  0  0
  2  3  1  0  0  0  0
  3  4  2  0  0  0  0
  4  5  1  0  0  0  0
  5  7  1  0  0  0  0
  6  5  2  0  0  0  0
  7  8  1  0  0  0  0
  7 11  1  0  0  0  0
  8  9  1  0  0  0  0
  8 14  1  0  0  0  0
  9 16  1  0  0  0  0
 10  9  1  0  0  0  0
 10 11  1  0  0  0  0
 10 18  1  0  0  0  0
 11 20  1  6  0  0  0
 11 24  1  0  0  0  0
 12  1  1  0  0  0  0
 13  3  1  0  0  0  0
 15  8  1  0  0  0  0
 17  9  1  0  0  0  0
 19 10  1  0  0  0  0
 21  2  1  0  0  0  0
 22 21  1  0  0  0  0
 23 21  1  0  0  0  0
 24 27  1  0  0  0  0
 25 26  2  0  0  0  0
 26 30  1  0  0  0  0
 26 27  1  0  0  0  0
 27 31  1  1  0  0  0
 28 33  1  0  0  0  0
 28 27  1  0  0  0  0
 28 29  1  0  0  0  0
 29 34  1  0  0  0  0
 30 29  1  0  0  0  0
 32 28  1  0  0  0  0
 35 29  1  0  0  0  0
 36 37  1  0  0  0  0
 37 38  1  0  0  0  0
 37 41  1  0  0  0  0
 38 39  1  0  0  0  0
 39 40  1  0  0  0  0
 41 30  1  6  0  0  0
 41 40  1  0  0  0  0
M  END
>  <minimizedAffinity>
-5.2937007

$$$$

 OpenBabel03252506393D

 41 44  0  0  1  0  0  0  0  0999 V2000
   42.9270   30.4340   36.1030 C   0  0  0  0  0  0  0  0  0  0  0  0
   42.8360   29.0570   36.4020 C   0  0  0  0  0  0  0  0  0  0  0  0
   42.2300   28.6720   37.5480 C   0  0  0  0  0  0  0  0  0  0  0  0
   41.7390   29.6460   38.3550 N   0  0  0  0  0  0  0  0  0  0  0  0
   41.8290   30.9360   38.0680 C   0  0  0  0  0  0  0  0  0  0  0  0
   42.4210   31.3450   36.9450 N   0  0  0  0  0  0  0  0  0  0  0  0
   41.2770   31.8910   38.9900 N   0  0  0  0  0  0  0  0  0  0  0  0
   41.0920   33.2730   38.6990 C   0  0  0  0  0  0  0  0  0  0  0  0
   41.3980   33.9440   40.0230 C   0  0  0  0  0  0  0  0  0  0  0  0
   41.5780   32.8470   41.0230 C   0  0  0  0  0  0  0  0  0  0  0  0
   40.8490   31.6800   40.3510 C   0  0  1  0  0  0  0  0  0  0  0  0
   43.4160   30.7320   35.1800 H   0  0  0  0  0  0  0  0  0  0  0  0
   42.1420   27.6250   37.8110 H   0  0  0  0  0  0  0  0  0  0  0  0
   40.2880   33.6610   38.1510 H   0  0  0  0  0  0  0  0  0  0  0  0
   41.9990   33.5640   38.0730 H   0  0  0  0  0  0  0  0  0  0  0  0
   40.4970   34.5450   40.3390 H   0  0  0  0  0  0  0  0  0  0  0  0
   42.2560   34.6050   40.0310 H   0  0  0  0  0  0  0  0  0  0  0  0
   41.0690   33.1080   41.9800 H   0  0  0  0  0  0  0  0  0  0  0  0
   42.6290   32.5730   41.1660 H   0  0  0  0  0  0  0  0  0  0  0  0
   41.2210   30.7230   40.7820 H   0  0  0  0  0  0  0  0  0  0  0  0
   43.3950   28.1280   35.4620 N   0  0  0  0  0  0  0  0  0  0  0  0
   44.2390   27.6060   35.7800 H   0  0  0  0  0  0  0  0  0  0  0  0
   43.0240   27.9420   34.5000 H   0  0  0  0  0  0  0  0  0  0  0  0
   39.1010   31.9000   40.5450 S   0  0  0  0  0  0  0  0  0  0  0  0
   38.0550   28.9880   39.3170 O   0  0  0  0  0  0  0  0  0  0  0  0
   37.9870   29.3760   40.4970 C   0  0  0  0  0  0  0  0  0  0  0  0
   38.2100   30.6040   41.3060 C   0  0  1  0  0  0  0  0  0  0  0  0
   38.8250   30.0300   42.5550 C   0  0  0  0  0  0  0  0  0  0  0  0
   37.7420   28.9890   42.8560 C   0  0  0  0  0  0  0  0  0  0  0  0
   37.5700   28.4410   41.5140 N   0  0  0  0  0  0  0  0  0  0  0  0
   37.1630   30.8050   41.6430 H   0  0  0  0  0  0  0  0  0  0  0  0
   39.7810   29.5240   42.3300 H   0  0  0  0  0  0  0  0  0  0  0  0
   38.8880   30.7670   43.3580 H   0  0  0  0  0  0  0  0  0  0  0  0
   36.8250   29.5360   43.1700 H   0  0  0  0  0  0  0  0  0  0  0  0
   38.0770   28.2490   43.5790 H   0  0  0  0  0  0  0  0  0  0  0  0
   38.7070   26.2140   40.6150 H   0  0  0  0  0  0  0  0  0  0  0  0
   37.7070   26.3520   40.3290 N   0  0  0  0  0  0  0  0  0  0  0  0
   37.0520   25.0420   40.4820 C   0  0  0  0  0  2  0  0  0  0  0  0
   36.9500   24.8540   41.9990 C   0  0  0  0  0  2  0  0  0  0  0  0
   37.2840   26.2320   42.5550 C   0  0  0  0  0  2  0  0  0  0  0  0
   37.0320   27.0940   41.3460 C   0  0  1  0  0  3  0  0  0  0  0  0
  1  2  2  0  0  0  0
  1  6  1  0  0  0  0
  2  3  1  0  0  0  0
  3 13  1  0  0  0  0
  3  4  2  0  0  0  0
  5  4  1  0  0  0  0
  5  7  1  0  0  0  0
  6  5  2  0  0  0  0
  7 11  1  0  0  0  0
  8  7  1  0  0  0  0
  8  9  1  0  0  0  0
  9 17  1  0  0  0  0
  9 16  1  0  0  0  0
  9 10  1  0  0  0  0
 10 19  1  0  0  0  0
 10 18  1  0  0  0  0
 11 24  1  0  0  0  0
 11 20  1  1  0  0  0
 11 10  1  0  0  0  0
 12  1  1  0  0  0  0
 14  8  1  0  0  0  0
 15  8  1  0  0  0  0
 21 22  1  0  0  0  0
 21  2  1  0  0  0  0
 23 21  1  0  0  0  0
 24 27  1  0  0  0  0
 25 26  2  0  0  0  0
 26 27  1  0  0  0  0
 26 30  1  0  0  0  0
 27 31  1  1  0  0  0
 27 28  1  0  0  0  0
 28 29  1  0  0  0  0
 28 33  1  0  0  0  0
 29 34  1  0  0  0  0
 29 35  1  0  0  0  0
 30 29  1  0  0  0  0
 32 28  1  0  0  0  0
 37 38  1  0  0  0  0
 37 36  1  0  0  0  0
 37 41  1  0  0  0  0
 38 39  1  0  0  0  0
 39 40  1  0  0  0  0
 41 30  1  1  0  0  0
 41 40  1  0  0  0  0
M  END
>  <minimizedAffinity>
-5.27052498

$$$$

 OpenBabel03252506393D

 41 44  0  0  1  0  0  0  0  0999 V2000
   37.7870   27.1470   36.9900 C   0  0  0  0  0  0  0  0  0  0  0  0
   37.5590   28.4300   36.4470 C   0  0  0  0  0  0  0  0  0  0  0  0
   37.4010   29.4810   37.2840 C   0  0  0  0  0  0  0  0  0  0  0  0
   37.4720   29.2350   38.6170 N   0  0  0  0  0  0  0  0  0  0  0  0
   37.6860   28.0280   39.1190 C   0  0  0  0  0  0  0  0  0  0  0  0
   37.8460   26.9750   38.3180 N   0  0  0  0  0  0  0  0  0  0  0  0
   37.7430   27.8730   40.5470 N   0  0  0  0  0  0  0  0  0  0  0  0
   38.1970   26.6960   41.2090 C   0  0  0  0  0  0  0  0  0  0  0  0
   37.2910   26.6160   42.4210 C   0  0  0  0  0  0  0  0  0  0  0  0
   36.4850   27.8750   42.4330 C   0  0  0  0  0  0  0  0  0  0  0  0
   37.3370   28.8070   41.5680 C   0  0  1  0  0  0  0  0  0  0  0  0
   37.9130   26.3110   36.3080 H   0  0  0  0  0  0  0  0  0  0  0  0
   37.2230   30.4790   36.9030 H   0  0  0  0  0  0  0  0  0  0  0  0
   39.2050   26.4520   41.3580 H   0  0  0  0  0  0  0  0  0  0  0  0
   37.8120   25.8340   40.5700 H   0  0  0  0  0  0  0  0  0  0  0  0
   37.9330   26.6150   43.3500 H   0  0  0  0  0  0  0  0  0  0  0  0
   36.6410   25.7510   42.4690 H   0  0  0  0  0  0  0  0  0  0  0  0
   36.4160   28.2800   43.4690 H   0  0  0  0  0  0  0  0  0  0  0  0
   35.5030   27.7530   41.9620 H   0  0  0  0  0  0  0  0  0  0  0  0
   36.6950   29.6280   41.1780 H   0  0  0  0  0  0  0  0  0  0  0  0
   37.5090   28.5550   35.0170 N   0  0  0  0  0  0  0  0  0  0  0  0
   36.5790   28.7920   34.6110 H   0  0  0  0  0  0  0  0  0  0  0  0
   38.3210   28.4260   34.3700 H   0  0  0  0  0  0  0  0  0  0  0  0
   38.7110   29.3900   42.5260 S   0  0  0  0  0  0  0  0  0  0  0  0
   41.8000   30.5380   43.0010 O   0  0  0  0  0  0  0  0  0  0  0  0
   40.9000   31.0580   42.3180 C   0  0  0  0  0  0  0  0  0  0  0  0
   39.4500   30.8950   42.0320 C   0  0  1  0  0  0  0  0  0  0  0  0
   39.4010   31.1970   40.5580 C   0  0  0  0  0  0  0  0  0  0  0  0
   40.1200   32.5490   40.6030 C   0  0  0  0  0  0  0  0  0  0  0  0
   41.2250   32.1930   41.4880 N   0  0  0  0  0  0  0  0  0  0  0  0
   39.0600   31.8470   42.4700 H   0  0  0  0  0  0  0  0  0  0  0  0
   40.0020   30.4690   39.9830 H   0  0  0  0  0  0  0  0  0  0  0  0
   38.3770   31.3140   40.1960 H   0  0  0  0  0  0  0  0  0  0  0  0
   39.4430   33.2760   41.1040 H   0  0  0  0  0  0  0  0  0  0  0  0
   40.4500   32.8680   39.6160 H   0  0  0  0  0  0  0  0  0  0  0  0
   43.4040   32.0650   43.0030 H   0  0  0  0  0  0  0  0  0  0  0  0
   43.1140   33.0320   42.7180 N   0  0  0  0  0  0  0  0  0  0  0  0
   44.3510   33.7360   42.3410 C   0  0  0  0  0  2  0  0  0  0  0  0
   44.7530   33.0940   41.0090 C   0  0  0  0  0  2  0  0  0  0  0  0
   43.5200   32.2940   40.6110 C   0  0  0  0  0  2  0  0  0  0  0  0
   42.4630   32.9660   41.4480 C   0  0  1  0  0  3  0  0  0  0  0  0
  1  6  1  0  0  0  0
  2  1  2  0  0  0  0
  2  3  1  0  0  0  0
  3  4  2  0  0  0  0
  4  5  1  0  0  0  0
  5  7  1  0  0  0  0
  6  5  2  0  0  0  0
  7  8  1  0  0  0  0
  7 11  1  0  0  0  0
  8 14  1  0  0  0  0
  8  9  1  0  0  0  0
  9 10  1  0  0  0  0
  9 17  1  0  0  0  0
  9 16  1  0  0  0  0
 10 18  1  0  0  0  0
 11 20  1  6  0  0  0
 11 10  1  0  0  0  0
 11 24  1  0  0  0  0
 12  1  1  0  0  0  0
 13  3  1  0  0  0  0
 15  8  1  0  0  0  0
 19 10  1  0  0  0  0
 21  2  1  0  0  0  0
 22 21  1  0  0  0  0
 23 21  1  0  0  0  0
 26 25  2  0  0  0  0
 27 26  1  0  0  0  0
 27 31  1  1  0  0  0
 27 24  1  0  0  0  0
 28 29  1  0  0  0  0
 28 27  1  0  0  0  0
 29 34  1  0  0  0  0
 29 30  1  0  0  0  0
 30 26  1  0  0  0  0
 32 28  1  0  0  0  0
 33 28  1  0  0  0  0
 35 29  1  0  0  0  0
 37 36  1  0  0  0  0
 38 37  1  0  0  0  0
 39 38  1  0  0  0  0
 40 39  1  0  0  0  0
 41 40  1  6  0  0  0
 41 30  1  0  0  0  0
 41 37  1  0  0  0  0
M  END
>  <minimizedAffinity>
-5.2381978

$$$$

 OpenBabel03252506393D

 41 44  0  0  1  0  0  0  0  0999 V2000
   41.5760   25.0460   37.9570 C   0  0  0  0  0  0  0  0  0  0  0  0
   41.2330   26.0530   37.0300 C   0  0  0  0  0  0  0  0  0  0  0  0
   40.1010   26.7690   37.2250 C   0  0  0  0  0  0  0  0  0  0  0  0
   39.3520   26.4710   38.3170 N   0  0  0  0  0  0  0  0  0  0  0  0
   39.6810   25.5230   39.1820 C   0  0  0  0  0  0  0  0  0  0  0  0
   40.7900   24.8030   39.0160 N   0  0  0  0  0  0  0  0  0  0  0  0
   38.8190   25.2840   40.3070 N   0  0  0  0  0  0  0  0  0  0  0  0
   39.1660   24.4750   41.4270 C   0  0  0  0  0  0  0  0  0  0  0  0
   37.8540   23.8050   41.7830 C   0  0  0  0  0  0  0  0  0  0  0  0
   36.8090   24.4290   40.9150 C   0  0  0  0  0  0  0  0  0  0  0  0
   37.4710   25.7520   40.5200 C   0  0  1  0  0  0  0  0  0  0  0  0
   42.4860   24.4780   37.7920 H   0  0  0  0  0  0  0  0  0  0  0  0
   39.8060   27.5490   36.5350 H   0  0  0  0  0  0  0  0  0  0  0  0
   39.7630   24.7940   42.2270 H   0  0  0  0  0  0  0  0  0  0  0  0
   39.7620   23.6080   40.9870 H   0  0  0  0  0  0  0  0  0  0  0  0
   37.6000   24.0570   42.8540 H   0  0  0  0  0  0  0  0  0  0  0  0
   37.8320   22.7260   41.6840 H   0  0  0  0  0  0  0  0  0  0  0  0
   35.8850   24.6310   41.5060 H   0  0  0  0  0  0  0  0  0  0  0  0
   36.6100   23.8480   40.0080 H   0  0  0  0  0  0  0  0  0  0  0  0
   36.9900   26.1360   39.5920 H   0  0  0  0  0  0  0  0  0  0  0  0
   42.1140   26.2710   35.9180 N   0  0  0  0  0  0  0  0  0  0  0  0
   41.7400   26.0120   34.9810 H   0  0  0  0  0  0  0  0  0  0  0  0
   43.0830   26.6600   35.9810 H   0  0  0  0  0  0  0  0  0  0  0  0
   37.3620   26.8830   41.8820 S   0  0  0  0  0  0  0  0  0  0  0  0
   36.8560   29.3480   39.7010 O   0  0  0  0  0  0  0  0  0  0  0  0
   37.6220   29.3540   40.6820 C   0  0  0  0  0  0  0  0  0  0  0  0
   38.1640   28.4250   41.7080 C   0  0  1  0  0  0  0  0  0  0  0  0
   38.1690   29.3030   42.9320 C   0  0  0  0  0  0  0  0  0  0  0  0
   38.9530   30.4770   42.3370 C   0  0  0  0  0  0  0  0  0  0  0  0
   38.2600   30.5930   41.0580 N   0  0  0  0  0  0  0  0  0  0  0  0
   39.2450   28.4320   41.4220 H   0  0  0  0  0  0  0  0  0  0  0  0
   37.1450   29.6270   43.1920 H   0  0  0  0  0  0  0  0  0  0  0  0
   38.7180   28.8510   43.7600 H   0  0  0  0  0  0  0  0  0  0  0  0
   40.0010   30.1390   42.1790 H   0  0  0  0  0  0  0  0  0  0  0  0
   38.8720   31.3730   42.9490 H   0  0  0  0  0  0  0  0  0  0  0  0
   36.7340   32.7550   41.3030 H   0  0  0  0  0  0  0  0  0  0  0  0
   37.0040   32.5070   40.3200 N   0  0  0  0  0  0  0  0  0  0  0  0
   37.3610   33.7750   39.6610 C   0  0  0  0  0  2  0  0  0  0  0  0
   38.7020   34.1580   40.2960 C   0  0  0  0  0  2  0  0  0  0  0  0
   39.1210   32.8960   41.0360 C   0  0  0  0  0  2  0  0  0  0  0  0
   38.2780   31.8620   40.3360 C   0  0  1  0  0  3  0  0  0  0  0  0
  1  6  1  0  0  0  0
  2  3  1  0  0  0  0
  2  1  2  0  0  0  0
  3  4  2  0  0  0  0
  4  5  1  0  0  0  0
  5  7  1  0  0  0  0
  6  5  2  0  0  0  0
  7 11  1  0  0  0  0
  7  8  1  0  0  0  0
  8  9  1  0  0  0  0
  8 14  1  0  0  0  0
  9 16  1  0  0  0  0
 10 18  1  0  0  0  0
 10  9  1  0  0  0  0
 11 20  1  6  0  0  0
 11 10  1  0  0  0  0
 11 24  1  0  0  0  0
 12  1  1  0  0  0  0
 13  3  1  0  0  0  0
 15  8  1  0  0  0  0
 17  9  1  0  0  0  0
 19 10  1  0  0  0  0
 21 23  1  0  0  0  0
 21  2  1  0  0  0  0
 22 21  1  0  0  0  0
 25 26  2  0  0  0  0
 26 30  1  0  0  0  0
 26 27  1  0  0  0  0
 27 31  1  6  0  0  0
 27 24  1  0  0  0  0
 27 28  1  0  0  0  0
 28 32  1  0  0  0  0
 28 33  1  0  0  0  0
 29 28  1  0  0  0  0
 29 35  1  0  0  0  0
 30 29  1  0  0  0  0
 34 29  1  0  0  0  0
 37 41  1  0  0  0  0
 37 36  1  0  0  0  0
 38 39  1  0  0  0  0
 38 37  1  0  0  0  0
 39 40  1  0  0  0  0
 41 40  1  1  0  0  0
 41 30  1  0  0  0  0
M  END
>  <minimizedAffinity>
-5.23437071

$$$$

 OpenBabel03252506393D

 41 44  0  0  1  0  0  0  0  0999 V2000
   36.3430   31.2450   41.0390 C   0  0  0  0  0  0  0  0  0  0  0  0
   37.2760   31.9700   40.2650 C   0  0  0  0  0  0  0  0  0  0  0  0
   38.4190   31.3630   39.8740 C   0  0  0  0  0  0  0  0  0  0  0  0
   38.6060   30.0730   40.2540 N   0  0  0  0  0  0  0  0  0  0  0  0
   37.7260   29.4000   40.9810 C   0  0  0  0  0  0  0  0  0  0  0  0
   36.5900   29.9730   41.3810 N   0  0  0  0  0  0  0  0  0  0  0  0
   38.0170   28.0370   41.3340 N   0  0  0  0  0  0  0  0  0  0  0  0
   37.0710   27.1340   41.8970 C   0  0  0  0  0  0  0  0  0  0  0  0
   37.9090   26.3220   42.8640 C   0  0  0  0  0  0  0  0  0  0  0  0
   39.3300   26.7340   42.6440 C   0  0  0  0  0  0  0  0  0  0  0  0
   39.2730   27.3350   41.2370 C   0  0  1  0  0  0  0  0  0  0  0  0
   35.4280   31.7430   41.3470 H   0  0  0  0  0  0  0  0  0  0  0  0
   39.1570   31.8870   39.2800 H   0  0  0  0  0  0  0  0  0  0  0  0
   36.3500   26.6100   41.3460 H   0  0  0  0  0  0  0  0  0  0  0  0
   36.4450   27.7710   42.6060 H   0  0  0  0  0  0  0  0  0  0  0  0
   37.8260   25.2310   42.5840 H   0  0  0  0  0  0  0  0  0  0  0  0
   37.6470   26.4150   43.9100 H   0  0  0  0  0  0  0  0  0  0  0  0
   39.9960   25.8400   42.6460 H   0  0  0  0  0  0  0  0  0  0  0  0
   39.6590   27.5070   43.3470 H   0  0  0  0  0  0  0  0  0  0  0  0
   40.1440   28.0140   41.0970 H   0  0  0  0  0  0  0  0  0  0  0  0
   36.9560   33.3280   39.9270 N   0  0  0  0  0  0  0  0  0  0  0  0
   37.5470   34.0610   40.3730 H   0  0  0  0  0  0  0  0  0  0  0  0
   36.1890   33.6270   39.2810 H   0  0  0  0  0  0  0  0  0  0  0  0
   39.2160   26.0200   40.0480 S   0  0  0  0  0  0  0  0  0  0  0  0
   36.4020   26.9540   38.5310 O   0  0  0  0  0  0  0  0  0  0  0  0
   37.5480   26.9330   38.0470 C   0  0  0  0  0  0  0  0  0  0  0  0
   38.9170   26.4590   38.3830 C   0  0  1  0  0  0  0  0  0  0  0  0
   39.7620   27.5800   37.8390 C   0  0  0  0  0  0  0  0  0  0  0  0
   39.1850   27.6000   36.4200 C   0  0  0  0  0  0  0  0  0  0  0  0
   37.7650   27.5220   36.7470 N   0  0  0  0  0  0  0  0  0  0  0  0
   39.0480   25.6760   37.5960 H   0  0  0  0  0  0  0  0  0  0  0  0
   39.5360   28.5330   38.3510 H   0  0  0  0  0  0  0  0  0  0  0  0
   40.8230   27.3240   37.8220 H   0  0  0  0  0  0  0  0  0  0  0  0
   39.5150   26.6690   35.9070 H   0  0  0  0  0  0  0  0  0  0  0  0
   39.4500   28.5100   35.8850 H   0  0  0  0  0  0  0  0  0  0  0  0
   37.9820   28.1270   34.1690 H   0  0  0  0  0  0  0  0  0  0  0  0
   37.3570   28.7600   34.7250 N   0  0  0  0  0  0  0  0  0  0  0  0
   36.1660   28.9960   33.8920 C   0  0  0  0  0  2  0  0  0  0  0  0
   35.4170   27.6590   33.9270 C   0  0  0  0  0  2  0  0  0  0  0  0
   36.1120   26.8890   35.0410 C   0  0  0  0  0  2  0  0  0  0  0  0
   36.7740   28.0130   35.7950 C   0  0  1  0  0  3  0  0  0  0  0  0
  1 12  1  0  0  0  0
  1  6  1  0  0  0  0
  2  1  2  0  0  0  0
  3  4  2  0  0  0  0
  3  2  1  0  0  0  0
  4  5  1  0  0  0  0
  5  7  1  0  0  0  0
  5  6  2  0  0  0  0
  7  8  1  0  0  0  0
  8 15  1  0  0  0  0
  8  9  1  0  0  0  0
  9 17  1  0  0  0  0
 10 18  1  0  0  0  0
 10  9  1  0  0  0  0
 10 19  1  0  0  0  0
 11 20  1  6  0  0  0
 11  7  1  0  0  0  0
 11 10  1  0  0  0  0
 13  3  1  0  0  0  0
 14  8  1  0  0  0  0
 16  9  1  0  0  0  0
 21  2  1  0  0  0  0
 21 22  1  0  0  0  0
 23 21  1  0  0  0  0
 24 11  1  0  0  0  0
 26 27  1  0  0  0  0
 26 25  2  0  0  0  0
 27 31  1  6  0  0  0
 27 24  1  0  0  0  0
 28 32  1  0  0  0  0
 28 27  1  0  0  0  0
 29 30  1  0  0  0  0
 29 28  1  0  0  0  0
 30 26  1  0  0  0  0
 33 28  1  0  0  0  0
 34 29  1  0  0  0  0
 35 29  1  0  0  0  0
 36 37  1  0  0  0  0
 37 41  1  0  0  0  0
 38 39  1  0  0  0  0
 38 37  1  0  0  0  0
 39 40  1  0  0  0  0
 41 40  1  6  0  0  0
 41 30  1  0  0  0  0
M  END
>  <minimizedAffinity>
-5.22949982

$$$$
