
 OpenBabel03252504083D

 16 17  0  0  0  0  0  0  0  0999 V2000
   36.7350   31.0530   40.7330 C   0  0  0  0  0  0  0  0  0  0  0  0
   37.6700   30.0410   41.0280 C   0  0  0  0  0  0  0  0  0  0  0  0
   38.8890   30.0440   40.2980 C   0  0  0  0  0  0  0  0  0  0  0  0
   39.0710   31.0250   39.3660 N   0  0  0  0  0  0  0  0  0  0  0  0
   38.1400   31.9610   39.1320 C   0  0  0  0  0  0  0  0  0  0  0  0
   36.9720   31.9850   39.8070 N   0  0  0  0  0  0  0  0  0  0  0  0
   39.5990   29.2760   40.5200 H   0  0  0  0  0  0  0  0  0  0  0  0
   38.3630   32.7160   38.3640 H   0  0  0  0  0  0  0  0  0  0  0  0
   37.3680   29.0660   42.0280 N   0  0  0  0  0  0  0  0  0  0  0  0
   36.5550   27.8500   41.9360 C   0  0  0  0  0  2  0  0  0  0  0  0
   37.4140   26.8010   42.6260 C   0  0  0  0  0  2  0  0  0  0  0  0
   38.4080   27.5880   43.4530 C   0  0  0  0  0  2  0  0  0  0  0  0
   37.7610   28.9630   43.4380 C   0  0  0  0  0  3  0  0  0  0  0  0
   38.4570   29.7730   43.6840 H   0  0  0  0  0  0  0  0  0  0  0  0
   35.5650   31.0400   41.4420 O   0  0  0  0  0  0  0  0  0  0  0  0
   35.5840   31.2050   42.4300 H   0  0  0  0  0  0  0  0  0  0  0  0
  1  2  1  0  0  0  0
  1 15  1  0  0  0  0
  2  9  1  0  0  0  0
  3  7  1  0  0  0  0
  3  2  2  0  0  0  0
  4  3  1  0  0  0  0
  5  4  2  0  0  0  0
  5  6  1  0  0  0  0
  6  1  2  0  0  0  0
  8  5  1  0  0  0  0
  9 13  1  0  0  0  0
 10  9  1  0  0  0  0
 10 11  1  0  0  0  0
 11 12  1  0  0  0  0
 13 12  1  0  0  0  0
 13 14  1  0  0  0  0
 15 16  1  0  0  0  0
M  END
>  <minimizedAffinity>
-4.49301815

$$$$

 OpenBabel03252504083D

 16 17  0  0  0  0  0  0  0  0999 V2000
   35.5660   29.4490   40.5060 C   0  0  0  0  0  0  0  0  0  0  0  0
   36.4520   28.4160   40.8710 C   0  0  0  0  0  0  0  0  0  0  0  0
   36.5800   27.3180   39.9780 C   0  0  0  0  0  0  0  0  0  0  0  0
   35.8410   27.3410   38.8300 N   0  0  0  0  0  0  0  0  0  0  0  0
   35.0140   28.3560   38.5400 C   0  0  0  0  0  0  0  0  0  0  0  0
   34.8690   29.4120   39.3680 N   0  0  0  0  0  0  0  0  0  0  0  0
   37.2520   26.5340   40.2550 H   0  0  0  0  0  0  0  0  0  0  0  0
   34.4530   28.2990   37.5960 H   0  0  0  0  0  0  0  0  0  0  0  0
   37.1740   28.5030   42.1000 N   0  0  0  0  0  0  0  0  0  0  0  0
   37.0460   27.7030   43.3220 C   0  0  0  0  0  2  0  0  0  0  0  0
   38.4880   27.3750   43.6800 C   0  0  0  0  0  2  0  0  0  0  0  0
   39.3210   28.3890   42.9230 C   0  0  0  0  0  2  0  0  0  0  0  0
   38.2530   29.3990   42.5360 C   0  0  0  0  0  3  0  0  0  0  0  0
   38.5490   30.0450   41.7020 H   0  0  0  0  0  0  0  0  0  0  0  0
   35.4500   30.5000   41.3740 O   0  0  0  0  0  0  0  0  0  0  0  0
   36.2390   31.0960   41.5360 H   0  0  0  0  0  0  0  0  0  0  0  0
  1  2  1  0  0  0  0
  1 15  1  0  0  0  0
  2  9  1  0  0  0  0
  3  7  1  0  0  0  0
  3  2  2  0  0  0  0
  4  3  1  0  0  0  0
  5  4  2  0  0  0  0
  5  6  1  0  0  0  0
  6  1  2  0  0  0  0
  8  5  1  0  0  0  0
  9 13  1  0  0  0  0
  9 10  1  0  0  0  0
 10 11  1  0  0  0  0
 12 11  1  0  0  0  0
 13 12  1  0  0  0  0
 14 13  1  0  0  0  0
 15 16  1  0  0  0  0
M  END
>  <minimizedAffinity>
-3.98440814

$$$$

 OpenBabel03252504083D

 16 17  0  0  0  0  0  0  0  0999 V2000
   36.3450   29.8440   40.9280 C   0  0  0  0  0  0  0  0  0  0  0  0
   37.4470   29.9980   40.0620 C   0  0  0  0  0  0  0  0  0  0  0  0
   38.0990   28.8180   39.6160 C   0  0  0  0  0  0  0  0  0  0  0  0
   37.6140   27.6180   40.0540 N   0  0  0  0  0  0  0  0  0  0  0  0
   36.5600   27.5380   40.8790 C   0  0  0  0  0  0  0  0  0  0  0  0
   35.9200   28.6410   41.3210 N   0  0  0  0  0  0  0  0  0  0  0  0
   38.9350   28.9340   38.9600 H   0  0  0  0  0  0  0  0  0  0  0  0
   36.2320   26.5350   41.1860 H   0  0  0  0  0  0  0  0  0  0  0  0
   37.8630   31.3080   39.6710 N   0  0  0  0  0  0  0  0  0  0  0  0
   37.2830   32.2190   38.6810 C   0  0  0  0  0  2  0  0  0  0  0  0
   37.2540   33.5550   39.4090 C   0  0  0  0  0  2  0  0  0  0  0  0
   38.2350   33.4010   40.5520 C   0  0  0  0  0  2  0  0  0  0  0  0
   38.9800   32.1490   40.1180 C   0  0  0  0  0  3  0  0  0  0  0  0
   39.5060   31.6510   40.9400 H   0  0  0  0  0  0  0  0  0  0  0  0
   35.7260   30.9880   41.3510 O   0  0  0  0  0  0  0  0  0  0  0  0
   35.2510   31.5670   40.6850 H   0  0  0  0  0  0  0  0  0  0  0  0
  1  6  1  0  0  0  0
  1 15  1  0  0  0  0
  2  1  2  0  0  0  0
  3  4  2  0  0  0  0
  3  2  1  0  0  0  0
  4  5  1  0  0  0  0
  5  8  1  0  0  0  0
  5  6  2  0  0  0  0
  7  3  1  0  0  0  0
  9  2  1  0  0  0  0
  9 13  1  0  0  0  0
 10 11  1  0  0  0  0
 10  9  1  0  0  0  0
 11 12  1  0  0  0  0
 13 12  1  0  0  0  0
 13 14  1  0  0  0  0
 16 15  1  0  0  0  0
M  END
>  <minimizedAffinity>
-3.95745158

$$$$

 OpenBabel03252504083D

 16 17  0  0  0  0  0  0  0  0999 V2000
   37.1390   29.8560   41.9470 C   0  0  0  0  0  0  0  0  0  0  0  0
   38.3750   30.2640   41.4060 C   0  0  0  0  0  0  0  0  0  0  0  0
   39.5460   29.6290   41.8980 C   0  0  0  0  0  0  0  0  0  0  0  0
   39.3940   28.6670   42.8560 N   0  0  0  0  0  0  0  0  0  0  0  0
   38.1890   28.3240   43.3310 C   0  0  0  0  0  0  0  0  0  0  0  0
   37.0580   28.9100   42.8850 N   0  0  0  0  0  0  0  0  0  0  0  0
   40.4840   29.9380   41.4880 H   0  0  0  0  0  0  0  0  0  0  0  0
   38.1520   27.5410   44.1020 H   0  0  0  0  0  0  0  0  0  0  0  0
   38.4080   31.2820   40.4040 N   0  0  0  0  0  0  0  0  0  0  0  0
   38.3240   31.1650   38.9460 C   0  0  0  0  0  2  0  0  0  0  0  0
   37.3280   32.2500   38.5640 C   0  0  0  0  0  2  0  0  0  0  0  0
   37.2900   33.1860   39.7530 C   0  0  0  0  0  2  0  0  0  0  0  0
   38.5360   32.7420   40.5010 C   0  0  0  0  0  3  0  0  0  0  0  0
   38.5380   33.0380   41.5560 H   0  0  0  0  0  0  0  0  0  0  0  0
   36.0190   30.4760   41.4670 O   0  0  0  0  0  0  0  0  0  0  0  0
   35.7560   30.3480   40.5080 H   0  0  0  0  0  0  0  0  0  0  0  0
  1  6  1  0  0  0  0
  2  3  1  0  0  0  0
  2  1  2  0  0  0  0
  3  4  2  0  0  0  0
  4  5  1  0  0  0  0
  5  8  1  0  0  0  0
  6  5  2  0  0  0  0
  7  3  1  0  0  0  0
  9 13  1  0  0  0  0
  9  2  1  0  0  0  0
 10  9  1  0  0  0  0
 11 10  1  0  0  0  0
 11 12  1  0  0  0  0
 12 13  1  0  0  0  0
 13 14  1  0  0  0  0
 15  1  1  0  0  0  0
 16 15  1  0  0  0  0
M  END
>  <minimizedAffinity>
-3.93385196

$$$$

 OpenBabel03252504083D

 16 17  0  0  0  0  0  0  0  0999 V2000
   39.1350   31.0010   41.7440 C   0  0  0  0  0  0  0  0  0  0  0  0
   37.9610   30.2250   41.6740 C   0  0  0  0  0  0  0  0  0  0  0  0
   36.8570   30.7720   40.9670 C   0  0  0  0  0  0  0  0  0  0  0  0
   37.0100   32.0070   40.4050 N   0  0  0  0  0  0  0  0  0  0  0  0
   38.1550   32.6960   40.5080 C   0  0  0  0  0  0  0  0  0  0  0  0
   39.2210   32.2050   41.1730 N   0  0  0  0  0  0  0  0  0  0  0  0
   35.9660   30.1850   40.9130 H   0  0  0  0  0  0  0  0  0  0  0  0
   38.1970   33.6850   40.0280 H   0  0  0  0  0  0  0  0  0  0  0  0
   37.9200   28.9430   42.3020 N   0  0  0  0  0  0  0  0  0  0  0  0
   37.4740   28.5730   43.6490 C   0  0  0  0  0  2  0  0  0  0  0  0
   36.6040   27.3480   43.4060 C   0  0  0  0  0  2  0  0  0  0  0  0
   37.0010   26.8490   42.0320 C   0  0  0  0  0  2  0  0  0  0  0  0
   38.3010   27.6090   41.8220 C   0  0  0  0  0  3  0  0  0  0  0  0
   38.6010   27.6720   40.7700 H   0  0  0  0  0  0  0  0  0  0  0  0
   40.1910   30.4640   42.4280 O   0  0  0  0  0  0  0  0  0  0  0  0
   40.6380   29.6380   42.0780 H   0  0  0  0  0  0  0  0  0  0  0  0
  1 15  1  0  0  0  0
  2  1  1  0  0  0  0
  2  9  1  0  0  0  0
  3  2  2  0  0  0  0
  4  5  2  0  0  0  0
  4  3  1  0  0  0  0
  5  6  1  0  0  0  0
  6  1  2  0  0  0  0
  7  3  1  0  0  0  0
  8  5  1  0  0  0  0
  9 10  1  0  0  0  0
 11 10  1  0  0  0  0
 12 11  1  0  0  0  0
 13 12  1  0  0  0  0
 13  9  1  0  0  0  0
 14 13  1  0  0  0  0
 16 15  1  0  0  0  0
M  END
>  <minimizedAffinity>
-3.88427258

$$$$

 OpenBabel03252504083D

 16 17  0  0  0  0  0  0  0  0999 V2000
   37.2490   28.3180   42.7220 C   0  0  0  0  0  0  0  0  0  0  0  0
   37.4580   28.7570   41.3990 C   0  0  0  0  0  0  0  0  0  0  0  0
   37.6010   27.7620   40.3950 C   0  0  0  0  0  0  0  0  0  0  0  0
   37.5240   26.4530   40.7800 N   0  0  0  0  0  0  0  0  0  0  0  0
   37.3230   26.1010   42.0570 C   0  0  0  0  0  0  0  0  0  0  0  0
   37.1850   27.0220   43.0340 N   0  0  0  0  0  0  0  0  0  0  0  0
   37.7590   28.0930   39.3910 H   0  0  0  0  0  0  0  0  0  0  0  0
   37.2750   25.0260   42.2850 H   0  0  0  0  0  0  0  0  0  0  0  0
   37.5190   30.1560   41.1170 N   0  0  0  0  0  0  0  0  0  0  0  0
   38.6800   31.0480   41.0470 C   0  0  0  0  0  2  0  0  0  0  0  0
   38.4370   31.8400   39.7710 C   0  0  0  0  0  2  0  0  0  0  0  0
   36.9600   31.6750   39.4800 C   0  0  0  0  0  2  0  0  0  0  0  0
   36.4690   31.1360   40.8140 C   0  0  0  0  0  3  0  0  0  0  0  0
   35.5020   30.6250   40.7460 H   0  0  0  0  0  0  0  0  0  0  0  0
   37.1140   29.2860   43.6800 O   0  0  0  0  0  0  0  0  0  0  0  0
   36.3240   29.9010   43.6520 H   0  0  0  0  0  0  0  0  0  0  0  0
  1  6  1  0  0  0  0
  1 15  1  0  0  0  0
  2  1  2  0  0  0  0
  3  4  2  0  0  0  0
  3  2  1  0  0  0  0
  4  5  1  0  0  0  0
  5  8  1  0  0  0  0
  5  6  2  0  0  0  0
  7  3  1  0  0  0  0
  9  2  1  0  0  0  0
 10  9  1  0  0  0  0
 11 10  1  0  0  0  0
 12 11  1  0  0  0  0
 12 13  1  0  0  0  0
 13  9  1  0  0  0  0
 14 13  1  0  0  0  0
 16 15  1  0  0  0  0
M  END
>  <minimizedAffinity>
-3.83593535

$$$$

 OpenBabel03252504083D

 16 17  0  0  0  0  0  0  0  0999 V2000
   40.7680   32.3750   37.5430 C   0  0  0  0  0  0  0  0  0  0  0  0
   40.6500   32.4550   38.9460 C   0  0  0  0  0  0  0  0  0  0  0  0
   41.8500   32.4140   39.7060 C   0  0  0  0  0  0  0  0  0  0  0  0
   43.0300   32.3030   39.0280 N   0  0  0  0  0  0  0  0  0  0  0  0
   43.0740   32.2310   37.6900 C   0  0  0  0  0  0  0  0  0  0  0  0
   41.9540   32.2660   36.9400 N   0  0  0  0  0  0  0  0  0  0  0  0
   41.7610   32.4740   40.7700 H   0  0  0  0  0  0  0  0  0  0  0  0
   44.0650   32.1420   37.2200 H   0  0  0  0  0  0  0  0  0  0  0  0
   39.3580   32.5700   39.5440 N   0  0  0  0  0  0  0  0  0  0  0  0
   38.6330   33.7650   39.9860 C   0  0  0  0  0  2  0  0  0  0  0  0
   37.2330   33.5510   39.4300 C   0  0  0  0  0  2  0  0  0  0  0  0
   37.1490   32.0680   39.1350 C   0  0  0  0  0  2  0  0  0  0  0  0
   38.3570   31.5590   39.9040 C   0  0  0  0  0  3  0  0  0  0  0  0
   38.6990   30.5720   39.5720 H   0  0  0  0  0  0  0  0  0  0  0  0
   39.6060   32.4150   36.8230 O   0  0  0  0  0  0  0  0  0  0  0  0
   39.0480   33.2480   36.8300 H   0  0  0  0  0  0  0  0  0  0  0  0
  1  2  1  0  0  0  0
  2  9  1  0  0  0  0
  2  3  2  0  0  0  0
  3  7  1  0  0  0  0
  4  3  1  0  0  0  0
  5  4  2  0  0  0  0
  6  1  2  0  0  0  0
  6  5  1  0  0  0  0
  8  5  1  0  0  0  0
  9 13  1  0  0  0  0
  9 10  1  0  0  0  0
 11 10  1  0  0  0  0
 12 11  1  0  0  0  0
 12 13  1  0  0  0  0
 14 13  1  0  0  0  0
 15 16  1  0  0  0  0
 15  1  1  0  0  0  0
M  END
>  <minimizedAffinity>
-3.82612109

$$$$

 OpenBabel03252504083D

 16 17  0  0  0  0  0  0  0  0999 V2000
   38.1750   33.1830   40.1100 C   0  0  0  0  0  0  0  0  0  0  0  0
   38.2320   31.7770   40.1990 C   0  0  0  0  0  0  0  0  0  0  0  0
   39.5000   31.1900   40.4550 C   0  0  0  0  0  0  0  0  0  0  0  0
   40.5710   32.0250   40.6000 N   0  0  0  0  0  0  0  0  0  0  0  0
   40.4500   33.3560   40.5040 C   0  0  0  0  0  0  0  0  0  0  0  0
   39.2610   33.9450   40.2600 N   0  0  0  0  0  0  0  0  0  0  0  0
   39.5450   30.1240   40.5220 H   0  0  0  0  0  0  0  0  0  0  0  0
   41.3610   33.9590   40.6320 H   0  0  0  0  0  0  0  0  0  0  0  0
   37.0410   31.0070   40.0300 N   0  0  0  0  0  0  0  0  0  0  0  0
   36.4700   30.4180   38.8160 C   0  0  0  0  0  2  0  0  0  0  0  0
   36.1010   29.0070   39.2500 C   0  0  0  0  0  2  0  0  0  0  0  0
   36.0540   29.0610   40.7620 C   0  0  0  0  0  2  0  0  0  0  0  0
   36.0230   30.5630   40.9900 C   0  0  0  0  0  3  0  0  0  0  0  0
   36.3250   30.8540   42.0030 H   0  0  0  0  0  0  0  0  0  0  0  0
   36.9490   33.7370   39.8620 O   0  0  0  0  0  0  0  0  0  0  0  0
   36.2200   33.6490   40.5440 H   0  0  0  0  0  0  0  0  0  0  0  0
  1  2  2  0  0  0  0
  1  6  1  0  0  0  0
  2  3  1  0  0  0  0
  3  7  1  0  0  0  0
  3  4  2  0  0  0  0
  5  4  1  0  0  0  0
  5  8  1  0  0  0  0
  6  5  2  0  0  0  0
  9  2  1  0  0  0  0
  9 13  1  0  0  0  0
 10 11  1  0  0  0  0
 10  9  1  0  0  0  0
 11 12  1  0  0  0  0
 12 13  1  0  0  0  0
 13 14  1  0  0  0  0
 15  1  1  0  0  0  0
 15 16  1  0  0  0  0
M  END
>  <minimizedAffinity>
-3.75951219

$$$$

 OpenBabel03252504083D

 16 17  0  0  0  0  0  0  0  0999 V2000
   36.9190   30.1860   41.2830 C   0  0  0  0  0  0  0  0  0  0  0  0
   37.5930   29.2200   40.5090 C   0  0  0  0  0  0  0  0  0  0  0  0
   37.9250   29.5670   39.1720 C   0  0  0  0  0  0  0  0  0  0  0  0
   37.5700   30.8100   38.7300 N   0  0  0  0  0  0  0  0  0  0  0  0
   36.9280   31.6850   39.5170 C   0  0  0  0  0  0  0  0  0  0  0  0
   36.5990   31.3850   40.7910 N   0  0  0  0  0  0  0  0  0  0  0  0
   38.4350   28.8350   38.5840 H   0  0  0  0  0  0  0  0  0  0  0  0
   36.6770   32.6650   39.0860 H   0  0  0  0  0  0  0  0  0  0  0  0
   37.9140   27.9510   41.0810 N   0  0  0  0  0  0  0  0  0  0  0  0
   39.0900   27.5410   41.8540 C   0  0  0  0  0  2  0  0  0  0  0  0
   38.4910   26.7720   43.0220 C   0  0  0  0  0  2  0  0  0  0  0  0
   37.0910   26.4060   42.5770 C   0  0  0  0  0  2  0  0  0  0  0  0
   37.1920   26.6720   41.0830 C   0  0  0  0  0  3  0  0  0  0  0  0
   36.2180   26.8020   40.5990 H   0  0  0  0  0  0  0  0  0  0  0  0
   36.6060   29.8390   42.5680 O   0  0  0  0  0  0  0  0  0  0  0  0
   37.3410   29.6760   43.2290 H   0  0  0  0  0  0  0  0  0  0  0  0
  1 15  1  0  0  0  0
  2  9  1  0  0  0  0
  2  1  2  0  0  0  0
  3  2  1  0  0  0  0
  4  3  2  0  0  0  0
  4  5  1  0  0  0  0
  5  6  2  0  0  0  0
  6  1  1  0  0  0  0
  7  3  1  0  0  0  0
  8  5  1  0  0  0  0
  9 13  1  0  0  0  0
  9 10  1  0  0  0  0
 10 11  1  0  0  0  0
 12 11  1  0  0  0  0
 13 12  1  0  0  0  0
 14 13  1  0  0  0  0
 15 16  1  0  0  0  0
M  END
>  <minimizedAffinity>
-3.72998977

$$$$
