
 OpenBabel03252509223D

 24 26  0  0  1  0  0  0  0  0999 V2000
   46.7070   32.8580   42.8370 C   0  0  1  0  0  0  0  0  0  0  0  0
   47.3720   34.1320   43.4270 C   0  0  0  0  0  0  0  0  0  0  0  0
   46.5200   33.0900   44.2240 C   0  0  2  0  0  0  0  0  0  0  0  0
   47.4220   32.1630   42.3700 H   0  0  0  0  0  0  0  0  0  0  0  0
   46.9070   35.1010   43.2710 H   0  0  0  0  0  0  0  0  0  0  0  0
   48.4500   34.0430   43.5030 H   0  0  0  0  0  0  0  0  0  0  0  0
   45.5110   33.4970   44.5430 H   0  0  0  0  0  0  0  0  0  0  0  0
   44.6970   33.4600   39.7250 C   0  0  0  0  0  0  0  0  0  0  0  0
   45.8250   33.1200   40.5440 C   0  0  0  0  0  0  0  0  0  0  0  0
   45.5920   33.2640   41.8860 C   0  0  0  0  0  0  0  0  0  0  0  0
   44.3680   33.7040   42.3920 N   0  0  0  0  0  0  0  0  0  0  0  0
   43.3630   34.0020   41.5630 C   0  0  0  0  0  0  0  0  0  0  0  0
   43.5230   33.8810   40.2160 N   0  0  0  0  0  0  0  0  0  0  0  0
   44.8180   33.3660   38.6660 H   0  0  0  0  0  0  0  0  0  0  0  0
   42.5090   34.3200   42.1460 H   0  0  0  0  0  0  0  0  0  0  0  0
   47.0690   32.6980   40.0150 N   0  0  0  0  0  0  0  0  0  0  0  0
   47.3970   31.7310   39.8250 H   0  0  0  0  0  0  0  0  0  0  0  0
   47.4290   33.6920   39.9280 H   0  0  0  0  0  0  0  0  0  0  0  0
   47.2580   32.5150   45.3000 N   0  0  1  0  0  0  0  0  0  0  0  0
   46.5780   32.8100   46.5430 C   0  0  0  0  0  2  0  0  0  0  0  0
   45.7680   31.5840   46.8950 C   0  0  0  0  0  2  0  0  0  0  0  0
   45.8930   30.6870   45.6900 C   0  0  0  0  0  2  0  0  0  0  0  0
   47.2910   31.0630   45.2180 C   0  0  0  0  0  3  0  0  0  0  0  0
   47.5160   30.7050   44.2150 H   0  0  0  0  0  0  0  0  0  0  0  0
  1  4  1  6  0  0  0
  1  2  1  0  0  0  0
  1  3  1  0  0  0  0
  2  6  1  0  0  0  0
  2  3  1  0  0  0  0
  3  7  1  1  0  0  0
  3 19  1  0  0  0  0
  5  2  1  0  0  0  0
  8 13  2  0  0  0  0
  8  9  1  0  0  0  0
  9 10  2  0  0  0  0
 10 11  1  0  0  0  0
 10  1  1  0  0  0  0
 12 15  1  0  0  0  0
 12 11  2  0  0  0  0
 13 12  1  0  0  0  0
 14  8  1  0  0  0  0
 16  9  1  0  0  0  0
 17 16  1  0  0  0  0
 18 16  1  0  0  0  0
 19 20  1  1  0  0  0
 20 21  1  0  0  0  0
 22 21  1  0  0  0  0
 23 19  1  0  0  0  0
 23 22  1  0  0  0  0
 24 23  1  0  0  0  0
M  END
>  <minimizedAffinity>
-3.02943683

>  <minimizedRMSD>
5.47415495

$$$$
