
     RDKit          3D

 45 48  0  0  0  0  0  0  0  0999 V2000
   45.2861   35.2929   43.1208 Cl  0  0  0  0  0  0  0  0  0  0  0  0
   45.1692   34.5367   41.5560 C   0  0  0  0  0  0  0  0  0  0  0  0
   46.2753   34.1553   40.8812 C   0  0  0  0  0  0  0  0  0  0  0  0
   46.0706   33.5606   39.6396 C   0  0  0  0  0  0  0  0  0  0  0  0
   44.8181   33.3660   39.1140 C   0  0  0  0  0  0  0  0  0  0  0  0
   43.7220   33.7584   39.8135 C   0  0  0  0  0  0  0  0  0  0  0  0
   43.9069   34.3472   41.0427 C   0  0  0  0  0  0  0  0  0  0  0  0
   49.5455   35.7430   41.8886 C   0  0  0  0  0  0  0  0  0  0  0  0
   48.2874   35.5479   41.3093 C   0  0  0  0  0  0  0  0  0  0  0  0
   47.5737   34.3710   41.4667 C   0  0  0  0  0  0  0  0  0  0  0  0
   48.1875   33.4236   42.2245 N   0  0  0  0  0  0  0  0  0  0  0  0
   49.3950   33.6116   42.7804 C   0  0  0  0  0  0  0  0  0  0  0  0
   50.0634   34.7583   42.6128 N   0  0  0  0  0  0  0  0  0  0  0  0
   47.8023   31.8868   38.9832 C   0  0  0  0  0  0  0  0  0  0  0  0
   47.2261   33.1167   38.8763 C   0  0  0  0  0  0  0  0  0  0  0  0
   47.7614   34.0235   37.9815 C   0  0  0  0  0  0  0  0  0  0  0  0
   48.8520   33.6904   37.2145 C   0  0  0  0  0  0  0  0  0  0  0  0
   49.4517   32.4399   37.3089 C   0  0  0  0  0  0  0  0  0  0  0  0
   48.9089   31.5332   38.2111 C   0  0  0  0  0  0  0  0  0  0  0  0
   47.1893   30.7155   40.0308 S   0  0  0  0  0  0  0  0  0  0  0  0
   46.7816   29.4440   39.3249 O   0  0  0  0  0  0  0  0  0  0  0  0
   48.4290   30.2816   40.8708 O   0  0  0  0  0  0  0  0  0  0  0  0
   44.6665   32.9044   38.1480 H   0  0  0  0  0  0  0  0  0  0  0  0
   42.7132   33.6186   39.4270 H   0  0  0  0  0  0  0  0  0  0  0  0
   43.0251   34.6621   41.6038 H   0  0  0  0  0  0  0  0  0  0  0  0
   49.9944   36.7236   41.6798 H   0  0  0  0  0  0  0  0  0  0  0  0
   47.8143   36.3133   40.7092 H   0  0  0  0  0  0  0  0  0  0  0  0
   49.9070   32.8779   43.3869 H   0  0  0  0  0  0  0  0  0  0  0  0
   47.3190   35.0209   37.8750 H   0  0  0  0  0  0  0  0  0  0  0  0
   49.2240   34.4422   36.5342 H   0  0  0  0  0  0  0  0  0  0  0  0
   50.2968   32.1767   36.7159 H   0  0  0  0  0  0  0  0  0  0  0  0
   49.3693   30.5620   38.2892 H   0  0  0  0  0  0  0  0  0  0  0  0
   46.6124   29.3273   42.3918 H   0  0  0  0  0  0  0  0  0  0  0  0
   45.7028   29.6991   42.0429 N   0  0  0  0  0  0  0  0  0  0  0  0
   44.9216   30.3306   43.0894 C   0  0  0  0  0  0  0  0  0  0  0  0
   45.9223   31.3300   43.5932 C   0  0  0  0  0  0  0  0  0  0  0  0
   46.8470   31.5220   42.4397 C   0  0  0  0  0  0  0  0  0  0  0  0
   46.0419   30.8975   41.2447 C   0  0  1  0  0  0  0  0  0  0  0  0
   44.1008   30.8715   42.6117 H   0  0  0  0  0  0  0  0  0  0  0  0
   44.5952   29.6127   43.8637 H   0  0  0  0  0  0  0  0  0  0  0  0
   45.4408   32.2743   43.9497 H   0  0  0  0  0  0  0  0  0  0  0  0
   46.4816   30.8410   44.4393 H   0  0  0  0  0  0  0  0  0  0  0  0
   47.0788   32.5673   42.2122 H   0  0  0  0  0  0  0  0  0  0  0  0
   47.7753   30.9268   42.5336 H   0  0  0  0  0  0  0  0  0  0  0  0
   45.2393   31.6190   41.2244 H   0  0  0  0  0  0  0  0  0  0  0  0
  2  1  1  0
  3 10  1  0
  3  2  2  0
  4  3  1  0
  5  4  2  0
  5  6  1  0
  6  7  2  0
  7  2  1  0
  8 13  2  0
  9 10  2  0
  9  8  1  0
 10 11  1  0
 11 12  2  0
 13 12  1  0
 14 20  1  0
 15 14  1  0
 15  4  1  0
 16 15  2  0
 17 18  2  0
 17 16  1  0
 18 19  1  0
 19 14  2  0
 20 22  2  0
 21 20  2  0
  5 23  1  0
  6 24  1  0
  7 25  1  0
  8 26  1  0
  9 27  1  0
 12 28  1  0
 16 29  1  0
 17 30  1  0
 18 31  1  0
 19 32  1  0
 33 34  1  0
 34 35  1  0
 35 36  1  0
 36 37  1  0
 37 38  1  0
 38 34  1  0
 35 39  1  0
 35 40  1  0
 36 41  1  0
 36 42  1  0
 37 43  1  0
 37 44  1  0
 38 45  1  6
 20 38  1  0
M  ISO  8  23  14  24  14  25  14  26  14  27  14  28  14  29  14  30  14
M  ISO  3  31  14  32  14  33   5
M  END
>  <DihAtoms>  (1) 
13,19,37,36

>  <DihDeg>  (1) 
-169.32608883887042

$$$$
