
 OpenBabel03252506173D

 20 21  0  0  0  0  0  0  0  0999 V2000
   44.8440   35.7890   43.9720 C   0  0  0  0  0  0  0  0  0  0  0  0
   44.3240   35.4460   42.7060 C   0  0  0  0  0  0  0  0  0  0  0  0
   44.3560   34.0910   42.3430 C   0  0  0  0  0  0  0  0  0  0  0  0
   44.8760   33.1930   43.2120 N   0  0  0  0  0  0  0  0  0  0  0  0
   45.3680   33.5570   44.4230 C   0  0  0  0  0  0  0  0  0  0  0  0
   45.3370   34.8410   44.7660 N   0  0  0  0  0  0  0  0  0  0  0  0
   43.9100   36.1590   42.0100 H   0  0  0  0  0  0  0  0  0  0  0  0
   43.9830   33.7300   41.3950 H   0  0  0  0  0  0  0  0  0  0  0  0
   45.8980   32.5730   45.2880 N   0  0  0  0  0  0  0  0  0  0  0  0
   46.4570   32.8430   46.6200 C   0  0  0  0  0  0  0  0  0  0  0  0
   47.1250   31.5630   47.0410 C   0  0  0  0  0  0  0  0  0  0  0  0
   47.3650   30.8800   45.6880 C   0  0  0  0  0  0  0  0  0  0  0  0
   45.9960   31.1480   45.0480 C   0  0  0  0  0  0  0  0  0  0  0  0
   45.2000   30.6650   45.6460 H   0  0  0  0  0  0  0  0  0  0  0  0
   44.8150   37.2010   44.3600 C   0  0  0  0  0  0  0  0  0  0  0  0
   45.4050   38.0830   43.5660 C   0  0  0  0  0  0  0  0  0  0  0  0
   45.4250   39.5320   43.8780 C   0  0  0  0  0  0  0  0  0  0  0  0
   44.4760   39.7950   44.3920 H   0  0  0  0  0  0  0  0  0  0  0  0
   46.3230   39.8000   44.4890 H   0  0  0  0  0  0  0  0  0  0  0  0
   45.5410   40.0820   42.9060 H   0  0  0  0  0  0  0  0  0  0  0  0
  1 15  1  0  0  0  0
  1  6  1  0  0  0  0
  2  1  2  0  0  0  0
  3  2  1  0  0  0  0
  3  4  2  0  0  0  0
  4  5  1  0  0  0  0
  5  6  2  0  0  0  0
  5  9  1  0  0  0  0
  7  2  1  0  0  0  0
  8  3  1  0  0  0  0
  9 10  1  0  0  0  0
 10 11  1  0  0  0  0
 12 11  1  0  0  0  0
 13  9  1  0  0  0  0
 13 14  1  0  0  0  0
 13 12  1  0  0  0  0
 16 17  1  0  0  0  0
 16 15  2  0  0  0  0
 17 18  1  0  0  0  0
 17 19  1  0  0  0  0
 20 17  1  0  0  0  0
M  END
>  <minimizedAffinity>
-3.58417869

>  <minimizedRMSD>
1.06855035

$$$$
