
 OpenBabel03252509353D

 41 43  0  0  1  0  0  0  0  0999 V2000
   44.5210   35.4730   44.0210 O   0  0  0  0  0  0  0  0  0  0  0  0
   45.3740   34.2660   44.3600 P   0  0  1  0  0  0  0  0  0  0  0  0
   44.7140   32.8460   43.7130 O   0  0  0  0  0  0  0  0  0  0  0  0
   44.3830   33.1030   42.8080 H   0  0  0  0  0  0  0  0  0  0  0  0
   46.9000   34.5230   43.7320 O   0  0  0  0  0  0  0  0  0  0  0  0
   47.0340   33.8320   42.5230 C   0  0  1  0  0  0  0  0  0  0  0  0
   46.4480   34.6640   41.3790 C   0  0  0  0  0  0  0  0  0  0  0  0
   46.9660   33.9080   40.1860 C   0  0  0  0  0  0  0  0  0  0  0  0
   48.2460   33.2360   40.6370 C   0  0  0  0  0  0  0  0  0  0  0  0
   48.4530   33.7020   42.0650 C   0  0  1  0  0  0  0  0  0  0  0  0
   46.5160   32.8760   42.5160 H   0  0  0  0  0  0  0  0  0  0  0  0
   46.7060   35.7150   41.4200 H   0  0  0  0  0  0  0  0  0  0  0  0
   45.3310   34.5780   41.4150 H   0  0  0  0  0  0  0  0  0  0  0  0
   47.2680   34.6180   39.3830 H   0  0  0  0  0  0  0  0  0  0  0  0
   46.2030   33.1870   39.8440 H   0  0  0  0  0  0  0  0  0  0  0  0
   49.1140   33.4600   39.9920 H   0  0  0  0  0  0  0  0  0  0  0  0
   48.0190   32.1440   40.6990 H   0  0  0  0  0  0  0  0  0  0  0  0
   48.9490   32.9060   42.6790 H   0  0  0  0  0  0  0  0  0  0  0  0
   49.2100   35.0050   42.1300 C   0  0  0  0  0  0  0  0  0  0  0  0
   48.5190   35.8930   42.2210 H   0  0  0  0  0  0  0  0  0  0  0  0
   49.7910   35.1600   41.1960 H   0  0  0  0  0  0  0  0  0  0  0  0
   50.0260   35.0740   43.2360 O   0  0  0  0  0  0  0  0  0  0  0  0
   50.5810   34.2970   43.4190 H   0  0  0  0  0  0  0  0  0  0  0  0
   45.4420   34.0460   46.0110 O   0  0  0  0  0  0  0  0  0  0  0  0
   46.4010   33.1240   46.2980 C   0  0  0  0  0  0  0  0  0  0  0  0
   46.9520   32.6790   45.4770 H   0  0  0  0  0  0  0  0  0  0  0  0
   47.1800   33.6810   46.9000 H   0  0  0  0  0  0  0  0  0  0  0  0
   45.2430   31.3490   49.3530 C   0  0  0  0  0  0  0  0  0  0  0  0
   45.6920   32.3750   48.5210 C   0  0  0  0  0  0  0  0  0  0  0  0
   45.9230   32.0530   47.1860 C   0  0  0  0  0  0  0  0  0  0  0  0
   45.7020   30.7740   46.7680 N   0  0  0  0  0  0  0  0  0  0  0  0
   45.2680   29.8000   47.5940 C   0  0  0  0  0  0  0  0  0  0  0  0
   45.0430   30.0900   48.8680 N   0  0  0  0  0  0  0  0  0  0  0  0
   45.0620   31.5850   50.3850 H   0  0  0  0  0  0  0  0  0  0  0  0
   45.8410   33.3640   48.9410 H   0  0  0  0  0  0  0  0  0  0  0  0
   45.0550   28.4820   47.1020 N   0  0  0  0  0  0  0  0  0  0  0  0
   45.6810   27.2430   47.5170 C   0  0  0  0  0  2  0  0  0  0  0  0
   44.6400   26.1580   47.2480 C   0  0  0  0  0  2  0  0  0  0  0  0
   43.4520   26.9030   46.6620 C   0  0  0  0  0  2  0  0  0  0  0  0
   44.1330   28.1080   46.0480 C   0  0  0  0  0  3  0  0  0  0  0  0
   43.3940   28.9050   45.8220 H   0  0  0  0  0  0  0  0  0  0  0  0
  2  1  2  6  0  0  0
  2 24  1  0  0  0  0
  3  2  1  0  0  0  0
  4  3  1  0  0  0  0
  5  2  1  0  0  0  0
  6 11  1  1  0  0  0
  6  5  1  0  0  0  0
  7 13  1  0  0  0  0
  7 12  1  0  0  0  0
  7  6  1  0  0  0  0
  8  9  1  0  0  0  0
  8  7  1  0  0  0  0
  9 17  1  0  0  0  0
  9 10  1  0  0  0  0
 10 19  1  0  0  0  0
 10  6  1  0  0  0  0
 10 18  1  1  0  0  0
 14  8  1  0  0  0  0
 15  8  1  0  0  0  0
 16  9  1  0  0  0  0
 19 20  1  0  0  0  0
 19 22  1  0  0  0  0
 21 19  1  0  0  0  0
 22 23  1  0  0  0  0
 24 25  1  0  0  0  0
 25 27  1  0  0  0  0
 25 30  1  0  0  0  0
 26 25  1  0  0  0  0
 28 34  1  0  0  0  0
 29 35  1  0  0  0  0
 29 28  2  0  0  0  0
 30 29  1  0  0  0  0
 31 30  2  0  0  0  0
 31 32  1  0  0  0  0
 32 33  2  0  0  0  0
 33 28  1  0  0  0  0
 36 37  1  0  0  0  0
 36 32  1  0  0  0  0
 38 37  1  0  0  0  0
 39 38  1  0  0  0  0
 40 39  1  0  0  0  0
 40 36  1  0  0  0  0
 41 40  1  0  0  0  0
M  END
>  <minimizedAffinity>
-6.239326

>  <minimizedRMSD>
1.11762071

$$$$
