
 OpenBabel03252501023D

 22 24  0  0  1  0  0  0  0  0999 V2000
   35.3980   30.0160   40.1590 C   0  0  1  0  0  0  0  0  0  0  0  0
   35.2650   28.7700   39.3170 C   0  0  0  0  0  0  0  0  0  0  0  0
   35.6600   28.7340   40.8010 C   0  0  1  0  0  0  0  0  0  0  0  0
   34.4500   30.5930   40.3150 H   0  0  0  0  0  0  0  0  0  0  0  0
   35.9750   28.6070   38.5240 H   0  0  0  0  0  0  0  0  0  0  0  0
   34.2050   28.4810   39.1020 H   0  0  0  0  0  0  0  0  0  0  0  0
   34.8020   28.3940   41.4800 H   0  0  0  0  0  0  0  0  0  0  0  0
   38.1640   31.7120   38.2360 C   0  0  0  0  0  0  0  0  0  0  0  0
   37.0970   30.8340   38.4900 C   0  0  0  0  0  0  0  0  0  0  0  0
   36.5540   30.8880   39.7650 C   0  0  0  0  0  0  0  0  0  0  0  0
   37.0490   31.7490   40.6810 N   0  0  0  0  0  0  0  0  0  0  0  0
   38.0850   32.5930   40.4090 C   0  0  0  0  0  0  0  0  0  0  0  0
   38.6310   32.5610   39.1790 N   0  0  0  0  0  0  0  0  0  0  0  0
   38.6120   31.6940   37.2460 H   0  0  0  0  0  0  0  0  0  0  0  0
   36.7100   30.1490   37.7490 H   0  0  0  0  0  0  0  0  0  0  0  0
   38.4870   33.2860   41.1350 H   0  0  0  0  0  0  0  0  0  0  0  0
   36.8980   28.1970   41.1900 N   0  0  2  0  0  0  0  0  0  0  0  0
   37.1550   26.8180   41.0990 C   0  0  0  0  0  2  0  0  0  0  0  0
   37.1810   26.2580   42.5200 C   0  0  0  0  0  2  0  0  0  0  0  0
   36.6860   27.4190   43.3510 C   0  0  0  0  0  2  0  0  0  0  0  0
   37.2480   28.6040   42.5560 C   0  0  0  0  0  3  0  0  0  0  0  0
   38.3420   28.5550   42.6930 H   0  0  0  0  0  0  0  0  0  0  0  0
  1  4  1  1  0  0  0
  1  3  1  0  0  0  0
  2  1  1  0  0  0  0
  2  3  1  0  0  0  0
  3 17  1  0  0  0  0
  3  7  1  1  0  0  0
  5  2  1  0  0  0  0
  6  2  1  0  0  0  0
  8  9  2  0  0  0  0
  8 13  1  0  0  0  0
  9 10  1  0  0  0  0
 10  1  1  0  0  0  0
 10 11  2  0  0  0  0
 12 11  1  0  0  0  0
 12 16  1  0  0  0  0
 13 12  2  0  0  0  0
 14  8  1  0  0  0  0
 15  9  1  0  0  0  0
 17 18  1  1  0  0  0
 17 21  1  0  0  0  0
 18 19  1  0  0  0  0
 19 20  1  0  0  0  0
 21 22  1  0  0  0  0
 21 20  1  0  0  0  0
M  END
>  <minimizedAffinity>
-4.3473587

$$$$

 OpenBabel03252501023D

 22 24  0  0  1  0  0  0  0  0999 V2000
   37.7100   28.4240   43.6790 C   0  0  1  0  0  0  0  0  0  0  0  0
   36.5590   27.5100   43.3300 C   0  0  0  0  0  0  0  0  0  0  0  0
   38.0230   27.0450   43.3270 C   0  0  1  0  0  0  0  0  0  0  0  0
   37.7200   28.8000   44.7350 H   0  0  0  0  0  0  0  0  0  0  0  0
   36.0100   27.6990   42.4240 H   0  0  0  0  0  0  0  0  0  0  0  0
   35.9590   27.1800   44.2150 H   0  0  0  0  0  0  0  0  0  0  0  0
   38.2860   26.4020   44.2390 H   0  0  0  0  0  0  0  0  0  0  0  0
   39.2710   31.1440   41.5850 C   0  0  0  0  0  0  0  0  0  0  0  0
   39.1660   30.1590   42.5810 C   0  0  0  0  0  0  0  0  0  0  0  0
   37.9450   29.5100   42.6700 C   0  0  0  0  0  0  0  0  0  0  0  0
   36.9380   29.8320   41.8300 N   0  0  0  0  0  0  0  0  0  0  0  0
   37.0640   30.7920   40.8680 C   0  0  0  0  0  0  0  0  0  0  0  0
   38.2400   31.4380   40.7600 N   0  0  0  0  0  0  0  0  0  0  0  0
   40.2150   31.6720   41.4890 H   0  0  0  0  0  0  0  0  0  0  0  0
   39.9800   29.9100   43.2480 H   0  0  0  0  0  0  0  0  0  0  0  0
   36.2650   31.0560   40.1910 H   0  0  0  0  0  0  0  0  0  0  0  0
   38.6110   26.5650   42.1450 N   0  0  2  0  0  0  0  0  0  0  0  0
   38.1180   25.4160   41.5010 C   0  0  0  0  0  2  0  0  0  0  0  0
   39.1340   24.2960   41.7110 C   0  0  0  0  0  2  0  0  0  0  0  0
   40.0920   24.8920   42.7170 C   0  0  0  0  0  2  0  0  0  0  0  0
   40.0560   26.3700   42.3100 C   0  0  0  0  0  3  0  0  0  0  0  0
   40.5550   26.4140   41.3270 H   0  0  0  0  0  0  0  0  0  0  0  0
  1  4  1  1  0  0  0
  2  1  1  0  0  0  0
  2  6  1  0  0  0  0
  3  2  1  0  0  0  0
  3  1  1  0  0  0  0
  3  7  1  1  0  0  0
  5  2  1  0  0  0  0
  8  9  1  0  0  0  0
  9 10  2  0  0  0  0
  9 15  1  0  0  0  0
 10  1  1  0  0  0  0
 11 10  1  0  0  0  0
 12 11  2  0  0  0  0
 13 12  1  0  0  0  0
 13  8  2  0  0  0  0
 14  8  1  0  0  0  0
 16 12  1  0  0  0  0
 17 18  1  1  0  0  0
 17 21  1  0  0  0  0
 17  3  1  0  0  0  0
 18 19  1  0  0  0  0
 19 20  1  0  0  0  0
 21 20  1  0  0  0  0
 22 21  1  0  0  0  0
M  END
>  <minimizedAffinity>
-4.25027084

$$$$

 OpenBabel03252501023D

 22 24  0  0  1  0  0  0  0  0999 V2000
   36.8740   26.9790   43.1500 C   0  0  1  0  0  0  0  0  0  0  0  0
   37.8080   28.0980   43.5430 C   0  0  0  0  0  0  0  0  0  0  0  0
   36.7250   28.2570   42.4660 C   0  0  1  0  0  0  0  0  0  0  0  0
   36.1740   26.6340   43.9550 H   0  0  0  0  0  0  0  0  0  0  0  0
   38.8530   28.0020   43.3040 H   0  0  0  0  0  0  0  0  0  0  0  0
   37.5650   28.5640   44.5320 H   0  0  0  0  0  0  0  0  0  0  0  0
   35.8190   28.8550   42.8340 H   0  0  0  0  0  0  0  0  0  0  0  0
   37.5840   23.7790   41.2850 C   0  0  0  0  0  0  0  0  0  0  0  0
   36.8360   24.7690   41.9440 C   0  0  0  0  0  0  0  0  0  0  0  0
   37.5560   25.8440   42.4430 C   0  0  0  0  0  0  0  0  0  0  0  0
   38.8960   25.9010   42.2860 N   0  0  0  0  0  0  0  0  0  0  0  0
   39.6000   24.9260   41.6420 C   0  0  0  0  0  0  0  0  0  0  0  0
   38.9260   23.8710   41.1470 N   0  0  0  0  0  0  0  0  0  0  0  0
   37.0500   22.9230   40.8820 H   0  0  0  0  0  0  0  0  0  0  0  0
   35.7640   24.7130   42.0640 H   0  0  0  0  0  0  0  0  0  0  0  0
   40.6720   24.9620   41.5100 H   0  0  0  0  0  0  0  0  0  0  0  0
   37.0810   28.5800   41.1470 N   0  0  2  0  0  0  0  0  0  0  0  0
   37.3810   29.9030   40.7760 C   0  0  0  0  0  2  0  0  0  0  0  0
   36.2270   30.4160   39.9180 C   0  0  0  0  0  2  0  0  0  0  0  0
   35.1870   29.3280   40.0620 C   0  0  0  0  0  2  0  0  0  0  0  0
   36.0820   28.0890   40.1910 C   0  0  0  0  0  3  0  0  0  0  0  0
   36.5460   27.9600   39.1970 H   0  0  0  0  0  0  0  0  0  0  0  0
  1  2  1  0  0  0  0
  1  4  1  1  0  0  0
  2  6  1  0  0  0  0
  3  7  1  1  0  0  0
  3  1  1  0  0  0  0
  3  2  1  0  0  0  0
  5  2  1  0  0  0  0
  8  9  1  0  0  0  0
  9 15  1  0  0  0  0
  9 10  2  0  0  0  0
 10  1  1  0  0  0  0
 11 10  1  0  0  0  0
 12 11  2  0  0  0  0
 13  8  2  0  0  0  0
 13 12  1  0  0  0  0
 14  8  1  0  0  0  0
 16 12  1  0  0  0  0
 17 18  1  1  0  0  0
 17  3  1  0  0  0  0
 19 20  1  0  0  0  0
 19 18  1  0  0  0  0
 20 21  1  0  0  0  0
 21 17  1  0  0  0  0
 22 21  1  0  0  0  0
M  END
>  <minimizedAffinity>
-4.24213266

$$$$

 OpenBabel03252501023D

 22 24  0  0  1  0  0  0  0  0999 V2000
   36.4440   31.2040   40.6680 C   0  0  1  0  0  0  0  0  0  0  0  0
   35.8250   30.0360   39.9370 C   0  0  0  0  0  0  0  0  0  0  0  0
   36.4430   29.9100   41.3380 C   0  0  1  0  0  0  0  0  0  0  0  0
   35.7350   32.0300   40.9390 H   0  0  0  0  0  0  0  0  0  0  0  0
   36.3150   29.6670   39.0530 H   0  0  0  0  0  0  0  0  0  0  0  0
   34.7060   30.0590   39.9140 H   0  0  0  0  0  0  0  0  0  0  0  0
   35.6540   29.8380   42.1660 H   0  0  0  0  0  0  0  0  0  0  0  0
   39.6850   33.0130   40.0020 C   0  0  0  0  0  0  0  0  0  0  0  0
   38.5130   32.6370   40.6810 C   0  0  0  0  0  0  0  0  0  0  0  0
   37.7120   31.7040   40.0410 C   0  0  0  0  0  0  0  0  0  0  0  0
   38.0700   31.2080   38.8370 N   0  0  0  0  0  0  0  0  0  0  0  0
   39.2140   31.5890   38.1980 C   0  0  0  0  0  0  0  0  0  0  0  0
   40.0100   32.4940   38.7970 N   0  0  0  0  0  0  0  0  0  0  0  0
   40.3350   33.7430   40.4770 H   0  0  0  0  0  0  0  0  0  0  0  0
   38.2370   33.0410   41.6450 H   0  0  0  0  0  0  0  0  0  0  0  0
   39.5090   31.1980   37.2350 H   0  0  0  0  0  0  0  0  0  0  0  0
   37.5290   29.0470   41.5570 N   0  0  2  0  0  0  0  0  0  0  0  0
   37.4100   27.6600   41.3590 C   0  0  0  0  0  2  0  0  0  0  0  0
   37.4200   26.9940   42.7330 C   0  0  0  0  0  2  0  0  0  0  0  0
   37.3220   28.1680   43.6800 C   0  0  0  0  0  2  0  0  0  0  0  0
   38.0970   29.2360   42.8970 C   0  0  0  0  0  3  0  0  0  0  0  0
   39.1480   28.9000   42.9090 H   0  0  0  0  0  0  0  0  0  0  0  0
  1  4  1  1  0  0  0
  1  3  1  0  0  0  0
  2  1  1  0  0  0  0
  2  3  1  0  0  0  0
  3 17  1  0  0  0  0
  3  7  1  1  0  0  0
  5  2  1  0  0  0  0
  6  2  1  0  0  0  0
  8 14  1  0  0  0  0
  8  9  1  0  0  0  0
  9 15  1  0  0  0  0
 10  1  1  0  0  0  0
 10  9  2  0  0  0  0
 11 10  1  0  0  0  0
 12 13  1  0  0  0  0
 12 11  2  0  0  0  0
 13  8  2  0  0  0  0
 16 12  1  0  0  0  0
 17 18  1  1  0  0  0
 17 21  1  0  0  0  0
 18 19  1  0  0  0  0
 19 20  1  0  0  0  0
 21 22  1  0  0  0  0
 21 20  1  0  0  0  0
M  END
>  <minimizedAffinity>
-4.17201328

$$$$

 OpenBabel03252501023D

 22 24  0  0  1  0  0  0  0  0999 V2000
   36.2940   28.1510   40.0950 C   0  0  1  0  0  0  0  0  0  0  0  0
   35.2320   29.1750   40.4180 C   0  0  0  0  0  0  0  0  0  0  0  0
   36.4440   29.4860   39.5280 C   0  0  1  0  0  0  0  0  0  0  0  0
   35.9450   27.2710   39.4950 H   0  0  0  0  0  0  0  0  0  0  0  0
   35.1510   29.5280   41.4320 H   0  0  0  0  0  0  0  0  0  0  0  0
   34.2690   29.0160   39.8690 H   0  0  0  0  0  0  0  0  0  0  0  0
   36.1770   29.5280   38.4140 H   0  0  0  0  0  0  0  0  0  0  0  0
   37.5790   27.5870   43.5950 C   0  0  0  0  0  0  0  0  0  0  0  0
   36.7170   28.0190   42.5730 C   0  0  0  0  0  0  0  0  0  0  0  0
   37.1330   27.7590   41.2760 C   0  0  0  0  0  0  0  0  0  0  0  0
   38.3030   27.1240   41.0480 N   0  0  0  0  0  0  0  0  0  0  0  0
   39.1230   26.7130   42.0580 C   0  0  0  0  0  0  0  0  0  0  0  0
   38.7430   26.9540   43.3280 N   0  0  0  0  0  0  0  0  0  0  0  0
   37.2820   27.7760   44.6230 H   0  0  0  0  0  0  0  0  0  0  0  0
   35.7830   28.5260   42.7670 H   0  0  0  0  0  0  0  0  0  0  0  0
   40.0600   26.2050   41.8870 H   0  0  0  0  0  0  0  0  0  0  0  0
   37.3560   30.4870   39.8990 N   0  0  2  0  0  0  0  0  0  0  0  0
   36.9140   31.7400   40.3610 C   0  0  0  0  0  2  0  0  0  0  0  0
   37.2050   32.7650   39.2680 C   0  0  0  0  0  2  0  0  0  0  0  0
   37.6260   31.9040   38.0990 C   0  0  0  0  0  2  0  0  0  0  0  0
   38.3240   30.7490   38.8280 C   0  0  0  0  0  3  0  0  0  0  0  0
   39.2440   31.1850   39.2530 H   0  0  0  0  0  0  0  0  0  0  0  0
  1  4  1  6  0  0  0
  1  2  1  0  0  0  0
  1 10  1  0  0  0  0
  2  5  1  0  0  0  0
  3  7  1  6  0  0  0
  3 17  1  0  0  0  0
  3  1  1  0  0  0  0
  3  2  1  0  0  0  0
  6  2  1  0  0  0  0
  8 14  1  0  0  0  0
  9 15  1  0  0  0  0
  9  8  2  0  0  0  0
 10  9  1  0  0  0  0
 11 10  2  0  0  0  0
 11 12  1  0  0  0  0
 12 13  2  0  0  0  0
 13  8  1  0  0  0  0
 16 12  1  0  0  0  0
 17 18  1  6  0  0  0
 19 18  1  0  0  0  0
 20 21  1  0  0  0  0
 20 19  1  0  0  0  0
 21 22  1  0  0  0  0
 21 17  1  0  0  0  0
M  END
>  <minimizedAffinity>
-4.0993166

$$$$

 OpenBabel03252501023D

 22 24  0  0  1  0  0  0  0  0999 V2000
   36.7550   27.6240   42.9190 C   0  0  1  0  0  0  0  0  0  0  0  0
   37.5230   28.9210   43.0220 C   0  0  0  0  0  0  0  0  0  0  0  0
   36.5740   28.6040   41.8560 C   0  0  1  0  0  0  0  0  0  0  0  0
   35.9950   27.4520   43.7250 H   0  0  0  0  0  0  0  0  0  0  0  0
   38.5940   28.8920   42.9200 H   0  0  0  0  0  0  0  0  0  0  0  0
   37.1150   29.6290   43.7860 H   0  0  0  0  0  0  0  0  0  0  0  0
   35.5760   29.1630   41.9330 H   0  0  0  0  0  0  0  0  0  0  0  0
   39.6870   25.2630   42.6960 C   0  0  0  0  0  0  0  0  0  0  0  0
   38.9820   26.4510   42.9520 C   0  0  0  0  0  0  0  0  0  0  0  0
   37.6250   26.4270   42.6720 C   0  0  0  0  0  0  0  0  0  0  0  0
   37.0490   25.3080   42.1810 N   0  0  0  0  0  0  0  0  0  0  0  0
   37.7550   24.1650   41.9410 C   0  0  0  0  0  0  0  0  0  0  0  0
   39.0760   24.1610   42.2050 N   0  0  0  0  0  0  0  0  0  0  0  0
   40.7530   25.2490   42.9050 H   0  0  0  0  0  0  0  0  0  0  0  0
   39.4540   27.3410   43.3450 H   0  0  0  0  0  0  0  0  0  0  0  0
   37.3040   23.2650   41.5500 H   0  0  0  0  0  0  0  0  0  0  0  0
   37.0610   28.5550   40.5400 N   0  0  2  0  0  0  0  0  0  0  0  0
   37.4190   29.7270   39.8510 C   0  0  0  0  0  2  0  0  0  0  0  0
   36.3610   29.9720   38.7760 C   0  0  0  0  0  2  0  0  0  0  0  0
   35.2940   28.9560   39.1120 C   0  0  0  0  0  2  0  0  0  0  0  0
   36.1510   27.8090   39.6630 C   0  0  0  0  0  3  0  0  0  0  0  0
   36.7060   27.4160   38.7940 H   0  0  0  0  0  0  0  0  0  0  0  0
  1  2  1  0  0  0  0
  1  4  1  1  0  0  0
  2  6  1  0  0  0  0
  3  7  1  1  0  0  0
  3  1  1  0  0  0  0
  3  2  1  0  0  0  0
  5  2  1  0  0  0  0
  8 14  1  0  0  0  0
  8  9  1  0  0  0  0
  9 15  1  0  0  0  0
 10  1  1  0  0  0  0
 10  9  2  0  0  0  0
 11 10  1  0  0  0  0
 12 11  2  0  0  0  0
 12 13  1  0  0  0  0
 13  8  2  0  0  0  0
 16 12  1  0  0  0  0
 17 18  1  6  0  0  0
 17  3  1  0  0  0  0
 19 20  1  0  0  0  0
 19 18  1  0  0  0  0
 20 21  1  0  0  0  0
 21 17  1  0  0  0  0
 22 21  1  0  0  0  0
M  END
>  <minimizedAffinity>
-4.03571653

$$$$

 OpenBabel03252501023D

 22 24  0  0  1  0  0  0  0  0999 V2000
   36.2930   30.6470   41.1000 C   0  0  1  0  0  0  0  0  0  0  0  0
   37.1650   31.7520   40.5510 C   0  0  0  0  0  0  0  0  0  0  0  0
   36.4110   30.7600   39.6510 C   0  0  1  0  0  0  0  0  0  0  0  0
   35.3870   30.9870   41.6650 H   0  0  0  0  0  0  0  0  0  0  0  0
   38.2270   31.6950   40.7120 H   0  0  0  0  0  0  0  0  0  0  0  0
   36.7040   32.7690   40.6240 H   0  0  0  0  0  0  0  0  0  0  0  0
   35.4820   31.2200   39.1640 H   0  0  0  0  0  0  0  0  0  0  0  0
   38.9390   28.7340   42.9870 C   0  0  0  0  0  0  0  0  0  0  0  0
   38.3300   29.8100   42.3200 C   0  0  0  0  0  0  0  0  0  0  0  0
   37.0600   29.5740   41.8160 C   0  0  0  0  0  0  0  0  0  0  0  0
   36.4750   28.3680   41.9770 N   0  0  0  0  0  0  0  0  0  0  0  0
   37.0870   27.3370   42.6300 C   0  0  0  0  0  0  0  0  0  0  0  0
   38.3210   27.5400   43.1290 N   0  0  0  0  0  0  0  0  0  0  0  0
   39.9350   28.8860   43.3930 H   0  0  0  0  0  0  0  0  0  0  0  0
   38.8090   30.7710   42.1970 H   0  0  0  0  0  0  0  0  0  0  0  0
   36.6280   26.3690   42.7650 H   0  0  0  0  0  0  0  0  0  0  0  0
   37.1190   29.9240   38.7720 N   0  0  2  0  0  0  0  0  0  0  0  0
   37.6960   30.4280   37.5930 C   0  0  0  0  0  2  0  0  0  0  0  0
   36.8730   29.9090   36.4170 C   0  0  0  0  0  2  0  0  0  0  0  0
   35.6770   29.2770   37.0920 C   0  0  0  0  0  2  0  0  0  0  0  0
   36.3180   28.7580   38.3860 C   0  0  0  0  0  3  0  0  0  0  0  0
   36.9810   27.9340   38.0720 H   0  0  0  0  0  0  0  0  0  0  0  0
  1  4  1  1  0  0  0
  1 10  1  0  0  0  0
  2  6  1  0  0  0  0
  2  5  1  0  0  0  0
  2  1  1  0  0  0  0
  3  7  1  6  0  0  0
  3  2  1  0  0  0  0
  3  1  1  0  0  0  0
  8 13  1  0  0  0  0
  8 14  1  0  0  0  0
  9  8  2  0  0  0  0
 10 11  2  0  0  0  0
 10  9  1  0  0  0  0
 11 12  1  0  0  0  0
 12 16  1  0  0  0  0
 12 13  2  0  0  0  0
 15  9  1  0  0  0  0
 17 18  1  6  0  0  0
 17  3  1  0  0  0  0
 19 20  1  0  0  0  0
 19 18  1  0  0  0  0
 20 21  1  0  0  0  0
 21 17  1  0  0  0  0
 22 21  1  0  0  0  0
M  END
>  <minimizedAffinity>
-4.02786398

$$$$

 OpenBabel03252501023D

 22 24  0  0  1  0  0  0  0  0999 V2000
   39.2270   29.9630   42.6380 C   0  0  1  0  0  0  0  0  0  0  0  0
   40.3250   29.9380   41.6010 C   0  0  0  0  0  0  0  0  0  0  0  0
   39.0810   30.8310   41.4760 C   0  0  1  0  0  0  0  0  0  0  0  0
   39.5300   30.3440   43.6480 H   0  0  0  0  0  0  0  0  0  0  0  0
   40.4580   29.0450   41.0160 H   0  0  0  0  0  0  0  0  0  0  0  0
   41.2590   30.4690   41.9180 H   0  0  0  0  0  0  0  0  0  0  0  0
   39.2990   31.9310   41.7120 H   0  0  0  0  0  0  0  0  0  0  0  0
   36.6150   27.3640   43.4390 C   0  0  0  0  0  0  0  0  0  0  0  0
   37.2800   28.6010   43.4700 C   0  0  0  0  0  0  0  0  0  0  0  0
   38.4340   28.6910   42.7070 C   0  0  0  0  0  0  0  0  0  0  0  0
   38.8620   27.6300   41.9880 N   0  0  0  0  0  0  0  0  0  0  0  0
   38.1980   26.4380   41.9740 C   0  0  0  0  0  0  0  0  0  0  0  0
   37.0740   26.3240   42.7070 N   0  0  0  0  0  0  0  0  0  0  0  0
   35.7070   27.2610   44.0270 H   0  0  0  0  0  0  0  0  0  0  0  0
   36.9280   29.4430   44.0490 H   0  0  0  0  0  0  0  0  0  0  0  0
   38.5310   25.5840   41.4030 H   0  0  0  0  0  0  0  0  0  0  0  0
   38.2080   30.6790   40.3860 N   0  0  2  0  0  0  0  0  0  0  0  0
   38.6170   30.9880   39.0760 C   0  0  0  0  0  2  0  0  0  0  0  0
   37.9010   32.2700   38.6580 C   0  0  0  0  0  2  0  0  0  0  0  0
   37.2590   32.7350   39.9450 C   0  0  0  0  0  2  0  0  0  0  0  0
   36.9450   31.3900   40.6130 C   0  0  0  0  0  3  0  0  0  0  0  0
   36.1460   30.9390   40.0000 H   0  0  0  0  0  0  0  0  0  0  0  0
  1 10  1  0  0  0  0
  1  4  1  1  0  0  0
  2  6  1  0  0  0  0
  2  1  1  0  0  0  0
  3  2  1  0  0  0  0
  3  7  1  1  0  0  0
  3  1  1  0  0  0  0
  5  2  1  0  0  0  0
  8  9  1  0  0  0  0
  8 14  1  0  0  0  0
  9 15  1  0  0  0  0
 10  9  2  0  0  0  0
 11 10  1  0  0  0  0
 12 11  2  0  0  0  0
 12 13  1  0  0  0  0
 13  8  2  0  0  0  0
 16 12  1  0  0  0  0
 17 18  1  6  0  0  0
 17 21  1  0  0  0  0
 17  3  1  0  0  0  0
 19 18  1  0  0  0  0
 19 20  1  0  0  0  0
 20 21  1  0  0  0  0
 22 21  1  0  0  0  0
M  END
>  <minimizedAffinity>
-4.02252197

$$$$

 OpenBabel03252501023D

 22 24  0  0  1  0  0  0  0  0999 V2000
   39.2510   30.1320   39.8800 C   0  0  1  0  0  0  0  0  0  0  0  0
   40.2830   29.8490   40.9450 C   0  0  0  0  0  0  0  0  0  0  0  0
   38.8700   29.2470   40.9730 C   0  0  1  0  0  0  0  0  0  0  0  0
   39.5050   29.7580   38.8540 H   0  0  0  0  0  0  0  0  0  0  0  0
   40.5830   30.6520   41.5960 H   0  0  0  0  0  0  0  0  0  0  0  0
   41.0910   29.1460   40.6170 H   0  0  0  0  0  0  0  0  0  0  0  0
   38.8520   28.1430   40.6660 H   0  0  0  0  0  0  0  0  0  0  0  0
   37.2290   33.2630   39.3020 C   0  0  0  0  0  0  0  0  0  0  0  0
   37.5970   31.9100   39.2130 C   0  0  0  0  0  0  0  0  0  0  0  0
   38.7590   31.5500   39.8800 C   0  0  0  0  0  0  0  0  0  0  0  0
   39.4680   32.4740   40.5640 N   0  0  0  0  0  0  0  0  0  0  0  0
   39.0890   33.7830   40.6360 C   0  0  0  0  0  0  0  0  0  0  0  0
   37.9650   34.1590   39.9970 N   0  0  0  0  0  0  0  0  0  0  0  0
   36.3240   33.5770   38.7910 H   0  0  0  0  0  0  0  0  0  0  0  0
   37.0220   31.1790   38.6630 H   0  0  0  0  0  0  0  0  0  0  0  0
   39.6490   34.5290   41.1800 H   0  0  0  0  0  0  0  0  0  0  0  0
   38.0070   29.5180   42.0470 N   0  0  2  0  0  0  0  0  0  0  0  0
   38.2210   28.9510   43.3160 C   0  0  0  0  0  2  0  0  0  0  0  0
   37.1410   27.8960   43.5400 C   0  0  0  0  0  2  0  0  0  0  0  0
   36.4790   27.7950   42.1840 C   0  0  0  0  0  2  0  0  0  0  0  0
   36.6110   29.2410   41.6910 C   0  0  0  0  0  3  0  0  0  0  0  0
   35.9350   29.8310   42.3340 H   0  0  0  0  0  0  0  0  0  0  0  0
  1  4  1  6  0  0  0
  1 10  1  0  0  0  0
  1  2  1  0  0  0  0
  1  3  1  0  0  0  0
  2  3  1  0  0  0  0
  2  5  1  0  0  0  0
  3  7  1  6  0  0  0
  3 17  1  0  0  0  0
  6  2  1  0  0  0  0
  8 13  1  0  0  0  0
  9  8  2  0  0  0  0
  9 10  1  0  0  0  0
 10 11  2  0  0  0  0
 11 12  1  0  0  0  0
 12 16  1  0  0  0  0
 13 12  2  0  0  0  0
 14  8  1  0  0  0  0
 15  9  1  0  0  0  0
 17 18  1  1  0  0  0
 18 19  1  0  0  0  0
 20 19  1  0  0  0  0
 21 17  1  0  0  0  0
 21 20  1  0  0  0  0
 21 22  1  0  0  0  0
M  END
>  <minimizedAffinity>
-4.01716852

$$$$
