
 OpenBabel03252509353D

 41 43  0  0  1  0  0  0  0  0999 V2000
   44.4030   35.5450   44.1140 O   0  0  0  0  0  0  0  0  0  0  0  0
   45.2750   34.3350   44.3830 P   0  0  1  0  0  0  0  0  0  0  0  0
   44.6340   32.9430   43.6590 O   0  0  0  0  0  0  0  0  0  0  0  0
   44.2970   33.2450   42.7710 H   0  0  0  0  0  0  0  0  0  0  0  0
   46.7950   34.6490   43.7670 O   0  0  0  0  0  0  0  0  0  0  0  0
   46.9950   33.9010   42.6030 C   0  0  1  0  0  0  0  0  0  0  0  0
   46.4670   34.6730   41.3900 C   0  0  0  0  0  0  0  0  0  0  0  0
   47.0510   33.8630   40.2640 C   0  0  0  0  0  0  0  0  0  0  0  0
   48.3070   33.2210   40.8150 C   0  0  0  0  0  0  0  0  0  0  0  0
   48.4370   33.7570   42.2260 C   0  0  1  0  0  0  0  0  0  0  0  0
   46.4820   32.9420   42.6140 H   0  0  0  0  0  0  0  0  0  0  0  0
   46.7190   35.7270   41.3930 H   0  0  0  0  0  0  0  0  0  0  0  0
   45.3500   34.5820   41.3710 H   0  0  0  0  0  0  0  0  0  0  0  0
   47.3930   34.5350   39.4440 H   0  0  0  0  0  0  0  0  0  0  0  0
   46.3100   33.1220   39.9180 H   0  0  0  0  0  0  0  0  0  0  0  0
   49.2070   33.4190   40.2060 H   0  0  0  0  0  0  0  0  0  0  0  0
   48.0810   32.1320   40.9170 H   0  0  0  0  0  0  0  0  0  0  0  0
   48.9030   32.9950   42.9030 H   0  0  0  0  0  0  0  0  0  0  0  0
   49.1850   35.0660   42.2670 C   0  0  0  0  0  0  0  0  0  0  0  0
   48.5250   35.9220   42.5950 H   0  0  0  0  0  0  0  0  0  0  0  0
   49.5540   35.3310   41.2540 H   0  0  0  0  0  0  0  0  0  0  0  0
   50.2160   35.0440   43.1790 O   0  0  0  0  0  0  0  0  0  0  0  0
   50.8000   34.2670   43.1580 H   0  0  0  0  0  0  0  0  0  0  0  0
   45.3510   34.0230   46.0200 O   0  0  0  0  0  0  0  0  0  0  0  0
   46.3320   33.1110   46.2540 C   0  0  0  0  0  0  0  0  0  0  0  0
   46.8160   32.6420   45.4040 H   0  0  0  0  0  0  0  0  0  0  0  0
   47.1570   33.6850   46.7740 H   0  0  0  0  0  0  0  0  0  0  0  0
   45.3160   31.4490   49.4210 C   0  0  0  0  0  0  0  0  0  0  0  0
   45.6920   32.4510   48.5250 C   0  0  0  0  0  0  0  0  0  0  0  0
   45.9310   32.0660   47.2090 C   0  0  0  0  0  0  0  0  0  0  0  0
   45.7880   30.7530   46.8680 N   0  0  0  0  0  0  0  0  0  0  0  0
   45.4240   29.8040   47.7550 C   0  0  0  0  0  0  0  0  0  0  0  0
   45.1920   30.1540   49.0130 N   0  0  0  0  0  0  0  0  0  0  0  0
   45.1290   31.7340   50.4400 H   0  0  0  0  0  0  0  0  0  0  0  0
   45.7810   33.4700   48.8850 H   0  0  0  0  0  0  0  0  0  0  0  0
   45.2900   28.4490   47.3440 N   0  0  0  0  0  0  0  0  0  0  0  0
   44.6420   27.3480   48.0290 C   0  0  0  0  0  2  0  0  0  0  0  0
   44.1570   26.4160   46.9210 C   0  0  0  0  0  2  0  0  0  0  0  0
   44.5990   27.0890   45.6330 C   0  0  0  0  0  2  0  0  0  0  0  0
   45.7970   27.8830   46.1100 C   0  0  0  0  0  3  0  0  0  0  0  0
   46.0780   28.6570   45.3660 H   0  0  0  0  0  0  0  0  0  0  0  0
  2  1  2  6  0  0  0
  2 24  1  0  0  0  0
  3  2  1  0  0  0  0
  4  3  1  0  0  0  0
  5  2  1  0  0  0  0
  6 11  1  1  0  0  0
  6  5  1  0  0  0  0
  7 12  1  0  0  0  0
  7  6  1  0  0  0  0
  8  9  1  0  0  0  0
  8  7  1  0  0  0  0
  9 17  1  0  0  0  0
  9 10  1  0  0  0  0
 10 19  1  0  0  0  0
 10  6  1  0  0  0  0
 10 18  1  1  0  0  0
 13  7  1  0  0  0  0
 14  8  1  0  0  0  0
 15  8  1  0  0  0  0
 16  9  1  0  0  0  0
 19 20  1  0  0  0  0
 19 22  1  0  0  0  0
 21 19  1  0  0  0  0
 23 22  1  0  0  0  0
 24 25  1  0  0  0  0
 25 27  1  0  0  0  0
 25 30  1  0  0  0  0
 26 25  1  0  0  0  0
 28 34  1  0  0  0  0
 29 35  1  0  0  0  0
 29 28  2  0  0  0  0
 30 29  1  0  0  0  0
 31 30  2  0  0  0  0
 31 32  1  0  0  0  0
 32 33  2  0  0  0  0
 33 28  1  0  0  0  0
 36 32  1  0  0  0  0
 36 37  1  0  0  0  0
 38 37  1  0  0  0  0
 39 40  1  0  0  0  0
 39 38  1  0  0  0  0
 40 36  1  0  0  0  0
 41 40  1  0  0  0  0
M  END
>  <minimizedAffinity>
-6.12073708

>  <minimizedRMSD>
1.05972469

$$$$
