
 OpenBabel03252509353D

 41 43  0  0  1  0  0  0  0  0999 V2000
   44.5260   35.4720   44.0980 O   0  0  0  0  0  0  0  0  0  0  0  0
   45.3850   34.2530   44.3700 P   0  0  1  0  0  0  0  0  0  0  0  0
   44.7080   32.8590   43.6830 O   0  0  0  0  0  0  0  0  0  0  0  0
   44.3580   33.1520   42.7960 H   0  0  0  0  0  0  0  0  0  0  0  0
   46.8970   34.5320   43.7190 O   0  0  0  0  0  0  0  0  0  0  0  0
   47.0260   33.8360   42.5130 C   0  0  1  0  0  0  0  0  0  0  0  0
   46.4430   34.6660   41.3650 C   0  0  0  0  0  0  0  0  0  0  0  0
   46.9570   33.9030   40.1750 C   0  0  0  0  0  0  0  0  0  0  0  0
   48.2340   33.2260   40.6280 C   0  0  0  0  0  0  0  0  0  0  0  0
   48.4450   33.6970   42.0530 C   0  0  1  0  0  0  0  0  0  0  0  0
   46.5040   32.8820   42.5100 H   0  0  0  0  0  0  0  0  0  0  0  0
   46.7070   35.7160   41.4020 H   0  0  0  0  0  0  0  0  0  0  0  0
   45.3260   34.5860   41.4030 H   0  0  0  0  0  0  0  0  0  0  0  0
   47.2620   34.6080   39.3690 H   0  0  0  0  0  0  0  0  0  0  0  0
   46.1900   33.1840   39.8370 H   0  0  0  0  0  0  0  0  0  0  0  0
   49.1020   33.4430   39.9810 H   0  0  0  0  0  0  0  0  0  0  0  0
   48.0010   32.1350   40.6950 H   0  0  0  0  0  0  0  0  0  0  0  0
   48.9370   32.9010   42.6700 H   0  0  0  0  0  0  0  0  0  0  0  0
   49.2080   34.9960   42.1120 C   0  0  0  0  0  0  0  0  0  0  0  0
   48.5210   35.8890   42.1870 H   0  0  0  0  0  0  0  0  0  0  0  0
   49.7990   35.1380   41.1830 H   0  0  0  0  0  0  0  0  0  0  0  0
   50.0130   35.0730   43.2260 O   0  0  0  0  0  0  0  0  0  0  0  0
   50.5610   34.2940   43.4240 H   0  0  0  0  0  0  0  0  0  0  0  0
   45.4890   33.9670   46.0100 O   0  0  0  0  0  0  0  0  0  0  0  0
   46.4390   33.0200   46.2370 C   0  0  0  0  0  0  0  0  0  0  0  0
   46.9170   32.5520   45.3840 H   0  0  0  0  0  0  0  0  0  0  0  0
   47.2750   33.5580   46.7770 H   0  0  0  0  0  0  0  0  0  0  0  0
   45.1150   31.3660   49.2930 C   0  0  0  0  0  0  0  0  0  0  0  0
   45.5290   32.3710   48.4180 C   0  0  0  0  0  0  0  0  0  0  0  0
   45.9940   31.9710   47.1680 C   0  0  0  0  0  0  0  0  0  0  0  0
   46.0210   30.6410   46.8680 N   0  0  0  0  0  0  0  0  0  0  0  0
   45.6150   29.6890   47.7340 C   0  0  0  0  0  0  0  0  0  0  0  0
   45.1680   30.0530   48.9280 N   0  0  0  0  0  0  0  0  0  0  0  0
   44.7530   31.6620   50.2590 H   0  0  0  0  0  0  0  0  0  0  0  0
   45.4720   33.4050   48.7420 H   0  0  0  0  0  0  0  0  0  0  0  0
   45.6650   28.3160   47.3660 N   0  0  0  0  0  0  0  0  0  0  0  0
   46.7330   27.5860   46.7120 C   0  0  0  0  0  2  0  0  0  0  0  0
   46.6030   26.1480   47.2140 C   0  0  0  0  0  2  0  0  0  0  0  0
   45.4060   26.1770   48.1490 C   0  0  0  0  0  2  0  0  0  0  0  0
   44.6170   27.3390   47.5860 C   0  0  0  0  0  3  0  0  0  0  0  0
   43.8530   27.6860   48.3130 H   0  0  0  0  0  0  0  0  0  0  0  0
  2  1  2  6  0  0  0
  2 24  1  0  0  0  0
  3  2  1  0  0  0  0
  4  3  1  0  0  0  0
  5  2  1  0  0  0  0
  6 11  1  1  0  0  0
  6  5  1  0  0  0  0
  7 12  1  0  0  0  0
  7 13  1  0  0  0  0
  7  6  1  0  0  0  0
  8  9  1  0  0  0  0
  8  7  1  0  0  0  0
  9 17  1  0  0  0  0
  9 10  1  0  0  0  0
 10 19  1  0  0  0  0
 10  6  1  0  0  0  0
 10 18  1  1  0  0  0
 14  8  1  0  0  0  0
 15  8  1  0  0  0  0
 16  9  1  0  0  0  0
 19 20  1  0  0  0  0
 19 22  1  0  0  0  0
 21 19  1  0  0  0  0
 22 23  1  0  0  0  0
 24 25  1  0  0  0  0
 25 27  1  0  0  0  0
 25 30  1  0  0  0  0
 26 25  1  0  0  0  0
 28 34  1  0  0  0  0
 29 35  1  0  0  0  0
 29 28  2  0  0  0  0
 30 29  1  0  0  0  0
 31 30  2  0  0  0  0
 31 32  1  0  0  0  0
 32 33  2  0  0  0  0
 33 28  1  0  0  0  0
 36 40  1  0  0  0  0
 36 32  1  0  0  0  0
 37 38  1  0  0  0  0
 37 36  1  0  0  0  0
 38 39  1  0  0  0  0
 40 39  1  0  0  0  0
 40 41  1  0  0  0  0
M  END
>  <minimizedAffinity>
-6.0121932

>  <minimizedRMSD>
1.10519338

$$$$
