
 OpenBabel03252509353D

 41 43  0  0  1  0  0  0  0  0999 V2000
   44.4320   35.5130   44.0760 O   0  0  0  0  0  0  0  0  0  0  0  0
   45.3020   34.3100   44.3840 P   0  0  1  0  0  0  0  0  0  0  0  0
   44.6730   32.9010   43.6840 O   0  0  0  0  0  0  0  0  0  0  0  0
   44.3460   33.1820   42.7850 H   0  0  0  0  0  0  0  0  0  0  0  0
   46.8290   34.6130   43.7790 O   0  0  0  0  0  0  0  0  0  0  0  0
   47.0210   33.8860   42.5990 C   0  0  1  0  0  0  0  0  0  0  0  0
   46.4750   34.6740   41.4050 C   0  0  0  0  0  0  0  0  0  0  0  0
   47.0510   33.8880   40.2600 C   0  0  0  0  0  0  0  0  0  0  0  0
   48.3180   33.2460   40.7860 C   0  0  0  0  0  0  0  0  0  0  0  0
   48.4600   33.7590   42.2040 C   0  0  1  0  0  0  0  0  0  0  0  0
   46.5150   32.9240   42.6010 H   0  0  0  0  0  0  0  0  0  0  0  0
   46.7190   35.7300   41.4240 H   0  0  0  0  0  0  0  0  0  0  0  0
   45.3580   34.5760   41.3980 H   0  0  0  0  0  0  0  0  0  0  0  0
   47.3790   34.5750   39.4480 H   0  0  0  0  0  0  0  0  0  0  0  0
   46.3110   33.1470   39.9100 H   0  0  0  0  0  0  0  0  0  0  0  0
   49.2100   33.4600   40.1700 H   0  0  0  0  0  0  0  0  0  0  0  0
   48.1000   32.1540   40.8730 H   0  0  0  0  0  0  0  0  0  0  0  0
   48.9390   32.9890   42.8640 H   0  0  0  0  0  0  0  0  0  0  0  0
   49.1990   35.0730   42.2590 C   0  0  0  0  0  0  0  0  0  0  0  0
   48.5330   35.9210   42.5930 H   0  0  0  0  0  0  0  0  0  0  0  0
   49.5680   35.3490   41.2480 H   0  0  0  0  0  0  0  0  0  0  0  0
   50.2290   35.0490   43.1710 O   0  0  0  0  0  0  0  0  0  0  0  0
   50.8190   34.2760   43.1450 H   0  0  0  0  0  0  0  0  0  0  0  0
   45.3590   34.0370   46.0270 O   0  0  0  0  0  0  0  0  0  0  0  0
   46.3280   33.1190   46.2930 C   0  0  0  0  0  0  0  0  0  0  0  0
   46.8440   32.6570   45.4590 H   0  0  0  0  0  0  0  0  0  0  0  0
   47.1320   33.6850   46.8520 H   0  0  0  0  0  0  0  0  0  0  0  0
   45.3420   31.3910   49.4340 C   0  0  0  0  0  0  0  0  0  0  0  0
   45.7590   32.4000   48.5650 C   0  0  0  0  0  0  0  0  0  0  0  0
   45.8840   32.0660   47.2200 C   0  0  0  0  0  0  0  0  0  0  0  0
   45.5970   30.7920   46.8260 N   0  0  0  0  0  0  0  0  0  0  0  0
   45.1960   29.8340   47.6880 C   0  0  0  0  0  0  0  0  0  0  0  0
   45.0720   30.1370   48.9730 N   0  0  0  0  0  0  0  0  0  0  0  0
   45.2420   31.6370   50.4750 H   0  0  0  0  0  0  0  0  0  0  0  0
   45.9670   33.3860   48.9670 H   0  0  0  0  0  0  0  0  0  0  0  0
   44.9090   28.5220   47.2210 N   0  0  0  0  0  0  0  0  0  0  0  0
   44.6970   28.0630   45.8630 C   0  0  0  0  0  2  0  0  0  0  0  0
   45.1590   26.6080   45.8540 C   0  0  0  0  0  2  0  0  0  0  0  0
   45.6100   26.3390   47.2810 C   0  0  0  0  0  2  0  0  0  0  0  0
   44.7700   27.3390   48.0480 C   0  0  0  0  0  3  0  0  0  0  0  0
   45.1690   27.4830   49.0730 H   0  0  0  0  0  0  0  0  0  0  0  0
  2  1  2  6  0  0  0
  2 24  1  0  0  0  0
  3  2  1  0  0  0  0
  4  3  1  0  0  0  0
  5  2  1  0  0  0  0
  6 11  1  1  0  0  0
  6  5  1  0  0  0  0
  7 12  1  0  0  0  0
  7  6  1  0  0  0  0
  8  9  1  0  0  0  0
  8  7  1  0  0  0  0
  9 17  1  0  0  0  0
  9 10  1  0  0  0  0
 10 19  1  0  0  0  0
 10  6  1  0  0  0  0
 10 18  1  1  0  0  0
 13  7  1  0  0  0  0
 14  8  1  0  0  0  0
 15  8  1  0  0  0  0
 16  9  1  0  0  0  0
 19 20  1  0  0  0  0
 19 22  1  0  0  0  0
 21 19  1  0  0  0  0
 23 22  1  0  0  0  0
 24 25  1  0  0  0  0
 25 27  1  0  0  0  0
 25 30  1  0  0  0  0
 26 25  1  0  0  0  0
 28 34  1  0  0  0  0
 29 35  1  0  0  0  0
 29 28  2  0  0  0  0
 30 29  1  0  0  0  0
 31 30  2  0  0  0  0
 31 32  1  0  0  0  0
 32 33  2  0  0  0  0
 33 28  1  0  0  0  0
 36 32  1  0  0  0  0
 36 40  1  0  0  0  0
 37 36  1  0  0  0  0
 38 37  1  0  0  0  0
 38 39  1  0  0  0  0
 39 40  1  0  0  0  0
 40 41  1  0  0  0  0
M  END
>  <minimizedAffinity>
-6.14596367

>  <minimizedRMSD>
1.05301476

$$$$
