
 OpenBabel03242521103D

 16 17  0  0  1  0  0  0  0  0999 V2000
   37.0190   32.1510   39.6070 C   0  0  0  0  0  0  0  0  0  0  0  0
   37.6140   33.4460   39.6760 C   0  0  0  0  0  0  0  0  0  0  0  0
   38.7210   33.6210   40.5270 C   0  0  0  0  0  0  0  0  0  0  0  0
   39.1710   32.5610   41.2410 N   0  0  0  0  0  0  0  0  0  0  0  0
   38.5750   31.3330   41.1500 C   0  0  0  0  0  0  0  0  0  0  0  0
   37.5170   31.1440   40.3430 N   0  0  0  0  0  0  0  0  0  0  0  0
   36.1680   31.9470   38.9710 H   0  0  0  0  0  0  0  0  0  0  0  0
   37.1950   34.2470   39.0710 H   0  0  0  0  0  0  0  0  0  0  0  0
   39.1770   34.6030   40.5840 H   0  0  0  0  0  0  0  0  0  0  0  0
   39.3740   30.1390   42.1970 S   0  0  0  0  0  0  0  0  0  0  0  0
   36.2350   29.4530   43.6250 H   0  0  0  0  0  0  0  0  0  0  0  0
   36.8580   29.3890   42.7850 N   0  0  0  0  0  0  0  0  0  0  0  0
   36.5240   28.1330   42.0960 C   0  0  0  0  0  2  0  0  0  0  0  0
   37.1660   27.1320   43.0660 C   0  0  0  0  0  2  0  0  0  0  0  0
   38.5680   27.7530   43.1210 C   0  0  0  0  0  2  0  0  0  0  0  0
   38.2270   29.2220   43.2200 C   0  0  1  0  0  3  0  0  0  0  0  0
  1  2  2  0  0  0  0
  1  6  1  0  0  0  0
  2  3  1  0  0  0  0
  3  9  1  0  0  0  0
  3  4  2  0  0  0  0
  5  4  1  0  0  0  0
  5 10  1  0  0  0  0
  6  5  2  0  0  0  0
  7  1  1  0  0  0  0
  8  2  1  0  0  0  0
 12 16  1  0  0  0  0
 12 11  1  0  0  0  0
 13 12  1  0  0  0  0
 13 14  1  0  0  0  0
 14 15  1  0  0  0  0
 15 16  1  0  0  0  0
 16 10  1  6  0  0  0
M  END
>  <minimizedAffinity>
-4.19931746

$$$$

 OpenBabel03242521103D

 16 17  0  0  1  0  0  0  0  0999 V2000
   39.1440   27.2610   42.2830 C   0  0  0  0  0  0  0  0  0  0  0  0
   38.6240   27.5390   43.5820 C   0  0  0  0  0  0  0  0  0  0  0  0
   37.3100   28.0310   43.6790 C   0  0  0  0  0  0  0  0  0  0  0  0
   36.5980   28.2200   42.5410 N   0  0  0  0  0  0  0  0  0  0  0  0
   37.1280   27.9430   41.3110 C   0  0  0  0  0  0  0  0  0  0  0  0
   38.3820   27.4720   41.1970 N   0  0  0  0  0  0  0  0  0  0  0  0
   40.1450   26.8790   42.1390 H   0  0  0  0  0  0  0  0  0  0  0  0
   39.2590   27.3600   44.4480 H   0  0  0  0  0  0  0  0  0  0  0  0
   36.9100   28.2450   44.6640 H   0  0  0  0  0  0  0  0  0  0  0  0
   35.9710   28.2890   40.0070 S   0  0  0  0  0  0  0  0  0  0  0  0
   35.0440   31.4920   41.1180 H   0  0  0  0  0  0  0  0  0  0  0  0
   35.7910   30.7620   41.0510 N   0  0  0  0  0  0  0  0  0  0  0  0
   37.0750   31.4690   40.9160 C   0  0  0  0  0  2  0  0  0  0  0  0
   36.9470   31.9530   39.4650 C   0  0  0  0  0  2  0  0  0  0  0  0
   36.6200   30.6020   38.8150 C   0  0  0  0  0  2  0  0  0  0  0  0
   35.6350   30.0360   39.8100 C   0  0  1  0  0  3  0  0  0  0  0  0
  1  2  1  0  0  0  0
  2  3  2  0  0  0  0
  2  8  1  0  0  0  0
  3  9  1  0  0  0  0
  4  3  1  0  0  0  0
  5  4  2  0  0  0  0
  6  5  1  0  0  0  0
  6  1  2  0  0  0  0
  7  1  1  0  0  0  0
 10  5  1  0  0  0  0
 12 11  1  0  0  0  0
 13 12  1  0  0  0  0
 14 13  1  0  0  0  0
 15 14  1  0  0  0  0
 15 16  1  0  0  0  0
 16 10  1  1  0  0  0
 16 12  1  0  0  0  0
M  END
>  <minimizedAffinity>
-3.98596621

$$$$

 OpenBabel03242521103D

 16 17  0  0  1  0  0  0  0  0999 V2000
   37.8930   24.6090   42.1930 C   0  0  0  0  0  0  0  0  0  0  0  0
   39.1790   24.4370   42.7860 C   0  0  0  0  0  0  0  0  0  0  0  0
   39.8010   25.5630   43.3540 C   0  0  0  0  0  0  0  0  0  0  0  0
   39.1580   26.7560   43.3140 N   0  0  0  0  0  0  0  0  0  0  0  0
   37.9250   26.8840   42.7360 C   0  0  0  0  0  0  0  0  0  0  0  0
   37.3120   25.8200   42.1880 N   0  0  0  0  0  0  0  0  0  0  0  0
   37.3580   23.7840   41.7410 H   0  0  0  0  0  0  0  0  0  0  0  0
   39.6300   23.4470   42.7790 H   0  0  0  0  0  0  0  0  0  0  0  0
   40.7790   25.4400   43.8060 H   0  0  0  0  0  0  0  0  0  0  0  0
   37.3300   28.5560   42.8280 S   0  0  0  0  0  0  0  0  0  0  0  0
   34.9280   30.4200   41.0620 H   0  0  0  0  0  0  0  0  0  0  0  0
   35.8780   30.3930   41.5030 N   0  0  0  0  0  0  0  0  0  0  0  0
   36.7550   31.2480   40.6870 C   0  0  0  0  0  2  0  0  0  0  0  0
   36.9290   30.3400   39.4620 C   0  0  0  0  0  2  0  0  0  0  0  0
   37.3810   29.0710   40.1960 C   0  0  0  0  0  2  0  0  0  0  0  0
   36.4270   29.0620   41.3680 C   0  0  1  0  0  3  0  0  0  0  0  0
  1  2  1  0  0  0  0
  2  3  2  0  0  0  0
  3  9  1  0  0  0  0
  4  3  1  0  0  0  0
  5 10  1  0  0  0  0
  5  4  2  0  0  0  0
  6  1  2  0  0  0  0
  6  5  1  0  0  0  0
  7  1  1  0  0  0  0
  8  2  1  0  0  0  0
 11 12  1  0  0  0  0
 13 12  1  0  0  0  0
 14 15  1  0  0  0  0
 14 13  1  0  0  0  0
 15 16  1  0  0  0  0
 16 12  1  0  0  0  0
 16 10  1  1  0  0  0
M  END
>  <minimizedAffinity>
-3.91649795

$$$$

 OpenBabel03242521103D

 16 17  0  0  1  0  0  0  0  0999 V2000
   36.7920   29.8960   37.2320 C   0  0  0  0  0  0  0  0  0  0  0  0
   35.5890   29.2030   36.9060 C   0  0  0  0  0  0  0  0  0  0  0  0
   34.6900   28.9100   37.9470 C   0  0  0  0  0  0  0  0  0  0  0  0
   35.0040   29.2940   39.2090 N   0  0  0  0  0  0  0  0  0  0  0  0
   36.1680   29.9580   39.4860 C   0  0  0  0  0  0  0  0  0  0  0  0
   37.0400   30.2470   38.5050 N   0  0  0  0  0  0  0  0  0  0  0  0
   37.5240   30.1540   36.4790 H   0  0  0  0  0  0  0  0  0  0  0  0
   35.4090   28.9280   35.8680 H   0  0  0  0  0  0  0  0  0  0  0  0
   33.7740   28.3830   37.7060 H   0  0  0  0  0  0  0  0  0  0  0  0
   36.3120   30.3310   41.2180 S   0  0  0  0  0  0  0  0  0  0  0  0
   38.0600   29.1330   44.0230 H   0  0  0  0  0  0  0  0  0  0  0  0
   37.1830   29.1070   43.4490 N   0  0  0  0  0  0  0  0  0  0  0  0
   36.6660   27.7310   43.5140 C   0  0  0  0  0  2  0  0  0  0  0  0
   37.6840   27.0340   42.6020 C   0  0  0  0  0  2  0  0  0  0  0  0
   37.5540   27.9600   41.3850 C   0  0  0  0  0  2  0  0  0  0  0  0
   37.5200   29.3120   42.0580 C   0  0  1  0  0  3  0  0  0  0  0  0
  1  6  1  0  0  0  0
  2  1  2  0  0  0  0
  2  3  1  0  0  0  0
  3  4  2  0  0  0  0
  4  5  1  0  0  0  0
  5 10  1  0  0  0  0
  6  5  2  0  0  0  0
  7  1  1  0  0  0  0
  8  2  1  0  0  0  0
  9  3  1  0  0  0  0
 12 13  1  0  0  0  0
 12 11  1  0  0  0  0
 14 13  1  0  0  0  0
 15 16  1  0  0  0  0
 15 14  1  0  0  0  0
 16 10  1  6  0  0  0
 16 12  1  0  0  0  0
M  END
>  <minimizedAffinity>
-3.60961318

$$$$

 OpenBabel03242521103D

 16 17  0  0  1  0  0  0  0  0999 V2000
   39.5560   24.4090   40.0980 C   0  0  0  0  0  0  0  0  0  0  0  0
   38.6040   23.3630   40.2810 C   0  0  0  0  0  0  0  0  0  0  0  0
   37.6290   23.5230   41.2820 C   0  0  0  0  0  0  0  0  0  0  0  0
   37.6360   24.6560   42.0270 N   0  0  0  0  0  0  0  0  0  0  0  0
   38.5660   25.6390   41.8230 C   0  0  0  0  0  0  0  0  0  0  0  0
   39.5060   25.5050   40.8720 N   0  0  0  0  0  0  0  0  0  0  0  0
   40.3300   24.3500   39.3450 H   0  0  0  0  0  0  0  0  0  0  0  0
   38.6640   22.4830   39.6430 H   0  0  0  0  0  0  0  0  0  0  0  0
   36.9020   22.7310   41.4270 H   0  0  0  0  0  0  0  0  0  0  0  0
   38.3330   27.0000   42.9430 S   0  0  0  0  0  0  0  0  0  0  0  0
   36.0430   29.6200   43.4450 H   0  0  0  0  0  0  0  0  0  0  0  0
   36.9390   29.3000   43.0060 N   0  0  0  0  0  0  0  0  0  0  0  0
   37.0720   30.0150   41.7270 C   0  0  0  0  0  2  0  0  0  0  0  0
   36.0120   29.2660   40.9070 C   0  0  0  0  0  2  0  0  0  0  0  0
   36.5070   27.8380   41.1660 C   0  0  0  0  0  2  0  0  0  0  0  0
   36.8190   27.9060   42.6430 C   0  0  1  0  0  3  0  0  0  0  0  0
  1  2  2  0  0  0  0
  1  6  1  0  0  0  0
  2  3  1  0  0  0  0
  3  9  1  0  0  0  0
  3  4  2  0  0  0  0
  5  4  1  0  0  0  0
  5 10  1  0  0  0  0
  6  5  2  0  0  0  0
  7  1  1  0  0  0  0
  8  2  1  0  0  0  0
 12 11  1  0  0  0  0
 13 12  1  0  0  0  0
 14 15  1  0  0  0  0
 14 13  1  0  0  0  0
 15 16  1  0  0  0  0
 16 10  1  6  0  0  0
 16 12  1  0  0  0  0
M  END
>  <minimizedAffinity>
-3.58285832

$$$$

 OpenBabel03242521103D

 16 17  0  0  1  0  0  0  0  0999 V2000
   37.2760   28.1130   43.6740 C   0  0  0  0  0  0  0  0  0  0  0  0
   37.2110   27.1340   42.6370 C   0  0  0  0  0  0  0  0  0  0  0  0
   37.9400   27.3700   41.4580 C   0  0  0  0  0  0  0  0  0  0  0  0
   38.6670   28.5100   41.3550 N   0  0  0  0  0  0  0  0  0  0  0  0
   38.7060   29.4270   42.3700 C   0  0  0  0  0  0  0  0  0  0  0  0
   38.0170   29.2200   43.5050 N   0  0  0  0  0  0  0  0  0  0  0  0
   36.7420   27.9920   44.6060 H   0  0  0  0  0  0  0  0  0  0  0  0
   36.6050   26.2440   42.7960 H   0  0  0  0  0  0  0  0  0  0  0  0
   37.8940   26.6310   40.6660 H   0  0  0  0  0  0  0  0  0  0  0  0
   39.7330   30.8170   41.9560 S   0  0  0  0  0  0  0  0  0  0  0  0
   38.3550   30.9570   38.7240 H   0  0  0  0  0  0  0  0  0  0  0  0
   38.1850   30.9120   39.7570 N   0  0  0  0  0  0  0  0  0  0  0  0
   36.9610   31.6840   40.0260 C   0  0  0  0  0  2  0  0  0  0  0  0
   37.5090   33.1050   39.8370 C   0  0  0  0  0  2  0  0  0  0  0  0
   38.7060   33.0040   40.7910 C   0  0  0  0  0  2  0  0  0  0  0  0
   39.2360   31.6330   40.4420 C   0  0  1  0  0  3  0  0  0  0  0  0
  1  7  1  0  0  0  0
  2  8  1  0  0  0  0
  2  1  2  0  0  0  0
  3  2  1  0  0  0  0
  4  3  2  0  0  0  0
  4  5  1  0  0  0  0
  5  6  2  0  0  0  0
  6  1  1  0  0  0  0
  9  3  1  0  0  0  0
 10  5  1  0  0  0  0
 11 12  1  0  0  0  0
 12 13  1  0  0  0  0
 12 16  1  0  0  0  0
 14 13  1  0  0  0  0
 14 15  1  0  0  0  0
 16 15  1  0  0  0  0
 16 10  1  1  0  0  0
M  END
>  <minimizedAffinity>
-3.50893855

$$$$

 OpenBabel03242521103D

 16 17  0  0  1  0  0  0  0  0999 V2000
   37.4690   31.2060   37.6010 C   0  0  0  0  0  0  0  0  0  0  0  0
   36.8730   30.0080   37.1060 C   0  0  0  0  0  0  0  0  0  0  0  0
   37.0170   28.8340   37.8670 C   0  0  0  0  0  0  0  0  0  0  0  0
   37.7120   28.8890   39.0290 N   0  0  0  0  0  0  0  0  0  0  0  0
   38.2700   30.0560   39.4730 C   0  0  0  0  0  0  0  0  0  0  0  0
   38.1440   31.1890   38.7610 N   0  0  0  0  0  0  0  0  0  0  0  0
   37.3930   32.1430   37.0670 H   0  0  0  0  0  0  0  0  0  0  0  0
   36.3290   30.0450   36.1640 H   0  0  0  0  0  0  0  0  0  0  0  0
   36.5670   27.9200   37.4950 H   0  0  0  0  0  0  0  0  0  0  0  0
   39.1200   29.8280   41.0180 S   0  0  0  0  0  0  0  0  0  0  0  0
   35.9860   29.8890   42.6100 H   0  0  0  0  0  0  0  0  0  0  0  0
   36.6590   29.3650   42.0010 N   0  0  0  0  0  0  0  0  0  0  0  0
   36.4880   27.9350   42.3020 C   0  0  0  0  0  2  0  0  0  0  0  0
   37.1680   27.8810   43.6770 C   0  0  0  0  0  2  0  0  0  0  0  0
   38.4980   28.5400   43.2870 C   0  0  0  0  0  2  0  0  0  0  0  0
   38.0100   29.6730   42.4140 C   0  0  1  0  0  3  0  0  0  0  0  0
  1  6  1  0  0  0  0
  2  1  2  0  0  0  0
  2  3  1  0  0  0  0
  3  4  2  0  0  0  0
  4  5  1  0  0  0  0
  5 10  1  0  0  0  0
  6  5  2  0  0  0  0
  7  1  1  0  0  0  0
  8  2  1  0  0  0  0
  9  3  1  0  0  0  0
 12 13  1  0  0  0  0
 12 16  1  0  0  0  0
 12 11  1  0  0  0  0
 13 14  1  0  0  0  0
 15 14  1  0  0  0  0
 16 10  1  6  0  0  0
 16 15  1  0  0  0  0
M  END
>  <minimizedAffinity>
-3.48872662

$$$$

 OpenBabel03242521103D

 16 17  0  0  1  0  0  0  0  0999 V2000
   38.3180   30.2630   37.9310 C   0  0  0  0  0  0  0  0  0  0  0  0
   37.8410   31.5880   37.7020 C   0  0  0  0  0  0  0  0  0  0  0  0
   37.2020   32.2540   38.7640 C   0  0  0  0  0  0  0  0  0  0  0  0
   37.0660   31.6130   39.9510 N   0  0  0  0  0  0  0  0  0  0  0  0
   37.5360   30.3420   40.1340 C   0  0  0  0  0  0  0  0  0  0  0  0
   38.1500   29.6880   39.1330 N   0  0  0  0  0  0  0  0  0  0  0  0
   38.8210   29.6960   37.1590 H   0  0  0  0  0  0  0  0  0  0  0  0
   37.9880   32.0340   36.7210 H   0  0  0  0  0  0  0  0  0  0  0  0
   36.8360   33.2610   38.5960 H   0  0  0  0  0  0  0  0  0  0  0  0
   37.2170   29.7580   41.7830 S   0  0  0  0  0  0  0  0  0  0  0  0
   35.7720   26.8930   40.3460 H   0  0  0  0  0  0  0  0  0  0  0  0
   36.6470   27.4020   40.6170 N   0  0  0  0  0  0  0  0  0  0  0  0
   37.6320   26.3820   41.0140 C   0  0  0  0  0  2  0  0  0  0  0  0
   37.0440   25.9780   42.3730 C   0  0  0  0  0  2  0  0  0  0  0  0
   36.9390   27.3790   42.9900 C   0  0  0  0  0  2  0  0  0  0  0  0
   36.3990   28.1660   41.8190 C   0  0  1  0  0  3  0  0  0  0  0  0
  1  6  1  0  0  0  0
  2  1  2  0  0  0  0
  2  3  1  0  0  0  0
  3  4  2  0  0  0  0
  4  5  1  0  0  0  0
  5 10  1  0  0  0  0
  6  5  2  0  0  0  0
  7  1  1  0  0  0  0
  8  2  1  0  0  0  0
  9  3  1  0  0  0  0
 11 12  1  0  0  0  0
 12 13  1  0  0  0  0
 12 16  1  0  0  0  0
 13 14  1  0  0  0  0
 14 15  1  0  0  0  0
 16 10  1  6  0  0  0
 16 15  1  0  0  0  0
M  END
>  <minimizedAffinity>
-3.47489071

$$$$

 OpenBabel03242521103D

 16 17  0  0  1  0  0  0  0  0999 V2000
   38.0360   28.9100   37.9950 C   0  0  0  0  0  0  0  0  0  0  0  0
   36.6970   29.3880   37.8770 C   0  0  0  0  0  0  0  0  0  0  0  0
   36.1800   30.1740   38.9230 C   0  0  0  0  0  0  0  0  0  0  0  0
   36.9700   30.4400   39.9920 N   0  0  0  0  0  0  0  0  0  0  0  0
   38.2500   29.9640   40.0720 C   0  0  0  0  0  0  0  0  0  0  0  0
   38.7630   29.2110   39.0830 N   0  0  0  0  0  0  0  0  0  0  0  0
   38.4950   28.3030   37.2260 H   0  0  0  0  0  0  0  0  0  0  0  0
   36.1270   29.1320   36.9860 H   0  0  0  0  0  0  0  0  0  0  0  0
   35.1630   30.5400   38.8390 H   0  0  0  0  0  0  0  0  0  0  0  0
   39.0420   30.4680   41.5810 S   0  0  0  0  0  0  0  0  0  0  0  0
   36.6670   29.4550   43.9680 H   0  0  0  0  0  0  0  0  0  0  0  0
   37.0410   29.3550   42.9940 N   0  0  0  0  0  0  0  0  0  0  0  0
   36.8600   27.9470   42.6060 C   0  0  0  0  0  2  0  0  0  0  0  0
   37.9650   27.3060   43.4560 C   0  0  0  0  0  2  0  0  0  0  0  0
   39.1300   28.1950   43.0040 C   0  0  0  0  0  2  0  0  0  0  0  0
   38.4720   29.5550   43.0120 C   0  0  1  0  0  3  0  0  0  0  0  0
  1  6  1  0  0  0  0
  2  1  2  0  0  0  0
  2  3  1  0  0  0  0
  3  4  2  0  0  0  0
  4  5  1  0  0  0  0
  5 10  1  0  0  0  0
  6  5  2  0  0  0  0
  7  1  1  0  0  0  0
  8  2  1  0  0  0  0
  9  3  1  0  0  0  0
 12 16  1  0  0  0  0
 12 11  1  0  0  0  0
 13 12  1  0  0  0  0
 13 14  1  0  0  0  0
 15 16  1  0  0  0  0
 15 14  1  0  0  0  0
 16 10  1  6  0  0  0
M  END
>  <minimizedAffinity>
-3.44435596

$$$$
