
 OpenBabel03252503003D

 19 20  0  0  0  0  0  0  0  0999 V2000
   39.5950   30.4560   42.4190 S   0  0  0  0  0  0  0  0  0  0  0  0
   39.1640   32.8350   41.0470 C   0  0  0  0  0  0  0  0  0  0  0  0
   38.7090   31.5310   41.2730 C   0  0  0  0  0  0  0  0  0  0  0  0
   37.5730   31.0390   40.6220 C   0  0  0  0  0  0  0  0  0  0  0  0
   36.9460   31.9040   39.7650 N   0  0  0  0  0  0  0  0  0  0  0  0
   37.4090   33.1390   39.5760 C   0  0  0  0  0  0  0  0  0  0  0  0
   38.4840   33.6320   40.1790 N   0  0  0  0  0  0  0  0  0  0  0  0
   40.0510   33.1140   41.6020 H   0  0  0  0  0  0  0  0  0  0  0  0
   37.2310   30.0290   40.8050 H   0  0  0  0  0  0  0  0  0  0  0  0
   36.9020   33.8190   38.8920 H   0  0  0  0  0  0  0  0  0  0  0  0
   39.2860   28.7410   42.0100 C   0  0  0  0  0  0  0  0  0  0  0  0
   40.1700   28.2760   41.5710 H   0  0  0  0  0  0  0  0  0  0  0  0
   38.4090   28.7140   41.3050 H   0  0  0  0  0  0  0  0  0  0  0  0
   38.8730   28.0450   43.2350 N   0  0  0  0  0  0  0  0  0  0  0  0
   38.7330   26.6350   42.9370 C   0  0  0  0  0  2  0  0  0  0  0  0
   37.3680   26.5640   42.3070 C   0  0  0  0  0  2  0  0  0  0  0  0
   36.5670   27.4270   43.2690 C   0  0  0  0  0  2  0  0  0  0  0  0
   37.5630   28.4770   43.6800 C   0  0  0  0  0  3  0  0  0  0  0  0
   37.5210   28.6290   44.7900 H   0  0  0  0  0  0  0  0  0  0  0  0
  2  3  1  0  0  0  0
  2  8  1  0  0  0  0
  3  1  1  0  0  0  0
  4  9  1  0  0  0  0
  4  3  2  0  0  0  0
  5  4  1  0  0  0  0
  6  5  2  0  0  0  0
  6  7  1  0  0  0  0
  7  2  2  0  0  0  0
 10  6  1  0  0  0  0
 11  1  1  0  0  0  0
 11 14  1  0  0  0  0
 12 11  1  0  0  0  0
 13 11  1  0  0  0  0
 14 18  1  0  0  0  0
 15 14  1  0  0  0  0
 16 15  1  0  0  0  0
 16 17  1  0  0  0  0
 17 18  1  0  0  0  0
 18 19  1  0  0  0  0
M  END
>  <minimizedAffinity>
-3.83366084

$$$$

 OpenBabel03252503003D

 19 20  0  0  0  0  0  0  0  0999 V2000
   38.3560   29.6700   39.4590 S   0  0  0  0  0  0  0  0  0  0  0  0
   37.3190   32.2470   39.3470 C   0  0  0  0  0  0  0  0  0  0  0  0
   38.3750   31.4430   39.7900 C   0  0  0  0  0  0  0  0  0  0  0  0
   39.4540   31.9900   40.4910 C   0  0  0  0  0  0  0  0  0  0  0  0
   39.4090   33.3420   40.7100 N   0  0  0  0  0  0  0  0  0  0  0  0
   38.3860   34.0750   40.2720 C   0  0  0  0  0  0  0  0  0  0  0  0
   37.3490   33.5830   39.6040 N   0  0  0  0  0  0  0  0  0  0  0  0
   36.5350   31.7220   38.8140 H   0  0  0  0  0  0  0  0  0  0  0  0
   40.2650   31.3590   40.8290 H   0  0  0  0  0  0  0  0  0  0  0  0
   38.3600   35.1490   40.4510 H   0  0  0  0  0  0  0  0  0  0  0  0
   38.5820   28.7620   40.9850 C   0  0  0  0  0  0  0  0  0  0  0  0
   39.5710   28.9420   41.4070 H   0  0  0  0  0  0  0  0  0  0  0  0
   38.4190   27.6710   40.7560 H   0  0  0  0  0  0  0  0  0  0  0  0
   37.5240   29.1650   41.9190 N   0  0  0  0  0  0  0  0  0  0  0  0
   38.0760   29.1850   43.2570 C   0  0  0  0  0  2  0  0  0  0  0  0
   38.0250   27.7350   43.6570 C   0  0  0  0  0  2  0  0  0  0  0  0
   36.6220   27.3640   43.2020 C   0  0  0  0  0  2  0  0  0  0  0  0
   36.4470   28.1960   41.9600 C   0  0  0  0  0  3  0  0  0  0  0  0
   35.4380   28.6840   41.9670 H   0  0  0  0  0  0  0  0  0  0  0  0
  1  3  1  0  0  0  0
  1 11  1  0  0  0  0
  2  7  2  0  0  0  0
  2  3  1  0  0  0  0
  3  4  2  0  0  0  0
  4  5  1  0  0  0  0
  4  9  1  0  0  0  0
  6 10  1  0  0  0  0
  6  5  2  0  0  0  0
  7  6  1  0  0  0  0
  8  2  1  0  0  0  0
 11 12  1  0  0  0  0
 11 14  1  0  0  0  0
 13 11  1  0  0  0  0
 14 18  1  0  0  0  0
 14 15  1  0  0  0  0
 15 16  1  0  0  0  0
 17 16  1  0  0  0  0
 18 19  1  0  0  0  0
 18 17  1  0  0  0  0
M  END
>  <minimizedAffinity>
-3.79714918

$$$$

 OpenBabel03252503003D

 19 20  0  0  0  0  0  0  0  0999 V2000
   39.5170   30.1520   42.2000 S   0  0  0  0  0  0  0  0  0  0  0  0
   37.5370   30.7500   40.3430 C   0  0  0  0  0  0  0  0  0  0  0  0
   38.5930   31.2540   41.1100 C   0  0  0  0  0  0  0  0  0  0  0  0
   38.9510   32.6040   41.0500 C   0  0  0  0  0  0  0  0  0  0  0  0
   38.2110   33.3880   40.2040 N   0  0  0  0  0  0  0  0  0  0  0  0
   37.2120   32.8720   39.4880 C   0  0  0  0  0  0  0  0  0  0  0  0
   36.8510   31.5950   39.5250 N   0  0  0  0  0  0  0  0  0  0  0  0
   37.3450   29.6910   40.4640 H   0  0  0  0  0  0  0  0  0  0  0  0
   39.7690   32.9820   41.6480 H   0  0  0  0  0  0  0  0  0  0  0  0
   36.6300   33.5050   38.8180 H   0  0  0  0  0  0  0  0  0  0  0  0
   39.2030   28.4470   41.7540 C   0  0  0  0  0  0  0  0  0  0  0  0
   40.0540   28.0160   41.2250 H   0  0  0  0  0  0  0  0  0  0  0  0
   38.2690   28.4290   41.1250 H   0  0  0  0  0  0  0  0  0  0  0  0
   38.9060   27.7000   42.9820 N   0  0  0  0  0  0  0  0  0  0  0  0
   38.5260   26.3510   42.6180 C   0  0  0  0  0  2  0  0  0  0  0  0
   37.0790   26.5080   42.2350 C   0  0  0  0  0  2  0  0  0  0  0  0
   36.5740   27.3720   43.3800 C   0  0  0  0  0  2  0  0  0  0  0  0
   37.7600   28.2480   43.6800 C   0  0  0  0  0  3  0  0  0  0  0  0
   37.9250   28.3030   44.7870 H   0  0  0  0  0  0  0  0  0  0  0  0
  2  8  1  0  0  0  0
  2  3  1  0  0  0  0
  3  1  1  0  0  0  0
  4  3  2  0  0  0  0
  4  9  1  0  0  0  0
  5  4  1  0  0  0  0
  6  7  1  0  0  0  0
  6  5  2  0  0  0  0
  7  2  2  0  0  0  0
 10  6  1  0  0  0  0
 11  1  1  0  0  0  0
 11 14  1  0  0  0  0
 12 11  1  0  0  0  0
 13 11  1  0  0  0  0
 14 18  1  0  0  0  0
 15 14  1  0  0  0  0
 16 15  1  0  0  0  0
 16 17  1  0  0  0  0
 17 18  1  0  0  0  0
 18 19  1  0  0  0  0
M  END
>  <minimizedAffinity>
-3.72617388

$$$$

 OpenBabel03252503003D

 19 20  0  0  0  0  0  0  0  0999 V2000
   37.4710   29.0330   39.7270 S   0  0  0  0  0  0  0  0  0  0  0  0
   38.6190   31.2870   40.8810 C   0  0  0  0  0  0  0  0  0  0  0  0
   37.7350   30.8080   39.9070 C   0  0  0  0  0  0  0  0  0  0  0  0
   37.0480   31.6850   39.0620 C   0  0  0  0  0  0  0  0  0  0  0  0
   37.2920   33.0200   39.2490 N   0  0  0  0  0  0  0  0  0  0  0  0
   38.1400   33.4380   40.1880 C   0  0  0  0  0  0  0  0  0  0  0  0
   38.8060   32.6290   41.0030 N   0  0  0  0  0  0  0  0  0  0  0  0
   39.0980   30.5230   41.4810 H   0  0  0  0  0  0  0  0  0  0  0  0
   36.3680   31.3040   38.3120 H   0  0  0  0  0  0  0  0  0  0  0  0
   38.3270   34.5020   40.3280 H   0  0  0  0  0  0  0  0  0  0  0  0
   36.3550   28.4490   40.9980 C   0  0  0  0  0  0  0  0  0  0  0  0
   35.4120   28.1090   40.5680 H   0  0  0  0  0  0  0  0  0  0  0  0
   36.1990   29.2950   41.7250 H   0  0  0  0  0  0  0  0  0  0  0  0
   37.0230   27.3700   41.7350 N   0  0  0  0  0  0  0  0  0  0  0  0
   36.6100   27.4360   43.1210 C   0  0  0  0  0  2  0  0  0  0  0  0
   37.5000   28.5150   43.6790 C   0  0  0  0  0  2  0  0  0  0  0  0
   38.8430   28.1050   43.0960 C   0  0  0  0  0  2  0  0  0  0  0  0
   38.4620   27.5450   41.7520 C   0  0  0  0  0  3  0  0  0  0  0  0
   39.0080   26.5820   41.5720 H   0  0  0  0  0  0  0  0  0  0  0  0
  1  3  1  0  0  0  0
  1 11  1  0  0  0  0
  2  7  1  0  0  0  0
  2  8  1  0  0  0  0
  3  2  2  0  0  0  0
  4  5  2  0  0  0  0
  4  3  1  0  0  0  0
  5  6  1  0  0  0  0
  6 10  1  0  0  0  0
  6  7  2  0  0  0  0
  9  4  1  0  0  0  0
 11 13  1  0  0  0  0
 11 14  1  0  0  0  0
 12 11  1  0  0  0  0
 14 18  1  0  0  0  0
 14 15  1  0  0  0  0
 15 16  1  0  0  0  0
 17 16  1  0  0  0  0
 18 17  1  0  0  0  0
 19 18  1  0  0  0  0
M  END
>  <minimizedAffinity>
-3.66133356

$$$$

 OpenBabel03252503003D

 19 20  0  0  0  0  0  0  0  0999 V2000
   36.9540   31.0510   39.8470 S   0  0  0  0  0  0  0  0  0  0  0  0
   39.6590   31.6070   39.5210 C   0  0  0  0  0  0  0  0  0  0  0  0
   38.4180   32.1020   39.9370 C   0  0  0  0  0  0  0  0  0  0  0  0
   38.2870   33.4060   40.4250 C   0  0  0  0  0  0  0  0  0  0  0  0
   39.4340   34.1530   40.4680 N   0  0  0  0  0  0  0  0  0  0  0  0
   40.5990   33.6460   40.0640 C   0  0  0  0  0  0  0  0  0  0  0  0
   40.7520   32.4130   39.5960 N   0  0  0  0  0  0  0  0  0  0  0  0
   39.6480   30.5850   39.1610 H   0  0  0  0  0  0  0  0  0  0  0  0
   37.3220   33.7780   40.7440 H   0  0  0  0  0  0  0  0  0  0  0  0
   41.5050   34.2490   40.1030 H   0  0  0  0  0  0  0  0  0  0  0  0
   36.6890   30.2360   41.4180 C   0  0  0  0  0  0  0  0  0  0  0  0
   35.7190   29.7390   41.4440 H   0  0  0  0  0  0  0  0  0  0  0  0
   36.7780   31.0180   42.2230 H   0  0  0  0  0  0  0  0  0  0  0  0
   37.7820   29.2790   41.6280 N   0  0  0  0  0  0  0  0  0  0  0  0
   37.2840   27.9470   41.3560 C   0  0  0  0  0  2  0  0  0  0  0  0
   36.5810   27.5890   42.6380 C   0  0  0  0  0  2  0  0  0  0  0  0
   37.6110   28.0400   43.6620 C   0  0  0  0  0  2  0  0  0  0  0  0
   38.2150   29.2540   43.0100 C   0  0  0  0  0  3  0  0  0  0  0  0
   39.3320   29.2220   43.1040 H   0  0  0  0  0  0  0  0  0  0  0  0
  1  3  1  0  0  0  0
  1 11  1  0  0  0  0
  2  7  2  0  0  0  0
  2  3  1  0  0  0  0
  3  4  2  0  0  0  0
  4  5  1  0  0  0  0
  4  9  1  0  0  0  0
  6 10  1  0  0  0  0
  6  5  2  0  0  0  0
  7  6  1  0  0  0  0
  8  2  1  0  0  0  0
 11 12  1  0  0  0  0
 11 14  1  0  0  0  0
 11 13  1  0  0  0  0
 14 18  1  0  0  0  0
 15 14  1  0  0  0  0
 15 16  1  0  0  0  0
 16 17  1  0  0  0  0
 18 19  1  0  0  0  0
 18 17  1  0  0  0  0
M  END
>  <minimizedAffinity>
-3.60048652

$$$$

 OpenBabel03252503003D

 19 20  0  0  0  0  0  0  0  0999 V2000
   37.8350   29.6300   39.6570 S   0  0  0  0  0  0  0  0  0  0  0  0
   38.0190   29.5190   42.4290 C   0  0  0  0  0  0  0  0  0  0  0  0
   37.5610   28.8760   41.2730 C   0  0  0  0  0  0  0  0  0  0  0  0
   36.8890   27.6520   41.3450 C   0  0  0  0  0  0  0  0  0  0  0  0
   36.7140   27.1320   42.6000 N   0  0  0  0  0  0  0  0  0  0  0  0
   37.1650   27.7740   43.6780 C   0  0  0  0  0  0  0  0  0  0  0  0
   37.8050   28.9360   43.6400 N   0  0  0  0  0  0  0  0  0  0  0  0
   38.5270   30.4610   42.2600 H   0  0  0  0  0  0  0  0  0  0  0  0
   36.5400   27.1650   40.4450 H   0  0  0  0  0  0  0  0  0  0  0  0
   37.0190   27.3510   44.6720 H   0  0  0  0  0  0  0  0  0  0  0  0
   39.2440   30.7320   39.7270 C   0  0  0  0  0  0  0  0  0  0  0  0
   40.1640   30.2100   39.4630 H   0  0  0  0  0  0  0  0  0  0  0  0
   39.2900   31.1550   40.7700 H   0  0  0  0  0  0  0  0  0  0  0  0
   38.9910   31.8570   38.8200 N   0  0  0  0  0  0  0  0  0  0  0  0
   39.6280   33.0380   39.3640 C   0  0  0  0  0  2  0  0  0  0  0  0
   38.6340   33.5050   40.3930 C   0  0  0  0  0  2  0  0  0  0  0  0
   37.3370   33.3880   39.6080 C   0  0  0  0  0  2  0  0  0  0  0  0
   37.5800   32.1800   38.7450 C   0  0  0  0  0  3  0  0  0  0  0  0
   37.2480   32.3870   37.6950 H   0  0  0  0  0  0  0  0  0  0  0  0
  1 11  1  0  0  0  0
  1  3  1  0  0  0  0
  2  7  1  0  0  0  0
  3  4  1  0  0  0  0
  3  2  2  0  0  0  0
  4  5  2  0  0  0  0
  5  6  1  0  0  0  0
  6 10  1  0  0  0  0
  7  6  2  0  0  0  0
  8  2  1  0  0  0  0
  9  4  1  0  0  0  0
 11 13  1  0  0  0  0
 12 11  1  0  0  0  0
 14 15  1  0  0  0  0
 14 11  1  0  0  0  0
 15 16  1  0  0  0  0
 17 16  1  0  0  0  0
 18 14  1  0  0  0  0
 18 17  1  0  0  0  0
 19 18  1  0  0  0  0
M  END
>  <minimizedAffinity>
-3.55116582

$$$$

 OpenBabel03252503003D

 19 20  0  0  0  0  0  0  0  0999 V2000
   36.3280   28.5840   41.3400 S   0  0  0  0  0  0  0  0  0  0  0  0
   38.5360   30.2380   41.6820 C   0  0  0  0  0  0  0  0  0  0  0  0
   37.2420   30.1290   41.1610 C   0  0  0  0  0  0  0  0  0  0  0  0
   36.6380   31.2020   40.4980 C   0  0  0  0  0  0  0  0  0  0  0  0
   37.3840   32.3460   40.3950 N   0  0  0  0  0  0  0  0  0  0  0  0
   38.6140   32.4120   40.9050 C   0  0  0  0  0  0  0  0  0  0  0  0
   39.2120   31.4100   41.5390 N   0  0  0  0  0  0  0  0  0  0  0  0
   38.9080   29.3480   42.1770 H   0  0  0  0  0  0  0  0  0  0  0  0
   35.6370   31.1060   40.0990 H   0  0  0  0  0  0  0  0  0  0  0  0
   39.1990   33.3270   40.8180 H   0  0  0  0  0  0  0  0  0  0  0  0
   37.2690   27.4280   42.3290 C   0  0  0  0  0  0  0  0  0  0  0  0
   36.6190   26.8610   42.9970 H   0  0  0  0  0  0  0  0  0  0  0  0
   38.0380   28.0200   42.9010 H   0  0  0  0  0  0  0  0  0  0  0  0
   38.0030   26.5390   41.4210 N   0  0  0  0  0  0  0  0  0  0  0  0
   37.0640   25.6100   40.8300 C   0  0  0  0  0  2  0  0  0  0  0  0
   36.9130   24.5650   41.9030 C   0  0  0  0  0  2  0  0  0  0  0  0
   38.3670   24.3460   42.2910 C   0  0  0  0  0  2  0  0  0  0  0  0
   38.9620   25.7180   42.1330 C   0  0  0  0  0  3  0  0  0  0  0  0
   39.9430   25.6490   41.5940 H   0  0  0  0  0  0  0  0  0  0  0  0
  1 11  1  0  0  0  0
  2  8  1  0  0  0  0
  3  1  1  0  0  0  0
  3  2  2  0  0  0  0
  4  3  1  0  0  0  0
  5  4  2  0  0  0  0
  5  6  1  0  0  0  0
  6  7  2  0  0  0  0
  7  2  1  0  0  0  0
  9  4  1  0  0  0  0
 10  6  1  0  0  0  0
 11 13  1  0  0  0  0
 11 12  1  0  0  0  0
 14 18  1  0  0  0  0
 14 11  1  0  0  0  0
 15 14  1  0  0  0  0
 15 16  1  0  0  0  0
 16 17  1  0  0  0  0
 18 17  1  0  0  0  0
 19 18  1  0  0  0  0
M  END
>  <minimizedAffinity>
-3.5256269

$$$$

 OpenBabel03252503003D

 19 20  0  0  0  0  0  0  0  0999 V2000
   39.8230   30.2680   41.3690 S   0  0  0  0  0  0  0  0  0  0  0  0
   38.7890   28.4120   43.1610 C   0  0  0  0  0  0  0  0  0  0  0  0
   38.5400   29.1790   42.0180 C   0  0  0  0  0  0  0  0  0  0  0  0
   37.3060   29.1200   41.3620 C   0  0  0  0  0  0  0  0  0  0  0  0
   36.3750   28.2740   41.9040 N   0  0  0  0  0  0  0  0  0  0  0  0
   36.6490   27.5580   42.9950 C   0  0  0  0  0  0  0  0  0  0  0  0
   37.8100   27.5950   43.6370 N   0  0  0  0  0  0  0  0  0  0  0  0
   39.7770   28.5330   43.5890 H   0  0  0  0  0  0  0  0  0  0  0  0
   37.1250   29.7170   40.4790 H   0  0  0  0  0  0  0  0  0  0  0  0
   35.9000   26.8890   43.4170 H   0  0  0  0  0  0  0  0  0  0  0  0
   39.2540   31.9650   41.3940 C   0  0  0  0  0  0  0  0  0  0  0  0
   39.7880   32.5480   42.1460 H   0  0  0  0  0  0  0  0  0  0  0  0
   38.1460   31.9470   41.5910 H   0  0  0  0  0  0  0  0  0  0  0  0
   39.4410   32.5300   40.0520 N   0  0  0  0  0  0  0  0  0  0  0  0
   38.6290   33.7240   39.9400 C   0  0  0  0  0  2  0  0  0  0  0  0
   37.2640   33.1670   39.6330 C   0  0  0  0  0  2  0  0  0  0  0  0
   37.6110   32.1370   38.5700 C   0  0  0  0  0  2  0  0  0  0  0  0
   38.9550   31.6350   39.0210 C   0  0  0  0  0  3  0  0  0  0  0  0
   39.6540   31.5770   38.1470 H   0  0  0  0  0  0  0  0  0  0  0  0
  1 11  1  0  0  0  0
  1  3  1  0  0  0  0
  2  8  1  0  0  0  0
  2  7  1  0  0  0  0
  3  2  2  0  0  0  0
  4  5  2  0  0  0  0
  4  3  1  0  0  0  0
  5  6  1  0  0  0  0
  6 10  1  0  0  0  0
  6  7  2  0  0  0  0
  9  4  1  0  0  0  0
 11 13  1  0  0  0  0
 11 12  1  0  0  0  0
 14 11  1  0  0  0  0
 15 14  1  0  0  0  0
 16 15  1  0  0  0  0
 17 18  1  0  0  0  0
 17 16  1  0  0  0  0
 18 14  1  0  0  0  0
 19 18  1  0  0  0  0
M  END
>  <minimizedAffinity>
-3.49613094

$$$$

 OpenBabel03252503003D

 19 20  0  0  0  0  0  0  0  0999 V2000
   35.8510   30.0480   40.8230 S   0  0  0  0  0  0  0  0  0  0  0  0
   36.5510   29.9370   38.1350 C   0  0  0  0  0  0  0  0  0  0  0  0
   36.6260   30.6770   39.3200 C   0  0  0  0  0  0  0  0  0  0  0  0
   37.2930   31.9050   39.3650 C   0  0  0  0  0  0  0  0  0  0  0  0
   37.8600   32.3270   38.1910 N   0  0  0  0  0  0  0  0  0  0  0  0
   37.7680   31.5940   37.0820 C   0  0  0  0  0  0  0  0  0  0  0  0
   37.1410   30.4260   37.0100 N   0  0  0  0  0  0  0  0  0  0  0  0
   36.0120   29.0010   38.2120 H   0  0  0  0  0  0  0  0  0  0  0  0
   37.3440   32.4680   40.2870 H   0  0  0  0  0  0  0  0  0  0  0  0
   38.2230   31.9400   36.1540 H   0  0  0  0  0  0  0  0  0  0  0  0
   36.7430   28.6130   41.4150 C   0  0  0  0  0  0  0  0  0  0  0  0
   37.5720   28.3630   40.7510 H   0  0  0  0  0  0  0  0  0  0  0  0
   36.0050   27.7660   41.4960 H   0  0  0  0  0  0  0  0  0  0  0  0
   37.2180   28.8980   42.7740 N   0  0  0  0  0  0  0  0  0  0  0  0
   38.5800   29.3820   42.6920 C   0  0  0  0  0  2  0  0  0  0  0  0
   39.3750   28.1110   42.5650 C   0  0  0  0  0  2  0  0  0  0  0  0
   38.7220   27.2590   43.6410 C   0  0  0  0  0  2  0  0  0  0  0  0
   37.2840   27.6970   43.5820 C   0  0  0  0  0  3  0  0  0  0  0  0
   36.8920   27.8620   44.6200 H   0  0  0  0  0  0  0  0  0  0  0  0
  1 11  1  0  0  0  0
  2  8  1  0  0  0  0
  2  3  1  0  0  0  0
  3  4  2  0  0  0  0
  3  1  1  0  0  0  0
  4  9  1  0  0  0  0
  5  4  1  0  0  0  0
  6  5  2  0  0  0  0
  7  6  1  0  0  0  0
  7  2  2  0  0  0  0
 10  6  1  0  0  0  0
 11 13  1  0  0  0  0
 11 14  1  0  0  0  0
 12 11  1  0  0  0  0
 14 18  1  0  0  0  0
 15 14  1  0  0  0  0
 16 15  1  0  0  0  0
 16 17  1  0  0  0  0
 18 17  1  0  0  0  0
 18 19  1  0  0  0  0
M  END
>  <minimizedAffinity>
-3.47785735

$$$$
