
 OpenBabel03252505133D

 22 24  0  0  0  0  0  0  0  0999 V2000
   44.6140   35.9580   44.3810 C   0  0  0  0  0  0  0  0  0  0  0  0
   45.3310   35.9240   43.1720 C   0  0  0  0  0  0  0  0  0  0  0  0
   46.2440   34.8900   43.0490 C   0  0  0  0  0  0  0  0  0  0  0  0
   46.4070   33.9800   44.0650 N   0  0  0  0  0  0  0  0  0  0  0  0
   45.6810   34.0640   45.2190 C   0  0  0  0  0  0  0  0  0  0  0  0
   44.7910   35.0600   45.3530 N   0  0  0  0  0  0  0  0  0  0  0  0
   43.9020   36.7900   44.4410 H   0  0  0  0  0  0  0  0  0  0  0  0
   45.2080   36.6330   42.3730 H   0  0  0  0  0  0  0  0  0  0  0  0
   45.8640   33.1110   46.2580 N   0  0  0  0  0  0  0  0  0  0  0  0
   45.1520   33.1010   47.5210 C   0  0  0  0  0  0  0  0  0  0  0  0
   45.5010   31.8200   48.2020 C   0  0  0  0  0  0  0  0  0  0  0  0
   45.9770   30.9520   47.0560 C   0  0  0  0  0  0  0  0  0  0  0  0
   46.7790   31.9860   46.2560 C   0  0  0  0  0  0  0  0  0  0  0  0
   46.9700   31.6180   45.2440 H   0  0  0  0  0  0  0  0  0  0  0  0
   47.0630   34.7120   41.8030 C   0  0  0  0  0  0  0  0  0  0  0  0
   48.3560   35.4990   41.8260 C   0  0  0  0  0  0  0  0  0  0  0  0
   48.3010   33.9470   41.8770 C   0  0  0  0  0  0  0  0  0  0  0  0
   46.5010   34.7100   40.8300 H   0  0  0  0  0  0  0  0  0  0  0  0
   48.6470   35.9410   40.8620 H   0  0  0  0  0  0  0  0  0  0  0  0
   48.6380   36.0300   42.7310 H   0  0  0  0  0  0  0  0  0  0  0  0
   48.7090   33.4210   40.9820 H   0  0  0  0  0  0  0  0  0  0  0  0
   48.6830   33.5460   42.8480 H   0  0  0  0  0  0  0  0  0  0  0  0
  1  7  1  0  0  0  0
  1  6  1  0  0  0  0
  2  1  2  0  0  0  0
  3  2  1  0  0  0  0
  3  4  2  0  0  0  0
  4  5  1  0  0  0  0
  5  6  2  0  0  0  0
  5  9  1  0  0  0  0
  8  2  1  0  0  0  0
  9 10  1  0  0  0  0
 10 11  1  0  0  0  0
 12 11  1  0  0  0  0
 13  9  1  0  0  0  0
 13 12  1  0  0  0  0
 14 13  1  0  0  0  0
 15 16  1  0  0  0  0
 15 17  1  0  0  0  0
 15  3  1  0  0  0  0
 16 17  1  0  0  0  0
 16 20  1  0  0  0  0
 17 22  1  0  0  0  0
 18 15  1  0  0  0  0
 19 16  1  0  0  0  0
 21 17  1  0  0  0  0
M  END
>  <minimizedAffinity>
-5.16312742

>  <minimizedRMSD>
0.0764809251

$$$$
