
 OpenBabel03252509353D

 41 43  0  0  1  0  0  0  0  0999 V2000
   44.5190   35.4690   44.0520 O   0  0  0  0  0  0  0  0  0  0  0  0
   45.3770   34.2590   44.3630 P   0  0  1  0  0  0  0  0  0  0  0  0
   44.7140   32.8480   43.7000 O   0  0  0  0  0  0  0  0  0  0  0  0
   44.3730   33.1180   42.8030 H   0  0  0  0  0  0  0  0  0  0  0  0
   46.8960   34.5290   43.7230 O   0  0  0  0  0  0  0  0  0  0  0  0
   47.0290   33.8340   42.5160 C   0  0  1  0  0  0  0  0  0  0  0  0
   46.4460   34.6650   41.3690 C   0  0  0  0  0  0  0  0  0  0  0  0
   46.9630   33.9050   40.1780 C   0  0  0  0  0  0  0  0  0  0  0  0
   48.2410   33.2310   40.6320 C   0  0  0  0  0  0  0  0  0  0  0  0
   48.4490   33.7000   42.0590 C   0  0  1  0  0  0  0  0  0  0  0  0
   46.5100   32.8790   42.5110 H   0  0  0  0  0  0  0  0  0  0  0  0
   46.7060   35.7160   41.4080 H   0  0  0  0  0  0  0  0  0  0  0  0
   45.3280   34.5820   41.4050 H   0  0  0  0  0  0  0  0  0  0  0  0
   47.2670   34.6120   39.3740 H   0  0  0  0  0  0  0  0  0  0  0  0
   46.1990   33.1850   39.8390 H   0  0  0  0  0  0  0  0  0  0  0  0
   49.1100   33.4510   39.9870 H   0  0  0  0  0  0  0  0  0  0  0  0
   48.0110   32.1390   40.6970 H   0  0  0  0  0  0  0  0  0  0  0  0
   48.9430   32.9040   42.6750 H   0  0  0  0  0  0  0  0  0  0  0  0
   49.2080   35.0010   42.1210 C   0  0  0  0  0  0  0  0  0  0  0  0
   48.5190   35.8910   42.2030 H   0  0  0  0  0  0  0  0  0  0  0  0
   49.7950   35.1490   41.1890 H   0  0  0  0  0  0  0  0  0  0  0  0
   50.0180   35.0750   43.2310 O   0  0  0  0  0  0  0  0  0  0  0  0
   50.5700   34.2970   43.4220 H   0  0  0  0  0  0  0  0  0  0  0  0
   45.4630   34.0110   46.0100 O   0  0  0  0  0  0  0  0  0  0  0  0
   46.4150   33.0750   46.2700 C   0  0  0  0  0  0  0  0  0  0  0  0
   46.9300   32.6160   45.4340 H   0  0  0  0  0  0  0  0  0  0  0  0
   47.2230   33.6210   46.8430 H   0  0  0  0  0  0  0  0  0  0  0  0
   45.2250   31.3630   49.3490 C   0  0  0  0  0  0  0  0  0  0  0  0
   45.6630   32.3760   48.4950 C   0  0  0  0  0  0  0  0  0  0  0  0
   45.9480   32.0170   47.1810 C   0  0  0  0  0  0  0  0  0  0  0  0
   45.7870   30.7180   46.8010 N   0  0  0  0  0  0  0  0  0  0  0  0
   45.3630   29.7560   47.6470 C   0  0  0  0  0  0  0  0  0  0  0  0
   45.0870   30.0810   48.9030 N   0  0  0  0  0  0  0  0  0  0  0  0
   45.0020   31.6270   50.3660 H   0  0  0  0  0  0  0  0  0  0  0  0
   45.7620   33.3830   48.8850 H   0  0  0  0  0  0  0  0  0  0  0  0
   45.2130   28.4160   47.1960 N   0  0  0  0  0  0  0  0  0  0  0  0
   46.0600   27.2680   47.4550 C   0  0  0  0  0  2  0  0  0  0  0  0
   45.1260   26.0600   47.3990 C   0  0  0  0  0  2  0  0  0  0  0  0
   43.7600   26.6470   47.0870 C   0  0  0  0  0  2  0  0  0  0  0  0
   44.1430   27.9170   46.3570 C   0  0  0  0  0  3  0  0  0  0  0  0
   43.2820   28.6140   46.3010 H   0  0  0  0  0  0  0  0  0  0  0  0
  2  1  2  6  0  0  0
  2 24  1  0  0  0  0
  3  2  1  0  0  0  0
  4  3  1  0  0  0  0
  5  2  1  0  0  0  0
  6 11  1  1  0  0  0
  6  5  1  0  0  0  0
  7 13  1  0  0  0  0
  7 12  1  0  0  0  0
  7  6  1  0  0  0  0
  8  9  1  0  0  0  0
  8  7  1  0  0  0  0
  9 17  1  0  0  0  0
  9 10  1  0  0  0  0
 10 19  1  0  0  0  0
 10  6  1  0  0  0  0
 10 18  1  1  0  0  0
 14  8  1  0  0  0  0
 15  8  1  0  0  0  0
 16  9  1  0  0  0  0
 19 20  1  0  0  0  0
 19 22  1  0  0  0  0
 21 19  1  0  0  0  0
 22 23  1  0  0  0  0
 24 25  1  0  0  0  0
 25 27  1  0  0  0  0
 25 30  1  0  0  0  0
 26 25  1  0  0  0  0
 28 34  1  0  0  0  0
 29 35  1  0  0  0  0
 29 28  2  0  0  0  0
 30 29  1  0  0  0  0
 31 30  2  0  0  0  0
 31 32  1  0  0  0  0
 32 33  2  0  0  0  0
 33 28  1  0  0  0  0
 36 37  1  0  0  0  0
 36 32  1  0  0  0  0
 38 37  1  0  0  0  0
 39 38  1  0  0  0  0
 40 39  1  0  0  0  0
 40 36  1  0  0  0  0
 41 40  1  0  0  0  0
M  END
>  <minimizedAffinity>
-6.18752241

>  <minimizedRMSD>
1.08452487

$$$$
