
 OpenBabel03252507533D

 35 38  0  0  1  0  0  0  0  0999 V2000
   37.3990   30.5080   40.2220 C   0  0  2  0  0  0  0  0  0  0  0  0
   35.9390   30.6510   40.5810 C   0  0  0  0  0  0  0  0  0  0  0  0
   35.5720   29.1650   40.6900 C   0  0  0  0  0  0  0  0  0  0  0  0
   36.8130   28.4940   41.2310 C   0  0  1  0  0  0  0  0  0  0  0  0
   37.8110   29.6010   41.3720 C   0  0  0  0  0  0  0  0  0  0  0  0
   37.4480   30.0380   39.2430 H   0  0  0  0  0  0  0  0  0  0  0  0
   35.7610   31.1870   41.5150 H   0  0  0  0  0  0  0  0  0  0  0  0
   35.3970   31.0700   39.7160 H   0  0  0  0  0  0  0  0  0  0  0  0
   34.7890   29.0500   41.4680 H   0  0  0  0  0  0  0  0  0  0  0  0
   35.2660   28.7860   39.6990 H   0  0  0  0  0  0  0  0  0  0  0  0
   37.1790   27.7770   40.4970 H   0  0  0  0  0  0  0  0  0  0  0  0
   38.8590   29.3250   41.3460 H   0  0  0  0  0  0  0  0  0  0  0  0
   37.5560   30.3130   42.2020 H   0  0  0  0  0  0  0  0  0  0  0  0
   38.3130   34.1610   40.0420 C   0  0  0  0  0  0  0  0  0  0  0  0
   37.5220   33.0080   39.9760 C   0  0  0  0  0  0  0  0  0  0  0  0
   38.1430   31.7910   40.2760 C   0  0  0  0  0  0  0  0  0  0  0  0
   39.4730   31.7670   40.6190 N   0  0  0  0  0  0  0  0  0  0  0  0
   40.1950   32.9190   40.6680 C   0  0  0  0  0  0  0  0  0  0  0  0
   39.5980   34.1000   40.3770 N   0  0  0  0  0  0  0  0  0  0  0  0
   37.8150   35.0960   39.8060 H   0  0  0  0  0  0  0  0  0  0  0  0
   36.4700   32.9920   39.7080 H   0  0  0  0  0  0  0  0  0  0  0  0
   41.2460   32.9020   40.9380 H   0  0  0  0  0  0  0  0  0  0  0  0
   36.6360   27.9120   42.5940 C   0  0  2  0  0  0  0  0  0  0  0  0
   37.4790   28.4140   43.6790 C   0  0  0  0  0  0  0  0  0  0  0  0
   37.5420   26.9690   43.2190 C   0  0  2  0  0  0  0  0  0  0  0  0
   35.5470   27.7960   42.8290 H   0  0  0  0  0  0  0  0  0  0  0  0
   38.4700   28.7860   43.7440 H   0  0  0  0  0  0  0  0  0  0  0  0
   36.9680   28.5500   44.6840 H   0  0  0  0  0  0  0  0  0  0  0  0
   37.0880   26.1970   43.9100 H   0  0  0  0  0  0  0  0  0  0  0  0
   38.7090   26.4390   42.5660 N   0  0  1  0  0  0  0  0  0  0  0  0
   39.6060   25.9290   43.5820 C   0  0  0  0  0  2  0  0  0  0  0  0
   40.3220   24.7570   42.9780 C   0  0  0  0  0  2  0  0  0  0  0  0
   39.4500   24.3100   41.8560 C   0  0  0  0  0  2  0  0  0  0  0  0
   38.4650   25.4010   41.6230 C   0  0  0  0  0  3  0  0  0  0  0  0
   37.4100   25.0560   41.6470 H   0  0  0  0  0  0  0  0  0  0  0  0
  1  6  1  6  0  0  0
  1 16  1  0  0  0  0
  1  2  1  0  0  0  0
  1  5  1  0  0  0  0
  2  3  1  0  0  0  0
  2  7  1  0  0  0  0
  3  4  1  0  0  0  0
  3  9  1  0  0  0  0
  4 11  1  6  0  0  0
  4  5  1  0  0  0  0
  4 23  1  0  0  0  0
  5 13  1  0  0  0  0
  8  2  1  0  0  0  0
 10  3  1  0  0  0  0
 12  5  1  0  0  0  0
 14 19  1  0  0  0  0
 15 14  2  0  0  0  0
 15 16  1  0  0  0  0
 16 17  2  0  0  0  0
 17 18  1  0  0  0  0
 18 22  1  0  0  0  0
 19 18  2  0  0  0  0
 20 14  1  0  0  0  0
 21 15  1  0  0  0  0
 23 26  1  1  0  0  0
 23 25  1  0  0  0  0
 23 24  1  0  0  0  0
 24 27  1  0  0  0  0
 24 28  1  0  0  0  0
 25 24  1  0  0  0  0
 25 29  1  1  0  0  0
 30 25  1  0  0  0  0
 30 31  1  1  0  0  0
 32 31  1  0  0  0  0
 33 32  1  0  0  0  0
 34 35  1  0  0  0  0
 34 33  1  0  0  0  0
 34 30  1  0  0  0  0
M  END
>  <minimizedAffinity>
-5.44284964

$$$$

 OpenBabel03252507533D

 35 38  0  0  1  0  0  0  0  0999 V2000
   37.3820   30.5530   40.1620 C   0  0  2  0  0  0  0  0  0  0  0  0
   35.9790   30.7080   40.6980 C   0  0  0  0  0  0  0  0  0  0  0  0
   35.5510   29.2350   40.6790 C   0  0  0  0  0  0  0  0  0  0  0  0
   36.8080   28.4570   40.9960 C   0  0  1  0  0  0  0  0  0  0  0  0
   37.8690   29.5010   41.1470 C   0  0  0  0  0  0  0  0  0  0  0  0
   37.3010   30.2010   39.1370 H   0  0  0  0  0  0  0  0  0  0  0  0
   35.9310   31.1370   41.7010 H   0  0  0  0  0  0  0  0  0  0  0  0
   35.3680   31.2470   39.9530 H   0  0  0  0  0  0  0  0  0  0  0  0
   34.8520   29.0590   41.5230 H   0  0  0  0  0  0  0  0  0  0  0  0
   35.1200   28.9880   39.6920 H   0  0  0  0  0  0  0  0  0  0  0  0
   37.0540   27.8190   40.1490 H   0  0  0  0  0  0  0  0  0  0  0  0
   38.8930   29.1910   40.9710 H   0  0  0  0  0  0  0  0  0  0  0  0
   37.7430   30.1200   42.0760 H   0  0  0  0  0  0  0  0  0  0  0  0
   38.4880   34.1580   40.1500 C   0  0  0  0  0  0  0  0  0  0  0  0
   37.6380   33.0510   40.0290 C   0  0  0  0  0  0  0  0  0  0  0  0
   38.1920   31.7920   40.2770 C   0  0  0  0  0  0  0  0  0  0  0  0
   39.5180   31.6820   40.6230 N   0  0  0  0  0  0  0  0  0  0  0  0
   40.2980   32.7920   40.7260 C   0  0  0  0  0  0  0  0  0  0  0  0
   39.7660   34.0140   40.4870 N   0  0  0  0  0  0  0  0  0  0  0  0
   38.0410   35.1270   39.9540 H   0  0  0  0  0  0  0  0  0  0  0  0
   36.5890   33.1030   39.7570 H   0  0  0  0  0  0  0  0  0  0  0  0
   41.3460   32.7070   40.9990 H   0  0  0  0  0  0  0  0  0  0  0  0
   36.7500   27.7260   42.2950 C   0  0  2  0  0  0  0  0  0  0  0  0
   37.9960   27.5140   43.0290 C   0  0  0  0  0  0  0  0  0  0  0  0
   37.1740   26.3550   42.4960 C   0  0  2  0  0  0  0  0  0  0  0  0
   35.8740   28.0760   42.9000 H   0  0  0  0  0  0  0  0  0  0  0  0
   39.0090   27.3570   42.7540 H   0  0  0  0  0  0  0  0  0  0  0  0
   37.9360   27.6330   44.1570 H   0  0  0  0  0  0  0  0  0  0  0  0
   36.6030   25.7440   43.2590 H   0  0  0  0  0  0  0  0  0  0  0  0
   37.6600   25.5120   41.4370 N   0  0  1  0  0  0  0  0  0  0  0  0
   38.0970   24.2590   42.0180 C   0  0  0  0  0  2  0  0  0  0  0  0
   37.8330   23.1930   40.9960 C   0  0  0  0  0  2  0  0  0  0  0  0
   36.7870   23.7680   40.1030 C   0  0  0  0  0  2  0  0  0  0  0  0
   36.7260   25.2240   40.4040 C   0  0  0  0  0  3  0  0  0  0  0  0
   35.7040   25.5800   40.6550 H   0  0  0  0  0  0  0  0  0  0  0  0
  1  6  1  6  0  0  0
  1 16  1  0  0  0  0
  1  2  1  0  0  0  0
  1  5  1  0  0  0  0
  2  7  1  0  0  0  0
  3  2  1  0  0  0  0
  3  4  1  0  0  0  0
  3  9  1  0  0  0  0
  4 11  1  6  0  0  0
  4  5  1  0  0  0  0
  4 23  1  0  0  0  0
  5 13  1  0  0  0  0
  8  2  1  0  0  0  0
 10  3  1  0  0  0  0
 12  5  1  0  0  0  0
 14 19  1  0  0  0  0
 15 14  2  0  0  0  0
 15 16  1  0  0  0  0
 16 17  2  0  0  0  0
 17 18  1  0  0  0  0
 18 22  1  0  0  0  0
 19 18  2  0  0  0  0
 20 14  1  0  0  0  0
 21 15  1  0  0  0  0
 23 25  1  0  0  0  0
 23 26  1  1  0  0  0
 23 24  1  0  0  0  0
 24 28  1  0  0  0  0
 25 24  1  0  0  0  0
 25 29  1  1  0  0  0
 27 24  1  0  0  0  0
 30 31  1  1  0  0  0
 30 25  1  0  0  0  0
 32 31  1  0  0  0  0
 33 34  1  0  0  0  0
 33 32  1  0  0  0  0
 34 35  1  0  0  0  0
 34 30  1  0  0  0  0
M  END
>  <minimizedAffinity>
-5.33269739

$$$$

 OpenBabel03252507533D

 35 38  0  0  1  0  0  0  0  0999 V2000
   39.5930   25.1760   41.5860 C   0  0  2  0  0  0  0  0  0  0  0  0
   39.6370   24.7460   43.0330 C   0  0  0  0  0  0  0  0  0  0  0  0
   39.9250   26.1070   43.6790 C   0  0  0  0  0  0  0  0  0  0  0  0
   39.1990   27.1130   42.8160 C   0  0  1  0  0  0  0  0  0  0  0  0
   38.5730   26.2960   41.7300 C   0  0  0  0  0  0  0  0  0  0  0  0
   40.5910   25.5130   41.3180 H   0  0  0  0  0  0  0  0  0  0  0  0
   38.7040   24.3090   43.3950 H   0  0  0  0  0  0  0  0  0  0  0  0
   40.5210   24.1030   43.1890 H   0  0  0  0  0  0  0  0  0  0  0  0
   39.4350   26.1370   44.6750 H   0  0  0  0  0  0  0  0  0  0  0  0
   41.0160   26.2730   43.7220 H   0  0  0  0  0  0  0  0  0  0  0  0
   39.9260   27.7930   42.3750 H   0  0  0  0  0  0  0  0  0  0  0  0
   38.3570   26.8020   40.7960 H   0  0  0  0  0  0  0  0  0  0  0  0
   37.7250   25.6580   42.0990 H   0  0  0  0  0  0  0  0  0  0  0  0
   37.5740   22.3640   40.0920 C   0  0  0  0  0  0  0  0  0  0  0  0
   37.9680   23.3450   41.0100 C   0  0  0  0  0  0  0  0  0  0  0  0
   39.0840   24.1190   40.6770 C   0  0  0  0  0  0  0  0  0  0  0  0
   39.7410   23.8990   39.4900 N   0  0  0  0  0  0  0  0  0  0  0  0
   39.3150   22.9300   38.6350 C   0  0  0  0  0  0  0  0  0  0  0  0
   38.2350   22.1790   38.9530 N   0  0  0  0  0  0  0  0  0  0  0  0
   36.7060   21.7740   40.3670 H   0  0  0  0  0  0  0  0  0  0  0  0
   37.4720   23.5450   41.9550 H   0  0  0  0  0  0  0  0  0  0  0  0
   39.8340   22.7550   37.6970 H   0  0  0  0  0  0  0  0  0  0  0  0
   38.0800   27.8090   43.5160 C   0  0  2  0  0  0  0  0  0  0  0  0
   36.7130   27.5560   43.0650 C   0  0  0  0  0  0  0  0  0  0  0  0
   37.3400   28.9360   42.9840 C   0  0  2  0  0  0  0  0  0  0  0  0
   38.2450   27.7930   44.6240 H   0  0  0  0  0  0  0  0  0  0  0  0
   36.2630   27.3400   42.1280 H   0  0  0  0  0  0  0  0  0  0  0  0
   35.9290   27.4600   43.8810 H   0  0  0  0  0  0  0  0  0  0  0  0
   36.9680   29.7060   43.7240 H   0  0  0  0  0  0  0  0  0  0  0  0
   37.6380   29.5530   41.7190 N   0  0  1  0  0  0  0  0  0  0  0  0
   36.4900   30.3390   41.3160 C   0  0  0  0  0  2  0  0  0  0  0  0
   37.0180   31.5160   40.5510 C   0  0  0  0  0  2  0  0  0  0  0  0
   38.4360   31.6550   40.9900 C   0  0  0  0  0  2  0  0  0  0  0  0
   38.7840   30.3960   41.7030 C   0  0  0  0  0  3  0  0  0  0  0  0
   39.1920   30.5640   42.7220 H   0  0  0  0  0  0  0  0  0  0  0  0
  1  6  1  6  0  0  0
  1  5  1  0  0  0  0
  1  2  1  0  0  0  0
  2  8  1  0  0  0  0
  2  7  1  0  0  0  0
  2  3  1  0  0  0  0
  3 10  1  0  0  0  0
  3  9  1  0  0  0  0
  4 11  1  6  0  0  0
  4 23  1  0  0  0  0
  4  3  1  0  0  0  0
  5 13  1  0  0  0  0
  5  4  1  0  0  0  0
 12  5  1  0  0  0  0
 14 20  1  0  0  0  0
 14 15  1  0  0  0  0
 15 21  1  0  0  0  0
 16 15  2  0  0  0  0
 16  1  1  0  0  0  0
 17 16  1  0  0  0  0
 18 19  1  0  0  0  0
 18 17  2  0  0  0  0
 19 14  2  0  0  0  0
 22 18  1  0  0  0  0
 23 26  1  1  0  0  0
 24 23  1  0  0  0  0
 24 28  1  0  0  0  0
 25 24  1  0  0  0  0
 25 23  1  0  0  0  0
 25 29  1  1  0  0  0
 27 24  1  0  0  0  0
 30 31  1  1  0  0  0
 30 25  1  0  0  0  0
 32 33  1  0  0  0  0
 32 31  1  0  0  0  0
 33 34  1  0  0  0  0
 34 30  1  0  0  0  0
 34 35  1  0  0  0  0
M  END
>  <minimizedAffinity>
-5.18264627

$$$$

 OpenBabel03252507533D

 35 38  0  0  1  0  0  0  0  0999 V2000
   38.2860   31.4090   39.3940 C   0  0  2  0  0  0  0  0  0  0  0  0
   37.2140   32.1830   40.1230 C   0  0  0  0  0  0  0  0  0  0  0  0
   36.3750   31.0050   40.6360 C   0  0  0  0  0  0  0  0  0  0  0  0
   37.3740   29.9070   40.9210 C   0  0  1  0  0  0  0  0  0  0  0  0
   38.6970   30.4910   40.5360 C   0  0  0  0  0  0  0  0  0  0  0  0
   37.8090   30.8990   38.5610 H   0  0  0  0  0  0  0  0  0  0  0  0
   37.5910   32.8050   40.9370 H   0  0  0  0  0  0  0  0  0  0  0  0
   36.6060   32.7340   39.3840 H   0  0  0  0  0  0  0  0  0  0  0  0
   35.9320   31.2870   41.6140 H   0  0  0  0  0  0  0  0  0  0  0  0
   35.6240   30.7280   39.8770 H   0  0  0  0  0  0  0  0  0  0  0  0
   37.1600   29.0570   40.2760 H   0  0  0  0  0  0  0  0  0  0  0  0
   39.4820   29.7950   40.2650 H   0  0  0  0  0  0  0  0  0  0  0  0
   39.0380   31.2980   41.2390 H   0  0  0  0  0  0  0  0  0  0  0  0
   41.2570   32.7840   37.5240 C   0  0  0  0  0  0  0  0  0  0  0  0
   40.1920   31.9320   37.8380 C   0  0  0  0  0  0  0  0  0  0  0  0
   39.4290   32.2540   38.9650 C   0  0  0  0  0  0  0  0  0  0  0  0
   39.7410   33.3660   39.7090 N   0  0  0  0  0  0  0  0  0  0  0  0
   40.7890   34.1590   39.3580 C   0  0  0  0  0  0  0  0  0  0  0  0
   41.5300   33.8520   38.2670 N   0  0  0  0  0  0  0  0  0  0  0  0
   41.8380   32.5190   36.6460 H   0  0  0  0  0  0  0  0  0  0  0  0
   39.9190   31.0460   37.2730 H   0  0  0  0  0  0  0  0  0  0  0  0
   41.0370   35.0380   39.9450 H   0  0  0  0  0  0  0  0  0  0  0  0
   37.4780   29.5490   42.3660 C   0  0  2  0  0  0  0  0  0  0  0  0
   38.8090   29.4340   42.9600 C   0  0  0  0  0  0  0  0  0  0  0  0
   37.8650   28.2490   42.8740 C   0  0  2  0  0  0  0  0  0  0  0  0
   36.7180   30.1170   42.9620 H   0  0  0  0  0  0  0  0  0  0  0  0
   39.7610   29.1280   42.6060 H   0  0  0  0  0  0  0  0  0  0  0  0
   38.9230   29.8490   44.0110 H   0  0  0  0  0  0  0  0  0  0  0  0
   37.3880   27.9080   43.8420 H   0  0  0  0  0  0  0  0  0  0  0  0
   38.1510   27.1200   42.0280 N   0  0  1  0  0  0  0  0  0  0  0  0
   38.8240   26.1150   42.8240 C   0  0  0  0  0  2  0  0  0  0  0  0
   38.4120   24.7810   42.2740 C   0  0  0  0  0  2  0  0  0  0  0  0
   37.1340   25.0400   41.5530 C   0  0  0  0  0  2  0  0  0  0  0  0
   37.0210   26.5170   41.4080 C   0  0  0  0  0  3  0  0  0  0  0  0
   36.0640   26.9270   41.7960 H   0  0  0  0  0  0  0  0  0  0  0  0
  1  6  1  6  0  0  0
  1  2  1  0  0  0  0
  1  5  1  0  0  0  0
  2  3  1  0  0  0  0
  2  7  1  0  0  0  0
  3  4  1  0  0  0  0
  3  9  1  0  0  0  0
  4 11  1  6  0  0  0
  4 23  1  0  0  0  0
  5  4  1  0  0  0  0
  5 13  1  0  0  0  0
  8  2  1  0  0  0  0
 10  3  1  0  0  0  0
 12  5  1  0  0  0  0
 14 15  2  0  0  0  0
 14 19  1  0  0  0  0
 15 16  1  0  0  0  0
 16  1  1  0  0  0  0
 16 17  2  0  0  0  0
 18 17  1  0  0  0  0
 18 22  1  0  0  0  0
 19 18  2  0  0  0  0
 20 14  1  0  0  0  0
 21 15  1  0  0  0  0
 23 25  1  0  0  0  0
 23 24  1  0  0  0  0
 23 26  1  1  0  0  0
 24 28  1  0  0  0  0
 25 24  1  0  0  0  0
 25 29  1  1  0  0  0
 27 24  1  0  0  0  0
 30 31  1  1  0  0  0
 30 25  1  0  0  0  0
 32 31  1  0  0  0  0
 33 32  1  0  0  0  0
 34 33  1  0  0  0  0
 34 35  1  0  0  0  0
 34 30  1  0  0  0  0
M  END
>  <minimizedAffinity>
-5.12400246

$$$$

 OpenBabel03252507533D

 35 38  0  0  1  0  0  0  0  0999 V2000
   39.7940   30.1110   41.9660 C   0  0  2  0  0  0  0  0  0  0  0  0
   39.7500   28.9460   41.0060 C   0  0  0  0  0  0  0  0  0  0  0  0
   39.6350   27.8020   42.0210 C   0  0  0  0  0  0  0  0  0  0  0  0
   38.8140   28.3670   43.1570 C   0  0  1  0  0  0  0  0  0  0  0  0
   38.5350   29.7810   42.7550 C   0  0  0  0  0  0  0  0  0  0  0  0
   40.7140   30.0250   42.5380 H   0  0  0  0  0  0  0  0  0  0  0  0
   38.9040   28.9710   40.3160 H   0  0  0  0  0  0  0  0  0  0  0  0
   40.7310   28.8570   40.5060 H   0  0  0  0  0  0  0  0  0  0  0  0
   39.0290   26.9890   41.5700 H   0  0  0  0  0  0  0  0  0  0  0  0
   40.6450   27.4780   42.3290 H   0  0  0  0  0  0  0  0  0  0  0  0
   39.4170   28.3670   44.0640 H   0  0  0  0  0  0  0  0  0  0  0  0
   38.3300   30.4870   43.5510 H   0  0  0  0  0  0  0  0  0  0  0  0
   37.8160   29.8540   41.8950 H   0  0  0  0  0  0  0  0  0  0  0  0
   40.5460   33.4540   40.3950 C   0  0  0  0  0  0  0  0  0  0  0  0
   40.7770   32.2210   41.0180 C   0  0  0  0  0  0  0  0  0  0  0  0
   39.6600   31.4280   41.2960 C   0  0  0  0  0  0  0  0  0  0  0  0
   38.4040   31.8700   40.9580 N   0  0  0  0  0  0  0  0  0  0  0  0
   38.2370   33.0780   40.3540 C   0  0  0  0  0  0  0  0  0  0  0  0
   39.3160   33.8500   40.0830 N   0  0  0  0  0  0  0  0  0  0  0  0
   41.4250   34.0560   40.1860 H   0  0  0  0  0  0  0  0  0  0  0  0
   41.7560   31.8430   41.2990 H   0  0  0  0  0  0  0  0  0  0  0  0
   37.2450   33.4290   40.0870 H   0  0  0  0  0  0  0  0  0  0  0  0
   37.4860   27.7070   43.3250 C   0  0  2  0  0  0  0  0  0  0  0  0
   37.2550   26.4290   42.6540 C   0  0  0  0  0  0  0  0  0  0  0  0
   36.4460   27.6680   42.3170 C   0  0  2  0  0  0  0  0  0  0  0  0
   37.1520   27.7720   44.3920 H   0  0  0  0  0  0  0  0  0  0  0  0
   37.5860   25.9910   41.7460 H   0  0  0  0  0  0  0  0  0  0  0  0
   36.6750   25.6530   43.2460 H   0  0  0  0  0  0  0  0  0  0  0  0
   35.3740   27.6880   42.6790 H   0  0  0  0  0  0  0  0  0  0  0  0
   36.5580   28.3140   41.0360 N   0  0  1  0  0  0  0  0  0  0  0  0
   36.4720   27.2990   40.0060 C   0  0  0  0  0  2  0  0  0  0  0  0
   35.8050   27.9380   38.8240 C   0  0  0  0  0  2  0  0  0  0  0  0
   35.0640   29.1030   39.3840 C   0  0  0  0  0  2  0  0  0  0  0  0
   35.5800   29.3100   40.7640 C   0  0  0  0  0  3  0  0  0  0  0  0
   34.7810   29.3320   41.5360 H   0  0  0  0  0  0  0  0  0  0  0  0
  1  6  1  1  0  0  0
  1  5  1  0  0  0  0
  2  1  1  0  0  0  0
  2  3  1  0  0  0  0
  3 10  1  0  0  0  0
  3  4  1  0  0  0  0
  4 23  1  0  0  0  0
  4 11  1  1  0  0  0
  5  4  1  0  0  0  0
  5 12  1  0  0  0  0
  7  2  1  0  0  0  0
  8  2  1  0  0  0  0
  9  3  1  0  0  0  0
 13  5  1  0  0  0  0
 14 15  1  0  0  0  0
 15 16  2  0  0  0  0
 15 21  1  0  0  0  0
 16  1  1  0  0  0  0
 17 16  1  0  0  0  0
 18 17  2  0  0  0  0
 19 18  1  0  0  0  0
 19 14  2  0  0  0  0
 20 14  1  0  0  0  0
 22 18  1  0  0  0  0
 23 26  1  1  0  0  0
 24 28  1  0  0  0  0
 24 23  1  0  0  0  0
 25 24  1  0  0  0  0
 25 29  1  1  0  0  0
 25 23  1  0  0  0  0
 27 24  1  0  0  0  0
 30 31  1  6  0  0  0
 30 25  1  0  0  0  0
 32 33  1  0  0  0  0
 32 31  1  0  0  0  0
 33 34  1  0  0  0  0
 34 30  1  0  0  0  0
 34 35  1  0  0  0  0
M  END
>  <minimizedAffinity>
-5.09148264

$$$$

 OpenBabel03252507533D

 35 38  0  0  1  0  0  0  0  0999 V2000
   36.6820   30.7080   39.1690 C   0  0  2  0  0  0  0  0  0  0  0  0
   35.7890   30.0400   40.1870 C   0  0  0  0  0  0  0  0  0  0  0  0
   35.3790   28.8050   39.3740 C   0  0  0  0  0  0  0  0  0  0  0  0
   36.5900   28.4700   38.5330 C   0  0  1  0  0  0  0  0  0  0  0  0
   37.5940   29.5240   38.8800 C   0  0  0  0  0  0  0  0  0  0  0  0
   36.0560   31.0030   38.3310 H   0  0  0  0  0  0  0  0  0  0  0  0
   36.2970   29.7710   41.1150 H   0  0  0  0  0  0  0  0  0  0  0  0
   34.8880   30.6610   40.3350 H   0  0  0  0  0  0  0  0  0  0  0  0
   35.2360   27.9540   40.0710 H   0  0  0  0  0  0  0  0  0  0  0  0
   34.4810   29.0380   38.7750 H   0  0  0  0  0  0  0  0  0  0  0  0
   36.3280   28.5620   37.4800 H   0  0  0  0  0  0  0  0  0  0  0  0
   38.3560   29.7400   38.1400 H   0  0  0  0  0  0  0  0  0  0  0  0
   38.0000   29.4120   39.9220 H   0  0  0  0  0  0  0  0  0  0  0  0
   37.9990   34.1600   39.9170 C   0  0  0  0  0  0  0  0  0  0  0  0
   37.2020   33.1620   39.3440 C   0  0  0  0  0  0  0  0  0  0  0  0
   37.4600   31.8420   39.7270 C   0  0  0  0  0  0  0  0  0  0  0  0
   38.4610   31.5730   40.6290 N   0  0  0  0  0  0  0  0  0  0  0  0
   39.2060   32.5840   41.1550 C   0  0  0  0  0  0  0  0  0  0  0  0
   38.9590   33.8630   40.7870 N   0  0  0  0  0  0  0  0  0  0  0  0
   37.7840   35.1790   39.6080 H   0  0  0  0  0  0  0  0  0  0  0  0
   36.4050   33.3390   38.6290 H   0  0  0  0  0  0  0  0  0  0  0  0
   39.9980   32.3730   41.8670 H   0  0  0  0  0  0  0  0  0  0  0  0
   37.2180   27.1610   38.8790 C   0  0  2  0  0  0  0  0  0  0  0  0
   36.4320   26.1950   39.6460 C   0  0  0  0  0  0  0  0  0  0  0  0
   37.7130   26.7990   40.1920 C   0  0  2  0  0  0  0  0  0  0  0  0
   37.7790   26.7540   38.0000 H   0  0  0  0  0  0  0  0  0  0  0  0
   35.6850   26.2660   40.3950 H   0  0  0  0  0  0  0  0  0  0  0  0
   36.5390   25.1080   39.3350 H   0  0  0  0  0  0  0  0  0  0  0  0
   38.6170   26.1200   40.2350 H   0  0  0  0  0  0  0  0  0  0  0  0
   37.7010   27.6940   41.3190 N   0  0  1  0  0  0  0  0  0  0  0  0
   37.0460   27.0250   42.4230 C   0  0  0  0  0  2  0  0  0  0  0  0
   37.6980   27.5230   43.6790 C   0  0  0  0  0  2  0  0  0  0  0  0
   39.0280   28.0350   43.2440 C   0  0  0  0  0  2  0  0  0  0  0  0
   38.9770   28.1410   41.7600 C   0  0  0  0  0  3  0  0  0  0  0  0
   39.8060   27.6050   41.2510 H   0  0  0  0  0  0  0  0  0  0  0  0
  1  6  1  6  0  0  0
  1 16  1  0  0  0  0
  1  2  1  0  0  0  0
  2  8  1  0  0  0  0
  2  7  1  0  0  0  0
  3  9  1  0  0  0  0
  3  2  1  0  0  0  0
  4 11  1  6  0  0  0
  4 23  1  0  0  0  0
  4  5  1  0  0  0  0
  4  3  1  0  0  0  0
  5  1  1  0  0  0  0
  5 13  1  0  0  0  0
 10  3  1  0  0  0  0
 12  5  1  0  0  0  0
 14 19  1  0  0  0  0
 15 16  1  0  0  0  0
 15 14  2  0  0  0  0
 16 17  2  0  0  0  0
 17 18  1  0  0  0  0
 18 22  1  0  0  0  0
 19 18  2  0  0  0  0
 20 14  1  0  0  0  0
 21 15  1  0  0  0  0
 23 26  1  6  0  0  0
 23 24  1  0  0  0  0
 23 25  1  0  0  0  0
 24 25  1  0  0  0  0
 24 27  1  0  0  0  0
 25 29  1  6  0  0  0
 25 30  1  0  0  0  0
 28 24  1  0  0  0  0
 30 34  1  0  0  0  0
 30 31  1  1  0  0  0
 31 32  1  0  0  0  0
 33 32  1  0  0  0  0
 34 33  1  0  0  0  0
 35 34  1  0  0  0  0
M  END
>  <minimizedAffinity>
-5.08901072

$$$$

 OpenBabel03252507533D

 35 38  0  0  1  0  0  0  0  0999 V2000
   37.6980   26.8670   42.4140 C   0  0  2  0  0  0  0  0  0  0  0  0
   36.9200   28.1560   42.5360 C   0  0  0  0  0  0  0  0  0  0  0  0
   37.8940   28.9400   43.4250 C   0  0  0  0  0  0  0  0  0  0  0  0
   39.2700   28.4810   43.0000 C   0  0  1  0  0  0  0  0  0  0  0  0
   39.0150   27.4610   41.9360 C   0  0  0  0  0  0  0  0  0  0  0  0
   37.7430   26.4200   43.4030 H   0  0  0  0  0  0  0  0  0  0  0  0
   36.7390   28.6580   41.5830 H   0  0  0  0  0  0  0  0  0  0  0  0
   36.0040   27.9670   43.1220 H   0  0  0  0  0  0  0  0  0  0  0  0
   37.8270   30.0160   43.1600 H   0  0  0  0  0  0  0  0  0  0  0  0
   37.6720   28.7350   44.4870 H   0  0  0  0  0  0  0  0  0  0  0  0
   39.7600   27.9990   43.8450 H   0  0  0  0  0  0  0  0  0  0  0  0
   39.7860   26.7160   41.7730 H   0  0  0  0  0  0  0  0  0  0  0  0
   38.6210   27.9120   40.9860 H   0  0  0  0  0  0  0  0  0  0  0  0
   36.4050   23.7980   40.6470 C   0  0  0  0  0  0  0  0  0  0  0  0
   36.9200   24.5910   41.6790 C   0  0  0  0  0  0  0  0  0  0  0  0
   37.1410   25.9420   41.3950 C   0  0  0  0  0  0  0  0  0  0  0  0
   36.8530   26.4360   40.1450 N   0  0  0  0  0  0  0  0  0  0  0  0
   36.3540   25.6180   39.1780 C   0  0  0  0  0  0  0  0  0  0  0  0
   36.1390   24.3090   39.4500 N   0  0  0  0  0  0  0  0  0  0  0  0
   36.2390   22.7510   40.8860 H   0  0  0  0  0  0  0  0  0  0  0  0
   37.1590   24.2340   42.6760 H   0  0  0  0  0  0  0  0  0  0  0  0
   36.1270   26.0060   38.1900 H   0  0  0  0  0  0  0  0  0  0  0  0
   40.0920   29.5530   42.3660 C   0  0  2  0  0  0  0  0  0  0  0  0
   39.8420   30.9410   42.7540 C   0  0  0  0  0  0  0  0  0  0  0  0
   39.6250   30.4550   41.3330 C   0  0  2  0  0  0  0  0  0  0  0  0
   41.1660   29.2400   42.3150 H   0  0  0  0  0  0  0  0  0  0  0  0
   38.9860   31.4910   43.0520 H   0  0  0  0  0  0  0  0  0  0  0  0
   40.7620   31.5970   42.8750 H   0  0  0  0  0  0  0  0  0  0  0  0
   40.3810   30.7910   40.5600 H   0  0  0  0  0  0  0  0  0  0  0  0
   38.3100   30.3860   40.7540 N   0  0  1  0  0  0  0  0  0  0  0  0
   37.7920   31.7340   40.6420 C   0  0  0  0  0  2  0  0  0  0  0  0
   36.9180   31.7610   39.4220 C   0  0  0  0  0  2  0  0  0  0  0  0
   37.3790   30.6110   38.5940 C   0  0  0  0  0  2  0  0  0  0  0  0
   38.2340   29.7700   39.4750 C   0  0  0  0  0  3  0  0  0  0  0  0
   39.2390   29.5660   39.0500 H   0  0  0  0  0  0  0  0  0  0  0  0
  1  2  1  0  0  0  0
  1  6  1  1  0  0  0
  2  8  1  0  0  0  0
  2  3  1  0  0  0  0
  3 10  1  0  0  0  0
  4  3  1  0  0  0  0
  4 11  1  1  0  0  0
  5  1  1  0  0  0  0
  5  4  1  0  0  0  0
  7  2  1  0  0  0  0
  9  3  1  0  0  0  0
 12  5  1  0  0  0  0
 13  5  1  0  0  0  0
 14 20  1  0  0  0  0
 14 15  1  0  0  0  0
 15 21  1  0  0  0  0
 16 15  2  0  0  0  0
 16  1  1  0  0  0  0
 17 16  1  0  0  0  0
 18 19  1  0  0  0  0
 18 17  2  0  0  0  0
 19 14  2  0  0  0  0
 22 18  1  0  0  0  0
 23 26  1  6  0  0  0
 23 24  1  0  0  0  0
 23  4  1  0  0  0  0
 24 28  1  0  0  0  0
 24 27  1  0  0  0  0
 25 29  1  6  0  0  0
 25 23  1  0  0  0  0
 25 24  1  0  0  0  0
 30 31  1  6  0  0  0
 30 25  1  0  0  0  0
 32 31  1  0  0  0  0
 33 32  1  0  0  0  0
 33 34  1  0  0  0  0
 34 30  1  0  0  0  0
 35 34  1  0  0  0  0
M  END
>  <minimizedAffinity>
-5.07094574

$$$$

 OpenBabel03252507533D

 35 38  0  0  1  0  0  0  0  0999 V2000
   38.0230   25.9380   41.4350 C   0  0  2  0  0  0  0  0  0  0  0  0
   36.9550   25.7830   42.4920 C   0  0  0  0  0  0  0  0  0  0  0  0
   36.7410   27.2640   42.8340 C   0  0  0  0  0  0  0  0  0  0  0  0
   36.9500   28.0020   41.5320 C   0  0  1  0  0  0  0  0  0  0  0  0
   37.2950   26.9320   40.5430 C   0  0  0  0  0  0  0  0  0  0  0  0
   38.9070   26.3400   41.9240 H   0  0  0  0  0  0  0  0  0  0  0  0
   36.0410   25.3080   42.1320 H   0  0  0  0  0  0  0  0  0  0  0  0
   37.3960   25.2920   43.3770 H   0  0  0  0  0  0  0  0  0  0  0  0
   35.6760   27.4120   43.1110 H   0  0  0  0  0  0  0  0  0  0  0  0
   37.4470   27.5650   43.6270 H   0  0  0  0  0  0  0  0  0  0  0  0
   37.7990   28.6750   41.6380 H   0  0  0  0  0  0  0  0  0  0  0  0
   37.8710   27.2320   39.6760 H   0  0  0  0  0  0  0  0  0  0  0  0
   36.4210   26.2720   40.2940 H   0  0  0  0  0  0  0  0  0  0  0  0
   38.0340   22.3410   40.3070 C   0  0  0  0  0  0  0  0  0  0  0  0
   37.6950   23.4740   41.0570 C   0  0  0  0  0  0  0  0  0  0  0  0
   38.3020   24.6810   40.6970 C   0  0  0  0  0  0  0  0  0  0  0  0
   39.1890   24.7160   39.6480 N   0  0  0  0  0  0  0  0  0  0  0  0
   39.4820   23.5830   38.9540 C   0  0  0  0  0  0  0  0  0  0  0  0
   38.8960   22.4120   39.2980 N   0  0  0  0  0  0  0  0  0  0  0  0
   37.5530   21.4120   40.6000 H   0  0  0  0  0  0  0  0  0  0  0  0
   37.0010   23.4800   41.8910 H   0  0  0  0  0  0  0  0  0  0  0  0
   40.1830   23.6100   38.1250 H   0  0  0  0  0  0  0  0  0  0  0  0
   35.7200   28.6700   41.0160 C   0  0  2  0  0  0  0  0  0  0  0  0
   35.3930   28.5240   39.5990 C   0  0  0  0  0  0  0  0  0  0  0  0
   35.7060   29.8760   40.2120 C   0  0  2  0  0  0  0  0  0  0  0  0
   34.8730   28.5340   41.7350 H   0  0  0  0  0  0  0  0  0  0  0  0
   35.9590   28.4250   38.7070 H   0  0  0  0  0  0  0  0  0  0  0  0
   34.2930   28.3790   39.3540 H   0  0  0  0  0  0  0  0  0  0  0  0
   34.8340   30.5830   40.3560 H   0  0  0  0  0  0  0  0  0  0  0  0
   36.8930   30.6060   39.8570 N   0  0  1  0  0  0  0  0  0  0  0  0
   36.7690   31.0320   38.4780 C   0  0  0  0  0  2  0  0  0  0  0  0
   37.4880   32.3430   38.3630 C   0  0  0  0  0  2  0  0  0  0  0  0
   37.5350   32.8790   39.7530 C   0  0  0  0  0  2  0  0  0  0  0  0
   37.1710   31.7510   40.6540 C   0  0  0  0  0  3  0  0  0  0  0  0
   36.3350   31.9910   41.3450 H   0  0  0  0  0  0  0  0  0  0  0  0
  1  6  1  1  0  0  0
  1  2  1  0  0  0  0
  2  3  1  0  0  0  0
  2  8  1  0  0  0  0
  3  9  1  0  0  0  0
  3 10  1  0  0  0  0
  4 11  1  1  0  0  0
  4  3  1  0  0  0  0
  5  1  1  0  0  0  0
  5  4  1  0  0  0  0
  7  2  1  0  0  0  0
 12  5  1  0  0  0  0
 13  5  1  0  0  0  0
 14 20  1  0  0  0  0
 14 15  1  0  0  0  0
 15 21  1  0  0  0  0
 16 15  2  0  0  0  0
 16  1  1  0  0  0  0
 17 16  1  0  0  0  0
 18 19  1  0  0  0  0
 18 17  2  0  0  0  0
 19 14  2  0  0  0  0
 22 18  1  0  0  0  0
 23  4  1  0  0  0  0
 23 26  1  1  0  0  0
 24 25  1  0  0  0  0
 24 23  1  0  0  0  0
 25 29  1  1  0  0  0
 25 23  1  0  0  0  0
 27 24  1  0  0  0  0
 28 24  1  0  0  0  0
 30 31  1  6  0  0  0
 30 25  1  0  0  0  0
 30 34  1  0  0  0  0
 32 31  1  0  0  0  0
 32 33  1  0  0  0  0
 33 34  1  0  0  0  0
 34 35  1  0  0  0  0
M  END
>  <minimizedAffinity>
-5.04523563

$$$$

 OpenBabel03252507533D

 35 38  0  0  1  0  0  0  0  0999 V2000
   38.3330   27.1130   42.0170 C   0  0  2  0  0  0  0  0  0  0  0  0
   37.4750   27.3390   43.2390 C   0  0  0  0  0  0  0  0  0  0  0  0
   37.5590   28.8700   43.3110 C   0  0  0  0  0  0  0  0  0  0  0  0
   37.6270   29.3270   41.8720 C   0  0  1  0  0  0  0  0  0  0  0  0
   37.6090   28.0620   41.0730 C   0  0  0  0  0  0  0  0  0  0  0  0
   39.3450   27.4210   42.2690 H   0  0  0  0  0  0  0  0  0  0  0  0
   36.4470   26.9890   43.1310 H   0  0  0  0  0  0  0  0  0  0  0  0
   37.9960   26.9300   44.1220 H   0  0  0  0  0  0  0  0  0  0  0  0
   36.6020   29.2570   43.7190 H   0  0  0  0  0  0  0  0  0  0  0  0
   38.4410   29.1640   43.9060 H   0  0  0  0  0  0  0  0  0  0  0  0
   38.5740   29.8390   41.7070 H   0  0  0  0  0  0  0  0  0  0  0  0
   38.0480   28.1000   40.0830 H   0  0  0  0  0  0  0  0  0  0  0  0
   36.6130   27.5440   41.1010 H   0  0  0  0  0  0  0  0  0  0  0  0
   37.1750   23.6260   41.1770 C   0  0  0  0  0  0  0  0  0  0  0  0
   37.1300   24.9310   41.6810 C   0  0  0  0  0  0  0  0  0  0  0  0
   38.2710   25.7210   41.5070 C   0  0  0  0  0  0  0  0  0  0  0  0
   39.3700   25.2050   40.8630 N   0  0  0  0  0  0  0  0  0  0  0  0
   39.3580   23.9280   40.3930 C   0  0  0  0  0  0  0  0  0  0  0  0
   38.2560   23.1600   40.5590 N   0  0  0  0  0  0  0  0  0  0  0  0
   36.2800   23.0270   41.3210 H   0  0  0  0  0  0  0  0  0  0  0  0
   36.2790   25.3680   42.1950 H   0  0  0  0  0  0  0  0  0  0  0  0
   40.2260   23.5190   39.8850 H   0  0  0  0  0  0  0  0  0  0  0  0
   36.4380   30.1170   41.4360 C   0  0  2  0  0  0  0  0  0  0  0  0
   35.4100   29.4440   40.6440 C   0  0  0  0  0  0  0  0  0  0  0  0
   36.2140   30.6060   40.0910 C   0  0  2  0  0  0  0  0  0  0  0  0
   36.0720   30.7630   42.2750 H   0  0  0  0  0  0  0  0  0  0  0  0
   35.4110   28.6650   39.9240 H   0  0  0  0  0  0  0  0  0  0  0  0
   34.3340   29.7130   40.8930 H   0  0  0  0  0  0  0  0  0  0  0  0
   35.6720   31.5940   39.9830 H   0  0  0  0  0  0  0  0  0  0  0  0
   37.1520   30.4260   39.0150 N   0  0  1  0  0  0  0  0  0  0  0  0
   36.4230   29.9790   37.8460 C   0  0  0  0  0  2  0  0  0  0  0  0
   37.1350   30.5410   36.6510 C   0  0  0  0  0  2  0  0  0  0  0  0
   37.9090   31.7020   37.1760 C   0  0  0  0  0  2  0  0  0  0  0  0
   37.9050   31.5790   38.6590 C   0  0  0  0  0  3  0  0  0  0  0  0
   37.5410   32.4910   39.1770 H   0  0  0  0  0  0  0  0  0  0  0  0
  1  6  1  1  0  0  0
  1  2  1  0  0  0  0
  2  3  1  0  0  0  0
  2  8  1  0  0  0  0
  3  9  1  0  0  0  0
  3 10  1  0  0  0  0
  4 11  1  6  0  0  0
  4  3  1  0  0  0  0
  5 13  1  0  0  0  0
  5  4  1  0  0  0  0
  5  1  1  0  0  0  0
  7  2  1  0  0  0  0
 12  5  1  0  0  0  0
 14 20  1  0  0  0  0
 14 15  1  0  0  0  0
 15 21  1  0  0  0  0
 16 15  2  0  0  0  0
 16  1  1  0  0  0  0
 17 16  1  0  0  0  0
 18 19  1  0  0  0  0
 18 17  2  0  0  0  0
 19 14  2  0  0  0  0
 22 18  1  0  0  0  0
 23  4  1  0  0  0  0
 23 26  1  1  0  0  0
 24 28  1  0  0  0  0
 24 23  1  0  0  0  0
 25 29  1  6  0  0  0
 25 24  1  0  0  0  0
 25 23  1  0  0  0  0
 27 24  1  0  0  0  0
 30 31  1  6  0  0  0
 30 25  1  0  0  0  0
 32 33  1  0  0  0  0
 32 31  1  0  0  0  0
 33 34  1  0  0  0  0
 34 30  1  0  0  0  0
 34 35  1  0  0  0  0
M  END
>  <minimizedAffinity>
-4.91636467

$$$$
