
 OpenBabel03252509353D

 41 43  0  0  1  0  0  0  0  0999 V2000
   44.5260   35.4750   44.1130 O   0  0  0  0  0  0  0  0  0  0  0  0
   45.3830   34.2520   44.3720 P   0  0  1  0  0  0  0  0  0  0  0  0
   44.7010   32.8650   43.6760 O   0  0  0  0  0  0  0  0  0  0  0  0
   44.3480   33.1650   42.7930 H   0  0  0  0  0  0  0  0  0  0  0  0
   46.8930   34.5340   43.7170 O   0  0  0  0  0  0  0  0  0  0  0  0
   47.0220   33.8340   42.5120 C   0  0  1  0  0  0  0  0  0  0  0  0
   46.4420   34.6640   41.3630 C   0  0  0  0  0  0  0  0  0  0  0  0
   46.9550   33.8980   40.1740 C   0  0  0  0  0  0  0  0  0  0  0  0
   48.2300   33.2180   40.6300 C   0  0  0  0  0  0  0  0  0  0  0  0
   48.4410   33.6910   42.0540 C   0  0  1  0  0  0  0  0  0  0  0  0
   46.4980   32.8820   42.5100 H   0  0  0  0  0  0  0  0  0  0  0  0
   46.7080   35.7140   41.3980 H   0  0  0  0  0  0  0  0  0  0  0  0
   45.3250   34.5870   41.3990 H   0  0  0  0  0  0  0  0  0  0  0  0
   47.2630   34.6000   39.3670 H   0  0  0  0  0  0  0  0  0  0  0  0
   46.1870   33.1810   39.8370 H   0  0  0  0  0  0  0  0  0  0  0  0
   49.1000   33.4320   39.9830 H   0  0  0  0  0  0  0  0  0  0  0  0
   47.9940   32.1280   40.6980 H   0  0  0  0  0  0  0  0  0  0  0  0
   48.9310   32.8950   42.6730 H   0  0  0  0  0  0  0  0  0  0  0  0
   49.2070   34.9890   42.1120 C   0  0  0  0  0  0  0  0  0  0  0  0
   48.5220   35.8840   42.1790 H   0  0  0  0  0  0  0  0  0  0  0  0
   49.8040   35.1250   41.1850 H   0  0  0  0  0  0  0  0  0  0  0  0
   50.0070   35.0680   43.2290 O   0  0  0  0  0  0  0  0  0  0  0  0
   50.5520   34.2890   43.4330 H   0  0  0  0  0  0  0  0  0  0  0  0
   45.4940   33.9530   46.0090 O   0  0  0  0  0  0  0  0  0  0  0  0
   46.4410   33.0000   46.2240 C   0  0  0  0  0  0  0  0  0  0  0  0
   46.8720   32.4970   45.3660 H   0  0  0  0  0  0  0  0  0  0  0  0
   47.3080   33.5440   46.7060 H   0  0  0  0  0  0  0  0  0  0  0  0
   45.2540   31.4680   49.3980 C   0  0  0  0  0  0  0  0  0  0  0  0
   45.6400   32.4370   48.4710 C   0  0  0  0  0  0  0  0  0  0  0  0
   46.0270   31.9900   47.2110 C   0  0  0  0  0  0  0  0  0  0  0  0
   46.0090   30.6520   46.9510 N   0  0  0  0  0  0  0  0  0  0  0  0
   45.6310   29.7350   47.8660 C   0  0  0  0  0  0  0  0  0  0  0  0
   45.2600   30.1440   49.0710 N   0  0  0  0  0  0  0  0  0  0  0  0
   44.9530   31.8020   50.3730 H   0  0  0  0  0  0  0  0  0  0  0  0
   45.6240   33.4810   48.7650 H   0  0  0  0  0  0  0  0  0  0  0  0
   45.6320   28.3500   47.5400 N   0  0  0  0  0  0  0  0  0  0  0  0
   44.6200   27.3490   47.8110 C   0  0  0  0  0  2  0  0  0  0  0  0
   44.7550   26.3260   46.6850 C   0  0  0  0  0  2  0  0  0  0  0  0
   45.8960   26.8480   45.8280 C   0  0  0  0  0  2  0  0  0  0  0  0
   46.6890   27.6430   46.8440 C   0  0  0  0  0  3  0  0  0  0  0  0
   47.4020   28.3270   46.3400 H   0  0  0  0  0  0  0  0  0  0  0  0
  2  1  2  6  0  0  0
  2 24  1  0  0  0  0
  3  2  1  0  0  0  0
  4  3  1  0  0  0  0
  5  2  1  0  0  0  0
  6 11  1  1  0  0  0
  6  5  1  0  0  0  0
  7 12  1  0  0  0  0
  7 13  1  0  0  0  0
  7  6  1  0  0  0  0
  8  9  1  0  0  0  0
  8  7  1  0  0  0  0
  9 17  1  0  0  0  0
  9 10  1  0  0  0  0
 10 19  1  0  0  0  0
 10  6  1  0  0  0  0
 10 18  1  1  0  0  0
 14  8  1  0  0  0  0
 15  8  1  0  0  0  0
 16  9  1  0  0  0  0
 19 20  1  0  0  0  0
 19 22  1  0  0  0  0
 21 19  1  0  0  0  0
 22 23  1  0  0  0  0
 24 25  1  0  0  0  0
 25 27  1  0  0  0  0
 25 30  1  0  0  0  0
 26 25  1  0  0  0  0
 28 34  1  0  0  0  0
 29 35  1  0  0  0  0
 29 28  2  0  0  0  0
 30 29  1  0  0  0  0
 31 30  2  0  0  0  0
 31 32  1  0  0  0  0
 32 33  2  0  0  0  0
 33 28  1  0  0  0  0
 36 37  1  0  0  0  0
 36 32  1  0  0  0  0
 38 37  1  0  0  0  0
 39 38  1  0  0  0  0
 39 40  1  0  0  0  0
 40 36  1  0  0  0  0
 41 40  1  0  0  0  0
M  END
>  <minimizedAffinity>
-5.96419525

>  <minimizedRMSD>
1.06703866

$$$$
