
 OpenBabel03252509353D

 41 43  0  0  1  0  0  0  0  0999 V2000
   44.5230   35.4760   44.0510 O   0  0  0  0  0  0  0  0  0  0  0  0
   45.3830   34.2660   44.3600 P   0  0  1  0  0  0  0  0  0  0  0  0
   44.7180   32.8540   43.7010 O   0  0  0  0  0  0  0  0  0  0  0  0
   44.3740   33.1240   42.8050 H   0  0  0  0  0  0  0  0  0  0  0  0
   46.9000   34.5360   43.7160 O   0  0  0  0  0  0  0  0  0  0  0  0
   47.0310   33.8370   42.5110 C   0  0  1  0  0  0  0  0  0  0  0  0
   46.4490   34.6640   41.3620 C   0  0  0  0  0  0  0  0  0  0  0  0
   46.9640   33.8990   40.1730 C   0  0  0  0  0  0  0  0  0  0  0  0
   48.2410   33.2230   40.6290 C   0  0  0  0  0  0  0  0  0  0  0  0
   48.4500   33.6980   42.0540 C   0  0  1  0  0  0  0  0  0  0  0  0
   46.5090   32.8830   42.5090 H   0  0  0  0  0  0  0  0  0  0  0  0
   46.7110   35.7150   41.3960 H   0  0  0  0  0  0  0  0  0  0  0  0
   45.3310   34.5840   41.3980 H   0  0  0  0  0  0  0  0  0  0  0  0
   47.2690   34.6020   39.3660 H   0  0  0  0  0  0  0  0  0  0  0  0
   46.1980   33.1790   39.8360 H   0  0  0  0  0  0  0  0  0  0  0  0
   49.1090   33.4400   39.9830 H   0  0  0  0  0  0  0  0  0  0  0  0
   48.0080   32.1330   40.6980 H   0  0  0  0  0  0  0  0  0  0  0  0
   48.9420   32.9030   42.6720 H   0  0  0  0  0  0  0  0  0  0  0  0
   49.2120   34.9970   42.1100 C   0  0  0  0  0  0  0  0  0  0  0  0
   48.5250   35.8900   42.1810 H   0  0  0  0  0  0  0  0  0  0  0  0
   49.8060   35.1370   41.1820 H   0  0  0  0  0  0  0  0  0  0  0  0
   50.0150   35.0780   43.2260 O   0  0  0  0  0  0  0  0  0  0  0  0
   50.5630   34.3000   43.4260 H   0  0  0  0  0  0  0  0  0  0  0  0
   45.4740   34.0210   46.0070 O   0  0  0  0  0  0  0  0  0  0  0  0
   46.4230   33.0810   46.2650 C   0  0  0  0  0  0  0  0  0  0  0  0
   46.9360   32.6210   45.4280 H   0  0  0  0  0  0  0  0  0  0  0  0
   47.2330   33.6220   46.8390 H   0  0  0  0  0  0  0  0  0  0  0  0
   45.1950   31.3720   49.3310 C   0  0  0  0  0  0  0  0  0  0  0  0
   45.6350   32.3860   48.4790 C   0  0  0  0  0  0  0  0  0  0  0  0
   45.9520   32.0220   47.1730 C   0  0  0  0  0  0  0  0  0  0  0  0
   45.8190   30.7180   46.8000 N   0  0  0  0  0  0  0  0  0  0  0  0
   45.3910   29.7560   47.6440 C   0  0  0  0  0  0  0  0  0  0  0  0
   45.0840   30.0860   48.8920 N   0  0  0  0  0  0  0  0  0  0  0  0
   44.9460   31.6400   50.3410 H   0  0  0  0  0  0  0  0  0  0  0  0
   45.7110   33.3970   48.8630 H   0  0  0  0  0  0  0  0  0  0  0  0
   45.2710   28.4110   47.2000 N   0  0  0  0  0  0  0  0  0  0  0  0
   46.2580   27.3490   47.2310 C   0  0  0  0  0  2  0  0  0  0  0  0
   45.4540   26.0570   47.3500 C   0  0  0  0  0  2  0  0  0  0  0  0
   44.0020   26.5080   47.3680 C   0  0  0  0  0  2  0  0  0  0  0  0
   44.0910   27.8140   46.6060 C   0  0  0  0  0  3  0  0  0  0  0  0
   43.1770   28.4240   46.7650 H   0  0  0  0  0  0  0  0  0  0  0  0
  2  1  2  6  0  0  0
  2 24  1  0  0  0  0
  3  2  1  0  0  0  0
  4  3  1  0  0  0  0
  5  2  1  0  0  0  0
  6 11  1  1  0  0  0
  6  5  1  0  0  0  0
  7 12  1  0  0  0  0
  7 13  1  0  0  0  0
  7  6  1  0  0  0  0
  8  9  1  0  0  0  0
  8  7  1  0  0  0  0
  9 17  1  0  0  0  0
  9 10  1  0  0  0  0
 10 19  1  0  0  0  0
 10  6  1  0  0  0  0
 10 18  1  1  0  0  0
 14  8  1  0  0  0  0
 15  8  1  0  0  0  0
 16  9  1  0  0  0  0
 19 20  1  0  0  0  0
 19 22  1  0  0  0  0
 21 19  1  0  0  0  0
 22 23  1  0  0  0  0
 24 25  1  0  0  0  0
 25 27  1  0  0  0  0
 25 30  1  0  0  0  0
 26 25  1  0  0  0  0
 28 34  1  0  0  0  0
 29 35  1  0  0  0  0
 29 28  2  0  0  0  0
 30 29  1  0  0  0  0
 31 30  2  0  0  0  0
 31 32  1  0  0  0  0
 32 33  2  0  0  0  0
 33 28  1  0  0  0  0
 36 37  1  0  0  0  0
 36 32  1  0  0  0  0
 37 38  1  0  0  0  0
 38 39  1  0  0  0  0
 40 41  1  0  0  0  0
 40 36  1  0  0  0  0
 40 39  1  0  0  0  0
M  END
>  <minimizedAffinity>
-6.14190245

>  <minimizedRMSD>
1.08932793

$$$$
