
 OpenBabel03242522263D

 35 38  0  0  0  0  0  0  0  0999 V2000
   45.5610   33.1340   41.2520 F   0  0  0  0  0  0  0  0  0  0  0  0
   46.6140   34.0000   41.0790 C   0  0  0  0  0  0  0  0  0  0  0  0
   46.9970   34.8170   42.0870 C   0  0  0  0  0  0  0  0  0  0  0  0
   48.1210   35.5820   41.8580 C   0  0  0  0  0  0  0  0  0  0  0  0
   48.8270   35.5310   40.6830 C   0  0  0  0  0  0  0  0  0  0  0  0
   48.3610   34.6700   39.7190 C   0  0  0  0  0  0  0  0  0  0  0  0
   47.2510   33.8910   39.8830 C   0  0  0  0  0  0  0  0  0  0  0  0
   48.3400   36.2120   42.7380 H   0  0  0  0  0  0  0  0  0  0  0  0
   49.6590   36.2030   40.7260 H   0  0  0  0  0  0  0  0  0  0  0  0
   49.0960   34.8040   38.9770 H   0  0  0  0  0  0  0  0  0  0  0  0
   46.8450   33.0660   38.7740 C   0  0  0  0  0  0  0  0  0  0  0  0
   45.5850   33.2310   38.2370 C   0  0  0  0  0  0  0  0  0  0  0  0
   45.1930   32.3860   37.2240 C   0  0  0  0  0  0  0  0  0  0  0  0
   46.0370   31.3820   36.7400 C   0  0  0  0  0  0  0  0  0  0  0  0
   47.3120   31.2660   37.3280 C   0  0  0  0  0  0  0  0  0  0  0  0
   47.7140   32.1080   38.3400 C   0  0  0  0  0  0  0  0  0  0  0  0
   44.8110   33.9080   38.4680 H   0  0  0  0  0  0  0  0  0  0  0  0
   44.2090   32.4440   36.7350 H   0  0  0  0  0  0  0  0  0  0  0  0
   45.6580   30.7380   35.9290 H   0  0  0  0  0  0  0  0  0  0  0  0
   47.8400   30.4560   36.8570 H   0  0  0  0  0  0  0  0  0  0  0  0
   49.0530   31.7660   38.5590 N   0  0  0  0  0  0  0  0  0  0  0  0
   49.6580   31.1550   39.7630 C   0  0  0  0  0  0  0  0  0  0  0  0
   51.1450   31.3350   39.4820 C   0  0  0  0  0  0  0  0  0  0  0  0
   51.2520   31.3190   37.9740 C   0  0  0  0  0  0  0  0  0  0  0  0
   50.0620   32.1180   37.5320 C   0  0  0  0  0  0  0  0  0  0  0  0
   49.7030   31.8360   36.5210 H   0  0  0  0  0  0  0  0  0  0  0  0
   44.5320   35.6770   44.8270 C   0  0  0  0  0  0  0  0  0  0  0  0
   45.2350   35.7330   43.6150 C   0  0  0  0  0  0  0  0  0  0  0  0
   46.2290   34.8170   43.3240 C   0  0  0  0  0  0  0  0  0  0  0  0
   46.4590   33.8800   44.2890 N   0  0  0  0  0  0  0  0  0  0  0  0
   45.7790   33.8410   45.4410 C   0  0  0  0  0  0  0  0  0  0  0  0
   44.8220   34.7330   45.7070 N   0  0  0  0  0  0  0  0  0  0  0  0
   43.7550   36.3980   45.0510 H   0  0  0  0  0  0  0  0  0  0  0  0
   45.0100   36.4970   42.8840 H   0  0  0  0  0  0  0  0  0  0  0  0
   46.1000   33.0380   46.0710 H   0  0  0  0  0  0  0  0  0  0  0  0
  2  1  1  0  0  0  0
  2  3  1  0  0  0  0
  3 29  1  0  0  0  0
  4  3  2  0  0  0  0
  4  8  1  0  0  0  0
  5  9  1  0  0  0  0
  5  4  1  0  0  0  0
  6  7  1  0  0  0  0
  6  5  2  0  0  0  0
  7  2  2  0  0  0  0
 10  6  1  0  0  0  0
 11  7  1  0  0  0  0
 12 17  1  0  0  0  0
 12 11  2  0  0  0  0
 13 12  1  0  0  0  0
 14 13  2  0  0  0  0
 14 15  1  0  0  0  0
 15 16  2  0  0  0  0
 16 21  1  0  0  0  0
 16 11  1  0  0  0  0
 18 13  1  0  0  0  0
 19 14  1  0  0  0  0
 20 15  1  0  0  0  0
 21 22  1  0  0  0  0
 23 22  1  0  0  0  0
 24 23  1  0  0  0  0
 25 24  1  0  0  0  0
 25 21  1  0  0  0  0
 26 25  1  0  0  0  0
 27 33  1  0  0  0  0
 27 32  1  0  0  0  0
 28 27  2  0  0  0  0
 29 28  1  0  0  0  0
 29 30  2  0  0  0  0
 30 31  1  0  0  0  0
 31 32  2  0  0  0  0
 31 35  1  0  0  0  0
 34 28  1  0  0  0  0
M  END
>  <minimizedAffinity>
-5.92562819

>  <minimizedRMSD>
2.13365984

$$$$
