
 OpenBabel03242518453D

 42 45  0  0  1  0  0  0  0  0999 V2000
   47.4600   32.9810   44.4020 C   0  0  2  0  0  0  0  0  0  0  0  0
   47.3740   33.3800   42.9710 C   0  0  1  0  0  0  0  0  0  0  0  0
   47.3230   32.1720   42.0350 C   0  0  0  0  0  0  0  0  0  0  0  0
   48.4500   31.4220   42.3860 O   0  0  0  0  0  0  0  0  0  0  0  0
   48.2740   30.7830   43.5980 C   0  0  0  0  0  0  0  0  0  0  0  0
   47.2960   31.4540   44.5110 C   0  0  1  0  0  0  0  0  0  0  0  0
   48.4450   33.2300   44.7990 H   0  0  0  0  0  0  0  0  0  0  0  0
   48.2800   33.9750   42.6770 H   0  0  0  0  0  0  0  0  0  0  0  0
   47.4600   32.5470   41.0140 H   0  0  0  0  0  0  0  0  0  0  0  0
   46.3880   31.6050   42.1660 H   0  0  0  0  0  0  0  0  0  0  0  0
   49.2650   30.7850   44.1290 H   0  0  0  0  0  0  0  0  0  0  0  0
   47.9810   29.7250   43.4150 H   0  0  0  0  0  0  0  0  0  0  0  0
   46.2350   31.2870   44.2210 H   0  0  0  0  0  0  0  0  0  0  0  0
   45.0270   36.1850   42.8380 C   0  0  0  0  0  0  0  0  0  0  0  0
   44.0000   35.7360   41.9520 C   0  0  0  0  0  0  0  0  0  0  0  0
   44.1770   34.4340   41.4220 C   0  0  0  0  0  0  0  0  0  0  0  0
   45.2680   33.7170   41.7710 N   0  0  0  0  0  0  0  0  0  0  0  0
   46.2040   34.2010   42.6160 C   0  0  0  0  0  0  0  0  0  0  0  0
   46.0820   35.4340   43.1480 N   0  0  0  0  0  0  0  0  0  0  0  0
   43.1470   36.3080   41.6840 H   0  0  0  0  0  0  0  0  0  0  0  0
   43.4040   34.0890   40.7510 H   0  0  0  0  0  0  0  0  0  0  0  0
   44.8710   37.4330   43.3570 O   0  0  0  0  0  0  0  0  0  0  0  0
   44.0960   37.6350   43.9920 H   0  0  0  0  0  0  0  0  0  0  0  0
   46.4910   33.5780   45.2110 O   0  0  0  0  0  0  0  0  0  0  0  0
   45.6210   33.4920   44.7470 H   0  0  0  0  0  0  0  0  0  0  0  0
   47.4670   31.1310   45.8370 O   0  0  0  0  0  0  0  0  0  0  0  0
   46.4020   28.6610   45.6000 F   0  0  0  0  0  0  0  0  0  0  0  0
   46.1840   29.4970   46.6350 C   0  0  0  0  0  0  0  0  0  0  0  0
   46.6850   30.7640   46.8390 C   0  0  0  0  0  0  0  0  0  0  0  0
   46.2840   31.3760   48.0150 C   0  0  0  0  0  0  0  0  0  0  0  0
   45.4450   30.8240   48.9650 C   0  0  0  0  0  0  0  0  0  0  0  0
   44.9790   29.5680   48.7100 C   0  0  0  0  0  0  0  0  0  0  0  0
   45.3300   28.8850   47.5590 C   0  0  0  0  0  0  0  0  0  0  0  0
   46.7250   32.3850   48.1080 H   0  0  0  0  0  0  0  0  0  0  0  0
   45.2130   31.4020   49.8280 H   0  0  0  0  0  0  0  0  0  0  0  0
   44.3190   29.1520   49.4730 H   0  0  0  0  0  0  0  0  0  0  0  0
   44.7560   27.5960   47.4580 N   0  0  0  0  0  0  0  0  0  0  0  0
   43.9570   27.1830   46.3200 C   0  0  0  0  0  0  0  0  0  0  0  0
   42.8740   26.3580   46.9760 C   0  0  0  0  0  0  0  0  0  0  0  0
   43.6080   25.6490   48.0730 C   0  0  0  0  0  0  0  0  0  0  0  0
   44.8130   26.4770   48.3690 C   0  0  0  0  0  0  0  0  0  0  0  0
   45.7420   25.8830   48.2900 H   0  0  0  0  0  0  0  0  0  0  0  0
  1  6  1  0  0  0  0
  1  7  1  1  0  0  0
  1 24  1  0  0  0  0
  2  8  1  6  0  0  0
  2  1  1  0  0  0  0
  3 10  1  0  0  0  0
  3  4  1  0  0  0  0
  3  2  1  0  0  0  0
  4  5  1  0  0  0  0
  5 11  1  0  0  0  0
  5  6  1  0  0  0  0
  6 13  1  6  0  0  0
  6 26  1  0  0  0  0
  9  3  1  0  0  0  0
 12  5  1  0  0  0  0
 14 19  1  0  0  0  0
 14 22  1  0  0  0  0
 15 14  2  0  0  0  0
 16 17  2  0  0  0  0
 16 15  1  0  0  0  0
 17 18  1  0  0  0  0
 18  2  1  0  0  0  0
 18 19  2  0  0  0  0
 20 15  1  0  0  0  0
 21 16  1  0  0  0  0
 22 23  1  0  0  0  0
 25 24  1  0  0  0  0
 26 29  1  0  0  0  0
 27 28  1  0  0  0  0
 28 29  2  0  0  0  0
 28 33  1  0  0  0  0
 29 30  1  0  0  0  0
 30 34  1  0  0  0  0
 30 31  2  0  0  0  0
 31 35  1  0  0  0  0
 32 31  1  0  0  0  0
 32 36  1  0  0  0  0
 33 32  2  0  0  0  0
 37 33  1  0  0  0  0
 37 41  1  0  0  0  0
 38 39  1  0  0  0  0
 38 37  1  0  0  0  0
 39 40  1  0  0  0  0
 40 41  1  0  0  0  0
 42 41  1  0  0  0  0
M  END
>  <minimizedAffinity>
-5.59926414

>  <minimizedRMSD>
0.947151244

$$$$
