
 OpenBabel03242521263D

 39 42  0  0  0  0  0  0  0  0999 V2000
   38.0850   30.8050   40.1080 C   0  0  0  0  0  0  0  0  0  0  0  0
   37.3270   31.9050   39.9020 C   0  0  0  0  0  0  0  0  0  0  0  0
   37.7880   33.1920   40.0490 C   0  0  0  0  0  0  0  0  0  0  0  0
   39.0760   33.3200   40.4210 N   0  0  0  0  0  0  0  0  0  0  0  0
   39.8390   32.2250   40.6280 C   0  0  0  0  0  0  0  0  0  0  0  0
   39.3810   30.9670   40.4830 N   0  0  0  0  0  0  0  0  0  0  0  0
   36.2890   31.8020   39.6020 H   0  0  0  0  0  0  0  0  0  0  0  0
   37.1600   34.0630   39.8780 H   0  0  0  0  0  0  0  0  0  0  0  0
   36.1970   27.9730   38.7610 C   0  0  0  0  0  0  0  0  0  0  0  0
   36.5810   26.9370   39.6160 C   0  0  0  0  0  0  0  0  0  0  0  0
   37.4770   27.1830   40.6510 C   0  0  0  0  0  0  0  0  0  0  0  0
   37.9560   28.4640   40.7880 N   0  0  0  0  0  0  0  0  0  0  0  0
   37.5640   29.4510   39.9420 C   0  0  0  0  0  0  0  0  0  0  0  0
   36.6980   29.1980   38.9470 N   0  0  0  0  0  0  0  0  0  0  0  0
   35.4970   27.7100   37.9780 H   0  0  0  0  0  0  0  0  0  0  0  0
   36.2200   25.9190   39.5300 H   0  0  0  0  0  0  0  0  0  0  0  0
   37.9210   26.2010   41.5620 N   0  0  0  0  0  0  0  0  0  0  0  0
   37.2490   25.0150   42.0580 C   0  0  0  0  0  2  0  0  0  0  0  0
   38.4340   24.0580   42.1720 C   0  0  0  0  0  2  0  0  0  0  0  0
   39.3890   24.9690   42.9500 C   0  0  0  0  0  2  0  0  0  0  0  0
   39.2520   26.2640   42.1820 C   0  0  0  0  0  3  0  0  0  0  0  0
   40.0140   26.3350   41.3930 H   0  0  0  0  0  0  0  0  0  0  0  0
   41.2520   32.3880   41.0370 C   0  0  0  0  0  0  0  0  0  0  0  0
   41.6930   31.8000   42.2080 C   0  0  0  0  0  0  0  0  0  0  0  0
   42.9950   31.8890   42.6830 C   0  0  0  0  0  0  0  0  0  0  0  0
   43.8860   32.6230   41.9100 C   0  0  0  0  0  0  0  0  0  0  0  0
   43.4480   33.1990   40.7590 C   0  0  0  0  0  0  0  0  0  0  0  0
   42.1560   33.1100   40.2900 C   0  0  0  0  0  0  0  0  0  0  0  0
   40.9780   31.2280   42.8010 H   0  0  0  0  0  0  0  0  0  0  0  0
   43.2760   31.4050   43.6080 H   0  0  0  0  0  0  0  0  0  0  0  0
   44.9130   32.7300   42.2230 H   0  0  0  0  0  0  0  0  0  0  0  0
   44.1130   33.7870   40.1160 H   0  0  0  0  0  0  0  0  0  0  0  0
   41.6970   33.6830   39.1340 O   0  0  0  0  0  0  0  0  0  0  0  0
   42.7320   31.8180   37.6270 O   0  0  0  0  0  0  0  0  0  0  0  0
   41.7870   33.0150   37.5780 P   0  0  0  0  0  0  0  0  0  0  0  0
   40.3040   32.5860   36.9260 O   0  0  0  0  0  0  0  0  0  0  0  0
   39.7130   32.2650   37.6260 H   0  0  0  0  0  0  0  0  0  0  0  0
   42.5030   34.1480   36.5500 O   0  0  0  0  0  0  0  0  0  0  0  0
   43.4790   34.2090   36.6800 H   0  0  0  0  0  0  0  0  0  0  0  0
  1  6  1  0  0  0  0
  2  3  1  0  0  0  0
  2  1  2  0  0  0  0
  3  4  2  0  0  0  0
  4  5  1  0  0  0  0
  5 23  1  0  0  0  0
  6  5  2  0  0  0  0
  7  2  1  0  0  0  0
  8  3  1  0  0  0  0
  9 14  2  0  0  0  0
  9 10  1  0  0  0  0
 10 11  2  0  0  0  0
 11 12  1  0  0  0  0
 11 17  1  0  0  0  0
 13  1  1  0  0  0  0
 13 12  2  0  0  0  0
 14 13  1  0  0  0  0
 15  9  1  0  0  0  0
 16 10  1  0  0  0  0
 17 18  1  0  0  0  0
 17 21  1  0  0  0  0
 18 19  1  0  0  0  0
 19 20  1  0  0  0  0
 21 20  1  0  0  0  0
 22 21  1  0  0  0  0
 23 24  1  0  0  0  0
 24 25  2  0  0  0  0
 24 29  1  0  0  0  0
 25 30  1  0  0  0  0
 26 31  1  0  0  0  0
 26 25  1  0  0  0  0
 27 26  2  0  0  0  0
 28 27  1  0  0  0  0
 28 23  2  0  0  0  0
 32 27  1  0  0  0  0
 33 28  1  0  0  0  0
 35 34  2  0  0  0  0
 35 33  1  0  0  0  0
 36 35  1  0  0  0  0
 36 37  1  0  0  0  0
 38 39  1  0  0  0  0
 38 35  1  0  0  0  0
M  END
>  <minimizedAffinity>
-6.66917992

$$$$

 OpenBabel03242521263D

 39 42  0  0  0  0  0  0  0  0999 V2000
   37.7340   31.8320   39.8970 C   0  0  0  0  0  0  0  0  0  0  0  0
   37.3770   33.1350   39.9080 C   0  0  0  0  0  0  0  0  0  0  0  0
   38.2270   34.1610   40.2490 C   0  0  0  0  0  0  0  0  0  0  0  0
   39.4810   33.8020   40.5850 N   0  0  0  0  0  0  0  0  0  0  0  0
   39.8450   32.5020   40.5770 C   0  0  0  0  0  0  0  0  0  0  0  0
   39.0070   31.5020   40.2420 N   0  0  0  0  0  0  0  0  0  0  0  0
   36.3660   33.4250   39.6360 H   0  0  0  0  0  0  0  0  0  0  0  0
   37.9180   35.2040   40.2510 H   0  0  0  0  0  0  0  0  0  0  0  0
   35.1130   29.2920   40.1650 C   0  0  0  0  0  0  0  0  0  0  0  0
   35.0710   28.7820   38.8650 C   0  0  0  0  0  0  0  0  0  0  0  0
   35.9230   29.2880   37.8900 C   0  0  0  0  0  0  0  0  0  0  0  0
   36.7880   30.2910   38.2570 N   0  0  0  0  0  0  0  0  0  0  0  0
   36.8060   30.7670   39.5290 C   0  0  0  0  0  0  0  0  0  0  0  0
   35.9770   30.2680   40.4600 N   0  0  0  0  0  0  0  0  0  0  0  0
   34.4220   28.8520   40.8720 H   0  0  0  0  0  0  0  0  0  0  0  0
   34.3990   27.9930   38.5480 H   0  0  0  0  0  0  0  0  0  0  0  0
   35.9520   28.8360   36.5530 N   0  0  0  0  0  0  0  0  0  0  0  0
   35.6540   27.5260   36.0040 C   0  0  0  0  0  2  0  0  0  0  0  0
   35.0070   27.9280   34.6790 C   0  0  0  0  0  2  0  0  0  0  0  0
   36.0780   28.9090   34.1910 C   0  0  0  0  0  2  0  0  0  0  0  0
   36.3240   29.7230   35.4430 C   0  0  0  0  0  3  0  0  0  0  0  0
   35.6810   30.6140   35.4630 H   0  0  0  0  0  0  0  0  0  0  0  0
   41.2280   32.1290   40.9500 C   0  0  0  0  0  0  0  0  0  0  0  0
   41.4370   31.2920   42.0300 C   0  0  0  0  0  0  0  0  0  0  0  0
   42.6910   30.8800   42.4640 C   0  0  0  0  0  0  0  0  0  0  0  0
   43.7810   31.3570   41.7480 C   0  0  0  0  0  0  0  0  0  0  0  0
   43.5690   32.1800   40.6870 C   0  0  0  0  0  0  0  0  0  0  0  0
   42.3260   32.5880   40.2580 C   0  0  0  0  0  0  0  0  0  0  0  0
   40.5690   30.9280   42.5790 H   0  0  0  0  0  0  0  0  0  0  0  0
   42.7870   30.2230   43.3180 H   0  0  0  0  0  0  0  0  0  0  0  0
   44.7820   31.0750   42.0350 H   0  0  0  0  0  0  0  0  0  0  0  0
   44.3970   32.5820   40.0910 H   0  0  0  0  0  0  0  0  0  0  0  0
   42.0940   33.4160   39.1920 O   0  0  0  0  0  0  0  0  0  0  0  0
   42.7960   31.7070   37.3460 O   0  0  0  0  0  0  0  0  0  0  0  0
   41.9320   32.9440   37.5710 P   0  0  0  0  0  0  0  0  0  0  0  0
   40.3500   32.6680   37.0900 O   0  0  0  0  0  0  0  0  0  0  0  0
   39.8390   32.2910   37.8230 H   0  0  0  0  0  0  0  0  0  0  0  0
   42.5730   34.1610   36.5920 O   0  0  0  0  0  0  0  0  0  0  0  0
   43.5600   34.1600   36.5900 H   0  0  0  0  0  0  0  0  0  0  0  0
  1  2  2  0  0  0  0
  1  6  1  0  0  0  0
  2  3  1  0  0  0  0
  3  8  1  0  0  0  0
  3  4  2  0  0  0  0
  5  4  1  0  0  0  0
  5 23  1  0  0  0  0
  6  5  2  0  0  0  0
  7  2  1  0  0  0  0
  9 14  1  0  0  0  0
  9 15  1  0  0  0  0
 10  9  2  0  0  0  0
 11 12  2  0  0  0  0
 11 10  1  0  0  0  0
 12 13  1  0  0  0  0
 13  1  1  0  0  0  0
 13 14  2  0  0  0  0
 16 10  1  0  0  0  0
 17 11  1  0  0  0  0
 18 17  1  0  0  0  0
 19 18  1  0  0  0  0
 20 19  1  0  0  0  0
 20 21  1  0  0  0  0
 21 22  1  0  0  0  0
 21 17  1  0  0  0  0
 23 24  1  0  0  0  0
 24 25  2  0  0  0  0
 24 29  1  0  0  0  0
 25 30  1  0  0  0  0
 26 31  1  0  0  0  0
 26 25  1  0  0  0  0
 27 26  2  0  0  0  0
 28 27  1  0  0  0  0
 28 23  2  0  0  0  0
 32 27  1  0  0  0  0
 33 28  1  0  0  0  0
 34 35  2  0  0  0  0
 35 33  1  0  0  0  0
 36 35  1  0  0  0  0
 36 37  1  0  0  0  0
 38 35  1  0  0  0  0
 39 38  1  0  0  0  0
M  END
>  <minimizedAffinity>
-6.48713875

$$$$

 OpenBabel03242521263D

 39 42  0  0  0  0  0  0  0  0999 V2000
   36.9620   29.7110   38.8020 C   0  0  0  0  0  0  0  0  0  0  0  0
   35.8310   29.7770   38.0660 C   0  0  0  0  0  0  0  0  0  0  0  0
   34.9920   28.7080   37.8510 C   0  0  0  0  0  0  0  0  0  0  0  0
   35.3560   27.5450   38.4270 N   0  0  0  0  0  0  0  0  0  0  0  0
   36.4860   27.4730   39.1630 C   0  0  0  0  0  0  0  0  0  0  0  0
   37.3030   28.5240   39.3690 N   0  0  0  0  0  0  0  0  0  0  0  0
   35.5360   30.7130   37.6020 H   0  0  0  0  0  0  0  0  0  0  0  0
   34.0850   28.7830   37.2550 H   0  0  0  0  0  0  0  0  0  0  0  0
   38.2190   32.8960   40.0940 C   0  0  0  0  0  0  0  0  0  0  0  0
   39.4330   33.0250   39.4130 C   0  0  0  0  0  0  0  0  0  0  0  0
   39.8360   32.0430   38.5160 C   0  0  0  0  0  0  0  0  0  0  0  0
   39.0040   30.9640   38.3350 N   0  0  0  0  0  0  0  0  0  0  0  0
   37.8310   30.8660   39.0100 C   0  0  0  0  0  0  0  0  0  0  0  0
   37.4540   31.8220   39.8740 N   0  0  0  0  0  0  0  0  0  0  0  0
   37.9680   33.6970   40.7760 H   0  0  0  0  0  0  0  0  0  0  0  0
   40.1070   33.8640   39.5370 H   0  0  0  0  0  0  0  0  0  0  0  0
   41.0420   32.0880   37.7840 N   0  0  0  0  0  0  0  0  0  0  0  0
   41.8000   33.2280   37.3020 C   0  0  0  0  0  2  0  0  0  0  0  0
   43.2230   32.6990   37.4710 C   0  0  0  0  0  2  0  0  0  0  0  0
   43.0480   31.3470   36.7710 C   0  0  0  0  0  2  0  0  0  0  0  0
   41.7510   30.8660   37.3810 C   0  0  0  0  0  3  0  0  0  0  0  0
   41.9400   30.2490   38.2710 H   0  0  0  0  0  0  0  0  0  0  0  0
   36.8690   26.1860   39.7870 C   0  0  0  0  0  0  0  0  0  0  0  0
   37.1120   25.0880   38.9830 C   0  0  0  0  0  0  0  0  0  0  0  0
   37.4770   23.8360   39.4640 C   0  0  0  0  0  0  0  0  0  0  0  0
   37.5950   23.7140   40.8420 C   0  0  0  0  0  0  0  0  0  0  0  0
   37.3540   24.7970   41.6280 C   0  0  0  0  0  0  0  0  0  0  0  0
   36.9930   26.0370   41.1500 C   0  0  0  0  0  0  0  0  0  0  0  0
   37.0140   25.2040   37.9040 H   0  0  0  0  0  0  0  0  0  0  0  0
   37.6530   23.0160   38.7800 H   0  0  0  0  0  0  0  0  0  0  0  0
   37.8760   22.7680   41.2790 H   0  0  0  0  0  0  0  0  0  0  0  0
   37.4350   24.7500   42.7200 H   0  0  0  0  0  0  0  0  0  0  0  0
   36.7470   27.1390   41.9260 O   0  0  0  0  0  0  0  0  0  0  0  0
   38.6810   27.1810   43.6800 O   0  0  0  0  0  0  0  0  0  0  0  0
   37.9070   28.0840   42.7230 P   0  0  0  0  0  0  0  0  0  0  0  0
   38.9470   28.9070   41.6980 O   0  0  0  0  0  0  0  0  0  0  0  0
   39.1250   28.3750   40.9060 H   0  0  0  0  0  0  0  0  0  0  0  0
   37.1060   29.2210   43.6800 O   0  0  0  0  0  0  0  0  0  0  0  0
   36.7310   28.8230   44.5020 H   0  0  0  0  0  0  0  0  0  0  0  0
  1 13  1  0  0  0  0
  1  6  1  0  0  0  0
  2  1  2  0  0  0  0
  3  2  1  0  0  0  0
  3  4  2  0  0  0  0
  4  5  1  0  0  0  0
  5  6  2  0  0  0  0
  5 23  1  0  0  0  0
  7  2  1  0  0  0  0
  8  3  1  0  0  0  0
  9 15  1  0  0  0  0
 10 16  1  0  0  0  0
 10  9  2  0  0  0  0
 11 10  1  0  0  0  0
 12 11  2  0  0  0  0
 12 13  1  0  0  0  0
 13 14  2  0  0  0  0
 14  9  1  0  0  0  0
 17 11  1  0  0  0  0
 18 19  1  0  0  0  0
 18 17  1  0  0  0  0
 20 21  1  0  0  0  0
 20 19  1  0  0  0  0
 21 17  1  0  0  0  0
 21 22  1  0  0  0  0
 23 28  1  0  0  0  0
 24 25  1  0  0  0  0
 24 23  2  0  0  0  0
 25 26  2  0  0  0  0
 26 31  1  0  0  0  0
 26 27  1  0  0  0  0
 27 32  1  0  0  0  0
 28 27  2  0  0  0  0
 28 33  1  0  0  0  0
 29 24  1  0  0  0  0
 30 25  1  0  0  0  0
 33 35  1  0  0  0  0
 35 34  2  0  0  0  0
 35 38  1  0  0  0  0
 36 35  1  0  0  0  0
 37 36  1  0  0  0  0
 38 39  1  0  0  0  0
M  END
>  <minimizedAffinity>
-6.17431927

$$$$

 OpenBabel03242521263D

 39 42  0  0  0  0  0  0  0  0999 V2000
   38.1060   30.7370   40.8170 C   0  0  0  0  0  0  0  0  0  0  0  0
   37.1440   31.6680   40.6320 C   0  0  0  0  0  0  0  0  0  0  0  0
   37.3240   32.8240   39.9080 C   0  0  0  0  0  0  0  0  0  0  0  0
   38.5470   33.0000   39.3700 N   0  0  0  0  0  0  0  0  0  0  0  0
   39.5130   32.0740   39.5520 C   0  0  0  0  0  0  0  0  0  0  0  0
   39.3290   30.9440   40.2620 N   0  0  0  0  0  0  0  0  0  0  0  0
   36.1590   31.5270   41.0650 H   0  0  0  0  0  0  0  0  0  0  0  0
   36.5360   33.5600   39.7710 H   0  0  0  0  0  0  0  0  0  0  0  0
   37.6980   28.4910   43.6770 C   0  0  0  0  0  0  0  0  0  0  0  0
   37.4650   27.2640   43.0500 C   0  0  0  0  0  0  0  0  0  0  0  0
   37.4430   27.1840   41.6620 C   0  0  0  0  0  0  0  0  0  0  0  0
   37.6560   28.3420   40.9540 N   0  0  0  0  0  0  0  0  0  0  0  0
   37.8810   29.5200   41.5910 C   0  0  0  0  0  0  0  0  0  0  0  0
   37.8990   29.5810   42.9320 N   0  0  0  0  0  0  0  0  0  0  0  0
   37.7020   28.4800   44.7600 H   0  0  0  0  0  0  0  0  0  0  0  0
   37.2940   26.3370   43.5840 H   0  0  0  0  0  0  0  0  0  0  0  0
   37.2160   25.9910   40.9430 N   0  0  0  0  0  0  0  0  0  0  0  0
   37.5240   24.6170   41.2920 C   0  0  0  0  0  2  0  0  0  0  0  0
   36.3240   23.9030   40.6720 C   0  0  0  0  0  2  0  0  0  0  0  0
   36.3790   24.5340   39.2770 C   0  0  0  0  0  2  0  0  0  0  0  0
   36.5740   25.9930   39.6210 C   0  0  0  0  0  3  0  0  0  0  0  0
   35.6080   26.5130   39.6900 H   0  0  0  0  0  0  0  0  0  0  0  0
   40.8490   32.2870   38.9520 C   0  0  0  0  0  0  0  0  0  0  0  0
   41.0200   32.1080   37.5930 C   0  0  0  0  0  0  0  0  0  0  0  0
   42.2280   32.2810   36.9300 C   0  0  0  0  0  0  0  0  0  0  0  0
   43.3140   32.6570   37.7100 C   0  0  0  0  0  0  0  0  0  0  0  0
   43.1400   32.8310   39.0470 C   0  0  0  0  0  0  0  0  0  0  0  0
   41.9420   32.6590   39.7030 C   0  0  0  0  0  0  0  0  0  0  0  0
   40.1560   31.8120   36.9970 H   0  0  0  0  0  0  0  0  0  0  0  0
   42.2950   32.1250   35.8610 H   0  0  0  0  0  0  0  0  0  0  0  0
   44.2810   32.8080   37.2560 H   0  0  0  0  0  0  0  0  0  0  0  0
   43.9660   33.1280   39.7050 H   0  0  0  0  0  0  0  0  0  0  0  0
   41.7490   32.8310   41.0480 O   0  0  0  0  0  0  0  0  0  0  0  0
   42.6630   30.4490   41.6040 O   0  0  0  0  0  0  0  0  0  0  0  0
   42.1190   31.7110   42.2670 P   0  0  0  0  0  0  0  0  0  0  0  0
   43.1810   32.2860   43.4290 O   0  0  0  0  0  0  0  0  0  0  0  0
   43.8260   32.8870   43.0240 H   0  0  0  0  0  0  0  0  0  0  0  0
   40.6860   31.2670   43.0400 O   0  0  0  0  0  0  0  0  0  0  0  0
   40.1460   30.6400   42.5010 H   0  0  0  0  0  0  0  0  0  0  0  0
  1 13  1  0  0  0  0
  2  1  1  0  0  0  0
  2  7  1  0  0  0  0
  3  2  2  0  0  0  0
  4  5  2  0  0  0  0
  4  3  1  0  0  0  0
  5  6  1  0  0  0  0
  6  1  2  0  0  0  0
  8  3  1  0  0  0  0
  9 15  1  0  0  0  0
 10 16  1  0  0  0  0
 10  9  1  0  0  0  0
 11 10  2  0  0  0  0
 12 13  2  0  0  0  0
 12 11  1  0  0  0  0
 13 14  1  0  0  0  0
 14  9  2  0  0  0  0
 17 18  1  0  0  0  0
 17 11  1  0  0  0  0
 19 18  1  0  0  0  0
 20 21  1  0  0  0  0
 20 19  1  0  0  0  0
 21 22  1  0  0  0  0
 21 17  1  0  0  0  0
 23  5  1  0  0  0  0
 23 28  1  0  0  0  0
 24 23  2  0  0  0  0
 25 24  1  0  0  0  0
 25 26  2  0  0  0  0
 26 27  1  0  0  0  0
 27 28  2  0  0  0  0
 27 32  1  0  0  0  0
 28 33  1  0  0  0  0
 29 24  1  0  0  0  0
 30 25  1  0  0  0  0
 31 26  1  0  0  0  0
 33 35  1  0  0  0  0
 34 35  2  0  0  0  0
 35 38  1  0  0  0  0
 35 36  1  0  0  0  0
 37 36  1  0  0  0  0
 39 38  1  0  0  0  0
M  END
>  <minimizedAffinity>
-6.14024448

$$$$

 OpenBabel03242521263D

 39 42  0  0  0  0  0  0  0  0999 V2000
   38.9130   28.5260   42.6150 C   0  0  0  0  0  0  0  0  0  0  0  0
   38.1670   28.0980   43.6580 C   0  0  0  0  0  0  0  0  0  0  0  0
   36.8480   27.7240   43.5550 C   0  0  0  0  0  0  0  0  0  0  0  0
   36.3040   27.8050   42.3250 N   0  0  0  0  0  0  0  0  0  0  0  0
   37.0430   28.2320   41.2790 C   0  0  0  0  0  0  0  0  0  0  0  0
   38.3360   28.5960   41.3860 N   0  0  0  0  0  0  0  0  0  0  0  0
   38.6050   28.0330   44.6490 H   0  0  0  0  0  0  0  0  0  0  0  0
   36.2660   27.3830   44.4090 H   0  0  0  0  0  0  0  0  0  0  0  0
   42.4760   28.3550   43.4300 C   0  0  0  0  0  0  0  0  0  0  0  0
   42.9240   29.6190   43.0350 C   0  0  0  0  0  0  0  0  0  0  0  0
   42.0310   30.5360   42.4920 C   0  0  0  0  0  0  0  0  0  0  0  0
   40.7190   30.1490   42.3650 N   0  0  0  0  0  0  0  0  0  0  0  0
   40.3120   28.9150   42.7580 C   0  0  0  0  0  0  0  0  0  0  0  0
   41.1870   28.0400   43.2800 N   0  0  0  0  0  0  0  0  0  0  0  0
   43.2250   27.6930   43.8440 H   0  0  0  0  0  0  0  0  0  0  0  0
   43.9520   29.9490   43.1230 H   0  0  0  0  0  0  0  0  0  0  0  0
   42.3910   31.8320   42.0650 N   0  0  0  0  0  0  0  0  0  0  0  0
   43.4340   32.7180   42.5480 C   0  0  0  0  0  2  0  0  0  0  0  0
   43.8560   33.3810   41.2370 C   0  0  0  0  0  2  0  0  0  0  0  0
   42.4680   33.7840   40.7290 C   0  0  0  0  0  2  0  0  0  0  0  0
   41.6850   32.5120   40.9710 C   0  0  0  0  0  3  0  0  0  0  0  0
   41.6970   31.8690   40.0800 H   0  0  0  0  0  0  0  0  0  0  0  0
   36.4270   28.3130   39.9350 C   0  0  0  0  0  0  0  0  0  0  0  0
   36.2860   27.1620   39.1830 C   0  0  0  0  0  0  0  0  0  0  0  0
   35.7220   27.1270   37.9130 C   0  0  0  0  0  0  0  0  0  0  0  0
   35.2830   28.3390   37.3970 C   0  0  0  0  0  0  0  0  0  0  0  0
   35.4250   29.4670   38.1410 C   0  0  0  0  0  0  0  0  0  0  0  0
   35.9840   29.5010   39.4000 C   0  0  0  0  0  0  0  0  0  0  0  0
   36.6360   26.2210   39.6050 H   0  0  0  0  0  0  0  0  0  0  0  0
   35.6410   26.1910   37.3750 H   0  0  0  0  0  0  0  0  0  0  0  0
   34.8360   28.3790   36.4160 H   0  0  0  0  0  0  0  0  0  0  0  0
   35.0940   30.4470   37.7770 H   0  0  0  0  0  0  0  0  0  0  0  0
   36.1340   30.6280   40.1640 O   0  0  0  0  0  0  0  0  0  0  0  0
   38.1220   31.4980   38.7120 O   0  0  0  0  0  0  0  0  0  0  0  0
   37.3240   31.8210   39.9720 P   0  0  0  0  0  0  0  0  0  0  0  0
   36.7270   33.3860   39.9230 O   0  0  0  0  0  0  0  0  0  0  0  0
   35.8620   33.4000   39.4830 H   0  0  0  0  0  0  0  0  0  0  0  0
   38.4050   31.7120   41.2640 O   0  0  0  0  0  0  0  0  0  0  0  0
   39.0250   30.9490   41.1720 H   0  0  0  0  0  0  0  0  0  0  0  0
  1 13  1  0  0  0  0
  1  2  1  0  0  0  0
  2  7  1  0  0  0  0
  3  2  2  0  0  0  0
  3  8  1  0  0  0  0
  4  3  1  0  0  0  0
  5  6  1  0  0  0  0
  5  4  2  0  0  0  0
  6  1  2  0  0  0  0
  9 15  1  0  0  0  0
 10 16  1  0  0  0  0
 10  9  2  0  0  0  0
 11 10  1  0  0  0  0
 12 11  2  0  0  0  0
 12 13  1  0  0  0  0
 13 14  2  0  0  0  0
 14  9  1  0  0  0  0
 17 11  1  0  0  0  0
 17 18  1  0  0  0  0
 19 18  1  0  0  0  0
 20 21  1  0  0  0  0
 20 19  1  0  0  0  0
 21 17  1  0  0  0  0
 22 21  1  0  0  0  0
 23  5  1  0  0  0  0
 24 29  1  0  0  0  0
 24 23  2  0  0  0  0
 25 24  1  0  0  0  0
 26 25  2  0  0  0  0
 26 27  1  0  0  0  0
 27 28  2  0  0  0  0
 28 23  1  0  0  0  0
 28 33  1  0  0  0  0
 30 25  1  0  0  0  0
 31 26  1  0  0  0  0
 32 27  1  0  0  0  0
 34 35  2  0  0  0  0
 35 33  1  0  0  0  0
 35 38  1  0  0  0  0
 36 35  1  0  0  0  0
 37 36  1  0  0  0  0
 39 38  1  0  0  0  0
M  END
>  <minimizedAffinity>
-6.09111166

$$$$

 OpenBabel03242521263D

 39 42  0  0  0  0  0  0  0  0999 V2000
   38.0190   30.7830   38.7360 C   0  0  0  0  0  0  0  0  0  0  0  0
   37.1080   31.7180   39.0850 C   0  0  0  0  0  0  0  0  0  0  0  0
   37.3540   32.7300   39.9840 C   0  0  0  0  0  0  0  0  0  0  0  0
   38.5880   32.7530   40.5250 N   0  0  0  0  0  0  0  0  0  0  0  0
   39.5030   31.8210   40.1800 C   0  0  0  0  0  0  0  0  0  0  0  0
   39.2550   30.8330   39.2990 N   0  0  0  0  0  0  0  0  0  0  0  0
   36.1150   31.7000   38.6490 H   0  0  0  0  0  0  0  0  0  0  0  0
   36.6070   33.4730   40.2500 H   0  0  0  0  0  0  0  0  0  0  0  0
   38.4980   27.9520   36.4660 C   0  0  0  0  0  0  0  0  0  0  0  0
   37.2010   27.7400   35.9900 C   0  0  0  0  0  0  0  0  0  0  0  0
   36.1580   28.5480   36.4290 C   0  0  0  0  0  0  0  0  0  0  0  0
   36.4560   29.5400   37.3320 N   0  0  0  0  0  0  0  0  0  0  0  0
   37.7250   29.7220   37.7770 C   0  0  0  0  0  0  0  0  0  0  0  0
   38.7230   28.9330   37.3440 N   0  0  0  0  0  0  0  0  0  0  0  0
   39.2600   27.2860   36.0830 H   0  0  0  0  0  0  0  0  0  0  0  0
   36.9380   26.9670   35.2790 H   0  0  0  0  0  0  0  0  0  0  0  0
   34.8190   28.4100   36.0040 N   0  0  0  0  0  0  0  0  0  0  0  0
   34.2840   27.9320   34.7430 C   0  0  0  0  0  2  0  0  0  0  0  0
   33.0300   27.2120   35.2350 C   0  0  0  0  0  2  0  0  0  0  0  0
   32.4570   28.3280   36.1140 C   0  0  0  0  0  2  0  0  0  0  0  0
   33.6890   28.7680   36.8720 C   0  0  0  0  0  3  0  0  0  0  0  0
   33.7800   28.2240   37.8230 H   0  0  0  0  0  0  0  0  0  0  0  0
   40.8520   31.8650   40.7870 C   0  0  0  0  0  0  0  0  0  0  0  0
   41.1130   31.1150   41.9180 C   0  0  0  0  0  0  0  0  0  0  0  0
   42.3420   31.0830   42.5650 C   0  0  0  0  0  0  0  0  0  0  0  0
   43.3500   31.8640   42.0170 C   0  0  0  0  0  0  0  0  0  0  0  0
   43.0880   32.6000   40.9030 C   0  0  0  0  0  0  0  0  0  0  0  0
   41.8690   32.6300   40.2630 C   0  0  0  0  0  0  0  0  0  0  0  0
   40.3080   30.5080   42.3340 H   0  0  0  0  0  0  0  0  0  0  0  0
   42.4810   30.4740   43.4490 H   0  0  0  0  0  0  0  0  0  0  0  0
   44.3280   31.8830   42.4720 H   0  0  0  0  0  0  0  0  0  0  0  0
   43.8520   33.2310   40.4340 H   0  0  0  0  0  0  0  0  0  0  0  0
   41.5880   33.3640   39.1410 O   0  0  0  0  0  0  0  0  0  0  0  0
   42.7680   31.6950   37.5170 O   0  0  0  0  0  0  0  0  0  0  0  0
   41.7790   32.8560   37.5350 P   0  0  0  0  0  0  0  0  0  0  0  0
   40.3460   32.4380   36.7710 O   0  0  0  0  0  0  0  0  0  0  0  0
   39.7370   32.0290   37.4060 H   0  0  0  0  0  0  0  0  0  0  0  0
   42.4940   34.1090   36.6580 O   0  0  0  0  0  0  0  0  0  0  0  0
   43.4600   34.1930   36.8430 H   0  0  0  0  0  0  0  0  0  0  0  0
  1  2  2  0  0  0  0
  1  6  1  0  0  0  0
  2  3  1  0  0  0  0
  3  8  1  0  0  0  0
  3  4  2  0  0  0  0
  5  4  1  0  0  0  0
  5 23  1  0  0  0  0
  6  5  2  0  0  0  0
  7  2  1  0  0  0  0
  9 14  1  0  0  0  0
 10 11  1  0  0  0  0
 10  9  2  0  0  0  0
 11 12  2  0  0  0  0
 12 13  1  0  0  0  0
 13  1  1  0  0  0  0
 14 13  2  0  0  0  0
 15  9  1  0  0  0  0
 16 10  1  0  0  0  0
 17 11  1  0  0  0  0
 17 21  1  0  0  0  0
 18 19  1  0  0  0  0
 18 17  1  0  0  0  0
 19 20  1  0  0  0  0
 20 21  1  0  0  0  0
 21 22  1  0  0  0  0
 23 24  1  0  0  0  0
 24 29  1  0  0  0  0
 24 25  2  0  0  0  0
 25 30  1  0  0  0  0
 26 31  1  0  0  0  0
 26 25  1  0  0  0  0
 27 26  2  0  0  0  0
 28 23  2  0  0  0  0
 28 27  1  0  0  0  0
 32 27  1  0  0  0  0
 33 28  1  0  0  0  0
 34 35  2  0  0  0  0
 35 33  1  0  0  0  0
 36 37  1  0  0  0  0
 36 35  1  0  0  0  0
 38 39  1  0  0  0  0
 38 35  1  0  0  0  0
M  END
>  <minimizedAffinity>
-5.96723413

$$$$

 OpenBabel03242521263D

 39 42  0  0  0  0  0  0  0  0999 V2000
   35.9890   27.8430   37.4800 C   0  0  0  0  0  0  0  0  0  0  0  0
   37.1190   28.0750   36.7750 C   0  0  0  0  0  0  0  0  0  0  0  0
   38.3590   28.2430   37.3450 C   0  0  0  0  0  0  0  0  0  0  0  0
   38.4060   28.1650   38.6900 N   0  0  0  0  0  0  0  0  0  0  0  0
   37.2810   27.9340   39.4010 C   0  0  0  0  0  0  0  0  0  0  0  0
   36.0700   27.7700   38.8350 N   0  0  0  0  0  0  0  0  0  0  0  0
   37.0810   28.1370   35.6920 H   0  0  0  0  0  0  0  0  0  0  0  0
   39.2550   28.4280   36.7580 H   0  0  0  0  0  0  0  0  0  0  0  0
   33.3370   26.4580   35.3730 C   0  0  0  0  0  0  0  0  0  0  0  0
   32.2730   27.3240   35.6410 C   0  0  0  0  0  0  0  0  0  0  0  0
   32.4400   28.3780   36.5320 C   0  0  0  0  0  0  0  0  0  0  0  0
   33.6730   28.5240   37.1220 N   0  0  0  0  0  0  0  0  0  0  0  0
   34.6880   27.6680   36.8420 C   0  0  0  0  0  0  0  0  0  0  0  0
   34.5110   26.6530   35.9790 N   0  0  0  0  0  0  0  0  0  0  0  0
   33.1360   25.6600   34.6700 H   0  0  0  0  0  0  0  0  0  0  0  0
   31.2920   27.2310   35.1910 H   0  0  0  0  0  0  0  0  0  0  0  0
   31.4260   29.3010   36.8630 N   0  0  0  0  0  0  0  0  0  0  0  0
   30.3080   29.7840   36.0740 C   0  0  0  0  0  2  0  0  0  0  0  0
   29.2470   29.9270   37.1640 C   0  0  0  0  0  2  0  0  0  0  0  0
   30.0700   30.7250   38.1800 C   0  0  0  0  0  2  0  0  0  0  0  0
   31.3700   29.9510   38.1800 C   0  0  0  0  0  3  0  0  0  0  0  0
   31.3670   29.1800   38.9630 H   0  0  0  0  0  0  0  0  0  0  0  0
   37.3550   27.8520   40.8770 C   0  0  0  0  0  0  0  0  0  0  0  0
   37.0200   26.6700   41.5090 C   0  0  0  0  0  0  0  0  0  0  0  0
   37.0550   26.4860   42.8860 C   0  0  0  0  0  0  0  0  0  0  0  0
   37.4550   27.5770   43.6450 C   0  0  0  0  0  0  0  0  0  0  0  0
   37.7830   28.7380   43.0180 C   0  0  0  0  0  0  0  0  0  0  0  0
   37.7480   28.9190   41.6530 C   0  0  0  0  0  0  0  0  0  0  0  0
   36.7080   25.8250   40.8950 H   0  0  0  0  0  0  0  0  0  0  0  0
   36.7790   25.5330   43.3190 H   0  0  0  0  0  0  0  0  0  0  0  0
   37.5030   27.4990   44.7210 H   0  0  0  0  0  0  0  0  0  0  0  0
   38.1040   29.6260   43.5750 H   0  0  0  0  0  0  0  0  0  0  0  0
   38.0750   30.0800   41.0050 O   0  0  0  0  0  0  0  0  0  0  0  0
   37.6010   32.6160   40.6080 O   0  0  0  0  0  0  0  0  0  0  0  0
   36.9890   31.2340   40.4020 P   0  0  0  0  0  0  0  0  0  0  0  0
   36.5550   31.0000   38.8010 O   0  0  0  0  0  0  0  0  0  0  0  0
   37.3050   30.6410   38.3010 H   0  0  0  0  0  0  0  0  0  0  0  0
   35.5850   31.1880   41.3380 O   0  0  0  0  0  0  0  0  0  0  0  0
   35.7040   31.6240   42.2160 H   0  0  0  0  0  0  0  0  0  0  0  0
  1  6  1  0  0  0  0
  2  3  1  0  0  0  0
  2  1  2  0  0  0  0
  3  4  2  0  0  0  0
  4  5  1  0  0  0  0
  5 23  1  0  0  0  0
  6  5  2  0  0  0  0
  7  2  1  0  0  0  0
  8  3  1  0  0  0  0
  9 10  2  0  0  0  0
  9 14  1  0  0  0  0
 10 11  1  0  0  0  0
 11 17  1  0  0  0  0
 11 12  2  0  0  0  0
 13 12  1  0  0  0  0
 13  1  1  0  0  0  0
 14 13  2  0  0  0  0
 15  9  1  0  0  0  0
 16 10  1  0  0  0  0
 17 21  1  0  0  0  0
 18 17  1  0  0  0  0
 18 19  1  0  0  0  0
 19 20  1  0  0  0  0
 21 20  1  0  0  0  0
 21 22  1  0  0  0  0
 23 24  2  0  0  0  0
 23 28  1  0  0  0  0
 24 25  1  0  0  0  0
 25 30  1  0  0  0  0
 25 26  2  0  0  0  0
 26 31  1  0  0  0  0
 27 32  1  0  0  0  0
 27 26  1  0  0  0  0
 28 27  2  0  0  0  0
 29 24  1  0  0  0  0
 33 28  1  0  0  0  0
 35 34  2  0  0  0  0
 35 33  1  0  0  0  0
 35 38  1  0  0  0  0
 36 35  1  0  0  0  0
 37 36  1  0  0  0  0
 38 39  1  0  0  0  0
M  END
>  <minimizedAffinity>
-5.96446753

$$$$

 OpenBabel03242521263D

 39 42  0  0  0  0  0  0  0  0999 V2000
   38.2160   29.1530   41.6250 C   0  0  0  0  0  0  0  0  0  0  0  0
   37.7690   29.3240   42.8890 C   0  0  0  0  0  0  0  0  0  0  0  0
   37.2920   28.3040   43.6790 C   0  0  0  0  0  0  0  0  0  0  0  0
   37.2860   27.0780   43.1210 N   0  0  0  0  0  0  0  0  0  0  0  0
   37.7310   26.9000   41.8580 C   0  0  0  0  0  0  0  0  0  0  0  0
   38.1970   27.9040   41.0900 N   0  0  0  0  0  0  0  0  0  0  0  0
   37.7740   30.3120   43.3400 H   0  0  0  0  0  0  0  0  0  0  0  0
   36.9380   28.4640   44.6940 H   0  0  0  0  0  0  0  0  0  0  0  0
   38.5540   32.4990   40.1810 C   0  0  0  0  0  0  0  0  0  0  0  0
   39.6350   32.3310   39.3120 C   0  0  0  0  0  0  0  0  0  0  0  0
   40.2570   31.0920   39.2050 C   0  0  0  0  0  0  0  0  0  0  0  0
   39.7700   30.0660   39.9790 N   0  0  0  0  0  0  0  0  0  0  0  0
   38.7170   30.2590   40.8140 C   0  0  0  0  0  0  0  0  0  0  0  0
   38.1270   31.4610   40.9060 N   0  0  0  0  0  0  0  0  0  0  0  0
   38.1180   33.4890   40.2140 H   0  0  0  0  0  0  0  0  0  0  0  0
   40.0380   33.1220   38.6920 H   0  0  0  0  0  0  0  0  0  0  0  0
   41.3520   30.8280   38.3560 N   0  0  0  0  0  0  0  0  0  0  0  0
   41.7130   31.4260   37.0840 C   0  0  0  0  0  2  0  0  0  0  0  0
   43.2360   31.4200   37.2030 C   0  0  0  0  0  2  0  0  0  0  0  0
   43.4260   29.9580   37.6200 C   0  0  0  0  0  2  0  0  0  0  0  0
   42.3640   29.8160   38.6870 C   0  0  0  0  0  3  0  0  0  0  0  0
   42.7770   30.0320   39.6820 H   0  0  0  0  0  0  0  0  0  0  0  0
   37.7150   25.5450   41.2630 C   0  0  0  0  0  0  0  0  0  0  0  0
   36.7430   25.2210   40.3360 C   0  0  0  0  0  0  0  0  0  0  0  0
   36.6380   23.9810   39.7180 C   0  0  0  0  0  0  0  0  0  0  0  0
   37.5840   23.0290   40.0760 C   0  0  0  0  0  0  0  0  0  0  0  0
   38.5390   23.3530   40.9890 C   0  0  0  0  0  0  0  0  0  0  0  0
   38.6410   24.5830   41.6010 C   0  0  0  0  0  0  0  0  0  0  0  0
   36.0090   25.9810   40.0680 H   0  0  0  0  0  0  0  0  0  0  0  0
   35.8520   23.7900   39.0000 H   0  0  0  0  0  0  0  0  0  0  0  0
   37.5580   22.0460   39.6320 H   0  0  0  0  0  0  0  0  0  0  0  0
   39.3070   22.6370   41.3030 H   0  0  0  0  0  0  0  0  0  0  0  0
   39.5960   24.9270   42.5210 O   0  0  0  0  0  0  0  0  0  0  0  0
   41.2480   26.9440   42.3990 O   0  0  0  0  0  0  0  0  0  0  0  0
   41.1770   25.4360   42.1840 P   0  0  0  0  0  0  0  0  0  0  0  0
   42.3580   24.6450   43.0730 O   0  0  0  0  0  0  0  0  0  0  0  0
   42.0260   24.4410   43.9610 H   0  0  0  0  0  0  0  0  0  0  0  0
   41.4880   25.1700   40.5460 O   0  0  0  0  0  0  0  0  0  0  0  0
   41.0520   25.8400   39.9670 H   0  0  0  0  0  0  0  0  0  0  0  0
  1  2  1  0  0  0  0
  2  7  1  0  0  0  0
  2  3  2  0  0  0  0
  3  8  1  0  0  0  0
  4  3  1  0  0  0  0
  5  4  2  0  0  0  0
  6  1  2  0  0  0  0
  6  5  1  0  0  0  0
  9 15  1  0  0  0  0
  9 14  1  0  0  0  0
 10  9  2  0  0  0  0
 11 10  1  0  0  0  0
 11 12  2  0  0  0  0
 12 13  1  0  0  0  0
 13 14  2  0  0  0  0
 13  1  1  0  0  0  0
 16 10  1  0  0  0  0
 17 21  1  0  0  0  0
 17 11  1  0  0  0  0
 18 19  1  0  0  0  0
 18 17  1  0  0  0  0
 19 20  1  0  0  0  0
 20 21  1  0  0  0  0
 21 22  1  0  0  0  0
 23 28  1  0  0  0  0
 23  5  1  0  0  0  0
 24 23  2  0  0  0  0
 25 26  2  0  0  0  0
 25 24  1  0  0  0  0
 26 27  1  0  0  0  0
 27 32  1  0  0  0  0
 27 28  2  0  0  0  0
 28 33  1  0  0  0  0
 29 24  1  0  0  0  0
 30 25  1  0  0  0  0
 31 26  1  0  0  0  0
 35 34  2  0  0  0  0
 35 33  1  0  0  0  0
 35 36  1  0  0  0  0
 36 37  1  0  0  0  0
 38 35  1  0  0  0  0
 39 38  1  0  0  0  0
M  END
>  <minimizedAffinity>
-5.89382315

$$$$

 OpenBabel03242521263D

 39 42  0  0  0  0  0  0  0  0999 V2000
   38.0310   30.6790   40.8600 C   0  0  0  0  0  0  0  0  0  0  0  0
   37.0470   31.4830   40.4000 C   0  0  0  0  0  0  0  0  0  0  0  0
   37.2710   32.6590   39.7230 C   0  0  0  0  0  0  0  0  0  0  0  0
   38.5620   32.9930   39.5290 N   0  0  0  0  0  0  0  0  0  0  0  0
   39.5500   32.1940   39.9870 C   0  0  0  0  0  0  0  0  0  0  0  0
   39.3230   31.0430   40.6500 N   0  0  0  0  0  0  0  0  0  0  0  0
   36.0070   31.2150   40.5550 H   0  0  0  0  0  0  0  0  0  0  0  0
   36.4640   33.2910   39.3600 H   0  0  0  0  0  0  0  0  0  0  0  0
   37.4820   28.3280   43.6100 C   0  0  0  0  0  0  0  0  0  0  0  0
   37.2520   27.1310   42.9260 C   0  0  0  0  0  0  0  0  0  0  0  0
   37.2800   27.1070   41.5360 C   0  0  0  0  0  0  0  0  0  0  0  0
   37.5370   28.2890   40.8830 N   0  0  0  0  0  0  0  0  0  0  0  0
   37.7580   29.4360   41.5750 C   0  0  0  0  0  0  0  0  0  0  0  0
   37.7270   29.4430   42.9180 N   0  0  0  0  0  0  0  0  0  0  0  0
   37.4450   28.2730   44.6910 H   0  0  0  0  0  0  0  0  0  0  0  0
   37.0460   26.1870   43.4150 H   0  0  0  0  0  0  0  0  0  0  0  0
   37.0600   25.9480   40.7610 N   0  0  0  0  0  0  0  0  0  0  0  0
   37.3330   24.5560   41.0650 C   0  0  0  0  0  2  0  0  0  0  0  0
   36.1450   23.8890   40.3740 C   0  0  0  0  0  2  0  0  0  0  0  0
   36.2620   24.5740   39.0080 C   0  0  0  0  0  2  0  0  0  0  0  0
   36.4680   26.0150   39.4180 C   0  0  0  0  0  3  0  0  0  0  0  0
   35.5090   26.5480   39.4730 H   0  0  0  0  0  0  0  0  0  0  0  0
   40.9620   32.5790   39.7640 C   0  0  0  0  0  0  0  0  0  0  0  0
   41.6090   33.3610   40.7030 C   0  0  0  0  0  0  0  0  0  0  0  0
   42.9300   33.7770   40.5920 C   0  0  0  0  0  0  0  0  0  0  0  0
   43.6150   33.3670   39.4560 C   0  0  0  0  0  0  0  0  0  0  0  0
   42.9730   32.5980   38.5360 C   0  0  0  0  0  0  0  0  0  0  0  0
   41.6640   32.1860   38.6470 C   0  0  0  0  0  0  0  0  0  0  0  0
   41.0540   33.6730   41.5880 H   0  0  0  0  0  0  0  0  0  0  0  0
   43.3780   34.3900   41.3630 H   0  0  0  0  0  0  0  0  0  0  0  0
   44.6440   33.6570   39.3100 H   0  0  0  0  0  0  0  0  0  0  0  0
   43.4710   32.2500   37.6240 H   0  0  0  0  0  0  0  0  0  0  0  0
   41.0020   31.4120   37.7310 O   0  0  0  0  0  0  0  0  0  0  0  0
   42.2510   29.3370   36.7560 O   0  0  0  0  0  0  0  0  0  0  0  0
   41.0550   29.7210   37.6210 P   0  0  0  0  0  0  0  0  0  0  0  0
   41.1050   28.9360   39.1010 O   0  0  0  0  0  0  0  0  0  0  0  0
   41.6170   29.4600   39.7390 H   0  0  0  0  0  0  0  0  0  0  0  0
   39.6790   29.1950   36.7960 O   0  0  0  0  0  0  0  0  0  0  0  0
   39.7410   29.3520   35.8230 H   0  0  0  0  0  0  0  0  0  0  0  0
  1 13  1  0  0  0  0
  2  7  1  0  0  0  0
  2  1  2  0  0  0  0
  3  2  1  0  0  0  0
  4  3  2  0  0  0  0
  4  5  1  0  0  0  0
  5  6  2  0  0  0  0
  6  1  1  0  0  0  0
  8  3  1  0  0  0  0
  9 15  1  0  0  0  0
 10 16  1  0  0  0  0
 10  9  1  0  0  0  0
 11 10  2  0  0  0  0
 12 11  1  0  0  0  0
 12 13  2  0  0  0  0
 13 14  1  0  0  0  0
 14  9  2  0  0  0  0
 17 18  1  0  0  0  0
 17 11  1  0  0  0  0
 19 18  1  0  0  0  0
 20 21  1  0  0  0  0
 20 19  1  0  0  0  0
 21 22  1  0  0  0  0
 21 17  1  0  0  0  0
 23  5  1  0  0  0  0
 23 24  1  0  0  0  0
 24 29  1  0  0  0  0
 25 24  2  0  0  0  0
 25 30  1  0  0  0  0
 26 25  1  0  0  0  0
 27 28  1  0  0  0  0
 27 26  2  0  0  0  0
 28 23  2  0  0  0  0
 31 26  1  0  0  0  0
 32 27  1  0  0  0  0
 33 28  1  0  0  0  0
 34 35  2  0  0  0  0
 35 33  1  0  0  0  0
 35 36  1  0  0  0  0
 36 37  1  0  0  0  0
 38 35  1  0  0  0  0
 39 38  1  0  0  0  0
M  END
>  <minimizedAffinity>
-5.87261629

$$$$
