
 OpenBabel03252509353D

 41 43  0  0  1  0  0  0  0  0999 V2000
   44.5300   35.4830   44.1160 O   0  0  0  0  0  0  0  0  0  0  0  0
   45.3900   34.2600   44.3670 P   0  0  1  0  0  0  0  0  0  0  0  0
   44.7070   32.8740   43.6720 O   0  0  0  0  0  0  0  0  0  0  0  0
   44.3480   33.1750   42.7920 H   0  0  0  0  0  0  0  0  0  0  0  0
   46.8960   34.5460   43.7040 O   0  0  0  0  0  0  0  0  0  0  0  0
   47.0230   33.8400   42.5030 C   0  0  1  0  0  0  0  0  0  0  0  0
   46.4450   34.6650   41.3490 C   0  0  0  0  0  0  0  0  0  0  0  0
   46.9560   33.8910   40.1640 C   0  0  0  0  0  0  0  0  0  0  0  0
   48.2300   33.2120   40.6240 C   0  0  0  0  0  0  0  0  0  0  0  0
   48.4410   33.6930   42.0450 C   0  0  1  0  0  0  0  0  0  0  0  0
   46.4970   32.8890   42.5060 H   0  0  0  0  0  0  0  0  0  0  0  0
   46.7120   35.7150   41.3790 H   0  0  0  0  0  0  0  0  0  0  0  0
   45.3270   34.5900   41.3860 H   0  0  0  0  0  0  0  0  0  0  0  0
   47.2640   34.5890   39.3540 H   0  0  0  0  0  0  0  0  0  0  0  0
   46.1860   33.1740   39.8310 H   0  0  0  0  0  0  0  0  0  0  0  0
   49.0990   33.4210   39.9760 H   0  0  0  0  0  0  0  0  0  0  0  0
   47.9920   32.1230   40.6980 H   0  0  0  0  0  0  0  0  0  0  0  0
   48.9300   32.8990   42.6680 H   0  0  0  0  0  0  0  0  0  0  0  0
   49.2100   34.9890   42.0960 C   0  0  0  0  0  0  0  0  0  0  0  0
   48.5260   35.8860   42.1500 H   0  0  0  0  0  0  0  0  0  0  0  0
   49.8130   35.1150   41.1710 H   0  0  0  0  0  0  0  0  0  0  0  0
   50.0020   35.0780   43.2180 O   0  0  0  0  0  0  0  0  0  0  0  0
   50.5450   34.2990   43.4320 H   0  0  0  0  0  0  0  0  0  0  0  0
   45.5110   33.9580   46.0030 O   0  0  0  0  0  0  0  0  0  0  0  0
   46.4360   32.9820   46.2080 C   0  0  0  0  0  0  0  0  0  0  0  0
   46.8640   32.4860   45.3440 H   0  0  0  0  0  0  0  0  0  0  0  0
   47.3110   33.4990   46.7060 H   0  0  0  0  0  0  0  0  0  0  0  0
   45.0850   31.4260   49.3030 C   0  0  0  0  0  0  0  0  0  0  0  0
   45.4970   32.4030   48.3960 C   0  0  0  0  0  0  0  0  0  0  0  0
   45.9930   31.9630   47.1720 C   0  0  0  0  0  0  0  0  0  0  0  0
   46.0500   30.6230   46.9260 N   0  0  0  0  0  0  0  0  0  0  0  0
   45.6460   29.6980   47.8210 C   0  0  0  0  0  0  0  0  0  0  0  0
   45.1700   30.1010   48.9920 N   0  0  0  0  0  0  0  0  0  0  0  0
   44.7000   31.7530   50.2500 H   0  0  0  0  0  0  0  0  0  0  0  0
   45.4160   33.4470   48.6770 H   0  0  0  0  0  0  0  0  0  0  0  0
   45.7280   28.3120   47.5100 N   0  0  0  0  0  0  0  0  0  0  0  0
   46.8970   27.5190   47.1840 C   0  0  0  0  0  2  0  0  0  0  0  0
   46.5690   26.1060   47.6610 C   0  0  0  0  0  2  0  0  0  0  0  0
   45.1670   26.2120   48.2390 C   0  0  0  0  0  2  0  0  0  0  0  0
   44.6150   27.3860   47.4590 C   0  0  0  0  0  3  0  0  0  0  0  0
   43.7010   27.7860   47.9460 H   0  0  0  0  0  0  0  0  0  0  0  0
  2  1  2  6  0  0  0
  2 24  1  0  0  0  0
  3  2  1  0  0  0  0
  4  3  1  0  0  0  0
  5  2  1  0  0  0  0
  6 11  1  1  0  0  0
  6  5  1  0  0  0  0
  7 12  1  0  0  0  0
  7 13  1  0  0  0  0
  7  6  1  0  0  0  0
  8  9  1  0  0  0  0
  8  7  1  0  0  0  0
  9 17  1  0  0  0  0
  9 10  1  0  0  0  0
 10 19  1  0  0  0  0
 10  6  1  0  0  0  0
 10 18  1  1  0  0  0
 14  8  1  0  0  0  0
 15  8  1  0  0  0  0
 16  9  1  0  0  0  0
 19 20  1  0  0  0  0
 19 22  1  0  0  0  0
 21 19  1  0  0  0  0
 22 23  1  0  0  0  0
 24 25  1  0  0  0  0
 25 27  1  0  0  0  0
 25 30  1  0  0  0  0
 26 25  1  0  0  0  0
 28 34  1  0  0  0  0
 29 35  1  0  0  0  0
 29 28  2  0  0  0  0
 30 29  1  0  0  0  0
 31 30  2  0  0  0  0
 31 32  1  0  0  0  0
 32 33  2  0  0  0  0
 33 28  1  0  0  0  0
 36 32  1  0  0  0  0
 37 36  1  0  0  0  0
 37 38  1  0  0  0  0
 38 39  1  0  0  0  0
 40 36  1  0  0  0  0
 40 41  1  0  0  0  0
 40 39  1  0  0  0  0
M  END
>  <minimizedAffinity>
-6.05758905

>  <minimizedRMSD>
1.06854868

$$$$
