REMARK  Name = 
REMARK  8 active torsions:
REMARK  status: ('A' for Active; 'I' for Inactive)
REMARK    1  A    between atoms: O_1  and  C_2
REMARK    2  A    between atoms: O_1  and  P_10
REMARK    3  A    between atoms: C_6  and  C_7
REMARK    4  A    between atoms: C_7  and  O_8
REMARK    5  A    between atoms: P_10  and  O_11
REMARK    6  A    between atoms: P_10  and  O_12
REMARK    7  A    between atoms: O_12  and  C_13
REMARK    8  A    between atoms: C_13  and  C_16
REMARK                            x       y       z     vdW  Elec       q    Type
REMARK                         _______ _______ _______ _____ _____    ______ ____
ROOT
ATOM      1  O   UNL     1      44.736  35.353  45.000  0.00  0.00    +0.000 OA
ATOM      2  P   UNL     1      45.579  34.239  44.411  0.00  0.00    +0.000 P 
ENDROOT
BRANCH   2   3
ATOM      3  O   UNL     1      44.609  33.036  43.716  0.00  0.00    +0.000 OA
ATOM      4  H   UNL     1      43.874  33.529  43.257  0.00  0.00    +0.000 HD
ENDBRANCH   2   3
BRANCH   2   5
ATOM      5  O   UNL     1      46.576  34.908  43.250  0.00  0.00    +0.000 OA
BRANCH   5   6
ATOM      6  C   UNL     1      46.803  33.977  42.231  0.00  0.00    +0.000 C 
ATOM      7  C   UNL     1      46.074  34.411  40.956  0.00  0.00    +0.000 C 
ATOM      8  C   UNL     1      46.691  33.481  39.947  0.00  0.00    +0.000 C 
ATOM      9  C   UNL     1      48.069  33.141  40.476  0.00  0.00    +0.000 C 
ATOM     10  C   UNL     1      48.218  33.961  41.742  0.00  0.00    +0.000 C 
ATOM     11  H   UNL     1      46.447  32.979  42.474  0.00  0.00    +0.000 HD
ATOM     12  H   UNL     1      46.159  35.469  40.737  0.00  0.00    +0.000 HD
ATOM     13  H   UNL     1      44.986  34.166  41.069  0.00  0.00    +0.000 HD
ATOM     14  H   UNL     1      46.863  34.016  38.986  0.00  0.00    +0.000 HD
ATOM     15  H   UNL     1      46.050  32.591  39.824  0.00  0.00    +0.000 HD
ATOM     16  H   UNL     1      48.880  33.335  39.752  0.00  0.00    +0.000 HD
ATOM     17  H   UNL     1      48.022  32.074  40.803  0.00  0.00    +0.000 HD
ATOM     18  H   UNL     1      48.845  33.421  42.498  0.00  0.00    +0.000 HD
BRANCH  10  19
ATOM     19  C   UNL     1      48.755  35.342  41.461  0.00  0.00    +0.000 C 
ATOM     20  H   UNL     1      47.942  36.125  41.478  0.00  0.00    +0.000 HD
ATOM     21  H   UNL     1      49.202  35.382  40.445  0.00  0.00    +0.000 HD
BRANCH  19  22
ATOM     22  O   UNL     1      49.660  35.749  42.415  0.00  0.00    +0.000 OA
ATOM     23  H   UNL     1      50.350  35.110  42.663  0.00  0.00    +0.000 HD
ENDBRANCH  19  22
ENDBRANCH  10  19
ENDBRANCH   5   6
ENDBRANCH   2   5
BRANCH   2  24
ATOM     24  O   UNL     1      46.475  33.493  45.603  0.00  0.00    +0.000 OA
BRANCH  24  25
ATOM     25  C   UNL     1      46.232  32.155  45.571  0.00  0.00    +0.000 C 
ATOM     26  H   UNL     1      45.534  31.774  44.834  0.00  0.00    +0.000 HD
ATOM     27  H   UNL     1      47.222  31.677  45.305  0.00  0.00    +0.000 HD
BRANCH  25  30
ATOM     28  C   UNL     1      45.641  31.911  49.234  0.00  0.00    +0.000 A 
ATOM     29  C   UNL     1      45.972  32.449  47.990  0.00  0.00    +0.000 A 
ATOM     30  C   UNL     1      45.881  31.602  46.889  0.00  0.00    +0.000 A 
ATOM     31  N   UNL     1      45.480  30.313  47.079  0.00  0.00    +0.000 NA
ATOM     32  C   UNL     1      45.166  29.817  48.294  0.00  0.00    +0.000 A 
ATOM     33  N   UNL     1      45.247  30.611  49.353  0.00  0.00    +0.000 NA
ATOM     34  H   UNL     1      45.707  32.555  50.091  0.00  0.00    +0.000 HD
ATOM     35  H   UNL     1      46.282  33.487  47.933  0.00  0.00    +0.000 HD
ATOM     36  N   UNL     1      44.753  28.463  48.433  0.00  0.00    +0.000 N 
ATOM     37  C   UNL     1      44.877  27.371  47.489  0.00  0.00    +0.000 C 
ATOM     38  C   UNL     1      44.982  26.110  48.344  0.00  0.00    +0.000 C 
ATOM     39  C   UNL     1      44.894  26.611  49.777  0.00  0.00    +0.000 C 
ATOM     40  C   UNL     1      44.103  27.889  49.595  0.00  0.00    +0.000 C 
ATOM     41  H   UNL     1      44.185  28.534  50.494  0.00  0.00    +0.000 HD
ENDBRANCH  25  30
ENDBRANCH  24  25
ENDBRANCH   2  24
TORSDOF 8
