
 OpenBabel03242517093D

 31 33  0  0  1  0  0  0  0  0999 V2000
   36.2370   28.9860   41.4790 C   0  0  2  0  0  0  0  0  0  0  0  0
   37.3980   29.8900   41.3420 C   0  0  1  0  0  0  0  0  0  0  0  0
   38.7060   29.2770   41.7470 C   0  0  0  0  0  0  0  0  0  0  0  0
   38.6500   28.7480   43.1640 C   0  0  0  0  0  0  0  0  0  0  0  0
   37.3620   28.0320   43.5020 C   0  0  0  0  0  0  0  0  0  0  0  0
   36.5770   27.7210   42.2600 C   0  0  0  0  0  0  0  0  0  0  0  0
   35.3690   29.4230   42.0570 H   0  0  0  0  0  0  0  0  0  0  0  0
   37.2360   30.6820   42.1470 H   0  0  0  0  0  0  0  0  0  0  0  0
   39.1540   28.5720   41.0590 H   0  0  0  0  0  0  0  0  0  0  0  0
   39.4200   30.1480   41.8680 H   0  0  0  0  0  0  0  0  0  0  0  0
   39.4860   28.0470   43.3160 H   0  0  0  0  0  0  0  0  0  0  0  0
   38.7660   29.5430   43.9280 H   0  0  0  0  0  0  0  0  0  0  0  0
   36.6920   28.6780   44.1260 H   0  0  0  0  0  0  0  0  0  0  0  0
   37.5190   27.1120   44.0650 H   0  0  0  0  0  0  0  0  0  0  0  0
   35.6610   27.1990   42.5190 H   0  0  0  0  0  0  0  0  0  0  0  0
   37.1910   27.0300   41.6450 H   0  0  0  0  0  0  0  0  0  0  0  0
   35.6700   28.5640   40.1870 C   0  0  0  0  0  0  0  0  0  0  0  0
   36.2890   27.4580   39.5780 C   0  0  0  0  0  0  0  0  0  0  0  0
   35.8380   26.9780   38.3540 C   0  0  0  0  0  0  0  0  0  0  0  0
   34.7830   27.6340   37.7990 N   0  0  0  0  0  0  0  0  0  0  0  0
   34.1920   28.6990   38.3950 C   0  0  0  0  0  0  0  0  0  0  0  0
   34.6390   29.1590   39.5860 N   0  0  0  0  0  0  0  0  0  0  0  0
   37.1260   26.8740   39.9340 H   0  0  0  0  0  0  0  0  0  0  0  0
   36.2570   26.1390   37.8230 H   0  0  0  0  0  0  0  0  0  0  0  0
   33.3570   29.1750   37.9010 H   0  0  0  0  0  0  0  0  0  0  0  0
   37.3780   30.6000   40.1190 N   0  0  2  0  0  0  0  0  0  0  0  0
   38.6190   30.6990   39.4100 C   0  0  0  0  0  2  0  0  0  0  0  0
   38.6850   32.0730   38.7780 C   0  0  0  0  0  2  0  0  0  0  0  0
   37.4160   32.7680   39.1780 C   0  0  0  0  0  2  0  0  0  0  0  0
   37.0070   32.0020   40.4150 C   0  0  0  0  0  3  0  0  0  0  0  0
   35.9670   32.1290   40.6840 H   0  0  0  0  0  0  0  0  0  0  0  0
  1  7  1  1  0  0  0
  1  6  1  0  0  0  0
  2  1  1  0  0  0  0
  2  3  1  0  0  0  0
  2  8  1  1  0  0  0
  3 10  1  0  0  0  0
  3  4  1  0  0  0  0
  4 11  1  0  0  0  0
  4  5  1  0  0  0  0
  4 12  1  0  0  0  0
  5 14  1  0  0  0  0
  5 13  1  0  0  0  0
  6 15  1  0  0  0  0
  6  5  1  0  0  0  0
  9  3  1  0  0  0  0
 16  6  1  0  0  0  0
 17  1  1  0  0  0  0
 18 23  1  0  0  0  0
 18 17  2  0  0  0  0
 19 18  1  0  0  0  0
 20 19  2  0  0  0  0
 20 21  1  0  0  0  0
 21 22  2  0  0  0  0
 22 17  1  0  0  0  0
 24 19  1  0  0  0  0
 25 21  1  0  0  0  0
 26 27  1  1  0  0  0
 26 30  1  0  0  0  0
 26  2  1  0  0  0  0
 28 29  1  0  0  0  0
 28 27  1  0  0  0  0
 29 30  1  0  0  0  0
 30 31  1  0  0  0  0
M  END
>  <minimizedAffinity>
-4.75500202

$$$$

 OpenBabel03242517093D

 31 33  0  0  1  0  0  0  0  0999 V2000
   36.7790   28.2890   40.7770 C   0  0  2  0  0  0  0  0  0  0  0  0
   37.2190   29.4940   41.5110 C   0  0  1  0  0  0  0  0  0  0  0  0
   38.0480   29.2050   42.7270 C   0  0  0  0  0  0  0  0  0  0  0  0
   37.3240   28.2770   43.6790 C   0  0  0  0  0  0  0  0  0  0  0  0
   36.5930   27.1440   42.9960 C   0  0  0  0  0  0  0  0  0  0  0  0
   37.0290   27.0070   41.5650 C   0  0  0  0  0  0  0  0  0  0  0  0
   35.6680   28.2500   40.5640 H   0  0  0  0  0  0  0  0  0  0  0  0
   36.2590   29.9170   41.9620 H   0  0  0  0  0  0  0  0  0  0  0  0
   39.0770   28.9100   42.5640 H   0  0  0  0  0  0  0  0  0  0  0  0
   38.0520   30.1680   43.3230 H   0  0  0  0  0  0  0  0  0  0  0  0
   38.0540   27.8450   44.3810 H   0  0  0  0  0  0  0  0  0  0  0  0
   36.5660   28.7980   44.2980 H   0  0  0  0  0  0  0  0  0  0  0  0
   35.4900   27.3390   42.9560 H   0  0  0  0  0  0  0  0  0  0  0  0
   36.7220   26.1860   43.5010 H   0  0  0  0  0  0  0  0  0  0  0  0
   36.5030   26.1840   41.0920 H   0  0  0  0  0  0  0  0  0  0  0  0
   38.1090   26.7520   41.5700 H   0  0  0  0  0  0  0  0  0  0  0  0
   37.4320   28.1320   39.4670 C   0  0  0  0  0  0  0  0  0  0  0  0
   38.6860   27.4970   39.4800 C   0  0  0  0  0  0  0  0  0  0  0  0
   39.3930   27.3010   38.2990 C   0  0  0  0  0  0  0  0  0  0  0  0
   38.8050   27.7550   37.1590 N   0  0  0  0  0  0  0  0  0  0  0  0
   37.5950   28.3660   37.1580 C   0  0  0  0  0  0  0  0  0  0  0  0
   36.9140   28.5520   38.3120 N   0  0  0  0  0  0  0  0  0  0  0  0
   39.2340   27.1050   40.3250 H   0  0  0  0  0  0  0  0  0  0  0  0
   40.3560   26.8250   38.2240 H   0  0  0  0  0  0  0  0  0  0  0  0
   37.1830   28.7030   36.2170 H   0  0  0  0  0  0  0  0  0  0  0  0
   37.6930   30.5030   40.6410 N   0  0  2  0  0  0  0  0  0  0  0  0
   38.8340   31.2500   41.0800 C   0  0  0  0  0  2  0  0  0  0  0  0
   38.6490   32.6860   40.6360 C   0  0  0  0  0  2  0  0  0  0  0  0
   37.3250   32.7280   39.9300 C   0  0  0  0  0  2  0  0  0  0  0  0
   36.6220   31.5150   40.4950 C   0  0  0  0  0  3  0  0  0  0  0  0
   35.7840   31.1780   39.8990 H   0  0  0  0  0  0  0  0  0  0  0  0
  1  7  1  6  0  0  0
  1  2  1  0  0  0  0
  1  6  1  0  0  0  0
  2  8  1  1  0  0  0
  2  3  1  0  0  0  0
  3 10  1  0  0  0  0
  3  4  1  0  0  0  0
  4 12  1  0  0  0  0
  4 11  1  0  0  0  0
  5 14  1  0  0  0  0
  5  4  1  0  0  0  0
  6 16  1  0  0  0  0
  6  5  1  0  0  0  0
  9  3  1  0  0  0  0
 13  5  1  0  0  0  0
 15  6  1  0  0  0  0
 17 18  1  0  0  0  0
 17  1  1  0  0  0  0
 18 23  1  0  0  0  0
 19 18  2  0  0  0  0
 20 19  1  0  0  0  0
 21 20  2  0  0  0  0
 21 22  1  0  0  0  0
 22 17  2  0  0  0  0
 24 19  1  0  0  0  0
 25 21  1  0  0  0  0
 26 27  1  1  0  0  0
 26  2  1  0  0  0  0
 28 27  1  0  0  0  0
 29 30  1  0  0  0  0
 29 28  1  0  0  0  0
 30 26  1  0  0  0  0
 31 30  1  0  0  0  0
M  END
>  <minimizedAffinity>
-4.49757719

$$$$

 OpenBabel03242517093D

 31 33  0  0  1  0  0  0  0  0999 V2000
   38.6410   28.6340   41.1230 C   0  0  2  0  0  0  0  0  0  0  0  0
   37.2510   28.1370   41.0560 C   0  0  1  0  0  0  0  0  0  0  0  0
   36.5400   28.1200   42.3760 C   0  0  0  0  0  0  0  0  0  0  0  0
   37.3070   27.3200   43.4060 C   0  0  0  0  0  0  0  0  0  0  0  0
   38.8010   27.5500   43.3740 C   0  0  0  0  0  0  0  0  0  0  0  0
   39.1410   28.7640   42.5580 C   0  0  0  0  0  0  0  0  0  0  0  0
   39.4060   27.9540   40.6420 H   0  0  0  0  0  0  0  0  0  0  0  0
   37.3600   27.0250   40.8200 H   0  0  0  0  0  0  0  0  0  0  0  0
   36.1960   29.0720   42.7620 H   0  0  0  0  0  0  0  0  0  0  0  0
   35.6320   27.4610   42.2190 H   0  0  0  0  0  0  0  0  0  0  0  0
   36.9380   27.5820   44.4090 H   0  0  0  0  0  0  0  0  0  0  0  0
   37.1650   26.2260   43.2960 H   0  0  0  0  0  0  0  0  0  0  0  0
   39.3320   26.6960   42.8770 H   0  0  0  0  0  0  0  0  0  0  0  0
   39.2390   27.6530   44.3670 H   0  0  0  0  0  0  0  0  0  0  0  0
   40.2160   28.9210   42.5530 H   0  0  0  0  0  0  0  0  0  0  0  0
   38.6800   29.6400   43.0590 H   0  0  0  0  0  0  0  0  0  0  0  0
   38.8240   29.9440   40.4750 C   0  0  0  0  0  0  0  0  0  0  0  0
   38.5460   31.0670   41.2740 C   0  0  0  0  0  0  0  0  0  0  0  0
   38.6810   32.3520   40.7610 C   0  0  0  0  0  0  0  0  0  0  0  0
   39.0910   32.4470   39.4670 N   0  0  0  0  0  0  0  0  0  0  0  0
   39.3580   31.3580   38.7060 C   0  0  0  0  0  0  0  0  0  0  0  0
   39.2230   30.1110   39.2140 N   0  0  0  0  0  0  0  0  0  0  0  0
   38.2160   31.0970   42.3030 H   0  0  0  0  0  0  0  0  0  0  0  0
   38.4870   33.2610   41.3060 H   0  0  0  0  0  0  0  0  0  0  0  0
   39.6800   31.5030   37.6850 H   0  0  0  0  0  0  0  0  0  0  0  0
   36.5450   28.6780   39.9560 N   0  0  2  0  0  0  0  0  0  0  0  0
   35.2900   29.3070   40.2420 C   0  0  0  0  0  2  0  0  0  0  0  0
   34.3410   28.9900   39.1060 C   0  0  0  0  0  2  0  0  0  0  0  0
   35.1170   28.1250   38.1550 C   0  0  0  0  0  2  0  0  0  0  0  0
   36.2020   27.5630   39.0450 C   0  0  0  0  0  3  0  0  0  0  0  0
   37.0500   27.1670   38.5030 H   0  0  0  0  0  0  0  0  0  0  0  0
  1  7  1  6  0  0  0
  1  6  1  0  0  0  0
  2  8  1  6  0  0  0
  2  1  1  0  0  0  0
  2  3  1  0  0  0  0
  3  9  1  0  0  0  0
  3  4  1  0  0  0  0
  4 11  1  0  0  0  0
  5  4  1  0  0  0  0
  5 14  1  0  0  0  0
  6 16  1  0  0  0  0
  6  5  1  0  0  0  0
 10  3  1  0  0  0  0
 12  4  1  0  0  0  0
 13  5  1  0  0  0  0
 15  6  1  0  0  0  0
 17  1  1  0  0  0  0
 17 18  1  0  0  0  0
 18 23  1  0  0  0  0
 19 18  2  0  0  0  0
 19 24  1  0  0  0  0
 20 19  1  0  0  0  0
 21 22  1  0  0  0  0
 21 20  2  0  0  0  0
 22 17  2  0  0  0  0
 25 21  1  0  0  0  0
 26 27  1  1  0  0  0
 26  2  1  0  0  0  0
 28 27  1  0  0  0  0
 29 30  1  0  0  0  0
 29 28  1  0  0  0  0
 30 26  1  0  0  0  0
 31 30  1  0  0  0  0
M  END
>  <minimizedAffinity>
-4.49745512

$$$$

 OpenBabel03242517093D

 31 33  0  0  1  0  0  0  0  0999 V2000
   36.5060   30.3770   40.3260 C   0  0  2  0  0  0  0  0  0  0  0  0
   36.7320   29.8000   38.9840 C   0  0  1  0  0  0  0  0  0  0  0  0
   37.8270   30.4650   38.2040 C   0  0  0  0  0  0  0  0  0  0  0  0
   37.5850   31.9530   38.0730 C   0  0  0  0  0  0  0  0  0  0  0  0
   37.0770   32.6070   39.3380 C   0  0  0  0  0  0  0  0  0  0  0  0
   37.2470   31.6960   40.5210 C   0  0  0  0  0  0  0  0  0  0  0  0
   35.4310   30.6490   40.5440 H   0  0  0  0  0  0  0  0  0  0  0  0
   35.7990   30.0870   38.3920 H   0  0  0  0  0  0  0  0  0  0  0  0
   38.8460   30.2350   38.4910 H   0  0  0  0  0  0  0  0  0  0  0  0
   37.6820   30.1250   37.1340 H   0  0  0  0  0  0  0  0  0  0  0  0
   38.5280   32.4440   37.7850 H   0  0  0  0  0  0  0  0  0  0  0  0
   36.8480   32.2030   37.2840 H   0  0  0  0  0  0  0  0  0  0  0  0
   35.9760   32.8110   39.2740 H   0  0  0  0  0  0  0  0  0  0  0  0
   37.5590   33.5610   39.5500 H   0  0  0  0  0  0  0  0  0  0  0  0
   36.8860   32.1830   41.4210 H   0  0  0  0  0  0  0  0  0  0  0  0
   38.3360   31.5220   40.6500 H   0  0  0  0  0  0  0  0  0  0  0  0
   36.9120   29.4810   41.4220 C   0  0  0  0  0  0  0  0  0  0  0  0
   38.1460   29.7740   42.0280 C   0  0  0  0  0  0  0  0  0  0  0  0
   38.6270   28.9890   43.0700 C   0  0  0  0  0  0  0  0  0  0  0  0
   37.8420   27.9460   43.4540 N   0  0  0  0  0  0  0  0  0  0  0  0
   36.6530   27.6730   42.8630 C   0  0  0  0  0  0  0  0  0  0  0  0
   36.1940   28.4420   41.8500 N   0  0  0  0  0  0  0  0  0  0  0  0
   38.8370   30.5720   41.7980 H   0  0  0  0  0  0  0  0  0  0  0  0
   39.5600   29.1460   43.5850 H   0  0  0  0  0  0  0  0  0  0  0  0
   36.0780   26.8290   43.2160 H   0  0  0  0  0  0  0  0  0  0  0  0
   36.7330   28.3860   39.0070 N   0  0  2  0  0  0  0  0  0  0  0  0
   37.7860   27.7300   38.2920 C   0  0  0  0  0  2  0  0  0  0  0  0
   37.2100   26.4830   37.6530 C   0  0  0  0  0  2  0  0  0  0  0  0
   35.7560   26.4690   38.0270 C   0  0  0  0  0  2  0  0  0  0  0  0
   35.4910   27.9220   38.3460 C   0  0  0  0  0  3  0  0  0  0  0  0
   34.5990   28.0850   38.9340 H   0  0  0  0  0  0  0  0  0  0  0  0
  1  6  1  0  0  0  0
  1  7  1  1  0  0  0
  1 17  1  0  0  0  0
  2  8  1  6  0  0  0
  2 26  1  0  0  0  0
  2  1  1  0  0  0  0
  3  9  1  0  0  0  0
  3  2  1  0  0  0  0
  4  3  1  0  0  0  0
  4  5  1  0  0  0  0
  5 14  1  0  0  0  0
  5  6  1  0  0  0  0
  6 16  1  0  0  0  0
  6 15  1  0  0  0  0
 10  3  1  0  0  0  0
 11  4  1  0  0  0  0
 12  4  1  0  0  0  0
 13  5  1  0  0  0  0
 17 22  2  0  0  0  0
 17 18  1  0  0  0  0
 18 19  2  0  0  0  0
 19 20  1  0  0  0  0
 19 24  1  0  0  0  0
 21 25  1  0  0  0  0
 21 20  2  0  0  0  0
 22 21  1  0  0  0  0
 23 18  1  0  0  0  0
 26 27  1  6  0  0  0
 28 29  1  0  0  0  0
 28 27  1  0  0  0  0
 29 30  1  0  0  0  0
 30 31  1  0  0  0  0
 30 26  1  0  0  0  0
M  END
>  <minimizedAffinity>
-4.46530008

$$$$

 OpenBabel03242517093D

 31 33  0  0  1  0  0  0  0  0999 V2000
   35.6790   29.3220   39.2500 C   0  0  2  0  0  0  0  0  0  0  0  0
   36.2460   28.1150   39.8860 C   0  0  1  0  0  0  0  0  0  0  0  0
   36.6230   27.0310   38.9220 C   0  0  0  0  0  0  0  0  0  0  0  0
   35.4490   26.6320   38.0550 C   0  0  0  0  0  0  0  0  0  0  0  0
   34.6200   27.7990   37.5680 C   0  0  0  0  0  0  0  0  0  0  0  0
   35.3440   29.0980   37.7790 C   0  0  0  0  0  0  0  0  0  0  0  0
   34.6950   29.6660   39.6900 H   0  0  0  0  0  0  0  0  0  0  0  0
   35.3670   27.6520   40.4480 H   0  0  0  0  0  0  0  0  0  0  0  0
   37.5320   27.1740   38.3490 H   0  0  0  0  0  0  0  0  0  0  0  0
   36.7540   26.1000   39.5540 H   0  0  0  0  0  0  0  0  0  0  0  0
   35.8230   26.0830   37.1770 H   0  0  0  0  0  0  0  0  0  0  0  0
   34.7420   25.9510   38.5710 H   0  0  0  0  0  0  0  0  0  0  0  0
   33.6670   27.8890   38.1500 H   0  0  0  0  0  0  0  0  0  0  0  0
   34.3380   27.7140   36.5180 H   0  0  0  0  0  0  0  0  0  0  0  0
   34.7400   29.9240   37.4160 H   0  0  0  0  0  0  0  0  0  0  0  0
   36.2680   29.0660   37.1650 H   0  0  0  0  0  0  0  0  0  0  0  0
   36.5680   30.4940   39.3230 C   0  0  0  0  0  0  0  0  0  0  0  0
   37.4550   30.6580   38.2450 C   0  0  0  0  0  0  0  0  0  0  0  0
   38.3420   31.7280   38.2150 C   0  0  0  0  0  0  0  0  0  0  0  0
   38.2940   32.5840   39.2710 N   0  0  0  0  0  0  0  0  0  0  0  0
   37.4340   32.4170   40.3050 C   0  0  0  0  0  0  0  0  0  0  0  0
   36.5750   31.3730   40.3260 N   0  0  0  0  0  0  0  0  0  0  0  0
   37.5700   30.0390   37.3670 H   0  0  0  0  0  0  0  0  0  0  0  0
   39.0520   31.9240   37.4280 H   0  0  0  0  0  0  0  0  0  0  0  0
   37.4460   33.1340   41.1140 H   0  0  0  0  0  0  0  0  0  0  0  0
   37.1930   28.4380   40.8870 N   0  0  2  0  0  0  0  0  0  0  0  0
   38.4080   27.6790   40.8930 C   0  0  0  0  0  2  0  0  0  0  0  0
   38.8070   27.4510   42.3360 C   0  0  0  0  0  2  0  0  0  0  0  0
   37.7400   28.1080   43.1630 C   0  0  0  0  0  2  0  0  0  0  0  0
   36.5740   28.1580   42.2020 C   0  0  0  0  0  3  0  0  0  0  0  0
   35.8070   28.8670   42.4820 H   0  0  0  0  0  0  0  0  0  0  0  0
  1 17  1  0  0  0  0
  1  7  1  1  0  0  0
  1  2  1  0  0  0  0
  2  8  1  1  0  0  0
  2 26  1  0  0  0  0
  3 10  1  0  0  0  0
  3  2  1  0  0  0  0
  4 12  1  0  0  0  0
  4  3  1  0  0  0  0
  5  6  1  0  0  0  0
  5  4  1  0  0  0  0
  5 13  1  0  0  0  0
  6  1  1  0  0  0  0
  9  3  1  0  0  0  0
 11  4  1  0  0  0  0
 14  5  1  0  0  0  0
 15  6  1  0  0  0  0
 16  6  1  0  0  0  0
 17 22  1  0  0  0  0
 18 17  2  0  0  0  0
 19 18  1  0  0  0  0
 19 20  2  0  0  0  0
 20 21  1  0  0  0  0
 21 22  2  0  0  0  0
 21 25  1  0  0  0  0
 23 18  1  0  0  0  0
 24 19  1  0  0  0  0
 26 27  1  6  0  0  0
 26 30  1  0  0  0  0
 27 28  1  0  0  0  0
 28 29  1  0  0  0  0
 30 31  1  0  0  0  0
 30 29  1  0  0  0  0
M  END
>  <minimizedAffinity>
-4.44193649

$$$$

 OpenBabel03242517093D

 31 33  0  0  1  0  0  0  0  0999 V2000
   37.4070   31.2200   38.8390 C   0  0  2  0  0  0  0  0  0  0  0  0
   37.6470   29.9130   39.4860 C   0  0  1  0  0  0  0  0  0  0  0  0
   38.2440   28.8790   38.5790 C   0  0  0  0  0  0  0  0  0  0  0  0
   37.3960   28.6740   37.3430 C   0  0  0  0  0  0  0  0  0  0  0  0
   36.8580   29.9560   36.7480 C   0  0  0  0  0  0  0  0  0  0  0  0
   37.5620   31.1530   37.3230 C   0  0  0  0  0  0  0  0  0  0  0  0
   36.3600   31.6250   38.9750 H   0  0  0  0  0  0  0  0  0  0  0  0
   36.6020   29.4980   39.6810 H   0  0  0  0  0  0  0  0  0  0  0  0
   39.2980   28.9750   38.3480 H   0  0  0  0  0  0  0  0  0  0  0  0
   38.0940   27.8910   39.1120 H   0  0  0  0  0  0  0  0  0  0  0  0
   38.0000   28.1640   36.5760 H   0  0  0  0  0  0  0  0  0  0  0  0
   36.5130   28.0300   37.5250 H   0  0  0  0  0  0  0  0  0  0  0  0
   35.7750   30.0960   37.0000 H   0  0  0  0  0  0  0  0  0  0  0  0
   36.9320   29.9880   35.6610 H   0  0  0  0  0  0  0  0  0  0  0  0
   37.1700   32.0640   36.8790 H   0  0  0  0  0  0  0  0  0  0  0  0
   38.6310   31.0770   37.0380 H   0  0  0  0  0  0  0  0  0  0  0  0
   38.3020   32.2850   39.3230 C   0  0  0  0  0  0  0  0  0  0  0  0
   39.5880   32.3080   38.7570 C   0  0  0  0  0  0  0  0  0  0  0  0
   40.5160   33.2680   39.1450 C   0  0  0  0  0  0  0  0  0  0  0  0
   40.1050   34.1610   40.0860 N   0  0  0  0  0  0  0  0  0  0  0  0
   38.8610   34.1300   40.6240 C   0  0  0  0  0  0  0  0  0  0  0  0
   37.9660   33.1920   40.2410 N   0  0  0  0  0  0  0  0  0  0  0  0
   40.0090   31.6490   38.0110 H   0  0  0  0  0  0  0  0  0  0  0  0
   41.5190   33.3530   38.7610 H   0  0  0  0  0  0  0  0  0  0  0  0
   38.5970   34.8690   41.3680 H   0  0  0  0  0  0  0  0  0  0  0  0
   38.2320   30.0540   40.7660 N   0  0  2  0  0  0  0  0  0  0  0  0
   39.4170   29.2910   41.0210 C   0  0  0  0  0  2  0  0  0  0  0  0
   39.3680   28.8220   42.4600 C   0  0  0  0  0  2  0  0  0  0  0  0
   38.0740   29.3440   43.0160 C   0  0  0  0  0  2  0  0  0  0  0  0
   37.2540   29.5660   41.7660 C   0  0  0  0  0  3  0  0  0  0  0  0
   36.4110   30.2270   41.9080 H   0  0  0  0  0  0  0  0  0  0  0  0
  1  7  1  1  0  0  0
  1 17  1  0  0  0  0
  1  2  1  0  0  0  0
  2  8  1  1  0  0  0
  2 26  1  0  0  0  0
  3 10  1  0  0  0  0
  3  2  1  0  0  0  0
  4 12  1  0  0  0  0
  4  3  1  0  0  0  0
  5 13  1  0  0  0  0
  5  6  1  0  0  0  0
  5  4  1  0  0  0  0
  6  1  1  0  0  0  0
  9  3  1  0  0  0  0
 11  4  1  0  0  0  0
 14  5  1  0  0  0  0
 15  6  1  0  0  0  0
 16  6  1  0  0  0  0
 17 22  1  0  0  0  0
 18 19  1  0  0  0  0
 18 17  2  0  0  0  0
 19 20  2  0  0  0  0
 20 21  1  0  0  0  0
 21 25  1  0  0  0  0
 22 21  2  0  0  0  0
 23 18  1  0  0  0  0
 24 19  1  0  0  0  0
 26 27  1  6  0  0  0
 26 30  1  0  0  0  0
 27 28  1  0  0  0  0
 28 29  1  0  0  0  0
 30 31  1  0  0  0  0
 30 29  1  0  0  0  0
M  END
>  <minimizedAffinity>
-4.41684198

$$$$

 OpenBabel03242517093D

 31 33  0  0  1  0  0  0  0  0999 V2000
   37.8540   29.3800   39.2410 C   0  0  2  0  0  0  0  0  0  0  0  0
   37.6560   29.6450   40.6810 C   0  0  1  0  0  0  0  0  0  0  0  0
   36.5870   30.6540   40.9800 C   0  0  0  0  0  0  0  0  0  0  0  0
   36.8470   31.9610   40.2630 C   0  0  0  0  0  0  0  0  0  0  0  0
   37.3310   31.7960   38.8410 C   0  0  0  0  0  0  0  0  0  0  0  0
   37.1220   30.3870   38.3610 C   0  0  0  0  0  0  0  0  0  0  0  0
   38.9270   29.4620   38.8930 H   0  0  0  0  0  0  0  0  0  0  0  0
   38.6060   30.1900   41.0020 H   0  0  0  0  0  0  0  0  0  0  0  0
   35.5590   30.3260   40.8840 H   0  0  0  0  0  0  0  0  0  0  0  0
   36.7550   30.9590   42.0580 H   0  0  0  0  0  0  0  0  0  0  0  0
   35.9180   32.5500   40.2460 H   0  0  0  0  0  0  0  0  0  0  0  0
   37.6060   32.5890   40.7710 H   0  0  0  0  0  0  0  0  0  0  0  0
   38.4350   31.9770   38.7650 H   0  0  0  0  0  0  0  0  0  0  0  0
   36.8540   32.4850   38.1430 H   0  0  0  0  0  0  0  0  0  0  0  0
   37.4660   30.2880   37.3360 H   0  0  0  0  0  0  0  0  0  0  0  0
   36.0290   30.1950   38.3660 H   0  0  0  0  0  0  0  0  0  0  0  0
   37.4130   28.0370   38.8290 C   0  0  0  0  0  0  0  0  0  0  0  0
   36.0660   27.9260   38.4420 C   0  0  0  0  0  0  0  0  0  0  0  0
   35.5430   26.7030   38.0380 C   0  0  0  0  0  0  0  0  0  0  0  0
   36.4010   25.6470   38.0430 N   0  0  0  0  0  0  0  0  0  0  0  0
   37.6980   25.7650   38.4180 C   0  0  0  0  0  0  0  0  0  0  0  0
   38.1980   26.9590   38.8090 N   0  0  0  0  0  0  0  0  0  0  0  0
   35.3100   28.6980   38.4040 H   0  0  0  0  0  0  0  0  0  0  0  0
   34.5250   26.5350   37.7280 H   0  0  0  0  0  0  0  0  0  0  0  0
   38.3270   24.8860   38.3990 H   0  0  0  0  0  0  0  0  0  0  0  0
   37.6400   28.4540   41.4440 N   0  0  2  0  0  0  0  0  0  0  0  0
   36.4350   28.1640   42.1630 C   0  0  0  0  0  2  0  0  0  0  0  0
   36.8220   27.5390   43.4870 C   0  0  0  0  0  2  0  0  0  0  0  0
   38.3230   27.5020   43.4980 C   0  0  0  0  0  2  0  0  0  0  0  0
   38.6780   28.5750   42.4930 C   0  0  0  0  0  3  0  0  0  0  0  0
   39.6890   28.5020   42.1150 H   0  0  0  0  0  0  0  0  0  0  0  0
  1  7  1  6  0  0  0
  1  2  1  0  0  0  0
  2  3  1  0  0  0  0
  2  8  1  1  0  0  0
  2 26  1  0  0  0  0
  3 10  1  0  0  0  0
  4 12  1  0  0  0  0
  4  3  1  0  0  0  0
  5  4  1  0  0  0  0
  6 16  1  0  0  0  0
  6  5  1  0  0  0  0
  6  1  1  0  0  0  0
  9  3  1  0  0  0  0
 11  4  1  0  0  0  0
 13  5  1  0  0  0  0
 14  5  1  0  0  0  0
 15  6  1  0  0  0  0
 17  1  1  0  0  0  0
 18 17  2  0  0  0  0
 19 20  2  0  0  0  0
 19 18  1  0  0  0  0
 20 21  1  0  0  0  0
 21 22  2  0  0  0  0
 22 17  1  0  0  0  0
 23 18  1  0  0  0  0
 24 19  1  0  0  0  0
 25 21  1  0  0  0  0
 26 27  1  1  0  0  0
 26 30  1  0  0  0  0
 27 28  1  0  0  0  0
 28 29  1  0  0  0  0
 30 29  1  0  0  0  0
 31 30  1  0  0  0  0
M  END
>  <minimizedAffinity>
-4.41342402

$$$$

 OpenBabel03242517093D

 31 33  0  0  1  0  0  0  0  0999 V2000
   37.4080   28.0030   39.5680 C   0  0  2  0  0  0  0  0  0  0  0  0
   37.0440   29.3490   39.0780 C   0  0  1  0  0  0  0  0  0  0  0  0
   35.5940   29.5050   38.7280 C   0  0  0  0  0  0  0  0  0  0  0  0
   35.1570   28.4700   37.7140 C   0  0  0  0  0  0  0  0  0  0  0  0
   35.7110   27.0870   37.9700 C   0  0  0  0  0  0  0  0  0  0  0  0
   36.2910   26.9860   39.3520 C   0  0  0  0  0  0  0  0  0  0  0  0
   38.2910   27.5340   39.0380 H   0  0  0  0  0  0  0  0  0  0  0  0
   37.5530   29.4270   38.0590 H   0  0  0  0  0  0  0  0  0  0  0  0
   34.8960   29.5990   39.5510 H   0  0  0  0  0  0  0  0  0  0  0  0
   35.5350   30.4530   38.1120 H   0  0  0  0  0  0  0  0  0  0  0  0
   34.0580   28.4080   37.7170 H   0  0  0  0  0  0  0  0  0  0  0  0
   35.4530   28.7290   36.6770 H   0  0  0  0  0  0  0  0  0  0  0  0
   36.5580   26.8540   37.2720 H   0  0  0  0  0  0  0  0  0  0  0  0
   34.9710   26.2980   37.8350 H   0  0  0  0  0  0  0  0  0  0  0  0
   36.6760   25.9860   39.5230 H   0  0  0  0  0  0  0  0  0  0  0  0
   35.4620   27.1520   40.0710 H   0  0  0  0  0  0  0  0  0  0  0  0
   37.7540   27.9760   40.9990 C   0  0  0  0  0  0  0  0  0  0  0  0
   36.6770   27.8080   41.8860 C   0  0  0  0  0  0  0  0  0  0  0  0
   36.8890   27.7730   43.2600 C   0  0  0  0  0  0  0  0  0  0  0  0
   38.1770   27.9090   43.6760 N   0  0  0  0  0  0  0  0  0  0  0  0
   39.2090   28.0690   42.8110 C   0  0  0  0  0  0  0  0  0  0  0  0
   38.9920   28.1020   41.4770 N   0  0  0  0  0  0  0  0  0  0  0  0
   35.6260   27.6940   41.6580 H   0  0  0  0  0  0  0  0  0  0  0  0
   36.1200   27.6490   44.0040 H   0  0  0  0  0  0  0  0  0  0  0  0
   40.2090   28.1700   43.2080 H   0  0  0  0  0  0  0  0  0  0  0  0
   37.6260   30.3740   39.8590 N   0  0  2  0  0  0  0  0  0  0  0  0
   36.7670   31.4510   40.2540 C   0  0  0  0  0  2  0  0  0  0  0  0
   37.5750   32.7310   40.2090 C   0  0  0  0  0  2  0  0  0  0  0  0
   38.9470   32.3310   39.7480 C   0  0  0  0  0  2  0  0  0  0  0  0
   38.6810   31.0200   39.0460 C   0  0  0  0  0  3  0  0  0  0  0  0
   39.5630   30.4080   38.9130 H   0  0  0  0  0  0  0  0  0  0  0  0
  1  7  1  6  0  0  0
  1 17  1  0  0  0  0
  2  8  1  6  0  0  0
  2  1  1  0  0  0  0
  2 26  1  0  0  0  0
  3  2  1  0  0  0  0
  3  9  1  0  0  0  0
  4 11  1  0  0  0  0
  4  5  1  0  0  0  0
  4  3  1  0  0  0  0
  5  6  1  0  0  0  0
  6 15  1  0  0  0  0
  6  1  1  0  0  0  0
  6 16  1  0  0  0  0
 10  3  1  0  0  0  0
 12  4  1  0  0  0  0
 13  5  1  0  0  0  0
 14  5  1  0  0  0  0
 17 22  2  0  0  0  0
 17 18  1  0  0  0  0
 18 19  2  0  0  0  0
 19 20  1  0  0  0  0
 19 24  1  0  0  0  0
 21 25  1  0  0  0  0
 21 20  2  0  0  0  0
 22 21  1  0  0  0  0
 23 18  1  0  0  0  0
 26 27  1  6  0  0  0
 28 27  1  0  0  0  0
 29 28  1  0  0  0  0
 30 29  1  0  0  0  0
 30 26  1  0  0  0  0
 31 30  1  0  0  0  0
M  END
>  <minimizedAffinity>
-4.39218521

$$$$

 OpenBabel03242517093D

 31 33  0  0  1  0  0  0  0  0999 V2000
   37.4280   29.5760   42.1650 C   0  0  2  0  0  0  0  0  0  0  0  0
   38.8430   29.3000   42.4940 C   0  0  1  0  0  0  0  0  0  0  0  0
   39.1910   27.8430   42.5430 C   0  0  0  0  0  0  0  0  0  0  0  0
   38.2990   27.0960   43.5110 C   0  0  0  0  0  0  0  0  0  0  0  0
   36.8460   27.5070   43.4500 C   0  0  0  0  0  0  0  0  0  0  0  0
   36.5670   28.3190   42.2160 C   0  0  0  0  0  0  0  0  0  0  0  0
   36.9080   30.2770   42.8840 H   0  0  0  0  0  0  0  0  0  0  0  0
   38.9460   29.6160   43.5860 H   0  0  0  0  0  0  0  0  0  0  0  0
   39.2950   27.3290   41.5950 H   0  0  0  0  0  0  0  0  0  0  0  0
   40.1870   27.7900   43.0780 H   0  0  0  0  0  0  0  0  0  0  0  0
   38.3620   26.0180   43.2960 H   0  0  0  0  0  0  0  0  0  0  0  0
   38.6070   27.2230   44.5680 H   0  0  0  0  0  0  0  0  0  0  0  0
   36.5760   28.1710   44.3120 H   0  0  0  0  0  0  0  0  0  0  0  0
   36.1590   26.6610   43.4830 H   0  0  0  0  0  0  0  0  0  0  0  0
   35.5180   28.5980   42.1830 H   0  0  0  0  0  0  0  0  0  0  0  0
   36.7660   27.6670   41.3400 H   0  0  0  0  0  0  0  0  0  0  0  0
   37.2450   30.1780   40.8330 C   0  0  0  0  0  0  0  0  0  0  0  0
   37.1760   29.2760   39.7580 C   0  0  0  0  0  0  0  0  0  0  0  0
   37.0080   29.7360   38.4560 C   0  0  0  0  0  0  0  0  0  0  0  0
   36.9180   31.0850   38.2990 N   0  0  0  0  0  0  0  0  0  0  0  0
   36.9850   31.9460   39.3440 C   0  0  0  0  0  0  0  0  0  0  0  0
   37.1490   31.4880   40.6060 N   0  0  0  0  0  0  0  0  0  0  0  0
   37.2370   28.1970   39.7780 H   0  0  0  0  0  0  0  0  0  0  0  0
   36.9460   29.1120   37.5800 H   0  0  0  0  0  0  0  0  0  0  0  0
   36.9070   33.0060   39.1500 H   0  0  0  0  0  0  0  0  0  0  0  0
   39.7280   30.1440   41.7830 N   0  0  2  0  0  0  0  0  0  0  0  0
   40.7910   29.5060   41.0660 C   0  0  0  0  0  2  0  0  0  0  0  0
   42.0200   30.3840   41.1790 C   0  0  0  0  0  2  0  0  0  0  0  0
   41.6080   31.5580   42.0180 C   0  0  0  0  0  2  0  0  0  0  0  0
   40.4120   31.0140   42.7660 C   0  0  0  0  0  3  0  0  0  0  0  0
   39.7750   31.7790   43.1880 H   0  0  0  0  0  0  0  0  0  0  0  0
  1  6  1  0  0  0  0
  1  2  1  0  0  0  0
  1  7  1  1  0  0  0
  2  3  1  0  0  0  0
  2  8  1  1  0  0  0
  3 10  1  0  0  0  0
  3  4  1  0  0  0  0
  4 12  1  0  0  0  0
  5 14  1  0  0  0  0
  5  4  1  0  0  0  0
  5 13  1  0  0  0  0
  6  5  1  0  0  0  0
  9  3  1  0  0  0  0
 11  4  1  0  0  0  0
 15  6  1  0  0  0  0
 16  6  1  0  0  0  0
 17  1  1  0  0  0  0
 18 23  1  0  0  0  0
 18 17  2  0  0  0  0
 19 18  1  0  0  0  0
 20 19  2  0  0  0  0
 20 21  1  0  0  0  0
 21 22  2  0  0  0  0
 22 17  1  0  0  0  0
 24 19  1  0  0  0  0
 25 21  1  0  0  0  0
 26 27  1  1  0  0  0
 26  2  1  0  0  0  0
 26 30  1  0  0  0  0
 27 28  1  0  0  0  0
 28 29  1  0  0  0  0
 29 30  1  0  0  0  0
 30 31  1  0  0  0  0
M  END
>  <minimizedAffinity>
-4.3707037

$$$$
