
 OpenBabel03242517123D

 44 47  0  0  1  0  0  0  0  0999 V2000
   37.0470   26.6680   41.4430 C   0  0  2  0  0  0  0  0  0  0  0  0
   37.6620   27.9870   41.1260 C   0  0  2  0  0  0  0  0  0  0  0  0
   38.2870   28.6320   42.3050 C   0  0  0  0  0  0  0  0  0  0  0  0
   37.3870   28.7350   43.5110 C   0  0  0  0  0  0  0  0  0  0  0  0
   36.4550   27.5700   43.6760 C   0  0  0  0  0  0  0  0  0  0  0  0
   36.9360   26.3530   42.9070 C   0  0  0  0  0  0  0  0  0  0  0  0
   36.0010   26.6600   41.0140 H   0  0  0  0  0  0  0  0  0  0  0  0
   38.4620   27.8170   40.3780 H   0  0  0  0  0  0  0  0  0  0  0  0
   38.5290   29.6920   42.0050 H   0  0  0  0  0  0  0  0  0  0  0  0
   39.2460   28.1130   42.5460 H   0  0  0  0  0  0  0  0  0  0  0  0
   36.8420   29.6970   43.5340 H   0  0  0  0  0  0  0  0  0  0  0  0
   38.0480   28.7500   44.4080 H   0  0  0  0  0  0  0  0  0  0  0  0
   36.3200   27.2610   44.7330 H   0  0  0  0  0  0  0  0  0  0  0  0
   35.4390   27.8230   43.3010 H   0  0  0  0  0  0  0  0  0  0  0  0
   37.8250   25.9780   43.3970 H   0  0  0  0  0  0  0  0  0  0  0  0
   36.1010   25.5960   42.9880 H   0  0  0  0  0  0  0  0  0  0  0  0
   36.8310   30.3440   40.7580 C   0  0  1  0  0  0  0  0  0  0  0  0
   36.6410   28.8990   40.4820 C   0  0  1  0  0  0  0  0  0  0  0  0
   36.6910   28.6980   39.1080 O   0  0  0  0  0  0  0  0  0  0  0  0
   37.3180   29.7900   38.5350 C   0  0  0  0  0  0  0  0  0  0  0  0
   36.7320   30.9310   39.3410 C   0  0  2  0  0  0  0  0  0  0  0  0
   37.8300   30.6210   41.1320 H   0  0  0  0  0  0  0  0  0  0  0  0
   35.6330   28.6000   40.8780 H   0  0  0  0  0  0  0  0  0  0  0  0
   37.0130   29.8070   37.4800 H   0  0  0  0  0  0  0  0  0  0  0  0
   38.4000   29.7520   38.7120 H   0  0  0  0  0  0  0  0  0  0  0  0
   35.6730   31.0940   39.0680 H   0  0  0  0  0  0  0  0  0  0  0  0
   35.8250   30.8990   41.5240 O   0  0  0  0  0  0  0  0  0  0  0  0
   35.7380   31.8770   41.4080 H   0  0  0  0  0  0  0  0  0  0  0  0
   37.4930   32.0830   39.2680 O   0  0  0  0  0  0  0  0  0  0  0  0
   40.4520   31.6660   40.4650 H   0  0  0  0  0  0  0  0  0  0  0  0
   39.8130   31.8200   39.6560 N   0  0  0  0  0  0  0  0  0  0  0  0
   40.1820   33.0470   38.9750 C   0  0  0  0  0  2  0  0  0  0  0  0
   39.8500   34.1040   39.9810 C   0  0  0  0  0  2  0  0  0  0  0  0
   38.6230   33.5810   40.6700 C   0  0  0  0  0  2  0  0  0  0  0  0
   38.5110   32.1460   40.1910 C   0  0  1  0  0  3  0  0  0  0  0  0
   37.7370   25.5480   40.7720 C   0  0  0  0  0  0  0  0  0  0  0  0
   37.3470   24.2790   41.1990 C   0  0  0  0  0  0  0  0  0  0  0  0
   37.9260   23.1320   40.6340 C   0  0  0  0  0  0  0  0  0  0  0  0
   38.8850   23.3690   39.6540 N   0  0  0  0  0  0  0  0  0  0  0  0
   39.2360   24.6150   39.2700 C   0  0  0  0  0  0  0  0  0  0  0  0
   38.6640   25.7070   39.8260 N   0  0  0  0  0  0  0  0  0  0  0  0
   36.6390   23.9400   41.9390 H   0  0  0  0  0  0  0  0  0  0  0  0
   37.7280   22.1140   40.8570 H   0  0  0  0  0  0  0  0  0  0  0  0
   39.9940   24.6880   38.5000 H   0  0  0  0  0  0  0  0  0  0  0  0
  1  7  1  6  0  0  0
  1  6  1  0  0  0  0
  2  8  1  6  0  0  0
  2  1  1  0  0  0  0
  2  3  1  0  0  0  0
  3 10  1  0  0  0  0
  3  4  1  0  0  0  0
  4 11  1  0  0  0  0
  4  5  1  0  0  0  0
  4 12  1  0  0  0  0
  5 13  1  0  0  0  0
  6 16  1  0  0  0  0
  6 15  1  0  0  0  0
  6  5  1  0  0  0  0
  9  3  1  0  0  0  0
 14  5  1  0  0  0  0
 17 22  1  1  0  0  0
 17 27  1  0  0  0  0
 18 17  1  0  0  0  0
 18 23  1  1  0  0  0
 18  2  1  0  0  0  0
 19 18  1  0  0  0  0
 20 25  1  0  0  0  0
 20 19  1  0  0  0  0
 20 21  1  0  0  0  0
 21 26  1  6  0  0  0
 21 17  1  0  0  0  0
 24 20  1  0  0  0  0
 28 27  1  0  0  0  0
 29 21  1  0  0  0  0
 31 35  1  0  0  0  0
 31 30  1  0  0  0  0
 32 31  1  0  0  0  0
 32 33  1  0  0  0  0
 33 34  1  0  0  0  0
 35 29  1  6  0  0  0
 35 34  1  0  0  0  0
 36 37  1  0  0  0  0
 36  1  1  0  0  0  0
 37 42  1  0  0  0  0
 38 43  1  0  0  0  0
 38 37  2  0  0  0  0
 39 38  1  0  0  0  0
 40 39  2  0  0  0  0
 40 41  1  0  0  0  0
 41 36  2  0  0  0  0
 44 40  1  0  0  0  0
M  END
>  <minimizedAffinity>
-6.14915609

$$$$

 OpenBabel03242517123D

 44 47  0  0  1  0  0  0  0  0999 V2000
   36.6950   28.8510   41.3890 C   0  0  2  0  0  0  0  0  0  0  0  0
   38.1140   29.2440   41.1670 C   0  0  2  0  0  0  0  0  0  0  0  0
   39.0770   28.3620   41.8680 C   0  0  0  0  0  0  0  0  0  0  0  0
   38.7940   28.1740   43.3390 C   0  0  0  0  0  0  0  0  0  0  0  0
   37.3320   28.1430   43.6790 C   0  0  0  0  0  0  0  0  0  0  0  0
   36.4800   27.8250   42.4640 C   0  0  0  0  0  0  0  0  0  0  0  0
   36.1200   29.7780   41.6850 H   0  0  0  0  0  0  0  0  0  0  0  0
   38.3220   29.1650   40.0810 H   0  0  0  0  0  0  0  0  0  0  0  0
   40.0840   28.8640   41.8060 H   0  0  0  0  0  0  0  0  0  0  0  0
   39.1420   27.3840   41.3320 H   0  0  0  0  0  0  0  0  0  0  0  0
   39.3400   28.9120   43.9570 H   0  0  0  0  0  0  0  0  0  0  0  0
   39.2150   27.1830   43.6260 H   0  0  0  0  0  0  0  0  0  0  0  0
   37.0800   27.4010   44.4640 H   0  0  0  0  0  0  0  0  0  0  0  0
   37.0000   29.1280   44.0730 H   0  0  0  0  0  0  0  0  0  0  0  0
   36.6530   26.7900   42.1970 H   0  0  0  0  0  0  0  0  0  0  0  0
   35.4110   27.9640   42.8020 H   0  0  0  0  0  0  0  0  0  0  0  0
   39.7060   31.1960   41.3700 C   0  0  1  0  0  0  0  0  0  0  0  0
   38.3230   30.6920   41.5520 C   0  0  1  0  0  0  0  0  0  0  0  0
   37.4610   31.4690   40.7870 O   0  0  0  0  0  0  0  0  0  0  0  0
   38.2100   32.1190   39.8210 C   0  0  0  0  0  0  0  0  0  0  0  0
   39.4450   32.5060   40.6090 C   0  0  2  0  0  0  0  0  0  0  0  0
   40.3430   30.5840   40.7110 H   0  0  0  0  0  0  0  0  0  0  0  0
   38.0600   30.7870   42.6410 H   0  0  0  0  0  0  0  0  0  0  0  0
   37.6180   32.9850   39.4970 H   0  0  0  0  0  0  0  0  0  0  0  0
   38.5030   31.4240   39.0240 H   0  0  0  0  0  0  0  0  0  0  0  0
   39.2120   33.3210   41.3190 H   0  0  0  0  0  0  0  0  0  0  0  0
   40.3430   31.5090   42.5550 O   0  0  0  0  0  0  0  0  0  0  0  0
   41.0770   32.1600   42.4450 H   0  0  0  0  0  0  0  0  0  0  0  0
   40.5290   32.7880   39.7980 O   0  0  0  0  0  0  0  0  0  0  0  0
   40.3740   32.3450   36.6140 H   0  0  0  0  0  0  0  0  0  0  0  0
   40.6100   32.9390   37.4380 N   0  0  0  0  0  0  0  0  0  0  0  0
   42.0160   33.2900   37.3940 C   0  0  0  0  0  2  0  0  0  0  0  0
   42.6990   31.9750   37.6120 C   0  0  0  0  0  2  0  0  0  0  0  0
   41.7990   31.2500   38.5700 C   0  0  0  0  0  2  0  0  0  0  0  0
   40.5400   32.0970   38.6090 C   0  0  1  0  0  3  0  0  0  0  0  0
   36.0400   28.3800   40.1520 C   0  0  0  0  0  0  0  0  0  0  0  0
   34.9700   29.1620   39.7210 C   0  0  0  0  0  0  0  0  0  0  0  0
   34.2680   28.8210   38.5550 C   0  0  0  0  0  0  0  0  0  0  0  0
   34.7170   27.6790   37.8990 N   0  0  0  0  0  0  0  0  0  0  0  0
   35.7580   26.9470   38.3510 C   0  0  0  0  0  0  0  0  0  0  0  0
   36.4230   27.2940   39.4780 N   0  0  0  0  0  0  0  0  0  0  0  0
   34.5060   30.0510   40.1170 H   0  0  0  0  0  0  0  0  0  0  0  0
   33.4420   29.3190   38.1110 H   0  0  0  0  0  0  0  0  0  0  0  0
   36.0270   26.0760   37.7670 H   0  0  0  0  0  0  0  0  0  0  0  0
  1  7  1  1  0  0  0
  1  6  1  0  0  0  0
  2  8  1  6  0  0  0
  2  1  1  0  0  0  0
  2 18  1  0  0  0  0
  2  3  1  0  0  0  0
  3  4  1  0  0  0  0
  4 12  1  0  0  0  0
  4  5  1  0  0  0  0
  4 11  1  0  0  0  0
  5 14  1  0  0  0  0
  5 13  1  0  0  0  0
  6 16  1  0  0  0  0
  6  5  1  0  0  0  0
  9  3  1  0  0  0  0
 10  3  1  0  0  0  0
 15  6  1  0  0  0  0
 17 22  1  6  0  0  0
 17 18  1  0  0  0  0
 17 27  1  0  0  0  0
 18 23  1  1  0  0  0
 19 18  1  0  0  0  0
 20 21  1  0  0  0  0
 20 19  1  0  0  0  0
 21 26  1  1  0  0  0
 21 17  1  0  0  0  0
 24 20  1  0  0  0  0
 25 20  1  0  0  0  0
 28 27  1  0  0  0  0
 29 21  1  0  0  0  0
 30 31  1  0  0  0  0
 31 35  1  0  0  0  0
 32 31  1  0  0  0  0
 32 33  1  0  0  0  0
 33 34  1  0  0  0  0
 34 35  1  0  0  0  0
 35 29  1  1  0  0  0
 36  1  1  0  0  0  0
 37 42  1  0  0  0  0
 37 36  1  0  0  0  0
 38 37  2  0  0  0  0
 39 40  2  0  0  0  0
 39 38  1  0  0  0  0
 40 41  1  0  0  0  0
 41 36  2  0  0  0  0
 43 38  1  0  0  0  0
 44 40  1  0  0  0  0
M  END
>  <minimizedAffinity>
-5.91765881

$$$$

 OpenBabel03242517123D

 44 47  0  0  1  0  0  0  0  0999 V2000
   38.9200   27.6640   42.2340 C   0  0  2  0  0  0  0  0  0  0  0  0
   37.8220   28.5860   42.6370 C   0  0  2  0  0  0  0  0  0  0  0  0
   36.9280   28.0050   43.6670 C   0  0  0  0  0  0  0  0  0  0  0  0
   36.3860   26.6390   43.3240 C   0  0  0  0  0  0  0  0  0  0  0  0
   37.3500   25.7740   42.5660 C   0  0  0  0  0  0  0  0  0  0  0  0
   38.7810   26.2530   42.7280 C   0  0  0  0  0  0  0  0  0  0  0  0
   38.9460   27.6280   41.1040 H   0  0  0  0  0  0  0  0  0  0  0  0
   38.2840   29.4940   43.0740 H   0  0  0  0  0  0  0  0  0  0  0  0
   36.0330   28.6850   43.7410 H   0  0  0  0  0  0  0  0  0  0  0  0
   37.4490   28.0070   44.6550 H   0  0  0  0  0  0  0  0  0  0  0  0
   35.4080   26.7040   42.8100 H   0  0  0  0  0  0  0  0  0  0  0  0
   36.1770   26.1220   44.2890 H   0  0  0  0  0  0  0  0  0  0  0  0
   37.3210   24.7090   42.8740 H   0  0  0  0  0  0  0  0  0  0  0  0
   37.1150   25.7820   41.4790 H   0  0  0  0  0  0  0  0  0  0  0  0
   39.0860   26.0580   43.7480 H   0  0  0  0  0  0  0  0  0  0  0  0
   39.3920   25.6240   42.0150 H   0  0  0  0  0  0  0  0  0  0  0  0
   36.9940   30.4960   41.2050 C   0  0  1  0  0  0  0  0  0  0  0  0
   37.0380   29.0290   41.4220 C   0  0  1  0  0  0  0  0  0  0  0  0
   37.6040   28.4300   40.3040 O   0  0  0  0  0  0  0  0  0  0  0  0
   38.3070   29.3970   39.6060 C   0  0  0  0  0  0  0  0  0  0  0  0
   37.3740   30.5860   39.7180 C   0  0  2  0  0  0  0  0  0  0  0  0
   37.7600   31.0710   41.7500 H   0  0  0  0  0  0  0  0  0  0  0  0
   35.9820   28.6660   41.5590 H   0  0  0  0  0  0  0  0  0  0  0  0
   38.4100   29.0270   38.5770 H   0  0  0  0  0  0  0  0  0  0  0  0
   39.2480   29.6370   40.1170 H   0  0  0  0  0  0  0  0  0  0  0  0
   36.4790   30.4370   39.0860 H   0  0  0  0  0  0  0  0  0  0  0  0
   35.7350   31.0410   41.3600 O   0  0  0  0  0  0  0  0  0  0  0  0
   35.6170   31.8970   40.8800 H   0  0  0  0  0  0  0  0  0  0  0  0
   38.0110   31.7890   39.4820 O   0  0  0  0  0  0  0  0  0  0  0  0
   40.5800   32.0760   41.4000 H   0  0  0  0  0  0  0  0  0  0  0  0
   40.1630   31.8970   40.4610 N   0  0  0  0  0  0  0  0  0  0  0  0
   40.6730   32.8670   39.5120 C   0  0  0  0  0  2  0  0  0  0  0  0
   40.0820   34.1550   39.9960 C   0  0  0  0  0  2  0  0  0  0  0  0
   38.7300   33.7640   40.5160 C   0  0  0  0  0  2  0  0  0  0  0  0
   38.7640   32.2480   40.5380 C   0  0  1  0  0  3  0  0  0  0  0  0
   40.2520   28.1690   42.6250 C   0  0  0  0  0  0  0  0  0  0  0  0
   41.0840   27.2260   43.2260 C   0  0  0  0  0  0  0  0  0  0  0  0
   42.3770   27.5810   43.6380 C   0  0  0  0  0  0  0  0  0  0  0  0
   42.7360   28.9050   43.4030 N   0  0  0  0  0  0  0  0  0  0  0  0
   41.8990   29.7890   42.8190 C   0  0  0  0  0  0  0  0  0  0  0  0
   40.6560   29.4250   42.4270 N   0  0  0  0  0  0  0  0  0  0  0  0
   40.9500   26.1860   43.4790 H   0  0  0  0  0  0  0  0  0  0  0  0
   43.1130   26.9740   44.1030 H   0  0  0  0  0  0  0  0  0  0  0  0
   42.2760   30.7950   42.6830 H   0  0  0  0  0  0  0  0  0  0  0  0
  1  7  1  6  0  0  0
  1 36  1  0  0  0  0
  1  2  1  0  0  0  0
  1  6  1  0  0  0  0
  2  8  1  1  0  0  0
  2  3  1  0  0  0  0
  3  9  1  0  0  0  0
  3 10  1  0  0  0  0
  4  3  1  0  0  0  0
  4 12  1  0  0  0  0
  5  6  1  0  0  0  0
  5 13  1  0  0  0  0
  5  4  1  0  0  0  0
  6 15  1  0  0  0  0
 11  4  1  0  0  0  0
 14  5  1  0  0  0  0
 16  6  1  0  0  0  0
 17 27  1  0  0  0  0
 17 18  1  0  0  0  0
 17 22  1  1  0  0  0
 18 23  1  1  0  0  0
 18  2  1  0  0  0  0
 19 18  1  0  0  0  0
 20 21  1  0  0  0  0
 20 25  1  0  0  0  0
 20 19  1  0  0  0  0
 21 26  1  6  0  0  0
 21 17  1  0  0  0  0
 24 20  1  0  0  0  0
 28 27  1  0  0  0  0
 29 21  1  0  0  0  0
 31 35  1  0  0  0  0
 31 30  1  0  0  0  0
 32 33  1  0  0  0  0
 32 31  1  0  0  0  0
 33 34  1  0  0  0  0
 34 35  1  0  0  0  0
 35 29  1  6  0  0  0
 36 37  1  0  0  0  0
 37 42  1  0  0  0  0
 37 38  2  0  0  0  0
 38 43  1  0  0  0  0
 39 38  1  0  0  0  0
 40 39  2  0  0  0  0
 41 36  2  0  0  0  0
 41 40  1  0  0  0  0
 44 40  1  0  0  0  0
M  END
>  <minimizedAffinity>
-5.89452219

$$$$

 OpenBabel03242517123D

 44 47  0  0  1  0  0  0  0  0999 V2000
   37.2010   28.2010   40.0390 C   0  0  2  0  0  0  0  0  0  0  0  0
   36.5450   29.4750   40.4430 C   0  0  2  0  0  0  0  0  0  0  0  0
   35.0670   29.4250   40.3370 C   0  0  0  0  0  0  0  0  0  0  0  0
   34.5540   28.9570   38.9970 C   0  0  0  0  0  0  0  0  0  0  0  0
   35.4080   27.9050   38.3510 C   0  0  0  0  0  0  0  0  0  0  0  0
   36.3000   27.2080   39.3620 C   0  0  0  0  0  0  0  0  0  0  0  0
   38.0330   28.4530   39.3150 H   0  0  0  0  0  0  0  0  0  0  0  0
   36.7940   29.6620   41.5070 H   0  0  0  0  0  0  0  0  0  0  0  0
   34.6960   30.4820   40.4600 H   0  0  0  0  0  0  0  0  0  0  0  0
   34.6560   28.8120   41.1750 H   0  0  0  0  0  0  0  0  0  0  0  0
   34.3660   29.8050   38.3120 H   0  0  0  0  0  0  0  0  0  0  0  0
   33.5540   28.4970   39.1760 H   0  0  0  0  0  0  0  0  0  0  0  0
   34.8210   27.1200   37.8320 H   0  0  0  0  0  0  0  0  0  0  0  0
   36.0660   28.3550   37.5770 H   0  0  0  0  0  0  0  0  0  0  0  0
   35.6720   26.6010   40.0010 H   0  0  0  0  0  0  0  0  0  0  0  0
   36.9860   26.5480   38.7530 H   0  0  0  0  0  0  0  0  0  0  0  0
   37.5730   31.7840   40.4560 C   0  0  1  0  0  0  0  0  0  0  0  0
   37.1090   30.6310   39.6460 C   0  0  1  0  0  0  0  0  0  0  0  0
   38.1780   30.1540   38.8970 O   0  0  0  0  0  0  0  0  0  0  0  0
   39.3480   30.6100   39.4770 C   0  0  0  0  0  0  0  0  0  0  0  0
   38.9650   32.0280   39.8530 C   0  0  2  0  0  0  0  0  0  0  0  0
   37.7390   31.5670   41.5240 H   0  0  0  0  0  0  0  0  0  0  0  0
   36.2920   30.9920   38.9630 H   0  0  0  0  0  0  0  0  0  0  0  0
   40.1220   30.5660   38.6980 H   0  0  0  0  0  0  0  0  0  0  0  0
   39.5710   30.0500   40.3940 H   0  0  0  0  0  0  0  0  0  0  0  0
   38.8850   32.6590   38.9490 H   0  0  0  0  0  0  0  0  0  0  0  0
   36.8200   32.9270   40.2750 O   0  0  0  0  0  0  0  0  0  0  0  0
   37.3080   33.7560   40.4990 H   0  0  0  0  0  0  0  0  0  0  0  0
   39.7940   32.5670   40.8190 O   0  0  0  0  0  0  0  0  0  0  0  0
   41.6540   35.1790   41.1060 H   0  0  0  0  0  0  0  0  0  0  0  0
   41.4870   34.1610   41.2590 N   0  0  0  0  0  0  0  0  0  0  0  0
   42.5350   33.3970   40.6100 C   0  0  0  0  0  2  0  0  0  0  0  0
   42.2860   33.6510   39.1550 C   0  0  0  0  0  2  0  0  0  0  0  0
   40.7910   33.7350   39.0500 C   0  0  0  0  0  2  0  0  0  0  0  0
   40.3200   33.7950   40.4910 C   0  0  1  0  0  3  0  0  0  0  0  0
   37.8750   27.5300   41.1680 C   0  0  0  0  0  0  0  0  0  0  0  0
   37.6310   26.1610   41.2670 C   0  0  0  0  0  0  0  0  0  0  0  0
   38.2190   25.4090   42.2960 C   0  0  0  0  0  0  0  0  0  0  0  0
   39.0290   26.1260   43.1720 N   0  0  0  0  0  0  0  0  0  0  0  0
   39.2390   27.4530   43.0410 C   0  0  0  0  0  0  0  0  0  0  0  0
   38.6640   28.1600   42.0410 N   0  0  0  0  0  0  0  0  0  0  0  0
   37.0320   25.4790   40.6840 H   0  0  0  0  0  0  0  0  0  0  0  0
   38.1240   24.3710   42.4920 H   0  0  0  0  0  0  0  0  0  0  0  0
   39.8860   27.9150   43.7770 H   0  0  0  0  0  0  0  0  0  0  0  0
  1  7  1  6  0  0  0
  1  2  1  0  0  0  0
  1 36  1  0  0  0  0
  2  8  1  1  0  0  0
  3  2  1  0  0  0  0
  3  9  1  0  0  0  0
  3 10  1  0  0  0  0
  4 12  1  0  0  0  0
  4  3  1  0  0  0  0
  5  4  1  0  0  0  0
  5  6  1  0  0  0  0
  6 15  1  0  0  0  0
  6  1  1  0  0  0  0
 11  4  1  0  0  0  0
 13  5  1  0  0  0  0
 14  5  1  0  0  0  0
 16  6  1  0  0  0  0
 17 22  1  1  0  0  0
 18 23  1  6  0  0  0
 18  2  1  0  0  0  0
 18 17  1  0  0  0  0
 19 20  1  0  0  0  0
 19 18  1  0  0  0  0
 20 21  1  0  0  0  0
 20 25  1  0  0  0  0
 21 26  1  6  0  0  0
 21 17  1  0  0  0  0
 21 29  1  0  0  0  0
 24 20  1  0  0  0  0
 27 17  1  0  0  0  0
 27 28  1  0  0  0  0
 30 31  1  0  0  0  0
 32 31  1  0  0  0  0
 33 32  1  0  0  0  0
 34 33  1  0  0  0  0
 34 35  1  0  0  0  0
 35 29  1  1  0  0  0
 35 31  1  0  0  0  0
 36 37  2  0  0  0  0
 36 41  1  0  0  0  0
 37 38  1  0  0  0  0
 38 43  1  0  0  0  0
 38 39  2  0  0  0  0
 40 39  1  0  0  0  0
 40 44  1  0  0  0  0
 41 40  2  0  0  0  0
 42 37  1  0  0  0  0
M  END
>  <minimizedAffinity>
-5.81885052

$$$$

 OpenBabel03242517123D

 44 47  0  0  1  0  0  0  0  0999 V2000
   37.9920   25.4710   41.6990 C   0  0  2  0  0  0  0  0  0  0  0  0
   39.0550   26.4700   41.4040 C   0  0  2  0  0  0  0  0  0  0  0  0
   40.4170   25.8840   41.4030 C   0  0  0  0  0  0  0  0  0  0  0  0
   40.7540   25.0870   42.6390 C   0  0  0  0  0  0  0  0  0  0  0  0
   39.5910   24.3310   43.2130 C   0  0  0  0  0  0  0  0  0  0  0  0
   38.4860   24.1400   42.1900 C   0  0  0  0  0  0  0  0  0  0  0  0
   37.3220   25.9010   42.5020 H   0  0  0  0  0  0  0  0  0  0  0  0
   38.8680   26.8760   40.3900 H   0  0  0  0  0  0  0  0  0  0  0  0
   41.1420   26.7460   41.3800 H   0  0  0  0  0  0  0  0  0  0  0  0
   40.5610   25.2840   40.4710 H   0  0  0  0  0  0  0  0  0  0  0  0
   41.2500   25.7120   43.4050 H   0  0  0  0  0  0  0  0  0  0  0  0
   41.5160   24.3310   42.3390 H   0  0  0  0  0  0  0  0  0  0  0  0
   39.8660   23.3260   43.5940 H   0  0  0  0  0  0  0  0  0  0  0  0
   39.1560   24.8760   44.0780 H   0  0  0  0  0  0  0  0  0  0  0  0
   38.8390   23.4420   41.4420 H   0  0  0  0  0  0  0  0  0  0  0  0
   37.6210   23.6910   42.7610 H   0  0  0  0  0  0  0  0  0  0  0  0
   39.5250   28.9100   41.8670 C   0  0  1  0  0  0  0  0  0  0  0  0
   38.9640   27.6320   42.3690 C   0  0  1  0  0  0  0  0  0  0  0  0
   37.6240   27.8260   42.6820 O   0  0  0  0  0  0  0  0  0  0  0  0
   37.1880   28.9620   42.0240 C   0  0  0  0  0  0  0  0  0  0  0  0
   38.3800   29.8830   42.1920 C   0  0  2  0  0  0  0  0  0  0  0  0
   39.6650   28.9600   40.7740 H   0  0  0  0  0  0  0  0  0  0  0  0
   39.5360   27.3410   43.2930 H   0  0  0  0  0  0  0  0  0  0  0  0
   36.2960   29.3120   42.5610 H   0  0  0  0  0  0  0  0  0  0  0  0
   37.0450   28.7610   40.9550 H   0  0  0  0  0  0  0  0  0  0  0  0
   38.4580   30.2280   43.2390 H   0  0  0  0  0  0  0  0  0  0  0  0
   40.6500   29.3280   42.5490 O   0  0  0  0  0  0  0  0  0  0  0  0
   40.8080   30.3010   42.4850 H   0  0  0  0  0  0  0  0  0  0  0  0
   38.3870   30.9200   41.2770 O   0  0  0  0  0  0  0  0  0  0  0  0
   35.6520   32.1450   40.1030 H   0  0  0  0  0  0  0  0  0  0  0  0
   36.5970   32.2720   40.5250 N   0  0  0  0  0  0  0  0  0  0  0  0
   37.4210   33.0670   39.6340 C   0  0  0  0  0  2  0  0  0  0  0  0
   37.6040   32.1660   38.4520 C   0  0  0  0  0  2  0  0  0  0  0  0
   37.6790   30.7910   39.0480 C   0  0  0  0  0  2  0  0  0  0  0  0
   37.2600   30.9890   40.4930 C   0  0  1  0  0  3  0  0  0  0  0  0
   37.0970   25.2420   40.5460 C   0  0  0  0  0  0  0  0  0  0  0  0
   36.4890   23.9890   40.5150 C   0  0  0  0  0  0  0  0  0  0  0  0
   35.6120   23.6520   39.4720 C   0  0  0  0  0  0  0  0  0  0  0  0
   35.4170   24.6410   38.5130 N   0  0  0  0  0  0  0  0  0  0  0  0
   36.0270   25.8440   38.5790 C   0  0  0  0  0  0  0  0  0  0  0  0
   36.8680   26.1490   39.5940 N   0  0  0  0  0  0  0  0  0  0  0  0
   36.5450   23.1300   41.1660 H   0  0  0  0  0  0  0  0  0  0  0  0
   35.0820   22.7450   39.3210 H   0  0  0  0  0  0  0  0  0  0  0  0
   35.8080   26.5420   37.7810 H   0  0  0  0  0  0  0  0  0  0  0  0
  1  6  1  0  0  0  0
  1  7  1  1  0  0  0
  2  8  1  6  0  0  0
  2  1  1  0  0  0  0
  2 18  1  0  0  0  0
  3  2  1  0  0  0  0
  3  4  1  0  0  0  0
  4  5  1  0  0  0  0
  4 11  1  0  0  0  0
  5 13  1  0  0  0  0
  5 14  1  0  0  0  0
  6 16  1  0  0  0  0
  6  5  1  0  0  0  0
  9  3  1  0  0  0  0
 10  3  1  0  0  0  0
 12  4  1  0  0  0  0
 15  6  1  0  0  0  0
 17 22  1  6  0  0  0
 17 21  1  0  0  0  0
 17 18  1  0  0  0  0
 17 27  1  0  0  0  0
 18 19  1  0  0  0  0
 18 23  1  1  0  0  0
 20 21  1  0  0  0  0
 20 24  1  0  0  0  0
 20 19  1  0  0  0  0
 21 26  1  1  0  0  0
 25 20  1  0  0  0  0
 28 27  1  0  0  0  0
 29 21  1  0  0  0  0
 30 31  1  0  0  0  0
 32 31  1  0  0  0  0
 33 34  1  0  0  0  0
 33 32  1  0  0  0  0
 34 35  1  0  0  0  0
 35 31  1  0  0  0  0
 35 29  1  1  0  0  0
 36  1  1  0  0  0  0
 37 36  1  0  0  0  0
 37 42  1  0  0  0  0
 38 37  2  0  0  0  0
 39 40  2  0  0  0  0
 39 38  1  0  0  0  0
 40 41  1  0  0  0  0
 41 36  2  0  0  0  0
 43 38  1  0  0  0  0
 44 40  1  0  0  0  0
M  END
>  <minimizedAffinity>
-5.78036213

$$$$

 OpenBabel03242517123D

 44 47  0  0  1  0  0  0  0  0999 V2000
   36.6100   26.0350   39.8800 C   0  0  2  0  0  0  0  0  0  0  0  0
   37.3730   27.1750   40.4600 C   0  0  2  0  0  0  0  0  0  0  0  0
   38.4360   26.7420   41.3990 C   0  0  0  0  0  0  0  0  0  0  0  0
   37.9670   25.8020   42.4820 C   0  0  0  0  0  0  0  0  0  0  0  0
   36.8960   24.8470   42.0390 C   0  0  0  0  0  0  0  0  0  0  0  0
   36.8630   24.7030   40.5280 C   0  0  0  0  0  0  0  0  0  0  0  0
   35.5080   26.2620   39.9910 H   0  0  0  0  0  0  0  0  0  0  0  0
   37.8670   27.7120   39.6260 H   0  0  0  0  0  0  0  0  0  0  0  0
   38.8000   27.6690   41.9270 H   0  0  0  0  0  0  0  0  0  0  0  0
   39.2900   26.3140   40.8200 H   0  0  0  0  0  0  0  0  0  0  0  0
   37.6700   26.3480   43.3970 H   0  0  0  0  0  0  0  0  0  0  0  0
   38.8470   25.1860   42.7800 H   0  0  0  0  0  0  0  0  0  0  0  0
   37.0110   23.8300   42.4650 H   0  0  0  0  0  0  0  0  0  0  0  0
   35.8940   25.2020   42.3630 H   0  0  0  0  0  0  0  0  0  0  0  0
   37.7550   24.1720   40.2230 H   0  0  0  0  0  0  0  0  0  0  0  0
   35.9470   24.0820   40.3050 H   0  0  0  0  0  0  0  0  0  0  0  0
   37.0820   29.3350   41.7380 C   0  0  1  0  0  0  0  0  0  0  0  0
   36.4290   28.1550   41.1210 C   0  0  1  0  0  0  0  0  0  0  0  0
   35.5270   28.5960   40.1600 O   0  0  0  0  0  0  0  0  0  0  0  0
   35.8650   29.8930   39.8160 C   0  0  0  0  0  0  0  0  0  0  0  0
   36.2280   30.4780   41.1660 C   0  0  2  0  0  0  0  0  0  0  0  0
   38.1130   29.5280   41.4000 H   0  0  0  0  0  0  0  0  0  0  0  0
   35.8840   27.5960   41.9300 H   0  0  0  0  0  0  0  0  0  0  0  0
   34.9640   30.3460   39.3800 H   0  0  0  0  0  0  0  0  0  0  0  0
   36.7550   29.9050   39.1750 H   0  0  0  0  0  0  0  0  0  0  0  0
   35.3210   30.6230   41.7820 H   0  0  0  0  0  0  0  0  0  0  0  0
   36.9780   29.3700   43.1140 O   0  0  0  0  0  0  0  0  0  0  0  0
   37.0680   30.2780   43.4910 H   0  0  0  0  0  0  0  0  0  0  0  0
   37.0010   31.6190   41.0630 O   0  0  0  0  0  0  0  0  0  0  0  0
   36.9970   33.4930   38.4460 H   0  0  0  0  0  0  0  0  0  0  0  0
   36.9770   33.3800   39.4820 N   0  0  0  0  0  0  0  0  0  0  0  0
   38.1090   34.0740   40.0650 C   0  0  0  0  0  2  0  0  0  0  0  0
   39.2800   33.2780   39.5780 C   0  0  0  0  0  2  0  0  0  0  0  0
   38.7770   31.8640   39.5560 C   0  0  0  0  0  2  0  0  0  0  0  0
   37.2820   31.9980   39.7710 C   0  0  1  0  0  3  0  0  0  0  0  0
   36.8210   25.8970   38.4250 C   0  0  0  0  0  0  0  0  0  0  0  0
   36.5430   24.6320   37.9100 C   0  0  0  0  0  0  0  0  0  0  0  0
   36.7000   24.3750   36.5390 C   0  0  0  0  0  0  0  0  0  0  0  0
   37.1410   25.4520   35.7760 N   0  0  0  0  0  0  0  0  0  0  0  0
   37.4000   26.6630   36.3150 C   0  0  0  0  0  0  0  0  0  0  0  0
   37.2410   26.8900   37.6390 N   0  0  0  0  0  0  0  0  0  0  0  0
   36.2100   23.7120   38.3640 H   0  0  0  0  0  0  0  0  0  0  0  0
   36.5280   23.4700   36.0130 H   0  0  0  0  0  0  0  0  0  0  0  0
   37.7400   27.4330   35.6330 H   0  0  0  0  0  0  0  0  0  0  0  0
  1  7  1  1  0  0  0
  1  2  1  0  0  0  0
  1  6  1  0  0  0  0
  2  8  1  6  0  0  0
  2 18  1  0  0  0  0
  2  3  1  0  0  0  0
  3  9  1  0  0  0  0
  3  4  1  0  0  0  0
  4 12  1  0  0  0  0
  4 11  1  0  0  0  0
  5 14  1  0  0  0  0
  5 13  1  0  0  0  0
  5  4  1  0  0  0  0
  6  5  1  0  0  0  0
 10  3  1  0  0  0  0
 15  6  1  0  0  0  0
 16  6  1  0  0  0  0
 17 22  1  6  0  0  0
 17 27  1  0  0  0  0
 18 17  1  0  0  0  0
 18 23  1  1  0  0  0
 19 18  1  0  0  0  0
 20 19  1  0  0  0  0
 20 21  1  0  0  0  0
 21 17  1  0  0  0  0
 21 26  1  1  0  0  0
 24 20  1  0  0  0  0
 25 20  1  0  0  0  0
 27 28  1  0  0  0  0
 29 21  1  0  0  0  0
 30 31  1  0  0  0  0
 31 35  1  0  0  0  0
 31 32  1  0  0  0  0
 33 32  1  0  0  0  0
 34 33  1  0  0  0  0
 34 35  1  0  0  0  0
 35 29  1  1  0  0  0
 36  1  1  0  0  0  0
 37 42  1  0  0  0  0
 37 36  1  0  0  0  0
 38 37  2  0  0  0  0
 39 40  2  0  0  0  0
 39 38  1  0  0  0  0
 40 41  1  0  0  0  0
 41 36  2  0  0  0  0
 43 38  1  0  0  0  0
 44 40  1  0  0  0  0
M  END
>  <minimizedAffinity>
-5.75618839

$$$$

 OpenBabel03242517123D

 44 47  0  0  1  0  0  0  0  0999 V2000
   39.6760   31.9180   39.8600 C   0  0  2  0  0  0  0  0  0  0  0  0
   38.3070   31.3520   39.7120 C   0  0  2  0  0  0  0  0  0  0  0  0
   37.3790   32.2600   38.9970 C   0  0  0  0  0  0  0  0  0  0  0  0
   37.3240   33.6610   39.5540 C   0  0  0  0  0  0  0  0  0  0  0  0
   38.6400   34.1610   40.0760 C   0  0  0  0  0  0  0  0  0  0  0  0
   39.8050   33.3730   39.5070 C   0  0  0  0  0  0  0  0  0  0  0  0
   39.9850   31.8020   40.9410 H   0  0  0  0  0  0  0  0  0  0  0  0
   38.3870   30.4220   39.1130 H   0  0  0  0  0  0  0  0  0  0  0  0
   36.3430   31.8340   39.1240 H   0  0  0  0  0  0  0  0  0  0  0  0
   37.6240   32.2580   37.9070 H   0  0  0  0  0  0  0  0  0  0  0  0
   36.5200   33.7710   40.3060 H   0  0  0  0  0  0  0  0  0  0  0  0
   37.0330   34.3330   38.7130 H   0  0  0  0  0  0  0  0  0  0  0  0
   38.8240   35.2320   39.8510 H   0  0  0  0  0  0  0  0  0  0  0  0
   38.6830   34.0710   41.1830 H   0  0  0  0  0  0  0  0  0  0  0  0
   39.8930   33.6170   38.4570 H   0  0  0  0  0  0  0  0  0  0  0  0
   40.7170   33.7370   40.0670 H   0  0  0  0  0  0  0  0  0  0  0  0
   36.6850   29.9320   41.0300 C   0  0  1  0  0  0  0  0  0  0  0  0
   37.7520   30.9610   41.0640 C   0  0  1  0  0  0  0  0  0  0  0  0
   38.8040   30.4870   41.8380 O   0  0  0  0  0  0  0  0  0  0  0  0
   38.6870   29.1110   41.9290 C   0  0  0  0  0  0  0  0  0  0  0  0
   37.1900   28.9480   42.0980 C   0  0  2  0  0  0  0  0  0  0  0  0
   36.6220   29.3560   40.0920 H   0  0  0  0  0  0  0  0  0  0  0  0
   37.3230   31.8910   41.5270 H   0  0  0  0  0  0  0  0  0  0  0  0
   39.2550   28.8060   42.8180 H   0  0  0  0  0  0  0  0  0  0  0  0
   38.9900   28.6330   40.9890 H   0  0  0  0  0  0  0  0  0  0  0  0
   36.8750   29.2810   43.1040 H   0  0  0  0  0  0  0  0  0  0  0  0
   35.4490   30.4010   41.4290 O   0  0  0  0  0  0  0  0  0  0  0  0
   34.8470   29.6900   41.7560 H   0  0  0  0  0  0  0  0  0  0  0  0
   36.7530   27.6730   41.7880 O   0  0  0  0  0  0  0  0  0  0  0  0
   38.9360   25.3370   42.1560 H   0  0  0  0  0  0  0  0  0  0  0  0
   38.0260   25.7770   42.4090 N   0  0  0  0  0  0  0  0  0  0  0  0
   36.9500   24.8340   42.1720 C   0  0  0  0  0  2  0  0  0  0  0  0
   36.9490   24.6920   40.6810 C   0  0  0  0  0  2  0  0  0  0  0  0
   37.3110   26.0610   40.1830 C   0  0  0  0  0  2  0  0  0  0  0  0
   37.7560   26.8030   41.4290 C   0  0  1  0  0  3  0  0  0  0  0  0
   40.6870   31.1590   39.0970 C   0  0  0  0  0  0  0  0  0  0  0  0
   40.9350   31.6400   37.8120 C   0  0  0  0  0  0  0  0  0  0  0  0
   41.8780   31.0060   36.9890 C   0  0  0  0  0  0  0  0  0  0  0  0
   42.5130   29.9010   37.5480 N   0  0  0  0  0  0  0  0  0  0  0  0
   42.2430   29.4660   38.7970 C   0  0  0  0  0  0  0  0  0  0  0  0
   41.3300   30.0920   39.5750 N   0  0  0  0  0  0  0  0  0  0  0  0
   40.5270   32.4610   37.2450 H   0  0  0  0  0  0  0  0  0  0  0  0
   42.1680   31.2600   36.0000 H   0  0  0  0  0  0  0  0  0  0  0  0
   42.7920   28.5970   39.1360 H   0  0  0  0  0  0  0  0  0  0  0  0
  1  7  1  1  0  0  0
  2  8  1  6  0  0  0
  2  1  1  0  0  0  0
  2 18  1  0  0  0  0
  3  9  1  0  0  0  0
  3  4  1  0  0  0  0
  3  2  1  0  0  0  0
  4  5  1  0  0  0  0
  4 11  1  0  0  0  0
  5 14  1  0  0  0  0
  6  1  1  0  0  0  0
  6 16  1  0  0  0  0
  6  5  1  0  0  0  0
 10  3  1  0  0  0  0
 12  4  1  0  0  0  0
 13  5  1  0  0  0  0
 15  6  1  0  0  0  0
 17 22  1  6  0  0  0
 17 18  1  0  0  0  0
 17 27  1  0  0  0  0
 17 21  1  0  0  0  0
 18 23  1  1  0  0  0
 18 19  1  0  0  0  0
 19 20  1  0  0  0  0
 20 21  1  0  0  0  0
 20 24  1  0  0  0  0
 21 26  1  1  0  0  0
 25 20  1  0  0  0  0
 27 28  1  0  0  0  0
 29 21  1  0  0  0  0
 30 31  1  0  0  0  0
 32 31  1  0  0  0  0
 33 32  1  0  0  0  0
 34 33  1  0  0  0  0
 34 35  1  0  0  0  0
 35 29  1  1  0  0  0
 35 31  1  0  0  0  0
 36 41  1  0  0  0  0
 36  1  1  0  0  0  0
 37 36  2  0  0  0  0
 38 39  2  0  0  0  0
 38 37  1  0  0  0  0
 39 40  1  0  0  0  0
 40 44  1  0  0  0  0
 40 41  2  0  0  0  0
 42 37  1  0  0  0  0
 43 38  1  0  0  0  0
M  END
>  <minimizedAffinity>
-5.70791769

$$$$

 OpenBabel03242517123D

 44 47  0  0  1  0  0  0  0  0999 V2000
   36.7850   28.8810   41.3810 C   0  0  2  0  0  0  0  0  0  0  0  0
   38.2020   29.2770   41.1500 C   0  0  2  0  0  0  0  0  0  0  0  0
   39.1720   28.3790   41.8210 C   0  0  0  0  0  0  0  0  0  0  0  0
   38.9070   28.1610   43.2900 C   0  0  0  0  0  0  0  0  0  0  0  0
   37.4500   28.1240   43.6480 C   0  0  0  0  0  0  0  0  0  0  0  0
   36.5820   27.8320   42.4380 C   0  0  0  0  0  0  0  0  0  0  0  0
   36.2140   29.8020   41.7030 H   0  0  0  0  0  0  0  0  0  0  0  0
   38.3960   29.2200   40.0600 H   0  0  0  0  0  0  0  0  0  0  0  0
   40.1780   28.8820   41.7570 H   0  0  0  0  0  0  0  0  0  0  0  0
   39.2290   27.4130   41.2630 H   0  0  0  0  0  0  0  0  0  0  0  0
   39.4610   28.8850   43.9170 H   0  0  0  0  0  0  0  0  0  0  0  0
   39.3300   27.1630   43.5510 H   0  0  0  0  0  0  0  0  0  0  0  0
   37.2060   27.3670   44.4200 H   0  0  0  0  0  0  0  0  0  0  0  0
   37.1230   29.1010   44.0660 H   0  0  0  0  0  0  0  0  0  0  0  0
   36.7500   26.8030   42.1460 H   0  0  0  0  0  0  0  0  0  0  0  0
   35.5170   27.9650   42.7910 H   0  0  0  0  0  0  0  0  0  0  0  0
   39.8290   31.1690   41.5450 C   0  0  1  0  0  0  0  0  0  0  0  0
   38.4170   30.7170   41.5630 C   0  0  1  0  0  0  0  0  0  0  0  0
   37.6790   31.5240   40.7060 O   0  0  0  0  0  0  0  0  0  0  0  0
   38.5580   32.1460   39.8370 C   0  0  0  0  0  0  0  0  0  0  0  0
   39.7070   32.4880   40.7640 C   0  0  2  0  0  0  0  0  0  0  0  0
   40.5160   30.5340   40.9620 H   0  0  0  0  0  0  0  0  0  0  0  0
   38.0320   30.8210   42.6140 H   0  0  0  0  0  0  0  0  0  0  0  0
   38.0400   33.0340   39.4490 H   0  0  0  0  0  0  0  0  0  0  0  0
   38.9170   31.4410   39.0760 H   0  0  0  0  0  0  0  0  0  0  0  0
   39.4230   33.3110   41.4460 H   0  0  0  0  0  0  0  0  0  0  0  0
   40.3350   31.4580   42.7970 O   0  0  0  0  0  0  0  0  0  0  0  0
   41.1000   32.0820   42.7760 H   0  0  0  0  0  0  0  0  0  0  0  0
   40.8880   32.7290   40.0860 O   0  0  0  0  0  0  0  0  0  0  0  0
   42.4410   34.7620   42.0390 H   0  0  0  0  0  0  0  0  0  0  0  0
   42.2000   33.7910   41.7440 N   0  0  0  0  0  0  0  0  0  0  0  0
   43.4140   33.0730   41.4070 C   0  0  0  0  0  2  0  0  0  0  0  0
   43.8930   33.7810   40.1770 C   0  0  0  0  0  2  0  0  0  0  0  0
   42.6320   34.1610   39.4590 C   0  0  0  0  0  2  0  0  0  0  0  0
   41.5320   33.8830   40.4670 C   0  0  1  0  0  3  0  0  0  0  0  0
   36.1140   28.4360   40.1430 C   0  0  0  0  0  0  0  0  0  0  0  0
   36.5400   27.2020   39.6560 C   0  0  0  0  0  0  0  0  0  0  0  0
   35.9750   26.6680   38.4880 C   0  0  0  0  0  0  0  0  0  0  0  0
   34.9940   27.4510   37.8860 N   0  0  0  0  0  0  0  0  0  0  0  0
   34.6110   28.6440   38.3910 C   0  0  0  0  0  0  0  0  0  0  0  0
   35.1680   29.1400   39.5190 N   0  0  0  0  0  0  0  0  0  0  0  0
   37.2800   26.4950   39.9970 H   0  0  0  0  0  0  0  0  0  0  0  0
   36.1980   25.7490   38.0060 H   0  0  0  0  0  0  0  0  0  0  0  0
   33.8400   29.1740   37.8450 H   0  0  0  0  0  0  0  0  0  0  0  0
  1  7  1  1  0  0  0
  1  6  1  0  0  0  0
  2  8  1  6  0  0  0
  2  1  1  0  0  0  0
  2 18  1  0  0  0  0
  2  3  1  0  0  0  0
  3  4  1  0  0  0  0
  4 12  1  0  0  0  0
  4  5  1  0  0  0  0
  4 11  1  0  0  0  0
  5 14  1  0  0  0  0
  5 13  1  0  0  0  0
  6 16  1  0  0  0  0
  6  5  1  0  0  0  0
  9  3  1  0  0  0  0
 10  3  1  0  0  0  0
 15  6  1  0  0  0  0
 17 22  1  6  0  0  0
 17 18  1  0  0  0  0
 17 27  1  0  0  0  0
 18 23  1  1  0  0  0
 19 18  1  0  0  0  0
 20 19  1  0  0  0  0
 20 21  1  0  0  0  0
 21 26  1  1  0  0  0
 21 17  1  0  0  0  0
 24 20  1  0  0  0  0
 25 20  1  0  0  0  0
 28 27  1  0  0  0  0
 29 21  1  0  0  0  0
 31 30  1  0  0  0  0
 32 31  1  0  0  0  0
 33 32  1  0  0  0  0
 34 33  1  0  0  0  0
 34 35  1  0  0  0  0
 35 29  1  6  0  0  0
 35 31  1  0  0  0  0
 36  1  1  0  0  0  0
 37 42  1  0  0  0  0
 37 36  1  0  0  0  0
 38 37  2  0  0  0  0
 39 40  2  0  0  0  0
 39 38  1  0  0  0  0
 40 41  1  0  0  0  0
 41 36  2  0  0  0  0
 43 38  1  0  0  0  0
 44 40  1  0  0  0  0
M  END
>  <minimizedAffinity>
-5.63992167

$$$$

 OpenBabel03242517123D

 44 47  0  0  1  0  0  0  0  0999 V2000
   37.7380   31.1110   38.7200 C   0  0  2  0  0  0  0  0  0  0  0  0
   38.1030   29.7560   39.2180 C   0  0  2  0  0  0  0  0  0  0  0  0
   38.5600   28.8460   38.1390 C   0  0  0  0  0  0  0  0  0  0  0  0
   37.6200   28.7530   36.9620 C   0  0  0  0  0  0  0  0  0  0  0  0
   36.9190   30.0400   36.6380 C   0  0  0  0  0  0  0  0  0  0  0  0
   37.6440   31.2370   37.2260 C   0  0  0  0  0  0  0  0  0  0  0  0
   36.7260   31.3770   39.1480 H   0  0  0  0  0  0  0  0  0  0  0  0
   38.9440   29.8710   39.9310 H   0  0  0  0  0  0  0  0  0  0  0  0
   38.6070   27.8120   38.5840 H   0  0  0  0  0  0  0  0  0  0  0  0
   39.5920   29.1350   37.8230 H   0  0  0  0  0  0  0  0  0  0  0  0
   36.9030   27.9180   37.0780 H   0  0  0  0  0  0  0  0  0  0  0  0
   38.2390   28.4880   36.0740 H   0  0  0  0  0  0  0  0  0  0  0  0
   36.8130   30.2200   35.5490 H   0  0  0  0  0  0  0  0  0  0  0  0
   35.8860   30.0390   37.0490 H   0  0  0  0  0  0  0  0  0  0  0  0
   38.5730   31.3640   36.6860 H   0  0  0  0  0  0  0  0  0  0  0  0
   36.9650   32.1200   37.0420 H   0  0  0  0  0  0  0  0  0  0  0  0
   37.1250   27.7280   40.3640 C   0  0  1  0  0  0  0  0  0  0  0  0
   36.9490   29.1510   39.9870 C   0  0  1  0  0  0  0  0  0  0  0  0
   36.7650   29.9000   41.1430 O   0  0  0  0  0  0  0  0  0  0  0  0
   37.2370   29.1610   42.2140 C   0  0  0  0  0  0  0  0  0  0  0  0
   36.7550   27.7700   41.8560 C   0  0  2  0  0  0  0  0  0  0  0  0
   38.1620   27.3580   40.3200 H   0  0  0  0  0  0  0  0  0  0  0  0
   36.0390   29.2270   39.3320 H   0  0  0  0  0  0  0  0  0  0  0  0
   36.7520   29.5670   43.1120 H   0  0  0  0  0  0  0  0  0  0  0  0
   38.3340   29.1610   42.2320 H   0  0  0  0  0  0  0  0  0  0  0  0
   35.6590   27.6970   41.9800 H   0  0  0  0  0  0  0  0  0  0  0  0
   36.2470   26.8730   39.7290 O   0  0  0  0  0  0  0  0  0  0  0  0
   36.1010   26.0260   40.2170 H   0  0  0  0  0  0  0  0  0  0  0  0
   37.4440   26.7770   42.5270 O   0  0  0  0  0  0  0  0  0  0  0  0
   40.6090   26.6750   41.9470 H   0  0  0  0  0  0  0  0  0  0  0  0
   39.8090   26.8080   42.6030 N   0  0  0  0  0  0  0  0  0  0  0  0
   39.9020   25.8400   43.6800 C   0  0  0  0  0  2  0  0  0  0  0  0
   39.6630   24.5370   42.9830 C   0  0  0  0  0  2  0  0  0  0  0  0
   38.6600   24.8700   41.9170 C   0  0  0  0  0  2  0  0  0  0  0  0
   38.6120   26.3860   41.9140 C   0  0  1  0  0  3  0  0  0  0  0  0
   38.6470   32.1600   39.2240 C   0  0  0  0  0  0  0  0  0  0  0  0
   38.0440   33.1140   40.0430 C   0  0  0  0  0  0  0  0  0  0  0  0
   38.8030   34.1610   40.5880 C   0  0  0  0  0  0  0  0  0  0  0  0
   40.1530   34.1600   40.2480 N   0  0  0  0  0  0  0  0  0  0  0  0
   40.6970   33.2180   39.4490 C   0  0  0  0  0  0  0  0  0  0  0  0
   39.9480   32.2160   38.9350 N   0  0  0  0  0  0  0  0  0  0  0  0
   37.0300   33.2520   40.3840 H   0  0  0  0  0  0  0  0  0  0  0  0
   38.4820   34.9490   41.2220 H   0  0  0  0  0  0  0  0  0  0  0  0
   41.7570   33.3100   39.2460 H   0  0  0  0  0  0  0  0  0  0  0  0
  1  7  1  1  0  0  0
  1  2  1  0  0  0  0
  1 36  1  0  0  0  0
  2  8  1  1  0  0  0
  2 18  1  0  0  0  0
  3  9  1  0  0  0  0
  3  2  1  0  0  0  0
  4 11  1  0  0  0  0
  4  3  1  0  0  0  0
  5  4  1  0  0  0  0
  5 14  1  0  0  0  0
  5  6  1  0  0  0  0
  6  1  1  0  0  0  0
 10  3  1  0  0  0  0
 12  4  1  0  0  0  0
 13  5  1  0  0  0  0
 15  6  1  0  0  0  0
 16  6  1  0  0  0  0
 17 22  1  6  0  0  0
 17 21  1  0  0  0  0
 18 23  1  6  0  0  0
 18 17  1  0  0  0  0
 18 19  1  0  0  0  0
 19 20  1  0  0  0  0
 20 25  1  0  0  0  0
 20 24  1  0  0  0  0
 21 26  1  1  0  0  0
 21 20  1  0  0  0  0
 21 29  1  0  0  0  0
 27 28  1  0  0  0  0
 27 17  1  0  0  0  0
 30 31  1  0  0  0  0
 31 32  1  0  0  0  0
 33 32  1  0  0  0  0
 34 33  1  0  0  0  0
 35 34  1  0  0  0  0
 35 29  1  1  0  0  0
 35 31  1  0  0  0  0
 36 37  1  0  0  0  0
 37 42  1  0  0  0  0
 37 38  2  0  0  0  0
 38 43  1  0  0  0  0
 39 38  1  0  0  0  0
 40 39  2  0  0  0  0
 41 36  2  0  0  0  0
 41 40  1  0  0  0  0
 44 40  1  0  0  0  0
M  END
>  <minimizedAffinity>
-5.5199666

$$$$
