
 OpenBabel03242517423D

 16 17  0  0  1  0  0  0  0  0999 V2000
   43.7720   30.1820   42.9270 C   0  0  0  0  0  0  0  0  0  0  0  0
   43.6910   31.4980   42.4320 C   0  0  0  0  0  0  0  0  0  0  0  0
   42.5510   31.9500   41.7850 C   0  0  0  0  0  0  0  0  0  0  0  0
   41.5240   31.0540   41.6600 N   0  0  0  0  0  0  0  0  0  0  0  0
   41.6160   29.8080   42.1360 C   0  0  0  0  0  0  0  0  0  0  0  0
   42.7120   29.3350   42.7700 N   0  0  0  0  0  0  0  0  0  0  0  0
   44.6690   29.8520   43.4260 H   0  0  0  0  0  0  0  0  0  0  0  0
   42.4780   32.9410   41.4070 H   0  0  0  0  0  0  0  0  0  0  0  0
   40.7800   29.1210   42.0180 H   0  0  0  0  0  0  0  0  0  0  0  0
   45.0970   32.6030   42.6470 S   0  0  0  0  0  0  0  0  0  0  0  0
   45.6590   34.1680   44.8610 H   0  0  0  0  0  0  0  0  0  0  0  0
   44.7730   34.5440   44.5040 N   0  0  0  0  0  0  0  0  0  0  0  0
   44.6230   35.9690   44.5560 C   0  0  0  0  0  0  0  0  0  0  0  0
   45.2090   36.4670   43.2520 C   0  0  0  0  0  0  0  0  0  0  0  0
   45.1950   35.3060   42.3000 C   0  0  0  0  0  0  0  0  0  0  0  0
   44.5050   34.2460   43.1110 C   0  0  1  0  0  0  0  0  0  0  0  0
  1  7  1  0  0  0  0
  2 10  1  0  0  0  0
  2  1  2  0  0  0  0
  3  2  1  0  0  0  0
  4  3  2  0  0  0  0
  4  5  1  0  0  0  0
  5  6  2  0  0  0  0
  6  1  1  0  0  0  0
  8  3  1  0  0  0  0
  9  5  1  0  0  0  0
 12 13  1  0  0  0  0
 12 11  1  0  0  0  0
 14 13  1  0  0  0  0
 15 16  1  0  0  0  0
 15 14  1  0  0  0  0
 16 10  1  6  0  0  0
 16 12  1  0  0  0  0
M  END
>  <minimizedAffinity>
-2.8771143

>  <minimizedRMSD>
4.96603537

$$$$
