
 OpenBabel03242513403D

 37 40  0  0  1  0  0  0  0  0999 V2000
   47.7180   31.0080   46.0130 C   0  0  0  0  0  0  0  0  0  0  0  0
   46.9840   32.0760   45.5380 C   0  0  0  0  0  0  0  0  0  0  0  0
   45.9880   32.5820   46.3380 C   0  0  0  0  0  0  0  0  0  0  0  0
   45.6980   32.0710   47.5800 C   0  0  0  0  0  0  0  0  0  0  0  0
   44.8180   32.3270   48.5800 N   0  0  0  0  0  0  0  0  0  0  0  0
   45.0050   31.4650   49.6050 C   0  0  0  0  0  0  0  0  0  0  0  0
   46.0140   30.6630   49.2380 N   0  0  0  0  0  0  0  0  0  0  0  0
   46.4490   31.0130   48.0140 C   0  0  0  0  0  0  0  0  0  0  0  0
   47.4570   30.4600   47.2690 C   0  0  0  0  0  0  0  0  0  0  0  0
   48.5140   30.5510   45.4560 H   0  0  0  0  0  0  0  0  0  0  0  0
   45.3870   33.4190   46.0040 H   0  0  0  0  0  0  0  0  0  0  0  0
   44.1070   33.0970   48.5220 H   0  0  0  0  0  0  0  0  0  0  0  0
   44.4170   31.4790   50.5130 H   0  0  0  0  0  0  0  0  0  0  0  0
   47.2020   34.4140   42.7300 C   0  0  0  0  0  0  0  0  0  0  0  0
   47.8270   33.6670   41.7430 C   0  0  0  0  0  0  0  0  0  0  0  0
   48.1670   32.3420   42.0780 C   0  0  0  0  0  0  0  0  0  0  0  0
   47.8790   31.8620   43.3140 N   0  0  0  0  0  0  0  0  0  0  0  0
   47.2740   32.6360   44.2210 C   0  0  0  0  0  0  0  0  0  0  0  0
   46.9280   33.9060   43.9580 N   0  0  0  0  0  0  0  0  0  0  0  0
   46.9070   35.4430   42.5560 H   0  0  0  0  0  0  0  0  0  0  0  0
   48.6540   31.7600   41.3070 H   0  0  0  0  0  0  0  0  0  0  0  0
   48.0900   34.3010   40.4310 C   0  0  0  0  0  0  0  0  0  0  0  0
   48.5940   35.5410   40.7260 F   0  0  0  0  0  0  0  0  0  0  0  0
   46.9120   34.4170   39.7630 F   0  0  0  0  0  0  0  0  0  0  0  0
   48.9910   33.4850   39.7300 F   0  0  0  0  0  0  0  0  0  0  0  0
   48.1890   29.3910   47.7500 O   0  0  0  0  0  0  0  0  0  0  0  0
   49.7910   28.0820   49.3170 O   0  0  0  0  0  0  0  0  0  0  0  0
   49.4640   29.5140   48.8640 P   0  0  2  0  0  0  0  0  0  0  0  0
   48.8840   30.3560   50.2100 O   0  0  0  0  0  0  0  0  0  0  0  0
   49.4230   31.1690   50.3510 H   0  0  0  0  0  0  0  0  0  0  0  0
   50.8300   30.2230   48.2270 O   0  0  0  0  0  0  0  0  0  0  0  0
   50.2730   27.9690   46.5560 H   0  0  0  0  0  0  0  0  0  0  0  0
   50.7930   28.8620   46.3250 N   0  0  0  0  0  0  0  0  0  0  0  0
   51.7590   28.5280   45.2970 C   0  0  0  0  0  0  0  0  0  0  0  0
   53.0340   29.2430   45.6270 C   0  0  0  0  0  0  0  0  0  0  0  0
   52.7800   29.9860   46.9070 C   0  0  0  0  0  0  0  0  0  0  0  0
   51.5670   29.3160   47.4680 C   0  0  1  0  0  0  0  0  0  0  0  0
  1  9  1  0  0  0  0
  2  1  2  0  0  0  0
  2  3  1  0  0  0  0
  3  4  2  0  0  0  0
  4  8  1  0  0  0  0
  4  5  1  0  0  0  0
  5  6  1  0  0  0  0
  6 13  1  0  0  0  0
  7  6  2  0  0  0  0
  8  7  1  0  0  0  0
  9 26  1  0  0  0  0
  9  8  2  0  0  0  0
 10  1  1  0  0  0  0
 11  3  1  0  0  0  0
 12  5  1  0  0  0  0
 14 19  1  0  0  0  0
 15 16  1  0  0  0  0
 15 14  2  0  0  0  0
 16 17  2  0  0  0  0
 17 18  1  0  0  0  0
 18  2  1  0  0  0  0
 19 18  2  0  0  0  0
 20 14  1  0  0  0  0
 21 16  1  0  0  0  0
 22 23  1  0  0  0  0
 22 15  1  0  0  0  0
 24 22  1  0  0  0  0
 25 22  1  0  0  0  0
 26 28  1  0  0  0  0
 28 27  2  1  0  0  0
 28 29  1  0  0  0  0
 29 30  1  0  0  0  0
 31 28  1  0  0  0  0
 33 32  1  0  0  0  0
 33 37  1  0  0  0  0
 34 35  1  0  0  0  0
 34 33  1  0  0  0  0
 35 36  1  0  0  0  0
 36 37  1  0  0  0  0
 37 31  1  6  0  0  0
M  END
>  <minimizedAffinity>
-5.57699871

>  <minimizedRMSD>
1.02669418

$$$$
