
 OpenBabel03242523503D

 40 43  0  0  1  0  0  0  0  0999 V2000
   42.8240   34.5230   38.7170 C   0  0  1  0  0  0  0  0  0  0  0  0
   42.9650   35.1740   40.0960 C   0  0  1  0  0  0  0  0  0  0  0  0
   41.6780   35.4160   40.6180 O   0  0  0  0  0  0  0  0  0  0  0  0
   40.7540   35.7660   39.6340 C   0  0  0  0  0  0  0  0  0  0  0  0
   40.4230   34.5530   38.7640 C   0  0  2  0  0  0  0  0  0  0  0  0
   41.6210   33.6040   38.8370 C   0  0  1  0  0  0  0  0  0  0  0  0
   43.7500   33.9410   38.4820 H   0  0  0  0  0  0  0  0  0  0  0  0
   43.5400   36.1090   40.0500 H   0  0  0  0  0  0  0  0  0  0  0  0
   41.0400   36.6480   39.0560 H   0  0  0  0  0  0  0  0  0  0  0  0
   39.8290   36.0120   40.1870 H   0  0  0  0  0  0  0  0  0  0  0  0
   39.4860   34.0740   39.0520 H   0  0  0  0  0  0  0  0  0  0  0  0
   41.6130   33.1800   39.8550 H   0  0  0  0  0  0  0  0  0  0  0  0
   42.5900   35.4910   37.7420 O   0  0  0  0  0  0  0  0  0  0  0  0
   43.2060   36.2490   37.8420 H   0  0  0  0  0  0  0  0  0  0  0  0
   40.4280   34.9980   37.4220 O   0  0  0  0  0  0  0  0  0  0  0  0
   39.5740   34.7370   36.9810 H   0  0  0  0  0  0  0  0  0  0  0  0
   43.4990   34.1840   40.9320 O   0  0  0  0  0  0  0  0  0  0  0  0
   44.5970   34.3110   41.6820 C   0  0  0  0  0  0  0  0  0  0  0  0
   45.8530   34.4410   41.0930 C   0  0  0  0  0  0  0  0  0  0  0  0
   46.9620   34.5740   41.9150 C   0  0  0  0  0  0  0  0  0  0  0  0
   46.7930   34.5710   43.2830 N   0  0  0  0  0  0  0  0  0  0  0  0
   45.5680   34.4430   43.8190 C   0  0  0  0  0  0  0  0  0  0  0  0
   44.4730   34.3130   43.0300 N   0  0  0  0  0  0  0  0  0  0  0  0
   45.9890   34.4440   40.0270 H   0  0  0  0  0  0  0  0  0  0  0  0
   45.4330   34.4400   44.8940 H   0  0  0  0  0  0  0  0  0  0  0  0
   48.3440   34.6990   41.3320 C   0  0  0  0  0  0  0  0  0  0  0  0
   49.0660   36.0120   41.5200 C   0  0  0  0  0  0  0  0  0  0  0  0
   49.4880   34.7060   42.2040 C   0  0  0  0  0  0  0  0  0  0  0  0
   48.4010   34.2450   40.3220 H   0  0  0  0  0  0  0  0  0  0  0  0
   48.5170   36.7700   42.0810 H   0  0  0  0  0  0  0  0  0  0  0  0
   49.6930   36.3400   40.6700 H   0  0  0  0  0  0  0  0  0  0  0  0
   49.2610   34.7390   43.3100 H   0  0  0  0  0  0  0  0  0  0  0  0
   50.4800   34.2970   41.9650 H   0  0  0  0  0  0  0  0  0  0  0  0
   41.5530   32.6480   37.8430 O   0  0  0  0  0  0  0  0  0  0  0  0
   39.5180   31.0590   37.5530 H   0  0  0  0  0  0  0  0  0  0  0  0
   39.9690   31.0320   38.5100 N   0  0  0  0  0  0  0  0  0  0  0  0
   40.0810   29.6220   38.8610 C   0  0  0  0  0  2  0  0  0  0  0  0
   40.9390   29.1230   37.7090 C   0  0  0  0  0  2  0  0  0  0  0  0
   41.7890   30.3140   37.2970 C   0  0  0  0  0  2  0  0  0  0  0  0
   41.3880   31.3640   38.3120 C   0  0  1  0  0  3  0  0  0  0  0  0
  1  7  1  6  0  0  0
  1  6  1  0  0  0  0
  1  2  1  0  0  0  0
  2  8  1  6  0  0  0
  2  3  1  0  0  0  0
  2 17  1  0  0  0  0
  4 10  1  0  0  0  0
  4  3  1  0  0  0  0
  5  6  1  0  0  0  0
  5 11  1  1  0  0  0
  5  4  1  0  0  0  0
  6 12  1  1  0  0  0
  9  4  1  0  0  0  0
 13 14  1  0  0  0  0
 13  1  1  0  0  0  0
 15  5  1  0  0  0  0
 16 15  1  0  0  0  0
 17 18  1  0  0  0  0
 18 23  1  0  0  0  0
 19 18  2  0  0  0  0
 19 20  1  0  0  0  0
 20 21  2  0  0  0  0
 21 22  1  0  0  0  0
 22 25  1  0  0  0  0
 23 22  2  0  0  0  0
 24 19  1  0  0  0  0
 26 27  1  0  0  0  0
 26 20  1  0  0  0  0
 26 28  1  0  0  0  0
 27 30  1  0  0  0  0
 27 28  1  0  0  0  0
 28 32  1  0  0  0  0
 29 26  1  0  0  0  0
 31 27  1  0  0  0  0
 33 28  1  0  0  0  0
 34  6  1  0  0  0  0
 35 36  1  0  0  0  0
 36 37  1  0  0  0  0
 38 37  1  0  0  0  0
 39 38  1  0  0  0  0
 39 40  1  0  0  0  0
 40 34  1  6  0  0  0
 40 36  1  0  0  0  0
M  END
>  <minimizedAffinity>
-5.80693197

>  <minimizedRMSD>
0.43939656

$$$$
