
 OpenBabel03252507493D

 42 44  0  0  1  0  0  0  0  0999 V2000
   47.6140   34.7880   41.0460 C   0  0  0  0  0  0  0  0  0  0  0  0
   47.0770   34.3420   40.2040 H   0  0  0  0  0  0  0  0  0  0  0  0
   47.8940   35.8180   40.7060 H   0  0  0  0  0  0  0  0  0  0  0  0
   48.8250   34.0250   41.4000 C   0  0  0  0  0  0  0  0  0  0  0  0
   48.9650   32.7610   40.8480 C   0  0  0  0  0  0  0  0  0  0  0  0
   50.0640   31.9730   41.1210 C   0  0  0  0  0  0  0  0  0  0  0  0
   51.0130   32.5120   41.9700 N   0  0  0  0  0  0  0  0  0  0  0  0
   50.8380   33.7610   42.4930 C   0  0  0  0  0  0  0  0  0  0  0  0
   49.7630   34.4850   42.2030 N   0  0  0  0  0  0  0  0  0  0  0  0
   50.1880   30.9900   40.7010 H   0  0  0  0  0  0  0  0  0  0  0  0
   51.6430   34.0900   43.1480 H   0  0  0  0  0  0  0  0  0  0  0  0
   47.6980   32.1270   39.7580 S   0  0  0  0  0  0  0  0  0  0  0  0
   48.1500   32.3980   38.0250 C   0  0  0  0  0  0  0  0  0  0  0  0
   49.2250   32.5620   37.9480 H   0  0  0  0  0  0  0  0  0  0  0  0
   47.8030   31.5020   37.4600 H   0  0  0  0  0  0  0  0  0  0  0  0
   47.4470   33.6370   37.5330 C   0  0  0  0  0  0  0  0  0  0  0  0
   47.5380   34.4880   38.2380 H   0  0  0  0  0  0  0  0  0  0  0  0
   46.3640   33.4180   37.3910 H   0  0  0  0  0  0  0  0  0  0  0  0
   48.0100   33.9810   36.2600 N   0  0  0  0  0  0  0  0  0  0  0  0
   47.8330   34.9840   36.0460 H   0  0  0  0  0  0  0  0  0  0  0  0
   47.6440   33.3980   35.4830 H   0  0  0  0  0  0  0  0  0  0  0  0
   46.6610   34.9500   42.1790 C   0  0  0  0  0  0  0  0  0  0  0  0
   46.8920   34.1270   42.9120 H   0  0  0  0  0  0  0  0  0  0  0  0
   46.8110   35.8910   42.7740 H   0  0  0  0  0  0  0  0  0  0  0  0
   45.2360   34.7550   41.8010 C   0  0  0  0  0  0  0  0  0  0  0  0
   44.2640   35.7120   42.2370 C   0  0  0  0  0  0  0  0  0  0  0  0
   42.7080   35.0550   41.5410 S   0  0  0  0  0  0  0  0  0  0  0  0
   43.6450   33.5750   40.7660 C   0  0  0  0  0  0  0  0  0  0  0  0
   44.7130   33.7960   41.0980 N   0  0  0  0  0  0  0  0  0  0  0  0
   44.4230   36.5940   42.8260 H   0  0  0  0  0  0  0  0  0  0  0  0
   43.0180   32.5820   40.0230 O   0  0  0  0  0  0  0  0  0  0  0  0
   42.0590   32.1580   37.5830 O   0  0  0  0  0  0  0  0  0  0  0  0
   43.3260   32.5610   38.3550 P   0  0  1  0  0  0  0  0  0  0  0  0
   43.7360   34.1420   37.8880 O   0  0  0  0  0  0  0  0  0  0  0  0
   44.5810   34.1830   37.4020 H   0  0  0  0  0  0  0  0  0  0  0  0
   44.6160   31.5440   37.9890 O   0  0  0  0  0  0  0  0  0  0  0  0
   43.6270   32.7090   35.5830 H   0  0  0  0  0  0  0  0  0  0  0  0
   44.5300   32.2960   35.8350 N   0  0  0  0  0  0  0  0  0  0  0  0
   45.4140   32.0130   34.7270 C   0  0  0  0  0  2  0  0  0  0  0  0
   46.3060   30.8790   35.1630 C   0  0  0  0  0  2  0  0  0  0  0  0
   45.5220   30.1610   36.2390 C   0  0  0  0  0  2  0  0  0  0  0  0
   44.4660   31.1200   36.6710 C   0  0  1  0  0  3  0  0  0  0  0  0
  1  4  1  0  0  0  0
  1 22  1  0  0  0  0
  2  1  1  0  0  0  0
  3  1  1  0  0  0  0
  4  9  1  0  0  0  0
  5  6  1  0  0  0  0
  5  4  2  0  0  0  0
  6  7  2  0  0  0  0
  7  8  1  0  0  0  0
  8 11  1  0  0  0  0
  9  8  2  0  0  0  0
 10  6  1  0  0  0  0
 12  5  1  0  0  0  0
 13 12  1  0  0  0  0
 14 13  1  0  0  0  0
 15 13  1  0  0  0  0
 16 13  1  0  0  0  0
 16 17  1  0  0  0  0
 18 16  1  0  0  0  0
 19 16  1  0  0  0  0
 20 19  1  0  0  0  0
 21 19  1  0  0  0  0
 22 24  1  0  0  0  0
 22 23  1  0  0  0  0
 25 22  1  0  0  0  0
 25 26  2  0  0  0  0
 26 30  1  0  0  0  0
 27 26  1  0  0  0  0
 28 29  2  0  0  0  0
 28 27  1  0  0  0  0
 29 25  1  0  0  0  0
 31 28  1  0  0  0  0
 33 32  2  6  0  0  0
 33 31  1  0  0  0  0
 34 33  1  0  0  0  0
 35 34  1  0  0  0  0
 36 33  1  0  0  0  0
 37 38  1  0  0  0  0
 38 42  1  0  0  0  0
 39 40  1  0  0  0  0
 39 38  1  0  0  0  0
 40 41  1  0  0  0  0
 41 42  1  0  0  0  0
 42 36  1  1  0  0  0
M  END
>  <minimizedAffinity>
-4.52334881

>  <minimizedRMSD>
2.05801511

$$$$
