
     RDKit          3D

 47 50  0  0  0  0  0  0  0  0999 V2000
   44.6291   34.3254   41.6188 C   0  0  0  0  0  0  0  0  0  0  0  0
   45.9018   34.4343   41.0638 C   0  0  0  0  0  0  0  0  0  0  0  0
   46.9846   34.6017   41.9131 C   0  0  0  0  0  0  0  0  0  0  0  0
   46.7754   34.6554   43.2754 N   0  0  0  0  0  0  0  0  0  0  0  0
   45.5341   34.5462   43.7779 C   0  0  0  0  0  0  0  0  0  0  0  0
   44.4636   34.3822   42.9619 N   0  0  0  0  0  0  0  0  0  0  0  0
   48.3836   34.7056   41.3676 C   0  0  0  0  0  0  0  0  0  0  0  0
   49.0851   36.0389   41.4889 C   0  0  0  0  0  0  0  0  0  0  0  0
   49.4986   34.7885   42.2736 C   0  0  0  0  0  0  0  0  0  0  0  0
   43.5537   34.1649   40.8417 O   0  0  0  0  0  0  0  0  0  0  0  0
   42.8792   34.5870   38.6410 C   0  0  1  0  0  0  0  0  0  0  0  0
   42.9611   35.1643   40.0577 C   0  0  1  0  0  0  0  0  0  0  0  0
   41.6561   35.2857   40.5745 O   0  0  0  0  0  0  0  0  0  0  0  0
   40.7187   35.6290   39.6001 C   0  0  0  0  0  0  0  0  0  0  0  0
   40.4815   34.4503   38.6569 C   0  0  2  0  0  0  0  0  0  0  0  0
   41.7412   33.5817   38.6918 C   0  0  1  0  0  0  0  0  0  0  0  0
   42.5876   35.5923   37.7212 O   0  0  0  0  0  0  0  0  0  0  0  0
   40.4682   34.9721   37.3436 O   0  0  0  0  0  0  0  0  0  0  0  0
   41.7489   32.6836   37.6433 O   0  0  0  0  0  0  0  0  0  0  0  0
   46.0700   34.3929   40.0028 H   0  0  0  0  0  0  0  0  0  0  0  0
   45.3664   34.5874   44.8466 H   0  0  0  0  0  0  0  0  0  0  0  0
   48.4805   34.1851   40.3938 H   0  0  0  0  0  0  0  0  0  0  0  0
   48.5087   36.8263   41.9777 H   0  0  0  0  0  0  0  0  0  0  0  0
   49.7357   36.3170   40.6395 H   0  0  0  0  0  0  0  0  0  0  0  0
   49.2353   34.8935   43.3668 H   0  0  0  0  0  0  0  0  0  0  0  0
   50.5033   34.3776   42.0962 H   0  0  0  0  0  0  0  0  0  0  0  0
   43.8450   34.0835   38.3865 H   0  0  0  0  0  0  0  0  0  0  0  0
   43.4706   36.1370   40.0734 H   0  0  0  0  0  0  0  0  0  0  0  0
   40.9489   36.5607   39.0779 H   0  0  0  0  0  0  0  0  0  0  0  0
   39.7740   35.7793   40.1539 H   0  0  0  0  0  0  0  0  0  0  0  0
   39.5767   33.8925   38.9044 H   0  0  0  0  0  0  0  0  0  0  0  0
   41.7524   33.0998   39.6833 H   0  0  0  0  0  0  0  0  0  0  0  0
   43.1494   36.3835   37.8727 H   0  0  0  0  0  0  0  0  0  0  0  0
   39.6385   34.6792   36.8766 H   0  0  0  0  0  0  0  0  0  0  0  0
   43.5486   31.4259   39.0341 H   0  0  0  0  0  0  0  0  0  0  0  0
   43.1407   30.8706   38.2301 N   0  0  0  0  0  0  0  0  0  0  0  0
   42.8646   29.5431   38.7605 C   0  0  0  0  0  0  0  0  0  0  0  0
   41.8994   29.8927   39.8818 C   0  0  0  0  0  0  0  0  0  0  0  0
   41.1920   31.1563   39.4208 C   0  0  0  0  0  0  0  0  0  0  0  0
   41.7690   31.3637   38.0368 C   0  0  1  0  0  0  0  0  0  0  0  0
   43.8075   29.0925   39.1186 H   0  0  0  0  0  0  0  0  0  0  0  0
   42.3746   28.9692   37.9539 H   0  0  0  0  0  0  0  0  0  0  0  0
   41.1862   29.0565   40.0380 H   0  0  0  0  0  0  0  0  0  0  0  0
   42.5026   30.0693   40.7851 H   0  0  0  0  0  0  0  0  0  0  0  0
   41.4961   31.9915   40.0859 H   0  0  0  0  0  0  0  0  0  0  0  0
   40.0930   31.0339   39.3969 H   0  0  0  0  0  0  0  0  0  0  0  0
   41.2637   30.6778   37.3171 H   0  0  0  0  0  0  0  0  0  0  0  0
  1  6  1  0
  2  1  2  0
  2  3  1  0
  3  4  2  0
  4  5  1  0
  6  5  2  0
  7  8  1  0
  7  3  1  0
  7  9  1  0
  8  9  1  0
 10  1  1  0
 11 17  1  0
 11 16  1  0
 11 12  1  0
 12 13  1  0
 12 10  1  0
 14 13  1  0
 15 18  1  0
 15 16  1  0
 15 14  1  0
 16 19  1  0
  2 20  1  0
  5 21  1  0
  7 22  1  0
  8 23  1  0
  8 24  1  0
  9 25  1  0
  9 26  1  0
 11 27  1  6
 12 28  1  6
 14 29  1  0
 14 30  1  0
 15 31  1  1
 16 32  1  1
 17 33  1  0
 18 34  1  0
 35 36  1  0
 36 37  1  0
 37 38  1  0
 38 39  1  0
 39 40  1  0
 40 36  1  0
 37 41  1  0
 37 42  1  0
 38 43  1  0
 38 44  1  0
 39 45  1  0
 39 46  1  0
 40 47  1  6
 19 40  1  0
M  ISO  8  20  14  21  14  22  13  23  13  24  13  25  13  26  13  27  13
M  ISO  8  28  13  29  13  30  13  31  13  32  13  33   3  34   3  35   5
M  END
>  <DihAtoms>  (1) 
15,18,39,38

>  <DihDeg>  (1) 
-125.17070742107562

$$$$
