
 OpenBabel03242516423D

 29 30  0  0  1  0  0  0  0  0999 V2000
   36.9630   30.5660   38.6190 C   0  0  0  0  0  0  0  0  0  0  0  0
   36.8720   31.3650   39.3540 H   0  0  0  0  0  0  0  0  0  0  0  0
   36.2840   30.8170   37.7770 H   0  0  0  0  0  0  0  0  0  0  0  0
   38.3850   30.5200   38.1320 C   0  0  0  0  0  0  0  0  0  0  0  0
   38.8800   29.5660   38.4310 H   0  0  0  0  0  0  0  0  0  0  0  0
   38.4450   30.5710   37.0230 H   0  0  0  0  0  0  0  0  0  0  0  0
   39.2850   33.4850   40.2740 C   0  0  0  0  0  0  0  0  0  0  0  0
   38.5970   32.3520   39.7690 C   0  0  0  0  0  0  0  0  0  0  0  0
   39.1100   31.7030   38.6560 C   0  0  0  0  0  0  0  0  0  0  0  0
   40.2410   32.1680   38.0920 N   0  0  0  0  0  0  0  0  0  0  0  0
   40.8780   33.2520   38.5960 C   0  0  0  0  0  0  0  0  0  0  0  0
   40.4020   33.9040   39.6780 N   0  0  0  0  0  0  0  0  0  0  0  0
   38.7990   34.1550   41.3960 N   0  0  0  0  0  0  0  0  0  0  0  0
   37.6970   32.0330   40.2670 H   0  0  0  0  0  0  0  0  0  0  0  0
   41.7790   33.5380   38.0640 H   0  0  0  0  0  0  0  0  0  0  0  0
   37.7800   34.3950   41.3950 H   0  0  0  0  0  0  0  0  0  0  0  0
   39.5020   34.3680   42.1600 H   0  0  0  0  0  0  0  0  0  0  0  0
   36.5960   29.3030   39.0480 O   0  0  0  0  0  0  0  0  0  0  0  0
   34.0790   29.2290   39.7350 O   0  0  0  0  0  0  0  0  0  0  0  0
   35.4700   29.3650   40.3090 P   0  0  2  0  0  0  0  0  0  0  0  0
   35.6750   30.8420   41.0810 O   0  0  0  0  0  0  0  0  0  0  0  0
   36.3600   30.8540   41.7590 H   0  0  0  0  0  0  0  0  0  0  0  0
   35.8030   28.1580   41.4200 O   0  0  0  0  0  0  0  0  0  0  0  0
   37.5530   29.8540   41.3870 H   0  0  0  0  0  0  0  0  0  0  0  0
   37.9670   29.0020   41.7850 N   0  0  0  0  0  0  0  0  0  0  0  0
   38.3360   29.0470   43.1630 C   0  0  0  0  0  2  0  0  0  0  0  0
   38.3120   27.6480   43.6800 C   0  0  0  0  0  2  0  0  0  0  0  0
   37.2320   26.9950   42.8490 C   0  0  0  0  0  2  0  0  0  0  0  0
   37.1180   27.8260   41.5830 C   0  0  1  0  0  3  0  0  0  0  0  0
  1 18  1  0  0  0  0
  1  2  1  0  0  0  0
  3  1  1  0  0  0  0
  4  5  1  0  0  0  0
  4  1  1  0  0  0  0
  4  9  1  0  0  0  0
  6  4  1  0  0  0  0
  7 13  1  0  0  0  0
  8 14  1  0  0  0  0
  8  7  1  0  0  0  0
  9  8  2  0  0  0  0
 10 11  2  0  0  0  0
 10  9  1  0  0  0  0
 11 12  1  0  0  0  0
 12  7  2  0  0  0  0
 13 17  1  0  0  0  0
 15 11  1  0  0  0  0
 16 13  1  0  0  0  0
 18 20  1  0  0  0  0
 20 19  2  6  0  0  0
 20 21  1  0  0  0  0
 20 23  1  0  0  0  0
 21 22  1  0  0  0  0
 24 25  1  0  0  0  0
 25 26  1  0  0  0  0
 26 27  1  0  0  0  0
 28 27  1  0  0  0  0
 29 23  1  1  0  0  0
 29 25  1  0  0  0  0
 29 28  1  0  0  0  0
M  END
>  <minimizedAffinity>
-5.03399134

$$$$

 OpenBabel03242516423D

 29 30  0  0  1  0  0  0  0  0999 V2000
   36.5490   28.2120   41.2090 C   0  0  0  0  0  0  0  0  0  0  0  0
   36.6160   27.3450   40.5520 H   0  0  0  0  0  0  0  0  0  0  0  0
   35.5720   28.7010   41.0070 H   0  0  0  0  0  0  0  0  0  0  0  0
   36.5960   27.7380   42.6360 C   0  0  0  0  0  0  0  0  0  0  0  0
   36.7860   28.5870   43.3340 H   0  0  0  0  0  0  0  0  0  0  0  0
   35.6340   27.2800   42.9520 H   0  0  0  0  0  0  0  0  0  0  0  0
   38.3950   24.4490   42.2570 C   0  0  0  0  0  0  0  0  0  0  0  0
   37.4070   25.4620   42.1440 C   0  0  0  0  0  0  0  0  0  0  0  0
   37.6330   26.6850   42.7580 C   0  0  0  0  0  0  0  0  0  0  0  0
   38.7800   26.8720   43.4390 N   0  0  0  0  0  0  0  0  0  0  0  0
   39.7060   25.8870   43.5310 C   0  0  0  0  0  0  0  0  0  0  0  0
   39.5140   24.6870   42.9440 N   0  0  0  0  0  0  0  0  0  0  0  0
   38.2010   23.2120   41.6460 N   0  0  0  0  0  0  0  0  0  0  0  0
   36.5130   25.2470   41.5850 H   0  0  0  0  0  0  0  0  0  0  0  0
   40.5900   26.1470   44.1030 H   0  0  0  0  0  0  0  0  0  0  0  0
   37.2750   22.7500   41.8030 H   0  0  0  0  0  0  0  0  0  0  0  0
   39.0090   22.8380   41.0700 H   0  0  0  0  0  0  0  0  0  0  0  0
   37.5130   29.1860   41.0290 O   0  0  0  0  0  0  0  0  0  0  0  0
   37.9180   31.7050   40.4780 O   0  0  0  0  0  0  0  0  0  0  0  0
   36.8530   30.6330   40.4540 P   0  0  2  0  0  0  0  0  0  0  0  0
   35.5660   31.0220   41.4600 O   0  0  0  0  0  0  0  0  0  0  0  0
   34.7290   30.6060   41.2270 H   0  0  0  0  0  0  0  0  0  0  0  0
   36.2440   30.3990   38.9130 O   0  0  0  0  0  0  0  0  0  0  0  0
   38.5430   29.6600   39.2380 H   0  0  0  0  0  0  0  0  0  0  0  0
   38.3820   29.7060   38.2240 N   0  0  0  0  0  0  0  0  0  0  0  0
   38.3780   28.4670   37.5160 C   0  0  0  0  0  2  0  0  0  0  0  0
   37.5560   28.6560   36.2860 C   0  0  0  0  0  2  0  0  0  0  0  0
   36.5340   29.6840   36.7120 C   0  0  0  0  0  2  0  0  0  0  0  0
   37.1490   30.4210   37.8900 C   0  0  1  0  0  3  0  0  0  0  0  0
  1  4  1  0  0  0  0
  2  1  1  0  0  0  0
  3  1  1  0  0  0  0
  4  9  1  0  0  0  0
  4  6  1  0  0  0  0
  4  5  1  0  0  0  0
  7 12  1  0  0  0  0
  8  7  2  0  0  0  0
  8  9  1  0  0  0  0
  9 10  2  0  0  0  0
 10 11  1  0  0  0  0
 11 15  1  0  0  0  0
 12 11  2  0  0  0  0
 13 16  1  0  0  0  0
 13  7  1  0  0  0  0
 14  8  1  0  0  0  0
 17 13  1  0  0  0  0
 18  1  1  0  0  0  0
 20 19  2  1  0  0  0
 20 18  1  0  0  0  0
 20 21  1  0  0  0  0
 22 21  1  0  0  0  0
 23 20  1  0  0  0  0
 25 24  1  0  0  0  0
 26 25  1  0  0  0  0
 27 28  1  0  0  0  0
 27 26  1  0  0  0  0
 28 29  1  0  0  0  0
 29 25  1  0  0  0  0
 29 23  1  1  0  0  0
M  END
>  <minimizedAffinity>
-4.94985914

$$$$

 OpenBabel03242516423D

 29 30  0  0  1  0  0  0  0  0999 V2000
   35.8590   28.4050   40.5080 C   0  0  0  0  0  0  0  0  0  0  0  0
   35.4980   29.2800   41.0480 H   0  0  0  0  0  0  0  0  0  0  0  0
   35.0680   27.6280   40.5780 H   0  0  0  0  0  0  0  0  0  0  0  0
   36.0740   28.7840   39.0680 C   0  0  0  0  0  0  0  0  0  0  0  0
   36.7140   28.0330   38.5480 H   0  0  0  0  0  0  0  0  0  0  0  0
   35.1180   28.8280   38.5040 H   0  0  0  0  0  0  0  0  0  0  0  0
   37.9540   31.8030   37.8250 C   0  0  0  0  0  0  0  0  0  0  0  0
   37.3830   30.5060   37.8830 C   0  0  0  0  0  0  0  0  0  0  0  0
   36.6670   30.1420   39.0140 C   0  0  0  0  0  0  0  0  0  0  0  0
   36.5380   31.0310   40.0180 N   0  0  0  0  0  0  0  0  0  0  0  0
   37.0930   32.2640   39.9360 C   0  0  0  0  0  0  0  0  0  0  0  0
   37.7950   32.6450   38.8480 N   0  0  0  0  0  0  0  0  0  0  0  0
   38.6730   32.2010   36.6990 N   0  0  0  0  0  0  0  0  0  0  0  0
   37.5250   29.8440   37.0450 H   0  0  0  0  0  0  0  0  0  0  0  0
   36.9260   32.8960   40.8010 H   0  0  0  0  0  0  0  0  0  0  0  0
   39.3990   31.5350   36.3450 H   0  0  0  0  0  0  0  0  0  0  0  0
   38.4260   33.1480   36.2910 H   0  0  0  0  0  0  0  0  0  0  0  0
   37.0150   27.8250   40.9960 O   0  0  0  0  0  0  0  0  0  0  0  0
   36.2970   27.3940   43.4680 O   0  0  0  0  0  0  0  0  0  0  0  0
   37.2680   28.1910   42.6280 P   0  0  2  0  0  0  0  0  0  0  0  0
   37.0230   29.8430   42.8060 O   0  0  0  0  0  0  0  0  0  0  0  0
   37.7940   30.3900   42.6150 H   0  0  0  0  0  0  0  0  0  0  0  0
   38.8570   27.8640   43.0380 O   0  0  0  0  0  0  0  0  0  0  0  0
   37.9240   25.8600   42.0110 H   0  0  0  0  0  0  0  0  0  0  0  0
   38.6740   25.5530   42.6430 N   0  0  0  0  0  0  0  0  0  0  0  0
   39.8350   24.9850   42.0370 C   0  0  0  0  0  2  0  0  0  0  0  0
   40.9760   25.1860   42.9780 C   0  0  0  0  0  2  0  0  0  0  0  0
   40.6180   26.4750   43.6790 C   0  0  0  0  0  2  0  0  0  0  0  0
   39.1120   26.6210   43.5450 C   0  0  1  0  0  3  0  0  0  0  0  0
  1  3  1  0  0  0  0
  1 18  1  0  0  0  0
  1  2  1  0  0  0  0
  4  1  1  0  0  0  0
  5  4  1  0  0  0  0
  6  4  1  0  0  0  0
  7  8  2  0  0  0  0
  7 12  1  0  0  0  0
  8  9  1  0  0  0  0
  9  4  1  0  0  0  0
  9 10  2  0  0  0  0
 11 10  1  0  0  0  0
 11 15  1  0  0  0  0
 12 11  2  0  0  0  0
 13  7  1  0  0  0  0
 14  8  1  0  0  0  0
 16 13  1  0  0  0  0
 17 13  1  0  0  0  0
 18 20  1  0  0  0  0
 20 21  1  0  0  0  0
 20 23  1  0  0  0  0
 20 19  2  1  0  0  0
 22 21  1  0  0  0  0
 24 25  1  0  0  0  0
 25 29  1  0  0  0  0
 26 25  1  0  0  0  0
 26 27  1  0  0  0  0
 27 28  1  0  0  0  0
 29 23  1  6  0  0  0
 29 28  1  0  0  0  0
M  END
>  <minimizedAffinity>
-4.86333752

$$$$

 OpenBabel03242516423D

 29 30  0  0  1  0  0  0  0  0999 V2000
   39.4540   31.4050   40.0920 C   0  0  0  0  0  0  0  0  0  0  0  0
   39.6300   31.9000   39.1380 H   0  0  0  0  0  0  0  0  0  0  0  0
   39.3430   30.3200   39.8820 H   0  0  0  0  0  0  0  0  0  0  0  0
   40.6480   31.6330   40.9790 C   0  0  0  0  0  0  0  0  0  0  0  0
   40.3390   32.0540   41.9650 H   0  0  0  0  0  0  0  0  0  0  0  0
   41.1890   30.6860   41.1960 H   0  0  0  0  0  0  0  0  0  0  0  0
   42.3430   33.5860   38.2390 C   0  0  0  0  0  0  0  0  0  0  0  0
   41.4310   32.7360   38.9170 C   0  0  0  0  0  0  0  0  0  0  0  0
   41.6040   32.5230   40.2770 C   0  0  0  0  0  0  0  0  0  0  0  0
   42.6280   33.1280   40.9080 N   0  0  0  0  0  0  0  0  0  0  0  0
   43.4840   33.9350   40.2360 C   0  0  0  0  0  0  0  0  0  0  0  0
   43.3410   34.1610   38.9130 N   0  0  0  0  0  0  0  0  0  0  0  0
   42.1920   33.8260   36.8740 N   0  0  0  0  0  0  0  0  0  0  0  0
   40.6340   32.2840   38.3530 H   0  0  0  0  0  0  0  0  0  0  0  0
   44.2710   34.3690   40.8430 H   0  0  0  0  0  0  0  0  0  0  0  0
   42.0470   32.9890   36.2630 H   0  0  0  0  0  0  0  0  0  0  0  0
   42.2370   34.8400   36.5660 H   0  0  0  0  0  0  0  0  0  0  0  0
   38.3130   31.7860   40.7720 O   0  0  0  0  0  0  0  0  0  0  0  0
   37.2930   29.5900   39.7970 O   0  0  0  0  0  0  0  0  0  0  0  0
   37.2550   30.4880   41.0120 P   0  0  2  0  0  0  0  0  0  0  0  0
   35.7240   31.1370   41.2490 O   0  0  0  0  0  0  0  0  0  0  0  0
   35.5300   31.3980   42.1570 H   0  0  0  0  0  0  0  0  0  0  0  0
   37.6810   29.6650   42.4060 O   0  0  0  0  0  0  0  0  0  0  0  0
   39.4270   28.8900   40.8920 H   0  0  0  0  0  0  0  0  0  0  0  0
   39.1970   28.1050   41.5140 N   0  0  0  0  0  0  0  0  0  0  0  0
   40.2060   27.6990   42.4380 C   0  0  0  0  0  2  0  0  0  0  0  0
   39.5220   27.0430   43.5900 C   0  0  0  0  0  2  0  0  0  0  0  0
   38.1950   27.7630   43.6540 C   0  0  0  0  0  2  0  0  0  0  0  0
   37.9620   28.3350   42.2660 C   0  0  1  0  0  3  0  0  0  0  0  0
  1 18  1  0  0  0  0
  1  4  1  0  0  0  0
  2  1  1  0  0  0  0
  3  1  1  0  0  0  0
  4  6  1  0  0  0  0
  4  5  1  0  0  0  0
  7 12  2  0  0  0  0
  7  8  1  0  0  0  0
  8  9  2  0  0  0  0
  9 10  1  0  0  0  0
  9  4  1  0  0  0  0
 11 15  1  0  0  0  0
 11 10  2  0  0  0  0
 12 11  1  0  0  0  0
 13  7  1  0  0  0  0
 14  8  1  0  0  0  0
 16 13  1  0  0  0  0
 17 13  1  0  0  0  0
 18 20  1  0  0  0  0
 20 19  2  6  0  0  0
 20 21  1  0  0  0  0
 20 23  1  0  0  0  0
 21 22  1  0  0  0  0
 24 25  1  0  0  0  0
 25 29  1  0  0  0  0
 25 26  1  0  0  0  0
 26 27  1  0  0  0  0
 27 28  1  0  0  0  0
 29 23  1  1  0  0  0
 29 28  1  0  0  0  0
M  END
>  <minimizedAffinity>
-4.79807377

$$$$

 OpenBabel03242516423D

 29 30  0  0  1  0  0  0  0  0999 V2000
   39.6210   29.3640   41.2830 C   0  0  0  0  0  0  0  0  0  0  0  0
   38.8340   29.7560   40.6400 H   0  0  0  0  0  0  0  0  0  0  0  0
   40.3690   28.8740   40.6240 H   0  0  0  0  0  0  0  0  0  0  0  0
   40.2610   30.5120   42.0150 C   0  0  0  0  0  0  0  0  0  0  0  0
   39.9230   30.5490   43.0770 H   0  0  0  0  0  0  0  0  0  0  0  0
   41.3690   30.4210   42.0400 H   0  0  0  0  0  0  0  0  0  0  0  0
   38.3270   33.2280   40.2590 C   0  0  0  0  0  0  0  0  0  0  0  0
   38.6310   32.0250   40.9480 C   0  0  0  0  0  0  0  0  0  0  0  0
   39.9500   31.7720   41.2960 C   0  0  0  0  0  0  0  0  0  0  0  0
   40.8960   32.6720   40.9690 N   0  0  0  0  0  0  0  0  0  0  0  0
   40.5780   33.8130   40.3110 C   0  0  0  0  0  0  0  0  0  0  0  0
   39.3030   34.0860   39.9600 N   0  0  0  0  0  0  0  0  0  0  0  0
   37.0110   33.5150   39.9030 N   0  0  0  0  0  0  0  0  0  0  0  0
   37.8270   31.3480   41.1790 H   0  0  0  0  0  0  0  0  0  0  0  0
   41.4180   34.4650   40.0990 H   0  0  0  0  0  0  0  0  0  0  0  0
   36.4740   32.7510   39.4290 H   0  0  0  0  0  0  0  0  0  0  0  0
   36.6590   34.4870   40.1410 H   0  0  0  0  0  0  0  0  0  0  0  0
   39.2320   28.4090   42.2040 O   0  0  0  0  0  0  0  0  0  0  0  0
   36.9210   28.8450   41.0720 O   0  0  0  0  0  0  0  0  0  0  0  0
   37.5490   28.3050   42.3360 P   0  0  2  0  0  0  0  0  0  0  0  0
   37.1030   29.2090   43.6790 O   0  0  0  0  0  0  0  0  0  0  0  0
   37.1490   28.7370   44.5190 H   0  0  0  0  0  0  0  0  0  0  0  0
   37.1050   26.7160   42.6200 O   0  0  0  0  0  0  0  0  0  0  0  0
   38.7280   26.9350   40.8150 H   0  0  0  0  0  0  0  0  0  0  0  0
   38.2740   26.0190   40.7030 N   0  0  0  0  0  0  0  0  0  0  0  0
   39.0870   24.8660   40.9200 C   0  0  0  0  0  2  0  0  0  0  0  0
   38.1830   23.7490   41.3190 C   0  0  0  0  0  2  0  0  0  0  0  0
   37.0620   24.4570   42.0420 C   0  0  0  0  0  2  0  0  0  0  0  0
   37.0750   25.8890   41.5330 C   0  0  1  0  0  3  0  0  0  0  0  0
  1  4  1  0  0  0  0
  1 18  1  0  0  0  0
  2  1  1  0  0  0  0
  3  1  1  0  0  0  0
  4  6  1  0  0  0  0
  4  5  1  0  0  0  0
  7  8  1  0  0  0  0
  8 14  1  0  0  0  0
  8  9  2  0  0  0  0
  9  4  1  0  0  0  0
 10  9  1  0  0  0  0
 11 10  2  0  0  0  0
 12  7  2  0  0  0  0
 12 11  1  0  0  0  0
 13 17  1  0  0  0  0
 13  7  1  0  0  0  0
 15 11  1  0  0  0  0
 16 13  1  0  0  0  0
 18 20  1  0  0  0  0
 20 19  2  6  0  0  0
 20 23  1  0  0  0  0
 20 21  1  0  0  0  0
 21 22  1  0  0  0  0
 25 24  1  0  0  0  0
 25 26  1  0  0  0  0
 25 29  1  0  0  0  0
 26 27  1  0  0  0  0
 27 28  1  0  0  0  0
 29 28  1  0  0  0  0
 29 23  1  1  0  0  0
M  END
>  <minimizedAffinity>
-4.7737627

$$$$

 OpenBabel03242516423D

 29 30  0  0  1  0  0  0  0  0999 V2000
   35.8000   28.8480   40.8180 C   0  0  0  0  0  0  0  0  0  0  0  0
   35.5900   29.6630   41.5110 H   0  0  0  0  0  0  0  0  0  0  0  0
   35.0250   28.0700   40.9840 H   0  0  0  0  0  0  0  0  0  0  0  0
   35.6990   29.3760   39.4130 C   0  0  0  0  0  0  0  0  0  0  0  0
   35.9740   28.5900   38.6700 H   0  0  0  0  0  0  0  0  0  0  0  0
   34.6640   29.6970   39.1640 H   0  0  0  0  0  0  0  0  0  0  0  0
   38.0750   31.9210   37.9730 C   0  0  0  0  0  0  0  0  0  0  0  0
   37.2470   30.7760   38.0980 C   0  0  0  0  0  0  0  0  0  0  0  0
   36.5620   30.5760   39.2880 C   0  0  0  0  0  0  0  0  0  0  0  0
   36.7060   31.4720   40.2830 N   0  0  0  0  0  0  0  0  0  0  0  0
   37.5030   32.5580   40.1350 C   0  0  0  0  0  0  0  0  0  0  0  0
   38.1810   32.7780   38.9890 N   0  0  0  0  0  0  0  0  0  0  0  0
   38.7700   32.1540   36.7870 N   0  0  0  0  0  0  0  0  0  0  0  0
   37.1770   30.0980   37.2640 H   0  0  0  0  0  0  0  0  0  0  0  0
   37.5440   33.2120   40.9990 H   0  0  0  0  0  0  0  0  0  0  0  0
   39.3070   31.3480   36.3900 H   0  0  0  0  0  0  0  0  0  0  0  0
   38.6990   33.1320   36.3830 H   0  0  0  0  0  0  0  0  0  0  0  0
   37.0210   28.2190   40.9730 O   0  0  0  0  0  0  0  0  0  0  0  0
   36.7180   26.7060   43.0790 O   0  0  0  0  0  0  0  0  0  0  0  0
   37.4010   27.9670   42.6020 P   0  0  2  0  0  0  0  0  0  0  0  0
   36.8640   29.3150   43.4480 O   0  0  0  0  0  0  0  0  0  0  0  0
   37.4820   30.0540   43.4690 H   0  0  0  0  0  0  0  0  0  0  0  0
   39.0620   27.8790   42.7850 O   0  0  0  0  0  0  0  0  0  0  0  0
   38.1620   29.9670   41.9060 H   0  0  0  0  0  0  0  0  0  0  0  0
   39.1800   29.9980   41.7720 N   0  0  0  0  0  0  0  0  0  0  0  0
   39.9020   30.9580   42.5430 C   0  0  0  0  0  2  0  0  0  0  0  0
   41.2990   30.4580   42.6890 C   0  0  0  0  0  2  0  0  0  0  0  0
   41.1280   28.9570   42.6800 C   0  0  0  0  0  2  0  0  0  0  0  0
   39.8080   28.6910   41.9770 C   0  0  1  0  0  3  0  0  0  0  0  0
  1 18  1  0  0  0  0
  1  3  1  0  0  0  0
  1  2  1  0  0  0  0
  4  1  1  0  0  0  0
  5  4  1  0  0  0  0
  6  4  1  0  0  0  0
  7  8  2  0  0  0  0
  7 12  1  0  0  0  0
  8  9  1  0  0  0  0
  9  4  1  0  0  0  0
  9 10  2  0  0  0  0
 11 10  1  0  0  0  0
 11 15  1  0  0  0  0
 12 11  2  0  0  0  0
 13  7  1  0  0  0  0
 14  8  1  0  0  0  0
 16 13  1  0  0  0  0
 17 13  1  0  0  0  0
 18 20  1  0  0  0  0
 20 23  1  0  0  0  0
 20 19  2  1  0  0  0
 20 21  1  0  0  0  0
 21 22  1  0  0  0  0
 25 24  1  0  0  0  0
 25 29  1  0  0  0  0
 25 26  1  0  0  0  0
 26 27  1  0  0  0  0
 28 27  1  0  0  0  0
 29 28  1  0  0  0  0
 29 23  1  1  0  0  0
M  END
>  <minimizedAffinity>
-4.76722813

$$$$

 OpenBabel03242516423D

 29 30  0  0  1  0  0  0  0  0999 V2000
   37.6410   29.7260   38.9210 C   0  0  0  0  0  0  0  0  0  0  0  0
   36.6920   30.2630   38.9050 H   0  0  0  0  0  0  0  0  0  0  0  0
   38.1360   29.9650   39.8860 H   0  0  0  0  0  0  0  0  0  0  0  0
   37.3590   28.2500   38.8430 C   0  0  0  0  0  0  0  0  0  0  0  0
   36.4320   28.0500   38.2560 H   0  0  0  0  0  0  0  0  0  0  0  0
   38.1790   27.6990   38.3330 H   0  0  0  0  0  0  0  0  0  0  0  0
   37.0780   28.0840   42.5960 C   0  0  0  0  0  0  0  0  0  0  0  0
   37.1660   28.5980   41.2770 C   0  0  0  0  0  0  0  0  0  0  0  0
   37.2670   27.7060   40.2190 C   0  0  0  0  0  0  0  0  0  0  0  0
   37.2790   26.3850   40.4790 N   0  0  0  0  0  0  0  0  0  0  0  0
   37.1930   25.9210   41.7490 C   0  0  0  0  0  0  0  0  0  0  0  0
   37.0940   26.7650   42.7970 N   0  0  0  0  0  0  0  0  0  0  0  0
   36.9690   28.9540   43.6800 N   0  0  0  0  0  0  0  0  0  0  0  0
   37.1520   29.6660   41.1390 H   0  0  0  0  0  0  0  0  0  0  0  0
   37.2120   24.8410   41.8400 H   0  0  0  0  0  0  0  0  0  0  0  0
   37.6430   29.7540   43.7110 H   0  0  0  0  0  0  0  0  0  0  0  0
   36.2090   28.7350   44.3860 H   0  0  0  0  0  0  0  0  0  0  0  0
   38.5440   30.0620   37.9290 O   0  0  0  0  0  0  0  0  0  0  0  0
   38.0050   32.4220   38.9060 O   0  0  0  0  0  0  0  0  0  0  0  0
   38.9530   31.7020   37.9740 P   0  0  2  0  0  0  0  0  0  0  0  0
   38.8310   32.2840   36.4040 O   0  0  0  0  0  0  0  0  0  0  0  0
   39.6170   32.1540   35.8610 H   0  0  0  0  0  0  0  0  0  0  0  0
   40.5460   31.8710   38.4590 O   0  0  0  0  0  0  0  0  0  0  0  0
   40.6370   33.9560   37.1980 H   0  0  0  0  0  0  0  0  0  0  0  0
   41.5170   33.4560   37.0190 N   0  0  0  0  0  0  0  0  0  0  0  0
   42.7080   34.0440   37.5400 C   0  0  0  0  0  2  0  0  0  0  0  0
   43.7040   32.9490   37.7300 C   0  0  0  0  0  2  0  0  0  0  0  0
   42.8380   31.7520   38.0440 C   0  0  0  0  0  2  0  0  0  0  0  0
   41.4670   32.0630   37.4680 C   0  0  1  0  0  3  0  0  0  0  0  0
  1  3  1  0  0  0  0
  2  1  1  0  0  0  0
  4  1  1  0  0  0  0
  4  9  1  0  0  0  0
  5  4  1  0  0  0  0
  6  4  1  0  0  0  0
  7 12  1  0  0  0  0
  7 13  1  0  0  0  0
  8  7  2  0  0  0  0
  9 10  2  0  0  0  0
  9  8  1  0  0  0  0
 10 11  1  0  0  0  0
 11 15  1  0  0  0  0
 11 12  2  0  0  0  0
 13 16  1  0  0  0  0
 13 17  1  0  0  0  0
 14  8  1  0  0  0  0
 18 20  1  0  0  0  0
 18  1  1  0  0  0  0
 20 23  1  0  0  0  0
 20 19  2  1  0  0  0
 21 20  1  0  0  0  0
 22 21  1  0  0  0  0
 25 24  1  0  0  0  0
 25 29  1  0  0  0  0
 25 26  1  0  0  0  0
 26 27  1  0  0  0  0
 27 28  1  0  0  0  0
 29 28  1  0  0  0  0
 29 23  1  1  0  0  0
M  END
>  <minimizedAffinity>
-4.62293959

$$$$

 OpenBabel03242516423D

 29 30  0  0  1  0  0  0  0  0999 V2000
   38.0820   30.2680   39.9570 C   0  0  0  0  0  0  0  0  0  0  0  0
   38.1210   29.2460   39.5810 H   0  0  0  0  0  0  0  0  0  0  0  0
   39.1230   30.6540   39.9650 H   0  0  0  0  0  0  0  0  0  0  0  0
   37.2400   31.0930   39.0230 C   0  0  0  0  0  0  0  0  0  0  0  0
   36.4790   31.6840   39.5850 H   0  0  0  0  0  0  0  0  0  0  0  0
   37.8510   31.8270   38.4540 H   0  0  0  0  0  0  0  0  0  0  0  0
   36.6760   29.1070   35.8710 C   0  0  0  0  0  0  0  0  0  0  0  0
   37.2740   29.9650   36.8300 C   0  0  0  0  0  0  0  0  0  0  0  0
   36.6090   30.1950   38.0260 C   0  0  0  0  0  0  0  0  0  0  0  0
   35.4200   29.5980   38.2370 N   0  0  0  0  0  0  0  0  0  0  0  0
   34.8720   28.7830   37.3030 C   0  0  0  0  0  0  0  0  0  0  0  0
   35.4960   28.5410   36.1310 N   0  0  0  0  0  0  0  0  0  0  0  0
   37.3230   28.8500   34.6630 N   0  0  0  0  0  0  0  0  0  0  0  0
   38.2270   30.4100   36.5980 H   0  0  0  0  0  0  0  0  0  0  0  0
   33.9140   28.3570   37.5790 H   0  0  0  0  0  0  0  0  0  0  0  0
   37.6890   29.6790   34.1410 H   0  0  0  0  0  0  0  0  0  0  0  0
   37.3900   27.8330   34.3720 H   0  0  0  0  0  0  0  0  0  0  0  0
   37.6020   30.4220   41.2450 O   0  0  0  0  0  0  0  0  0  0  0  0
   35.8490   28.4920   41.3740 O   0  0  0  0  0  0  0  0  0  0  0  0
   37.1750   28.9420   41.9430 P   0  0  2  0  0  0  0  0  0  0  0  0
   37.0810   29.1880   43.6020 O   0  0  0  0  0  0  0  0  0  0  0  0
   37.9190   29.1120   44.0710 H   0  0  0  0  0  0  0  0  0  0  0  0
   38.3840   27.8190   41.6620 O   0  0  0  0  0  0  0  0  0  0  0  0
   36.3300   26.8410   42.5390 H   0  0  0  0  0  0  0  0  0  0  0  0
   37.0810   26.1560   42.6940 N   0  0  0  0  0  0  0  0  0  0  0  0
   37.0090   24.9430   41.9450 C   0  0  0  0  0  2  0  0  0  0  0  0
   38.3960   24.4070   41.8230 C   0  0  0  0  0  2  0  0  0  0  0  0
   39.2450   25.6570   41.8170 C   0  0  0  0  0  2  0  0  0  0  0  0
   38.4110   26.7330   42.4910 C   0  0  1  0  0  3  0  0  0  0  0  0
  1  3  1  0  0  0  0
  1 18  1  0  0  0  0
  2  1  1  0  0  0  0
  4  5  1  0  0  0  0
  4  1  1  0  0  0  0
  6  4  1  0  0  0  0
  7 12  2  0  0  0  0
  7  8  1  0  0  0  0
  8  9  2  0  0  0  0
  9 10  1  0  0  0  0
  9  4  1  0  0  0  0
 11 15  1  0  0  0  0
 11 10  2  0  0  0  0
 12 11  1  0  0  0  0
 13  7  1  0  0  0  0
 14  8  1  0  0  0  0
 16 13  1  0  0  0  0
 17 13  1  0  0  0  0
 18 20  1  0  0  0  0
 20 19  2  6  0  0  0
 20 21  1  0  0  0  0
 21 22  1  0  0  0  0
 23 20  1  0  0  0  0
 24 25  1  0  0  0  0
 26 25  1  0  0  0  0
 27 26  1  0  0  0  0
 28 27  1  0  0  0  0
 28 29  1  0  0  0  0
 29 23  1  6  0  0  0
 29 25  1  0  0  0  0
M  END
>  <minimizedAffinity>
-4.5606122

$$$$

 OpenBabel03242516423D

 29 30  0  0  1  0  0  0  0  0999 V2000
   36.6650   28.0150   39.8690 C   0  0  0  0  0  0  0  0  0  0  0  0
   36.8110   27.1220   39.2600 H   0  0  0  0  0  0  0  0  0  0  0  0
   37.6670   28.4600   40.0420 H   0  0  0  0  0  0  0  0  0  0  0  0
   35.8020   28.9820   39.1040 C   0  0  0  0  0  0  0  0  0  0  0  0
   35.5520   28.5820   38.0930 H   0  0  0  0  0  0  0  0  0  0  0  0
   34.8340   29.1670   39.6180 H   0  0  0  0  0  0  0  0  0  0  0  0
   37.7850   31.8790   37.7380 C   0  0  0  0  0  0  0  0  0  0  0  0
   37.1130   30.6330   37.8250 C   0  0  0  0  0  0  0  0  0  0  0  0
   36.5020   30.2860   39.0210 C   0  0  0  0  0  0  0  0  0  0  0  0
   36.5660   31.1420   40.0590 N   0  0  0  0  0  0  0  0  0  0  0  0
   37.2150   32.3270   39.9490 C   0  0  0  0  0  0  0  0  0  0  0  0
   37.8180   32.6900   38.7970 N   0  0  0  0  0  0  0  0  0  0  0  0
   38.4030   32.2590   36.5480 N   0  0  0  0  0  0  0  0  0  0  0  0
   37.1000   29.9950   36.9570 H   0  0  0  0  0  0  0  0  0  0  0  0
   37.2030   32.9360   40.8450 H   0  0  0  0  0  0  0  0  0  0  0  0
   39.0220   31.5500   36.0920 H   0  0  0  0  0  0  0  0  0  0  0  0
   38.1950   33.2400   36.2010 H   0  0  0  0  0  0  0  0  0  0  0  0
   36.1100   27.8120   41.1180 O   0  0  0  0  0  0  0  0  0  0  0  0
   36.5930   27.6680   43.6800 O   0  0  0  0  0  0  0  0  0  0  0  0
   37.2610   27.9410   42.3510 P   0  0  2  0  0  0  0  0  0  0  0  0
   37.8830   29.4990   42.2840 O   0  0  0  0  0  0  0  0  0  0  0  0
   38.6090   29.6190   41.6620 H   0  0  0  0  0  0  0  0  0  0  0  0
   38.5190   26.8760   42.0600 O   0  0  0  0  0  0  0  0  0  0  0  0
   36.2940   25.8870   42.1760 H   0  0  0  0  0  0  0  0  0  0  0  0
   36.9700   25.1150   42.2290 N   0  0  0  0  0  0  0  0  0  0  0  0
   37.0080   24.2150   41.1220 C   0  0  0  0  0  2  0  0  0  0  0  0
   38.3690   23.6060   41.0850 C   0  0  0  0  0  2  0  0  0  0  0  0
   39.2480   24.7000   41.6460 C   0  0  0  0  0  2  0  0  0  0  0  0
   38.3340   25.5870   42.4740 C   0  0  1  0  0  3  0  0  0  0  0  0
  1  3  1  0  0  0  0
  1 18  1  0  0  0  0
  2  1  1  0  0  0  0
  4  6  1  0  0  0  0
  4  1  1  0  0  0  0
  5  4  1  0  0  0  0
  7  8  2  0  0  0  0
  7 12  1  0  0  0  0
  8  9  1  0  0  0  0
  9  4  1  0  0  0  0
  9 10  2  0  0  0  0
 11 10  1  0  0  0  0
 11 15  1  0  0  0  0
 12 11  2  0  0  0  0
 13  7  1  0  0  0  0
 14  8  1  0  0  0  0
 16 13  1  0  0  0  0
 17 13  1  0  0  0  0
 18 20  1  0  0  0  0
 20 19  2  1  0  0  0
 21 20  1  0  0  0  0
 22 21  1  0  0  0  0
 23 20  1  0  0  0  0
 24 25  1  0  0  0  0
 25 29  1  0  0  0  0
 26 25  1  0  0  0  0
 27 26  1  0  0  0  0
 27 28  1  0  0  0  0
 28 29  1  0  0  0  0
 29 23  1  6  0  0  0
M  END
>  <minimizedAffinity>
-4.54959869

$$$$
