
 OpenBabel03242523503D

 40 43  0  0  1  0  0  0  0  0999 V2000
   42.8350   34.4990   38.7470 C   0  0  1  0  0  0  0  0  0  0  0  0
   42.9680   35.1650   40.1200 C   0  0  1  0  0  0  0  0  0  0  0  0
   41.6780   35.4110   40.6320 O   0  0  0  0  0  0  0  0  0  0  0  0
   40.7580   35.7490   39.6390 C   0  0  0  0  0  0  0  0  0  0  0  0
   40.4330   34.5270   38.7810 C   0  0  2  0  0  0  0  0  0  0  0  0
   41.6320   33.5800   38.8710 C   0  0  1  0  0  0  0  0  0  0  0  0
   43.7630   33.9150   38.5240 H   0  0  0  0  0  0  0  0  0  0  0  0
   43.5420   36.1000   40.0660 H   0  0  0  0  0  0  0  0  0  0  0  0
   41.0460   36.6250   39.0530 H   0  0  0  0  0  0  0  0  0  0  0  0
   39.8300   36.0000   40.1850 H   0  0  0  0  0  0  0  0  0  0  0  0
   39.4960   34.0500   39.0700 H   0  0  0  0  0  0  0  0  0  0  0  0
   41.6190   33.1670   39.8930 H   0  0  0  0  0  0  0  0  0  0  0  0
   42.6050   35.4560   37.7610 O   0  0  0  0  0  0  0  0  0  0  0  0
   43.2190   36.2160   37.8550 H   0  0  0  0  0  0  0  0  0  0  0  0
   40.4450   34.9570   37.4350 O   0  0  0  0  0  0  0  0  0  0  0  0
   39.5940   34.6890   36.9930 H   0  0  0  0  0  0  0  0  0  0  0  0
   43.4980   34.1850   40.9690 O   0  0  0  0  0  0  0  0  0  0  0  0
   44.6030   34.3150   41.7090 C   0  0  0  0  0  0  0  0  0  0  0  0
   45.8530   34.4490   41.1090 C   0  0  0  0  0  0  0  0  0  0  0  0
   46.9690   34.5840   41.9200 C   0  0  0  0  0  0  0  0  0  0  0  0
   46.8130   34.5810   43.2900 N   0  0  0  0  0  0  0  0  0  0  0  0
   45.5930   34.4500   43.8370 C   0  0  0  0  0  0  0  0  0  0  0  0
   44.4920   34.3170   43.0580 N   0  0  0  0  0  0  0  0  0  0  0  0
   45.9790   34.4510   40.0410 H   0  0  0  0  0  0  0  0  0  0  0  0
   45.4680   34.4470   44.9130 H   0  0  0  0  0  0  0  0  0  0  0  0
   48.3450   34.7120   41.3250 C   0  0  0  0  0  0  0  0  0  0  0  0
   49.0720   36.0230   41.5180 C   0  0  0  0  0  0  0  0  0  0  0  0
   49.4990   34.7100   42.1850 C   0  0  0  0  0  0  0  0  0  0  0  0
   48.3920   34.2680   40.3100 H   0  0  0  0  0  0  0  0  0  0  0  0
   48.5300   36.7770   42.0910 H   0  0  0  0  0  0  0  0  0  0  0  0
   49.6910   36.3580   40.6640 H   0  0  0  0  0  0  0  0  0  0  0  0
   49.2830   34.7330   43.2930 H   0  0  0  0  0  0  0  0  0  0  0  0
   50.4880   34.3020   41.9330 H   0  0  0  0  0  0  0  0  0  0  0  0
   41.5710   32.6130   37.8870 O   0  0  0  0  0  0  0  0  0  0  0  0
   39.7490   30.9470   38.7000 H   0  0  0  0  0  0  0  0  0  0  0  0
   40.6400   30.9440   39.2720 N   0  0  0  0  0  0  0  0  0  0  0  0
   40.9700   29.5430   39.4910 C   0  0  0  0  0  2  0  0  0  0  0  0
   41.1040   29.0670   38.0540 C   0  0  0  0  0  2  0  0  0  0  0  0
   41.5630   30.2850   37.2700 C   0  0  0  0  0  2  0  0  0  0  0  0
   41.7240   31.3270   38.3560 C   0  0  1  0  0  3  0  0  0  0  0  0
  1  7  1  6  0  0  0
  1  6  1  0  0  0  0
  1  2  1  0  0  0  0
  2  8  1  6  0  0  0
  2  3  1  0  0  0  0
  2 17  1  0  0  0  0
  4 10  1  0  0  0  0
  4  3  1  0  0  0  0
  5  6  1  0  0  0  0
  5 11  1  1  0  0  0
  5  4  1  0  0  0  0
  6 12  1  1  0  0  0
  9  4  1  0  0  0  0
 13 14  1  0  0  0  0
 13  1  1  0  0  0  0
 15  5  1  0  0  0  0
 16 15  1  0  0  0  0
 17 18  1  0  0  0  0
 18 23  1  0  0  0  0
 19 18  2  0  0  0  0
 19 20  1  0  0  0  0
 20 21  2  0  0  0  0
 21 22  1  0  0  0  0
 22 25  1  0  0  0  0
 23 22  2  0  0  0  0
 24 19  1  0  0  0  0
 26 27  1  0  0  0  0
 26 20  1  0  0  0  0
 26 28  1  0  0  0  0
 27 30  1  0  0  0  0
 27 28  1  0  0  0  0
 28 32  1  0  0  0  0
 29 26  1  0  0  0  0
 31 27  1  0  0  0  0
 33 28  1  0  0  0  0
 34  6  1  0  0  0  0
 35 36  1  0  0  0  0
 36 37  1  0  0  0  0
 38 37  1  0  0  0  0
 39 38  1  0  0  0  0
 39 40  1  0  0  0  0
 40 34  1  6  0  0  0
 40 36  1  0  0  0  0
M  END
>  <minimizedAffinity>
-5.76095867

>  <minimizedRMSD>
0.245809942

$$$$
