
 OpenBabel03242523503D

 40 43  0  0  1  0  0  0  0  0999 V2000
   42.8250   34.5230   38.7170 C   0  0  1  0  0  0  0  0  0  0  0  0
   42.9660   35.1740   40.0970 C   0  0  1  0  0  0  0  0  0  0  0  0
   41.6790   35.4160   40.6180 O   0  0  0  0  0  0  0  0  0  0  0  0
   40.7550   35.7670   39.6340 C   0  0  0  0  0  0  0  0  0  0  0  0
   40.4240   34.5540   38.7640 C   0  0  2  0  0  0  0  0  0  0  0  0
   41.6220   33.6040   38.8380 C   0  0  1  0  0  0  0  0  0  0  0  0
   43.7510   33.9400   38.4830 H   0  0  0  0  0  0  0  0  0  0  0  0
   43.5420   36.1090   40.0500 H   0  0  0  0  0  0  0  0  0  0  0  0
   41.0420   36.6490   39.0560 H   0  0  0  0  0  0  0  0  0  0  0  0
   39.8300   36.0140   40.1870 H   0  0  0  0  0  0  0  0  0  0  0  0
   39.4870   34.0760   39.0520 H   0  0  0  0  0  0  0  0  0  0  0  0
   41.6130   33.1810   39.8550 H   0  0  0  0  0  0  0  0  0  0  0  0
   42.5920   35.4910   37.7430 O   0  0  0  0  0  0  0  0  0  0  0  0
   43.2080   36.2490   37.8430 H   0  0  0  0  0  0  0  0  0  0  0  0
   40.4290   34.9990   37.4230 O   0  0  0  0  0  0  0  0  0  0  0  0
   39.5760   34.7380   36.9810 H   0  0  0  0  0  0  0  0  0  0  0  0
   43.4990   34.1830   40.9330 O   0  0  0  0  0  0  0  0  0  0  0  0
   44.5980   34.3100   41.6830 C   0  0  0  0  0  0  0  0  0  0  0  0
   45.8530   34.4410   41.0940 C   0  0  0  0  0  0  0  0  0  0  0  0
   46.9620   34.5720   41.9160 C   0  0  0  0  0  0  0  0  0  0  0  0
   46.7940   34.5690   43.2850 N   0  0  0  0  0  0  0  0  0  0  0  0
   45.5690   34.4410   43.8200 C   0  0  0  0  0  0  0  0  0  0  0  0
   44.4740   34.3120   43.0310 N   0  0  0  0  0  0  0  0  0  0  0  0
   45.9890   34.4430   40.0280 H   0  0  0  0  0  0  0  0  0  0  0  0
   45.4330   34.4380   44.8950 H   0  0  0  0  0  0  0  0  0  0  0  0
   48.3440   34.6970   41.3330 C   0  0  0  0  0  0  0  0  0  0  0  0
   49.0640   36.0130   41.5140 C   0  0  0  0  0  0  0  0  0  0  0  0
   49.4880   34.7120   42.2060 C   0  0  0  0  0  0  0  0  0  0  0  0
   48.4030   34.2370   40.3260 H   0  0  0  0  0  0  0  0  0  0  0  0
   48.5130   36.7740   42.0690 H   0  0  0  0  0  0  0  0  0  0  0  0
   49.6900   36.3380   40.6620 H   0  0  0  0  0  0  0  0  0  0  0  0
   49.2610   34.7520   43.3110 H   0  0  0  0  0  0  0  0  0  0  0  0
   50.4810   34.3050   41.9700 H   0  0  0  0  0  0  0  0  0  0  0  0
   41.5540   32.6490   37.8430 O   0  0  0  0  0  0  0  0  0  0  0  0
   39.5180   31.0590   37.5540 H   0  0  0  0  0  0  0  0  0  0  0  0
   39.9690   31.0320   38.5120 N   0  0  0  0  0  0  0  0  0  0  0  0
   40.0810   29.6230   38.8610 C   0  0  0  0  0  2  0  0  0  0  0  0
   40.9380   29.1240   37.7090 C   0  0  0  0  0  2  0  0  0  0  0  0
   41.7880   30.3140   37.2970 C   0  0  0  0  0  2  0  0  0  0  0  0
   41.3880   31.3640   38.3120 C   0  0  1  0  0  3  0  0  0  0  0  0
  1  7  1  6  0  0  0
  1  6  1  0  0  0  0
  1  2  1  0  0  0  0
  2  8  1  6  0  0  0
  2  3  1  0  0  0  0
  2 17  1  0  0  0  0
  4 10  1  0  0  0  0
  4  3  1  0  0  0  0
  5  6  1  0  0  0  0
  5 11  1  1  0  0  0
  5  4  1  0  0  0  0
  6 12  1  1  0  0  0
  9  4  1  0  0  0  0
 13 14  1  0  0  0  0
 13  1  1  0  0  0  0
 15  5  1  0  0  0  0
 16 15  1  0  0  0  0
 17 18  1  0  0  0  0
 18 23  1  0  0  0  0
 19 18  2  0  0  0  0
 19 20  1  0  0  0  0
 20 21  2  0  0  0  0
 21 22  1  0  0  0  0
 22 25  1  0  0  0  0
 23 22  2  0  0  0  0
 24 19  1  0  0  0  0
 26 27  1  0  0  0  0
 26 20  1  0  0  0  0
 26 28  1  0  0  0  0
 27 30  1  0  0  0  0
 27 28  1  0  0  0  0
 28 32  1  0  0  0  0
 29 26  1  0  0  0  0
 31 27  1  0  0  0  0
 33 28  1  0  0  0  0
 34  6  1  0  0  0  0
 35 36  1  0  0  0  0
 36 37  1  0  0  0  0
 38 37  1  0  0  0  0
 39 38  1  0  0  0  0
 39 40  1  0  0  0  0
 40 34  1  6  0  0  0
 40 36  1  0  0  0  0
M  END
>  <minimizedAffinity>
-5.8069334

>  <minimizedRMSD>
0.336083323

$$$$
