
 OpenBabel03242523503D

 40 43  0  0  1  0  0  0  0  0999 V2000
   42.8280   34.5150   38.7590 C   0  0  1  0  0  0  0  0  0  0  0  0
   42.9570   35.1990   40.1240 C   0  0  1  0  0  0  0  0  0  0  0  0
   41.6660   35.4720   40.6190 O   0  0  0  0  0  0  0  0  0  0  0  0
   40.7620   35.8110   39.6110 C   0  0  0  0  0  0  0  0  0  0  0  0
   40.4270   34.5820   38.7670 C   0  0  2  0  0  0  0  0  0  0  0  0
   41.6090   33.6170   38.8840 C   0  0  1  0  0  0  0  0  0  0  0  0
   43.7480   33.9130   38.5540 H   0  0  0  0  0  0  0  0  0  0  0  0
   43.5470   36.1230   40.0630 H   0  0  0  0  0  0  0  0  0  0  0  0
   41.0710   36.6730   39.0160 H   0  0  0  0  0  0  0  0  0  0  0  0
   39.8330   36.0850   40.1430 H   0  0  0  0  0  0  0  0  0  0  0  0
   39.4780   34.1240   39.0520 H   0  0  0  0  0  0  0  0  0  0  0  0
   41.5780   33.2190   39.9110 H   0  0  0  0  0  0  0  0  0  0  0  0
   42.6230   35.4610   37.7570 O   0  0  0  0  0  0  0  0  0  0  0  0
   43.2490   36.2120   37.8470 H   0  0  0  0  0  0  0  0  0  0  0  0
   40.4590   34.9920   37.4150 O   0  0  0  0  0  0  0  0  0  0  0  0
   39.6090   34.7320   36.9670 H   0  0  0  0  0  0  0  0  0  0  0  0
   43.4620   34.2220   40.9930 O   0  0  0  0  0  0  0  0  0  0  0  0
   44.5730   34.3360   41.7260 C   0  0  0  0  0  0  0  0  0  0  0  0
   45.8210   34.4590   41.1180 C   0  0  0  0  0  0  0  0  0  0  0  0
   46.9430   34.5790   41.9230 C   0  0  0  0  0  0  0  0  0  0  0  0
   46.7960   34.5710   43.2940 N   0  0  0  0  0  0  0  0  0  0  0  0
   45.5780   34.4500   43.8480 C   0  0  0  0  0  0  0  0  0  0  0  0
   44.4700   34.3330   43.0760 N   0  0  0  0  0  0  0  0  0  0  0  0
   45.9400   34.4660   40.0500 H   0  0  0  0  0  0  0  0  0  0  0  0
   45.4600   34.4430   44.9250 H   0  0  0  0  0  0  0  0  0  0  0  0
   48.3170   34.6950   41.3200 C   0  0  0  0  0  0  0  0  0  0  0  0
   49.0550   36.0000   41.5060 C   0  0  0  0  0  0  0  0  0  0  0  0
   49.4750   34.6850   42.1730 C   0  0  0  0  0  0  0  0  0  0  0  0
   48.3540   34.2490   40.3050 H   0  0  0  0  0  0  0  0  0  0  0  0
   48.5220   36.7590   42.0810 H   0  0  0  0  0  0  0  0  0  0  0  0
   49.6710   36.3290   40.6490 H   0  0  0  0  0  0  0  0  0  0  0  0
   49.2660   34.7120   43.2830 H   0  0  0  0  0  0  0  0  0  0  0  0
   50.4590   34.2690   41.9160 H   0  0  0  0  0  0  0  0  0  0  0  0
   41.5420   32.6370   37.9120 O   0  0  0  0  0  0  0  0  0  0  0  0
   40.5390   31.9980   40.2240 H   0  0  0  0  0  0  0  0  0  0  0  0
   41.2860   31.3380   39.8660 N   0  0  0  0  0  0  0  0  0  0  0  0
   40.7790   29.9930   40.1000 C   0  0  0  0  0  2  0  0  0  0  0  0
   39.4940   30.0410   39.2890 C   0  0  0  0  0  2  0  0  0  0  0  0
   39.7680   31.0260   38.1650 C   0  0  0  0  0  2  0  0  0  0  0  0
   41.2200   31.3890   38.3980 C   0  0  1  0  0  3  0  0  0  0  0  0
  1  7  1  6  0  0  0
  1  6  1  0  0  0  0
  1  2  1  0  0  0  0
  2  8  1  6  0  0  0
  2  3  1  0  0  0  0
  2 17  1  0  0  0  0
  4 10  1  0  0  0  0
  4  3  1  0  0  0  0
  5  6  1  0  0  0  0
  5 11  1  1  0  0  0
  5  4  1  0  0  0  0
  6 12  1  1  0  0  0
  9  4  1  0  0  0  0
 13 14  1  0  0  0  0
 13  1  1  0  0  0  0
 15  5  1  0  0  0  0
 16 15  1  0  0  0  0
 17 18  1  0  0  0  0
 18 23  1  0  0  0  0
 19 18  2  0  0  0  0
 19 20  1  0  0  0  0
 20 21  2  0  0  0  0
 21 22  1  0  0  0  0
 22 25  1  0  0  0  0
 23 22  2  0  0  0  0
 24 19  1  0  0  0  0
 26 27  1  0  0  0  0
 26 20  1  0  0  0  0
 26 28  1  0  0  0  0
 27 30  1  0  0  0  0
 27 28  1  0  0  0  0
 28 32  1  0  0  0  0
 29 26  1  0  0  0  0
 31 27  1  0  0  0  0
 33 28  1  0  0  0  0
 34  6  1  0  0  0  0
 36 37  1  0  0  0  0
 36 35  1  0  0  0  0
 38 37  1  0  0  0  0
 39 40  1  0  0  0  0
 39 38  1  0  0  0  0
 40 34  1  1  0  0  0
 40 36  1  0  0  0  0
M  END
>  <minimizedAffinity>
-5.91842556

>  <minimizedRMSD>
0.491163313

$$$$
