REMARK  Name = 
REMARK  4 active torsions:
REMARK  status: ('A' for Active; 'I' for Inactive)
REMARK    1  A    between atoms: C_1  and  N_9
REMARK    2  A    between atoms: C_2  and  N_11
REMARK    3  A    between atoms: C_7  and  O_10
REMARK    4  A    between atoms: O_10  and  C_22
REMARK                            x       y       z     vdW  Elec       q    Type
REMARK                         _______ _______ _______ _____ _____    ______ ____
ROOT
ATOM      1  C   UNL     1      45.640  34.755  44.372  0.00  0.00    +0.000 A 
ATOM      2  C   UNL     1      45.275  34.384  45.642  0.00  0.00    +0.000 A 
ATOM      3  C   UNL     1      45.947  33.294  46.170  0.00  0.00    +0.000 A 
ATOM      4  N   UNL     1      46.885  32.697  45.411  0.00  0.00    +0.000 NA
ATOM      5  C   UNL     1      47.215  33.087  44.176  0.00  0.00    +0.000 A 
ATOM      6  N   UNL     1      46.584  34.146  43.622  0.00  0.00    +0.000 NA
ATOM      7  H   UNL     1      45.665  32.996  47.171  0.00  0.00    +0.000 HD
ATOM      8  H   UNL     1      47.987  32.543  43.638  0.00  0.00    +0.000 HD
ENDROOT
BRANCH   1  11
ATOM      9  C   UNL     1      44.159  35.346  42.643  0.00  0.00    +0.000 C 
ATOM     10  O   UNL     1      44.112  34.089  42.656  0.00  0.00    +0.000 OA
ATOM     11  N   UNL     1      45.063  35.866  43.624  0.00  0.00    +0.000 N 
ATOM     12  H   UNL     1      45.234  36.880  43.734  0.00  0.00    +0.000 HD
BRANCH   9  13
ATOM     13  O   UNL     1      43.449  36.212  41.805  0.00  0.00    +0.000 OA
BRANCH  13  19
ATOM     14  H   UNL     1      43.192  33.711  41.165  0.00  0.00    +0.000 HD
ATOM     15  N   UNL     1      42.321  34.266  41.291  0.00  0.00    +0.000 NA
ATOM     16  C   UNL     1      41.271  33.864  40.371  0.00  0.00    +0.000 C 
ATOM     17  C   UNL     1      40.317  35.026  40.466  0.00  0.00    +0.000 C 
ATOM     18  C   UNL     1      41.167  36.208  40.937  0.00  0.00    +0.000 C 
ATOM     19  C   UNL     1      42.555  35.639  40.837  0.00  0.00    +0.000 C 
ENDBRANCH  13  19
ENDBRANCH   9  13
ENDBRANCH   1  11
BRANCH   2  20
ATOM     20  N   UNL     1      44.269  35.138  46.271  0.00  0.00    +0.000 N 
ATOM     21  H   UNL     1      44.303  36.158  46.307  0.00  0.00    +0.000 HD
ATOM     22  H   UNL     1      43.541  34.499  46.660  0.00  0.00    +0.000 HD
ENDBRANCH   2  20
TORSDOF 4
