
 OpenBabel03252501343D

 22 23  0  0  1  0  0  0  0  0999 V2000
   45.6440   34.6060   44.3160 C   0  0  0  0  0  0  0  0  0  0  0  0
   45.2860   34.3610   45.6180 C   0  0  0  0  0  0  0  0  0  0  0  0
   45.9610   33.3270   46.2460 C   0  0  0  0  0  0  0  0  0  0  0  0
   46.8950   32.6580   45.5440 N   0  0  0  0  0  0  0  0  0  0  0  0
   47.2180   32.9260   44.2750 C   0  0  0  0  0  0  0  0  0  0  0  0
   46.5840   33.9260   43.6240 N   0  0  0  0  0  0  0  0  0  0  0  0
   45.6840   33.1280   47.2730 H   0  0  0  0  0  0  0  0  0  0  0  0
   47.9880   32.3320   43.7890 H   0  0  0  0  0  0  0  0  0  0  0  0
   44.1710   35.0240   42.5310 C   0  0  0  0  0  0  0  0  0  0  0  0
   44.1350   33.7730   42.6580 O   0  0  0  0  0  0  0  0  0  0  0  0
   45.0630   35.6390   43.4660 N   0  0  0  0  0  0  0  0  0  0  0  0
   45.2250   36.6600   43.4850 H   0  0  0  0  0  0  0  0  0  0  0  0
   43.4600   35.8030   41.6130 O   0  0  0  0  0  0  0  0  0  0  0  0
   41.0370   36.3130   42.3890 H   0  0  0  0  0  0  0  0  0  0  0  0
   41.2180   36.2900   41.3650 N   0  0  0  0  0  0  0  0  0  0  0  0
   40.0960   35.7500   40.6170 C   0  0  0  0  0  0  0  0  0  0  0  0
   40.7290   35.4510   39.2840 C   0  0  0  0  0  0  0  0  0  0  0  0
   42.2210   35.2800   39.5760 C   0  0  0  0  0  0  0  0  0  0  0  0
   42.2350   35.2750   41.0780 C   0  0  1  0  0  0  0  0  0  0  0  0
   44.2840   35.1730   46.1760 N   0  0  0  0  0  0  0  0  0  0  0  0
   44.3180   36.1920   46.1120 H   0  0  0  0  0  0  0  0  0  0  0  0
   43.5580   34.5750   46.6290 H   0  0  0  0  0  0  0  0  0  0  0  0
  1  2  1  0  0  0  0
  2 20  1  0  0  0  0
  2  3  2  0  0  0  0
  3  7  1  0  0  0  0
  4  3  1  0  0  0  0
  5  4  2  0  0  0  0
  6  5  1  0  0  0  0
  6  1  2  0  0  0  0
  8  5  1  0  0  0  0
  9 10  2  0  0  0  0
  9 11  1  0  0  0  0
 11 12  1  0  0  0  0
 11  1  1  0  0  0  0
 13  9  1  0  0  0  0
 15 14  1  0  0  0  0
 16 15  1  0  0  0  0
 17 18  1  0  0  0  0
 17 16  1  0  0  0  0
 18 19  1  0  0  0  0
 19 15  1  0  0  0  0
 19 13  1  6  0  0  0
 20 22  1  0  0  0  0
 21 20  1  0  0  0  0
M  END
>  <minimizedAffinity>
-5.31026745

>  <minimizedRMSD>
0.483297378

$$$$
