
     RDKit          3D

 29 30  0  0  0  0  0  0  0  0999 V2000
   45.6404   34.7547   44.3718 C   0  0  0  0  0  0  0  0  0  0  0  0
   45.2749   34.3843   45.6421 C   0  0  0  0  0  0  0  0  0  0  0  0
   45.9469   33.2944   46.1699 C   0  0  0  0  0  0  0  0  0  0  0  0
   46.8853   32.6973   45.4113 N   0  0  0  0  0  0  0  0  0  0  0  0
   47.2145   33.0875   44.1757 C   0  0  0  0  0  0  0  0  0  0  0  0
   46.5839   34.1464   43.6223 N   0  0  0  0  0  0  0  0  0  0  0  0
   44.1594   35.3457   42.6431 C   0  0  0  0  0  0  0  0  0  0  0  0
   44.1124   34.0887   42.6562 O   0  0  0  0  0  0  0  0  0  0  0  0
   45.0630   35.8659   43.6242 N   0  0  0  0  0  0  0  0  0  0  0  0
   43.4485   36.2116   41.8046 O   0  0  0  0  0  0  0  0  0  0  0  0
   44.2689   35.1375   46.2707 N   0  0  0  0  0  0  0  0  0  0  0  0
   45.6647   32.9961   47.1707 H   0  0  0  0  0  0  0  0  0  0  0  0
   47.9866   32.5428   43.6379 H   0  0  0  0  0  0  0  0  0  0  0  0
   45.2344   36.8800   43.7340 H   0  0  0  0  0  0  0  0  0  0  0  0
   44.3033   36.1583   46.3072 H   0  0  0  0  0  0  0  0  0  0  0  0
   43.5415   34.4994   46.6599 H   0  0  0  0  0  0  0  0  0  0  0  0
   42.7967   33.7162   41.5263 H   0  0  0  0  0  0  0  0  0  0  0  0
   42.0345   34.4213   41.4635 N   0  0  0  0  0  0  0  0  0  0  0  0
   41.0148   34.0488   40.4989 C   0  0  0  0  0  0  0  0  0  0  0  0
   40.2849   35.3514   40.3037 C   0  0  0  0  0  0  0  0  0  0  0  0
   41.2908   36.4387   40.6857 C   0  0  0  0  0  0  0  0  0  0  0  0
   42.5552   35.6393   40.8375 C   0  0  1  0  0  0  0  0  0  0  0  0
   41.5373   33.7961   39.5550 H   0  0  0  0  0  0  0  0  0  0  0  0
   40.3549   33.2453   40.8783 H   0  0  0  0  0  0  0  0  0  0  0  0
   39.3603   35.4321   40.9074 H   0  0  0  0  0  0  0  0  0  0  0  0
   40.0073   35.4241   39.2344 H   0  0  0  0  0  0  0  0  0  0  0  0
   41.3561   37.1772   39.8621 H   0  0  0  0  0  0  0  0  0  0  0  0
   40.9600   36.9064   41.6181 H   0  0  0  0  0  0  0  0  0  0  0  0
   43.0224   35.4301   39.8794 H   0  0  0  0  0  0  0  0  0  0  0  0
  1  2  2  0
  2  3  1  0
  2 11  1  0
  4  3  2  0
  5  4  1  0
  6  5  2  0
  6  1  1  0
  7  8  2  0
  7  9  1  0
  9  1  1  0
 10  7  1  0
  3 12  1  0
  5 13  1  0
  9 14  1  0
 11 15  1  0
 11 16  1  0
 17 18  1  0
 18 19  1  0
 19 20  1  0
 20 21  1  0
 21 22  1  0
 22 18  1  0
 19 23  1  0
 19 24  1  0
 20 25  1  0
 20 26  1  0
 21 27  1  0
 21 28  1  0
 22 29  1  6
 10 22  1  0
M  ISO  3  12  14  13  14  17   5
M  END
>  <DihAtoms>  (1) 
6,9,21,20

>  <DihDeg>  (1) 
-128.58251807562056

$$$$
