
 OpenBabel03252504223D

 29 32  0  0  1  0  0  0  0  0999 V2000
   47.5390   33.3910   39.8580 C   0  0  0  0  0  0  0  0  0  0  0  0
   48.8810   33.0910   40.0910 C   0  0  0  0  0  0  0  0  0  0  0  0
   49.3800   33.1910   41.4160 C   0  0  0  0  0  0  0  0  0  0  0  0
   48.4950   33.5810   42.3830 N   0  0  0  0  0  0  0  0  0  0  0  0
   47.2000   33.8630   42.1100 C   0  0  0  0  0  0  0  0  0  0  0  0
   46.7390   33.7670   40.8640 N   0  0  0  0  0  0  0  0  0  0  0  0
   46.3490   34.2610   43.1840 N   0  0  0  0  0  0  0  0  0  0  0  0
   45.4580   35.2620   43.1730 C   0  0  0  0  0  0  0  0  0  0  0  0
   44.8550   35.3140   44.3920 N   0  0  0  0  0  0  0  0  0  0  0  0
   45.3900   34.3410   45.1270 C   0  0  0  0  0  0  0  0  0  0  0  0
   45.2050   33.8920   46.4120 C   0  0  0  0  0  0  0  0  0  0  0  0
   45.8730   32.8790   46.9370 N   0  0  0  0  0  0  0  0  0  0  0  0
   46.8050   32.2010   46.2220 C   0  0  0  0  0  0  0  0  0  0  0  0
   46.9900   32.6370   44.9640 N   0  0  0  0  0  0  0  0  0  0  0  0
   46.3400   33.6580   44.3890 C   0  0  0  0  0  0  0  0  0  0  0  0
   49.5720   32.7850   39.3290 H   0  0  0  0  0  0  0  0  0  0  0  0
   50.4060   32.9720   41.6600 H   0  0  0  0  0  0  0  0  0  0  0  0
   45.2120   35.9450   42.3720 H   0  0  0  0  0  0  0  0  0  0  0  0
   47.3780   31.3670   46.6020 H   0  0  0  0  0  0  0  0  0  0  0  0
   44.2690   34.4950   47.2880 N   0  0  0  0  0  0  0  0  0  0  0  0
   43.5930   33.9180   47.8460 H   0  0  0  0  0  0  0  0  0  0  0  0
   44.1720   35.5310   47.4480 H   0  0  0  0  0  0  0  0  0  0  0  0
   47.0340   33.2260   38.1500 S   0  0  0  0  0  0  0  0  0  0  0  0
   45.7670   30.7330   39.3290 H   0  0  0  0  0  0  0  0  0  0  0  0
   45.1690   31.5460   39.1640 N   0  0  0  0  0  0  0  0  0  0  0  0
   43.7860   31.1470   38.8830 C   0  0  0  0  0  2  0  0  0  0  0  0
   43.1440   32.3560   38.2850 C   0  0  0  0  0  2  0  0  0  0  0  0
   44.2980   33.2490   37.8810 C   0  0  0  0  0  2  0  0  0  0  0  0
   45.4810   32.3180   38.0040 C   0  0  1  0  0  3  0  0  0  0  0  0
  1  2  2  0  0  0  0
  1  6  1  0  0  0  0
  2  3  1  0  0  0  0
  3 17  1  0  0  0  0
  3  4  2  0  0  0  0
  5  4  1  0  0  0  0
  5  7  1  0  0  0  0
  6  5  2  0  0  0  0
  7 15  1  0  0  0  0
  8  7  1  0  0  0  0
  8  9  2  0  0  0  0
  9 10  1  0  0  0  0
 10 11  1  0  0  0  0
 11 12  2  0  0  0  0
 11 20  1  0  0  0  0
 13 19  1  0  0  0  0
 13 12  1  0  0  0  0
 14 13  2  0  0  0  0
 15 14  1  0  0  0  0
 15 10  2  0  0  0  0
 16  2  1  0  0  0  0
 18  8  1  0  0  0  0
 20 22  1  0  0  0  0
 20 21  1  0  0  0  0
 23  1  1  0  0  0  0
 25 24  1  0  0  0  0
 26 25  1  0  0  0  0
 27 26  1  0  0  0  0
 28 29  1  0  0  0  0
 28 27  1  0  0  0  0
 29 23  1  1  0  0  0
 29 25  1  0  0  0  0
M  END
>  <minimizedAffinity>
-5.32054567

>  <minimizedRMSD>
0.942063093

$$$$
