
 OpenBabel03252504223D

 29 32  0  0  1  0  0  0  0  0999 V2000
   48.2650   33.1340   40.3570 C   0  0  0  0  0  0  0  0  0  0  0  0
   49.5720   32.8420   40.7460 C   0  0  0  0  0  0  0  0  0  0  0  0
   49.9190   32.9730   42.1150 C   0  0  0  0  0  0  0  0  0  0  0  0
   48.9310   33.3830   42.9680 N   0  0  0  0  0  0  0  0  0  0  0  0
   47.6750   33.6560   42.5450 C   0  0  0  0  0  0  0  0  0  0  0  0
   47.3570   33.5300   41.2570 N   0  0  0  0  0  0  0  0  0  0  0  0
   46.7100   34.0770   43.5080 N   0  0  0  0  0  0  0  0  0  0  0  0
   45.8260   35.0760   43.3730 C   0  0  0  0  0  0  0  0  0  0  0  0
   45.0900   35.1550   44.5150 N   0  0  0  0  0  0  0  0  0  0  0  0
   45.5390   34.2000   45.3280 C   0  0  0  0  0  0  0  0  0  0  0  0
   45.2110   33.7800   46.5940 C   0  0  0  0  0  0  0  0  0  0  0  0
   45.8150   32.7810   47.2140 N   0  0  0  0  0  0  0  0  0  0  0  0
   46.8210   32.0900   46.6250 C   0  0  0  0  0  0  0  0  0  0  0  0
   47.1460   32.4970   45.3850 N   0  0  0  0  0  0  0  0  0  0  0  0
   46.5650   33.5020   44.7170 C   0  0  0  0  0  0  0  0  0  0  0  0
   50.3430   32.5190   40.0730 H   0  0  0  0  0  0  0  0  0  0  0  0
   50.9110   32.7610   42.4780 H   0  0  0  0  0  0  0  0  0  0  0  0
   45.6710   35.7400   42.5340 H   0  0  0  0  0  0  0  0  0  0  0  0
   47.3480   31.2660   47.0850 H   0  0  0  0  0  0  0  0  0  0  0  0
   44.1820   34.4020   47.3450 N   0  0  0  0  0  0  0  0  0  0  0  0
   43.4480   33.8370   47.8380 H   0  0  0  0  0  0  0  0  0  0  0  0
   44.0690   35.4410   47.4700 H   0  0  0  0  0  0  0  0  0  0  0  0
   47.9540   32.9270   38.6070 S   0  0  0  0  0  0  0  0  0  0  0  0
   45.1640   33.5330   39.6410 H   0  0  0  0  0  0  0  0  0  0  0  0
   45.2810   33.3540   38.6400 N   0  0  0  0  0  0  0  0  0  0  0  0
   44.0700   32.7650   38.0570 C   0  0  0  0  0  2  0  0  0  0  0  0
   44.5040   32.2050   36.7410 C   0  0  0  0  0  2  0  0  0  0  0  0
   46.0130   32.1420   36.8240 C   0  0  0  0  0  2  0  0  0  0  0  0
   46.2630   32.3780   38.2950 C   0  0  1  0  0  3  0  0  0  0  0  0
  1  2  2  0  0  0  0
  1  6  1  0  0  0  0
  2  3  1  0  0  0  0
  3 17  1  0  0  0  0
  3  4  2  0  0  0  0
  5  4  1  0  0  0  0
  5  7  1  0  0  0  0
  6  5  2  0  0  0  0
  7 15  1  0  0  0  0
  8  7  1  0  0  0  0
  8  9  2  0  0  0  0
  9 10  1  0  0  0  0
 10 11  1  0  0  0  0
 11 12  2  0  0  0  0
 11 20  1  0  0  0  0
 13 19  1  0  0  0  0
 13 12  1  0  0  0  0
 14 13  2  0  0  0  0
 15 10  2  0  0  0  0
 15 14  1  0  0  0  0
 16  2  1  0  0  0  0
 18  8  1  0  0  0  0
 20 22  1  0  0  0  0
 20 21  1  0  0  0  0
 23  1  1  0  0  0  0
 25 24  1  0  0  0  0
 26 25  1  0  0  0  0
 27 28  1  0  0  0  0
 27 26  1  0  0  0  0
 28 29  1  0  0  0  0
 29 23  1  6  0  0  0
 29 25  1  0  0  0  0
M  END
>  <minimizedAffinity>
-5.47302198

>  <minimizedRMSD>
1.07827246

$$$$
