
 OpenBabel03252501343D

 22 23  0  0  1  0  0  0  0  0999 V2000
   45.7090   34.6210   43.7620 C   0  0  0  0  0  0  0  0  0  0  0  0
   45.1820   34.5830   45.0280 C   0  0  0  0  0  0  0  0  0  0  0  0
   45.7530   33.6650   45.8940 C   0  0  0  0  0  0  0  0  0  0  0  0
   46.7590   32.8980   45.4340 N   0  0  0  0  0  0  0  0  0  0  0  0
   47.2490   32.9640   44.1920 C   0  0  0  0  0  0  0  0  0  0  0  0
   46.7200   33.8450   43.3140 N   0  0  0  0  0  0  0  0  0  0  0  0
   45.3420   33.6300   46.8940 H   0  0  0  0  0  0  0  0  0  0  0  0
   48.0650   32.3040   43.9100 H   0  0  0  0  0  0  0  0  0  0  0  0
   44.3810   34.7760   41.8270 C   0  0  0  0  0  0  0  0  0  0  0  0
   44.2430   33.5780   42.1860 O   0  0  0  0  0  0  0  0  0  0  0  0
   45.2600   35.5040   42.6920 N   0  0  0  0  0  0  0  0  0  0  0  0
   45.4970   36.4980   42.5280 H   0  0  0  0  0  0  0  0  0  0  0  0
   43.7870   35.4060   40.7290 O   0  0  0  0  0  0  0  0  0  0  0  0
   42.5950   33.5330   39.3860 H   0  0  0  0  0  0  0  0  0  0  0  0
   42.1910   33.7930   40.3080 N   0  0  0  0  0  0  0  0  0  0  0  0
   40.7410   33.7130   40.3200 C   0  0  0  0  0  2  0  0  0  0  0  0
   40.3990   34.4930   41.5620 C   0  0  0  0  0  2  0  0  0  0  0  0
   41.5910   35.4240   41.7940 C   0  0  0  0  0  2  0  0  0  0  0  0
   42.3750   35.2300   40.5270 C   0  0  1  0  0  3  0  0  0  0  0  0
   44.1280   35.4680   45.3160 N   0  0  0  0  0  0  0  0  0  0  0  0
   44.1860   36.4640   45.0980 H   0  0  0  0  0  0  0  0  0  0  0  0
   43.3400   34.9460   45.7590 H   0  0  0  0  0  0  0  0  0  0  0  0
  1  2  1  0  0  0  0
  2 20  1  0  0  0  0
  2  3  2  0  0  0  0
  3  7  1  0  0  0  0
  4  3  1  0  0  0  0
  5  4  2  0  0  0  0
  6  1  2  0  0  0  0
  6  5  1  0  0  0  0
  8  5  1  0  0  0  0
  9 10  2  0  0  0  0
  9 11  1  0  0  0  0
 11  1  1  0  0  0  0
 12 11  1  0  0  0  0
 13  9  1  0  0  0  0
 14 15  1  0  0  0  0
 15 16  1  0  0  0  0
 15 19  1  0  0  0  0
 16 17  1  0  0  0  0
 17 18  1  0  0  0  0
 19 13  1  1  0  0  0
 19 18  1  0  0  0  0
 20 22  1  0  0  0  0
 21 20  1  0  0  0  0
M  END
>  <minimizedAffinity>
-4.6700964

>  <minimizedRMSD>
0.819628596

$$$$
