
     RDKit          3D

 29 30  0  0  0  0  0  0  0  0999 V2000
   45.6404   34.7547   44.3718 C   0  0  0  0  0  0  0  0  0  0  0  0
   45.2749   34.3843   45.6421 C   0  0  0  0  0  0  0  0  0  0  0  0
   45.9469   33.2944   46.1699 C   0  0  0  0  0  0  0  0  0  0  0  0
   46.8853   32.6973   45.4113 N   0  0  0  0  0  0  0  0  0  0  0  0
   47.2145   33.0875   44.1757 C   0  0  0  0  0  0  0  0  0  0  0  0
   46.5839   34.1464   43.6223 N   0  0  0  0  0  0  0  0  0  0  0  0
   44.1594   35.3457   42.6431 C   0  0  0  0  0  0  0  0  0  0  0  0
   44.1124   34.0887   42.6562 O   0  0  0  0  0  0  0  0  0  0  0  0
   45.0630   35.8659   43.6242 N   0  0  0  0  0  0  0  0  0  0  0  0
   43.4485   36.2116   41.8046 O   0  0  0  0  0  0  0  0  0  0  0  0
   44.2689   35.1375   46.2707 N   0  0  0  0  0  0  0  0  0  0  0  0
   45.6647   32.9961   47.1707 H   0  0  0  0  0  0  0  0  0  0  0  0
   47.9866   32.5428   43.6379 H   0  0  0  0  0  0  0  0  0  0  0  0
   45.2344   36.8800   43.7340 H   0  0  0  0  0  0  0  0  0  0  0  0
   44.3033   36.1583   46.3072 H   0  0  0  0  0  0  0  0  0  0  0  0
   43.5415   34.4994   46.6599 H   0  0  0  0  0  0  0  0  0  0  0  0
   43.1916   33.7108   41.1647 H   0  0  0  0  0  0  0  0  0  0  0  0
   42.3210   34.2659   41.2908 N   0  0  0  0  0  0  0  0  0  0  0  0
   41.2711   33.8642   40.3714 C   0  0  0  0  0  0  0  0  0  0  0  0
   40.3174   35.0257   40.4664 C   0  0  0  0  0  0  0  0  0  0  0  0
   41.1667   36.2077   40.9370 C   0  0  0  0  0  0  0  0  0  0  0  0
   42.5552   35.6393   40.8375 C   0  0  1  0  0  0  0  0  0  0  0  0
   41.7137   33.8577   39.3556 H   0  0  0  0  0  0  0  0  0  0  0  0
   40.8029   32.9055   40.6657 H   0  0  0  0  0  0  0  0  0  0  0  0
   39.4696   34.8434   41.1549 H   0  0  0  0  0  0  0  0  0  0  0  0
   39.9079   35.2080   39.4541 H   0  0  0  0  0  0  0  0  0  0  0  0
   41.0114   37.0620   40.2486 H   0  0  0  0  0  0  0  0  0  0  0  0
   40.8748   36.4599   41.9611 H   0  0  0  0  0  0  0  0  0  0  0  0
   42.9348   35.6671   39.8201 H   0  0  0  0  0  0  0  0  0  0  0  0
  1  2  2  0
  2  3  1  0
  2 11  1  0
  4  3  2  0
  5  4  1  0
  6  5  2  0
  6  1  1  0
  7  8  2  0
  7  9  1  0
  9  1  1  0
 10  7  1  0
  3 12  1  0
  5 13  1  0
  9 14  1  0
 11 15  1  0
 11 16  1  0
 17 18  1  0
 18 19  1  0
 19 20  1  0
 20 21  1  0
 21 22  1  0
 22 18  1  0
 19 23  1  0
 19 24  1  0
 20 25  1  0
 20 26  1  0
 21 27  1  0
 21 28  1  0
 22 29  1  6
 10 22  1  0
M  ISO  3  12  14  13  14  17   5
M  END
>  <DihAtoms>  (1) 
6,9,21,20

>  <DihDeg>  (1) 
-128.58251807562056

$$$$
