REMARK  Name = 
REMARK  3 active torsions:
REMARK  status: ('A' for Active; 'I' for Inactive)
REMARK    1  A    between atoms: C_1  and  S_17
REMARK    2  A    between atoms: C_11  and  N_16
REMARK    3  A    between atoms: S_17  and  C_29
REMARK                            x       y       z     vdW  Elec       q    Type
REMARK                         _______ _______ _______ _____ _____    ______ ____
ROOT
ATOM      1  C   UNL     1      47.696  33.493  40.124  0.00  0.00    +0.000 A 
ATOM      2  C   UNL     1      49.038  33.214  40.381  0.00  0.00    +0.000 A 
ATOM      3  C   UNL     1      49.504  33.288  41.719  0.00  0.00    +0.000 A 
ATOM      4  N   UNL     1      48.589  33.634  42.675  0.00  0.00    +0.000 NA
ATOM      5  C   UNL     1      47.295  33.897  42.379  0.00  0.00    +0.000 A 
ATOM      6  N   UNL     1      46.865  33.825  41.120  0.00  0.00    +0.000 NA
ATOM      7  N   UNL     1      46.412  34.249  43.443  0.00  0.00    +0.000 N 
ATOM      8  C   UNL     1      45.501  35.232  43.437  0.00  0.00    +0.000 A 
ATOM      9  N   UNL     1      44.869  35.239  44.642  0.00  0.00    +0.000 NA
ATOM     10  C   UNL     1      45.407  34.258  45.364  0.00  0.00    +0.000 A 
ATOM     11  C   UNL     1      45.202  33.771  46.632  0.00  0.00    +0.000 A 
ATOM     12  N   UNL     1      45.878  32.758  47.146  0.00  0.00    +0.000 NA
ATOM     13  C   UNL     1      46.840  32.119  46.436  0.00  0.00    +0.000 A 
ATOM     14  N   UNL     1      47.045  32.592  45.194  0.00  0.00    +0.000 NA
ATOM     15  C   UNL     1      46.387  33.614  44.631  0.00  0.00    +0.000 A 
ATOM     16  H   UNL     1      49.752  32.942  39.627  0.00  0.00    +0.000 HD
ATOM     17  H   UNL     1      50.529  33.083  41.982  0.00  0.00    +0.000 HD
ATOM     18  H   UNL     1      45.259  35.931  42.649  0.00  0.00    +0.000 HD
ATOM     19  H   UNL     1      47.422  31.287  46.807  0.00  0.00    +0.000 HD
ENDROOT
BRANCH  11  20
ATOM     20  N   UNL     1      44.233  34.332  47.501  0.00  0.00    +0.000 N 
ATOM     21  H   UNL     1      43.557  33.727  48.028  0.00  0.00    +0.000 HD
ATOM     22  H   UNL     1      44.111  35.361  47.686  0.00  0.00    +0.000 HD
ENDBRANCH  11  20
BRANCH   1  23
ATOM     23  S   UNL     1      47.234  33.363  38.401  0.00  0.00    +0.000 S 
BRANCH  23  29
ATOM     24  H   UNL     1      44.901  32.303  36.772  0.00  0.00    +0.000 HD
ATOM     25  N   UNL     1      44.717  32.632  37.724  0.00  0.00    +0.000 NA
ATOM     26  C   UNL     1      43.352  33.153  37.854  0.00  0.00    +0.000 C 
ATOM     27  C   UNL     1      43.354  33.938  39.126  0.00  0.00    +0.000 C 
ATOM     28  C   UNL     1      44.818  34.162  39.441  0.00  0.00    +0.000 C 
ATOM     29  C   UNL     1      45.489  33.754  38.152  0.00  0.00    +0.000 C 
ENDBRANCH  23  29
ENDBRANCH   1  23
TORSDOF 3
