
 OpenBabel03252501343D

 22 23  0  0  1  0  0  0  0  0999 V2000
   45.5300   34.6870   44.2050 C   0  0  0  0  0  0  0  0  0  0  0  0
   45.2820   34.4190   45.5280 C   0  0  0  0  0  0  0  0  0  0  0  0
   46.0650   33.4300   46.1010 C   0  0  0  0  0  0  0  0  0  0  0  0
   46.9870   32.8220   45.3300 N   0  0  0  0  0  0  0  0  0  0  0  0
   47.2000   33.1110   44.0430 C   0  0  0  0  0  0  0  0  0  0  0  0
   46.4590   34.0690   43.4440 N   0  0  0  0  0  0  0  0  0  0  0  0
   45.8760   33.2130   47.1440 H   0  0  0  0  0  0  0  0  0  0  0  0
   47.9690   32.5670   43.4990 H   0  0  0  0  0  0  0  0  0  0  0  0
   43.9530   35.0080   42.4890 C   0  0  0  0  0  0  0  0  0  0  0  0
   44.0340   33.7570   42.5870 O   0  0  0  0  0  0  0  0  0  0  0  0
   44.8250   35.6810   43.4040 N   0  0  0  0  0  0  0  0  0  0  0  0
   44.8950   36.7130   43.4420 H   0  0  0  0  0  0  0  0  0  0  0  0
   43.1380   35.7400   41.6200 O   0  0  0  0  0  0  0  0  0  0  0  0
   41.6750   33.8370   42.6020 H   0  0  0  0  0  0  0  0  0  0  0  0
   41.1880   34.6020   42.0950 N   0  0  0  0  0  0  0  0  0  0  0  0
   40.0340   34.1270   41.3530 C   0  0  0  0  0  2  0  0  0  0  0  0
   39.7660   35.2840   40.4270 C   0  0  0  0  0  2  0  0  0  0  0  0
   41.1010   36.0200   40.3030 C   0  0  0  0  0  2  0  0  0  0  0  0
   42.0350   35.0650   40.9930 C   0  0  1  0  0  3  0  0  0  0  0  0
   44.2730   35.1650   46.1600 N   0  0  0  0  0  0  0  0  0  0  0  0
   44.2380   36.1840   46.1000 H   0  0  0  0  0  0  0  0  0  0  0  0
   43.6210   34.5220   46.6610 H   0  0  0  0  0  0  0  0  0  0  0  0
  1  2  1  0  0  0  0
  2  3  2  0  0  0  0
  2 20  1  0  0  0  0
  3  7  1  0  0  0  0
  4  3  1  0  0  0  0
  5  4  2  0  0  0  0
  6  5  1  0  0  0  0
  6  1  2  0  0  0  0
  8  5  1  0  0  0  0
  9 10  2  0  0  0  0
  9 11  1  0  0  0  0
 11 12  1  0  0  0  0
 11  1  1  0  0  0  0
 13  9  1  0  0  0  0
 15 14  1  0  0  0  0
 16 15  1  0  0  0  0
 17 16  1  0  0  0  0
 18 17  1  0  0  0  0
 18 19  1  0  0  0  0
 19 13  1  1  0  0  0
 19 15  1  0  0  0  0
 20 22  1  0  0  0  0
 21 20  1  0  0  0  0
M  END
>  <minimizedAffinity>
-5.14917898

>  <minimizedRMSD>
0.530276299

$$$$
