
 OpenBabel03252500593D

 38 40  0  0  1  0  0  0  0  0999 V2000
   37.2920   29.0970   39.6310 O   0  0  0  0  0  0  0  0  0  0  0  0
   36.6300   30.1550   40.5080 P   0  0  1  0  0  0  0  0  0  0  0  0
   35.0150   29.7000   40.7680 O   0  0  0  0  0  0  0  0  0  0  0  0
   34.4470   30.5080   40.9500 H   0  0  0  0  0  0  0  0  0  0  0  0
   37.4100   30.1960   42.0080 O   0  0  0  0  0  0  0  0  0  0  0  0
   38.4700   28.3700   43.0410 C   0  0  0  0  0  0  0  0  0  0  0  0
   38.5970   29.5440   42.3460 C   0  0  0  0  0  0  0  0  0  0  0  0
   39.8970   29.9950   42.0300 C   0  0  0  0  0  0  0  0  0  0  0  0
   40.9230   29.2280   42.4420 N   0  0  0  0  0  0  0  0  0  0  0  0
   40.7730   28.0920   43.1170 C   0  0  0  0  0  0  0  0  0  0  0  0
   39.5470   27.6600   43.4170 N   0  0  0  0  0  0  0  0  0  0  0  0
   39.9360   30.9190   41.4860 H   0  0  0  0  0  0  0  0  0  0  0  0
   41.6820   27.5860   43.3790 H   0  0  0  0  0  0  0  0  0  0  0  0
   37.1550   27.8470   43.4000 C   0  0  0  0  0  0  0  0  0  0  0  0
   37.1890   27.5580   44.4700 H   0  0  0  0  0  0  0  0  0  0  0  0
   36.3230   28.5500   43.2080 H   0  0  0  0  0  0  0  0  0  0  0  0
   36.8880   26.5870   42.6200 C   0  0  0  0  0  0  0  0  0  0  0  0
   37.8150   26.0270   42.3830 H   0  0  0  0  0  0  0  0  0  0  0  0
   36.4400   26.9120   41.6440 H   0  0  0  0  0  0  0  0  0  0  0  0
   36.1190   25.9470   43.1250 H   0  0  0  0  0  0  0  0  0  0  0  0
   36.6220   31.6470   39.7190 O   0  0  0  0  0  0  0  0  0  0  0  0
   37.7990   32.3870   39.6910 C   0  0  0  0  0  0  0  0  0  0  0  0
   37.7290   33.6980   40.1440 C   0  0  0  0  0  0  0  0  0  0  0  0
   38.8480   34.5280   40.1600 C   0  0  0  0  0  0  0  0  0  0  0  0
   40.0250   34.0010   39.7110 N   0  0  0  0  0  0  0  0  0  0  0  0
   40.0880   32.7470   39.2780 C   0  0  0  0  0  0  0  0  0  0  0  0
   38.9990   31.9650   39.2720 N   0  0  0  0  0  0  0  0  0  0  0  0
   36.7950   34.1230   40.5030 H   0  0  0  0  0  0  0  0  0  0  0  0
   38.8040   35.5500   40.5100 H   0  0  0  0  0  0  0  0  0  0  0  0
   41.4530   32.1700   37.2750 C   0  0  2  0  0  3  0  0  0  0  0  0
   41.3440   32.1160   38.7760 C   0  0  1  0  0  3  0  0  0  0  0  0
   42.4580   32.7150   39.3050 O   0  0  0  0  0  0  0  0  0  0  0  0
   43.3420   33.0080   38.2980 C   0  0  0  0  0  2  0  0  0  0  0  0
   42.4210   33.3310   37.1290 C   0  0  2  0  0  3  0  0  0  0  0  0
   40.2280   32.4000   36.6620 O   0  0  0  0  0  0  0  0  0  0  0  0
   40.3180   32.8390   35.7810 H   0  0  0  0  0  0  0  0  0  0  0  0
   41.8000   34.5330   37.4300 O   0  0  0  0  0  0  0  0  0  0  0  0
   42.2130   34.9960   38.2140 H   0  0  0  0  0  0  0  0  0  0  0  0
  2  1  2  6  0  0  0
  2  3  1  0  0  0  0
  2  5  1  0  0  0  0
  3  4  1  0  0  0  0
  5  7  1  0  0  0  0
  6 14  1  0  0  0  0
  6 11  1  0  0  0  0
  7  6  2  0  0  0  0
  8  7  1  0  0  0  0
  8  9  2  0  0  0  0
  9 10  1  0  0  0  0
 10 13  1  0  0  0  0
 10 11  2  0  0  0  0
 12  8  1  0  0  0  0
 14 15  1  0  0  0  0
 16 14  1  0  0  0  0
 17 20  1  0  0  0  0
 17 14  1  0  0  0  0
 18 17  1  0  0  0  0
 19 17  1  0  0  0  0
 21  2  1  0  0  0  0
 22 21  1  0  0  0  0
 22 23  1  0  0  0  0
 23 24  2  0  0  0  0
 23 28  1  0  0  0  0
 24 29  1  0  0  0  0
 25 24  1  0  0  0  0
 26 25  2  0  0  0  0
 27 26  1  0  0  0  0
 27 22  2  0  0  0  0
 30 35  1  6  0  0  0
 30 31  1  0  0  0  0
 31 26  1  6  0  0  0
 31 32  1  0  0  0  0
 33 32  1  0  0  0  0
 34 30  1  0  0  0  0
 34 37  1  1  0  0  0
 34 33  1  0  0  0  0
 36 35  1  0  0  0  0
 37 38  1  0  0  0  0
M  END
>  <minimizedAffinity>
-6.4427495

$$$$

 OpenBabel03252500593D

 38 40  0  0  1  0  0  0  0  0999 V2000
   35.1600   29.3960   39.9580 O   0  0  0  0  0  0  0  0  0  0  0  0
   36.2190   30.3720   40.4610 P   0  0  1  0  0  0  0  0  0  0  0  0
   35.5930   31.1950   41.8080 O   0  0  0  0  0  0  0  0  0  0  0  0
   36.0310   32.0920   41.9080 H   0  0  0  0  0  0  0  0  0  0  0  0
   37.5780   29.5010   40.9660 O   0  0  0  0  0  0  0  0  0  0  0  0
   37.7080   27.1930   41.3900 C   0  0  0  0  0  0  0  0  0  0  0  0
   37.9600   28.2310   40.5310 C   0  0  0  0  0  0  0  0  0  0  0  0
   38.5750   27.9400   39.2950 C   0  0  0  0  0  0  0  0  0  0  0  0
   38.8700   26.6500   39.0510 N   0  0  0  0  0  0  0  0  0  0  0  0
   38.6160   25.6590   39.9030 C   0  0  0  0  0  0  0  0  0  0  0  0
   38.0340   25.9280   41.0720 N   0  0  0  0  0  0  0  0  0  0  0  0
   38.7480   28.7900   38.6630 H   0  0  0  0  0  0  0  0  0  0  0  0
   38.9070   24.6810   39.5740 H   0  0  0  0  0  0  0  0  0  0  0  0
   37.0750   27.4240   42.6850 C   0  0  0  0  0  0  0  0  0  0  0  0
   36.6140   28.4330   42.6580 H   0  0  0  0  0  0  0  0  0  0  0  0
   36.3280   26.6580   42.9630 H   0  0  0  0  0  0  0  0  0  0  0  0
   38.1290   27.4580   43.7590 C   0  0  0  0  0  0  0  0  0  0  0  0
   39.1040   27.8330   43.3880 H   0  0  0  0  0  0  0  0  0  0  0  0
   38.2850   26.3940   44.0780 H   0  0  0  0  0  0  0  0  0  0  0  0
   37.7740   28.0130   44.6650 H   0  0  0  0  0  0  0  0  0  0  0  0
   36.5660   31.5220   39.2750 O   0  0  0  0  0  0  0  0  0  0  0  0
   37.7250   32.2810   39.4080 C   0  0  0  0  0  0  0  0  0  0  0  0
   37.5840   33.5550   39.9420 C   0  0  0  0  0  0  0  0  0  0  0  0
   38.6780   34.3990   40.1190 C   0  0  0  0  0  0  0  0  0  0  0  0
   39.9030   33.9240   39.7470 N   0  0  0  0  0  0  0  0  0  0  0  0
   40.0320   32.7050   39.2360 C   0  0  0  0  0  0  0  0  0  0  0  0
   38.9660   31.9080   39.0740 N   0  0  0  0  0  0  0  0  0  0  0  0
   36.6110   33.9380   40.2420 H   0  0  0  0  0  0  0  0  0  0  0  0
   38.5790   35.3930   40.5340 H   0  0  0  0  0  0  0  0  0  0  0  0
   41.5200   32.1520   37.3140 C   0  0  2  0  0  3  0  0  0  0  0  0
   41.3430   32.1320   38.8100 C   0  0  1  0  0  3  0  0  0  0  0  0
   42.3970   32.8050   39.3720 O   0  0  0  0  0  0  0  0  0  0  0  0
   43.3100   33.1200   38.3980 C   0  0  0  0  0  2  0  0  0  0  0  0
   42.4310   33.3610   37.1800 C   0  0  2  0  0  3  0  0  0  0  0  0
   40.3150   32.2990   36.6400 O   0  0  0  0  0  0  0  0  0  0  0  0
   40.4230   32.7190   35.7520 H   0  0  0  0  0  0  0  0  0  0  0  0
   41.7310   34.5350   37.4170 O   0  0  0  0  0  0  0  0  0  0  0  0
   42.0810   35.0400   38.2070 H   0  0  0  0  0  0  0  0  0  0  0  0
  2  1  2  6  0  0  0
  2  5  1  0  0  0  0
  2  3  1  0  0  0  0
  3  4  1  0  0  0  0
  6 14  1  0  0  0  0
  7  5  1  0  0  0  0
  7  6  2  0  0  0  0
  8  7  1  0  0  0  0
  9  8  2  0  0  0  0
  9 10  1  0  0  0  0
 10 11  2  0  0  0  0
 11  6  1  0  0  0  0
 12  8  1  0  0  0  0
 13 10  1  0  0  0  0
 14 16  1  0  0  0  0
 14 17  1  0  0  0  0
 15 14  1  0  0  0  0
 17 19  1  0  0  0  0
 17 20  1  0  0  0  0
 18 17  1  0  0  0  0
 21 22  1  0  0  0  0
 21  2  1  0  0  0  0
 22 23  1  0  0  0  0
 23 24  2  0  0  0  0
 23 28  1  0  0  0  0
 24 29  1  0  0  0  0
 25 24  1  0  0  0  0
 26 25  2  0  0  0  0
 27 26  1  0  0  0  0
 27 22  2  0  0  0  0
 30 35  1  6  0  0  0
 30 31  1  0  0  0  0
 31 26  1  6  0  0  0
 31 32  1  0  0  0  0
 33 32  1  0  0  0  0
 34 30  1  0  0  0  0
 34 37  1  1  0  0  0
 34 33  1  0  0  0  0
 36 35  1  0  0  0  0
 37 38  1  0  0  0  0
M  END
>  <minimizedAffinity>
-6.24429321

$$$$

 OpenBabel03252500593D

 38 40  0  0  1  0  0  0  0  0999 V2000
   37.3410   28.2810   39.9450 O   0  0  0  0  0  0  0  0  0  0  0  0
   36.7170   28.6770   41.2790 P   0  0  1  0  0  0  0  0  0  0  0  0
   35.0900   29.0800   41.0100 O   0  0  0  0  0  0  0  0  0  0  0  0
   34.7660   29.7230   41.7100 H   0  0  0  0  0  0  0  0  0  0  0  0
   36.7610   27.3490   42.3250 O   0  0  0  0  0  0  0  0  0  0  0  0
   37.9820   25.3400   42.3420 C   0  0  0  0  0  0  0  0  0  0  0  0
   37.8980   26.6510   42.7350 C   0  0  0  0  0  0  0  0  0  0  0  0
   38.9500   27.1840   43.5100 C   0  0  0  0  0  0  0  0  0  0  0  0
   39.9670   26.3540   43.8070 N   0  0  0  0  0  0  0  0  0  0  0  0
   40.0250   25.0840   43.4140 C   0  0  0  0  0  0  0  0  0  0  0  0
   39.0340   24.5750   42.6810 N   0  0  0  0  0  0  0  0  0  0  0  0
   38.8310   28.2130   43.7890 H   0  0  0  0  0  0  0  0  0  0  0  0
   40.8960   24.5420   43.7260 H   0  0  0  0  0  0  0  0  0  0  0  0
   36.9280   24.7260   41.5390 C   0  0  0  0  0  0  0  0  0  0  0  0
   36.1460   24.3620   42.2350 H   0  0  0  0  0  0  0  0  0  0  0  0
   36.4940   25.3990   40.7760 H   0  0  0  0  0  0  0  0  0  0  0  0
   37.4780   23.5150   40.8330 C   0  0  0  0  0  0  0  0  0  0  0  0
   38.2920   23.0230   41.4020 H   0  0  0  0  0  0  0  0  0  0  0  0
   37.9260   23.8890   39.8750 H   0  0  0  0  0  0  0  0  0  0  0  0
   36.6640   22.8020   40.5460 H   0  0  0  0  0  0  0  0  0  0  0  0
   37.4870   30.0430   41.9030 O   0  0  0  0  0  0  0  0  0  0  0  0
   37.9520   31.0050   41.0130 C   0  0  0  0  0  0  0  0  0  0  0  0
   37.0140   31.8900   40.4970 C   0  0  0  0  0  0  0  0  0  0  0  0
   37.3710   32.8920   39.5970 C   0  0  0  0  0  0  0  0  0  0  0  0
   38.6860   32.9730   39.2390 N   0  0  0  0  0  0  0  0  0  0  0  0
   39.5790   32.1250   39.7340 C   0  0  0  0  0  0  0  0  0  0  0  0
   39.2150   31.1670   40.6000 N   0  0  0  0  0  0  0  0  0  0  0  0
   35.9660   31.8310   40.7790 H   0  0  0  0  0  0  0  0  0  0  0  0
   36.6490   33.5860   39.1890 H   0  0  0  0  0  0  0  0  0  0  0  0
   41.3830   31.1760   38.3000 C   0  0  2  0  0  3  0  0  0  0  0  0
   41.0290   32.1630   39.3800 C   0  0  1  0  0  3  0  0  0  0  0  0
   41.4140   33.4100   38.9590 O   0  0  0  0  0  0  0  0  0  0  0  0
   42.1190   33.3000   37.7870 C   0  0  0  0  0  2  0  0  0  0  0  0
   41.4510   32.1130   37.1070 C   0  0  2  0  0  3  0  0  0  0  0  0
   40.4250   30.1800   38.1580 O   0  0  0  0  0  0  0  0  0  0  0  0
   40.4060   29.7960   37.2470 H   0  0  0  0  0  0  0  0  0  0  0  0
   40.1820   32.5290   36.7320 O   0  0  0  0  0  0  0  0  0  0  0  0
   40.0600   33.5180   36.8130 H   0  0  0  0  0  0  0  0  0  0  0  0
  2  1  2  6  0  0  0
  2 21  1  0  0  0  0
  2  5  1  0  0  0  0
  3  2  1  0  0  0  0
  3  4  1  0  0  0  0
  5  7  1  0  0  0  0
  6 11  2  0  0  0  0
  6  7  1  0  0  0  0
  7  8  2  0  0  0  0
  8 12  1  0  0  0  0
  8  9  1  0  0  0  0
 10 13  1  0  0  0  0
 10  9  2  0  0  0  0
 11 10  1  0  0  0  0
 14 15  1  0  0  0  0
 14  6  1  0  0  0  0
 16 14  1  0  0  0  0
 17 18  1  0  0  0  0
 17 14  1  0  0  0  0
 19 17  1  0  0  0  0
 20 17  1  0  0  0  0
 22 21  1  0  0  0  0
 23 28  1  0  0  0  0
 23 22  2  0  0  0  0
 24 23  1  0  0  0  0
 25 24  2  0  0  0  0
 25 26  1  0  0  0  0
 26 27  2  0  0  0  0
 27 22  1  0  0  0  0
 29 24  1  0  0  0  0
 30 35  1  6  0  0  0
 30 31  1  0  0  0  0
 31 26  1  6  0  0  0
 32 31  1  0  0  0  0
 33 32  1  0  0  0  0
 34 37  1  1  0  0  0
 34 33  1  0  0  0  0
 34 30  1  0  0  0  0
 36 35  1  0  0  0  0
 37 38  1  0  0  0  0
M  END
>  <minimizedAffinity>
-6.17761183

$$$$

 OpenBabel03252500593D

 38 40  0  0  1  0  0  0  0  0999 V2000
   34.4330   29.4050   39.4660 O   0  0  0  0  0  0  0  0  0  0  0  0
   35.7520   29.6460   40.1930 P   0  0  1  0  0  0  0  0  0  0  0  0
   35.5170   30.8850   41.3310 O   0  0  0  0  0  0  0  0  0  0  0  0
   36.3810   31.3610   41.5170 H   0  0  0  0  0  0  0  0  0  0  0  0
   36.1860   28.2430   41.0300 O   0  0  0  0  0  0  0  0  0  0  0  0
   37.8440   26.8040   41.8710 C   0  0  0  0  0  0  0  0  0  0  0  0
   37.3160   28.0690   41.8300 C   0  0  0  0  0  0  0  0  0  0  0  0
   37.9470   29.0790   42.5870 C   0  0  0  0  0  0  0  0  0  0  0  0
   39.0300   28.7190   43.3000 N   0  0  0  0  0  0  0  0  0  0  0  0
   39.5230   27.4830   43.3230 C   0  0  0  0  0  0  0  0  0  0  0  0
   38.9320   26.5240   42.6080 N   0  0  0  0  0  0  0  0  0  0  0  0
   37.4910   30.0480   42.5180 H   0  0  0  0  0  0  0  0  0  0  0  0
   40.3920   27.3430   43.9360 H   0  0  0  0  0  0  0  0  0  0  0  0
   37.2410   25.7130   41.1110 C   0  0  0  0  0  0  0  0  0  0  0  0
   36.2920   26.0890   40.6790 H   0  0  0  0  0  0  0  0  0  0  0  0
   37.8960   25.2980   40.3220 H   0  0  0  0  0  0  0  0  0  0  0  0
   36.8760   24.5920   42.0490 C   0  0  0  0  0  0  0  0  0  0  0  0
   36.6200   24.9530   43.0660 H   0  0  0  0  0  0  0  0  0  0  0  0
   37.7930   23.9550   42.1470 H   0  0  0  0  0  0  0  0  0  0  0  0
   36.0780   23.9370   41.6140 H   0  0  0  0  0  0  0  0  0  0  0  0
   36.9330   30.1670   39.1050 O   0  0  0  0  0  0  0  0  0  0  0  0
   37.7080   31.2700   39.4490 C   0  0  0  0  0  0  0  0  0  0  0  0
   37.0630   32.4990   39.5070 C   0  0  0  0  0  0  0  0  0  0  0  0
   37.7440   33.6680   39.8410 C   0  0  0  0  0  0  0  0  0  0  0  0
   39.0780   33.5600   40.1110 N   0  0  0  0  0  0  0  0  0  0  0  0
   39.6910   32.3830   40.0530 C   0  0  0  0  0  0  0  0  0  0  0  0
   39.0170   31.2700   39.7300 N   0  0  0  0  0  0  0  0  0  0  0  0
   36.0010   32.5900   39.2940 H   0  0  0  0  0  0  0  0  0  0  0  0
   37.2510   34.6290   39.8890 H   0  0  0  0  0  0  0  0  0  0  0  0
   41.3930   31.5300   41.6620 C   0  0  2  0  0  3  0  0  0  0  0  0
   41.1450   32.2030   40.3370 C   0  0  1  0  0  3  0  0  0  0  0  0
   41.7630   31.4620   39.3630 O   0  0  0  0  0  0  0  0  0  0  0  0
   42.5110   30.4710   39.9460 C   0  0  0  0  0  2  0  0  0  0  0  0
   41.6950   30.1210   41.1830 C   0  0  2  0  0  3  0  0  0  0  0  0
   40.2900   31.5960   42.5040 O   0  0  0  0  0  0  0  0  0  0  0  0
   40.2630   30.8540   43.1560 H   0  0  0  0  0  0  0  0  0  0  0  0
   40.5410   29.4940   40.7360 O   0  0  0  0  0  0  0  0  0  0  0  0
   40.5850   29.2490   39.7670 H   0  0  0  0  0  0  0  0  0  0  0  0
  2  1  2  6  0  0  0
  2  5  1  0  0  0  0
  2  3  1  0  0  0  0
  3  4  1  0  0  0  0
  5  7  1  0  0  0  0
  6 11  1  0  0  0  0
  7  6  2  0  0  0  0
  7  8  1  0  0  0  0
  8  9  2  0  0  0  0
  9 10  1  0  0  0  0
 10 13  1  0  0  0  0
 11 10  2  0  0  0  0
 12  8  1  0  0  0  0
 14  6  1  0  0  0  0
 14 17  1  0  0  0  0
 15 14  1  0  0  0  0
 16 14  1  0  0  0  0
 17 19  1  0  0  0  0
 17 18  1  0  0  0  0
 20 17  1  0  0  0  0
 21 22  1  0  0  0  0
 21  2  1  0  0  0  0
 22 23  2  0  0  0  0
 22 27  1  0  0  0  0
 23 24  1  0  0  0  0
 24 29  1  0  0  0  0
 24 25  2  0  0  0  0
 26 25  1  0  0  0  0
 27 26  2  0  0  0  0
 28 23  1  0  0  0  0
 30 35  1  1  0  0  0
 31 26  1  6  0  0  0
 31 30  1  0  0  0  0
 32 33  1  0  0  0  0
 32 31  1  0  0  0  0
 33 34  1  0  0  0  0
 34 37  1  6  0  0  0
 34 30  1  0  0  0  0
 35 36  1  0  0  0  0
 38 37  1  0  0  0  0
M  END
>  <minimizedAffinity>
-5.81839466

$$$$

 OpenBabel03252500593D

 38 40  0  0  1  0  0  0  0  0999 V2000
   37.4890   28.3000   39.7420 O   0  0  0  0  0  0  0  0  0  0  0  0
   36.7620   28.6270   41.0420 P   0  0  1  0  0  0  0  0  0  0  0  0
   35.1330   28.9440   40.6790 O   0  0  0  0  0  0  0  0  0  0  0  0
   34.7300   29.5490   41.3700 H   0  0  0  0  0  0  0  0  0  0  0  0
   36.8170   27.2770   42.0600 O   0  0  0  0  0  0  0  0  0  0  0  0
   38.5790   25.7620   42.4120 C   0  0  0  0  0  0  0  0  0  0  0  0
   37.4000   26.0420   41.7720 C   0  0  0  0  0  0  0  0  0  0  0  0
   36.8750   25.0770   40.8860 C   0  0  0  0  0  0  0  0  0  0  0  0
   37.5820   23.9410   40.7370 N   0  0  0  0  0  0  0  0  0  0  0  0
   38.7260   23.6920   41.3700 C   0  0  0  0  0  0  0  0  0  0  0  0
   39.2260   24.6010   42.2090 N   0  0  0  0  0  0  0  0  0  0  0  0
   35.9510   25.3490   40.4140 H   0  0  0  0  0  0  0  0  0  0  0  0
   39.1780   22.7450   41.1530 H   0  0  0  0  0  0  0  0  0  0  0  0
   39.1770   26.7170   43.3400 C   0  0  0  0  0  0  0  0  0  0  0  0
   39.4330   27.6290   42.7650 H   0  0  0  0  0  0  0  0  0  0  0  0
   38.5350   26.9650   44.2060 H   0  0  0  0  0  0  0  0  0  0  0  0
   40.4730   26.1590   43.8670 C   0  0  0  0  0  0  0  0  0  0  0  0
   40.9770   25.4920   43.1390 H   0  0  0  0  0  0  0  0  0  0  0  0
   40.2040   25.5330   44.7580 H   0  0  0  0  0  0  0  0  0  0  0  0
   41.1470   26.9710   44.2410 H   0  0  0  0  0  0  0  0  0  0  0  0
   37.4100   30.0180   41.7430 O   0  0  0  0  0  0  0  0  0  0  0  0
   37.8780   31.0250   40.9050 C   0  0  0  0  0  0  0  0  0  0  0  0
   36.9420   31.9350   40.4310 C   0  0  0  0  0  0  0  0  0  0  0  0
   37.3020   32.9820   39.5850 C   0  0  0  0  0  0  0  0  0  0  0  0
   38.6190   33.0810   39.2370 N   0  0  0  0  0  0  0  0  0  0  0  0
   39.5100   32.2080   39.6910 C   0  0  0  0  0  0  0  0  0  0  0  0
   39.1430   31.2080   40.5050 N   0  0  0  0  0  0  0  0  0  0  0  0
   35.8930   31.8610   40.7060 H   0  0  0  0  0  0  0  0  0  0  0  0
   36.5810   33.6950   39.2110 H   0  0  0  0  0  0  0  0  0  0  0  0
   41.3480   31.2330   38.3190 C   0  0  2  0  0  3  0  0  0  0  0  0
   40.9610   32.2650   39.3450 C   0  0  1  0  0  3  0  0  0  0  0  0
   41.3190   33.4970   38.8630 O   0  0  0  0  0  0  0  0  0  0  0  0
   42.0350   33.3450   37.7040 C   0  0  0  0  0  2  0  0  0  0  0  0
   41.4020   32.1100   37.0800 C   0  0  2  0  0  3  0  0  0  0  0  0
   40.4150   30.2070   38.2210 O   0  0  0  0  0  0  0  0  0  0  0  0
   40.4120   29.7770   37.3320 H   0  0  0  0  0  0  0  0  0  0  0  0
   40.1260   32.4740   36.6760 O   0  0  0  0  0  0  0  0  0  0  0  0
   39.9800   33.4630   36.7060 H   0  0  0  0  0  0  0  0  0  0  0  0
  2  1  2  6  0  0  0
  2 21  1  0  0  0  0
  2  5  1  0  0  0  0
  3  2  1  0  0  0  0
  3  4  1  0  0  0  0
  6 14  1  0  0  0  0
  7  5  1  0  0  0  0
  7  6  2  0  0  0  0
  8  7  1  0  0  0  0
  9  8  2  0  0  0  0
  9 10  1  0  0  0  0
 10 11  2  0  0  0  0
 11  6  1  0  0  0  0
 12  8  1  0  0  0  0
 13 10  1  0  0  0  0
 14 17  1  0  0  0  0
 14 16  1  0  0  0  0
 15 14  1  0  0  0  0
 17 20  1  0  0  0  0
 17 19  1  0  0  0  0
 18 17  1  0  0  0  0
 22 21  1  0  0  0  0
 23 28  1  0  0  0  0
 23 22  2  0  0  0  0
 24 23  1  0  0  0  0
 25 24  2  0  0  0  0
 25 26  1  0  0  0  0
 26 27  2  0  0  0  0
 27 22  1  0  0  0  0
 29 24  1  0  0  0  0
 30 35  1  6  0  0  0
 30 31  1  0  0  0  0
 31 26  1  6  0  0  0
 32 31  1  0  0  0  0
 33 32  1  0  0  0  0
 34 37  1  1  0  0  0
 34 33  1  0  0  0  0
 34 30  1  0  0  0  0
 36 35  1  0  0  0  0
 37 38  1  0  0  0  0
M  END
>  <minimizedAffinity>
-5.72737265

$$$$

 OpenBabel03252500593D

 38 40  0  0  1  0  0  0  0  0999 V2000
   36.6260   31.6090   39.0060 O   0  0  0  0  0  0  0  0  0  0  0  0
   36.9230   30.8960   40.3210 P   0  0  1  0  0  0  0  0  0  0  0  0
   35.4740   30.7600   41.1950 O   0  0  0  0  0  0  0  0  0  0  0  0
   35.6610   30.7050   42.1800 H   0  0  0  0  0  0  0  0  0  0  0  0
   37.4820   29.3360   39.9890 O   0  0  0  0  0  0  0  0  0  0  0  0
   36.9600   27.0990   40.4900 C   0  0  0  0  0  0  0  0  0  0  0  0
   37.5530   28.2690   40.8870 C   0  0  0  0  0  0  0  0  0  0  0  0
   38.1800   28.3050   42.1510 C   0  0  0  0  0  0  0  0  0  0  0  0
   38.1460   27.1730   42.8780 N   0  0  0  0  0  0  0  0  0  0  0  0
   37.5620   26.0490   42.4710 C   0  0  0  0  0  0  0  0  0  0  0  0
   36.9690   26.0090   41.2770 N   0  0  0  0  0  0  0  0  0  0  0  0
   38.6280   29.2450   42.4090 H   0  0  0  0  0  0  0  0  0  0  0  0
   37.6140   25.2260   43.1560 H   0  0  0  0  0  0  0  0  0  0  0  0
   36.2940   26.9950   39.1950 C   0  0  0  0  0  0  0  0  0  0  0  0
   35.2330   27.2830   39.3390 H   0  0  0  0  0  0  0  0  0  0  0  0
   36.7630   27.6020   38.3980 H   0  0  0  0  0  0  0  0  0  0  0  0
   36.2950   25.5570   38.7470 C   0  0  0  0  0  0  0  0  0  0  0  0
   36.2740   24.8450   39.5960 H   0  0  0  0  0  0  0  0  0  0  0  0
   37.2650   25.3990   38.2070 H   0  0  0  0  0  0  0  0  0  0  0  0
   35.4820   25.3590   38.0020 H   0  0  0  0  0  0  0  0  0  0  0  0
   37.9990   31.8070   41.2500 O   0  0  0  0  0  0  0  0  0  0  0  0
   39.0690   32.4230   40.6100 C   0  0  0  0  0  0  0  0  0  0  0  0
   39.0390   33.8090   40.5280 C   0  0  0  0  0  0  0  0  0  0  0  0
   40.0600   34.5270   39.9070 C   0  0  0  0  0  0  0  0  0  0  0  0
   41.0970   33.8130   39.3800 N   0  0  0  0  0  0  0  0  0  0  0  0
   41.1210   32.4880   39.4610 C   0  0  0  0  0  0  0  0  0  0  0  0
   40.1290   31.8160   40.0620 N   0  0  0  0  0  0  0  0  0  0  0  0
   38.2160   34.3830   40.9460 H   0  0  0  0  0  0  0  0  0  0  0  0
   40.0460   35.6060   39.8380 H   0  0  0  0  0  0  0  0  0  0  0  0
   41.9970   31.2840   37.4620 C   0  0  2  0  0  3  0  0  0  0  0  0
   42.2270   31.6540   38.9040 C   0  0  1  0  0  3  0  0  0  0  0  0
   43.4360   32.2930   38.9910 O   0  0  0  0  0  0  0  0  0  0  0  0
   44.0740   32.2330   37.7780 C   0  0  0  0  0  2  0  0  0  0  0  0
   42.9180   32.2870   36.7890 C   0  0  2  0  0  3  0  0  0  0  0  0
   40.6680   31.4250   37.0840 O   0  0  0  0  0  0  0  0  0  0  0  0
   40.5620   31.5960   36.1170 H   0  0  0  0  0  0  0  0  0  0  0  0
   42.3910   33.5680   36.8610 O   0  0  0  0  0  0  0  0  0  0  0  0
   42.9740   34.1970   37.3750 H   0  0  0  0  0  0  0  0  0  0  0  0
  2  1  2  6  0  0  0
  2  3  1  0  0  0  0
  2 21  1  0  0  0  0
  3  4  1  0  0  0  0
  5  2  1  0  0  0  0
  5  7  1  0  0  0  0
  6  7  2  0  0  0  0
  6 11  1  0  0  0  0
  7  8  1  0  0  0  0
  8 12  1  0  0  0  0
  8  9  2  0  0  0  0
 10  9  1  0  0  0  0
 10 13  1  0  0  0  0
 11 10  2  0  0  0  0
 14 15  1  0  0  0  0
 14  6  1  0  0  0  0
 16 14  1  0  0  0  0
 17 14  1  0  0  0  0
 17 18  1  0  0  0  0
 19 17  1  0  0  0  0
 20 17  1  0  0  0  0
 22 21  1  0  0  0  0
 23 22  1  0  0  0  0
 23 28  1  0  0  0  0
 24 23  2  0  0  0  0
 25 26  2  0  0  0  0
 25 24  1  0  0  0  0
 26 27  1  0  0  0  0
 27 22  2  0  0  0  0
 29 24  1  0  0  0  0
 30 35  1  6  0  0  0
 30 31  1  0  0  0  0
 31 32  1  0  0  0  0
 31 26  1  6  0  0  0
 33 32  1  0  0  0  0
 34 37  1  1  0  0  0
 34 30  1  0  0  0  0
 34 33  1  0  0  0  0
 36 35  1  0  0  0  0
 37 38  1  0  0  0  0
M  END
>  <minimizedAffinity>
-5.69411325

$$$$

 OpenBabel03252500593D

 38 40  0  0  1  0  0  0  0  0999 V2000
   36.7300   29.6020   39.6880 O   0  0  0  0  0  0  0  0  0  0  0  0
   36.9930   30.8190   40.5690 P   0  0  1  0  0  0  0  0  0  0  0  0
   35.5780   31.1620   41.4420 O   0  0  0  0  0  0  0  0  0  0  0  0
   35.5420   32.1350   41.6860 H   0  0  0  0  0  0  0  0  0  0  0  0
   38.2130   30.4450   41.6770 O   0  0  0  0  0  0  0  0  0  0  0  0
   38.6090   28.3400   42.6460 C   0  0  0  0  0  0  0  0  0  0  0  0
   38.9740   29.2750   41.7130 C   0  0  0  0  0  0  0  0  0  0  0  0
   40.0730   28.9880   40.8750 C   0  0  0  0  0  0  0  0  0  0  0  0
   40.6840   27.8030   41.0590 N   0  0  0  0  0  0  0  0  0  0  0  0
   40.3100   26.9110   41.9730 C   0  0  0  0  0  0  0  0  0  0  0  0
   39.2720   27.1770   42.7680 N   0  0  0  0  0  0  0  0  0  0  0  0
   40.3140   29.7550   40.1640 H   0  0  0  0  0  0  0  0  0  0  0  0
   40.8910   26.0100   42.0050 H   0  0  0  0  0  0  0  0  0  0  0  0
   37.4830   28.5740   43.5450 C   0  0  0  0  0  0  0  0  0  0  0  0
   37.8800   28.6090   44.5790 H   0  0  0  0  0  0  0  0  0  0  0  0
   36.9050   29.4890   43.3140 H   0  0  0  0  0  0  0  0  0  0  0  0
   36.5400   27.4010   43.4820 C   0  0  0  0  0  0  0  0  0  0  0  0
   37.0590   26.4490   43.2550 H   0  0  0  0  0  0  0  0  0  0  0  0
   35.8410   27.6070   42.6290 H   0  0  0  0  0  0  0  0  0  0  0  0
   35.9060   27.3350   44.4030 H   0  0  0  0  0  0  0  0  0  0  0  0
   37.3460   32.1670   39.6160 O   0  0  0  0  0  0  0  0  0  0  0  0
   38.6580   32.3500   39.1910 C   0  0  0  0  0  0  0  0  0  0  0  0
   39.0210   31.7480   37.9930 C   0  0  0  0  0  0  0  0  0  0  0  0
   40.3090   31.8670   37.4750 C   0  0  0  0  0  0  0  0  0  0  0  0
   41.2080   32.6030   38.1930 N   0  0  0  0  0  0  0  0  0  0  0  0
   40.8560   33.1770   39.3380 C   0  0  0  0  0  0  0  0  0  0  0  0
   39.6110   33.0500   39.8190 N   0  0  0  0  0  0  0  0  0  0  0  0
   38.3100   31.1620   37.4170 H   0  0  0  0  0  0  0  0  0  0  0  0
   40.6020   31.4030   36.5440 H   0  0  0  0  0  0  0  0  0  0  0  0
   42.2800   33.2480   41.3820 C   0  0  2  0  0  3  0  0  0  0  0  0
   41.7930   33.9920   40.1670 C   0  0  1  0  0  3  0  0  0  0  0  0
   42.8880   34.3920   39.4470 O   0  0  0  0  0  0  0  0  0  0  0  0
   44.0290   34.1160   40.1560 C   0  0  0  0  0  2  0  0  0  0  0  0
   43.6600   32.8390   40.8970 C   0  0  2  0  0  3  0  0  0  0  0  0
   41.4700   32.1650   41.7010 O   0  0  0  0  0  0  0  0  0  0  0  0
   41.9560   31.4550   42.1870 H   0  0  0  0  0  0  0  0  0  0  0  0
   43.5710   31.8350   39.9440 O   0  0  0  0  0  0  0  0  0  0  0  0
   43.9370   32.1130   39.0560 H   0  0  0  0  0  0  0  0  0  0  0  0
  2  1  2  6  0  0  0
  2  3  1  0  0  0  0
  2  5  1  0  0  0  0
  3  4  1  0  0  0  0
  5  7  1  0  0  0  0
  6 11  1  0  0  0  0
  6 14  1  0  0  0  0
  7  6  2  0  0  0  0
  8  9  2  0  0  0  0
  8  7  1  0  0  0  0
  9 10  1  0  0  0  0
 10 13  1  0  0  0  0
 10 11  2  0  0  0  0
 12  8  1  0  0  0  0
 14 15  1  0  0  0  0
 16 14  1  0  0  0  0
 17 14  1  0  0  0  0
 17 20  1  0  0  0  0
 18 17  1  0  0  0  0
 19 17  1  0  0  0  0
 21  2  1  0  0  0  0
 22 21  1  0  0  0  0
 22 27  1  0  0  0  0
 23 22  2  0  0  0  0
 24 23  1  0  0  0  0
 24 25  2  0  0  0  0
 25 26  1  0  0  0  0
 26 27  2  0  0  0  0
 28 23  1  0  0  0  0
 29 24  1  0  0  0  0
 30 35  1  6  0  0  0
 31 26  1  6  0  0  0
 31 30  1  0  0  0  0
 32 33  1  0  0  0  0
 32 31  1  0  0  0  0
 33 34  1  0  0  0  0
 34 37  1  6  0  0  0
 34 30  1  0  0  0  0
 35 36  1  0  0  0  0
 38 37  1  0  0  0  0
M  END
>  <minimizedAffinity>
-5.57190228

$$$$

 OpenBabel03252500593D

 38 40  0  0  1  0  0  0  0  0999 V2000
   39.3930   28.0600   43.3360 O   0  0  0  0  0  0  0  0  0  0  0  0
   38.5220   28.3750   42.1240 P   0  0  1  0  0  0  0  0  0  0  0  0
   39.4990   28.3340   40.7360 O   0  0  0  0  0  0  0  0  0  0  0  0
   39.1150   28.9210   40.0180 H   0  0  0  0  0  0  0  0  0  0  0  0
   37.3400   27.1770   41.9670 O   0  0  0  0  0  0  0  0  0  0  0  0
   36.9190   25.2340   40.7120 C   0  0  0  0  0  0  0  0  0  0  0  0
   36.8910   26.6030   40.7770 C   0  0  0  0  0  0  0  0  0  0  0  0
   36.4180   27.3140   39.6530 C   0  0  0  0  0  0  0  0  0  0  0  0
   36.0260   26.5840   38.5920 N   0  0  0  0  0  0  0  0  0  0  0  0
   36.0640   25.2540   38.5550 C   0  0  0  0  0  0  0  0  0  0  0  0
   36.5090   24.5760   39.6140 N   0  0  0  0  0  0  0  0  0  0  0  0
   36.4180   28.3810   39.7590 H   0  0  0  0  0  0  0  0  0  0  0  0
   35.7200   24.8070   37.6420 H   0  0  0  0  0  0  0  0  0  0  0  0
   37.3970   24.4380   41.8390 C   0  0  0  0  0  0  0  0  0  0  0  0
   37.3480   25.0740   42.7450 H   0  0  0  0  0  0  0  0  0  0  0  0
   36.8410   23.4930   41.9900 H   0  0  0  0  0  0  0  0  0  0  0  0
   38.8490   24.0950   41.6290 C   0  0  0  0  0  0  0  0  0  0  0  0
   39.3900   24.8680   41.0480 H   0  0  0  0  0  0  0  0  0  0  0  0
   38.8620   23.1530   41.0190 H   0  0  0  0  0  0  0  0  0  0  0  0
   39.3570   23.8530   42.5980 H   0  0  0  0  0  0  0  0  0  0  0  0
   37.8810   29.9320   42.2530 O   0  0  0  0  0  0  0  0  0  0  0  0
   38.1390   30.8400   41.2320 C   0  0  0  0  0  0  0  0  0  0  0  0
   37.0400   31.3950   40.5900 C   0  0  0  0  0  0  0  0  0  0  0  0
   37.1850   32.3150   39.5540 C   0  0  0  0  0  0  0  0  0  0  0  0
   38.4560   32.6540   39.1910 N   0  0  0  0  0  0  0  0  0  0  0  0
   39.5050   32.1200   39.8070 C   0  0  0  0  0  0  0  0  0  0  0  0
   39.3440   31.2370   40.8020 N   0  0  0  0  0  0  0  0  0  0  0  0
   36.0250   31.1290   40.8760 H   0  0  0  0  0  0  0  0  0  0  0  0
   36.3350   32.7530   39.0480 H   0  0  0  0  0  0  0  0  0  0  0  0
   41.5130   31.4640   38.4850 C   0  0  2  0  0  3  0  0  0  0  0  0
   40.9170   32.4510   39.4540 C   0  0  1  0  0  3  0  0  0  0  0  0
   41.0220   33.7030   38.9030 O   0  0  0  0  0  0  0  0  0  0  0  0
   41.7630   33.6360   37.7520 C   0  0  0  0  0  2  0  0  0  0  0  0
   41.3990   32.2650   37.1990 C   0  0  2  0  0  3  0  0  0  0  0  0
   40.8090   30.2670   38.4470 O   0  0  0  0  0  0  0  0  0  0  0  0
   40.9010   29.7980   37.5820 H   0  0  0  0  0  0  0  0  0  0  0  0
   40.0790   32.3410   36.7800 O   0  0  0  0  0  0  0  0  0  0  0  0
   39.7350   33.2790   36.7550 H   0  0  0  0  0  0  0  0  0  0  0  0
  2 21  1  0  0  0  0
  2  1  2  1  0  0  0
  3  2  1  0  0  0  0
  4  3  1  0  0  0  0
  5  2  1  0  0  0  0
  6  7  1  0  0  0  0
  6 14  1  0  0  0  0
  7  5  1  0  0  0  0
  8 12  1  0  0  0  0
  8  7  2  0  0  0  0
  9  8  1  0  0  0  0
 10  9  2  0  0  0  0
 10 11  1  0  0  0  0
 11  6  2  0  0  0  0
 13 10  1  0  0  0  0
 14 16  1  0  0  0  0
 14 15  1  0  0  0  0
 17 14  1  0  0  0  0
 17 20  1  0  0  0  0
 18 17  1  0  0  0  0
 19 17  1  0  0  0  0
 22 21  1  0  0  0  0
 23 28  1  0  0  0  0
 23 22  2  0  0  0  0
 24 23  1  0  0  0  0
 25 24  2  0  0  0  0
 25 26  1  0  0  0  0
 26 27  2  0  0  0  0
 27 22  1  0  0  0  0
 29 24  1  0  0  0  0
 30 35  1  6  0  0  0
 30 31  1  0  0  0  0
 31 26  1  6  0  0  0
 32 31  1  0  0  0  0
 33 32  1  0  0  0  0
 34 37  1  1  0  0  0
 34 33  1  0  0  0  0
 34 30  1  0  0  0  0
 36 35  1  0  0  0  0
 38 37  1  0  0  0  0
M  END
>  <minimizedAffinity>
-5.4921751

$$$$

 OpenBabel03252500593D

 38 40  0  0  1  0  0  0  0  0999 V2000
   36.7500   27.0480   36.9370 O   0  0  0  0  0  0  0  0  0  0  0  0
   36.2300   28.0010   38.0090 P   0  0  1  0  0  0  0  0  0  0  0  0
   34.5670   27.7270   38.2080 O   0  0  0  0  0  0  0  0  0  0  0  0
   34.1120   28.5540   38.5490 H   0  0  0  0  0  0  0  0  0  0  0  0
   36.9970   27.6530   39.4760 O   0  0  0  0  0  0  0  0  0  0  0  0
   37.0650   26.5610   41.5560 C   0  0  0  0  0  0  0  0  0  0  0  0
   36.9070   26.4620   40.1980 C   0  0  0  0  0  0  0  0  0  0  0  0
   36.6700   25.1850   39.6450 C   0  0  0  0  0  0  0  0  0  0  0  0
   36.6160   24.1510   40.5040 N   0  0  0  0  0  0  0  0  0  0  0  0
   36.7740   24.2730   41.8200 C   0  0  0  0  0  0  0  0  0  0  0  0
   36.9980   25.4770   42.3490 N   0  0  0  0  0  0  0  0  0  0  0  0
   36.5540   25.1670   38.5790 H   0  0  0  0  0  0  0  0  0  0  0  0
   36.7060   23.3610   42.3810 H   0  0  0  0  0  0  0  0  0  0  0  0
   37.3140   27.8510   42.1930 C   0  0  0  0  0  0  0  0  0  0  0  0
   38.3940   28.0760   42.0850 H   0  0  0  0  0  0  0  0  0  0  0  0
   36.6980   28.6770   41.7910 H   0  0  0  0  0  0  0  0  0  0  0  0
   37.0390   27.7410   43.6690 C   0  0  0  0  0  0  0  0  0  0  0  0
   37.2330   26.7250   44.0650 H   0  0  0  0  0  0  0  0  0  0  0  0
   35.9430   27.9420   43.7990 H   0  0  0  0  0  0  0  0  0  0  0  0
   37.5780   28.5360   44.2470 H   0  0  0  0  0  0  0  0  0  0  0  0
   36.4300   29.6030   37.5160 O   0  0  0  0  0  0  0  0  0  0  0  0
   37.2590   30.4280   38.2680 C   0  0  0  0  0  0  0  0  0  0  0  0
   36.6540   31.2000   39.2510 C   0  0  0  0  0  0  0  0  0  0  0  0
   37.3900   32.0610   40.0620 C   0  0  0  0  0  0  0  0  0  0  0  0
   38.7380   32.1180   39.8550 N   0  0  0  0  0  0  0  0  0  0  0  0
   39.3130   31.3790   38.9130 C   0  0  0  0  0  0  0  0  0  0  0  0
   38.5860   30.5560   38.1430 N   0  0  0  0  0  0  0  0  0  0  0  0
   35.5810   31.1580   39.4220 H   0  0  0  0  0  0  0  0  0  0  0  0
   36.9280   32.6660   40.8300 H   0  0  0  0  0  0  0  0  0  0  0  0
   41.1360   32.2900   37.4790 C   0  0  2  0  0  3  0  0  0  0  0  0
   40.7800   31.3980   38.6390 C   0  0  1  0  0  3  0  0  0  0  0  0
   41.4940   31.8180   39.7320 O   0  0  0  0  0  0  0  0  0  0  0  0
   42.3850   32.7880   39.3510 C   0  0  0  0  0  2  0  0  0  0  0  0
   41.6400   33.5070   38.2350 C   0  0  2  0  0  3  0  0  0  0  0  0
   40.0420   32.5660   36.6680 O   0  0  0  0  0  0  0  0  0  0  0  0
   40.1310   33.4240   36.1860 H   0  0  0  0  0  0  0  0  0  0  0  0
   40.5900   34.1900   38.8300 O   0  0  0  0  0  0  0  0  0  0  0  0
   40.6620   34.2160   39.8270 H   0  0  0  0  0  0  0  0  0  0  0  0
  2  1  2  6  0  0  0
  2  3  1  0  0  0  0
  2  5  1  0  0  0  0
  3  4  1  0  0  0  0
  5  7  1  0  0  0  0
  6 14  1  0  0  0  0
  6 11  1  0  0  0  0
  7  6  2  0  0  0  0
  8  7  1  0  0  0  0
  8  9  2  0  0  0  0
  9 10  1  0  0  0  0
 10 11  2  0  0  0  0
 10 13  1  0  0  0  0
 12  8  1  0  0  0  0
 14 17  1  0  0  0  0
 15 14  1  0  0  0  0
 16 14  1  0  0  0  0
 17 19  1  0  0  0  0
 17 18  1  0  0  0  0
 17 20  1  0  0  0  0
 21  2  1  0  0  0  0
 21 22  1  0  0  0  0
 22 23  1  0  0  0  0
 23 28  1  0  0  0  0
 23 24  2  0  0  0  0
 24 29  1  0  0  0  0
 25 24  1  0  0  0  0
 26 25  2  0  0  0  0
 27 22  2  0  0  0  0
 27 26  1  0  0  0  0
 30 35  1  1  0  0  0
 30 34  1  0  0  0  0
 30 31  1  0  0  0  0
 31 26  1  1  0  0  0
 31 32  1  0  0  0  0
 33 32  1  0  0  0  0
 34 37  1  1  0  0  0
 34 33  1  0  0  0  0
 36 35  1  0  0  0  0
 37 38  1  0  0  0  0
M  END
>  <minimizedAffinity>
-5.42425299

$$$$
