
 OpenBabel03252507073D

 24 25  0  0  1  0  0  0  0  0999 V2000
   44.5550   36.0280   44.4890 C   0  0  0  0  0  0  0  0  0  0  0  0
   45.2250   35.9500   43.2570 C   0  0  0  0  0  0  0  0  0  0  0  0
   46.0920   34.8820   43.0710 C   0  0  0  0  0  0  0  0  0  0  0  0
   46.2610   33.9620   44.0730 N   0  0  0  0  0  0  0  0  0  0  0  0
   45.5980   34.0710   45.2460 C   0  0  0  0  0  0  0  0  0  0  0  0
   44.7530   35.0980   45.4460 N   0  0  0  0  0  0  0  0  0  0  0  0
   43.8750   36.8590   44.6420 H   0  0  0  0  0  0  0  0  0  0  0  0
   45.0240   36.7220   42.5350 H   0  0  0  0  0  0  0  0  0  0  0  0
   45.5670   31.6350   45.6970 C   0  0  2  0  0  3  0  0  0  0  0  0
   45.8420   33.0280   46.2760 C   0  0  1  0  0  3  0  0  0  0  0  0
   47.1700   32.9830   46.6730 O   0  0  0  0  0  0  0  0  0  0  0  0
   47.4720   31.6970   47.0320 C   0  0  0  0  0  2  0  0  0  0  0  0
   46.3220   30.7930   46.7010 C   0  0  2  0  0  3  0  0  0  0  0  0
   46.2060   31.6090   44.4550 O   0  0  0  0  0  0  0  0  0  0  0  0
   46.9110   32.3240   44.3760 H   0  0  0  0  0  0  0  0  0  0  0  0
   46.7320   29.6120   46.0880 O   0  0  0  0  0  0  0  0  0  0  0  0
   46.8920   29.7380   45.1150 H   0  0  0  0  0  0  0  0  0  0  0  0
   46.7550   34.8110   41.8450 O   0  0  0  0  0  0  0  0  0  0  0  0
   48.7930   33.2730   41.1430 O   0  0  0  0  0  0  0  0  0  0  0  0
   48.4600   34.5980   41.8210 P   0  0  0  0  0  0  0  0  0  0  0  0
   49.1440   35.8960   41.0260 O   0  0  0  0  0  0  0  0  0  0  0  0
   48.8310   35.9020   40.1070 H   0  0  0  0  0  0  0  0  0  0  0  0
   48.9740   34.5040   43.4350 O   0  0  0  0  0  0  0  0  0  0  0  0
   48.7220   33.6100   43.7770 H   0  0  0  0  0  0  0  0  0  0  0  0
  1  7  1  0  0  0  0
  1  6  1  0  0  0  0
  2  1  2  0  0  0  0
  3  2  1  0  0  0  0
  3  4  2  0  0  0  0
  4  5  1  0  0  0  0
  5  6  2  0  0  0  0
  8  2  1  0  0  0  0
  9 14  1  6  0  0  0
  9 10  1  0  0  0  0
  9 13  1  0  0  0  0
 10  5  1  6  0  0  0
 10 11  1  0  0  0  0
 11 12  1  0  0  0  0
 13 16  1  6  0  0  0
 13 12  1  0  0  0  0
 15 14  1  0  0  0  0
 17 16  1  0  0  0  0
 18  3  1  0  0  0  0
 19 20  2  0  0  0  0
 20 18  1  0  0  0  0
 20 23  1  0  0  0  0
 21 20  1  0  0  0  0
 22 21  1  0  0  0  0
 23 24  1  0  0  0  0
M  END
>  <minimizedAffinity>
-5.07638121

>  <minimizedRMSD>
0.28039813

$$$$
