
 OpenBabel03252507583D

 27 29  0  0  1  0  0  0  0  0999 V2000
   46.9350   32.2630   46.2840 C   0  0  1  0  0  0  0  0  0  0  0  0
   47.3540   32.5020   47.7000 C   0  0  0  0  0  0  0  0  0  0  0  0
   46.0900   31.7690   47.4140 C   0  0  2  0  0  0  0  0  0  0  0  0
   47.4990   31.5650   45.6680 H   0  0  0  0  0  0  0  0  0  0  0  0
   47.3630   33.5750   47.9940 H   0  0  0  0  0  0  0  0  0  0  0  0
   48.2530   31.9350   48.0230 H   0  0  0  0  0  0  0  0  0  0  0  0
   45.1790   32.3630   47.7090 H   0  0  0  0  0  0  0  0  0  0  0  0
   46.1720   34.6170   43.5720 C   0  0  0  0  0  0  0  0  0  0  0  0
   45.1210   35.4090   44.1030 C   0  0  0  0  0  0  0  0  0  0  0  0
   44.6910   35.1010   45.4050 C   0  0  0  0  0  0  0  0  0  0  0  0
   45.2990   34.0770   46.0700 N   0  0  0  0  0  0  0  0  0  0  0  0
   46.3040   33.3630   45.4900 C   0  0  0  0  0  0  0  0  0  0  0  0
   46.7530   33.6070   44.2630 N   0  0  0  0  0  0  0  0  0  0  0  0
   44.6710   36.2030   43.5480 H   0  0  0  0  0  0  0  0  0  0  0  0
   43.9040   35.6610   45.8570 H   0  0  0  0  0  0  0  0  0  0  0  0
   46.5720   34.9860   42.2460 C   0  0  0  0  0  0  0  0  0  0  0  0
   47.7390   35.3580   41.9110 O   0  0  0  0  0  0  0  0  0  0  0  0
   45.8740   34.9730   41.3950 H   0  0  0  0  0  0  0  0  0  0  0  0
   44.7250   29.6450   47.5290 C   0  0  2  0  0  3  0  0  0  0  0  0
   46.0330   30.3300   47.7800 C   0  0  1  0  0  3  0  0  0  0  0  0
   46.9060   29.5380   47.0400 O   0  0  0  0  0  0  0  0  0  0  0  0
   46.5770   28.2360   47.3320 C   0  0  0  0  0  2  0  0  0  0  0  0
   45.1420   28.1940   47.8010 C   0  0  2  0  0  3  0  0  0  0  0  0
   44.3830   29.7900   46.2060 O   0  0  0  0  0  0  0  0  0  0  0  0
   44.6590   29.0050   45.6690 H   0  0  0  0  0  0  0  0  0  0  0  0
   44.3420   27.3580   47.0440 O   0  0  0  0  0  0  0  0  0  0  0  0
   44.1350   26.5740   47.6120 H   0  0  0  0  0  0  0  0  0  0  0  0
  1  4  1  6  0  0  0
  1  3  1  0  0  0  0
  1  2  1  0  0  0  0
  2  5  1  0  0  0  0
  2  6  1  0  0  0  0
  3  2  1  0  0  0  0
  3  7  1  1  0  0  0
  3 20  1  0  0  0  0
  8  9  2  0  0  0  0
  8 13  1  0  0  0  0
  9 10  1  0  0  0  0
 10 15  1  0  0  0  0
 10 11  2  0  0  0  0
 12 11  1  0  0  0  0
 12  1  1  0  0  0  0
 13 12  2  0  0  0  0
 14  9  1  0  0  0  0
 16  8  1  0  0  0  0
 17 16  2  0  0  0  0
 18 16  1  0  0  0  0
 19 24  1  6  0  0  0
 19 20  1  0  0  0  0
 19 23  1  0  0  0  0
 20 21  1  6  0  0  0
 21 22  1  0  0  0  0
 22 23  1  0  0  0  0
 23 26  1  6  0  0  0
 25 24  1  0  0  0  0
 26 27  1  0  0  0  0
M  END
>  <minimizedAffinity>
-4.91786432

>  <minimizedRMSD>
1.20739913

$$$$
