
 OpenBabel03252506413D

 40 43  0  0  1  0  0  0  0  0999 V2000
   49.3650   33.3210   41.3290 N   0  0  1  0  0  0  0  0  0  0  0  0
   50.6390   33.0490   41.9610 C   0  0  0  0  0  0  0  0  0  0  0  0
   51.2370   31.7290   41.6560 C   0  0  0  0  0  0  0  0  0  0  0  0
   50.3430   30.6180   42.1190 C   0  0  0  0  0  0  0  0  0  0  0  0
   48.9120   31.0160   42.1090 C   0  0  0  0  0  0  0  0  0  0  0  0
   48.6950   32.0890   41.0530 C   0  0  2  0  0  0  0  0  0  0  0  0
   50.4990   33.0880   43.0730 H   0  0  0  0  0  0  0  0  0  0  0  0
   51.3810   33.8690   41.7630 H   0  0  0  0  0  0  0  0  0  0  0  0
   52.1440   31.6610   42.3430 H   0  0  0  0  0  0  0  0  0  0  0  0
   51.6840   31.6000   40.6600 H   0  0  0  0  0  0  0  0  0  0  0  0
   50.4430   29.7260   41.4510 H   0  0  0  0  0  0  0  0  0  0  0  0
   50.6310   30.2290   43.1270 H   0  0  0  0  0  0  0  0  0  0  0  0
   48.6370   31.4970   43.0710 H   0  0  0  0  0  0  0  0  0  0  0  0
   48.2240   30.1880   41.8440 H   0  0  0  0  0  0  0  0  0  0  0  0
   47.6110   32.3450   41.2210 H   0  0  0  0  0  0  0  0  0  0  0  0
   47.2550   34.6810   41.9490 C   0  0  1  0  0  0  0  0  0  0  0  0
   48.4050   35.5710   41.7380 C   0  0  0  0  0  0  0  0  0  0  0  0
   48.6430   34.1830   42.2100 C   0  0  2  0  0  0  0  0  0  0  0  0
   46.7380   34.2260   41.0860 H   0  0  0  0  0  0  0  0  0  0  0  0
   48.5440   36.4230   42.4370 H   0  0  0  0  0  0  0  0  0  0  0  0
   48.6760   35.8380   40.6870 H   0  0  0  0  0  0  0  0  0  0  0  0
   48.9330   34.0950   43.2940 H   0  0  0  0  0  0  0  0  0  0  0  0
   45.5300   36.0550   43.1370 C   0  0  0  0  0  0  0  0  0  0  0  0
   46.3390   34.8920   43.1030 C   0  0  0  0  0  0  0  0  0  0  0  0
   46.2410   33.9830   44.1390 C   0  0  0  0  0  0  0  0  0  0  0  0
   45.3730   34.2470   45.1460 N   0  0  0  0  0  0  0  0  0  0  0  0
   44.6030   35.3660   45.1670 C   0  0  0  0  0  0  0  0  0  0  0  0
   44.6740   36.2740   44.1700 N   0  0  0  0  0  0  0  0  0  0  0  0
   45.6520   36.7320   42.2940 H   0  0  0  0  0  0  0  0  0  0  0  0
   46.8520   33.0920   44.1250 H   0  0  0  0  0  0  0  0  0  0  0  0
   43.9130   35.5700   45.9760 H   0  0  0  0  0  0  0  0  0  0  0  0
   48.8440   32.6330   38.6050 C   0  0  2  0  0  3  0  0  0  0  0  0
   48.7660   31.5660   39.6700 C   0  0  2  0  0  3  0  0  0  0  0  0
   47.6390   30.7930   39.3400 O   0  0  0  0  0  0  0  0  0  0  0  0
   47.7830   30.6580   37.9380 C   0  0  0  0  0  2  0  0  0  0  0  0
   47.8930   32.1080   37.5250 C   0  0  2  0  0  3  0  0  0  0  0  0
   50.1300   32.7750   38.0960 O   0  0  0  0  0  0  0  0  0  0  0  0
   50.3590   33.7310   38.1380 H   0  0  0  0  0  0  0  0  0  0  0  0
   48.4960   32.2490   36.2790 O   0  0  0  0  0  0  0  0  0  0  0  0
   49.4880   32.1070   36.4060 H   0  0  0  0  0  0  0  0  0  0  0  0
  1  2  1  1  0  0  0
  1 18  1  0  0  0  0
  2  7  1  0  0  0  0
  3  2  1  0  0  0  0
  3  4  1  0  0  0  0
  3  9  1  0  0  0  0
  4 12  1  0  0  0  0
  5  4  1  0  0  0  0
  5 13  1  0  0  0  0
  6 15  1  1  0  0  0
  6  1  1  0  0  0  0
  6  5  1  0  0  0  0
  8  2  1  0  0  0  0
 10  3  1  0  0  0  0
 11  4  1  0  0  0  0
 14  5  1  0  0  0  0
 16 19  1  6  0  0  0
 16 18  1  0  0  0  0
 16 24  1  0  0  0  0
 17 16  1  0  0  0  0
 17 18  1  0  0  0  0
 17 20  1  0  0  0  0
 18 22  1  1  0  0  0
 21 17  1  0  0  0  0
 23 28  1  0  0  0  0
 24 23  2  0  0  0  0
 24 25  1  0  0  0  0
 25 26  2  0  0  0  0
 26 27  1  0  0  0  0
 27 31  1  0  0  0  0
 28 27  2  0  0  0  0
 29 23  1  0  0  0  0
 30 25  1  0  0  0  0
 32 37  1  6  0  0  0
 32 33  1  0  0  0  0
 33 34  1  6  0  0  0
 33  6  1  0  0  0  0
 35 34  1  0  0  0  0
 36 39  1  6  0  0  0
 36 35  1  0  0  0  0
 36 32  1  0  0  0  0
 37 38  1  0  0  0  0
 39 40  1  0  0  0  0
M  END
>  <minimizedAffinity>
-5.30334187

>  <minimizedRMSD>
0.497932196

$$$$
