
 OpenBabel03252509143D

 45 49  0  0  1  0  0  0  0  0999 V2000
   44.4530   35.2750   41.3440 S   0  0  0  0  0  0  0  0  0  0  0  0
   47.4200   32.9320   42.9020 C   0  0  0  0  0  0  0  0  0  0  0  0
   46.5760   33.6250   42.0340 C   0  0  0  0  0  0  0  0  0  0  0  0
   45.5130   34.4040   42.4650 C   0  0  0  0  0  0  0  0  0  0  0  0
   45.2640   34.5070   43.8430 C   0  0  0  0  0  0  0  0  0  0  0  0
   44.3590   35.1460   44.6110 N   0  0  0  0  0  0  0  0  0  0  0  0
   44.5990   34.8850   45.9080 C   0  0  0  0  0  0  0  0  0  0  0  0
   45.6700   34.0720   45.9250 N   0  0  0  0  0  0  0  0  0  0  0  0
   46.1070   33.8180   44.6780 C   0  0  0  0  0  0  0  0  0  0  0  0
   47.1770   33.0320   44.2720 C   0  0  0  0  0  0  0  0  0  0  0  0
   48.2150   32.3550   42.4860 H   0  0  0  0  0  0  0  0  0  0  0  0
   43.5830   35.7580   44.2240 H   0  0  0  0  0  0  0  0  0  0  0  0
   44.0500   35.2480   46.7720 H   0  0  0  0  0  0  0  0  0  0  0  0
   47.8110   32.5090   44.9610 H   0  0  0  0  0  0  0  0  0  0  0  0
   46.3310   32.5530   38.5380 C   0  0  0  0  0  0  0  0  0  0  0  0
   47.2890   33.3540   37.9020 C   0  0  0  0  0  0  0  0  0  0  0  0
   48.0110   34.2560   38.6820 C   0  0  0  0  0  0  0  0  0  0  0  0
   47.7590   34.3230   40.0220 N   0  0  0  0  0  0  0  0  0  0  0  0
   46.8210   33.5270   40.5920 C   0  0  0  0  0  0  0  0  0  0  0  0
   46.0920   32.6360   39.8820 N   0  0  0  0  0  0  0  0  0  0  0  0
   45.8050   31.8780   37.8840 H   0  0  0  0  0  0  0  0  0  0  0  0
   47.4860   33.3020   36.8570 H   0  0  0  0  0  0  0  0  0  0  0  0
   48.7720   34.9190   38.3000 H   0  0  0  0  0  0  0  0  0  0  0  0
   42.1870   33.9960   41.7790 N   0  0  0  0  0  0  0  0  0  0  0  0
   43.1080   34.2600   40.6870 C   0  0  1  0  0  0  0  0  0  0  0  0
   42.4480   35.1110   39.5940 C   0  0  0  0  0  0  0  0  0  0  0  0
   41.1550   34.7230   39.3060 O   0  0  0  0  0  0  0  0  0  0  0  0
   40.7570   33.5270   39.8600 C   0  0  0  0  0  0  0  0  0  0  0  0
   40.8830   33.6300   41.3560 C   0  0  1  0  0  0  0  0  0  0  0  0
   42.6680   33.3650   42.4270 H   0  0  0  0  0  0  0  0  0  0  0  0
   43.4560   33.3300   40.2330 H   0  0  0  0  0  0  0  0  0  0  0  0
   42.5120   36.1790   39.8920 H   0  0  0  0  0  0  0  0  0  0  0  0
   42.9900   34.9740   38.6640 H   0  0  0  0  0  0  0  0  0  0  0  0
   41.4290   32.7320   39.4840 H   0  0  0  0  0  0  0  0  0  0  0  0
   39.7230   33.3460   39.5750 H   0  0  0  0  0  0  0  0  0  0  0  0
   40.1860   34.4250   41.6940 H   0  0  0  0  0  0  0  0  0  0  0  0
   41.4350   31.2500   41.9260 C   0  0  2  0  0  0  0  0  0  0  0  0
   40.3730   32.3460   41.9400 C   0  0  2  0  0  0  0  0  0  0  0  0
   39.3600   31.7340   41.2560 O   0  0  0  0  0  0  0  0  0  0  0  0
   39.2050   30.5380   41.9560 C   0  0  0  0  0  0  0  0  0  0  0  0
   40.5590   30.1010   42.4410 C   0  0  2  0  0  0  0  0  0  0  0  0
   42.4820   31.4960   42.7810 O   0  0  0  0  0  0  0  0  0  0  0  0
   43.2070   31.9670   42.2760 H   0  0  0  0  0  0  0  0  0  0  0  0
   40.6050   30.2280   43.8490 O   0  0  0  0  0  0  0  0  0  0  0  0
   39.7510   30.6120   44.1740 H   0  0  0  0  0  0  0  0  0  0  0  0
  1  4  1  0  0  0  0
  2 10  1  0  0  0  0
  3  4  1  0  0  0  0
  3  2  2  0  0  0  0
  4  5  2  0  0  0  0
  5  6  1  0  0  0  0
  5  9  1  0  0  0  0
  6  7  1  0  0  0  0
  7  8  2  0  0  0  0
  7 13  1  0  0  0  0
  9  8  1  0  0  0  0
 10  9  2  0  0  0  0
 10 14  1  0  0  0  0
 11  2  1  0  0  0  0
 12  6  1  0  0  0  0
 15 20  1  0  0  0  0
 16 15  2  0  0  0  0
 16 17  1  0  0  0  0
 17 18  2  0  0  0  0
 18 19  1  0  0  0  0
 19  3  1  0  0  0  0
 20 19  2  0  0  0  0
 21 15  1  0  0  0  0
 22 16  1  0  0  0  0
 23 17  1  0  0  0  0
 24 30  1  0  0  0  0
 25 31  1  6  0  0  0
 25  1  1  0  0  0  0
 25 24  1  0  0  0  0
 26 32  1  0  0  0  0
 26 25  1  0  0  0  0
 27 26  1  0  0  0  0
 27 28  1  0  0  0  0
 28 29  1  0  0  0  0
 29 36  1  1  0  0  0
 29 24  1  0  0  0  0
 29 38  1  0  0  0  0
 33 26  1  0  0  0  0
 34 28  1  0  0  0  0
 35 28  1  0  0  0  0
 37 38  1  0  0  0  0
 37 41  1  0  0  0  0
 37 42  1  1  0  0  0
 38 39  1  6  0  0  0
 39 40  1  0  0  0  0
 40 41  1  0  0  0  0
 41 44  1  1  0  0  0
 43 42  1  0  0  0  0
 44 45  1  0  0  0  0
M  END
>  <minimizedAffinity>
-6.73819256

>  <minimizedRMSD>
2.238029

$$$$
