REMARK  Name = 
REMARK  4 active torsions:
REMARK  status: ('A' for Active; 'I' for Inactive)
REMARK    1  A    between atoms: C_1  and  O_7
REMARK    2  A    between atoms: C_3  and  C_13
REMARK    3  A    between atoms: O_11  and  C_12
REMARK    4  A    between atoms: C_16  and  O_17
REMARK                            x       y       z     vdW  Elec       q    Type
REMARK                         _______ _______ _______ _____ _____    ______ ____
ROOT
ATOM      1  C   UNL     1      45.001  35.486  44.187  0.00  0.00    +0.000 A 
ATOM      2  C   UNL     1      45.978  34.930  43.343  0.00  0.00    +0.000 A 
ATOM      3  C   UNL     1      46.708  33.840  43.835  0.00  0.00    +0.000 A 
ATOM      4  N   UNL     1      46.442  33.375  45.091  0.00  0.00    +0.000 NA
ATOM      5  C   UNL     1      45.493  33.944  45.862  0.00  0.00    +0.000 A 
ATOM      6  N   UNL     1      44.784  34.981  45.419  0.00  0.00    +0.000 NA
ATOM      7  H   UNL     1      46.205  35.280  42.352  0.00  0.00    +0.000 HD
ATOM      8  H   UNL     1      45.336  33.518  46.854  0.00  0.00    +0.000 HD
ENDROOT
BRANCH   3  10
ATOM      9  C   UNL     1      47.806  31.646  43.336  0.00  0.00    +0.000 C 
ATOM     10  C   UNL     1      47.755  33.142  43.102  0.00  0.00    +0.000 C 
ATOM     11  O   UNL     1      47.546  33.170  41.727  0.00  0.00    +0.000 OA
ATOM     12  C   UNL     1      48.443  32.281  41.170  0.00  0.00    +0.000 C 
ATOM     13  C   UNL     1      48.787  31.260  42.222  0.00  0.00    +0.000 C 
BRANCH   9  14
ATOM     14  O   UNL     1      48.302  31.299  44.580  0.00  0.00    +0.000 OA
ATOM     15  H   UNL     1      47.841  30.491  44.968  0.00  0.00    +0.000 HD
ENDBRANCH   9  14
BRANCH  13  16
ATOM     16  O   UNL     1      48.597  29.959  41.805  0.00  0.00    +0.000 OA
ATOM     17  H   UNL     1      49.369  29.376  42.041  0.00  0.00    +0.000 HD
ENDBRANCH  13  16
ENDBRANCH   3  10
BRANCH   1  18
ATOM     18  O   UNL     1      44.291  36.547  43.707  0.00  0.00    +0.000 OA
ATOM     19  H   UNL     1      44.778  37.235  43.145  0.00  0.00    +0.000 HD
ENDBRANCH   1  18
TORSDOF 4
