
     RDKit          3D

 33 35  0  0  0  0  0  0  0  0999 V2000
   45.6033   34.0299   45.3295 C   0  0  0  0  0  0  0  0  0  0  0  0
   44.7008   35.0908   45.5859 C   0  0  0  0  0  0  0  0  0  0  0  0
   44.5292   36.0485   44.5773 C   0  0  0  0  0  0  0  0  0  0  0  0
   45.2325   35.8987   43.4311 N   0  0  0  0  0  0  0  0  0  0  0  0
   46.0873   34.8788   43.2093 C   0  0  0  0  0  0  0  0  0  0  0  0
   46.2674   33.9407   44.1741 N   0  0  0  0  0  0  0  0  0  0  0  0
   44.5808   33.1370   41.1896 Br  0  0  0  0  0  0  0  0  0  0  0  0
   46.2796   33.9918   40.9449 C   0  0  0  0  0  0  0  0  0  0  0  0
   46.8256   34.7503   41.9656 C   0  0  0  0  0  0  0  0  0  0  0  0
   48.0547   35.3737   41.7997 C   0  0  0  0  0  0  0  0  0  0  0  0
   48.7059   35.2179   40.6071 C   0  0  0  0  0  0  0  0  0  0  0  0
   48.1393   34.4608   39.6160 C   0  0  0  0  0  0  0  0  0  0  0  0
   46.9357   33.8359   39.7459 C   0  0  0  0  0  0  0  0  0  0  0  0
   45.6773   33.3369   46.1561 H   0  0  0  0  0  0  0  0  0  0  0  0
   44.1417   35.2101   46.4968 H   0  0  0  0  0  0  0  0  0  0  0  0
   43.8741   36.9000   44.6495 H   0  0  0  0  0  0  0  0  0  0  0  0
   48.4898   35.9637   42.5802 H   0  0  0  0  0  0  0  0  0  0  0  0
   49.6666   35.6947   40.4535 H   0  0  0  0  0  0  0  0  0  0  0  0
   48.6740   34.3540   38.6848 H   0  0  0  0  0  0  0  0  0  0  0  0
   48.3643   32.2330   37.7057 O   0  0  0  0  0  0  0  0  0  0  0  0
   47.1476   31.8316   38.2654 C   0  0  1  0  0  0  0  0  0  0  0  0
   46.3201   33.0264   38.6988 C   0  0  2  0  0  0  0  0  0  0  0  0
   46.1249   33.6579   37.4826 O   0  0  0  0  0  0  0  0  0  0  0  0
   45.5445   32.6110   36.7344 C   0  0  0  0  0  0  0  0  0  0  0  0
   46.2962   31.3640   37.0873 C   0  0  2  0  0  0  0  0  0  0  0  0
   45.4359   30.3748   37.5795 O   0  0  0  0  0  0  0  0  0  0  0  0
   48.2494   32.5770   36.7838 H   0  0  0  0  0  0  0  0  0  0  0  0
   47.2610   31.0635   39.0280 H   0  0  0  0  0  0  0  0  0  0  0  0
   45.3416   32.6204   39.0126 H   0  0  0  0  0  0  0  0  0  0  0  0
   44.4947   32.5279   37.1357 H   0  0  0  0  0  0  0  0  0  0  0  0
   45.5137   32.8195   35.6591 H   0  0  0  0  0  0  0  0  0  0  0  0
   46.9276   30.9883   36.2571 H   0  0  0  0  0  0  0  0  0  0  0  0
   44.6729   30.7925   38.0199 H   0  0  0  0  0  0  0  0  0  0  0  0
  1  2  2  0
  3  2  1  0
  4  3  2  0
  5  4  1  0
  5  6  2  0
  6  1  1  0
  8  7  1  0
  8  9  2  0
  9  5  1  0
 10  9  1  0
 11 10  2  0
 12 13  2  0
 12 11  1  0
 13  8  1  0
  1 14  1  0
  2 15  1  0
  3 16  1  0
 10 17  1  0
 11 18  1  0
 12 19  1  0
 20 21  1  0
 21 22  1  0
 22 23  1  0
 23 24  1  0
 24 25  1  0
 25 26  1  0
 25 21  1  0
 20 27  1  0
 21 28  1  1
 22 29  1  1
 24 30  1  0
 24 31  1  0
 25 32  1  6
 26 33  1  0
 13 22  1  0
M  ISO  6  14  14  15  14  16  14  17  14  18  14  19  14
M  END
>  <DihAtoms>  (1) 
11,12,21,20

>  <DihDeg>  (1) 
89.99968090341869

$$$$
