
     RDKit          3D

 24 25  0  0  0  0  0  0  0  0999 V2000
   45.0013   35.4855   44.1871 C   0  0  0  0  0  0  0  0  0  0  0  0
   45.9784   34.9304   43.3427 C   0  0  0  0  0  0  0  0  0  0  0  0
   46.7082   33.8403   43.8352 C   0  0  0  0  0  0  0  0  0  0  0  0
   46.4420   33.3750   45.0907 N   0  0  0  0  0  0  0  0  0  0  0  0
   45.4928   33.9440   45.8618 C   0  0  0  0  0  0  0  0  0  0  0  0
   44.7839   34.9812   45.4194 N   0  0  0  0  0  0  0  0  0  0  0  0
   44.2913   36.5466   43.7071 O   0  0  0  0  0  0  0  0  0  0  0  0
   46.2046   35.2799   42.3522 H   0  0  0  0  0  0  0  0  0  0  0  0
   45.3360   33.5179   46.8541 H   0  0  0  0  0  0  0  0  0  0  0  0
   44.7777   37.2351   43.1450 H   0  0  0  0  0  0  0  0  0  0  0  0
   49.4736   34.8400   42.8811 O   0  0  0  0  0  0  0  0  0  0  0  0
   49.1648   33.6008   43.4154 C   0  0  1  0  0  0  0  0  0  0  0  0
   47.7551   33.1423   43.1020 C   0  0  1  0  0  0  0  0  0  0  0  0
   47.8470   31.8009   43.4597 O   0  0  0  0  0  0  0  0  0  0  0  0
   49.0117   31.3185   42.8984 C   0  0  0  0  0  0  0  0  0  0  0  0
   49.9447   32.4855   42.7091 C   0  0  2  0  0  0  0  0  0  0  0  0
   51.1862   32.2921   43.2807 O   0  0  0  0  0  0  0  0  0  0  0  0
   50.0662   35.3848   43.4873 H   0  0  0  0  0  0  0  0  0  0  0  0
   49.2830   33.5195   44.5016 H   0  0  0  0  0  0  0  0  0  0  0  0
   47.6639   33.1737   41.9932 H   0  0  0  0  0  0  0  0  0  0  0  0
   49.4676   30.4879   43.4946 H   0  0  0  0  0  0  0  0  0  0  0  0
   48.7126   30.8778   41.9026 H   0  0  0  0  0  0  0  0  0  0  0  0
   49.9750   32.7266   41.6347 H   0  0  0  0  0  0  0  0  0  0  0  0
   51.9239   32.5525   42.6646 H   0  0  0  0  0  0  0  0  0  0  0  0
  1  6  2  0
  2  3  2  0
  2  1  1  0
  3  4  1  0
  4  5  2  0
  6  5  1  0
  7  1  1  0
  2  8  1  0
  5  9  1  0
  7 10  1  0
 11 12  1  0
 12 13  1  0
 13 14  1  0
 14 15  1  0
 15 16  1  0
 16 17  1  0
 16 12  1  0
 11 18  1  0
 12 19  1  1
 13 20  1  6
 15 21  1  0
 15 22  1  0
 16 23  1  6
 17 24  1  0
  3 13  1  0
M  ISO  3   8  14   9  14  10   3
M  END
>  <DihAtoms>  (1) 
1,2,12,11

>  <DihDeg>  (1) 
21.352162942984876

$$$$
