
 OpenBabel03252505183D

 34 37  0  0  1  0  0  0  0  0999 V2000
   45.7880   32.9100   46.3250 C   0  0  0  0  0  0  0  0  0  0  0  0
   45.2180   33.0800   47.5690 C   0  0  0  0  0  0  0  0  0  0  0  0
   45.3710   32.0920   48.5320 C   0  0  0  0  0  0  0  0  0  0  0  0
   46.0990   30.9660   48.1930 C   0  0  0  0  0  0  0  0  0  0  0  0
   46.6490   30.8520   46.9240 C   0  0  0  0  0  0  0  0  0  0  0  0
   46.5000   31.8170   45.9820 N   0  0  0  0  0  0  0  0  0  0  0  0
   44.6460   33.9610   47.8430 H   0  0  0  0  0  0  0  0  0  0  0  0
   44.9210   32.2300   49.5100 H   0  0  0  0  0  0  0  0  0  0  0  0
   46.2270   30.1970   48.9200 H   0  0  0  0  0  0  0  0  0  0  0  0
   44.6270   35.9520   44.5930 C   0  0  0  0  0  0  0  0  0  0  0  0
   45.3180   35.9180   43.3600 C   0  0  0  0  0  0  0  0  0  0  0  0
   46.1610   34.8460   43.1800 C   0  0  0  0  0  0  0  0  0  0  0  0
   46.3070   33.8840   44.1490 N   0  0  0  0  0  0  0  0  0  0  0  0
   45.6100   33.9640   45.3300 C   0  0  0  0  0  0  0  0  0  0  0  0
   44.7790   34.9980   45.5350 N   0  0  0  0  0  0  0  0  0  0  0  0
   43.9450   36.7930   44.7710 H   0  0  0  0  0  0  0  0  0  0  0  0
   45.1800   36.6930   42.6180 H   0  0  0  0  0  0  0  0  0  0  0  0
   46.9200   34.6950   41.8950 C   0  0  0  0  0  0  0  0  0  0  0  0
   48.2670   35.4170   41.9300 C   0  0  0  0  0  0  0  0  0  0  0  0
   48.0960   33.8660   41.8670 C   0  0  0  0  0  0  0  0  0  0  0  0
   46.3180   34.8750   40.9750 H   0  0  0  0  0  0  0  0  0  0  0  0
   48.6300   35.7860   42.9100 H   0  0  0  0  0  0  0  0  0  0  0  0
   48.5400   35.9210   41.0060 H   0  0  0  0  0  0  0  0  0  0  0  0
   48.4490   33.3040   42.7610 H   0  0  0  0  0  0  0  0  0  0  0  0
   48.4390   33.4430   40.9060 H   0  0  0  0  0  0  0  0  0  0  0  0
   47.9380   28.8940   47.8040 C   0  0  1  0  0  3  0  0  0  0  0  0
   47.4170   29.6310   46.6120 C   0  0  2  0  0  3  0  0  0  0  0  0
   48.5740   29.8760   45.8820 O   0  0  0  0  0  0  0  0  0  0  0  0
   49.1960   28.6480   45.8390 C   0  0  0  0  0  2  0  0  0  0  0  0
   48.8860   27.9050   47.1110 C   0  0  2  0  0  3  0  0  0  0  0  0
   48.6580   29.6490   48.6960 O   0  0  0  0  0  0  0  0  0  0  0  0
   48.1360   30.0130   49.4550 H   0  0  0  0  0  0  0  0  0  0  0  0
   48.1970   26.7340   46.7420 O   0  0  0  0  0  0  0  0  0  0  0  0
   47.2600   26.9490   46.5060 H   0  0  0  0  0  0  0  0  0  0  0  0
  1  2  1  0  0  0  0
  2  7  1  0  0  0  0
  2  3  2  0  0  0  0
  3  8  1  0  0  0  0
  4  3  1  0  0  0  0
  4  9  1  0  0  0  0
  5  4  2  0  0  0  0
  6  1  2  0  0  0  0
  6  5  1  0  0  0  0
 10 16  1  0  0  0  0
 10 15  1  0  0  0  0
 11 10  2  0  0  0  0
 12 11  1  0  0  0  0
 12 13  2  0  0  0  0
 13 14  1  0  0  0  0
 14 15  2  0  0  0  0
 14  1  1  0  0  0  0
 17 11  1  0  0  0  0
 18 19  1  0  0  0  0
 18 12  1  0  0  0  0
 19 22  1  0  0  0  0
 20 18  1  0  0  0  0
 20 19  1  0  0  0  0
 20 24  1  0  0  0  0
 21 18  1  0  0  0  0
 23 19  1  0  0  0  0
 25 20  1  0  0  0  0
 26 31  1  1  0  0  0
 27  5  1  1  0  0  0
 27 26  1  0  0  0  0
 28 27  1  0  0  0  0
 29 28  1  0  0  0  0
 29 30  1  0  0  0  0
 30 33  1  6  0  0  0
 30 26  1  0  0  0  0
 31 32  1  0  0  0  0
 34 33  1  0  0  0  0
M  END
>  <minimizedAffinity>
-5.692451

>  <minimizedRMSD>
1.04153979

$$$$
