
 OpenBabel03252506013D

 28 30  0  0  1  0  0  0  0  0999 V2000
   44.9930   36.3630   43.1200 Cl  0  0  0  0  0  0  0  0  0  0  0  0
   45.5510   35.0190   44.0690 C   0  0  0  0  0  0  0  0  0  0  0  0
   46.4960   34.1780   43.5690 C   0  0  0  0  0  0  0  0  0  0  0  0
   46.8810   33.1350   44.3900 C   0  0  0  0  0  0  0  0  0  0  0  0
   46.3790   32.9010   45.6560 C   0  0  0  0  0  0  0  0  0  0  0  0
   45.4290   33.7720   46.1240 C   0  0  0  0  0  0  0  0  0  0  0  0
   44.8200   33.4390   47.7330 Cl  0  0  0  0  0  0  0  0  0  0  0  0
   45.0170   34.8210   45.3410 C   0  0  0  0  0  0  0  0  0  0  0  0
   47.6400   32.4520   44.0000 H   0  0  0  0  0  0  0  0  0  0  0  0
   44.2630   35.4690   45.7720 H   0  0  0  0  0  0  0  0  0  0  0  0
   48.7000   35.3320   40.8890 C   0  0  0  0  0  0  0  0  0  0  0  0
   48.2010   34.6920   39.7580 C   0  0  0  0  0  0  0  0  0  0  0  0
   47.0860   33.8490   39.9140 C   0  0  0  0  0  0  0  0  0  0  0  0
   46.5700   33.7140   41.1620 N   0  0  0  0  0  0  0  0  0  0  0  0
   47.0790   34.3500   42.2440 C   0  0  0  0  0  0  0  0  0  0  0  0
   48.1450   35.1600   42.1070 N   0  0  0  0  0  0  0  0  0  0  0  0
   49.5670   35.9780   40.7210 H   0  0  0  0  0  0  0  0  0  0  0  0
   48.5650   34.7630   38.7630 H   0  0  0  0  0  0  0  0  0  0  0  0
   46.5690   33.2780   39.1640 H   0  0  0  0  0  0  0  0  0  0  0  0
   45.8000   30.7350   46.7470 C   0  0  2  0  0  3  0  0  0  0  0  0
   46.8740   31.7560   46.4280 C   0  0  1  0  0  3  0  0  0  0  0  0
   47.7850   30.9740   45.7400 O   0  0  0  0  0  0  0  0  0  0  0  0
   47.9970   29.9050   46.6010 C   0  0  0  0  0  2  0  0  0  0  0  0
   46.6510   29.5740   47.2140 C   0  0  1  0  0  3  0  0  0  0  0  0
   45.1470   30.3050   45.5910 O   0  0  0  0  0  0  0  0  0  0  0  0
   44.7570   31.0490   45.0600 H   0  0  0  0  0  0  0  0  0  0  0  0
   46.7140   29.6970   48.6220 O   0  0  0  0  0  0  0  0  0  0  0  0
   47.3460   30.4180   48.8750 H   0  0  0  0  0  0  0  0  0  0  0  0
  1  2  1  0  0  0  0
  2  8  1  0  0  0  0
  3  2  2  0  0  0  0
  3  4  1  0  0  0  0
  4  5  2  0  0  0  0
  5  6  1  0  0  0  0
  6  7  1  0  0  0  0
  8 10  1  0  0  0  0
  8  6  2  0  0  0  0
  9  4  1  0  0  0  0
 11 16  1  0  0  0  0
 12 13  1  0  0  0  0
 12 11  2  0  0  0  0
 13 14  2  0  0  0  0
 14 15  1  0  0  0  0
 15  3  1  0  0  0  0
 16 15  2  0  0  0  0
 17 11  1  0  0  0  0
 18 12  1  0  0  0  0
 19 13  1  0  0  0  0
 20 25  1  6  0  0  0
 20 24  1  0  0  0  0
 21  5  1  6  0  0  0
 21 20  1  0  0  0  0
 22 21  1  0  0  0  0
 22 23  1  0  0  0  0
 23 24  1  0  0  0  0
 24 27  1  1  0  0  0
 26 25  1  0  0  0  0
 27 28  1  0  0  0  0
M  END
>  <minimizedAffinity>
-6.01570368

>  <minimizedRMSD>
0.467000872

$$$$
