
 OpenBabel03252504353D

 42 44  0  0  1  0  0  0  0  0999 V2000
   40.7770   35.1390   41.9050 C   0  0  0  0  0  0  0  0  0  0  0  0
   40.1600   35.8950   41.3050 H   0  0  0  0  0  0  0  0  0  0  0  0
   40.4140   35.2180   42.9170 H   0  0  0  0  0  0  0  0  0  0  0  0
   40.2320   32.7520   42.2370 C   0  0  0  0  0  0  0  0  0  0  0  0
   40.2880   33.8180   41.3410 C   0  0  0  0  0  0  0  0  0  0  0  0
   39.9160   33.6070   40.0420 C   0  0  0  0  0  0  0  0  0  0  0  0
   39.5220   32.3720   39.7390 N   0  0  0  0  0  0  0  0  0  0  0  0
   39.4700   31.3640   40.5870 C   0  0  0  0  0  0  0  0  0  0  0  0
   39.8350   31.5210   41.9100 N   0  0  0  0  0  0  0  0  0  0  0  0
   39.0350   30.0910   40.1280 N   0  0  0  0  0  0  0  0  0  0  0  0
   40.5190   32.8760   43.2740 H   0  0  0  0  0  0  0  0  0  0  0  0
   38.0410   29.8430   39.9460 H   0  0  0  0  0  0  0  0  0  0  0  0
   39.8750   29.4810   40.0120 H   0  0  0  0  0  0  0  0  0  0  0  0
   41.2800   34.7420   38.4000 C   0  0  2  0  0  0  0  0  0  0  0  0
   39.9740   34.7270   39.1090 C   0  0  1  0  0  0  0  0  0  0  0  0
   39.1030   34.4290   38.0240 O   0  0  0  0  0  0  0  0  0  0  0  0
   39.4700   35.3750   37.0390 C   0  0  0  0  0  0  0  0  0  0  0  0
   40.9660   35.5650   37.1690 C   0  0  1  0  0  0  0  0  0  0  0  0
   41.4820   33.4240   37.9250 O   0  0  0  0  0  0  0  0  0  0  0  0
   41.8580   33.4350   37.0150 H   0  0  0  0  0  0  0  0  0  0  0  0
   41.3120   36.8790   37.4360 O   0  0  0  0  0  0  0  0  0  0  0  0
   42.1500   36.8760   37.9640 H   0  0  0  0  0  0  0  0  0  0  0  0
   42.0610   35.4100   41.5740 O   0  0  0  0  0  0  0  0  0  0  0  0
   43.2360   34.8800   42.0550 C   0  0  0  0  0  0  0  0  0  0  0  0
   44.1780   35.7790   42.3770 C   0  0  0  0  0  0  0  0  0  0  0  0
   45.5400   35.3970   42.9190 C   0  0  0  0  0  0  0  0  0  0  0  0
   46.2170   36.2580   42.7490 H   0  0  0  0  0  0  0  0  0  0  0  0
   45.9240   34.5100   42.3690 H   0  0  0  0  0  0  0  0  0  0  0  0
   45.4000   35.1710   44.2710 O   0  0  0  0  0  0  0  0  0  0  0  0
   45.2490   32.5400   43.8370 O   0  0  0  0  0  0  0  0  0  0  0  0
   45.9240   33.6220   44.6640 P   0  0  1  0  0  0  0  0  0  0  0  0
   47.5970   33.4850   44.3420 O   0  0  0  0  0  0  0  0  0  0  0  0
   47.9550   34.3740   44.1270 H   0  0  0  0  0  0  0  0  0  0  0  0
   45.7190   33.3060   46.2950 O   0  0  0  0  0  0  0  0  0  0  0  0
   46.8340   32.6860   46.8540 C   0  0  0  0  0  0  0  0  0  0  0  0
   46.7240   31.1940   47.0740 C   0  0  0  0  0  0  0  0  0  0  0  0
   46.6800   32.1580   48.2470 C   0  0  0  0  0  0  0  0  0  0  0  0
   47.8340   33.0240   46.5360 H   0  0  0  0  0  0  0  0  0  0  0  0
   45.7890   30.7030   46.7460 H   0  0  0  0  0  0  0  0  0  0  0  0
   47.6290   30.5790   46.9430 H   0  0  0  0  0  0  0  0  0  0  0  0
   47.5520   32.1090   48.9210 H   0  0  0  0  0  0  0  0  0  0  0  0
   45.6950   32.2220   48.7470 H   0  0  0  0  0  0  0  0  0  0  0  0
  1  3  1  0  0  0  0
  2  1  1  0  0  0  0
  4 11  1  0  0  0  0
  5  1  1  0  0  0  0
  5  4  2  0  0  0  0
  6  5  1  0  0  0  0
  7  6  2  0  0  0  0
  7  8  1  0  0  0  0
  8  9  2  0  0  0  0
  9  4  1  0  0  0  0
 10  8  1  0  0  0  0
 12 10  1  0  0  0  0
 13 10  1  0  0  0  0
 14 19  1  6  0  0  0
 14 15  1  0  0  0  0
 15  6  1  1  0  0  0
 16 15  1  0  0  0  0
 17 18  1  0  0  0  0
 17 16  1  0  0  0  0
 18 21  1  1  0  0  0
 18 14  1  0  0  0  0
 20 19  1  0  0  0  0
 21 22  1  0  0  0  0
 23  1  1  0  0  0  0
 23 24  1  0  0  0  0
 24 25  2  0  0  0  0
 25 26  1  0  0  0  0
 26 29  1  0  0  0  0
 27 26  1  0  0  0  0
 28 26  1  0  0  0  0
 29 31  1  0  0  0  0
 31 30  2  6  0  0  0
 31 34  1  0  0  0  0
 32 31  1  0  0  0  0
 33 32  1  0  0  0  0
 34 35  1  0  0  0  0
 35 36  1  0  0  0  0
 35 37  1  0  0  0  0
 36 37  1  0  0  0  0
 37 42  1  0  0  0  0
 37 41  1  0  0  0  0
 38 35  1  0  0  0  0
 39 36  1  0  0  0  0
 40 36  1  0  0  0  0
M  END
>  <minimizedAffinity>
-4.50899458

>  <minimizedRMSD>
1.37838411

$$$$
