
     RDKit          3D

 24 25  0  0  0  0  0  0  0  0999 V2000
   45.0013   35.4855   44.1871 C   0  0  0  0  0  0  0  0  0  0  0  0
   45.9784   34.9304   43.3427 C   0  0  0  0  0  0  0  0  0  0  0  0
   46.7082   33.8403   43.8352 C   0  0  0  0  0  0  0  0  0  0  0  0
   46.4420   33.3750   45.0907 N   0  0  0  0  0  0  0  0  0  0  0  0
   45.4928   33.9440   45.8618 C   0  0  0  0  0  0  0  0  0  0  0  0
   44.7839   34.9812   45.4194 N   0  0  0  0  0  0  0  0  0  0  0  0
   44.2913   36.5466   43.7071 O   0  0  0  0  0  0  0  0  0  0  0  0
   46.2046   35.2799   42.3522 H   0  0  0  0  0  0  0  0  0  0  0  0
   45.3360   33.5179   46.8541 H   0  0  0  0  0  0  0  0  0  0  0  0
   44.7777   37.2351   43.1450 H   0  0  0  0  0  0  0  0  0  0  0  0
   49.4117   32.7100   44.8204 O   0  0  0  0  0  0  0  0  0  0  0  0
   48.5366   32.1320   43.9168 C   0  0  1  0  0  0  0  0  0  0  0  0
   47.7551   33.1423   43.1020 C   0  0  1  0  0  0  0  0  0  0  0  0
   47.2428   32.3142   42.1083 O   0  0  0  0  0  0  0  0  0  0  0  0
   48.2893   31.5327   41.6631 C   0  0  0  0  0  0  0  0  0  0  0  0
   49.2961   31.4390   42.7793 C   0  0  2  0  0  0  0  0  0  0  0  0
   49.6303   30.1405   43.1074 O   0  0  0  0  0  0  0  0  0  0  0  0
   49.4746   32.1918   45.6823 H   0  0  0  0  0  0  0  0  0  0  0  0
   47.7995   31.4494   44.3541 H   0  0  0  0  0  0  0  0  0  0  0  0
   48.5146   33.7950   42.6164 H   0  0  0  0  0  0  0  0  0  0  0  0
   47.9542   30.5308   41.2929 H   0  0  0  0  0  0  0  0  0  0  0  0
   48.7238   32.0788   40.7752 H   0  0  0  0  0  0  0  0  0  0  0  0
   50.1569   32.0738   42.5158 H   0  0  0  0  0  0  0  0  0  0  0  0
   50.6145   30.0227   43.2033 H   0  0  0  0  0  0  0  0  0  0  0  0
  1  6  2  0
  2  3  2  0
  2  1  1  0
  3  4  1  0
  4  5  2  0
  6  5  1  0
  7  1  1  0
  2  8  1  0
  5  9  1  0
  7 10  1  0
 11 12  1  0
 12 13  1  0
 13 14  1  0
 14 15  1  0
 15 16  1  0
 16 17  1  0
 16 12  1  0
 11 18  1  0
 12 19  1  1
 13 20  1  6
 15 21  1  0
 15 22  1  0
 16 23  1  6
 17 24  1  0
  3 13  1  0
M  ISO  3   8  14   9  14  10   3
M  END
>  <DihAtoms>  (1) 
1,2,12,11

>  <DihDeg>  (1) 
21.352162942984876

$$$$
