
 OpenBabel03252502153D

 24 25  0  0  1  0  0  0  0  0999 V2000
   46.1110   34.8880   43.1840 C   0  0  0  0  0  0  0  0  0  0  0  0
   46.4130   33.9000   44.1270 C   0  0  0  0  0  0  0  0  0  0  0  0
   45.7380   33.9420   45.3560 C   0  0  0  0  0  0  0  0  0  0  0  0
   44.8370   34.9200   45.5810 N   0  0  0  0  0  0  0  0  0  0  0  0
   44.5700   35.8610   44.6410 C   0  0  0  0  0  0  0  0  0  0  0  0
   45.2070   35.8480   43.4390 N   0  0  0  0  0  0  0  0  0  0  0  0
   46.6200   34.8730   42.2320 H   0  0  0  0  0  0  0  0  0  0  0  0
   43.8410   36.6380   44.8460 H   0  0  0  0  0  0  0  0  0  0  0  0
   45.0540   32.7150   47.4240 C   0  0  1  0  0  0  0  0  0  0  0  0
   46.0790   32.8910   46.3200 C   0  0  2  0  0  0  0  0  0  0  0  0
   47.2260   33.1690   47.0590 O   0  0  0  0  0  0  0  0  0  0  0  0
   47.2610   32.0920   47.9620 C   0  0  0  0  0  0  0  0  0  0  0  0
   45.8420   31.8540   48.3920 C   0  0  1  0  0  0  0  0  0  0  0  0
   44.7410   33.9450   47.9670 O   0  0  0  0  0  0  0  0  0  0  0  0
   45.4580   34.5850   47.7200 H   0  0  0  0  0  0  0  0  0  0  0  0
   45.6110   32.2110   49.7140 O   0  0  0  0  0  0  0  0  0  0  0  0
   46.4400   32.4080   50.2120 H   0  0  0  0  0  0  0  0  0  0  0  0
   47.3550   32.9500   43.7820 O   0  0  0  0  0  0  0  0  0  0  0  0
   49.5970   32.1690   42.6540 O   0  0  0  0  0  0  0  0  0  0  0  0
   48.6690   33.3450   42.7440 P   0  0  0  0  0  0  0  0  0  0  0  0
   48.0980   33.6730   41.1870 O   0  0  0  0  0  0  0  0  0  0  0  0
   48.0030   32.7980   40.7250 H   0  0  0  0  0  0  0  0  0  0  0  0
   49.5120   34.6720   43.3340 O   0  0  0  0  0  0  0  0  0  0  0  0
   49.7750   35.2300   42.5610 H   0  0  0  0  0  0  0  0  0  0  0  0
  1  6  2  0  0  0  0
  1  2  1  0  0  0  0
  2  3  2  0  0  0  0
  3  4  1  0  0  0  0
  5  8  1  0  0  0  0
  5  4  2  0  0  0  0
  6  5  1  0  0  0  0
  7  1  1  0  0  0  0
  9 14  1  1  0  0  0
  9 13  1  0  0  0  0
 10  3  1  6  0  0  0
 10 11  1  0  0  0  0
 10  9  1  0  0  0  0
 11 12  1  0  0  0  0
 12 13  1  0  0  0  0
 13 16  1  1  0  0  0
 15 14  1  0  0  0  0
 16 17  1  0  0  0  0
 18  2  1  0  0  0  0
 19 20  2  0  0  0  0
 20 23  1  0  0  0  0
 20 18  1  0  0  0  0
 21 20  1  0  0  0  0
 22 21  1  0  0  0  0
 24 23  1  0  0  0  0
M  END
>  <minimizedAffinity>
-6.07454205

>  <minimizedRMSD>
1.37305629

$$$$
