
 OpenBabel03252507573D

 27 29  0  0  1  0  0  0  0  0999 V2000
   46.4260   32.6490   45.7730 C   0  0  1  0  0  0  0  0  0  0  0  0
   47.1100   32.9700   47.0640 C   0  0  0  0  0  0  0  0  0  0  0  0
   45.6360   32.7640   47.0370 C   0  0  2  0  0  0  0  0  0  0  0  0
   46.5880   31.6790   45.3060 H   0  0  0  0  0  0  0  0  0  0  0  0
   47.5650   33.9840   47.0960 H   0  0  0  0  0  0  0  0  0  0  0  0
   47.7660   32.1650   47.4570 H   0  0  0  0  0  0  0  0  0  0  0  0
   45.0690   33.7170   47.2370 H   0  0  0  0  0  0  0  0  0  0  0  0
   46.6700   34.8560   42.8490 C   0  0  0  0  0  0  0  0  0  0  0  0
   45.5870   35.7570   43.0190 C   0  0  0  0  0  0  0  0  0  0  0  0
   44.7820   35.5730   44.1560 C   0  0  0  0  0  0  0  0  0  0  0  0
   45.0850   34.5570   45.0150 N   0  0  0  0  0  0  0  0  0  0  0  0
   46.1450   33.7330   44.7810 C   0  0  0  0  0  0  0  0  0  0  0  0
   46.9410   33.8570   43.7240 N   0  0  0  0  0  0  0  0  0  0  0  0
   45.3840   36.5410   42.3220 H   0  0  0  0  0  0  0  0  0  0  0  0
   43.9530   36.2190   44.3380 H   0  0  0  0  0  0  0  0  0  0  0  0
   47.4580   35.1010   41.6770 C   0  0  0  0  0  0  0  0  0  0  0  0
   48.5600   35.7330   41.6560 O   0  0  0  0  0  0  0  0  0  0  0  0
   47.1560   34.7480   40.6800 H   0  0  0  0  0  0  0  0  0  0  0  0
   45.4800   30.2440   47.1490 C   0  0  2  0  0  3  0  0  0  0  0  0
   45.0970   31.5680   47.7350 C   0  0  1  0  0  3  0  0  0  0  0  0
   45.5600   31.4360   49.0410 O   0  0  0  0  0  0  0  0  0  0  0  0
   45.1600   30.1910   49.4620 C   0  0  0  0  0  2  0  0  0  0  0  0
   44.9480   29.3150   48.2490 C   0  0  2  0  0  3  0  0  0  0  0  0
   46.8500   30.1530   47.0860 O   0  0  0  0  0  0  0  0  0  0  0  0
   47.2210   29.6780   47.8730 H   0  0  0  0  0  0  0  0  0  0  0  0
   45.7160   28.1660   48.2630 O   0  0  0  0  0  0  0  0  0  0  0  0
   45.0940   27.4130   48.4230 H   0  0  0  0  0  0  0  0  0  0  0  0
  1  4  1  6  0  0  0
  1  3  1  0  0  0  0
  1  2  1  0  0  0  0
  2  5  1  0  0  0  0
  2  6  1  0  0  0  0
  3  2  1  0  0  0  0
  3  7  1  1  0  0  0
  3 20  1  0  0  0  0
  8  9  2  0  0  0  0
  8 13  1  0  0  0  0
  9 10  1  0  0  0  0
 10 15  1  0  0  0  0
 10 11  2  0  0  0  0
 12 11  1  0  0  0  0
 12  1  1  0  0  0  0
 13 12  2  0  0  0  0
 14  9  1  0  0  0  0
 16  8  1  0  0  0  0
 17 16  2  0  0  0  0
 18 16  1  0  0  0  0
 19 24  1  1  0  0  0
 19 20  1  0  0  0  0
 19 23  1  0  0  0  0
 20 21  1  1  0  0  0
 21 22  1  0  0  0  0
 23 26  1  1  0  0  0
 23 22  1  0  0  0  0
 24 25  1  0  0  0  0
 26 27  1  0  0  0  0
M  END
>  <minimizedAffinity>
-4.68580914

>  <minimizedRMSD>
0.750077307

$$$$
