
     RDKit          3D

 43 47  0  0  0  0  0  0  0  0999 V2000
   47.2658   31.3930   45.1507 C   0  0  0  0  0  0  0  0  0  0  0  0
   46.8729   32.7173   45.1378 C   0  0  0  0  0  0  0  0  0  0  0  0
   46.2371   33.3232   46.2041 C   0  0  0  0  0  0  0  0  0  0  0  0
   45.9655   32.6003   47.3541 C   0  0  0  0  0  0  0  0  0  0  0  0
   45.3784   32.8454   48.5614 N   0  0  0  0  0  0  0  0  0  0  0  0
   45.4096   31.7056   49.2943 C   0  0  0  0  0  0  0  0  0  0  0  0
   46.0183   30.7627   48.5299 N   0  0  0  0  0  0  0  0  0  0  0  0
   46.3668   31.2786   47.3455 C   0  0  0  0  0  0  0  0  0  0  0  0
   46.9985   30.6525   46.3030 C   0  0  0  0  0  0  0  0  0  0  0  0
   46.4843   35.1919   42.4346 C   0  0  0  0  0  0  0  0  0  0  0  0
   47.6536   35.0192   41.7015 C   0  0  0  0  0  0  0  0  0  0  0  0
   48.5704   34.0650   42.1247 C   0  0  0  0  0  0  0  0  0  0  0  0
   48.2780   33.3341   43.2518 N   0  0  0  0  0  0  0  0  0  0  0  0
   47.1386   33.5189   43.9461 C   0  0  0  0  0  0  0  0  0  0  0  0
   46.2539   34.4380   43.5396 N   0  0  0  0  0  0  0  0  0  0  0  0
   47.3845   29.2375   46.3964 C   0  0  0  0  0  0  0  0  0  0  0  0
   48.6790   28.7952   46.6131 C   0  0  0  0  0  0  0  0  0  0  0  0
   48.5491   27.4038   46.6236 C   0  0  0  0  0  0  0  0  0  0  0  0
   47.2073   27.0877   46.4163 C   0  0  0  0  0  0  0  0  0  0  0  0
   46.5595   28.2271   46.2873 O   0  0  0  0  0  0  0  0  0  0  0  0
   47.7592   30.9287   44.3189 H   0  0  0  0  0  0  0  0  0  0  0  0
   45.9263   34.3689   46.1955 H   0  0  0  0  0  0  0  0  0  0  0  0
   44.9900   33.7827   48.8115 H   0  0  0  0  0  0  0  0  0  0  0  0
   45.0045   31.6133   50.3122 H   0  0  0  0  0  0  0  0  0  0  0  0
   45.7482   35.9235   42.1368 H   0  0  0  0  0  0  0  0  0  0  0  0
   47.8359   35.6138   40.8294 H   0  0  0  0  0  0  0  0  0  0  0  0
   49.4960   33.8841   41.5982 H   0  0  0  0  0  0  0  0  0  0  0  0
   49.5956   29.3527   46.7471 H   0  0  0  0  0  0  0  0  0  0  0  0
   49.3253   26.6737   46.7640 H   0  0  0  0  0  0  0  0  0  0  0  0
   48.3473   24.6586   47.4769 O   0  0  0  0  0  0  0  0  0  0  0  0
   47.5482   24.6122   46.3189 C   0  0  2  0  0  0  0  0  0  0  0  0
   46.5564   25.7762   46.3417 C   0  0  1  0  0  0  0  0  0  0  0  0
   45.8181   25.4362   47.4734 O   0  0  0  0  0  0  0  0  0  0  0  0
   45.3952   24.1450   47.1534 C   0  0  0  0  0  0  0  0  0  0  0  0
   46.5772   23.4559   46.5104 C   0  0  2  0  0  0  0  0  0  0  0  0
   47.0990   22.4445   47.3079 O   0  0  0  0  0  0  0  0  0  0  0  0
   47.8536   24.2700   48.2527 H   0  0  0  0  0  0  0  0  0  0  0  0
   48.1302   24.5547   45.3992 H   0  0  0  0  0  0  0  0  0  0  0  0
   45.9010   25.6481   45.4721 H   0  0  0  0  0  0  0  0  0  0  0  0
   44.5465   24.1950   46.4315 H   0  0  0  0  0  0  0  0  0  0  0  0
   45.0424   23.5724   48.0272 H   0  0  0  0  0  0  0  0  0  0  0  0
   46.3498   23.0592   45.5073 H   0  0  0  0  0  0  0  0  0  0  0  0
   48.0186   22.2614   46.9873 H   0  0  0  0  0  0  0  0  0  0  0  0
  1  9  2  0
  2  1  1  0
  2  3  2  0
  3  4  1  0
  4  5  1  0
  5  6  1  0
  7  6  2  0
  8  4  2  0
  8  7  1  0
  9 16  1  0
  9  8  1  0
 10 15  2  0
 11 12  2  0
 11 10  1  0
 12 13  1  0
 13 14  2  0
 14  2  1  0
 15 14  1  0
 16 17  2  0
 17 18  1  0
 19 18  2  0
 20 16  1  0
 20 19  1  0
  1 21  1  0
  3 22  1  0
  5 23  1  0
  6 24  1  0
 10 25  1  0
 11 26  1  0
 12 27  1  0
 17 28  1  0
 18 29  1  0
 30 31  1  0
 31 32  1  0
 32 33  1  0
 33 34  1  0
 34 35  1  0
 35 36  1  0
 35 31  1  0
 30 37  1  0
 31 38  1  6
 32 39  1  6
 34 40  1  0
 34 41  1  0
 35 42  1  6
 36 43  1  0
 19 32  1  0
M  ISO  8  21  14  22  14  23   9  24  14  25  14  26  14  27  14  28  14
M  ISO  1  29  14
M  END
>  <DihAtoms>  (1) 
17,18,31,30

>  <DihDeg>  (1) 
111.62909428619847

$$$$
