
 OpenBabel03242520593D

 41 43  0  0  1  0  0  0  0  0999 V2000
   41.6670   31.7320   41.8490 C   0  0  0  0  0  0  0  0  0  0  0  0
   41.3020   32.7460   40.9300 C   0  0  0  0  0  0  0  0  0  0  0  0
   39.9790   32.8370   40.5240 C   0  0  0  0  0  0  0  0  0  0  0  0
   39.1060   31.9490   41.0250 N   0  0  0  0  0  0  0  0  0  0  0  0
   39.4630   30.9920   41.8940 C   0  0  0  0  0  0  0  0  0  0  0  0
   40.7460   30.8750   42.3150 N   0  0  0  0  0  0  0  0  0  0  0  0
   42.6450   31.5410   42.2530 H   0  0  0  0  0  0  0  0  0  0  0  0
   42.4900   34.9590   41.0500 C   0  0  2  0  0  3  0  0  0  0  0  0
   42.4580   33.5920   40.5040 C   0  0  1  0  0  3  0  0  0  0  0  0
   43.6660   32.9950   40.8430 O   0  0  0  0  0  0  0  0  0  0  0  0
   44.3520   33.7190   41.7470 C   0  0  0  0  0  2  0  0  0  0  0  0
   43.7040   35.0430   41.8970 C   0  0  2  0  0  3  0  0  0  0  0  0
   41.3250   35.3620   41.6870 O   0  0  0  0  0  0  0  0  0  0  0  0
   41.5870   35.9340   42.4510 H   0  0  0  0  0  0  0  0  0  0  0  0
   43.4430   35.3940   43.2180 O   0  0  0  0  0  0  0  0  0  0  0  0
   43.8800   34.6850   43.7860 H   0  0  0  0  0  0  0  0  0  0  0  0
   38.4780   30.0290   42.3890 C   0  0  0  0  0  3  0  0  0  0  0  0
   38.8270   28.9690   43.0830 C   0  0  0  0  0  3  0  0  0  0  0  0
   37.8160   28.0050   43.5750 C   0  0  0  0  0  0  0  0  0  0  0  0
   38.3520   27.2940   44.1950 H   0  0  0  0  0  0  0  0  0  0  0  0
   37.1630   28.5870   44.2900 H   0  0  0  0  0  0  0  0  0  0  0  0
   37.5520   26.4690   41.8300 C   0  0  0  0  0  0  0  0  0  0  0  0
   38.6380   25.8510   41.8890 O   0  0  0  0  0  0  0  0  0  0  0  0
   36.9870   27.5090   42.5620 N   0  0  0  0  0  0  0  0  0  0  0  0
   36.0380   27.8350   42.3230 H   0  0  0  0  0  0  0  0  0  0  0  0
   37.0330   27.8960   39.1820 Cl  0  0  0  0  0  0  0  0  0  0  0  0
   36.6110   26.2340   39.4340 C   0  0  0  0  0  0  0  0  0  0  0  0
   36.9280   25.7830   40.6910 C   0  0  0  0  0  0  0  0  0  0  0  0
   36.6530   24.4560   41.0560 C   0  0  0  0  0  0  0  0  0  0  0  0
   36.0560   23.5890   40.1470 C   0  0  0  0  0  0  0  0  0  0  0  0
   35.7430   24.0670   38.8830 C   0  0  0  0  0  0  0  0  0  0  0  0
   34.9930   23.0310   37.6940 Cl  0  0  0  0  0  0  0  0  0  0  0  0
   36.0220   25.3740   38.5420 C   0  0  0  0  0  0  0  0  0  0  0  0
   36.8530   23.9840   42.0020 H   0  0  0  0  0  0  0  0  0  0  0  0
   35.8210   22.5610   40.3690 H   0  0  0  0  0  0  0  0  0  0  0  0
   35.8040   25.8110   37.5740 H   0  0  0  0  0  0  0  0  0  0  0  0
   39.5930   33.7910   39.6530 O   0  0  0  0  0  0  0  0  0  0  0  0
   38.5470   34.6850   40.0730 C   0  0  0  0  0  0  0  0  0  0  0  0
   37.3150   34.1890   39.6400 F   0  0  0  0  0  0  0  0  0  0  0  0
   38.5390   34.6440   41.4650 F   0  0  0  0  0  0  0  0  0  0  0  0
   38.7480   36.0000   39.6710 F   0  0  0  0  0  0  0  0  0  0  0  0
  1  7  1  0  0  0  0
  1  6  1  0  0  0  0
  2  1  2  0  0  0  0
  3  2  1  0  0  0  0
  3  4  2  0  0  0  0
  4  5  1  0  0  0  0
  5  6  2  0  0  0  0
  5 17  1  0  0  0  0
  8 13  1  1  0  0  0
  8 12  1  0  0  0  0
  9 10  1  0  0  0  0
  9  2  1  1  0  0  0
  9  8  1  0  0  0  0
 10 11  1  0  0  0  0
 11 12  1  0  0  0  0
 12 15  1  1  0  0  0
 13 14  1  0  0  0  0
 15 16  1  0  0  0  0
 17 18  2  0  0  0  0
 18 19  1  0  0  0  0
 19 20  1  0  0  0  0
 19 21  1  0  0  0  0
 22 23  2  0  0  0  0
 22 24  1  0  0  0  0
 24 19  1  0  0  0  0
 25 24  1  0  0  0  0
 26 27  1  0  0  0  0
 27 28  1  0  0  0  0
 28 29  2  0  0  0  0
 28 22  1  0  0  0  0
 29 34  1  0  0  0  0
 30 35  1  0  0  0  0
 30 29  1  0  0  0  0
 31 30  2  0  0  0  0
 32 31  1  0  0  0  0
 33 31  1  0  0  0  0
 33 27  2  0  0  0  0
 36 33  1  0  0  0  0
 37 38  1  0  0  0  0
 37  3  1  0  0  0  0
 38 40  1  0  0  0  0
 39 38  1  0  0  0  0
 41 38  1  0  0  0  0
M  END
>  <minimizedAffinity>
-6.89361429

$$$$

 OpenBabel03242520593D

 41 43  0  0  1  0  0  0  0  0999 V2000
   43.2820   32.2880   43.0510 C   0  0  0  0  0  0  0  0  0  0  0  0
   43.2270   33.2200   41.9860 C   0  0  0  0  0  0  0  0  0  0  0  0
   42.1820   33.1380   41.0780 C   0  0  0  0  0  0  0  0  0  0  0  0
   41.2700   32.1700   41.2550 N   0  0  0  0  0  0  0  0  0  0  0  0
   41.3340   31.2910   42.2670 C   0  0  0  0  0  0  0  0  0  0  0  0
   42.3390   31.3420   43.1740 N   0  0  0  0  0  0  0  0  0  0  0  0
   44.0250   32.2290   43.8260 H   0  0  0  0  0  0  0  0  0  0  0  0
   44.0830   35.5140   42.5570 C   0  0  2  0  0  3  0  0  0  0  0  0
   44.3690   34.1840   41.9940 C   0  0  1  0  0  3  0  0  0  0  0  0
   45.4510   33.6720   42.6990 O   0  0  0  0  0  0  0  0  0  0  0  0
   45.7260   34.3960   43.7990 C   0  0  0  0  0  2  0  0  0  0  0  0
   44.9360   35.6500   43.7620 C   0  0  2  0  0  3  0  0  0  0  0  0
   42.7400   35.7790   42.7810 O   0  0  0  0  0  0  0  0  0  0  0  0
   42.6790   36.3240   43.6040 H   0  0  0  0  0  0  0  0  0  0  0  0
   44.2220   35.8980   44.9310 O   0  0  0  0  0  0  0  0  0  0  0  0
   44.5160   35.1960   45.5910 H   0  0  0  0  0  0  0  0  0  0  0  0
   40.3290   30.2340   42.4000 C   0  0  0  0  0  3  0  0  0  0  0  0
   39.0600   30.5010   42.6160 C   0  0  0  0  0  3  0  0  0  0  0  0
   38.0590   29.4180   42.7490 C   0  0  0  0  0  0  0  0  0  0  0  0
   37.7880   29.3830   43.8000 H   0  0  0  0  0  0  0  0  0  0  0  0
   37.1340   29.7920   42.2190 H   0  0  0  0  0  0  0  0  0  0  0  0
   37.6440   27.1360   42.4450 C   0  0  0  0  0  0  0  0  0  0  0  0
   36.6250   26.9820   43.1550 O   0  0  0  0  0  0  0  0  0  0  0  0
   38.4470   28.2280   42.1250 N   0  0  0  0  0  0  0  0  0  0  0  0
   39.2400   28.0960   41.4780 H   0  0  0  0  0  0  0  0  0  0  0  0
   39.8490   25.3390   43.5520 Cl  0  0  0  0  0  0  0  0  0  0  0  0
   38.7490   24.8030   42.3240 C   0  0  0  0  0  0  0  0  0  0  0  0
   37.8340   25.7610   41.9660 C   0  0  0  0  0  0  0  0  0  0  0  0
   36.8700   25.4850   40.9840 C   0  0  0  0  0  0  0  0  0  0  0  0
   36.8360   24.2390   40.3670 C   0  0  0  0  0  0  0  0  0  0  0  0
   37.7710   23.2870   40.7450 C   0  0  0  0  0  0  0  0  0  0  0  0
   37.7840   21.7020   40.0100 Cl  0  0  0  0  0  0  0  0  0  0  0  0
   38.7110   23.5760   41.7120 C   0  0  0  0  0  0  0  0  0  0  0  0
   36.1030   26.1440   40.6180 H   0  0  0  0  0  0  0  0  0  0  0  0
   36.1210   23.9690   39.6080 H   0  0  0  0  0  0  0  0  0  0  0  0
   39.4680   22.8800   42.0530 H   0  0  0  0  0  0  0  0  0  0  0  0
   42.0930   34.0100   40.0530 O   0  0  0  0  0  0  0  0  0  0  0  0
   40.8540   34.7230   39.8970 C   0  0  0  0  0  0  0  0  0  0  0  0
   41.0890   35.9100   39.1990 F   0  0  0  0  0  0  0  0  0  0  0  0
   40.0470   33.9260   39.0890 F   0  0  0  0  0  0  0  0  0  0  0  0
   40.1900   34.9490   41.0980 F   0  0  0  0  0  0  0  0  0  0  0  0
  1  6  1  0  0  0  0
  1  7  1  0  0  0  0
  2  1  2  0  0  0  0
  3  4  2  0  0  0  0
  3  2  1  0  0  0  0
  4  5  1  0  0  0  0
  5 17  1  0  0  0  0
  5  6  2  0  0  0  0
  8 13  1  1  0  0  0
  8 12  1  0  0  0  0
  9  2  1  1  0  0  0
  9  8  1  0  0  0  0
  9 10  1  0  0  0  0
 10 11  1  0  0  0  0
 12 11  1  0  0  0  0
 12 15  1  1  0  0  0
 13 14  1  0  0  0  0
 15 16  1  0  0  0  0
 17 18  2  0  0  0  0
 18 19  1  0  0  0  0
 19 20  1  0  0  0  0
 21 19  1  0  0  0  0
 22 23  2  0  0  0  0
 24 22  1  0  0  0  0
 24 19  1  0  0  0  0
 25 24  1  0  0  0  0
 27 26  1  0  0  0  0
 28 27  1  0  0  0  0
 28 22  1  0  0  0  0
 29 28  2  0  0  0  0
 30 31  2  0  0  0  0
 30 29  1  0  0  0  0
 31 33  1  0  0  0  0
 32 31  1  0  0  0  0
 33 36  1  0  0  0  0
 33 27  2  0  0  0  0
 34 29  1  0  0  0  0
 35 30  1  0  0  0  0
 37  3  1  0  0  0  0
 38 37  1  0  0  0  0
 38 41  1  0  0  0  0
 39 38  1  0  0  0  0
 40 38  1  0  0  0  0
M  END
>  <minimizedAffinity>
-6.84982443

$$$$

 OpenBabel03242520593D

 41 43  0  0  1  0  0  0  0  0999 V2000
   43.3200   32.5400   42.7120 C   0  0  0  0  0  0  0  0  0  0  0  0
   43.1910   33.6160   41.8000 C   0  0  0  0  0  0  0  0  0  0  0  0
   42.1020   33.6390   40.9420 C   0  0  0  0  0  0  0  0  0  0  0  0
   41.2200   32.6300   41.0180 N   0  0  0  0  0  0  0  0  0  0  0  0
   41.3540   31.6150   41.8850 C   0  0  0  0  0  0  0  0  0  0  0  0
   42.4030   31.5610   42.7400 N   0  0  0  0  0  0  0  0  0  0  0  0
   44.1020   32.3890   43.4340 H   0  0  0  0  0  0  0  0  0  0  0  0
   44.0230   35.8330   42.6450 C   0  0  2  0  0  3  0  0  0  0  0  0
   44.3110   34.6000   41.8950 C   0  0  1  0  0  3  0  0  0  0  0  0
   45.4330   34.0250   42.4810 O   0  0  0  0  0  0  0  0  0  0  0  0
   45.7390   34.6000   43.6590 C   0  0  0  0  0  2  0  0  0  0  0  0
   44.9220   35.8270   43.8240 C   0  0  2  0  0  3  0  0  0  0  0  0
   42.6850   36.0300   42.9560 O   0  0  0  0  0  0  0  0  0  0  0  0
   42.6470   36.4570   43.8470 H   0  0  0  0  0  0  0  0  0  0  0  0
   44.2530   35.8960   45.0420 O   0  0  0  0  0  0  0  0  0  0  0  0
   44.5890   35.1190   45.5890 H   0  0  0  0  0  0  0  0  0  0  0  0
   40.3790   30.5220   41.9090 C   0  0  0  0  0  3  0  0  0  0  0  0
   39.3350   30.5370   42.7070 C   0  0  0  0  0  3  0  0  0  0  0  0
   38.3610   29.4220   42.7190 C   0  0  0  0  0  0  0  0  0  0  0  0
   38.7780   28.6610   43.3710 H   0  0  0  0  0  0  0  0  0  0  0  0
   37.4540   29.8150   43.2670 H   0  0  0  0  0  0  0  0  0  0  0  0
   36.8970   29.8110   40.9360 C   0  0  0  0  0  0  0  0  0  0  0  0
   36.2550   30.7960   41.3640 O   0  0  0  0  0  0  0  0  0  0  0  0
   37.9420   29.0410   41.4390 N   0  0  0  0  0  0  0  0  0  0  0  0
   38.3230   28.2740   40.8650 H   0  0  0  0  0  0  0  0  0  0  0  0
   38.3230   30.4020   38.3030 Cl  0  0  0  0  0  0  0  0  0  0  0  0
   36.6900   29.8230   38.3600 C   0  0  0  0  0  0  0  0  0  0  0  0
   36.2350   29.6190   39.6390 C   0  0  0  0  0  0  0  0  0  0  0  0
   34.9320   29.1490   39.8590 C   0  0  0  0  0  0  0  0  0  0  0  0
   34.0910   28.8860   38.7830 C   0  0  0  0  0  0  0  0  0  0  0  0
   34.5710   29.1000   37.5000 C   0  0  0  0  0  0  0  0  0  0  0  0
   33.5680   28.7900   36.1040 Cl  0  0  0  0  0  0  0  0  0  0  0  0
   35.8560   29.5630   37.3020 C   0  0  0  0  0  0  0  0  0  0  0  0
   34.4610   28.9490   40.8050 H   0  0  0  0  0  0  0  0  0  0  0  0
   33.0810   28.5240   38.8890 H   0  0  0  0  0  0  0  0  0  0  0  0
   36.2930   29.7510   36.3290 H   0  0  0  0  0  0  0  0  0  0  0  0
   41.9430   34.6480   40.0620 O   0  0  0  0  0  0  0  0  0  0  0  0
   42.1030   34.3410   38.6660 C   0  0  0  0  0  0  0  0  0  0  0  0
   43.1230   33.3990   38.5150 F   0  0  0  0  0  0  0  0  0  0  0  0
   40.9170   33.7270   38.2670 F   0  0  0  0  0  0  0  0  0  0  0  0
   42.3080   35.4630   37.8720 F   0  0  0  0  0  0  0  0  0  0  0  0
  1  6  1  0  0  0  0
  1  7  1  0  0  0  0
  2  1  2  0  0  0  0
  3  4  2  0  0  0  0
  3  2  1  0  0  0  0
  4  5  1  0  0  0  0
  5 17  1  0  0  0  0
  5  6  2  0  0  0  0
  8 13  1  1  0  0  0
  8 12  1  0  0  0  0
  9  2  1  1  0  0  0
  9 10  1  0  0  0  0
  9  8  1  0  0  0  0
 10 11  1  0  0  0  0
 11 12  1  0  0  0  0
 12 15  1  1  0  0  0
 13 14  1  0  0  0  0
 15 16  1  0  0  0  0
 17 18  2  0  0  0  0
 18 19  1  0  0  0  0
 19 21  1  0  0  0  0
 19 20  1  0  0  0  0
 22 23  2  0  0  0  0
 22 24  1  0  0  0  0
 24 19  1  0  0  0  0
 25 24  1  0  0  0  0
 26 27  1  0  0  0  0
 27 28  1  0  0  0  0
 28 29  2  0  0  0  0
 28 22  1  0  0  0  0
 29 34  1  0  0  0  0
 30 35  1  0  0  0  0
 30 29  1  0  0  0  0
 31 30  2  0  0  0  0
 32 31  1  0  0  0  0
 33 31  1  0  0  0  0
 33 27  2  0  0  0  0
 36 33  1  0  0  0  0
 37  3  1  0  0  0  0
 38 37  1  0  0  0  0
 39 38  1  0  0  0  0
 40 38  1  0  0  0  0
 41 38  1  0  0  0  0
M  END
>  <minimizedAffinity>
-6.72339678

$$$$

 OpenBabel03242520593D

 41 43  0  0  1  0  0  0  0  0999 V2000
   42.3400   32.0900   41.5660 C   0  0  0  0  0  0  0  0  0  0  0  0
   41.6390   32.9630   40.6990 C   0  0  0  0  0  0  0  0  0  0  0  0
   40.3060   32.7020   40.4200 C   0  0  0  0  0  0  0  0  0  0  0  0
   39.7450   31.6240   40.9900 N   0  0  0  0  0  0  0  0  0  0  0  0
   40.4190   30.8030   41.8090 C   0  0  0  0  0  0  0  0  0  0  0  0
   41.7220   31.0280   42.1050 N   0  0  0  0  0  0  0  0  0  0  0  0
   43.3680   32.1640   41.8730 H   0  0  0  0  0  0  0  0  0  0  0  0
   43.2430   33.7850   38.9470 C   0  0  2  0  0  3  0  0  0  0  0  0
   42.4900   34.0750   40.1780 C   0  0  1  0  0  3  0  0  0  0  0  0
   41.7290   35.2110   39.9260 O   0  0  0  0  0  0  0  0  0  0  0  0
   41.7120   35.5290   38.6190 C   0  0  0  0  0  2  0  0  0  0  0  0
   42.7160   34.7030   37.9080 C   0  0  2  0  0  3  0  0  0  0  0  0
   43.2570   32.4500   38.5690 O   0  0  0  0  0  0  0  0  0  0  0  0
   43.2320   32.4210   37.5810 H   0  0  0  0  0  0  0  0  0  0  0  0
   42.2140   34.0510   36.7850 O   0  0  0  0  0  0  0  0  0  0  0  0
   41.2790   34.4020   36.6540 H   0  0  0  0  0  0  0  0  0  0  0  0
   39.7690   29.6230   42.3820 C   0  0  0  0  0  3  0  0  0  0  0  0
   38.5390   29.6600   42.8440 C   0  0  0  0  0  3  0  0  0  0  0  0
   37.8990   28.4560   43.4220 C   0  0  0  0  0  0  0  0  0  0  0  0
   38.3020   28.3490   44.4230 H   0  0  0  0  0  0  0  0  0  0  0  0
   36.8120   28.7300   43.5690 H   0  0  0  0  0  0  0  0  0  0  0  0
   36.9650   27.3670   41.5740 C   0  0  0  0  0  0  0  0  0  0  0  0
   36.0670   28.1750   41.2480 O   0  0  0  0  0  0  0  0  0  0  0  0
   37.9380   27.3470   42.5700 N   0  0  0  0  0  0  0  0  0  0  0  0
   38.5940   26.5530   42.6150 H   0  0  0  0  0  0  0  0  0  0  0  0
   37.0270   24.4010   42.2910 Cl  0  0  0  0  0  0  0  0  0  0  0  0
   36.7370   24.9540   40.6750 C   0  0  0  0  0  0  0  0  0  0  0  0
   36.7480   26.3230   40.5640 C   0  0  0  0  0  0  0  0  0  0  0  0
   36.5260   26.9330   39.3200 C   0  0  0  0  0  0  0  0  0  0  0  0
   36.2930   26.1560   38.1900 C   0  0  0  0  0  0  0  0  0  0  0  0
   36.2870   24.7760   38.3260 C   0  0  0  0  0  0  0  0  0  0  0  0
   36.0010   23.7410   36.9480 Cl  0  0  0  0  0  0  0  0  0  0  0  0
   36.5070   24.1930   39.5570 C   0  0  0  0  0  0  0  0  0  0  0  0
   36.5090   27.9860   39.1040 H   0  0  0  0  0  0  0  0  0  0  0  0
   36.1170   26.5660   37.2100 H   0  0  0  0  0  0  0  0  0  0  0  0
   36.5150   23.1240   39.7320 H   0  0  0  0  0  0  0  0  0  0  0  0
   39.6040   33.5120   39.6030 O   0  0  0  0  0  0  0  0  0  0  0  0
   38.5050   34.2400   40.1780 C   0  0  0  0  0  0  0  0  0  0  0  0
   38.7490   34.4470   41.5380 F   0  0  0  0  0  0  0  0  0  0  0  0
   38.5080   35.4920   39.5660 F   0  0  0  0  0  0  0  0  0  0  0  0
   37.2690   33.6440   39.9570 F   0  0  0  0  0  0  0  0  0  0  0  0
  1  7  1  0  0  0  0
  1  6  1  0  0  0  0
  2  1  2  0  0  0  0
  3  2  1  0  0  0  0
  3  4  2  0  0  0  0
  4  5  1  0  0  0  0
  5  6  2  0  0  0  0
  5 17  1  0  0  0  0
  8 13  1  6  0  0  0
  8  9  1  0  0  0  0
  9  2  1  6  0  0  0
 10  9  1  0  0  0  0
 11 10  1  0  0  0  0
 12 15  1  6  0  0  0
 12 11  1  0  0  0  0
 12  8  1  0  0  0  0
 14 13  1  0  0  0  0
 16 15  1  0  0  0  0
 17 18  2  0  0  0  0
 18 19  1  0  0  0  0
 19 21  1  0  0  0  0
 19 20  1  0  0  0  0
 22 24  1  0  0  0  0
 23 22  2  0  0  0  0
 24 25  1  0  0  0  0
 24 19  1  0  0  0  0
 27 26  1  0  0  0  0
 28 27  1  0  0  0  0
 28 22  1  0  0  0  0
 29 28  2  0  0  0  0
 30 31  2  0  0  0  0
 30 29  1  0  0  0  0
 31 33  1  0  0  0  0
 32 31  1  0  0  0  0
 33 36  1  0  0  0  0
 33 27  2  0  0  0  0
 34 29  1  0  0  0  0
 35 30  1  0  0  0  0
 37 38  1  0  0  0  0
 37  3  1  0  0  0  0
 38 39  1  0  0  0  0
 40 38  1  0  0  0  0
 41 38  1  0  0  0  0
M  END
>  <minimizedAffinity>
-6.61824417

$$$$

 OpenBabel03242520593D

 41 43  0  0  1  0  0  0  0  0999 V2000
   38.5860   26.1570   39.9070 C   0  0  0  0  0  0  0  0  0  0  0  0
   37.6980   26.1480   41.0110 C   0  0  0  0  0  0  0  0  0  0  0  0
   37.3600   27.3530   41.6070 C   0  0  0  0  0  0  0  0  0  0  0  0
   37.8980   28.4760   41.1060 N   0  0  0  0  0  0  0  0  0  0  0  0
   38.7390   28.4720   40.0610 C   0  0  0  0  0  0  0  0  0  0  0  0
   39.0910   27.3140   39.4520 N   0  0  0  0  0  0  0  0  0  0  0  0
   38.9360   25.3090   39.3460 H   0  0  0  0  0  0  0  0  0  0  0  0
   36.3780   24.0890   40.4280 C   0  0  2  0  0  3  0  0  0  0  0  0
   37.2550   24.7730   41.3920 C   0  0  1  0  0  3  0  0  0  0  0  0
   38.3440   23.9380   41.6080 O   0  0  0  0  0  0  0  0  0  0  0  0
   38.3950   22.9320   40.7160 C   0  0  0  0  0  2  0  0  0  0  0  0
   37.1280   22.9040   39.9470 C   0  0  2  0  0  3  0  0  0  0  0  0
   35.8830   24.8950   39.4130 O   0  0  0  0  0  0  0  0  0  0  0  0
   35.8390   24.3450   38.5920 H   0  0  0  0  0  0  0  0  0  0  0  0
   37.3090   22.8750   38.5680 O   0  0  0  0  0  0  0  0  0  0  0  0
   38.2990   22.7590   38.4190 H   0  0  0  0  0  0  0  0  0  0  0  0
   39.3230   29.7210   39.5700 C   0  0  0  0  0  3  0  0  0  0  0  0
   38.6180   30.6030   38.8970 C   0  0  0  0  0  3  0  0  0  0  0  0
   39.2260   31.8610   38.4060 C   0  0  0  0  0  0  0  0  0  0  0  0
   39.9720   31.5710   37.6740 H   0  0  0  0  0  0  0  0  0  0  0  0
   38.4160   32.3800   37.8130 H   0  0  0  0  0  0  0  0  0  0  0  0
   40.9410   33.1280   39.3690 C   0  0  0  0  0  0  0  0  0  0  0  0
   41.8790   32.9060   38.5720 O   0  0  0  0  0  0  0  0  0  0  0  0
   39.6090   32.7270   39.4360 N   0  0  0  0  0  0  0  0  0  0  0  0
   39.0170   33.0770   40.2040 H   0  0  0  0  0  0  0  0  0  0  0  0
   40.1030   36.0350   39.7710 Cl  0  0  0  0  0  0  0  0  0  0  0  0
   41.4090   35.3190   40.6580 C   0  0  0  0  0  0  0  0  0  0  0  0
   41.6240   34.0030   40.3310 C   0  0  0  0  0  0  0  0  0  0  0  0
   42.6440   33.2760   40.9620 C   0  0  0  0  0  0  0  0  0  0  0  0
   43.4460   33.8830   41.9230 C   0  0  0  0  0  0  0  0  0  0  0  0
   43.2110   35.2130   42.2360 C   0  0  0  0  0  0  0  0  0  0  0  0
   44.1800   36.0360   43.4340 Cl  0  0  0  0  0  0  0  0  0  0  0  0
   42.2020   35.9130   41.6070 C   0  0  0  0  0  0  0  0  0  0  0  0
   42.9120   32.2470   40.7960 H   0  0  0  0  0  0  0  0  0  0  0  0
   44.2440   33.3770   42.4400 H   0  0  0  0  0  0  0  0  0  0  0  0
   41.9650   36.9510   41.8040 H   0  0  0  0  0  0  0  0  0  0  0  0
   36.5140   27.3860   42.6570 O   0  0  0  0  0  0  0  0  0  0  0  0
   37.0520   27.7970   43.9260 C   0  0  0  0  0  0  0  0  0  0  0  0
   38.2620   27.1370   44.1520 F   0  0  0  0  0  0  0  0  0  0  0  0
   37.3420   29.1540   43.8020 F   0  0  0  0  0  0  0  0  0  0  0  0
   36.1640   27.6310   44.9840 F   0  0  0  0  0  0  0  0  0  0  0  0
  1  2  1  0  0  0  0
  2  3  2  0  0  0  0
  3 37  1  0  0  0  0
  4  3  1  0  0  0  0
  5  4  2  0  0  0  0
  6  1  2  0  0  0  0
  6  5  1  0  0  0  0
  7  1  1  0  0  0  0
  8 13  1  6  0  0  0
  8  9  1  0  0  0  0
  9  2  1  6  0  0  0
  9 10  1  0  0  0  0
 11 10  1  0  0  0  0
 12 15  1  6  0  0  0
 12  8  1  0  0  0  0
 12 11  1  0  0  0  0
 14 13  1  0  0  0  0
 16 15  1  0  0  0  0
 17  5  1  0  0  0  0
 18 17  2  0  0  0  0
 19 18  1  0  0  0  0
 19 24  1  0  0  0  0
 20 19  1  0  0  0  0
 21 19  1  0  0  0  0
 22 24  1  0  0  0  0
 22 28  1  0  0  0  0
 23 22  2  0  0  0  0
 24 25  1  0  0  0  0
 26 27  1  0  0  0  0
 27 33  1  0  0  0  0
 28 27  2  0  0  0  0
 28 29  1  0  0  0  0
 29 30  2  0  0  0  0
 30 31  1  0  0  0  0
 30 35  1  0  0  0  0
 31 32  1  0  0  0  0
 33 36  1  0  0  0  0
 33 31  2  0  0  0  0
 34 29  1  0  0  0  0
 37 38  1  0  0  0  0
 38 39  1  0  0  0  0
 38 41  1  0  0  0  0
 40 38  1  0  0  0  0
M  END
>  <minimizedAffinity>
-6.53608322

$$$$

 OpenBabel03242520593D

 41 43  0  0  1  0  0  0  0  0999 V2000
   40.3440   31.8900   41.3580 C   0  0  0  0  0  0  0  0  0  0  0  0
   39.7740   32.4520   40.1900 C   0  0  0  0  0  0  0  0  0  0  0  0
   38.5490   31.9770   39.7480 C   0  0  0  0  0  0  0  0  0  0  0  0
   37.9620   30.9990   40.4550 N   0  0  0  0  0  0  0  0  0  0  0  0
   38.5120   30.4730   41.5590 C   0  0  0  0  0  0  0  0  0  0  0  0
   39.7070   30.9140   42.0220 N   0  0  0  0  0  0  0  0  0  0  0  0
   41.2790   32.1550   41.8190 H   0  0  0  0  0  0  0  0  0  0  0  0
   40.2210   34.8990   39.8270 C   0  0  2  0  0  3  0  0  0  0  0  0
   40.6320   33.5090   39.5720 C   0  0  1  0  0  3  0  0  0  0  0  0
   41.9500   33.3940   39.9960 O   0  0  0  0  0  0  0  0  0  0  0  0
   42.3450   34.4600   40.7160 C   0  0  0  0  0  2  0  0  0  0  0  0
   41.3170   35.5220   40.6090 C   0  0  2  0  0  3  0  0  0  0  0  0
   38.9650   35.0440   40.3980 O   0  0  0  0  0  0  0  0  0  0  0  0
   39.0090   35.8100   41.0220 H   0  0  0  0  0  0  0  0  0  0  0  0
   40.9090   36.0340   41.8370 O   0  0  0  0  0  0  0  0  0  0  0  0
   41.5190   35.6240   42.5270 H   0  0  0  0  0  0  0  0  0  0  0  0
   37.8450   29.3870   42.2790 C   0  0  0  0  0  3  0  0  0  0  0  0
   38.4920   28.6010   43.1110 C   0  0  0  0  0  3  0  0  0  0  0  0
   37.8010   27.5060   43.8300 C   0  0  0  0  0  0  0  0  0  0  0  0
   38.5400   27.0620   44.4880 H   0  0  0  0  0  0  0  0  0  0  0  0
   37.0610   28.0130   44.5170 H   0  0  0  0  0  0  0  0  0  0  0  0
   37.8650   25.9520   42.0830 C   0  0  0  0  0  0  0  0  0  0  0  0
   39.0960   25.8770   41.8730 O   0  0  0  0  0  0  0  0  0  0  0  0
   37.0750   26.6620   42.9830 N   0  0  0  0  0  0  0  0  0  0  0  0
   36.0520   26.5290   42.9690 H   0  0  0  0  0  0  0  0  0  0  0  0
   36.3200   26.9270   39.6370 Cl  0  0  0  0  0  0  0  0  0  0  0  0
   36.6690   25.2500   39.9010 C   0  0  0  0  0  0  0  0  0  0  0  0
   37.3730   25.0220   41.0570 C   0  0  0  0  0  0  0  0  0  0  0  0
   37.7380   23.7160   41.4170 C   0  0  0  0  0  0  0  0  0  0  0  0
   37.3880   22.6420   40.6050 C   0  0  0  0  0  0  0  0  0  0  0  0
   36.6760   22.8960   39.4420 C   0  0  0  0  0  0  0  0  0  0  0  0
   36.2050   21.5940   38.3770 Cl  0  0  0  0  0  0  0  0  0  0  0  0
   36.3260   24.1870   39.1040 C   0  0  0  0  0  0  0  0  0  0  0  0
   38.2860   23.4080   42.2890 H   0  0  0  0  0  0  0  0  0  0  0  0
   37.6390   21.6190   40.8280 H   0  0  0  0  0  0  0  0  0  0  0  0
   35.7720   24.4550   38.2120 H   0  0  0  0  0  0  0  0  0  0  0  0
   37.9730   32.4890   38.6420 O   0  0  0  0  0  0  0  0  0  0  0  0
   37.7300   31.5900   37.5450 C   0  0  0  0  0  0  0  0  0  0  0  0
   37.6660   32.3190   36.3560 F   0  0  0  0  0  0  0  0  0  0  0  0
   38.8520   30.7690   37.4630 F   0  0  0  0  0  0  0  0  0  0  0  0
   36.6080   30.7890   37.7250 F   0  0  0  0  0  0  0  0  0  0  0  0
  1  7  1  0  0  0  0
  1  6  1  0  0  0  0
  2  1  2  0  0  0  0
  3  2  1  0  0  0  0
  3  4  2  0  0  0  0
  4  5  1  0  0  0  0
  5  6  2  0  0  0  0
  5 17  1  0  0  0  0
  8 13  1  1  0  0  0
  8 12  1  0  0  0  0
  9  8  1  0  0  0  0
  9 10  1  0  0  0  0
  9  2  1  1  0  0  0
 10 11  1  0  0  0  0
 12 11  1  0  0  0  0
 12 15  1  1  0  0  0
 13 14  1  0  0  0  0
 15 16  1  0  0  0  0
 17 18  2  0  0  0  0
 18 19  1  0  0  0  0
 19 20  1  0  0  0  0
 19 21  1  0  0  0  0
 22 24  1  0  0  0  0
 23 22  2  0  0  0  0
 24 19  1  0  0  0  0
 25 24  1  0  0  0  0
 26 27  1  0  0  0  0
 27 28  1  0  0  0  0
 28 29  2  0  0  0  0
 28 22  1  0  0  0  0
 29 34  1  0  0  0  0
 30 35  1  0  0  0  0
 30 29  1  0  0  0  0
 31 30  2  0  0  0  0
 32 31  1  0  0  0  0
 33 31  1  0  0  0  0
 33 27  2  0  0  0  0
 36 33  1  0  0  0  0
 37  3  1  0  0  0  0
 38 41  1  0  0  0  0
 38 37  1  0  0  0  0
 39 38  1  0  0  0  0
 40 38  1  0  0  0  0
M  END
>  <minimizedAffinity>
-6.50442934

$$$$

 OpenBabel03242520593D

 41 43  0  0  1  0  0  0  0  0999 V2000
   42.2060   30.6460   40.4820 C   0  0  0  0  0  0  0  0  0  0  0  0
   42.1430   31.8570   39.7500 C   0  0  0  0  0  0  0  0  0  0  0  0
   40.9370   32.5380   39.6840 C   0  0  0  0  0  0  0  0  0  0  0  0
   39.8810   32.0080   40.3220 N   0  0  0  0  0  0  0  0  0  0  0  0
   39.9520   30.8590   41.0110 C   0  0  0  0  0  0  0  0  0  0  0  0
   41.1140   30.1680   41.0980 N   0  0  0  0  0  0  0  0  0  0  0  0
   43.0640   30.0140   40.6220 H   0  0  0  0  0  0  0  0  0  0  0  0
   43.4240   32.3810   37.6510 C   0  0  2  0  0  3  0  0  0  0  0  0
   43.4450   32.2230   39.1150 C   0  0  1  0  0  3  0  0  0  0  0  0
   43.9420   33.4090   39.6400 O   0  0  0  0  0  0  0  0  0  0  0  0
   44.0000   34.3870   38.7170 C   0  0  0  0  0  2  0  0  0  0  0  0
   43.7470   33.8020   37.3790 C   0  0  2  0  0  3  0  0  0  0  0  0
   42.2660   31.9350   37.0300 O   0  0  0  0  0  0  0  0  0  0  0  0
   42.0800   32.5450   36.2750 H   0  0  0  0  0  0  0  0  0  0  0  0
   42.7670   34.4710   36.6500 O   0  0  0  0  0  0  0  0  0  0  0  0
   42.5380   35.2950   37.1840 H   0  0  0  0  0  0  0  0  0  0  0  0
   38.7630   30.3080   41.6640 C   0  0  0  0  0  3  0  0  0  0  0  0
   38.8440   29.5730   42.7510 C   0  0  0  0  0  3  0  0  0  0  0  0
   37.6300   29.0220   43.3980 C   0  0  0  0  0  0  0  0  0  0  0  0
   37.9570   28.5940   44.3400 H   0  0  0  0  0  0  0  0  0  0  0  0
   37.0040   29.9190   43.6830 H   0  0  0  0  0  0  0  0  0  0  0  0
   37.5440   27.1390   42.0130 C   0  0  0  0  0  0  0  0  0  0  0  0
   38.7020   26.6850   42.1540 O   0  0  0  0  0  0  0  0  0  0  0  0
   36.8590   28.2300   42.5410 N   0  0  0  0  0  0  0  0  0  0  0  0
   35.8730   28.3790   42.2780 H   0  0  0  0  0  0  0  0  0  0  0  0
   36.7870   27.9180   39.1610 Cl  0  0  0  0  0  0  0  0  0  0  0  0
   36.6000   26.3010   39.7580 C   0  0  0  0  0  0  0  0  0  0  0  0
   36.9990   26.1600   41.0640 C   0  0  0  0  0  0  0  0  0  0  0  0
   36.9150   24.9110   41.6970 C   0  0  0  0  0  0  0  0  0  0  0  0
   36.4260   23.8070   41.0060 C   0  0  0  0  0  0  0  0  0  0  0  0
   36.0270   23.9740   39.6890 C   0  0  0  0  0  0  0  0  0  0  0  0
   35.4040   22.6290   38.7640 Cl  0  0  0  0  0  0  0  0  0  0  0  0
   36.1180   25.2090   39.0810 C   0  0  0  0  0  0  0  0  0  0  0  0
   37.1940   24.6710   42.7080 H   0  0  0  0  0  0  0  0  0  0  0  0
   36.3370   22.8240   41.4390 H   0  0  0  0  0  0  0  0  0  0  0  0
   35.8250   25.4080   38.0580 H   0  0  0  0  0  0  0  0  0  0  0  0
   40.8390   33.6950   39.0010 O   0  0  0  0  0  0  0  0  0  0  0  0
   40.5610   34.8880   39.7560 C   0  0  0  0  0  0  0  0  0  0  0  0
   41.2400   34.8310   40.9750 F   0  0  0  0  0  0  0  0  0  0  0  0
   41.1110   35.9420   39.0300 F   0  0  0  0  0  0  0  0  0  0  0  0
   39.2030   35.1310   39.9280 F   0  0  0  0  0  0  0  0  0  0  0  0
  1  7  1  0  0  0  0
  1  6  1  0  0  0  0
  2  1  2  0  0  0  0
  3  2  1  0  0  0  0
  3  4  2  0  0  0  0
  4  5  1  0  0  0  0
  5  6  2  0  0  0  0
  5 17  1  0  0  0  0
  8 13  1  1  0  0  0
  8  9  1  0  0  0  0
  9 10  1  0  0  0  0
  9  2  1  1  0  0  0
 11 10  1  0  0  0  0
 12 15  1  1  0  0  0
 12  8  1  0  0  0  0
 12 11  1  0  0  0  0
 14 13  1  0  0  0  0
 15 16  1  0  0  0  0
 17 18  2  0  0  0  0
 18 19  1  0  0  0  0
 19 21  1  0  0  0  0
 19 20  1  0  0  0  0
 22 23  2  0  0  0  0
 22 24  1  0  0  0  0
 24 19  1  0  0  0  0
 25 24  1  0  0  0  0
 26 27  1  0  0  0  0
 27 28  1  0  0  0  0
 28 29  2  0  0  0  0
 28 22  1  0  0  0  0
 29 34  1  0  0  0  0
 30 35  1  0  0  0  0
 30 29  1  0  0  0  0
 31 30  2  0  0  0  0
 32 31  1  0  0  0  0
 33 31  1  0  0  0  0
 33 27  2  0  0  0  0
 36 33  1  0  0  0  0
 37  3  1  0  0  0  0
 37 38  1  0  0  0  0
 38 41  1  0  0  0  0
 38 39  1  0  0  0  0
 40 38  1  0  0  0  0
M  END
>  <minimizedAffinity>
-6.49828625

$$$$

 OpenBabel03242520593D

 41 43  0  0  1  0  0  0  0  0999 V2000
   37.7280   32.3470   39.9610 C   0  0  0  0  0  0  0  0  0  0  0  0
   39.0130   32.8220   40.3200 C   0  0  0  0  0  0  0  0  0  0  0  0
   39.7510   32.1160   41.2570 C   0  0  0  0  0  0  0  0  0  0  0  0
   39.2040   31.0080   41.7830 N   0  0  0  0  0  0  0  0  0  0  0  0
   37.9850   30.5680   41.4360 C   0  0  0  0  0  0  0  0  0  0  0  0
   37.2360   31.2320   40.5230 N   0  0  0  0  0  0  0  0  0  0  0  0
   37.0460   32.7840   39.2540 H   0  0  0  0  0  0  0  0  0  0  0  0
   39.5110   35.2830   40.4580 C   0  0  2  0  0  3  0  0  0  0  0  0
   39.3860   34.0850   39.6120 C   0  0  1  0  0  3  0  0  0  0  0  0
   40.5920   33.9410   38.9370 O   0  0  0  0  0  0  0  0  0  0  0  0
   41.5500   34.7450   39.4350 C   0  0  0  0  0  2  0  0  0  0  0  0
   40.9310   35.7030   40.3830 C   0  0  2  0  0  3  0  0  0  0  0  0
   39.0320   35.1390   41.7530 O   0  0  0  0  0  0  0  0  0  0  0  0
   39.6220   35.6630   42.3480 H   0  0  0  0  0  0  0  0  0  0  0  0
   41.5670   35.7580   41.6190 O   0  0  0  0  0  0  0  0  0  0  0  0
   42.3990   35.1960   41.5300 H   0  0  0  0  0  0  0  0  0  0  0  0
   37.4200   29.3700   42.0610 C   0  0  0  0  0  3  0  0  0  0  0  0
   37.9190   28.8580   43.1640 C   0  0  0  0  0  3  0  0  0  0  0  0
   37.3350   27.6450   43.7810 C   0  0  0  0  0  0  0  0  0  0  0  0
   38.0930   27.2490   44.4490 H   0  0  0  0  0  0  0  0  0  0  0  0
   36.5090   28.0150   44.4570 H   0  0  0  0  0  0  0  0  0  0  0  0
   37.6770   26.0170   42.1360 C   0  0  0  0  0  0  0  0  0  0  0  0
   38.9230   25.9130   42.1570 O   0  0  0  0  0  0  0  0  0  0  0  0
   36.7540   26.7770   42.8490 N   0  0  0  0  0  0  0  0  0  0  0  0
   35.7480   26.6600   42.6550 H   0  0  0  0  0  0  0  0  0  0  0  0
   36.2790   26.8660   39.5590 Cl  0  0  0  0  0  0  0  0  0  0  0  0
   36.7420   25.2230   39.8610 C   0  0  0  0  0  0  0  0  0  0  0  0
   37.3580   25.0520   41.0750 C   0  0  0  0  0  0  0  0  0  0  0  0
   37.7970   23.7790   41.4720 C   0  0  0  0  0  0  0  0  0  0  0  0
   37.6110   22.6830   40.6370 C   0  0  0  0  0  0  0  0  0  0  0  0
   36.9850   22.8790   39.4150 C   0  0  0  0  0  0  0  0  0  0  0  0
   36.7210   21.5460   38.3190 Cl  0  0  0  0  0  0  0  0  0  0  0  0
   36.5600   24.1380   39.0410 C   0  0  0  0  0  0  0  0  0  0  0  0
   38.2900   23.5160   42.3910 H   0  0  0  0  0  0  0  0  0  0  0  0
   37.9260   21.6830   40.8860 H   0  0  0  0  0  0  0  0  0  0  0  0
   36.0660   24.3600   38.1030 H   0  0  0  0  0  0  0  0  0  0  0  0
   40.9790   32.5350   41.6210 O   0  0  0  0  0  0  0  0  0  0  0  0
   42.0910   31.6800   41.3020 C   0  0  0  0  0  0  0  0  0  0  0  0
   41.9290   31.1730   40.0110 F   0  0  0  0  0  0  0  0  0  0  0  0
   43.2170   32.5010   41.2810 F   0  0  0  0  0  0  0  0  0  0  0  0
   42.2990   30.6700   42.2350 F   0  0  0  0  0  0  0  0  0  0  0  0
  1  2  2  0  0  0  0
  1  6  1  0  0  0  0
  2  3  1  0  0  0  0
  3 37  1  0  0  0  0
  3  4  2  0  0  0  0
  5  4  1  0  0  0  0
  5 17  1  0  0  0  0
  6  5  2  0  0  0  0
  7  1  1  0  0  0  0
  8 13  1  1  0  0  0
  9  2  1  1  0  0  0
  9  8  1  0  0  0  0
 10 11  1  0  0  0  0
 10  9  1  0  0  0  0
 11 12  1  0  0  0  0
 12  8  1  0  0  0  0
 12 15  1  1  0  0  0
 13 14  1  0  0  0  0
 16 15  1  0  0  0  0
 17 18  2  0  0  0  0
 18 19  1  0  0  0  0
 19 20  1  0  0  0  0
 19 21  1  0  0  0  0
 22 23  2  0  0  0  0
 22 24  1  0  0  0  0
 24 19  1  0  0  0  0
 25 24  1  0  0  0  0
 26 27  1  0  0  0  0
 27 28  1  0  0  0  0
 28 29  2  0  0  0  0
 28 22  1  0  0  0  0
 29 34  1  0  0  0  0
 30 35  1  0  0  0  0
 30 29  1  0  0  0  0
 31 30  2  0  0  0  0
 32 31  1  0  0  0  0
 33 31  1  0  0  0  0
 33 27  2  0  0  0  0
 36 33  1  0  0  0  0
 38 37  1  0  0  0  0
 38 41  1  0  0  0  0
 39 38  1  0  0  0  0
 40 38  1  0  0  0  0
M  END
>  <minimizedAffinity>
-6.36261892

$$$$

 OpenBabel03242520593D

 41 43  0  0  1  0  0  0  0  0999 V2000
   37.7210   28.7930   39.4680 C   0  0  0  0  0  0  0  0  0  0  0  0
   37.6760   27.9560   40.6090 C   0  0  0  0  0  0  0  0  0  0  0  0
   36.8730   26.8260   40.5800 C   0  0  0  0  0  0  0  0  0  0  0  0
   36.1700   26.5830   39.4620 N   0  0  0  0  0  0  0  0  0  0  0  0
   36.2190   27.3850   38.3880 C   0  0  0  0  0  0  0  0  0  0  0  0
   36.9950   28.4960   38.3790 N   0  0  0  0  0  0  0  0  0  0  0  0
   38.2940   29.6940   39.3430 H   0  0  0  0  0  0  0  0  0  0  0  0
   37.8660   29.3440   42.6970 C   0  0  2  0  0  3  0  0  0  0  0  0
   38.5290   28.4520   41.7310 C   0  0  1  0  0  3  0  0  0  0  0  0
   39.0630   27.3960   42.4590 O   0  0  0  0  0  0  0  0  0  0  0  0
   38.6080   27.3730   43.7250 C   0  0  0  0  0  2  0  0  0  0  0  0
   37.8760   28.6330   43.9980 C   0  0  2  0  0  3  0  0  0  0  0  0
   36.6140   29.8000   42.3090 O   0  0  0  0  0  0  0  0  0  0  0  0
   36.0540   29.8550   43.1230 H   0  0  0  0  0  0  0  0  0  0  0  0
   36.6090   28.4390   44.5410 O   0  0  0  0  0  0  0  0  0  0  0  0
   36.5360   27.4530   44.7340 H   0  0  0  0  0  0  0  0  0  0  0  0
   35.4100   27.0920   37.2030 C   0  0  0  0  0  3  0  0  0  0  0  0
   34.1060   26.9380   37.2690 C   0  0  0  0  0  3  0  0  0  0  0  0
   33.3050   26.6410   36.0600 C   0  0  0  0  0  0  0  0  0  0  0  0
   34.0080   26.5890   35.2350 H   0  0  0  0  0  0  0  0  0  0  0  0
   32.9300   25.5830   36.1950 H   0  0  0  0  0  0  0  0  0  0  0  0
   32.4890   28.7790   35.5730 C   0  0  0  0  0  0  0  0  0  0  0  0
   33.5520   29.3890   35.3230 O   0  0  0  0  0  0  0  0  0  0  0  0
   32.1840   27.4670   35.9240 N   0  0  0  0  0  0  0  0  0  0  0  0
   31.1960   27.1990   36.0570 H   0  0  0  0  0  0  0  0  0  0  0  0
   31.0890   30.0860   37.9490 Cl  0  0  0  0  0  0  0  0  0  0  0  0
   30.7900   30.5800   36.3150 C   0  0  0  0  0  0  0  0  0  0  0  0
   31.5200   29.8680   35.3960 C   0  0  0  0  0  0  0  0  0  0  0  0
   31.3960   30.1470   34.0260 C   0  0  0  0  0  0  0  0  0  0  0  0
   30.5320   31.1460   33.5900 C   0  0  0  0  0  0  0  0  0  0  0  0
   29.8040   31.8510   34.5370 C   0  0  0  0  0  0  0  0  0  0  0  0
   28.7020   33.1190   34.0580 Cl  0  0  0  0  0  0  0  0  0  0  0  0
   29.9390   31.5640   35.8800 C   0  0  0  0  0  0  0  0  0  0  0  0
   31.9080   29.6650   33.2130 H   0  0  0  0  0  0  0  0  0  0  0  0
   30.3940   31.4050   32.5540 H   0  0  0  0  0  0  0  0  0  0  0  0
   29.4030   32.0760   36.6690 H   0  0  0  0  0  0  0  0  0  0  0  0
   36.8070   26.0030   41.6460 O   0  0  0  0  0  0  0  0  0  0  0  0
   37.1720   24.6270   41.4420 C   0  0  0  0  0  0  0  0  0  0  0  0
   38.3270   24.5670   40.6590 F   0  0  0  0  0  0  0  0  0  0  0  0
   37.5030   24.1240   42.6980 F   0  0  0  0  0  0  0  0  0  0  0  0
   36.1450   23.8530   40.9130 F   0  0  0  0  0  0  0  0  0  0  0  0
  1  2  1  0  0  0  0
  3  2  2  0  0  0  0
  3 37  1  0  0  0  0
  4  3  1  0  0  0  0
  5  4  2  0  0  0  0
  6  5  1  0  0  0  0
  6  1  2  0  0  0  0
  7  1  1  0  0  0  0
  8 13  1  6  0  0  0
  8 12  1  0  0  0  0
  9  2  1  6  0  0  0
  9 10  1  0  0  0  0
  9  8  1  0  0  0  0
 10 11  1  0  0  0  0
 11 12  1  0  0  0  0
 12 15  1  6  0  0  0
 13 14  1  0  0  0  0
 15 16  1  0  0  0  0
 17 18  2  0  0  0  0
 17  5  1  0  0  0  0
 19 21  1  0  0  0  0
 19 18  1  0  0  0  0
 20 19  1  0  0  0  0
 22 24  1  0  0  0  0
 23 22  2  0  0  0  0
 24 25  1  0  0  0  0
 24 19  1  0  0  0  0
 27 26  1  0  0  0  0
 28 22  1  0  0  0  0
 28 27  2  0  0  0  0
 29 28  1  0  0  0  0
 30 29  2  0  0  0  0
 30 31  1  0  0  0  0
 31 33  2  0  0  0  0
 32 31  1  0  0  0  0
 33 27  1  0  0  0  0
 33 36  1  0  0  0  0
 34 29  1  0  0  0  0
 35 30  1  0  0  0  0
 38 37  1  0  0  0  0
 38 40  1  0  0  0  0
 39 38  1  0  0  0  0
 41 38  1  0  0  0  0
M  END
>  <minimizedAffinity>
-6.08500099

$$$$
