
 OpenBabel03242518583D

 25 27  0  0  1  0  0  0  0  0999 V2000
   36.6560   27.3210   42.8580 C   0  0  1  0  0  0  0  0  0  0  0  0
   37.4040   28.4250   43.6470 C   0  0  0  0  0  0  0  0  0  0  0  0
   36.5650   28.7000   42.4360 C   0  0  1  0  0  0  0  0  0  0  0  0
   35.8640   26.9030   43.5170 H   0  0  0  0  0  0  0  0  0  0  0  0
   36.9920   28.8030   44.5770 H   0  0  0  0  0  0  0  0  0  0  0  0
   38.4960   28.4500   43.5810 H   0  0  0  0  0  0  0  0  0  0  0  0
   35.5670   29.1920   42.5780 H   0  0  0  0  0  0  0  0  0  0  0  0
   37.5970   26.3200   42.2830 C   0  0  0  0  0  0  0  0  0  0  0  0
   37.0580   25.0260   42.0780 C   0  0  0  0  0  0  0  0  0  0  0  0
   37.8690   24.0440   41.5270 C   0  0  0  0  0  0  0  0  0  0  0  0
   39.1500   24.3840   41.2110 N   0  0  0  0  0  0  0  0  0  0  0  0
   39.6300   25.6260   41.4200 C   0  0  0  0  0  0  0  0  0  0  0  0
   38.8590   26.5740   41.9480 N   0  0  0  0  0  0  0  0  0  0  0  0
   36.0670   24.6640   42.3040 H   0  0  0  0  0  0  0  0  0  0  0  0
   37.5400   23.0290   41.3350 H   0  0  0  0  0  0  0  0  0  0  0  0
   40.6720   25.8580   41.1510 H   0  0  0  0  0  0  0  0  0  0  0  0
   36.4420   30.3480   40.6450 C   0  0  2  0  0  3  0  0  0  0  0  0
   37.3520   29.3440   41.3250 C   0  0  1  0  0  3  0  0  0  0  0  0
   38.4500   30.0410   41.7790 O   0  0  0  0  0  0  0  0  0  0  0  0
   38.5370   31.2450   41.1480 C   0  0  0  0  0  2  0  0  0  0  0  0
   37.3930   31.4020   40.1900 C   0  0  2  0  0  3  0  0  0  0  0  0
   35.6120   30.9100   41.6210 O   0  0  0  0  0  0  0  0  0  0  0  0
   34.6810   30.5920   41.5480 H   0  0  0  0  0  0  0  0  0  0  0  0
   36.8130   32.6710   40.3220 O   0  0  0  0  0  0  0  0  0  0  0  0
   35.8110   32.6230   40.2600 H   0  0  0  0  0  0  0  0  0  0  0  0
  1  4  1  1  0  0  0
  1  2  1  0  0  0  0
  2  5  1  0  0  0  0
  3  7  1  1  0  0  0
  3  1  1  0  0  0  0
  3  2  1  0  0  0  0
  6  2  1  0  0  0  0
  8  1  1  0  0  0  0
  9  8  1  0  0  0  0
  9 14  1  0  0  0  0
 10  9  2  0  0  0  0
 11 12  2  0  0  0  0
 11 10  1  0  0  0  0
 12 13  1  0  0  0  0
 13  8  2  0  0  0  0
 15 10  1  0  0  0  0
 16 12  1  0  0  0  0
 17 18  1  0  0  0  0
 17 22  1  1  0  0  0
 18 19  1  1  0  0  0
 18  3  1  0  0  0  0
 20 19  1  0  0  0  0
 21 24  1  1  0  0  0
 21 17  1  0  0  0  0
 21 20  1  0  0  0  0
 23 22  1  0  0  0  0
 25 24  1  0  0  0  0
M  END
>  <minimizedAffinity>
-5.63233471

$$$$

 OpenBabel03242518583D

 25 27  0  0  1  0  0  0  0  0999 V2000
   37.5090   31.1870   39.3760 C   0  0  1  0  0  0  0  0  0  0  0  0
   37.4450   32.7330   39.4590 C   0  0  0  0  0  0  0  0  0  0  0  0
   38.4350   31.9910   38.6130 C   0  0  1  0  0  0  0  0  0  0  0  0
   36.5750   30.8290   38.8900 H   0  0  0  0  0  0  0  0  0  0  0  0
   36.6920   33.2770   38.8980 H   0  0  0  0  0  0  0  0  0  0  0  0
   37.7610   33.2090   40.3920 H   0  0  0  0  0  0  0  0  0  0  0  0
   38.2900   31.9850   37.5010 H   0  0  0  0  0  0  0  0  0  0  0  0
   37.8100   30.5750   40.7010 C   0  0  0  0  0  0  0  0  0  0  0  0
   36.8710   29.6170   41.1560 C   0  0  0  0  0  0  0  0  0  0  0  0
   37.0940   28.9890   42.3720 C   0  0  0  0  0  0  0  0  0  0  0  0
   38.2130   29.3340   43.0680 N   0  0  0  0  0  0  0  0  0  0  0  0
   39.0850   30.2520   42.6050 C   0  0  0  0  0  0  0  0  0  0  0  0
   38.8800   30.8590   41.4380 N   0  0  0  0  0  0  0  0  0  0  0  0
   35.9590   29.2880   40.6830 H   0  0  0  0  0  0  0  0  0  0  0  0
   36.4300   28.2440   42.7960 H   0  0  0  0  0  0  0  0  0  0  0  0
   39.9780   30.5010   43.2000 H   0  0  0  0  0  0  0  0  0  0  0  0
   40.7020   32.1680   37.7350 C   0  0  2  0  0  3  0  0  0  0  0  0
   39.8610   32.3030   38.9880 C   0  0  1  0  0  3  0  0  0  0  0  0
   40.0250   33.5930   39.4450 O   0  0  0  0  0  0  0  0  0  0  0  0
   41.1340   34.1510   38.8860 C   0  0  0  0  0  2  0  0  0  0  0  0
   41.7810   33.1730   37.9500 C   0  0  2  0  0  3  0  0  0  0  0  0
   39.9290   32.5920   36.6470 O   0  0  0  0  0  0  0  0  0  0  0  0
   39.6440   31.8400   36.0760 H   0  0  0  0  0  0  0  0  0  0  0  0
   42.1130   33.7970   36.7400 O   0  0  0  0  0  0  0  0  0  0  0  0
   41.9240   33.1990   35.9550 H   0  0  0  0  0  0  0  0  0  0  0  0
  1  4  1  6  0  0  0
  1  2  1  0  0  0  0
  1  8  1  0  0  0  0
  2  6  1  0  0  0  0
  3  7  1  6  0  0  0
  3 18  1  0  0  0  0
  3  1  1  0  0  0  0
  3  2  1  0  0  0  0
  5  2  1  0  0  0  0
  8  9  2  0  0  0  0
  8 13  1  0  0  0  0
  9 10  1  0  0  0  0
 10 15  1  0  0  0  0
 10 11  2  0  0  0  0
 12 11  1  0  0  0  0
 12 16  1  0  0  0  0
 13 12  2  0  0  0  0
 14  9  1  0  0  0  0
 17 22  1  6  0  0  0
 17 21  1  0  0  0  0
 17 18  1  0  0  0  0
 18 19  1  6  0  0  0
 20 19  1  0  0  0  0
 21 24  1  6  0  0  0
 21 20  1  0  0  0  0
 23 22  1  0  0  0  0
 25 24  1  0  0  0  0
M  END
>  <minimizedAffinity>
-5.31870651

$$$$

 OpenBabel03242518583D

 25 27  0  0  1  0  0  0  0  0999 V2000
   37.2100   30.9220   38.9120 C   0  0  1  0  0  0  0  0  0  0  0  0
   37.1520   32.4170   39.3150 C   0  0  0  0  0  0  0  0  0  0  0  0
   38.1660   31.8570   38.3650 C   0  0  1  0  0  0  0  0  0  0  0  0
   36.2930   30.6850   38.3320 H   0  0  0  0  0  0  0  0  0  0  0  0
   36.4200   33.0760   38.8570 H   0  0  0  0  0  0  0  0  0  0  0  0
   37.4370   32.6840   40.3370 H   0  0  0  0  0  0  0  0  0  0  0  0
   38.0600   32.0860   37.2720 H   0  0  0  0  0  0  0  0  0  0  0  0
   37.4630   30.0440   40.0890 C   0  0  0  0  0  0  0  0  0  0  0  0
   38.1420   28.8320   39.8080 C   0  0  0  0  0  0  0  0  0  0  0  0
   38.4310   27.9710   40.8570 C   0  0  0  0  0  0  0  0  0  0  0  0
   38.0400   28.3410   42.1080 N   0  0  0  0  0  0  0  0  0  0  0  0
   37.3940   29.5020   42.3380 C   0  0  0  0  0  0  0  0  0  0  0  0
   37.1140   30.3360   41.3390 N   0  0  0  0  0  0  0  0  0  0  0  0
   38.4800   28.4520   38.8570 H   0  0  0  0  0  0  0  0  0  0  0  0
   38.9460   27.0250   40.7340 H   0  0  0  0  0  0  0  0  0  0  0  0
   37.0960   29.7630   43.3660 H   0  0  0  0  0  0  0  0  0  0  0  0
   40.4910   31.9520   37.6380 C   0  0  2  0  0  3  0  0  0  0  0  0
   39.5790   32.0670   38.8440 C   0  0  1  0  0  3  0  0  0  0  0  0
   39.7830   33.3190   39.3830 O   0  0  0  0  0  0  0  0  0  0  0  0
   40.9540   33.8420   38.9250 C   0  0  0  0  0  2  0  0  0  0  0  0
   41.6060   32.8820   37.9760 C   0  0  2  0  0  3  0  0  0  0  0  0
   39.8130   32.4780   36.5320 O   0  0  0  0  0  0  0  0  0  0  0  0
   39.5250   31.7750   35.9020 H   0  0  0  0  0  0  0  0  0  0  0  0
   42.0480   33.5500   36.8270 O   0  0  0  0  0  0  0  0  0  0  0  0
   41.8780   33.0060   35.9990 H   0  0  0  0  0  0  0  0  0  0  0  0
  1  4  1  6  0  0  0
  1  2  1  0  0  0  0
  1  8  1  0  0  0  0
  2  6  1  0  0  0  0
  3  7  1  6  0  0  0
  3 18  1  0  0  0  0
  3  1  1  0  0  0  0
  3  2  1  0  0  0  0
  5  2  1  0  0  0  0
  8 13  1  0  0  0  0
  9  8  2  0  0  0  0
  9 10  1  0  0  0  0
 10 11  2  0  0  0  0
 11 12  1  0  0  0  0
 12 16  1  0  0  0  0
 13 12  2  0  0  0  0
 14  9  1  0  0  0  0
 15 10  1  0  0  0  0
 17 22  1  6  0  0  0
 17 21  1  0  0  0  0
 17 18  1  0  0  0  0
 18 19  1  6  0  0  0
 20 19  1  0  0  0  0
 21 24  1  6  0  0  0
 21 20  1  0  0  0  0
 23 22  1  0  0  0  0
 25 24  1  0  0  0  0
M  END
>  <minimizedAffinity>
-5.09934759

$$$$

 OpenBabel03242518583D

 25 27  0  0  1  0  0  0  0  0999 V2000
   36.1130   30.2270   40.4800 C   0  0  1  0  0  0  0  0  0  0  0  0
   36.7580   31.6230   40.6700 C   0  0  0  0  0  0  0  0  0  0  0  0
   36.8450   30.8390   39.3950 C   0  0  1  0  0  0  0  0  0  0  0  0
   35.0090   30.3480   40.5240 H   0  0  0  0  0  0  0  0  0  0  0  0
   36.1460   32.5170   40.6080 H   0  0  0  0  0  0  0  0  0  0  0  0
   37.6250   31.7000   41.3330 H   0  0  0  0  0  0  0  0  0  0  0  0
   36.2330   31.1750   38.5180 H   0  0  0  0  0  0  0  0  0  0  0  0
   36.6800   29.2240   41.4250 C   0  0  0  0  0  0  0  0  0  0  0  0
   36.5370   27.8700   41.0330 C   0  0  0  0  0  0  0  0  0  0  0  0
   37.0580   26.8790   41.8520 C   0  0  0  0  0  0  0  0  0  0  0  0
   37.6820   27.2680   43.0000 N   0  0  0  0  0  0  0  0  0  0  0  0
   37.7990   28.5670   43.3410 C   0  0  0  0  0  0  0  0  0  0  0  0
   37.3040   29.5250   42.5610 N   0  0  0  0  0  0  0  0  0  0  0  0
   36.0550   27.4680   40.1560 H   0  0  0  0  0  0  0  0  0  0  0  0
   36.9950   25.8200   41.6310 H   0  0  0  0  0  0  0  0  0  0  0  0
   38.3120   28.8380   44.2780 H   0  0  0  0  0  0  0  0  0  0  0  0
   38.4590   31.0270   37.5790 C   0  0  2  0  0  3  0  0  0  0  0  0
   38.2680   30.5390   39.0020 C   0  0  1  0  0  3  0  0  0  0  0  0
   39.1920   31.2010   39.7800 O   0  0  0  0  0  0  0  0  0  0  0  0
   40.1730   31.7300   38.9980 C   0  0  0  0  0  2  0  0  0  0  0  0
   39.8950   31.4250   37.5560 C   0  0  2  0  0  3  0  0  0  0  0  0
   37.6890   32.1830   37.4110 O   0  0  0  0  0  0  0  0  0  0  0  0
   36.8970   32.0250   36.8440 H   0  0  0  0  0  0  0  0  0  0  0  0
   40.0700   32.5720   36.7700 O   0  0  0  0  0  0  0  0  0  0  0  0
   39.3610   32.6410   36.0610 H   0  0  0  0  0  0  0  0  0  0  0  0
  1  4  1  6  0  0  0
  1  2  1  0  0  0  0
  1  8  1  0  0  0  0
  2  6  1  0  0  0  0
  3  7  1  6  0  0  0
  3  1  1  0  0  0  0
  3  2  1  0  0  0  0
  5  2  1  0  0  0  0
  8 13  1  0  0  0  0
  9  8  2  0  0  0  0
  9 10  1  0  0  0  0
 10 11  2  0  0  0  0
 11 12  1  0  0  0  0
 12 16  1  0  0  0  0
 13 12  2  0  0  0  0
 14  9  1  0  0  0  0
 15 10  1  0  0  0  0
 17 22  1  1  0  0  0
 17 18  1  0  0  0  0
 18  3  1  0  0  0  0
 18 19  1  1  0  0  0
 20 19  1  0  0  0  0
 21 24  1  6  0  0  0
 21 17  1  0  0  0  0
 21 20  1  0  0  0  0
 23 22  1  0  0  0  0
 25 24  1  0  0  0  0
M  END
>  <minimizedAffinity>
-5.04678154

$$$$

 OpenBabel03242518583D

 25 27  0  0  1  0  0  0  0  0999 V2000
   35.9580   27.8250   39.0290 C   0  0  1  0  0  0  0  0  0  0  0  0
   35.0570   29.0860   39.0130 C   0  0  0  0  0  0  0  0  0  0  0  0
   36.3640   28.9950   38.2860 C   0  0  1  0  0  0  0  0  0  0  0  0
   35.4190   27.0090   38.5010 H   0  0  0  0  0  0  0  0  0  0  0  0
   34.1840   29.1220   38.3690 H   0  0  0  0  0  0  0  0  0  0  0  0
   34.9750   29.6680   39.9360 H   0  0  0  0  0  0  0  0  0  0  0  0
   36.3490   28.8980   37.1690 H   0  0  0  0  0  0  0  0  0  0  0  0
   36.4200   27.4940   40.4060 C   0  0  0  0  0  0  0  0  0  0  0  0
   37.1900   26.3110   40.5220 C   0  0  0  0  0  0  0  0  0  0  0  0
   37.6730   25.9480   41.7700 C   0  0  0  0  0  0  0  0  0  0  0  0
   37.3750   26.7570   42.8260 N   0  0  0  0  0  0  0  0  0  0  0  0
   36.6370   27.8760   42.6790 C   0  0  0  0  0  0  0  0  0  0  0  0
   36.1710   28.2330   41.4850 N   0  0  0  0  0  0  0  0  0  0  0  0
   37.4670   25.6080   39.7520 H   0  0  0  0  0  0  0  0  0  0  0  0
   38.2700   25.0610   41.9500 H   0  0  0  0  0  0  0  0  0  0  0  0
   36.4200   28.5020   43.5590 H   0  0  0  0  0  0  0  0  0  0  0  0
   38.3410   30.2530   37.6150 C   0  0  2  0  0  3  0  0  0  0  0  0
   37.3490   30.0410   38.7410 C   0  0  1  0  0  3  0  0  0  0  0  0
   36.7590   31.2620   38.9900 O   0  0  0  0  0  0  0  0  0  0  0  0
   37.5100   32.2640   38.4570 C   0  0  0  0  0  2  0  0  0  0  0  0
   38.7100   31.6900   37.7640 C   0  0  2  0  0  3  0  0  0  0  0  0
   37.6580   30.1080   36.4020 O   0  0  0  0  0  0  0  0  0  0  0  0
   37.8930   29.2690   35.9390 H   0  0  0  0  0  0  0  0  0  0  0  0
   38.8800   32.2820   36.5060 O   0  0  0  0  0  0  0  0  0  0  0  0
   39.1570   31.6040   35.8170 H   0  0  0  0  0  0  0  0  0  0  0  0
  1  4  1  6  0  0  0
  1  8  1  0  0  0  0
  2  1  1  0  0  0  0
  2  6  1  0  0  0  0
  3  7  1  6  0  0  0
  3 18  1  0  0  0  0
  3  2  1  0  0  0  0
  3  1  1  0  0  0  0
  5  2  1  0  0  0  0
  8  9  2  0  0  0  0
  8 13  1  0  0  0  0
  9 10  1  0  0  0  0
 10 15  1  0  0  0  0
 10 11  2  0  0  0  0
 12 11  1  0  0  0  0
 12 16  1  0  0  0  0
 13 12  2  0  0  0  0
 14  9  1  0  0  0  0
 17 22  1  6  0  0  0
 17 21  1  0  0  0  0
 17 18  1  0  0  0  0
 18 19  1  6  0  0  0
 20 19  1  0  0  0  0
 21 24  1  6  0  0  0
 21 20  1  0  0  0  0
 23 22  1  0  0  0  0
 25 24  1  0  0  0  0
M  END
>  <minimizedAffinity>
-4.75736046

$$$$

 OpenBabel03242518583D

 25 27  0  0  1  0  0  0  0  0999 V2000
   37.5130   32.0660   38.6780 C   0  0  1  0  0  0  0  0  0  0  0  0
   37.0540   30.7880   37.9310 C   0  0  0  0  0  0  0  0  0  0  0  0
   36.9160   30.9740   39.4120 C   0  0  1  0  0  0  0  0  0  0  0  0
   36.8710   32.9100   38.3460 H   0  0  0  0  0  0  0  0  0  0  0  0
   36.1140   30.7850   37.3880 H   0  0  0  0  0  0  0  0  0  0  0  0
   37.8250   30.1280   37.5250 H   0  0  0  0  0  0  0  0  0  0  0  0
   35.8950   31.1660   39.8340 H   0  0  0  0  0  0  0  0  0  0  0  0
   38.9800   32.2900   38.5370 C   0  0  0  0  0  0  0  0  0  0  0  0
   39.6070   32.9220   39.6390 C   0  0  0  0  0  0  0  0  0  0  0  0
   40.9750   33.1470   39.5900 C   0  0  0  0  0  0  0  0  0  0  0  0
   41.6440   32.7440   38.4740 N   0  0  0  0  0  0  0  0  0  0  0  0
   41.0140   32.1450   37.4430 C   0  0  0  0  0  0  0  0  0  0  0  0
   39.7020   31.9240   37.4820 N   0  0  0  0  0  0  0  0  0  0  0  0
   39.1620   33.2820   40.5540 H   0  0  0  0  0  0  0  0  0  0  0  0
   41.5350   33.6230   40.3860 H   0  0  0  0  0  0  0  0  0  0  0  0
   41.5930   31.8350   36.5590 H   0  0  0  0  0  0  0  0  0  0  0  0
   37.1910   30.0130   41.6340 C   0  0  2  0  0  3  0  0  0  0  0  0
   37.6540   29.9190   40.1940 C   0  0  1  0  0  3  0  0  0  0  0  0
   37.3750   28.6390   39.7660 O   0  0  0  0  0  0  0  0  0  0  0  0
   37.1670   27.8210   40.8340 C   0  0  0  0  0  2  0  0  0  0  0  0
   37.2930   28.6030   42.1080 C   0  0  2  0  0  3  0  0  0  0  0  0
   35.8370   30.3680   41.6320 O   0  0  0  0  0  0  0  0  0  0  0  0
   35.6960   31.2990   41.9260 H   0  0  0  0  0  0  0  0  0  0  0  0
   36.2350   28.3030   42.9750 O   0  0  0  0  0  0  0  0  0  0  0  0
   35.9000   29.1270   43.4430 H   0  0  0  0  0  0  0  0  0  0  0  0
  1  4  1  6  0  0  0
  1  3  1  0  0  0  0
  2  1  1  0  0  0  0
  2  3  1  0  0  0  0
  3  7  1  1  0  0  0
  3 18  1  0  0  0  0
  5  2  1  0  0  0  0
  6  2  1  0  0  0  0
  8  1  1  0  0  0  0
  8  9  1  0  0  0  0
  9 14  1  0  0  0  0
 10  9  2  0  0  0  0
 10 15  1  0  0  0  0
 11 10  1  0  0  0  0
 12 13  1  0  0  0  0
 12 11  2  0  0  0  0
 13  8  2  0  0  0  0
 16 12  1  0  0  0  0
 17 22  1  6  0  0  0
 17 21  1  0  0  0  0
 18 19  1  6  0  0  0
 18 17  1  0  0  0  0
 19 20  1  0  0  0  0
 20 21  1  0  0  0  0
 21 24  1  1  0  0  0
 22 23  1  0  0  0  0
 24 25  1  0  0  0  0
M  END
>  <minimizedAffinity>
-4.69734478

$$$$

 OpenBabel03242518583D

 25 27  0  0  1  0  0  0  0  0999 V2000
   36.2480   28.1470   40.0270 C   0  0  1  0  0  0  0  0  0  0  0  0
   35.3290   29.3860   40.1800 C   0  0  0  0  0  0  0  0  0  0  0  0
   36.3630   29.2520   39.1040 C   0  0  1  0  0  0  0  0  0  0  0  0
   35.6120   27.2780   39.7540 H   0  0  0  0  0  0  0  0  0  0  0  0
   34.3040   29.3490   39.8270 H   0  0  0  0  0  0  0  0  0  0  0  0
   35.5010   30.0480   41.0340 H   0  0  0  0  0  0  0  0  0  0  0  0
   36.0200   29.0530   38.0550 H   0  0  0  0  0  0  0  0  0  0  0  0
   37.1130   27.9510   41.2250 C   0  0  0  0  0  0  0  0  0  0  0  0
   36.4240   27.7970   42.4530 C   0  0  0  0  0  0  0  0  0  0  0  0
   37.1610   27.5890   43.6100 C   0  0  0  0  0  0  0  0  0  0  0  0
   38.5190   27.5460   43.4980 N   0  0  0  0  0  0  0  0  0  0  0  0
   39.1400   27.6980   42.3120 C   0  0  0  0  0  0  0  0  0  0  0  0
   38.4420   27.8960   41.1960 N   0  0  0  0  0  0  0  0  0  0  0  0
   35.3620   27.8250   42.6400 H   0  0  0  0  0  0  0  0  0  0  0  0
   36.7180   27.4610   44.5910 H   0  0  0  0  0  0  0  0  0  0  0  0
   40.2400   27.6560   42.2660 H   0  0  0  0  0  0  0  0  0  0  0  0
   38.0930   30.3820   37.8110 C   0  0  2  0  0  3  0  0  0  0  0  0
   37.3920   30.3510   39.1550 C   0  0  1  0  0  3  0  0  0  0  0  0
   36.8380   31.5980   39.3470 O   0  0  0  0  0  0  0  0  0  0  0  0
   37.4140   32.5030   38.5090 C   0  0  0  0  0  2  0  0  0  0  0  0
   38.4400   31.8230   37.6520 C   0  0  2  0  0  3  0  0  0  0  0  0
   37.1540   30.0550   36.8260 O   0  0  0  0  0  0  0  0  0  0  0  0
   37.3040   29.1540   36.4530 H   0  0  0  0  0  0  0  0  0  0  0  0
   38.2990   32.2130   36.3140 O   0  0  0  0  0  0  0  0  0  0  0  0
   38.4310   31.4360   35.6900 H   0  0  0  0  0  0  0  0  0  0  0  0
  1  4  1  6  0  0  0
  1  2  1  0  0  0  0
  1  8  1  0  0  0  0
  2  6  1  0  0  0  0
  3  7  1  6  0  0  0
  3 18  1  0  0  0  0
  3  1  1  0  0  0  0
  3  2  1  0  0  0  0
  5  2  1  0  0  0  0
  8  9  1  0  0  0  0
  9 14  1  0  0  0  0
  9 10  2  0  0  0  0
 10 15  1  0  0  0  0
 11 10  1  0  0  0  0
 12 11  2  0  0  0  0
 13  8  2  0  0  0  0
 13 12  1  0  0  0  0
 16 12  1  0  0  0  0
 17 22  1  6  0  0  0
 17 18  1  0  0  0  0
 18 19  1  6  0  0  0
 20 19  1  0  0  0  0
 21 24  1  6  0  0  0
 21 17  1  0  0  0  0
 21 20  1  0  0  0  0
 23 22  1  0  0  0  0
 25 24  1  0  0  0  0
M  END
>  <minimizedAffinity>
-4.65230656

$$$$

 OpenBabel03242518583D

 25 27  0  0  1  0  0  0  0  0999 V2000
   39.3120   30.5660   42.3990 C   0  0  1  0  0  0  0  0  0  0  0  0
   40.5590   30.3580   41.5030 C   0  0  0  0  0  0  0  0  0  0  0  0
   39.4420   31.2960   41.1590 C   0  0  1  0  0  0  0  0  0  0  0  0
   39.6440   31.0450   43.3460 H   0  0  0  0  0  0  0  0  0  0  0  0
   41.4960   30.8450   41.7540 H   0  0  0  0  0  0  0  0  0  0  0  0
   40.6600   29.4020   40.9810 H   0  0  0  0  0  0  0  0  0  0  0  0
   39.6220   32.3990   41.2550 H   0  0  0  0  0  0  0  0  0  0  0  0
   38.5330   29.3070   42.5630 C   0  0  0  0  0  0  0  0  0  0  0  0
   39.2390   28.2280   43.1510 C   0  0  0  0  0  0  0  0  0  0  0  0
   38.5740   27.0280   43.3550 C   0  0  0  0  0  0  0  0  0  0  0  0
   37.2680   26.9530   42.9730 N   0  0  0  0  0  0  0  0  0  0  0  0
   36.6280   28.0010   42.4160 C   0  0  0  0  0  0  0  0  0  0  0  0
   37.2570   29.1560   42.2170 N   0  0  0  0  0  0  0  0  0  0  0  0
   40.2670   28.1900   43.4740 H   0  0  0  0  0  0  0  0  0  0  0  0
   39.0350   26.1520   43.7980 H   0  0  0  0  0  0  0  0  0  0  0  0
   35.5720   27.8970   42.1220 H   0  0  0  0  0  0  0  0  0  0  0  0
   38.8230   32.1880   38.9770 C   0  0  2  0  0  3  0  0  0  0  0  0
   38.7830   30.9490   39.8490 C   0  0  1  0  0  3  0  0  0  0  0  0
   39.4440   29.9540   39.1630 O   0  0  0  0  0  0  0  0  0  0  0  0
   39.5460   30.2810   37.8450 C   0  0  0  0  0  2  0  0  0  0  0  0
   38.9210   31.6220   37.6020 C   0  0  2  0  0  3  0  0  0  0  0  0
   40.0150   32.8700   39.2480 O   0  0  0  0  0  0  0  0  0  0  0  0
   39.8620   33.7000   39.7590 H   0  0  0  0  0  0  0  0  0  0  0  0
   39.7580   32.4170   36.8070 O   0  0  0  0  0  0  0  0  0  0  0  0
   39.7650   33.3710   37.1230 H   0  0  0  0  0  0  0  0  0  0  0  0
  1  8  1  0  0  0  0
  1  4  1  1  0  0  0
  2  5  1  0  0  0  0
  2  1  1  0  0  0  0
  3  7  1  1  0  0  0
  3  2  1  0  0  0  0
  3  1  1  0  0  0  0
  6  2  1  0  0  0  0
  8  9  1  0  0  0  0
  9 10  2  0  0  0  0
  9 14  1  0  0  0  0
 10 15  1  0  0  0  0
 11 10  1  0  0  0  0
 12 11  2  0  0  0  0
 13 12  1  0  0  0  0
 13  8  2  0  0  0  0
 16 12  1  0  0  0  0
 17 22  1  1  0  0  0
 17 18  1  0  0  0  0
 18 19  1  6  0  0  0
 18  3  1  0  0  0  0
 20 19  1  0  0  0  0
 21 24  1  6  0  0  0
 21 20  1  0  0  0  0
 21 17  1  0  0  0  0
 22 23  1  0  0  0  0
 24 25  1  0  0  0  0
M  END
>  <minimizedAffinity>
-4.58668041

$$$$

 OpenBabel03242518583D

 25 27  0  0  1  0  0  0  0  0999 V2000
   37.6220   25.5280   41.4390 C   0  0  1  0  0  0  0  0  0  0  0  0
   37.0030   26.3230   42.6160 C   0  0  0  0  0  0  0  0  0  0  0  0
   36.9210   26.7650   41.1870 C   0  0  1  0  0  0  0  0  0  0  0  0
   37.0730   24.5660   41.3460 H   0  0  0  0  0  0  0  0  0  0  0  0
   36.0560   26.0090   43.0460 H   0  0  0  0  0  0  0  0  0  0  0  0
   37.6840   26.8210   43.3120 H   0  0  0  0  0  0  0  0  0  0  0  0
   35.9390   26.6730   40.6530 H   0  0  0  0  0  0  0  0  0  0  0  0
   39.1010   25.4040   41.5750 C   0  0  0  0  0  0  0  0  0  0  0  0
   39.8230   25.3700   40.3570 C   0  0  0  0  0  0  0  0  0  0  0  0
   41.2060   25.2760   40.4020 C   0  0  0  0  0  0  0  0  0  0  0  0
   41.7980   25.2210   41.6290 N   0  0  0  0  0  0  0  0  0  0  0  0
   41.0780   25.2550   42.7680 C   0  0  0  0  0  0  0  0  0  0  0  0
   39.7510   25.3460   42.7340 N   0  0  0  0  0  0  0  0  0  0  0  0
   39.4450   25.3980   39.3470 H   0  0  0  0  0  0  0  0  0  0  0  0
   41.8370   25.2440   39.5210 H   0  0  0  0  0  0  0  0  0  0  0  0
   41.5970   25.2080   43.7390 H   0  0  0  0  0  0  0  0  0  0  0  0
   36.4690   29.0460   40.4580 C   0  0  2  0  0  3  0  0  0  0  0  0
   37.5520   28.1160   40.9660 C   0  0  1  0  0  3  0  0  0  0  0  0
   38.0480   28.6730   42.1250 O   0  0  0  0  0  0  0  0  0  0  0  0
   37.7050   29.9880   42.1980 C   0  0  0  0  0  2  0  0  0  0  0  0
   36.8880   30.3700   41.0000 C   0  0  2  0  0  3  0  0  0  0  0  0
   35.2650   28.6900   41.0780 O   0  0  0  0  0  0  0  0  0  0  0  0
   34.6420   28.2450   40.4560 H   0  0  0  0  0  0  0  0  0  0  0  0
   35.7660   31.1150   41.3880 O   0  0  0  0  0  0  0  0  0  0  0  0
   34.9520   30.8540   40.8590 H   0  0  0  0  0  0  0  0  0  0  0  0
  1  4  1  6  0  0  0
  1  8  1  0  0  0  0
  1  2  1  0  0  0  0
  2  5  1  0  0  0  0
  2  6  1  0  0  0  0
  3  7  1  6  0  0  0
  3  1  1  0  0  0  0
  3  2  1  0  0  0  0
  8 13  1  0  0  0  0
  9 10  1  0  0  0  0
  9  8  2  0  0  0  0
 10 11  2  0  0  0  0
 11 12  1  0  0  0  0
 12 16  1  0  0  0  0
 13 12  2  0  0  0  0
 14  9  1  0  0  0  0
 15 10  1  0  0  0  0
 17 18  1  0  0  0  0
 17 21  1  0  0  0  0
 17 22  1  1  0  0  0
 18  3  1  0  0  0  0
 18 19  1  1  0  0  0
 19 20  1  0  0  0  0
 21 24  1  1  0  0  0
 21 20  1  0  0  0  0
 23 22  1  0  0  0  0
 25 24  1  0  0  0  0
M  END
>  <minimizedAffinity>
-4.54873991

$$$$
