
     RDKit          3D

 38 40  0  0  0  0  0  0  0  0999 V2000
   44.8194   35.1565   45.0947 C   0  0  0  0  0  0  0  0  0  0  0  0
   45.7051   34.7873   44.0828 C   0  0  0  0  0  0  0  0  0  0  0  0
   46.5386   33.6976   44.3369 C   0  0  0  0  0  0  0  0  0  0  0  0
   46.4589   33.0600   45.5184 N   0  0  0  0  0  0  0  0  0  0  0  0
   45.5800   33.4611   46.4661 C   0  0  0  0  0  0  0  0  0  0  0  0
   44.7715   34.4924   46.2615 N   0  0  0  0  0  0  0  0  0  0  0  0
   45.7091   35.5661   42.8096 C   0  0  0  0  0  0  0  0  0  0  0  0
   45.1981   36.8008   43.1430 F   0  0  0  0  0  0  0  0  0  0  0  0
   44.8233   34.9097   41.9492 F   0  0  0  0  0  0  0  0  0  0  0  0
   46.9693   35.6019   42.3086 F   0  0  0  0  0  0  0  0  0  0  0  0
   45.4721   32.8228   47.7000 O   0  0  0  0  0  0  0  0  0  0  0  0
   45.2371   31.4433   47.7930 C   0  0  0  0  0  0  0  0  0  0  0  0
   46.5266   30.7597   48.0063 C   0  0  0  0  0  0  0  0  0  0  0  0
   47.0804   29.6460   47.3989 C   0  0  0  0  0  0  0  0  0  0  0  0
   48.3203   29.2311   47.8106 C   0  0  0  0  0  0  0  0  0  0  0  0
   48.9923   29.8670   48.7675 N   0  0  0  0  0  0  0  0  0  0  0  0
   48.4467   30.9535   49.3567 C   0  0  0  0  0  0  0  0  0  0  0  0
   47.2173   31.4021   48.9802 N   0  0  0  0  0  0  0  0  0  0  0  0
   44.1669   36.0041   44.9049 H   0  0  0  0  0  0  0  0  0  0  0  0
   47.2315   33.4093   43.5445 H   0  0  0  0  0  0  0  0  0  0  0  0
   44.6253   31.2618   48.7009 H   0  0  0  0  0  0  0  0  0  0  0  0
   44.6674   31.0361   46.9302 H   0  0  0  0  0  0  0  0  0  0  0  0
   46.4165   29.2445   46.6470 H   0  0  0  0  0  0  0  0  0  0  0  0
   48.6858   28.3558   47.2903 H   0  0  0  0  0  0  0  0  0  0  0  0
   50.8766   30.1090   49.5265 O   0  0  0  0  0  0  0  0  0  0  0  0
   50.7219   31.3701   50.0519 C   0  0  1  0  0  0  0  0  0  0  0  0
   49.2857   31.5831   50.4113 C   0  0  2  0  0  0  0  0  0  0  0  0
   49.0512   31.0664   51.6715 O   0  0  0  0  0  0  0  0  0  0  0  0
   50.2446   30.5880   52.1687 C   0  0  0  0  0  0  0  0  0  0  0  0
   51.3460   31.3797   51.4536 C   0  0  2  0  0  0  0  0  0  0  0  0
   51.4280   32.6681   51.9544 O   0  0  0  0  0  0  0  0  0  0  0  0
   51.4586   30.1163   48.7260 H   0  0  0  0  0  0  0  0  0  0  0  0
   51.1314   32.1918   49.4344 H   0  0  0  0  0  0  0  0  0  0  0  0
   49.0116   32.6765   50.3766 H   0  0  0  0  0  0  0  0  0  0  0  0
   50.3976   30.7101   53.2411 H   0  0  0  0  0  0  0  0  0  0  0  0
   50.3714   29.5298   51.8245 H   0  0  0  0  0  0  0  0  0  0  0  0
   52.3095   30.8668   51.4951 H   0  0  0  0  0  0  0  0  0  0  0  0
   50.6650   32.8860   52.5700 H   0  0  0  0  0  0  0  0  0  0  0  0
  1  6  2  0
  2  3  2  0
  2  1  1  0
  3  4  1  0
  4  5  2  0
  5 11  1  0
  6  5  1  0
  7  8  1  0
  7  2  1  0
  9  7  1  0
 10  7  1  0
 11 12  1  0
 12 13  1  0
 13 18  2  0
 14 15  2  0
 14 13  1  0
 15 16  1  0
 16 17  2  0
 18 17  1  0
  1 19  1  0
  3 20  1  0
 12 21  1  0
 12 22  1  0
 14 23  1  0
 15 24  1  0
 25 26  1  0
 26 27  1  0
 27 28  1  0
 28 29  1  0
 29 30  1  0
 30 31  1  0
 30 26  1  0
 25 32  1  0
 26 33  1  6
 27 34  1  1
 29 35  1  0
 29 36  1  0
 30 37  1  6
 31 38  1  0
 17 27  1  0
M  ISO  6  19  14  20  14  21   8  22   8  23  14  24  14
M  END
>  <DihAtoms>  (1) 
15,16,26,25

>  <DihDeg>  (1) 
166.0524411075636

$$$$
