
 OpenBabel03252503143D

 34 37  0  0  1  0  0  0  0  0999 V2000
   36.5620   30.7090   40.2990 C   0  0  0  0  0  0  0  0  0  0  0  0
   35.8500   30.8790   41.3390 O   0  0  0  0  0  0  0  0  0  0  0  0
   35.7100   29.6310   38.2750 C   0  0  0  0  0  0  0  0  0  0  0  0
   36.2830   29.5280   39.5540 C   0  0  0  0  0  0  0  0  0  0  0  0
   36.5340   28.2370   39.9850 C   0  0  0  0  0  0  0  0  0  0  0  0
   36.2540   27.1490   39.2450 N   0  0  0  0  0  0  0  0  0  0  0  0
   35.6960   27.3060   38.0090 C   0  0  0  0  0  0  0  0  0  0  0  0
   35.4310   28.5300   37.5360 N   0  0  0  0  0  0  0  0  0  0  0  0
   35.4930   30.6200   37.8900 H   0  0  0  0  0  0  0  0  0  0  0  0
   35.4690   26.4320   37.4090 H   0  0  0  0  0  0  0  0  0  0  0  0
   37.1020   28.0530   41.2560 C   0  0  0  0  0  0  0  0  0  0  0  0
   36.6250   27.7960   42.5070 C   0  0  0  0  0  0  0  0  0  0  0  0
   37.3780   27.6610   43.5810 C   0  0  0  0  0  0  0  0  0  0  0  0
   38.7160   27.7960   43.3780 C   0  0  0  0  0  0  0  0  0  0  0  0
   38.8550   28.1260   41.5760 S   0  0  0  0  0  0  0  0  0  0  0  0
   35.5180   27.7090   42.5390 H   0  0  0  0  0  0  0  0  0  0  0  0
   37.0370   27.4590   44.5800 H   0  0  0  0  0  0  0  0  0  0  0  0
   39.5670   27.7150   44.1890 H   0  0  0  0  0  0  0  0  0  0  0  0
   37.6320   31.6520   39.8430 C   0  0  0  0  0  0  0  0  0  0  0  0
   37.5000   33.0140   39.6520 C   0  0  0  0  0  0  0  0  0  0  0  0
   38.7100   33.4430   39.2440 N   0  0  0  0  0  0  0  0  0  0  0  0
   39.5500   32.3750   39.1880 C   0  0  0  0  0  0  0  0  0  0  0  0
   38.8820   31.2560   39.5620 N   0  0  0  0  0  0  0  0  0  0  0  0
   36.5950   33.5920   39.8060 H   0  0  0  0  0  0  0  0  0  0  0  0
   38.9330   34.4470   39.0130 H   0  0  0  0  0  0  0  0  0  0  0  0
   41.1450   32.3270   37.2860 C   0  0  1  0  0  3  0  0  0  0  0  0
   40.9740   32.5470   38.7640 C   0  0  2  0  0  3  0  0  0  0  0  0
   41.7000   31.6040   39.4430 O   0  0  0  0  0  0  0  0  0  0  0  0
   42.3230   30.7580   38.5770 C   0  0  0  0  0  2  0  0  0  0  0  0
   41.7440   30.9570   37.2050 C   0  0  2  0  0  3  0  0  0  0  0  0
   39.9150   32.3740   36.6230 O   0  0  0  0  0  0  0  0  0  0  0  0
   40.0320   32.8970   35.8040 H   0  0  0  0  0  0  0  0  0  0  0  0
   42.7640   30.8650   36.2560 O   0  0  0  0  0  0  0  0  0  0  0  0
   42.3450   30.6130   35.3930 H   0  0  0  0  0  0  0  0  0  0  0  0
  1  2  2  0  0  0  0
  3  4  1  0  0  0  0
  4  5  2  0  0  0  0
  4  1  1  0  0  0  0
  5 11  1  0  0  0  0
  6  5  1  0  0  0  0
  7  6  2  0  0  0  0
  8  7  1  0  0  0  0
  8  3  2  0  0  0  0
  9  3  1  0  0  0  0
 10  7  1  0  0  0  0
 11 15  1  0  0  0  0
 11 12  2  0  0  0  0
 12 16  1  0  0  0  0
 12 13  1  0  0  0  0
 13 17  1  0  0  0  0
 14 13  2  0  0  0  0
 14 18  1  0  0  0  0
 15 14  1  0  0  0  0
 19  1  1  0  0  0  0
 20 24  1  0  0  0  0
 20 19  2  0  0  0  0
 21 20  1  0  0  0  0
 22 21  1  0  0  0  0
 22 23  2  0  0  0  0
 23 19  1  0  0  0  0
 25 21  1  0  0  0  0
 26 31  1  6  0  0  0
 26 27  1  0  0  0  0
 27 22  1  6  0  0  0
 27 28  1  0  0  0  0
 29 28  1  0  0  0  0
 30 33  1  6  0  0  0
 30 26  1  0  0  0  0
 30 29  1  0  0  0  0
 32 31  1  0  0  0  0
 34 33  1  0  0  0  0
M  END
>  <minimizedAffinity>
-6.23792124

$$$$

 OpenBabel03252503143D

 34 37  0  0  1  0  0  0  0  0999 V2000
   37.1810   27.9650   42.5300 C   0  0  0  0  0  0  0  0  0  0  0  0
   36.4730   27.5240   43.4910 O   0  0  0  0  0  0  0  0  0  0  0  0
   39.5500   28.1380   43.1100 C   0  0  0  0  0  0  0  0  0  0  0  0
   38.5070   27.4540   42.4630 C   0  0  0  0  0  0  0  0  0  0  0  0
   38.8830   26.3020   41.7940 C   0  0  0  0  0  0  0  0  0  0  0  0
   40.1520   25.8570   41.7570 N   0  0  0  0  0  0  0  0  0  0  0  0
   41.1270   26.5590   42.4020 C   0  0  0  0  0  0  0  0  0  0  0  0
   40.8260   27.6810   43.0670 N   0  0  0  0  0  0  0  0  0  0  0  0
   39.3100   29.0470   43.6480 H   0  0  0  0  0  0  0  0  0  0  0  0
   42.1520   26.2040   42.3750 H   0  0  0  0  0  0  0  0  0  0  0  0
   37.8960   25.5670   41.1180 C   0  0  0  0  0  0  0  0  0  0  0  0
   37.0490   24.5480   41.4420 C   0  0  0  0  0  0  0  0  0  0  0  0
   36.1820   24.0040   40.6110 C   0  0  0  0  0  0  0  0  0  0  0  0
   36.1670   24.5290   39.3560 C   0  0  0  0  0  0  0  0  0  0  0  0
   37.4520   25.8400   39.4120 S   0  0  0  0  0  0  0  0  0  0  0  0
   37.1600   24.2110   42.4950 H   0  0  0  0  0  0  0  0  0  0  0  0
   35.5010   23.2030   40.8310 H   0  0  0  0  0  0  0  0  0  0  0  0
   35.4780   24.1980   38.4590 H   0  0  0  0  0  0  0  0  0  0  0  0
   36.7020   28.9540   41.5130 C   0  0  0  0  0  0  0  0  0  0  0  0
   35.4670   28.9630   40.8940 C   0  0  0  0  0  0  0  0  0  0  0  0
   35.4830   30.0250   40.0650 N   0  0  0  0  0  0  0  0  0  0  0  0
   36.6890   30.6420   40.1770 C   0  0  0  0  0  0  0  0  0  0  0  0
   37.4530   29.9770   41.0790 N   0  0  0  0  0  0  0  0  0  0  0  0
   34.6670   28.2490   41.0600 H   0  0  0  0  0  0  0  0  0  0  0  0
   34.6760   30.3030   39.4450 H   0  0  0  0  0  0  0  0  0  0  0  0
   37.4190   31.5100   37.9680 C   0  0  1  0  0  3  0  0  0  0  0  0
   37.0010   31.8610   39.3690 C   0  0  2  0  0  3  0  0  0  0  0  0
   38.0390   32.4930   40.0010 O   0  0  0  0  0  0  0  0  0  0  0  0
   39.1210   32.5830   39.1790 C   0  0  0  0  0  2  0  0  0  0  0  0
   38.9060   31.6840   37.9950 C   0  0  2  0  0  3  0  0  0  0  0  0
   37.0750   30.1910   37.6540 O   0  0  0  0  0  0  0  0  0  0  0  0
   36.7030   30.1820   36.7490 H   0  0  0  0  0  0  0  0  0  0  0  0
   39.4010   32.3060   36.8470 O   0  0  0  0  0  0  0  0  0  0  0  0
   39.6070   31.5930   36.1890 H   0  0  0  0  0  0  0  0  0  0  0  0
  1  2  2  0  0  0  0
  3  9  1  0  0  0  0
  4  1  1  0  0  0  0
  4  3  2  0  0  0  0
  5  4  1  0  0  0  0
  6  5  2  0  0  0  0
  6  7  1  0  0  0  0
  7  8  2  0  0  0  0
  8  3  1  0  0  0  0
 10  7  1  0  0  0  0
 11 12  2  0  0  0  0
 11  5  1  0  0  0  0
 12 16  1  0  0  0  0
 13 17  1  0  0  0  0
 13 12  1  0  0  0  0
 14 15  1  0  0  0  0
 14 13  2  0  0  0  0
 15 11  1  0  0  0  0
 18 14  1  0  0  0  0
 19  1  1  0  0  0  0
 20 24  1  0  0  0  0
 20 19  2  0  0  0  0
 21 22  1  0  0  0  0
 21 20  1  0  0  0  0
 22 23  2  0  0  0  0
 23 19  1  0  0  0  0
 25 21  1  0  0  0  0
 26 31  1  1  0  0  0
 26 30  1  0  0  0  0
 26 27  1  0  0  0  0
 27 28  1  0  0  0  0
 27 22  1  1  0  0  0
 29 28  1  0  0  0  0
 30 33  1  6  0  0  0
 30 29  1  0  0  0  0
 32 31  1  0  0  0  0
 34 33  1  0  0  0  0
M  END
>  <minimizedAffinity>
-6.08059072

$$$$

 OpenBabel03252503143D

 34 37  0  0  1  0  0  0  0  0999 V2000
   37.4120   30.9900   40.9340 C   0  0  0  0  0  0  0  0  0  0  0  0
   36.1910   31.1310   41.2630 O   0  0  0  0  0  0  0  0  0  0  0  0
   38.6470   29.5360   42.4630 C   0  0  0  0  0  0  0  0  0  0  0  0
   37.9850   29.7240   41.2390 C   0  0  0  0  0  0  0  0  0  0  0  0
   37.9510   28.6150   40.4110 C   0  0  0  0  0  0  0  0  0  0  0  0
   38.5070   27.4360   40.7420 N   0  0  0  0  0  0  0  0  0  0  0  0
   39.1400   27.3070   41.9440 C   0  0  0  0  0  0  0  0  0  0  0  0
   39.2060   28.3440   42.7880 N   0  0  0  0  0  0  0  0  0  0  0  0
   38.7030   30.3730   43.1490 H   0  0  0  0  0  0  0  0  0  0  0  0
   39.5900   26.3580   42.2150 H   0  0  0  0  0  0  0  0  0  0  0  0
   37.3100   28.7270   39.1670 C   0  0  0  0  0  0  0  0  0  0  0  0
   36.0340   28.5720   38.7120 C   0  0  0  0  0  0  0  0  0  0  0  0
   35.6620   28.7360   37.4570 C   0  0  0  0  0  0  0  0  0  0  0  0
   36.6540   29.0840   36.5950 C   0  0  0  0  0  0  0  0  0  0  0  0
   38.1510   29.1670   37.6570 S   0  0  0  0  0  0  0  0  0  0  0  0
   35.3200   28.2870   39.5140 H   0  0  0  0  0  0  0  0  0  0  0  0
   34.6690   28.6220   37.0640 H   0  0  0  0  0  0  0  0  0  0  0  0
   36.5490   29.2800   35.4370 H   0  0  0  0  0  0  0  0  0  0  0  0
   38.2360   32.0500   40.2700 C   0  0  0  0  0  0  0  0  0  0  0  0
   37.8320   33.3370   39.9700 C   0  0  0  0  0  0  0  0  0  0  0  0
   38.8950   33.9230   39.3840 N   0  0  0  0  0  0  0  0  0  0  0  0
   39.9110   33.0220   39.3300 C   0  0  0  0  0  0  0  0  0  0  0  0
   39.5040   31.8520   39.8820 N   0  0  0  0  0  0  0  0  0  0  0  0
   36.8550   33.7600   40.1750 H   0  0  0  0  0  0  0  0  0  0  0  0
   38.9020   34.9190   39.0360 H   0  0  0  0  0  0  0  0  0  0  0  0
   41.3580   32.8840   37.3180 C   0  0  1  0  0  3  0  0  0  0  0  0
   41.2280   33.3920   38.7270 C   0  0  2  0  0  3  0  0  0  0  0  0
   42.1920   32.8060   39.5040 O   0  0  0  0  0  0  0  0  0  0  0  0
   42.9420   31.9380   38.7710 C   0  0  0  0  0  2  0  0  0  0  0  0
   42.2530   31.6930   37.4580 C   0  0  2  0  0  3  0  0  0  0  0  0
   40.1130   32.5160   36.7970 O   0  0  0  0  0  0  0  0  0  0  0  0
   40.0580   32.8520   35.8790 H   0  0  0  0  0  0  0  0  0  0  0  0
   43.2090   31.6080   36.4440 O   0  0  0  0  0  0  0  0  0  0  0  0
   42.8110   31.0830   35.7040 H   0  0  0  0  0  0  0  0  0  0  0  0
  1  4  1  0  0  0  0
  1  2  2  0  0  0  0
  3  8  1  0  0  0  0
  3  9  1  0  0  0  0
  4  3  2  0  0  0  0
  5  6  2  0  0  0  0
  5  4  1  0  0  0  0
  6  7  1  0  0  0  0
  7 10  1  0  0  0  0
  7  8  2  0  0  0  0
 11  5  1  0  0  0  0
 12 11  2  0  0  0  0
 12 16  1  0  0  0  0
 13 12  1  0  0  0  0
 14 13  2  0  0  0  0
 14 15  1  0  0  0  0
 15 11  1  0  0  0  0
 17 13  1  0  0  0  0
 18 14  1  0  0  0  0
 19  1  1  0  0  0  0
 20 24  1  0  0  0  0
 20 19  2  0  0  0  0
 21 20  1  0  0  0  0
 22 21  1  0  0  0  0
 22 23  2  0  0  0  0
 23 19  1  0  0  0  0
 25 21  1  0  0  0  0
 26 31  1  1  0  0  0
 26 30  1  0  0  0  0
 26 27  1  0  0  0  0
 27 22  1  1  0  0  0
 27 28  1  0  0  0  0
 29 28  1  0  0  0  0
 30 33  1  6  0  0  0
 30 29  1  0  0  0  0
 32 31  1  0  0  0  0
 34 33  1  0  0  0  0
M  END
>  <minimizedAffinity>
-5.87602234

$$$$

 OpenBabel03252503143D

 34 37  0  0  1  0  0  0  0  0999 V2000
   37.3220   28.0110   42.4400 C   0  0  0  0  0  0  0  0  0  0  0  0
   37.3030   28.2940   43.6800 O   0  0  0  0  0  0  0  0  0  0  0  0
   37.0240   25.6190   42.0280 C   0  0  0  0  0  0  0  0  0  0  0  0
   37.8680   26.7390   42.1110 C   0  0  0  0  0  0  0  0  0  0  0  0
   39.2050   26.4890   41.8550 C   0  0  0  0  0  0  0  0  0  0  0  0
   39.6770   25.2680   41.5470 N   0  0  0  0  0  0  0  0  0  0  0  0
   38.8130   24.2130   41.4800 C   0  0  0  0  0  0  0  0  0  0  0  0
   37.5080   24.3920   41.7170 N   0  0  0  0  0  0  0  0  0  0  0  0
   35.9670   25.7600   42.2190 H   0  0  0  0  0  0  0  0  0  0  0  0
   39.1890   23.2260   41.2320 H   0  0  0  0  0  0  0  0  0  0  0  0
   40.1120   27.5580   41.9240 C   0  0  0  0  0  0  0  0  0  0  0  0
   40.7480   28.2320   42.9240 C   0  0  0  0  0  0  0  0  0  0  0  0
   41.5820   29.2370   42.7380 C   0  0  0  0  0  0  0  0  0  0  0  0
   41.7920   29.5880   41.4410 C   0  0  0  0  0  0  0  0  0  0  0  0
   40.7410   28.4170   40.4920 S   0  0  0  0  0  0  0  0  0  0  0  0
   40.4910   27.8490   43.9350 H   0  0  0  0  0  0  0  0  0  0  0  0
   42.0990   29.7890   43.5000 H   0  0  0  0  0  0  0  0  0  0  0  0
   42.4920   30.4490   41.0450 H   0  0  0  0  0  0  0  0  0  0  0  0
   36.8180   28.9170   41.3580 C   0  0  0  0  0  0  0  0  0  0  0  0
   35.6030   28.8210   40.7070 C   0  0  0  0  0  0  0  0  0  0  0  0
   35.5830   29.8380   39.8230 N   0  0  0  0  0  0  0  0  0  0  0  0
   36.7490   30.5280   39.9330 C   0  0  0  0  0  0  0  0  0  0  0  0
   37.5220   29.9560   40.8900 N   0  0  0  0  0  0  0  0  0  0  0  0
   34.8400   28.0720   40.8910 H   0  0  0  0  0  0  0  0  0  0  0  0
   34.7800   30.0360   39.1690 H   0  0  0  0  0  0  0  0  0  0  0  0
   37.6470   31.3300   37.7620 C   0  0  1  0  0  3  0  0  0  0  0  0
   37.0150   31.7200   39.0690 C   0  0  2  0  0  3  0  0  0  0  0  0
   37.8820   32.5200   39.7650 O   0  0  0  0  0  0  0  0  0  0  0  0
   39.0420   32.6910   39.0730 C   0  0  0  0  0  2  0  0  0  0  0  0
   39.0870   31.6940   37.9490 C   0  0  2  0  0  3  0  0  0  0  0  0
   37.5040   29.9600   37.5200 O   0  0  0  0  0  0  0  0  0  0  0  0
   37.2540   29.8430   36.5810 H   0  0  0  0  0  0  0  0  0  0  0  0
   39.6480   32.2950   36.8210 O   0  0  0  0  0  0  0  0  0  0  0  0
   40.0190   31.5710   36.2530 H   0  0  0  0  0  0  0  0  0  0  0  0
  1  2  2  0  0  0  0
  3  4  1  0  0  0  0
  3  9  1  0  0  0  0
  4  1  1  0  0  0  0
  5 11  1  0  0  0  0
  5  4  2  0  0  0  0
  6  5  1  0  0  0  0
  7  6  2  0  0  0  0
  7  8  1  0  0  0  0
  8  3  2  0  0  0  0
 10  7  1  0  0  0  0
 11 12  2  0  0  0  0
 12 16  1  0  0  0  0
 13 12  1  0  0  0  0
 13 17  1  0  0  0  0
 14 13  2  0  0  0  0
 15 14  1  0  0  0  0
 15 11  1  0  0  0  0
 18 14  1  0  0  0  0
 19  1  1  0  0  0  0
 20 24  1  0  0  0  0
 20 19  2  0  0  0  0
 21 22  1  0  0  0  0
 21 20  1  0  0  0  0
 22 23  2  0  0  0  0
 23 19  1  0  0  0  0
 25 21  1  0  0  0  0
 26 31  1  1  0  0  0
 26 30  1  0  0  0  0
 26 27  1  0  0  0  0
 27 28  1  0  0  0  0
 27 22  1  1  0  0  0
 29 28  1  0  0  0  0
 30 33  1  6  0  0  0
 30 29  1  0  0  0  0
 32 31  1  0  0  0  0
 34 33  1  0  0  0  0
M  END
>  <minimizedAffinity>
-5.69048023

$$$$

 OpenBabel03252503143D

 34 37  0  0  1  0  0  0  0  0999 V2000
   37.3630   31.0750   40.4000 C   0  0  0  0  0  0  0  0  0  0  0  0
   36.2990   31.3160   41.0520 O   0  0  0  0  0  0  0  0  0  0  0  0
   37.1470   30.3530   38.0730 C   0  0  0  0  0  0  0  0  0  0  0  0
   37.2660   30.0320   39.4360 C   0  0  0  0  0  0  0  0  0  0  0  0
   37.2790   28.6780   39.7230 C   0  0  0  0  0  0  0  0  0  0  0  0
   37.1850   27.7270   38.7770 N   0  0  0  0  0  0  0  0  0  0  0  0
   37.0700   28.0940   37.4680 C   0  0  0  0  0  0  0  0  0  0  0  0
   37.0520   29.3880   37.1260 N   0  0  0  0  0  0  0  0  0  0  0  0
   37.1310   31.4000   37.7930 H   0  0  0  0  0  0  0  0  0  0  0  0
   36.9940   27.3300   36.7010 H   0  0  0  0  0  0  0  0  0  0  0  0
   37.3910   28.2790   41.0640 C   0  0  0  0  0  0  0  0  0  0  0  0
   36.5170   28.0060   42.0750 C   0  0  0  0  0  0  0  0  0  0  0  0
   36.8710   27.6370   43.2910 C   0  0  0  0  0  0  0  0  0  0  0  0
   38.2100   27.5360   43.5040 C   0  0  0  0  0  0  0  0  0  0  0  0
   38.9490   27.9920   41.8850 S   0  0  0  0  0  0  0  0  0  0  0  0
   35.4550   28.1260   41.7720 H   0  0  0  0  0  0  0  0  0  0  0  0
   36.2120   27.4150   44.1090 H   0  0  0  0  0  0  0  0  0  0  0  0
   38.7460   27.2250   44.5070 H   0  0  0  0  0  0  0  0  0  0  0  0
   38.6570   31.8050   40.5910 C   0  0  0  0  0  0  0  0  0  0  0  0
   38.8060   33.1390   40.9170 C   0  0  0  0  0  0  0  0  0  0  0  0
   40.1350   33.3510   40.9840 N   0  0  0  0  0  0  0  0  0  0  0  0
   40.7730   32.1820   40.7070 C   0  0  0  0  0  0  0  0  0  0  0  0
   39.8540   31.2150   40.4620 N   0  0  0  0  0  0  0  0  0  0  0  0
   38.0010   33.8480   41.0790 H   0  0  0  0  0  0  0  0  0  0  0  0
   40.5740   34.2820   41.2140 H   0  0  0  0  0  0  0  0  0  0  0  0
   42.8270   32.1580   42.1010 C   0  0  1  0  0  3  0  0  0  0  0  0
   42.2660   32.1100   40.7070 C   0  0  2  0  0  3  0  0  0  0  0  0
   42.7100   33.2020   40.0080 O   0  0  0  0  0  0  0  0  0  0  0  0
   43.4910   33.9930   40.7940 C   0  0  0  0  0  2  0  0  0  0  0  0
   43.3320   33.5620   42.2250 C   0  0  2  0  0  3  0  0  0  0  0  0
   41.8360   31.8980   43.0530 O   0  0  0  0  0  0  0  0  0  0  0  0
   42.2110   31.2910   43.7230 H   0  0  0  0  0  0  0  0  0  0  0  0
   44.5680   33.6400   42.8710 O   0  0  0  0  0  0  0  0  0  0  0  0
   44.3900   33.7360   43.8410 H   0  0  0  0  0  0  0  0  0  0  0  0
  1 19  1  0  0  0  0
  1  2  2  0  0  0  0
  3  4  1  0  0  0  0
  4  5  2  0  0  0  0
  4  1  1  0  0  0  0
  5 11  1  0  0  0  0
  6  5  1  0  0  0  0
  7  6  2  0  0  0  0
  8  7  1  0  0  0  0
  8  3  2  0  0  0  0
  9  3  1  0  0  0  0
 10  7  1  0  0  0  0
 11 15  1  0  0  0  0
 11 12  2  0  0  0  0
 12 13  1  0  0  0  0
 13 14  2  0  0  0  0
 13 17  1  0  0  0  0
 14 18  1  0  0  0  0
 15 14  1  0  0  0  0
 16 12  1  0  0  0  0
 19 20  2  0  0  0  0
 20 21  1  0  0  0  0
 20 24  1  0  0  0  0
 21 25  1  0  0  0  0
 22 21  1  0  0  0  0
 23 19  1  0  0  0  0
 23 22  2  0  0  0  0
 26 30  1  0  0  0  0
 26 31  1  1  0  0  0
 27 22  1  1  0  0  0
 27 26  1  0  0  0  0
 28 27  1  0  0  0  0
 28 29  1  0  0  0  0
 29 30  1  0  0  0  0
 30 33  1  1  0  0  0
 31 32  1  0  0  0  0
 33 34  1  0  0  0  0
M  END
>  <minimizedAffinity>
-5.67618847

$$$$

 OpenBabel03252503143D

 34 37  0  0  1  0  0  0  0  0999 V2000
   37.4280   28.7780   42.0890 C   0  0  0  0  0  0  0  0  0  0  0  0
   37.3010   28.5400   43.3320 O   0  0  0  0  0  0  0  0  0  0  0  0
   36.5490   27.1630   40.4780 C   0  0  0  0  0  0  0  0  0  0  0  0
   37.6140   27.6340   41.2630 C   0  0  0  0  0  0  0  0  0  0  0  0
   38.7900   26.9130   41.1540 C   0  0  0  0  0  0  0  0  0  0  0  0
   38.9200   25.8370   40.3590 N   0  0  0  0  0  0  0  0  0  0  0  0
   37.8530   25.4200   39.6170 C   0  0  0  0  0  0  0  0  0  0  0  0
   36.6880   26.0760   39.6790 N   0  0  0  0  0  0  0  0  0  0  0  0
   35.6040   27.6920   40.5260 H   0  0  0  0  0  0  0  0  0  0  0  0
   37.9520   24.5520   38.9740 H   0  0  0  0  0  0  0  0  0  0  0  0
   39.8990   27.3210   41.9130 C   0  0  0  0  0  0  0  0  0  0  0  0
   40.3700   27.0610   43.1660 C   0  0  0  0  0  0  0  0  0  0  0  0
   41.4700   27.5800   43.6750 C   0  0  0  0  0  0  0  0  0  0  0  0
   42.1480   28.4280   42.8560 C   0  0  0  0  0  0  0  0  0  0  0  0
   41.1420   28.4540   41.3190 S   0  0  0  0  0  0  0  0  0  0  0  0
   39.7250   26.3540   43.7330 H   0  0  0  0  0  0  0  0  0  0  0  0
   41.8690   27.3980   44.6550 H   0  0  0  0  0  0  0  0  0  0  0  0
   43.1480   29.0020   43.1020 H   0  0  0  0  0  0  0  0  0  0  0  0
   37.3920   30.1470   41.4820 C   0  0  0  0  0  0  0  0  0  0  0  0
   36.2620   30.8660   41.1440 C   0  0  0  0  0  0  0  0  0  0  0  0
   36.7110   32.0310   40.6370 N   0  0  0  0  0  0  0  0  0  0  0  0
   38.0700   32.0200   40.6670 C   0  0  0  0  0  0  0  0  0  0  0  0
   38.4990   30.8460   41.1940 N   0  0  0  0  0  0  0  0  0  0  0  0
   35.2370   30.5350   41.2700 H   0  0  0  0  0  0  0  0  0  0  0  0
   36.0830   32.8020   40.2840 H   0  0  0  0  0  0  0  0  0  0  0  0
   39.0440   33.1340   38.6730 C   0  0  1  0  0  3  0  0  0  0  0  0
   38.8540   33.1900   40.1640 C   0  0  2  0  0  3  0  0  0  0  0  0
   40.0790   33.1310   40.7740 O   0  0  0  0  0  0  0  0  0  0  0  0
   41.0730   33.0160   39.8510 C   0  0  0  0  0  2  0  0  0  0  0  0
   40.4610   32.6770   38.5200 C   0  0  2  0  0  3  0  0  0  0  0  0
   38.1590   32.2240   38.0850 O   0  0  0  0  0  0  0  0  0  0  0  0
   37.7960   32.6360   37.2750 H   0  0  0  0  0  0  0  0  0  0  0  0
   41.1460   33.3570   37.5110 O   0  0  0  0  0  0  0  0  0  0  0  0
   41.0090   32.8530   36.6680 H   0  0  0  0  0  0  0  0  0  0  0  0
  1  2  2  0  0  0  0
  3  9  1  0  0  0  0
  3  4  1  0  0  0  0
  4  1  1  0  0  0  0
  5  4  2  0  0  0  0
  5 11  1  0  0  0  0
  6  5  1  0  0  0  0
  7  8  1  0  0  0  0
  7  6  2  0  0  0  0
  8  3  2  0  0  0  0
 10  7  1  0  0  0  0
 11 12  2  0  0  0  0
 12 13  1  0  0  0  0
 12 16  1  0  0  0  0
 13 17  1  0  0  0  0
 14 18  1  0  0  0  0
 14 13  2  0  0  0  0
 15 11  1  0  0  0  0
 15 14  1  0  0  0  0
 19  1  1  0  0  0  0
 20 24  1  0  0  0  0
 20 19  2  0  0  0  0
 21 22  1  0  0  0  0
 21 20  1  0  0  0  0
 22 23  2  0  0  0  0
 23 19  1  0  0  0  0
 25 21  1  0  0  0  0
 26 31  1  6  0  0  0
 26 27  1  0  0  0  0
 27 22  1  1  0  0  0
 27 28  1  0  0  0  0
 29 28  1  0  0  0  0
 30 33  1  6  0  0  0
 30 26  1  0  0  0  0
 30 29  1  0  0  0  0
 32 31  1  0  0  0  0
 34 33  1  0  0  0  0
M  END
>  <minimizedAffinity>
-5.50557613

$$$$

 OpenBabel03252503143D

 34 37  0  0  1  0  0  0  0  0999 V2000
   37.9490   31.4860   40.1360 C   0  0  0  0  0  0  0  0  0  0  0  0
   36.9880   32.2220   40.5280 O   0  0  0  0  0  0  0  0  0  0  0  0
   39.2310   30.4410   41.9380 C   0  0  0  0  0  0  0  0  0  0  0  0
   38.2280   30.3580   40.9570 C   0  0  0  0  0  0  0  0  0  0  0  0
   37.5810   29.1370   40.8800 C   0  0  0  0  0  0  0  0  0  0  0  0
   37.8790   28.0960   41.6780 N   0  0  0  0  0  0  0  0  0  0  0  0
   38.8630   28.2310   42.6140 C   0  0  0  0  0  0  0  0  0  0  0  0
   39.5250   29.3870   42.7380 N   0  0  0  0  0  0  0  0  0  0  0  0
   39.7690   31.3760   42.0400 H   0  0  0  0  0  0  0  0  0  0  0  0
   39.1070   27.3950   43.2610 H   0  0  0  0  0  0  0  0  0  0  0  0
   36.5690   28.9750   39.9200 C   0  0  0  0  0  0  0  0  0  0  0  0
   35.2210   29.1800   39.8820 C   0  0  0  0  0  0  0  0  0  0  0  0
   34.4580   28.9470   38.8320 C   0  0  0  0  0  0  0  0  0  0  0  0
   35.1050   28.4700   37.7350 C   0  0  0  0  0  0  0  0  0  0  0  0
   36.8600   28.3670   38.2680 S   0  0  0  0  0  0  0  0  0  0  0  0
   34.8160   29.5700   40.8400 H   0  0  0  0  0  0  0  0  0  0  0  0
   33.3960   29.0970   38.7670 H   0  0  0  0  0  0  0  0  0  0  0  0
   34.6240   28.1940   36.6940 H   0  0  0  0  0  0  0  0  0  0  0  0
   38.7630   31.7420   38.9060 C   0  0  0  0  0  0  0  0  0  0  0  0
   38.2840   31.8770   37.6170 C   0  0  0  0  0  0  0  0  0  0  0  0
   39.3670   32.0950   36.8470 N   0  0  0  0  0  0  0  0  0  0  0  0
   40.4700   32.0930   37.6420 C   0  0  0  0  0  0  0  0  0  0  0  0
   40.0970   31.8730   38.9280 N   0  0  0  0  0  0  0  0  0  0  0  0
   37.2430   31.8150   37.3160 H   0  0  0  0  0  0  0  0  0  0  0  0
   39.3300   32.2390   35.8030 H   0  0  0  0  0  0  0  0  0  0  0  0
   42.4840   31.0150   36.6710 C   0  0  1  0  0  3  0  0  0  0  0  0
   41.8300   32.3110   37.0610 C   0  0  2  0  0  3  0  0  0  0  0  0
   42.5790   32.9140   38.0370 O   0  0  0  0  0  0  0  0  0  0  0  0
   43.6570   32.1480   38.3620 C   0  0  0  0  0  2  0  0  0  0  0  0
   43.4720   30.7790   37.7710 C   0  0  2  0  0  3  0  0  0  0  0  0
   41.5500   29.9770   36.6070 O   0  0  0  0  0  0  0  0  0  0  0  0
   41.7340   29.4520   35.8020 H   0  0  0  0  0  0  0  0  0  0  0  0
   44.7020   30.3070   37.3060 O   0  0  0  0  0  0  0  0  0  0  0  0
   44.6520   29.3170   37.2880 H   0  0  0  0  0  0  0  0  0  0  0  0
  1  2  2  0  0  0  0
  1  4  1  0  0  0  0
  3  9  1  0  0  0  0
  3  8  1  0  0  0  0
  4  3  2  0  0  0  0
  5  4  1  0  0  0  0
  5  6  2  0  0  0  0
  6  7  1  0  0  0  0
  7  8  2  0  0  0  0
  7 10  1  0  0  0  0
 11  5  1  0  0  0  0
 12 11  2  0  0  0  0
 12 16  1  0  0  0  0
 13 12  1  0  0  0  0
 14 15  1  0  0  0  0
 14 13  2  0  0  0  0
 15 11  1  0  0  0  0
 17 13  1  0  0  0  0
 18 14  1  0  0  0  0
 19 23  1  0  0  0  0
 19  1  1  0  0  0  0
 20 19  2  0  0  0  0
 21 20  1  0  0  0  0
 21 22  1  0  0  0  0
 22 23  2  0  0  0  0
 24 20  1  0  0  0  0
 25 21  1  0  0  0  0
 26 31  1  1  0  0  0
 26 27  1  0  0  0  0
 26 30  1  0  0  0  0
 27 22  1  1  0  0  0
 27 28  1  0  0  0  0
 28 29  1  0  0  0  0
 30 33  1  6  0  0  0
 30 29  1  0  0  0  0
 32 31  1  0  0  0  0
 34 33  1  0  0  0  0
M  END
>  <minimizedAffinity>
-5.48108912

$$$$

 OpenBabel03252503143D

 34 37  0  0  1  0  0  0  0  0999 V2000
   37.2770   27.9810   41.7130 C   0  0  0  0  0  0  0  0  0  0  0  0
   36.5730   27.7150   42.7380 O   0  0  0  0  0  0  0  0  0  0  0  0
   36.1200   27.5200   39.6080 C   0  0  0  0  0  0  0  0  0  0  0  0
   37.0560   27.1420   40.5850 C   0  0  0  0  0  0  0  0  0  0  0  0
   37.7020   25.9400   40.3480 C   0  0  0  0  0  0  0  0  0  0  0  0
   37.4610   25.1790   39.2660 N   0  0  0  0  0  0  0  0  0  0  0  0
   36.5400   25.5930   38.3480 C   0  0  0  0  0  0  0  0  0  0  0  0
   35.8820   26.7460   38.5210 N   0  0  0  0  0  0  0  0  0  0  0  0
   35.5860   28.4530   39.7460 H   0  0  0  0  0  0  0  0  0  0  0  0
   36.3420   24.9820   37.4740 H   0  0  0  0  0  0  0  0  0  0  0  0
   38.6490   25.4930   41.2830 C   0  0  0  0  0  0  0  0  0  0  0  0
   38.6230   24.6990   42.3920 C   0  0  0  0  0  0  0  0  0  0  0  0
   39.6760   24.4140   43.1330 C   0  0  0  0  0  0  0  0  0  0  0  0
   40.8460   24.9730   42.7240 C   0  0  0  0  0  0  0  0  0  0  0  0
   40.3780   25.9300   41.2270 S   0  0  0  0  0  0  0  0  0  0  0  0
   37.6080   24.3060   42.6180 H   0  0  0  0  0  0  0  0  0  0  0  0
   39.6920   23.7950   44.0100 H   0  0  0  0  0  0  0  0  0  0  0  0
   41.9030   24.8550   43.2320 H   0  0  0  0  0  0  0  0  0  0  0  0
   38.2830   29.0890   41.6410 C   0  0  0  0  0  0  0  0  0  0  0  0
   38.7380   29.8540   42.6980 C   0  0  0  0  0  0  0  0  0  0  0  0
   39.6250   30.7170   42.1660 N   0  0  0  0  0  0  0  0  0  0  0  0
   39.7060   30.4840   40.8290 C   0  0  0  0  0  0  0  0  0  0  0  0
   38.8700   29.4680   40.4980 N   0  0  0  0  0  0  0  0  0  0  0  0
   38.4270   29.7580   43.7330 H   0  0  0  0  0  0  0  0  0  0  0  0
   40.1510   31.4420   42.7230 H   0  0  0  0  0  0  0  0  0  0  0  0
   39.8560   32.2650   39.1060 C   0  0  1  0  0  3  0  0  0  0  0  0
   40.6190   31.2960   39.9660 C   0  0  2  0  0  3  0  0  0  0  0  0
   41.2850   30.4100   39.1600 O   0  0  0  0  0  0  0  0  0  0  0  0
   41.0310   30.6670   37.8480 C   0  0  0  0  0  2  0  0  0  0  0  0
   39.8710   31.6180   37.7550 C   0  0  2  0  0  3  0  0  0  0  0  0
   38.5460   32.4280   39.5670 O   0  0  0  0  0  0  0  0  0  0  0  0
   38.3300   33.3820   39.5370 H   0  0  0  0  0  0  0  0  0  0  0  0
   40.1000   32.5270   36.7200 O   0  0  0  0  0  0  0  0  0  0  0  0
   39.2170   32.8680   36.4240 H   0  0  0  0  0  0  0  0  0  0  0  0
  1  2  2  0  0  0  0
  3  9  1  0  0  0  0
  3  4  1  0  0  0  0
  4  1  1  0  0  0  0
  5  4  2  0  0  0  0
  5 11  1  0  0  0  0
  6  5  1  0  0  0  0
  7  8  1  0  0  0  0
  7  6  2  0  0  0  0
  8  3  2  0  0  0  0
 10  7  1  0  0  0  0
 11 12  2  0  0  0  0
 12 16  1  0  0  0  0
 12 13  1  0  0  0  0
 13 17  1  0  0  0  0
 14 13  2  0  0  0  0
 14 18  1  0  0  0  0
 15 11  1  0  0  0  0
 15 14  1  0  0  0  0
 19  1  1  0  0  0  0
 19 20  2  0  0  0  0
 20 24  1  0  0  0  0
 21 20  1  0  0  0  0
 21 25  1  0  0  0  0
 22 21  1  0  0  0  0
 23 22  2  0  0  0  0
 23 19  1  0  0  0  0
 26 31  1  1  0  0  0
 26 27  1  0  0  0  0
 27 22  1  1  0  0  0
 28 27  1  0  0  0  0
 29 28  1  0  0  0  0
 30 33  1  6  0  0  0
 30 29  1  0  0  0  0
 30 26  1  0  0  0  0
 32 31  1  0  0  0  0
 34 33  1  0  0  0  0
M  END
>  <minimizedAffinity>
-5.4532938

$$$$

 OpenBabel03252503143D

 34 37  0  0  1  0  0  0  0  0999 V2000
   39.4330   32.4500   40.6430 C   0  0  0  0  0  0  0  0  0  0  0  0
   38.4300   33.2130   40.8130 O   0  0  0  0  0  0  0  0  0  0  0  0
   41.3320   33.7140   39.7600 C   0  0  0  0  0  0  0  0  0  0  0  0
   40.2880   32.7950   39.5590 C   0  0  0  0  0  0  0  0  0  0  0  0
   40.1860   32.2910   38.2730 C   0  0  0  0  0  0  0  0  0  0  0  0
   41.0180   32.6470   37.2780 N   0  0  0  0  0  0  0  0  0  0  0  0
   42.0160   33.5440   37.5280 C   0  0  0  0  0  0  0  0  0  0  0  0
   42.1650   34.0660   38.7510 N   0  0  0  0  0  0  0  0  0  0  0  0
   41.4560   34.1380   40.7490 H   0  0  0  0  0  0  0  0  0  0  0  0
   42.6890   33.8340   36.7290 H   0  0  0  0  0  0  0  0  0  0  0  0
   39.1630   31.3710   37.9930 C   0  0  0  0  0  0  0  0  0  0  0  0
   37.8600   31.4530   37.6010 C   0  0  0  0  0  0  0  0  0  0  0  0
   37.0730   30.4150   37.3960 C   0  0  0  0  0  0  0  0  0  0  0  0
   37.6470   29.1990   37.6010 C   0  0  0  0  0  0  0  0  0  0  0  0
   39.3670   29.6020   38.1030 S   0  0  0  0  0  0  0  0  0  0  0  0
   37.5130   32.5010   37.4690 H   0  0  0  0  0  0  0  0  0  0  0  0
   36.0450   30.4430   37.0880 H   0  0  0  0  0  0  0  0  0  0  0  0
   37.1340   28.1450   37.4770 H   0  0  0  0  0  0  0  0  0  0  0  0
   39.7420   31.2570   41.4950 C   0  0  0  0  0  0  0  0  0  0  0  0
   40.9660   30.9390   42.0510 C   0  0  0  0  0  0  0  0  0  0  0  0
   40.7700   29.7920   42.7300 N   0  0  0  0  0  0  0  0  0  0  0  0
   39.4690   29.4240   42.5890 C   0  0  0  0  0  0  0  0  0  0  0  0
   38.8240   30.3360   41.8200 N   0  0  0  0  0  0  0  0  0  0  0  0
   41.8800   31.5140   41.9470 H   0  0  0  0  0  0  0  0  0  0  0  0
   41.5240   29.2880   43.2680 H   0  0  0  0  0  0  0  0  0  0  0  0
   38.8910   27.0310   42.2670 C   0  0  1  0  0  3  0  0  0  0  0  0
   38.9540   28.1780   43.2370 C   0  0  2  0  0  3  0  0  0  0  0  0
   37.6880   28.4620   43.6770 O   0  0  0  0  0  0  0  0  0  0  0  0
   36.7760   27.6410   43.0870 C   0  0  0  0  0  2  0  0  0  0  0  0
   37.4350   26.9350   41.9350 C   0  0  2  0  0  3  0  0  0  0  0  0
   39.6500   27.2950   41.1230 O   0  0  0  0  0  0  0  0  0  0  0  0
   40.1520   26.4850   40.8980 H   0  0  0  0  0  0  0  0  0  0  0  0
   36.9750   25.6180   41.8770 O   0  0  0  0  0  0  0  0  0  0  0  0
   37.0960   25.3020   40.9440 H   0  0  0  0  0  0  0  0  0  0  0  0
  1  2  2  0  0  0  0
  1 19  1  0  0  0  0
  3  9  1  0  0  0  0
  4  3  1  0  0  0  0
  4  1  1  0  0  0  0
  5  4  2  0  0  0  0
  6  7  2  0  0  0  0
  6  5  1  0  0  0  0
  7  8  1  0  0  0  0
  8  3  2  0  0  0  0
 10  7  1  0  0  0  0
 11 15  1  0  0  0  0
 11  5  1  0  0  0  0
 12 11  2  0  0  0  0
 13 12  1  0  0  0  0
 13 14  2  0  0  0  0
 14 15  1  0  0  0  0
 16 12  1  0  0  0  0
 17 13  1  0  0  0  0
 18 14  1  0  0  0  0
 19 23  1  0  0  0  0
 19 20  2  0  0  0  0
 20 21  1  0  0  0  0
 21 25  1  0  0  0  0
 22 21  1  0  0  0  0
 23 22  2  0  0  0  0
 24 20  1  0  0  0  0
 26 31  1  6  0  0  0
 26 27  1  0  0  0  0
 27 22  1  6  0  0  0
 27 28  1  0  0  0  0
 29 28  1  0  0  0  0
 30 33  1  1  0  0  0
 30 26  1  0  0  0  0
 30 29  1  0  0  0  0
 32 31  1  0  0  0  0
 34 33  1  0  0  0  0
M  END
>  <minimizedAffinity>
-5.39167976

$$$$
