
 OpenBabel03252503243D

 47 52  0  0  1  0  0  0  0  0999 V2000
   47.2160   34.0410   42.7790 C   0  0  0  0  0  0  0  0  0  0  0  0
   46.8510   33.0420   41.8200 C   0  0  0  0  0  0  0  0  0  0  0  0
   46.1370   31.9610   42.2640 C   0  0  0  0  0  0  0  0  0  0  0  0
   45.8200   31.9050   43.5880 N   0  0  0  0  0  0  0  0  0  0  0  0
   46.1750   32.8600   44.4800 C   0  0  0  0  0  0  0  0  0  0  0  0
   46.8740   33.9280   44.0700 N   0  0  0  0  0  0  0  0  0  0  0  0
   47.7870   34.9260   42.4750 H   0  0  0  0  0  0  0  0  0  0  0  0
   45.8490   31.2010   41.5820 H   0  0  0  0  0  0  0  0  0  0  0  0
   47.2730   33.2240   40.3990 C   0  0  1  0  0  0  0  0  0  0  0  0
   48.0110   34.4160   39.9880 C   0  0  0  0  0  0  0  0  0  0  0  0
   48.7660   33.1440   40.1220 C   0  0  2  0  0  0  0  0  0  0  0  0
   46.6230   32.7060   39.6730 H   0  0  0  0  0  0  0  0  0  0  0  0
   48.1680   35.2040   40.7970 H   0  0  0  0  0  0  0  0  0  0  0  0
   47.6960   34.8870   39.0670 H   0  0  0  0  0  0  0  0  0  0  0  0
   49.4140   32.9390   40.9900 H   0  0  0  0  0  0  0  0  0  0  0  0
   49.1100   32.4260   38.8630 C   0  0  0  0  0  0  0  0  0  0  0  0
   49.7990   31.2260   38.8050 C   0  0  0  0  0  0  0  0  0  0  0  0
   50.0710   30.6170   37.5920 C   0  0  0  0  0  0  0  0  0  0  0  0
   49.6600   31.1940   36.4130 C   0  0  0  0  0  0  0  0  0  0  0  0
   49.9040   30.6090   35.2250 N   0  0  0  0  0  0  0  0  0  0  0  0
   49.4760   31.1970   34.0730 C   0  0  0  0  0  0  0  0  0  0  0  0
   48.7760   32.4100   34.0250 C   0  0  0  0  0  0  0  0  0  0  0  0
   48.5250   33.0110   35.2450 C   0  0  0  0  0  0  0  0  0  0  0  0
   48.9640   32.4040   36.4150 C   0  0  0  0  0  0  0  0  0  0  0  0
   48.7120   32.9820   37.6440 C   0  0  0  0  0  0  0  0  0  0  0  0
   50.1030   30.8100   39.7650 H   0  0  0  0  0  0  0  0  0  0  0  0
   50.6150   29.6760   37.6070 H   0  0  0  0  0  0  0  0  0  0  0  0
   49.6840   30.7060   33.1270 H   0  0  0  0  0  0  0  0  0  0  0  0
   48.4730   32.8110   33.0690 H   0  0  0  0  0  0  0  0  0  0  0  0
   47.9870   33.9490   35.2590 H   0  0  0  0  0  0  0  0  0  0  0  0
   48.1760   33.9180   37.5570 H   0  0  0  0  0  0  0  0  0  0  0  0
   45.7650   32.6840   45.8980 C   0  0  2  0  0  0  0  0  0  0  0  0
   46.5690   33.1910   46.9920 C   0  0  0  0  0  0  0  0  0  0  0  0
   46.6900   31.7150   46.6920 C   0  0  1  0  0  0  0  0  0  0  0  0
   44.6940   32.3840   46.0480 H   0  0  0  0  0  0  0  0  0  0  0  0
   46.1380   33.4580   47.9580 H   0  0  0  0  0  0  0  0  0  0  0  0
   47.4510   33.8370   46.7200 H   0  0  0  0  0  0  0  0  0  0  0  0
   47.6300   31.4110   46.1820 H   0  0  0  0  0  0  0  0  0  0  0  0
   46.7530   29.3740   47.4030 C   0  0  1  0  0  0  0  0  0  0  0  0
   46.0730   30.7160   47.6090 C   0  0  1  0  0  0  0  0  0  0  0  0
   46.4450   31.0270   48.9100 O   0  0  0  0  0  0  0  0  0  0  0  0
   47.8110   30.7760   48.9490 C   0  0  0  0  0  0  0  0  0  0  0  0
   48.1370   29.7030   47.9630 C   0  0  1  0  0  0  0  0  0  0  0  0
   46.1650   28.4110   48.2220 O   0  0  0  0  0  0  0  0  0  0  0  0
   46.6990   27.6030   48.2900 H   0  0  0  0  0  0  0  0  0  0  0  0
   48.7500   28.6190   48.5580 O   0  0  0  0  0  0  0  0  0  0  0  0
   48.7110   28.7400   49.5560 H   0  0  0  0  0  0  0  0  0  0  0  0
  1  6  1  0  0  0  0
  2  3  1  0  0  0  0
  2  1  2  0  0  0  0
  3  4  2  0  0  0  0
  4  5  1  0  0  0  0
  5 32  1  0  0  0  0
  6  5  2  0  0  0  0
  7  1  1  0  0  0  0
  8  3  1  0  0  0  0
  9 12  1  6  0  0  0
  9  2  1  0  0  0  0
 10 11  1  0  0  0  0
 10  9  1  0  0  0  0
 10 13  1  0  0  0  0
 11  9  1  0  0  0  0
 11 15  1  1  0  0  0
 14 10  1  0  0  0  0
 16 11  1  0  0  0  0
 17 16  1  0  0  0  0
 17 26  1  0  0  0  0
 18 27  1  0  0  0  0
 18 17  2  0  0  0  0
 19 24  1  0  0  0  0
 19 18  1  0  0  0  0
 20 19  2  0  0  0  0
 21 20  1  0  0  0  0
 22 21  2  0  0  0  0
 22 23  1  0  0  0  0
 23 30  1  0  0  0  0
 23 24  2  0  0  0  0
 24 25  1  0  0  0  0
 25 16  2  0  0  0  0
 28 21  1  0  0  0  0
 29 22  1  0  0  0  0
 31 25  1  0  0  0  0
 32 35  1  1  0  0  0
 32 34  1  0  0  0  0
 32 33  1  0  0  0  0
 33 36  1  0  0  0  0
 34 38  1  6  0  0  0
 34 33  1  0  0  0  0
 34 40  1  0  0  0  0
 37 33  1  0  0  0  0
 39 40  1  0  0  0  0
 39 43  1  0  0  0  0
 39 44  1  1  0  0  0
 40 41  1  1  0  0  0
 41 42  1  0  0  0  0
 43 46  1  1  0  0  0
 43 42  1  0  0  0  0
 44 45  1  0  0  0  0
 46 47  1  0  0  0  0
M  END
>  <minimizedAffinity>
-5.42478704

>  <minimizedRMSD>
3.31265163

$$$$
