REMARK  Name = 
REMARK  5 active torsions:
REMARK  status: ('A' for Active; 'I' for Inactive)
REMARK    1  A    between atoms: C_3  and  C_7
REMARK    2  A    between atoms: C_5  and  C_10
REMARK    3  A    between atoms: C_14  and  C_28
REMARK    4  A    between atoms: O_26  and  C_27
REMARK    5  A    between atoms: C_31  and  O_32
REMARK                            x       y       z     vdW  Elec       q    Type
REMARK                         _______ _______ _______ _____ _____    ______ ____
ROOT
ATOM      1  C   UNL     1      46.025  33.000  46.485  0.00  0.00    +0.000 A 
ATOM      2  C   UNL     1      45.210  32.940  47.596  0.00  0.00    +0.000 A 
ATOM      3  C   UNL     1      45.481  32.016  48.595  0.00  0.00    +0.000 A 
ATOM      4  C   UNL     1      46.574  31.185  48.427  0.00  0.00    +0.000 A 
ATOM      5  C   UNL     1      47.358  31.292  47.287  0.00  0.00    +0.000 A 
ATOM      6  N   UNL     1      47.094  32.195  46.310  0.00  0.00    +0.000 NA
ATOM      7  H   UNL     1      44.351  33.589  47.735  0.00  0.00    +0.000 HD
ATOM      8  H   UNL     1      44.837  31.973  49.467  0.00  0.00    +0.000 HD
ATOM      9  H   UNL     1      46.798  30.469  49.184  0.00  0.00    +0.000 HD
ENDROOT
BRANCH   1  14
ATOM     10  C   UNL     1      44.531  35.833  44.658  0.00  0.00    +0.000 A 
ATOM     11  C   UNL     1      45.175  35.795  43.399  0.00  0.00    +0.000 A 
ATOM     12  C   UNL     1      46.103  34.793  43.236  0.00  0.00    +0.000 A 
ATOM     13  N   UNL     1      46.371  33.899  44.244  0.00  0.00    +0.000 NA
ATOM     14  C   UNL     1      45.716  33.980  45.448  0.00  0.00    +0.000 A 
ATOM     15  N   UNL     1      44.804  34.947  45.638  0.00  0.00    +0.000 NA
ATOM     16  H   UNL     1      43.784  36.620  44.823  0.00  0.00    +0.000 HD
ATOM     17  H   UNL     1      44.940  36.515  42.627  0.00  0.00    +0.000 HD
BRANCH  12  18
ATOM     18  C   UNL     1      46.822  34.641  41.929  0.00  0.00    +0.000 C 
ATOM     19  C   UNL     1      48.181  35.341  41.931  0.00  0.00    +0.000 C 
ATOM     20  C   UNL     1      47.983  33.793  41.860  0.00  0.00    +0.000 C 
ATOM     21  H   UNL     1      46.197  34.839  41.028  0.00  0.00    +0.000 HD
ATOM     22  H   UNL     1      48.578  35.695  42.904  0.00  0.00    +0.000 HD
ATOM     23  H   UNL     1      48.436  35.849  41.004  0.00  0.00    +0.000 HD
ATOM     24  H   UNL     1      48.352  33.218  42.739  0.00  0.00    +0.000 HD
ATOM     25  H   UNL     1      48.292  33.373  40.886  0.00  0.00    +0.000 HD
ENDBRANCH  12  18
ENDBRANCH   1  14
BRANCH   5  27
ATOM     26  C   UNL     1      48.301  29.226  46.230  0.00  0.00    +0.000 C 
ATOM     27  C   UNL     1      48.513  30.382  47.156  0.00  0.00    +0.000 C 
ATOM     28  O   UNL     1      48.860  29.753  48.346  0.00  0.00    +0.000 OA
ATOM     29  C   UNL     1      49.836  28.860  47.966  0.00  0.00    +0.000 C 
ATOM     30  C   UNL     1      49.541  28.386  46.569  0.00  0.00    +0.000 C 
BRANCH  26  31
ATOM     31  O   UNL     1      47.176  28.477  46.472  0.00  0.00    +0.000 OA
ATOM     32  H   UNL     1      46.381  28.731  45.941  0.00  0.00    +0.000 HD
ENDBRANCH  26  31
BRANCH  30  33
ATOM     33  O   UNL     1      50.633  28.771  45.767  0.00  0.00    +0.000 OA
ATOM     34  H   UNL     1      50.587  29.741  45.570  0.00  0.00    +0.000 HD
ENDBRANCH  30  33
ENDBRANCH   5  27
TORSDOF 5
