
 OpenBabel03242521043D

 34 37  0  0  1  0  0  0  0  0999 V2000
   46.6820   34.6050   42.1740 C   0  0  0  0  0  0  0  0  0  0  0  0
   47.7910   35.3380   41.8120 C   0  0  0  0  0  0  0  0  0  0  0  0
   48.5160   35.1660   40.6550 C   0  0  0  0  0  0  0  0  0  0  0  0
   48.1150   34.1870   39.7730 C   0  0  0  0  0  0  0  0  0  0  0  0
   47.0140   33.4720   40.1480 C   0  0  0  0  0  0  0  0  0  0  0  0
   46.3430   33.6720   41.2800 N   0  0  0  0  0  0  0  0  0  0  0  0
   48.1430   36.1300   42.4900 H   0  0  0  0  0  0  0  0  0  0  0  0
   49.3880   35.8050   40.4610 H   0  0  0  0  0  0  0  0  0  0  0  0
   48.7010   34.0700   38.8710 H   0  0  0  0  0  0  0  0  0  0  0  0
   44.4650   35.9540   44.9010 C   0  0  0  0  0  0  0  0  0  0  0  0
   45.0910   35.8860   43.6520 C   0  0  0  0  0  0  0  0  0  0  0  0
   45.9480   34.8290   43.4160 C   0  0  0  0  0  0  0  0  0  0  0  0
   46.1360   33.9180   44.4030 N   0  0  0  0  0  0  0  0  0  0  0  0
   45.5160   34.0070   45.6060 C   0  0  0  0  0  0  0  0  0  0  0  0
   44.6780   35.0430   45.8310 N   0  0  0  0  0  0  0  0  0  0  0  0
   43.7990   36.7910   45.0600 H   0  0  0  0  0  0  0  0  0  0  0  0
   44.9640   36.5870   42.8540 H   0  0  0  0  0  0  0  0  0  0  0  0
   45.7650   33.1970   46.3060 H   0  0  0  0  0  0  0  0  0  0  0  0
   46.5500   32.4020   39.2200 C   0  0  2  0  0  0  0  0  0  0  0  0
   47.5620   31.3300   38.9160 C   0  0  0  0  0  0  0  0  0  0  0  0
   47.1110   32.3140   37.8760 C   0  0  1  0  0  0  0  0  0  0  0  0
   45.5190   31.9810   39.3940 H   0  0  0  0  0  0  0  0  0  0  0  0
   48.5870   31.4200   39.3610 H   0  0  0  0  0  0  0  0  0  0  0  0
   47.2420   30.2910   38.7660 H   0  0  0  0  0  0  0  0  0  0  0  0
   47.8930   33.0470   37.5540 H   0  0  0  0  0  0  0  0  0  0  0  0
   45.8040   33.0740   35.9360 C   0  0  1  0  0  0  0  0  0  0  0  0
   46.1810   31.8770   36.7910 C   0  0  1  0  0  0  0  0  0  0  0  0
   46.7600   31.0230   35.8660 O   0  0  0  0  0  0  0  0  0  0  0  0
   45.8820   31.0110   34.7910 C   0  0  0  0  0  0  0  0  0  0  0  0
   45.3310   32.4130   34.6650 C   0  0  2  0  0  0  0  0  0  0  0  0
   44.8120   33.8510   36.5250 O   0  0  0  0  0  0  0  0  0  0  0  0
   45.1870   34.7660   36.6260 H   0  0  0  0  0  0  0  0  0  0  0  0
   45.8460   33.0310   33.5160 O   0  0  0  0  0  0  0  0  0  0  0  0
   45.6790   33.9890   33.5210 H   0  0  0  0  0  0  0  0  0  0  0  0
  1 12  1  0  0  0  0
  2  1  1  0  0  0  0
  2  7  1  0  0  0  0
  3  2  2  0  0  0  0
  4  5  2  0  0  0  0
  4  3  1  0  0  0  0
  5  6  1  0  0  0  0
  6  1  2  0  0  0  0
  8  3  1  0  0  0  0
  9  4  1  0  0  0  0
 10 16  1  0  0  0  0
 10 15  1  0  0  0  0
 11 10  2  0  0  0  0
 12 11  1  0  0  0  0
 12 13  2  0  0  0  0
 13 14  1  0  0  0  0
 14 15  2  0  0  0  0
 14 18  1  0  0  0  0
 17 11  1  0  0  0  0
 19 22  1  1  0  0  0
 19  5  1  0  0  0  0
 20 19  1  0  0  0  0
 20 23  1  0  0  0  0
 21 25  1  6  0  0  0
 21 20  1  0  0  0  0
 21 19  1  0  0  0  0
 24 20  1  0  0  0  0
 26 31  1  1  0  0  0
 26 27  1  0  0  0  0
 27 28  1  6  0  0  0
 27 21  1  0  0  0  0
 29 28  1  0  0  0  0
 30 33  1  6  0  0  0
 30 29  1  0  0  0  0
 30 26  1  0  0  0  0
 31 32  1  0  0  0  0
 33 34  1  0  0  0  0
M  END
>  <minimizedAffinity>
-6.47267532

>  <minimizedRMSD>
0.924988627

$$$$
