
 OpenBabel03252501393D

 35 37  0  0  1  0  0  0  0  0999 V2000
   38.0400   29.8930   42.5200 Cl  0  0  0  0  0  0  0  0  0  0  0  0
   37.3770   30.0210   40.9000 C   0  0  0  0  0  0  0  0  0  0  0  0
   37.4840   31.1760   40.1290 C   0  0  0  0  0  0  0  0  0  0  0  0
   36.9420   31.1920   38.8830 C   0  0  0  0  0  0  0  0  0  0  0  0
   36.2790   30.1300   38.3050 C   0  0  0  0  0  0  0  0  0  0  0  0
   36.1620   28.9600   39.0610 C   0  0  0  0  0  0  0  0  0  0  0  0
   35.3360   27.5550   38.4090 Cl  0  0  0  0  0  0  0  0  0  0  0  0
   36.7180   28.9530   40.3340 C   0  0  0  0  0  0  0  0  0  0  0  0
   37.0490   32.1130   38.3220 H   0  0  0  0  0  0  0  0  0  0  0  0
   35.8610   30.1880   37.3010 H   0  0  0  0  0  0  0  0  0  0  0  0
   37.8180   26.8690   40.8640 C   0  0  1  0  0  3  0  0  0  0  0  0
   36.6020   27.7070   41.1590 C   0  0  1  0  0  3  0  0  0  0  0  0
   36.6480   28.0210   42.5210 O   0  0  0  0  0  0  0  0  0  0  0  0
   37.4000   27.0460   43.1530 C   0  0  0  0  0  2  0  0  0  0  0  0
   38.5070   26.7020   42.1930 C   0  0  1  0  0  3  0  0  0  0  0  0
   37.4250   25.6100   40.3730 O   0  0  0  0  0  0  0  0  0  0  0  0
   38.1910   25.1190   40.0110 H   0  0  0  0  0  0  0  0  0  0  0  0
   38.9610   25.3750   42.3550 O   0  0  0  0  0  0  0  0  0  0  0  0
   39.6290   25.4120   43.0930 H   0  0  0  0  0  0  0  0  0  0  0  0
   38.1520   32.2380   40.7230 O   0  0  0  0  0  0  0  0  0  0  0  0
   39.2980   32.7410   40.0870 C   0  0  0  0  0  0  0  0  0  0  0  0
   39.5140   33.9690   39.7950 O   0  0  0  0  0  0  0  0  0  0  0  0
   40.3640   31.8780   39.6950 N   0  0  0  0  0  0  0  0  0  0  0  0
   40.3350   30.8690   39.8720 H   0  0  0  0  0  0  0  0  0  0  0  0
   41.3960   32.6840   39.0530 C   0  0  0  0  0  0  0  0  0  0  0  0
   41.4110   33.0070   37.7150 C   0  0  0  0  0  0  0  0  0  0  0  0
   42.4690   33.7830   37.2790 C   0  0  0  0  0  0  0  0  0  0  0  0
   43.4000   34.1610   38.1910 N   0  0  0  0  0  0  0  0  0  0  0  0
   43.3410   33.8190   39.4840 C   0  0  0  0  0  0  0  0  0  0  0  0
   42.3160   33.0620   39.9350 N   0  0  0  0  0  0  0  0  0  0  0  0
   42.4800   34.0350   36.2330 H   0  0  0  0  0  0  0  0  0  0  0  0
   44.1350   34.1720   40.1300 H   0  0  0  0  0  0  0  0  0  0  0  0
   40.3500   32.5190   36.9180 N   0  0  0  0  0  0  0  0  0  0  0  0
   40.4990   32.2090   35.9440 H   0  0  0  0  0  0  0  0  0  0  0  0
   39.3980   32.4690   37.3150 H   0  0  0  0  0  0  0  0  0  0  0  0
  2  1  1  0  0  0  0
  3 20  1  0  0  0  0
  3  2  2  0  0  0  0
  4  3  1  0  0  0  0
  5  4  2  0  0  0  0
  5  6  1  0  0  0  0
  6  8  2  0  0  0  0
  7  6  1  0  0  0  0
  8  2  1  0  0  0  0
  9  4  1  0  0  0  0
 10  5  1  0  0  0  0
 11 16  1  1  0  0  0
 11 12  1  0  0  0  0
 11 15  1  0  0  0  0
 12  8  1  6  0  0  0
 12 13  1  0  0  0  0
 13 14  1  0  0  0  0
 15 18  1  1  0  0  0
 15 14  1  0  0  0  0
 17 16  1  0  0  0  0
 18 19  1  0  0  0  0
 21 20  1  0  0  0  0
 22 21  2  0  0  0  0
 23 24  1  0  0  0  0
 23 21  1  0  0  0  0
 25 23  1  0  0  0  0
 25 30  1  0  0  0  0
 26 25  2  0  0  0  0
 27 26  1  0  0  0  0
 27 28  2  0  0  0  0
 28 29  1  0  0  0  0
 29 30  2  0  0  0  0
 29 32  1  0  0  0  0
 31 27  1  0  0  0  0
 33 35  1  0  0  0  0
 33 26  1  0  0  0  0
 34 33  1  0  0  0  0
M  END
>  <minimizedAffinity>
-6.13982105

$$$$

 OpenBabel03252501393D

 35 37  0  0  1  0  0  0  0  0999 V2000
   36.2740   27.9510   40.1600 Cl  0  0  0  0  0  0  0  0  0  0  0  0
   37.4030   27.6600   41.4730 C   0  0  0  0  0  0  0  0  0  0  0  0
   37.8840   28.6780   42.2940 C   0  0  0  0  0  0  0  0  0  0  0  0
   38.7550   28.3680   43.2880 C   0  0  0  0  0  0  0  0  0  0  0  0
   39.2120   27.0940   43.5580 C   0  0  0  0  0  0  0  0  0  0  0  0
   38.7410   26.0590   42.7480 C   0  0  0  0  0  0  0  0  0  0  0  0
   39.2660   24.4050   43.0160 Cl  0  0  0  0  0  0  0  0  0  0  0  0
   37.8500   26.3850   41.7320 C   0  0  0  0  0  0  0  0  0  0  0  0
   39.1030   29.1910   43.8990 H   0  0  0  0  0  0  0  0  0  0  0  0
   39.9120   26.8930   44.3690 H   0  0  0  0  0  0  0  0  0  0  0  0
   38.3370   25.1060   39.7430 C   0  0  1  0  0  3  0  0  0  0  0  0
   37.3340   25.2870   40.8520 C   0  0  1  0  0  3  0  0  0  0  0  0
   37.2900   24.0800   41.5580 O   0  0  0  0  0  0  0  0  0  0  0  0
   37.7010   23.0750   40.7000 C   0  0  0  0  0  2  0  0  0  0  0  0
   38.7970   23.6770   39.8640 C   0  0  1  0  0  3  0  0  0  0  0  0
   37.7100   25.2960   38.4960 O   0  0  0  0  0  0  0  0  0  0  0  0
   38.3730   25.3580   37.7770 H   0  0  0  0  0  0  0  0  0  0  0  0
   38.8920   23.0740   38.5910 O   0  0  0  0  0  0  0  0  0  0  0  0
   39.4550   22.2630   38.7240 H   0  0  0  0  0  0  0  0  0  0  0  0
   37.4170   29.9540   42.0100 O   0  0  0  0  0  0  0  0  0  0  0  0
   38.2250   30.8000   41.2350 C   0  0  0  0  0  0  0  0  0  0  0  0
   38.0180   31.1180   40.0130 O   0  0  0  0  0  0  0  0  0  0  0  0
   39.3990   31.4010   41.7780 N   0  0  0  0  0  0  0  0  0  0  0  0
   39.6880   31.2440   42.7490 H   0  0  0  0  0  0  0  0  0  0  0  0
   40.0270   32.2060   40.7360 C   0  0  0  0  0  0  0  0  0  0  0  0
   39.7640   33.5390   40.5180 C   0  0  0  0  0  0  0  0  0  0  0  0
   40.4540   34.1430   39.4820 C   0  0  0  0  0  0  0  0  0  0  0  0
   41.3260   33.3850   38.7700 N   0  0  0  0  0  0  0  0  0  0  0  0
   41.5460   32.0880   39.0210 C   0  0  0  0  0  0  0  0  0  0  0  0
   40.8840   31.4750   40.0280 N   0  0  0  0  0  0  0  0  0  0  0  0
   40.2480   35.1860   39.3120 H   0  0  0  0  0  0  0  0  0  0  0  0
   42.2620   31.5730   38.3940 H   0  0  0  0  0  0  0  0  0  0  0  0
   38.8210   34.1610   41.3670 N   0  0  0  0  0  0  0  0  0  0  0  0
   38.1640   34.8790   41.0170 H   0  0  0  0  0  0  0  0  0  0  0  0
   38.7810   33.8950   42.3630 H   0  0  0  0  0  0  0  0  0  0  0  0
  1  2  1  0  0  0  0
  2  8  2  0  0  0  0
  2  3  1  0  0  0  0
  3  4  2  0  0  0  0
  4  5  1  0  0  0  0
  4  9  1  0  0  0  0
  5 10  1  0  0  0  0
  6  7  1  0  0  0  0
  6  5  2  0  0  0  0
  8  6  1  0  0  0  0
 11 16  1  6  0  0  0
 11 15  1  0  0  0  0
 11 12  1  0  0  0  0
 12 13  1  0  0  0  0
 12  8  1  1  0  0  0
 14 13  1  0  0  0  0
 15 18  1  6  0  0  0
 15 14  1  0  0  0  0
 17 16  1  0  0  0  0
 18 19  1  0  0  0  0
 20  3  1  0  0  0  0
 21 23  1  0  0  0  0
 21 20  1  0  0  0  0
 22 21  2  0  0  0  0
 23 24  1  0  0  0  0
 25 23  1  0  0  0  0
 26 25  1  0  0  0  0
 26 33  1  0  0  0  0
 27 26  2  0  0  0  0
 28 29  2  0  0  0  0
 28 27  1  0  0  0  0
 29 30  1  0  0  0  0
 30 25  2  0  0  0  0
 31 27  1  0  0  0  0
 32 29  1  0  0  0  0
 33 35  1  0  0  0  0
 34 33  1  0  0  0  0
M  END
>  <minimizedAffinity>
-6.0324111

$$$$

 OpenBabel03252501393D

 35 37  0  0  1  0  0  0  0  0999 V2000
   37.2960   31.1740   40.9770 Cl  0  0  0  0  0  0  0  0  0  0  0  0
   38.9910   31.2710   41.4240 C   0  0  0  0  0  0  0  0  0  0  0  0
   39.5370   30.5420   42.4780 C   0  0  0  0  0  0  0  0  0  0  0  0
   40.8590   30.6750   42.7590 C   0  0  0  0  0  0  0  0  0  0  0  0
   41.7270   31.4940   42.0660 C   0  0  0  0  0  0  0  0  0  0  0  0
   41.2000   32.2330   41.0040 C   0  0  0  0  0  0  0  0  0  0  0  0
   42.2280   33.3010   40.0630 Cl  0  0  0  0  0  0  0  0  0  0  0  0
   39.8460   32.0910   40.7240 C   0  0  0  0  0  0  0  0  0  0  0  0
   41.2380   30.0900   43.5880 H   0  0  0  0  0  0  0  0  0  0  0  0
   42.7820   31.5680   42.3270 H   0  0  0  0  0  0  0  0  0  0  0  0
   39.4500   32.0510   38.3420 C   0  0  1  0  0  3  0  0  0  0  0  0
   39.2640   32.8770   39.5880 C   0  0  1  0  0  3  0  0  0  0  0  0
   37.8860   33.0370   39.7650 O   0  0  0  0  0  0  0  0  0  0  0  0
   37.2840   32.8970   38.5270 C   0  0  0  0  0  2  0  0  0  0  0  0
   38.0570   31.8190   37.8180 C   0  0  1  0  0  3  0  0  0  0  0  0
   40.1980   32.7760   37.3950 O   0  0  0  0  0  0  0  0  0  0  0  0
   40.4800   32.1990   36.6550 H   0  0  0  0  0  0  0  0  0  0  0  0
   38.0220   31.9710   36.4140 O   0  0  0  0  0  0  0  0  0  0  0  0
   37.1740   31.5370   36.1230 H   0  0  0  0  0  0  0  0  0  0  0  0
   38.6530   29.7230   43.1670 O   0  0  0  0  0  0  0  0  0  0  0  0
   38.6310   28.3560   42.8530 C   0  0  0  0  0  0  0  0  0  0  0  0
   39.0930   27.4130   43.5860 O   0  0  0  0  0  0  0  0  0  0  0  0
   38.0660   27.8870   41.6300 N   0  0  0  0  0  0  0  0  0  0  0  0
   37.6500   28.5280   40.9470 H   0  0  0  0  0  0  0  0  0  0  0  0
   38.2050   26.4360   41.5860 C   0  0  0  0  0  0  0  0  0  0  0  0
   39.3230   25.7750   41.1310 C   0  0  0  0  0  0  0  0  0  0  0  0
   39.2780   24.3930   41.1620 C   0  0  0  0  0  0  0  0  0  0  0  0
   38.1500   23.8030   41.6310 N   0  0  0  0  0  0  0  0  0  0  0  0
   37.0860   24.4920   42.0620 C   0  0  0  0  0  0  0  0  0  0  0  0
   37.1050   25.8440   42.0420 N   0  0  0  0  0  0  0  0  0  0  0  0
   40.1530   23.8760   40.8070 H   0  0  0  0  0  0  0  0  0  0  0  0
   36.2340   23.9250   42.4160 H   0  0  0  0  0  0  0  0  0  0  0  0
   40.4050   26.5650   40.6800 N   0  0  0  0  0  0  0  0  0  0  0  0
   40.9880   26.2800   39.8760 H   0  0  0  0  0  0  0  0  0  0  0  0
   40.6230   27.4510   41.1620 H   0  0  0  0  0  0  0  0  0  0  0  0
  1  2  1  0  0  0  0
  2  3  1  0  0  0  0
  3  4  2  0  0  0  0
  3 20  1  0  0  0  0
  4  9  1  0  0  0  0
  5 10  1  0  0  0  0
  5  4  1  0  0  0  0
  6  5  2  0  0  0  0
  7  6  1  0  0  0  0
  8  6  1  0  0  0  0
  8  2  2  0  0  0  0
 11 16  1  6  0  0  0
 11 12  1  0  0  0  0
 12 13  1  0  0  0  0
 12  8  1  1  0  0  0
 14 13  1  0  0  0  0
 15 18  1  6  0  0  0
 15 11  1  0  0  0  0
 15 14  1  0  0  0  0
 17 16  1  0  0  0  0
 19 18  1  0  0  0  0
 21 20  1  0  0  0  0
 21 22  2  0  0  0  0
 23 21  1  0  0  0  0
 24 23  1  0  0  0  0
 25 23  1  0  0  0  0
 25 30  1  0  0  0  0
 26 27  1  0  0  0  0
 26 25  2  0  0  0  0
 27 28  2  0  0  0  0
 28 29  1  0  0  0  0
 29 32  1  0  0  0  0
 30 29  2  0  0  0  0
 31 27  1  0  0  0  0
 33 26  1  0  0  0  0
 33 35  1  0  0  0  0
 34 33  1  0  0  0  0
M  END
>  <minimizedAffinity>
-6.01350546

$$$$

 OpenBabel03252501393D

 35 37  0  0  1  0  0  0  0  0999 V2000
   40.3820   29.8460   42.4790 Cl  0  0  0  0  0  0  0  0  0  0  0  0
   38.8150   30.2630   41.8050 C   0  0  0  0  0  0  0  0  0  0  0  0
   37.6860   29.4630   41.9680 C   0  0  0  0  0  0  0  0  0  0  0  0
   36.5110   29.8580   41.4150 C   0  0  0  0  0  0  0  0  0  0  0  0
   36.3400   31.0180   40.6870 C   0  0  0  0  0  0  0  0  0  0  0  0
   37.4590   31.8350   40.5130 C   0  0  0  0  0  0  0  0  0  0  0  0
   37.3400   33.3320   39.6020 Cl  0  0  0  0  0  0  0  0  0  0  0  0
   38.6580   31.4230   41.0820 C   0  0  0  0  0  0  0  0  0  0  0  0
   35.6620   29.2040   41.5660 H   0  0  0  0  0  0  0  0  0  0  0  0
   35.3760   31.2950   40.2610 H   0  0  0  0  0  0  0  0  0  0  0  0
   40.5470   31.8410   39.6360 C   0  0  1  0  0  3  0  0  0  0  0  0
   39.8700   32.2880   40.9050 C   0  0  1  0  0  3  0  0  0  0  0  0
   39.4910   33.6200   40.7140 O   0  0  0  0  0  0  0  0  0  0  0  0
   40.3240   34.1610   39.7500 C   0  0  0  0  0  2  0  0  0  0  0  0
   40.5580   33.0600   38.7520 C   0  0  1  0  0  3  0  0  0  0  0  0
   41.8690   31.4450   39.9120 O   0  0  0  0  0  0  0  0  0  0  0  0
   42.2660   30.9890   39.1420 H   0  0  0  0  0  0  0  0  0  0  0  0
   41.8020   33.1890   38.0960 O   0  0  0  0  0  0  0  0  0  0  0  0
   41.6400   33.8200   37.3430 H   0  0  0  0  0  0  0  0  0  0  0  0
   37.8720   28.2990   42.7010 O   0  0  0  0  0  0  0  0  0  0  0  0
   37.9190   27.0780   42.0100 C   0  0  0  0  0  0  0  0  0  0  0  0
   38.7260   26.7870   41.0610 O   0  0  0  0  0  0  0  0  0  0  0  0
   37.0220   26.0150   42.3270 N   0  0  0  0  0  0  0  0  0  0  0  0
   36.3240   26.1010   43.0730 H   0  0  0  0  0  0  0  0  0  0  0  0
   37.3040   24.8950   41.4360 C   0  0  0  0  0  0  0  0  0  0  0  0
   38.2530   23.9280   41.6770 C   0  0  0  0  0  0  0  0  0  0  0  0
   38.3830   22.9380   40.7200 C   0  0  0  0  0  0  0  0  0  0  0  0
   37.5760   22.9960   39.6300 N   0  0  0  0  0  0  0  0  0  0  0  0
   36.6670   23.9610   39.4410 C   0  0  0  0  0  0  0  0  0  0  0  0
   36.5200   24.9390   40.3630 N   0  0  0  0  0  0  0  0  0  0  0  0
   39.1250   22.1820   40.9090 H   0  0  0  0  0  0  0  0  0  0  0  0
   36.0730   23.9150   38.5370 H   0  0  0  0  0  0  0  0  0  0  0  0
   39.0000   24.0360   42.8730 N   0  0  0  0  0  0  0  0  0  0  0  0
   40.0000   23.7820   42.9140 H   0  0  0  0  0  0  0  0  0  0  0  0
   38.5380   24.3780   43.7310 H   0  0  0  0  0  0  0  0  0  0  0  0
  2  3  1  0  0  0  0
  2  1  1  0  0  0  0
  3 20  1  0  0  0  0
  4  9  1  0  0  0  0
  4  3  2  0  0  0  0
  5  4  1  0  0  0  0
  6  5  2  0  0  0  0
  6  8  1  0  0  0  0
  7  6  1  0  0  0  0
  8  2  2  0  0  0  0
 10  5  1  0  0  0  0
 11 16  1  1  0  0  0
 11 12  1  0  0  0  0
 12  8  1  6  0  0  0
 13 12  1  0  0  0  0
 14 13  1  0  0  0  0
 15 18  1  1  0  0  0
 15 11  1  0  0  0  0
 15 14  1  0  0  0  0
 17 16  1  0  0  0  0
 19 18  1  0  0  0  0
 21 23  1  0  0  0  0
 21 20  1  0  0  0  0
 22 21  2  0  0  0  0
 23 24  1  0  0  0  0
 25 26  1  0  0  0  0
 25 23  1  0  0  0  0
 26 33  1  0  0  0  0
 27 31  1  0  0  0  0
 27 26  2  0  0  0  0
 28 27  1  0  0  0  0
 29 28  2  0  0  0  0
 29 30  1  0  0  0  0
 30 25  2  0  0  0  0
 32 29  1  0  0  0  0
 33 34  1  0  0  0  0
 33 35  1  0  0  0  0
M  END
>  <minimizedAffinity>
-5.95313263

$$$$

 OpenBabel03252501393D

 35 37  0  0  1  0  0  0  0  0999 V2000
   38.9570   31.0620   41.6610 Cl  0  0  0  0  0  0  0  0  0  0  0  0
   38.0520   30.8350   40.1740 C   0  0  0  0  0  0  0  0  0  0  0  0
   38.2730   31.6020   39.0310 C   0  0  0  0  0  0  0  0  0  0  0  0
   37.5290   31.3620   37.9200 C   0  0  0  0  0  0  0  0  0  0  0  0
   36.5490   30.3960   37.8300 C   0  0  0  0  0  0  0  0  0  0  0  0
   36.3120   29.6150   38.9630 C   0  0  0  0  0  0  0  0  0  0  0  0
   35.0850   28.3600   38.9430 Cl  0  0  0  0  0  0  0  0  0  0  0  0
   37.0780   29.8670   40.0960 C   0  0  0  0  0  0  0  0  0  0  0  0
   37.7360   31.9840   37.0580 H   0  0  0  0  0  0  0  0  0  0  0  0
   35.9770   30.2390   36.9160 H   0  0  0  0  0  0  0  0  0  0  0  0
   37.7260   27.8280   41.2150 C   0  0  1  0  0  3  0  0  0  0  0  0
   36.8370   29.0390   41.3220 C   0  0  1  0  0  3  0  0  0  0  0  0
   37.2390   29.7360   42.4650 O   0  0  0  0  0  0  0  0  0  0  0  0
   37.8480   28.8330   43.3170 C   0  0  0  0  0  2  0  0  0  0  0  0
   38.6140   27.8900   42.4300 C   0  0  1  0  0  3  0  0  0  0  0  0
   36.9470   26.6560   41.2580 O   0  0  0  0  0  0  0  0  0  0  0  0
   37.4800   25.8720   41.0140 H   0  0  0  0  0  0  0  0  0  0  0  0
   38.7580   26.6100   43.0080 O   0  0  0  0  0  0  0  0  0  0  0  0
   39.5540   26.6760   43.6030 H   0  0  0  0  0  0  0  0  0  0  0  0
   39.2620   32.5710   39.1370 O   0  0  0  0  0  0  0  0  0  0  0  0
   40.5390   32.2740   38.6380 C   0  0  0  0  0  0  0  0  0  0  0  0
   41.3300   31.3770   39.0950 O   0  0  0  0  0  0  0  0  0  0  0  0
   41.0840   32.9860   37.5290 N   0  0  0  0  0  0  0  0  0  0  0  0
   40.5610   33.7290   37.0540 H   0  0  0  0  0  0  0  0  0  0  0  0
   42.4190   32.4640   37.2580 C   0  0  0  0  0  0  0  0  0  0  0  0
   43.5830   33.0140   37.7460 C   0  0  0  0  0  0  0  0  0  0  0  0
   44.7600   32.3840   37.3860 C   0  0  0  0  0  0  0  0  0  0  0  0
   44.6800   31.2880   36.5900 N   0  0  0  0  0  0  0  0  0  0  0  0
   43.5200   30.7920   36.1390 C   0  0  0  0  0  0  0  0  0  0  0  0
   42.3550   31.3890   36.4780 N   0  0  0  0  0  0  0  0  0  0  0  0
   45.6700   32.8140   37.7670 H   0  0  0  0  0  0  0  0  0  0  0  0
   43.5650   29.9130   35.5090 H   0  0  0  0  0  0  0  0  0  0  0  0
   43.4660   34.1610   38.5630 N   0  0  0  0  0  0  0  0  0  0  0  0
   44.1550   34.9290   38.5240 H   0  0  0  0  0  0  0  0  0  0  0  0
   42.6720   34.2380   39.2190 H   0  0  0  0  0  0  0  0  0  0  0  0
  2  1  1  0  0  0  0
  3 20  1  0  0  0  0
  3  2  2  0  0  0  0
  4  3  1  0  0  0  0
  5  4  2  0  0  0  0
  5  6  1  0  0  0  0
  6  8  2  0  0  0  0
  7  6  1  0  0  0  0
  8  2  1  0  0  0  0
  9  4  1  0  0  0  0
 10  5  1  0  0  0  0
 11 16  1  1  0  0  0
 11 12  1  0  0  0  0
 11 15  1  0  0  0  0
 12  8  1  6  0  0  0
 12 13  1  0  0  0  0
 13 14  1  0  0  0  0
 15 18  1  1  0  0  0
 15 14  1  0  0  0  0
 17 16  1  0  0  0  0
 18 19  1  0  0  0  0
 21 22  2  0  0  0  0
 21 20  1  0  0  0  0
 23 21  1  0  0  0  0
 24 23  1  0  0  0  0
 25 23  1  0  0  0  0
 25 26  1  0  0  0  0
 26 33  1  0  0  0  0
 27 26  2  0  0  0  0
 27 31  1  0  0  0  0
 28 27  1  0  0  0  0
 29 30  1  0  0  0  0
 29 28  2  0  0  0  0
 30 25  2  0  0  0  0
 32 29  1  0  0  0  0
 33 35  1  0  0  0  0
 34 33  1  0  0  0  0
M  END
>  <minimizedAffinity>
-5.78649855

$$$$

 OpenBabel03252501393D

 35 37  0  0  1  0  0  0  0  0999 V2000
   38.9730   27.4300   38.2490 Cl  0  0  0  0  0  0  0  0  0  0  0  0
   38.2150   28.2890   39.5790 C   0  0  0  0  0  0  0  0  0  0  0  0
   38.0430   29.6720   39.5860 C   0  0  0  0  0  0  0  0  0  0  0  0
   37.4460   30.2590   40.6550 C   0  0  0  0  0  0  0  0  0  0  0  0
   36.9830   29.5790   41.7630 C   0  0  0  0  0  0  0  0  0  0  0  0
   37.1430   28.1910   41.7760 C   0  0  0  0  0  0  0  0  0  0  0  0
   36.5850   27.2400   43.1420 Cl  0  0  0  0  0  0  0  0  0  0  0  0
   37.7560   27.5990   40.6780 C   0  0  0  0  0  0  0  0  0  0  0  0
   37.3360   31.3350   40.6150 H   0  0  0  0  0  0  0  0  0  0  0  0
   36.5090   30.0930   42.5980 H   0  0  0  0  0  0  0  0  0  0  0  0
   39.1620   25.8160   41.5010 C   0  0  1  0  0  3  0  0  0  0  0  0
   37.9370   26.1110   40.6760 C   0  0  1  0  0  3  0  0  0  0  0  0
   36.8590   25.4900   41.3150 O   0  0  0  0  0  0  0  0  0  0  0  0
   37.3620   24.4430   42.0670 C   0  0  0  0  0  2  0  0  0  0  0  0
   38.6730   24.9320   42.6190 C   0  0  1  0  0  3  0  0  0  0  0  0
   40.1060   25.1190   40.7250 O   0  0  0  0  0  0  0  0  0  0  0  0
   40.9710   25.0740   41.1820 H   0  0  0  0  0  0  0  0  0  0  0  0
   39.5820   23.8770   42.8520 O   0  0  0  0  0  0  0  0  0  0  0  0
   39.3500   23.5220   43.7540 H   0  0  0  0  0  0  0  0  0  0  0  0
   38.5150   30.3430   38.4660 O   0  0  0  0  0  0  0  0  0  0  0  0
   39.6450   31.1630   38.6090 C   0  0  0  0  0  0  0  0  0  0  0  0
   40.8250   30.7650   38.9050 O   0  0  0  0  0  0  0  0  0  0  0  0
   39.5610   32.5760   38.4300 N   0  0  0  0  0  0  0  0  0  0  0  0
   38.6800   33.0370   38.1820 H   0  0  0  0  0  0  0  0  0  0  0  0
   40.8830   33.1470   38.6580 C   0  0  0  0  0  0  0  0  0  0  0  0
   41.3790   33.4930   39.8940 C   0  0  0  0  0  0  0  0  0  0  0  0
   42.6560   34.0230   39.9210 C   0  0  0  0  0  0  0  0  0  0  0  0
   43.3140   34.1600   38.7420 N   0  0  0  0  0  0  0  0  0  0  0  0
   42.7860   33.8090   37.5620 C   0  0  0  0  0  0  0  0  0  0  0  0
   41.5400   33.2880   37.5100 N   0  0  0  0  0  0  0  0  0  0  0  0
   43.0430   34.2930   40.8880 H   0  0  0  0  0  0  0  0  0  0  0  0
   43.3950   33.9590   36.6790 H   0  0  0  0  0  0  0  0  0  0  0  0
   40.5420   33.2760   41.0130 N   0  0  0  0  0  0  0  0  0  0  0  0
   40.5220   33.9290   41.8120 H   0  0  0  0  0  0  0  0  0  0  0  0
   39.9320   32.4430   41.0360 H   0  0  0  0  0  0  0  0  0  0  0  0
  1  2  1  0  0  0  0
  2  3  2  0  0  0  0
  2  8  1  0  0  0  0
  3  4  1  0  0  0  0
  4  5  2  0  0  0  0
  5  6  1  0  0  0  0
  5 10  1  0  0  0  0
  6  7  1  0  0  0  0
  8  6  2  0  0  0  0
  9  4  1  0  0  0  0
 11 16  1  6  0  0  0
 11 15  1  0  0  0  0
 12  8  1  1  0  0  0
 12 13  1  0  0  0  0
 12 11  1  0  0  0  0
 13 14  1  0  0  0  0
 14 15  1  0  0  0  0
 15 18  1  6  0  0  0
 16 17  1  0  0  0  0
 18 19  1  0  0  0  0
 20 21  1  0  0  0  0
 20  3  1  0  0  0  0
 21 22  2  0  0  0  0
 23 21  1  0  0  0  0
 23 25  1  0  0  0  0
 24 23  1  0  0  0  0
 25 26  1  0  0  0  0
 26 27  2  0  0  0  0
 26 33  1  0  0  0  0
 27 31  1  0  0  0  0
 28 27  1  0  0  0  0
 29 28  2  0  0  0  0
 30 29  1  0  0  0  0
 30 25  2  0  0  0  0
 32 29  1  0  0  0  0
 33 35  1  0  0  0  0
 33 34  1  0  0  0  0
M  END
>  <minimizedAffinity>
-5.74778128

$$$$

 OpenBabel03252501393D

 35 37  0  0  1  0  0  0  0  0999 V2000
   39.8330   29.4060   37.6060 Cl  0  0  0  0  0  0  0  0  0  0  0  0
   38.9240   30.5840   38.5370 C   0  0  0  0  0  0  0  0  0  0  0  0
   37.5710   30.4310   38.8330 C   0  0  0  0  0  0  0  0  0  0  0  0
   36.9410   31.3900   39.5600 C   0  0  0  0  0  0  0  0  0  0  0  0
   37.5490   32.5310   40.0420 C   0  0  0  0  0  0  0  0  0  0  0  0
   38.9060   32.7030   39.7580 C   0  0  0  0  0  0  0  0  0  0  0  0
   39.7650   34.1230   40.3300 Cl  0  0  0  0  0  0  0  0  0  0  0  0
   39.5420   31.7170   39.0130 C   0  0  0  0  0  0  0  0  0  0  0  0
   35.8900   31.2290   39.7640 H   0  0  0  0  0  0  0  0  0  0  0  0
   37.0030   33.2740   40.6230 H   0  0  0  0  0  0  0  0  0  0  0  0
   41.0810   32.6220   37.3870 C   0  0  1  0  0  3  0  0  0  0  0  0
   40.9980   31.8860   38.6980 C   0  0  1  0  0  3  0  0  0  0  0  0
   41.6110   32.6980   39.6580 O   0  0  0  0  0  0  0  0  0  0  0  0
   42.5040   33.5250   39.0000 C   0  0  0  0  0  2  0  0  0  0  0  0
   41.8440   33.8840   37.6970 C   0  0  1  0  0  3  0  0  0  0  0  0
   41.7990   31.8540   36.4510 O   0  0  0  0  0  0  0  0  0  0  0  0
   41.7140   32.2290   35.5510 H   0  0  0  0  0  0  0  0  0  0  0  0
   42.7830   34.1610   36.6800 O   0  0  0  0  0  0  0  0  0  0  0  0
   43.0310   35.1180   36.8030 H   0  0  0  0  0  0  0  0  0  0  0  0
   36.9720   29.2800   38.3410 O   0  0  0  0  0  0  0  0  0  0  0  0
   36.9060   28.1560   39.1790 C   0  0  0  0  0  0  0  0  0  0  0  0
   36.0300   27.9520   40.0890 O   0  0  0  0  0  0  0  0  0  0  0  0
   37.8600   27.1010   39.0760 N   0  0  0  0  0  0  0  0  0  0  0  0
   38.6170   27.1220   38.3840 H   0  0  0  0  0  0  0  0  0  0  0  0
   37.5400   26.0910   40.0790 C   0  0  0  0  0  0  0  0  0  0  0  0
   36.6460   25.0620   39.8890 C   0  0  0  0  0  0  0  0  0  0  0  0
   36.4670   24.1970   40.9530 C   0  0  0  0  0  0  0  0  0  0  0  0
   37.1760   24.4250   42.0870 N   0  0  0  0  0  0  0  0  0  0  0  0
   38.0350   25.4440   42.2220 C   0  0  0  0  0  0  0  0  0  0  0  0
   38.2280   26.3030   41.1970 N   0  0  0  0  0  0  0  0  0  0  0  0
   35.7670   23.3920   40.8040 H   0  0  0  0  0  0  0  0  0  0  0  0
   38.5520   25.5380   43.1690 H   0  0  0  0  0  0  0  0  0  0  0  0
   36.0000   24.9870   38.6340 N   0  0  0  0  0  0  0  0  0  0  0  0
   35.0150   24.6880   38.5470 H   0  0  0  0  0  0  0  0  0  0  0  0
   36.5210   25.2370   37.7790 H   0  0  0  0  0  0  0  0  0  0  0  0
  1  2  1  0  0  0  0
  2  3  2  0  0  0  0
  2  8  1  0  0  0  0
  3  4  1  0  0  0  0
  4  9  1  0  0  0  0
  4  5  2  0  0  0  0
  5 10  1  0  0  0  0
  6  5  1  0  0  0  0
  6  7  1  0  0  0  0
  8  6  2  0  0  0  0
 11 16  1  6  0  0  0
 11 15  1  0  0  0  0
 11 12  1  0  0  0  0
 12  8  1  1  0  0  0
 12 13  1  0  0  0  0
 14 13  1  0  0  0  0
 15 18  1  6  0  0  0
 15 14  1  0  0  0  0
 17 16  1  0  0  0  0
 18 19  1  0  0  0  0
 20  3  1  0  0  0  0
 20 21  1  0  0  0  0
 21 22  2  0  0  0  0
 23 21  1  0  0  0  0
 23 25  1  0  0  0  0
 24 23  1  0  0  0  0
 25 30  1  0  0  0  0
 26 25  2  0  0  0  0
 26 27  1  0  0  0  0
 27 28  2  0  0  0  0
 28 29  1  0  0  0  0
 29 32  1  0  0  0  0
 30 29  2  0  0  0  0
 31 27  1  0  0  0  0
 33 26  1  0  0  0  0
 34 33  1  0  0  0  0
 35 33  1  0  0  0  0
M  END
>  <minimizedAffinity>
-5.72980833

$$$$

 OpenBabel03252501393D

 35 37  0  0  1  0  0  0  0  0999 V2000
   34.5810   29.2820   39.8910 Cl  0  0  0  0  0  0  0  0  0  0  0  0
   35.4090   29.5120   38.3600 C   0  0  0  0  0  0  0  0  0  0  0  0
   36.6110   30.2070   38.2490 C   0  0  0  0  0  0  0  0  0  0  0  0
   37.1870   30.3400   37.0260 C   0  0  0  0  0  0  0  0  0  0  0  0
   36.6650   29.8280   35.8560 C   0  0  0  0  0  0  0  0  0  0  0  0
   35.4600   29.1260   35.9460 C   0  0  0  0  0  0  0  0  0  0  0  0
   34.7180   28.4380   34.5110 Cl  0  0  0  0  0  0  0  0  0  0  0  0
   34.8780   28.9960   37.2010 C   0  0  0  0  0  0  0  0  0  0  0  0
   38.1200   30.8890   36.9890 H   0  0  0  0  0  0  0  0  0  0  0  0
   37.1630   29.9590   34.8960 H   0  0  0  0  0  0  0  0  0  0  0  0
   32.4810   29.2270   37.0180 C   0  0  1  0  0  3  0  0  0  0  0  0
   33.5840   28.2460   37.3150 C   0  0  1  0  0  3  0  0  0  0  0  0
   33.5130   27.2490   36.3380 O   0  0  0  0  0  0  0  0  0  0  0  0
   32.2150   27.2190   35.8600 C   0  0  0  0  0  2  0  0  0  0  0  0
   31.7610   28.6520   35.8260 C   0  0  1  0  0  3  0  0  0  0  0  0
   31.5980   29.3020   38.1120 O   0  0  0  0  0  0  0  0  0  0  0  0
   30.9810   30.0550   38.0130 H   0  0  0  0  0  0  0  0  0  0  0  0
   30.3630   28.7750   35.9810 O   0  0  0  0  0  0  0  0  0  0  0  0
   29.9830   28.6450   35.0700 H   0  0  0  0  0  0  0  0  0  0  0  0
   37.1250   30.7180   39.4330 O   0  0  0  0  0  0  0  0  0  0  0  0
   38.2390   31.5690   39.3620 C   0  0  0  0  0  0  0  0  0  0  0  0
   38.2020   32.8480   39.3360 O   0  0  0  0  0  0  0  0  0  0  0  0
   39.5660   31.0470   39.3070 N   0  0  0  0  0  0  0  0  0  0  0  0
   39.7510   30.0390   39.3280 H   0  0  0  0  0  0  0  0  0  0  0  0
   40.4970   32.1660   39.2240 C   0  0  0  0  0  0  0  0  0  0  0  0
   40.8440   32.8040   38.0550 C   0  0  0  0  0  0  0  0  0  0  0  0
   41.7440   33.8490   38.1670 C   0  0  0  0  0  0  0  0  0  0  0  0
   42.2090   34.1610   39.4020 N   0  0  0  0  0  0  0  0  0  0  0  0
   41.8400   33.5070   40.5110 C   0  0  0  0  0  0  0  0  0  0  0  0
   40.9620   32.4830   40.4290 N   0  0  0  0  0  0  0  0  0  0  0  0
   42.0150   34.3480   37.2520 H   0  0  0  0  0  0  0  0  0  0  0  0
   42.2700   33.8340   41.4490 H   0  0  0  0  0  0  0  0  0  0  0  0
   40.2530   32.3360   36.8600 N   0  0  0  0  0  0  0  0  0  0  0  0
   40.7750   32.3080   35.9690 H   0  0  0  0  0  0  0  0  0  0  0  0
   39.2730   32.0110   36.8710 H   0  0  0  0  0  0  0  0  0  0  0  0
  2  1  1  0  0  0  0
  3  2  1  0  0  0  0
  3 20  1  0  0  0  0
  4  3  2  0  0  0  0
  5  6  2  0  0  0  0
  5  4  1  0  0  0  0
  6  8  1  0  0  0  0
  7  6  1  0  0  0  0
  8  2  2  0  0  0  0
  9  4  1  0  0  0  0
 10  5  1  0  0  0  0
 11 12  1  0  0  0  0
 11 16  1  1  0  0  0
 12  8  1  6  0  0  0
 13 12  1  0  0  0  0
 14 13  1  0  0  0  0
 15 14  1  0  0  0  0
 15 18  1  1  0  0  0
 15 11  1  0  0  0  0
 17 16  1  0  0  0  0
 19 18  1  0  0  0  0
 21 20  1  0  0  0  0
 22 21  2  0  0  0  0
 23 24  1  0  0  0  0
 23 21  1  0  0  0  0
 25 23  1  0  0  0  0
 25 30  1  0  0  0  0
 26 27  1  0  0  0  0
 26 25  2  0  0  0  0
 27 28  2  0  0  0  0
 28 29  1  0  0  0  0
 29 32  1  0  0  0  0
 30 29  2  0  0  0  0
 31 27  1  0  0  0  0
 33 35  1  0  0  0  0
 33 26  1  0  0  0  0
 34 33  1  0  0  0  0
M  END
>  <minimizedAffinity>
-5.6357379

$$$$

 OpenBabel03252501393D

 35 37  0  0  1  0  0  0  0  0999 V2000
   36.3330   27.4740   38.2200 Cl  0  0  0  0  0  0  0  0  0  0  0  0
   36.5880   27.1940   39.9340 C   0  0  0  0  0  0  0  0  0  0  0  0
   36.4350   28.1930   40.8930 C   0  0  0  0  0  0  0  0  0  0  0  0
   36.6510   27.8930   42.2000 C   0  0  0  0  0  0  0  0  0  0  0  0
   37.0170   26.6470   42.6660 C   0  0  0  0  0  0  0  0  0  0  0  0
   37.1730   25.6300   41.7210 C   0  0  0  0  0  0  0  0  0  0  0  0
   37.6370   24.0110   42.2190 Cl  0  0  0  0  0  0  0  0  0  0  0  0
   36.9510   25.9460   40.3860 C   0  0  0  0  0  0  0  0  0  0  0  0
   36.5210   28.7020   42.9080 H   0  0  0  0  0  0  0  0  0  0  0  0
   37.1780   26.4530   43.7260 H   0  0  0  0  0  0  0  0  0  0  0  0
   35.7930   24.1530   39.2560 C   0  0  1  0  0  3  0  0  0  0  0  0
   37.1160   24.8670   39.3580 C   0  0  1  0  0  3  0  0  0  0  0  0
   37.3700   25.4280   38.1030 O   0  0  0  0  0  0  0  0  0  0  0  0
   36.6720   24.6910   37.1630 C   0  0  0  0  0  2  0  0  0  0  0  0
   35.3700   24.3220   37.8200 C   0  0  1  0  0  3  0  0  0  0  0  0
   35.9650   22.7850   39.5420 O   0  0  0  0  0  0  0  0  0  0  0  0
   35.1000   22.3400   39.6540 H   0  0  0  0  0  0  0  0  0  0  0  0
   34.8380   23.1160   37.3130 O   0  0  0  0  0  0  0  0  0  0  0  0
   34.3360   23.3740   36.4920 H   0  0  0  0  0  0  0  0  0  0  0  0
   36.0680   29.4420   40.4100 O   0  0  0  0  0  0  0  0  0  0  0  0
   37.0670   30.4150   40.2550 C   0  0  0  0  0  0  0  0  0  0  0  0
   37.8010   30.5740   39.2190 O   0  0  0  0  0  0  0  0  0  0  0  0
   37.3580   31.3470   41.2950 N   0  0  0  0  0  0  0  0  0  0  0  0
   36.8440   31.3450   42.1820 H   0  0  0  0  0  0  0  0  0  0  0  0
   38.4440   32.2120   40.8460 C   0  0  0  0  0  0  0  0  0  0  0  0
   38.2690   33.3590   40.1070 C   0  0  0  0  0  0  0  0  0  0  0  0
   39.4150   34.0560   39.7690 C   0  0  0  0  0  0  0  0  0  0  0  0
   40.6080   33.5620   40.1870 N   0  0  0  0  0  0  0  0  0  0  0  0
   40.7250   32.4380   40.9050 C   0  0  0  0  0  0  0  0  0  0  0  0
   39.6200   31.7390   41.2480 N   0  0  0  0  0  0  0  0  0  0  0  0
   39.2780   34.9540   39.1910 H   0  0  0  0  0  0  0  0  0  0  0  0
   41.7230   32.1290   41.1880 H   0  0  0  0  0  0  0  0  0  0  0  0
   36.9440   33.7160   39.7650 N   0  0  0  0  0  0  0  0  0  0  0  0
   36.7150   34.1440   38.8530 H   0  0  0  0  0  0  0  0  0  0  0  0
   36.1830   33.5460   40.4400 H   0  0  0  0  0  0  0  0  0  0  0  0
  1  2  1  0  0  0  0
  2  8  2  0  0  0  0
  2  3  1  0  0  0  0
  3  4  2  0  0  0  0
  4  5  1  0  0  0  0
  4  9  1  0  0  0  0
  5 10  1  0  0  0  0
  6  7  1  0  0  0  0
  6  5  2  0  0  0  0
  8  6  1  0  0  0  0
 11 12  1  0  0  0  0
 11 16  1  6  0  0  0
 12  8  1  1  0  0  0
 13 12  1  0  0  0  0
 14 15  1  0  0  0  0
 14 13  1  0  0  0  0
 15 18  1  6  0  0  0
 15 11  1  0  0  0  0
 16 17  1  0  0  0  0
 19 18  1  0  0  0  0
 20  3  1  0  0  0  0
 21 20  1  0  0  0  0
 21 23  1  0  0  0  0
 22 21  2  0  0  0  0
 23 24  1  0  0  0  0
 25 30  1  0  0  0  0
 25 23  1  0  0  0  0
 26 25  2  0  0  0  0
 27 26  1  0  0  0  0
 27 28  2  0  0  0  0
 28 29  1  0  0  0  0
 29 32  1  0  0  0  0
 29 30  2  0  0  0  0
 31 27  1  0  0  0  0
 33 26  1  0  0  0  0
 33 35  1  0  0  0  0
 34 33  1  0  0  0  0
M  END
>  <minimizedAffinity>
-5.56740713

$$$$
