
 OpenBabel03252507063D

 24 25  0  0  1  0  0  0  0  0999 V2000
   44.7830   35.2060   44.9380 C   0  0  0  0  0  0  0  0  0  0  0  0
   45.3020   35.4990   43.6660 C   0  0  0  0  0  0  0  0  0  0  0  0
   46.3510   34.7120   43.2120 C   0  0  0  0  0  0  0  0  0  0  0  0
   46.8340   33.7000   44.0010 N   0  0  0  0  0  0  0  0  0  0  0  0
   46.3070   33.4490   45.2210 C   0  0  0  0  0  0  0  0  0  0  0  0
   45.2900   34.2000   45.6790 N   0  0  0  0  0  0  0  0  0  0  0  0
   43.9630   35.8160   45.3010 H   0  0  0  0  0  0  0  0  0  0  0  0
   44.8550   36.3130   43.1240 H   0  0  0  0  0  0  0  0  0  0  0  0
   45.8080   31.3090   46.3660 C   0  0  2  0  0  3  0  0  0  0  0  0
   46.8920   32.3330   46.0080 C   0  0  1  0  0  3  0  0  0  0  0  0
   47.8260   31.6090   45.2820 O   0  0  0  0  0  0  0  0  0  0  0  0
   47.8110   30.3150   45.7220 C   0  0  0  0  0  2  0  0  0  0  0  0
   46.6840   30.1200   46.6920 C   0  0  2  0  0  3  0  0  0  0  0  0
   45.0970   31.0850   45.1840 O   0  0  0  0  0  0  0  0  0  0  0  0
   45.6150   31.3680   44.3690 H   0  0  0  0  0  0  0  0  0  0  0  0
   45.9700   28.9490   46.4530 O   0  0  0  0  0  0  0  0  0  0  0  0
   45.3030   29.0670   45.7260 H   0  0  0  0  0  0  0  0  0  0  0  0
   46.8630   35.0070   41.9470 O   0  0  0  0  0  0  0  0  0  0  0  0
   48.6690   33.3020   41.0300 O   0  0  0  0  0  0  0  0  0  0  0  0
   48.5220   34.7010   41.6180 P   0  0  0  0  0  0  0  0  0  0  0  0
   49.0810   35.8790   40.5750 O   0  0  0  0  0  0  0  0  0  0  0  0
   48.5930   35.8140   39.7380 H   0  0  0  0  0  0  0  0  0  0  0  0
   49.3400   34.7330   43.1030 O   0  0  0  0  0  0  0  0  0  0  0  0
   49.1300   33.8900   43.5780 H   0  0  0  0  0  0  0  0  0  0  0  0
  1  7  1  0  0  0  0
  1  6  1  0  0  0  0
  2  1  2  0  0  0  0
  3  2  1  0  0  0  0
  3  4  2  0  0  0  0
  4  5  1  0  0  0  0
  5  6  2  0  0  0  0
  8  2  1  0  0  0  0
  9 14  1  6  0  0  0
  9 13  1  0  0  0  0
 10  5  1  6  0  0  0
 10  9  1  0  0  0  0
 11 12  1  0  0  0  0
 11 10  1  0  0  0  0
 12 13  1  0  0  0  0
 13 16  1  6  0  0  0
 15 14  1  0  0  0  0
 17 16  1  0  0  0  0
 18  3  1  0  0  0  0
 19 20  2  0  0  0  0
 20 18  1  0  0  0  0
 20 23  1  0  0  0  0
 21 20  1  0  0  0  0
 22 21  1  0  0  0  0
 23 24  1  0  0  0  0
M  END
>  <minimizedAffinity>
-5.09002781

>  <minimizedRMSD>
0.790924072

$$$$
