
     RDKit          3D

 24 25  0  0  0  0  0  0  0  0999 V2000
   45.0013   35.4855   44.1871 C   0  0  0  0  0  0  0  0  0  0  0  0
   45.9784   34.9304   43.3427 C   0  0  0  0  0  0  0  0  0  0  0  0
   46.7082   33.8403   43.8352 C   0  0  0  0  0  0  0  0  0  0  0  0
   46.4420   33.3750   45.0907 N   0  0  0  0  0  0  0  0  0  0  0  0
   45.4928   33.9440   45.8618 C   0  0  0  0  0  0  0  0  0  0  0  0
   44.7839   34.9812   45.4194 N   0  0  0  0  0  0  0  0  0  0  0  0
   44.2913   36.5466   43.7071 O   0  0  0  0  0  0  0  0  0  0  0  0
   46.2046   35.2799   42.3522 H   0  0  0  0  0  0  0  0  0  0  0  0
   45.3360   33.5179   46.8541 H   0  0  0  0  0  0  0  0  0  0  0  0
   44.7777   37.2351   43.1450 H   0  0  0  0  0  0  0  0  0  0  0  0
   48.8144   34.9315   41.8527 O   0  0  0  0  0  0  0  0  0  0  0  0
   48.9968   33.9660   42.8279 C   0  0  1  0  0  0  0  0  0  0  0  0
   47.7551   33.1423   43.1020 C   0  0  1  0  0  0  0  0  0  0  0  0
   48.3090   32.0984   43.8362 O   0  0  0  0  0  0  0  0  0  0  0  0
   49.4347   31.6853   43.1533 C   0  0  0  0  0  0  0  0  0  0  0  0
   49.9235   32.8495   42.3323 C   0  0  2  0  0  0  0  0  0  0  0  0
   51.2515   33.1552   42.5523 O   0  0  0  0  0  0  0  0  0  0  0  0
   49.3222   35.7794   42.0493 H   0  0  0  0  0  0  0  0  0  0  0  0
   49.3393   34.3430   43.7980 H   0  0  0  0  0  0  0  0  0  0  0  0
   47.4485   32.7174   42.1201 H   0  0  0  0  0  0  0  0  0  0  0  0
   50.2226   31.2677   43.8302 H   0  0  0  0  0  0  0  0  0  0  0  0
   49.0959   30.8384   42.4874 H   0  0  0  0  0  0  0  0  0  0  0  0
   49.6747   32.6510   41.2778 H   0  0  0  0  0  0  0  0  0  0  0  0
   51.7461   33.2990   41.7001 H   0  0  0  0  0  0  0  0  0  0  0  0
  1  6  2  0
  2  3  2  0
  2  1  1  0
  3  4  1  0
  4  5  2  0
  6  5  1  0
  7  1  1  0
  2  8  1  0
  5  9  1  0
  7 10  1  0
 11 12  1  0
 12 13  1  0
 13 14  1  0
 14 15  1  0
 15 16  1  0
 16 17  1  0
 16 12  1  0
 11 18  1  0
 12 19  1  1
 13 20  1  6
 15 21  1  0
 15 22  1  0
 16 23  1  6
 17 24  1  0
  3 13  1  0
M  ISO  3   8  14   9  14  10   3
M  END
>  <DihAtoms>  (1) 
1,2,12,11

>  <DihDeg>  (1) 
21.352162942984876

$$$$
