
 OpenBabel03252506003D

 28 30  0  0  1  0  0  0  0  0999 V2000
   45.1060   36.6300   43.0680 Cl  0  0  0  0  0  0  0  0  0  0  0  0
   45.4700   35.2240   44.0220 C   0  0  0  0  0  0  0  0  0  0  0  0
   46.3010   34.2660   43.5330 C   0  0  0  0  0  0  0  0  0  0  0  0
   46.5350   33.1820   44.3590 C   0  0  0  0  0  0  0  0  0  0  0  0
   45.9920   33.0180   45.6190 C   0  0  0  0  0  0  0  0  0  0  0  0
   45.1600   34.0070   46.0760 C   0  0  0  0  0  0  0  0  0  0  0  0
   44.4930   33.7590   47.6770 Cl  0  0  0  0  0  0  0  0  0  0  0  0
   44.9000   35.1000   45.2880 C   0  0  0  0  0  0  0  0  0  0  0  0
   47.2020   32.4040   43.9770 H   0  0  0  0  0  0  0  0  0  0  0  0
   44.2330   35.8430   45.7110 H   0  0  0  0  0  0  0  0  0  0  0  0
   48.6140   35.2010   40.8600 C   0  0  0  0  0  0  0  0  0  0  0  0
   48.1020   34.5480   39.7430 C   0  0  0  0  0  0  0  0  0  0  0  0
   46.9410   33.7720   39.9050 C   0  0  0  0  0  0  0  0  0  0  0  0
   46.3950   33.7110   41.1460 N   0  0  0  0  0  0  0  0  0  0  0  0
   46.9170   34.3570   42.2160 C   0  0  0  0  0  0  0  0  0  0  0  0
   48.0280   35.1030   42.0720 N   0  0  0  0  0  0  0  0  0  0  0  0
   49.5180   35.7920   40.6880 H   0  0  0  0  0  0  0  0  0  0  0  0
   48.4880   34.5620   38.7530 H   0  0  0  0  0  0  0  0  0  0  0  0
   46.4070   33.2030   39.1660 H   0  0  0  0  0  0  0  0  0  0  0  0
   47.6260   31.9350   47.1590 C   0  0  2  0  0  3  0  0  0  0  0  0
   46.3220   31.8180   46.3950 C   0  0  1  0  0  3  0  0  0  0  0  0
   45.4350   31.5610   47.4240 O   0  0  0  0  0  0  0  0  0  0  0  0
   46.0180   30.4850   48.0840 C   0  0  0  0  0  2  0  0  0  0  0  0
   47.5110   30.7440   48.0860 C   0  0  1  0  0  3  0  0  0  0  0  0
   47.6390   33.0680   47.9740 O   0  0  0  0  0  0  0  0  0  0  0  0
   47.4620   33.9110   47.4770 H   0  0  0  0  0  0  0  0  0  0  0  0
   48.1890   29.6910   47.4290 O   0  0  0  0  0  0  0  0  0  0  0  0
   47.6270   29.3260   46.6970 H   0  0  0  0  0  0  0  0  0  0  0  0
  1  2  1  0  0  0  0
  2  8  1  0  0  0  0
  3  2  2  0  0  0  0
  3  4  1  0  0  0  0
  4  5  2  0  0  0  0
  5  6  1  0  0  0  0
  6  7  1  0  0  0  0
  8 10  1  0  0  0  0
  8  6  2  0  0  0  0
  9  4  1  0  0  0  0
 11 16  1  0  0  0  0
 12 13  1  0  0  0  0
 12 11  2  0  0  0  0
 13 14  2  0  0  0  0
 14 15  1  0  0  0  0
 15  3  1  0  0  0  0
 16 15  2  0  0  0  0
 17 11  1  0  0  0  0
 18 12  1  0  0  0  0
 19 13  1  0  0  0  0
 20 25  1  1  0  0  0
 20 24  1  0  0  0  0
 21  5  1  1  0  0  0
 21 20  1  0  0  0  0
 21 22  1  0  0  0  0
 22 23  1  0  0  0  0
 23 24  1  0  0  0  0
 24 27  1  6  0  0  0
 26 25  1  0  0  0  0
 28 27  1  0  0  0  0
M  END
>  <minimizedAffinity>
-5.8749609

>  <minimizedRMSD>
0.860338986

$$$$
