
 OpenBabel03252509143D

 45 49  0  0  1  0  0  0  0  0999 V2000
   44.4320   35.3970   41.6050 S   0  0  0  0  0  0  0  0  0  0  0  0
   47.2330   32.9180   43.2580 C   0  0  0  0  0  0  0  0  0  0  0  0
   46.4520   33.6510   42.3630 C   0  0  0  0  0  0  0  0  0  0  0  0
   45.4110   34.4760   42.7590 C   0  0  0  0  0  0  0  0  0  0  0  0
   45.1180   34.5870   44.1280 C   0  0  0  0  0  0  0  0  0  0  0  0
   44.2160   35.2640   44.8660 N   0  0  0  0  0  0  0  0  0  0  0  0
   44.3970   34.9900   46.1690 C   0  0  0  0  0  0  0  0  0  0  0  0
   45.4300   34.1290   46.2210 N   0  0  0  0  0  0  0  0  0  0  0  0
   45.8980   33.8590   44.9890 C   0  0  0  0  0  0  0  0  0  0  0  0
   46.9460   33.0260   44.6190 C   0  0  0  0  0  0  0  0  0  0  0  0
   48.0150   32.3080   42.8680 H   0  0  0  0  0  0  0  0  0  0  0  0
   43.4820   35.9120   44.4550 H   0  0  0  0  0  0  0  0  0  0  0  0
   43.8350   35.3750   47.0150 H   0  0  0  0  0  0  0  0  0  0  0  0
   47.5310   32.4740   45.3280 H   0  0  0  0  0  0  0  0  0  0  0  0
   46.3410   32.5420   38.8720 C   0  0  0  0  0  0  0  0  0  0  0  0
   47.2980   33.3590   38.2580 C   0  0  0  0  0  0  0  0  0  0  0  0
   47.9750   34.2850   39.0500 C   0  0  0  0  0  0  0  0  0  0  0  0
   47.6800   34.3590   40.3810 N   0  0  0  0  0  0  0  0  0  0  0  0
   46.7440   33.5460   40.9310 C   0  0  0  0  0  0  0  0  0  0  0  0
   46.0590   32.6310   40.2080 N   0  0  0  0  0  0  0  0  0  0  0  0
   45.8520   31.8480   38.2090 H   0  0  0  0  0  0  0  0  0  0  0  0
   47.5300   33.3030   37.2200 H   0  0  0  0  0  0  0  0  0  0  0  0
   48.7310   34.9630   38.6850 H   0  0  0  0  0  0  0  0  0  0  0  0
   42.1340   34.1200   41.8250 N   0  0  0  0  0  0  0  0  0  0  0  0
   43.1350   34.4150   40.8140 C   0  0  1  0  0  0  0  0  0  0  0  0
   42.5620   35.3090   39.7070 C   0  0  0  0  0  0  0  0  0  0  0  0
   41.2920   34.9410   39.3100 O   0  0  0  0  0  0  0  0  0  0  0  0
   40.8480   33.7290   39.7900 C   0  0  0  0  0  0  0  0  0  0  0  0
   40.8640   33.7780   41.2950 C   0  0  1  0  0  0  0  0  0  0  0  0
   42.5620   33.4640   42.4850 H   0  0  0  0  0  0  0  0  0  0  0  0
   43.5120   33.4990   40.3550 H   0  0  0  0  0  0  0  0  0  0  0  0
   42.6080   36.3650   40.0460 H   0  0  0  0  0  0  0  0  0  0  0  0
   43.1710   35.2000   38.8150 H   0  0  0  0  0  0  0  0  0  0  0  0
   41.5430   32.9430   39.4370 H   0  0  0  0  0  0  0  0  0  0  0  0
   39.8380   33.5650   39.4230 H   0  0  0  0  0  0  0  0  0  0  0  0
   40.1460   34.5670   41.6080 H   0  0  0  0  0  0  0  0  0  0  0  0
   41.3450   31.3620   41.7620 C   0  0  2  0  0  3  0  0  0  0  0  0
   40.3050   32.4790   41.7930 C   0  0  2  0  0  3  0  0  0  0  0  0
   39.3070   31.9240   41.0420 O   0  0  0  0  0  0  0  0  0  0  0  0
   39.1000   30.6990   41.6750 C   0  0  0  0  0  2  0  0  0  0  0  0
   40.4270   30.2070   42.1850 C   0  0  2  0  0  3  0  0  0  0  0  0
   42.3640   31.5410   42.6660 O   0  0  0  0  0  0  0  0  0  0  0  0
   43.1170   32.0200   42.2120 H   0  0  0  0  0  0  0  0  0  0  0  0
   40.4220   30.2630   43.5980 O   0  0  0  0  0  0  0  0  0  0  0  0
   39.5640   30.6490   43.9120 H   0  0  0  0  0  0  0  0  0  0  0  0
  1  4  1  0  0  0  0
  2 10  1  0  0  0  0
  3  4  1  0  0  0  0
  3  2  2  0  0  0  0
  4  5  2  0  0  0  0
  5  6  1  0  0  0  0
  5  9  1  0  0  0  0
  6  7  1  0  0  0  0
  7  8  2  0  0  0  0
  7 13  1  0  0  0  0
  9  8  1  0  0  0  0
 10  9  2  0  0  0  0
 10 14  1  0  0  0  0
 11  2  1  0  0  0  0
 12  6  1  0  0  0  0
 15 20  1  0  0  0  0
 16 15  2  0  0  0  0
 16 17  1  0  0  0  0
 17 18  2  0  0  0  0
 18 19  1  0  0  0  0
 19  3  1  0  0  0  0
 20 19  2  0  0  0  0
 21 15  1  0  0  0  0
 22 16  1  0  0  0  0
 23 17  1  0  0  0  0
 24 30  1  0  0  0  0
 25 31  1  6  0  0  0
 25  1  1  0  0  0  0
 25 24  1  0  0  0  0
 26 32  1  0  0  0  0
 26 25  1  0  0  0  0
 27 26  1  0  0  0  0
 27 28  1  0  0  0  0
 28 29  1  0  0  0  0
 29 36  1  1  0  0  0
 29 38  1  0  0  0  0
 29 24  1  0  0  0  0
 33 26  1  0  0  0  0
 34 28  1  0  0  0  0
 35 28  1  0  0  0  0
 37 38  1  0  0  0  0
 37 41  1  0  0  0  0
 37 42  1  1  0  0  0
 38 39  1  6  0  0  0
 39 40  1  0  0  0  0
 40 41  1  0  0  0  0
 41 44  1  1  0  0  0
 43 42  1  0  0  0  0
 44 45  1  0  0  0  0
M  END
>  <minimizedAffinity>
-6.60673523

>  <minimizedRMSD>
2.08251405

$$$$
