
     RDKit          3D

 30 32  0  0  0  0  0  0  0  0999 V2000
   44.6344   35.9328   44.3413 C   0  0  0  0  0  0  0  0  0  0  0  0
   45.3438   35.9283   43.1310 C   0  0  0  0  0  0  0  0  0  0  0  0
   46.2669   34.8943   43.0027 C   0  0  0  0  0  0  0  0  0  0  0  0
   46.4259   33.9779   44.0177 N   0  0  0  0  0  0  0  0  0  0  0  0
   45.7083   34.0379   45.1624 C   0  0  0  0  0  0  0  0  0  0  0  0
   44.8142   35.0294   45.3023 N   0  0  0  0  0  0  0  0  0  0  0  0
   47.0924   34.7530   41.7526 C   0  0  0  0  0  0  0  0  0  0  0  0
   48.4010   35.5050   41.8313 C   0  0  0  0  0  0  0  0  0  0  0  0
   48.3100   33.9553   41.8167 C   0  0  0  0  0  0  0  0  0  0  0  0
   43.9154   36.7061   44.4879 H   0  0  0  0  0  0  0  0  0  0  0  0
   45.2266   36.6358   42.3365 H   0  0  0  0  0  0  0  0  0  0  0  0
   46.5319   34.8149   40.7889 H   0  0  0  0  0  0  0  0  0  0  0  0
   48.7027   35.9812   40.8826 H   0  0  0  0  0  0  0  0  0  0  0  0
   48.6640   35.9830   42.7764 H   0  0  0  0  0  0  0  0  0  0  0  0
   48.7254   33.4895   40.8842 H   0  0  0  0  0  0  0  0  0  0  0  0
   48.6418   33.4997   42.7650 H   0  0  0  0  0  0  0  0  0  0  0  0
   46.9283   33.0414   48.3439 O   0  0  0  0  0  0  0  0  0  0  0  0
   47.2027   33.3428   47.0126 C   0  0  2  0  0  0  0  0  0  0  0  0
   46.0606   32.9401   46.0999 C   0  0  2  0  0  0  0  0  0  0  0  0
   46.4704   31.8144   45.3955 O   0  0  0  0  0  0  0  0  0  0  0  0
   47.4333   31.1820   46.1789 C   0  0  0  0  0  0  0  0  0  0  0  0
   48.2940   32.3934   46.5524 C   0  0  1  0  0  0  0  0  0  0  0  0
   48.8352   32.9218   45.3840 O   0  0  0  0  0  0  0  0  0  0  0  0
   46.2082   33.6184   48.7172 H   0  0  0  0  0  0  0  0  0  0  0  0
   47.5011   34.4001   46.8680 H   0  0  0  0  0  0  0  0  0  0  0  0
   45.2020   32.6804   46.7585 H   0  0  0  0  0  0  0  0  0  0  0  0
   47.9703   30.4385   45.5930 H   0  0  0  0  0  0  0  0  0  0  0  0
   46.9432   30.7955   47.0896 H   0  0  0  0  0  0  0  0  0  0  0  0
   49.0420   32.1708   47.3194 H   0  0  0  0  0  0  0  0  0  0  0  0
   48.9630   32.1525   44.7469 H   0  0  0  0  0  0  0  0  0  0  0  0
  1  6  2  0
  2  1  1  0
  3  2  2  0
  3  4  1  0
  4  5  2  0
  5  6  1  0
  7  8  1  0
  7  9  1  0
  7  3  1  0
  8  9  1  0
  1 10  1  0
  2 11  1  0
  7 12  1  0
  8 13  1  0
  8 14  1  0
  9 15  1  0
  9 16  1  0
 17 18  1  0
 18 19  1  0
 19 20  1  0
 20 21  1  0
 21 22  1  0
 22 23  1  0
 22 18  1  0
 17 24  1  0
 18 25  1  1
 19 26  1  1
 21 27  1  0
 21 28  1  0
 22 29  1  1
 23 30  1  0
  5 19  1  0
M  ISO  7  10  14  11  14  12  13  13  13  14  13  15  13  16  13
M  END
>  <DihAtoms>  (1) 
3,4,18,17

>  <DihDeg>  (1) 
164.04816741044644

$$$$
