
 OpenBabel03252505253D

 43 46  0  0  1  0  0  0  0  0999 V2000
   46.6260   33.2450   44.6270 F   0  0  0  0  0  0  0  0  0  0  0  0
   47.3470   32.0990   44.5150 C   0  0  0  0  0  0  0  0  0  0  0  0
   48.1820   31.9610   43.4360 C   0  0  0  0  0  0  0  0  0  0  0  0
   48.9020   30.7970   43.3380 C   0  0  0  0  0  0  0  0  0  0  0  0
   48.7730   29.8210   44.3010 C   0  0  0  0  0  0  0  0  0  0  0  0
   47.9370   29.9590   45.3820 C   0  0  0  0  0  0  0  0  0  0  0  0
   47.2070   31.1390   45.4800 C   0  0  0  0  0  0  0  0  0  0  0  0
   49.5560   30.7210   42.4680 H   0  0  0  0  0  0  0  0  0  0  0  0
   49.3900   28.9380   44.1270 H   0  0  0  0  0  0  0  0  0  0  0  0
   47.8680   29.1640   46.1130 H   0  0  0  0  0  0  0  0  0  0  0  0
   46.3510   31.2460   46.6150 N   0  0  0  0  0  0  0  0  0  0  0  0
   45.2540   30.4240   47.0470 C   0  0  0  0  0  0  0  0  0  0  0  0
   45.6000   30.1580   48.5190 C   0  0  0  0  0  0  0  0  0  0  0  0
   46.4800   31.3230   48.8960 C   0  0  0  0  0  0  0  0  0  0  0  0
   46.3260   32.2250   47.6870 C   0  0  2  0  0  0  0  0  0  0  0  0
   45.2190   29.4440   46.5130 H   0  0  0  0  0  0  0  0  0  0  0  0
   44.2740   30.8960   46.9950 H   0  0  0  0  0  0  0  0  0  0  0  0
   44.6900   30.0690   49.1460 H   0  0  0  0  0  0  0  0  0  0  0  0
   46.1860   29.2310   48.5910 H   0  0  0  0  0  0  0  0  0  0  0  0
   46.2050   31.8080   49.8460 H   0  0  0  0  0  0  0  0  0  0  0  0
   47.5670   31.0300   48.9430 H   0  0  0  0  0  0  0  0  0  0  0  0
   47.2610   32.8510   47.6470 H   0  0  0  0  0  0  0  0  0  0  0  0
   45.1100   33.0810   47.7010 C   0  0  0  0  0  0  0  0  0  0  0  0
   45.4190   34.1620   47.7120 H   0  0  0  0  0  0  0  0  0  0  0  0
   44.4610   32.9870   46.8030 H   0  0  0  0  0  0  0  0  0  0  0  0
   44.5340   32.9350   48.6540 H   0  0  0  0  0  0  0  0  0  0  0  0
   48.8320   35.2260   41.9090 C   0  0  0  0  0  0  0  0  0  0  0  0
   48.4890   35.0210   40.5690 C   0  0  0  0  0  0  0  0  0  0  0  0
   48.0380   33.7500   40.2250 C   0  0  0  0  0  0  0  0  0  0  0  0
   47.9540   32.7880   41.1870 N   0  0  0  0  0  0  0  0  0  0  0  0
   48.2870   33.0210   42.4410 C   0  0  0  0  0  0  0  0  0  0  0  0
   48.7250   34.2320   42.8050 N   0  0  0  0  0  0  0  0  0  0  0  0
   49.1860   36.2030   42.2060 H   0  0  0  0  0  0  0  0  0  0  0  0
   48.5910   35.8390   39.9030 H   0  0  0  0  0  0  0  0  0  0  0  0
   48.2850   32.2330   38.3340 C   0  0  2  0  0  3  0  0  0  0  0  0
   47.6640   33.4990   38.8080 C   0  0  2  0  0  3  0  0  0  0  0  0
   48.0160   34.5360   37.9790 O   0  0  0  0  0  0  0  0  0  0  0  0
   48.8400   34.0670   36.9950 C   0  0  0  0  0  2  0  0  0  0  0  0
   49.2970   32.6850   37.3230 C   0  0  1  0  0  3  0  0  0  0  0  0
   47.3570   31.3520   37.7790 O   0  0  0  0  0  0  0  0  0  0  0  0
   47.3280   30.5400   38.3450 H   0  0  0  0  0  0  0  0  0  0  0  0
   50.6090   32.6620   37.7850 O   0  0  0  0  0  0  0  0  0  0  0  0
   51.0790   33.5320   37.6940 H   0  0  0  0  0  0  0  0  0  0  0  0
  2  1  1  0  0  0  0
  2  7  1  0  0  0  0
  3  2  2  0  0  0  0
  4  3  1  0  0  0  0
  4  5  2  0  0  0  0
  5  6  1  0  0  0  0
  6  7  2  0  0  0  0
  6 10  1  0  0  0  0
  7 11  1  0  0  0  0
  8  4  1  0  0  0  0
  9  5  1  0  0  0  0
 11 12  1  0  0  0  0
 11 15  1  0  0  0  0
 12 13  1  0  0  0  0
 13 19  1  0  0  0  0
 13 14  1  0  0  0  0
 13 18  1  0  0  0  0
 14 21  1  0  0  0  0
 14 20  1  0  0  0  0
 15 22  1  6  0  0  0
 15 23  1  0  0  0  0
 15 14  1  0  0  0  0
 16 12  1  0  0  0  0
 17 12  1  0  0  0  0
 23 24  1  0  0  0  0
 23 26  1  0  0  0  0
 25 23  1  0  0  0  0
 27 33  1  0  0  0  0
 27 32  1  0  0  0  0
 28 27  2  0  0  0  0
 29 28  1  0  0  0  0
 29 30  2  0  0  0  0
 30 31  1  0  0  0  0
 31 32  2  0  0  0  0
 31  3  1  0  0  0  0
 34 28  1  0  0  0  0
 35 40  1  6  0  0  0
 35 36  1  0  0  0  0
 36 29  1  1  0  0  0
 37 36  1  0  0  0  0
 38 39  1  0  0  0  0
 38 37  1  0  0  0  0
 39 42  1  1  0  0  0
 39 35  1  0  0  0  0
 40 41  1  0  0  0  0
 43 42  1  0  0  0  0
M  END
>  <minimizedAffinity>
-5.96869946

>  <minimizedRMSD>
1.13683081

$$$$
