
     RDKit          3D

 24 25  0  0  0  0  0  0  0  0999 V2000
   45.0013   35.4855   44.1871 C   0  0  0  0  0  0  0  0  0  0  0  0
   45.9784   34.9304   43.3427 C   0  0  0  0  0  0  0  0  0  0  0  0
   46.7082   33.8403   43.8352 C   0  0  0  0  0  0  0  0  0  0  0  0
   46.4420   33.3750   45.0907 N   0  0  0  0  0  0  0  0  0  0  0  0
   45.4928   33.9440   45.8618 C   0  0  0  0  0  0  0  0  0  0  0  0
   44.7839   34.9812   45.4194 N   0  0  0  0  0  0  0  0  0  0  0  0
   44.2913   36.5466   43.7071 O   0  0  0  0  0  0  0  0  0  0  0  0
   46.2046   35.2799   42.3522 H   0  0  0  0  0  0  0  0  0  0  0  0
   45.3360   33.5179   46.8541 H   0  0  0  0  0  0  0  0  0  0  0  0
   44.7777   37.2351   43.1450 H   0  0  0  0  0  0  0  0  0  0  0  0
   47.0969   30.8175   43.3169 O   0  0  0  0  0  0  0  0  0  0  0  0
   47.3130   31.8583   42.4302 C   0  0  1  0  0  0  0  0  0  0  0  0
   47.7551   33.1423   43.1020 C   0  0  1  0  0  0  0  0  0  0  0  0
   48.1947   33.8611   41.9949 O   0  0  0  0  0  0  0  0  0  0  0  0
   48.9858   33.0066   41.2544 C   0  0  0  0  0  0  0  0  0  0  0  0
   48.5523   31.5983   41.5656 C   0  0  2  0  0  0  0  0  0  0  0  0
   48.2426   30.8599   40.4412 O   0  0  0  0  0  0  0  0  0  0  0  0
   46.3220   30.2335   43.0452 H   0  0  0  0  0  0  0  0  0  0  0  0
   46.4557   32.1178   41.7991 H   0  0  0  0  0  0  0  0  0  0  0  0
   48.6598   32.8801   43.6948 H   0  0  0  0  0  0  0  0  0  0  0  0
   48.9649   33.2375   40.1592 H   0  0  0  0  0  0  0  0  0  0  0  0
   50.0441   33.1877   41.6047 H   0  0  0  0  0  0  0  0  0  0  0  0
   49.3196   31.1400   42.2093 H   0  0  0  0  0  0  0  0  0  0  0  0
   48.6518   29.9524   40.4679 H   0  0  0  0  0  0  0  0  0  0  0  0
  1  6  2  0
  2  3  2  0
  2  1  1  0
  3  4  1  0
  4  5  2  0
  6  5  1  0
  7  1  1  0
  2  8  1  0
  5  9  1  0
  7 10  1  0
 11 12  1  0
 12 13  1  0
 13 14  1  0
 14 15  1  0
 15 16  1  0
 16 17  1  0
 16 12  1  0
 11 18  1  0
 12 19  1  6
 13 20  1  1
 15 21  1  0
 15 22  1  0
 16 23  1  1
 17 24  1  0
  3 13  1  0
M  ISO  3   8  14   9  14  10   3
M  END
>  <DihAtoms>  (1) 
1,2,12,11

>  <DihDeg>  (1) 
21.352162942984876

$$$$
