
 OpenBabel03252504563D

 31 33  0  0  1  0  0  0  0  0999 V2000
   40.4030   30.6090   41.0770 N   0  0  0  0  0  0  0  0  0  0  0  0
   41.0860   31.8560   41.2540 C   0  0  0  0  0  0  0  0  0  0  0  0
   41.4160   32.2180   39.8280 C   0  0  0  0  0  0  0  0  0  0  0  0
   40.8490   31.1940   38.9200 C   0  0  0  0  0  0  0  0  0  0  0  0
   39.7790   30.4890   39.8590 C   0  0  2  0  0  0  0  0  0  0  0  0
   41.3810   32.5070   42.0390 H   0  0  0  0  0  0  0  0  0  0  0  0
   41.9570   33.1230   39.5120 H   0  0  0  0  0  0  0  0  0  0  0  0
   41.5780   30.4830   38.5730 H   0  0  0  0  0  0  0  0  0  0  0  0
   40.3040   31.7110   38.1330 H   0  0  0  0  0  0  0  0  0  0  0  0
   39.6230   29.5480   39.3480 H   0  0  0  0  0  0  0  0  0  0  0  0
   37.6960   31.7270   40.7320 C   0  0  2  0  0  3  0  0  0  0  0  0
   38.5610   31.3770   39.6040 C   0  0  2  0  0  3  0  0  0  0  0  0
   37.7400   30.8300   38.6230 O   0  0  0  0  0  0  0  0  0  0  0  0
   36.4780   30.6190   39.1310 C   0  0  0  0  0  2  0  0  0  0  0  0
   36.6560   30.6000   40.6540 C   0  0  2  0  0  3  0  0  0  0  0  0
   37.0450   32.9600   40.4720 O   0  0  0  0  0  0  0  0  0  0  0  0
   37.6820   33.6410   40.1820 H   0  0  0  0  0  0  0  0  0  0  0  0
   35.5360   31.0010   41.3310 O   0  0  0  0  0  0  0  0  0  0  0  0
   34.7940   30.3600   41.2180 H   0  0  0  0  0  0  0  0  0  0  0  0
   40.5270   29.6750   42.0820 C   0  0  0  0  0  0  0  0  0  0  0  0
   41.4220   29.0040   42.0660 H   0  0  0  0  0  0  0  0  0  0  0  0
   40.6890   30.2210   43.0680 H   0  0  0  0  0  0  0  0  0  0  0  0
   37.9010   26.9560   42.0620 C   0  0  0  0  0  0  0  0  0  0  0  0
   39.0380   27.6730   41.6820 C   0  0  0  0  0  0  0  0  0  0  0  0
   39.3670   28.8370   42.3130 C   0  0  0  0  0  0  0  0  0  0  0  0
   38.5310   29.2040   43.2800 N   0  0  0  0  0  0  0  0  0  0  0  0
   37.4060   28.5270   43.6790 C   0  0  0  0  0  0  0  0  0  0  0  0
   37.1020   27.3960   43.0560 N   0  0  0  0  0  0  0  0  0  0  0  0
   37.7520   26.0490   41.4840 H   0  0  0  0  0  0  0  0  0  0  0  0
   39.6940   27.3380   40.8850 H   0  0  0  0  0  0  0  0  0  0  0  0
   36.8170   28.9420   44.4820 H   0  0  0  0  0  0  0  0  0  0  0  0
  1  2  1  0  0  0  0
  1 20  1  0  0  0  0
  2  6  1  0  0  0  0
  3  2  2  0  0  0  0
  4  3  1  0  0  0  0
  4  5  1  0  0  0  0
  5 10  1  6  0  0  0
  5  1  1  0  0  0  0
  7  3  1  0  0  0  0
  8  4  1  0  0  0  0
  9  4  1  0  0  0  0
 11 16  1  6  0  0  0
 12 13  1  6  0  0  0
 12  5  1  0  0  0  0
 12 11  1  0  0  0  0
 13 14  1  0  0  0  0
 14 15  1  0  0  0  0
 15 11  1  0  0  0  0
 15 18  1  1  0  0  0
 17 16  1  0  0  0  0
 19 18  1  0  0  0  0
 20 25  1  0  0  0  0
 20 22  1  0  0  0  0
 21 20  1  0  0  0  0
 23 28  1  0  0  0  0
 24 23  2  0  0  0  0
 24 25  1  0  0  0  0
 25 26  2  0  0  0  0
 26 27  1  0  0  0  0
 27 31  1  0  0  0  0
 28 27  2  0  0  0  0
 29 23  1  0  0  0  0
 30 24  1  0  0  0  0
M  END
>  <minimizedAffinity>
-5.237679

$$$$

 OpenBabel03252504563D

 31 33  0  0  1  0  0  0  0  0999 V2000
   39.2050   31.9550   40.2720 N   0  0  0  0  0  0  0  0  0  0  0  0
   38.8340   33.2690   40.7090 C   0  0  0  0  0  0  0  0  0  0  0  0
   37.5810   33.5060   39.9040 C   0  0  0  0  0  0  0  0  0  0  0  0
   37.2760   32.2960   39.1070 C   0  0  0  0  0  0  0  0  0  0  0  0
   38.1420   31.1930   39.8530 C   0  0  2  0  0  0  0  0  0  0  0  0
   39.1770   34.0230   41.3740 H   0  0  0  0  0  0  0  0  0  0  0  0
   36.9690   34.4200   39.9370 H   0  0  0  0  0  0  0  0  0  0  0  0
   37.5730   32.3790   38.0760 H   0  0  0  0  0  0  0  0  0  0  0  0
   36.2280   32.0490   39.2620 H   0  0  0  0  0  0  0  0  0  0  0  0
   38.2120   30.4190   39.0990 H   0  0  0  0  0  0  0  0  0  0  0  0
   37.4640   29.5480   41.7160 C   0  0  2  0  0  3  0  0  0  0  0  0
   37.1450   30.7330   40.9170 C   0  0  2  0  0  3  0  0  0  0  0  0
   35.8870   30.5180   40.3640 O   0  0  0  0  0  0  0  0  0  0  0  0
   35.4950   29.2160   40.5810 C   0  0  0  0  0  2  0  0  0  0  0  0
   36.7900   28.4510   40.8800 C   0  0  2  0  0  3  0  0  0  0  0  0
   36.8080   29.6260   42.9710 O   0  0  0  0  0  0  0  0  0  0  0  0
   36.9590   30.4930   43.3950 H   0  0  0  0  0  0  0  0  0  0  0  0
   36.5960   27.3580   41.6810 O   0  0  0  0  0  0  0  0  0  0  0  0
   36.0650   26.6620   41.2240 H   0  0  0  0  0  0  0  0  0  0  0  0
   40.5500   31.6590   40.2420 C   0  0  0  0  0  0  0  0  0  0  0  0
   41.0970   31.6140   41.2160 H   0  0  0  0  0  0  0  0  0  0  0  0
   40.6800   30.5900   39.8750 H   0  0  0  0  0  0  0  0  0  0  0  0
   42.0290   33.4670   37.2690 C   0  0  0  0  0  0  0  0  0  0  0  0
   41.1910   32.6130   37.9920 C   0  0  0  0  0  0  0  0  0  0  0  0
   41.3520   32.4580   39.3370 C   0  0  0  0  0  0  0  0  0  0  0  0
   42.3460   33.1680   39.8660 N   0  0  0  0  0  0  0  0  0  0  0  0
   43.1880   34.0140   39.1880 C   0  0  0  0  0  0  0  0  0  0  0  0
   43.0160   34.1540   37.8810 N   0  0  0  0  0  0  0  0  0  0  0  0
   41.7950   33.5020   36.2100 H   0  0  0  0  0  0  0  0  0  0  0  0
   40.3920   32.0510   37.5190 H   0  0  0  0  0  0  0  0  0  0  0  0
   43.9540   34.5280   39.7480 H   0  0  0  0  0  0  0  0  0  0  0  0
  1  2  1  0  0  0  0
  2  6  1  0  0  0  0
  3  7  1  0  0  0  0
  3  2  2  0  0  0  0
  4  9  1  0  0  0  0
  4  5  1  0  0  0  0
  4  3  1  0  0  0  0
  5 10  1  6  0  0  0
  5  1  1  0  0  0  0
  5 12  1  0  0  0  0
  8  4  1  0  0  0  0
 11 16  1  1  0  0  0
 12 13  1  6  0  0  0
 12 11  1  0  0  0  0
 13 14  1  0  0  0  0
 14 15  1  0  0  0  0
 15 18  1  1  0  0  0
 15 11  1  0  0  0  0
 16 17  1  0  0  0  0
 19 18  1  0  0  0  0
 20  1  1  0  0  0  0
 20 21  1  0  0  0  0
 22 20  1  0  0  0  0
 23 28  2  0  0  0  0
 23 24  1  0  0  0  0
 24 25  2  0  0  0  0
 25 26  1  0  0  0  0
 25 20  1  0  0  0  0
 27 31  1  0  0  0  0
 27 26  2  0  0  0  0
 28 27  1  0  0  0  0
 29 23  1  0  0  0  0
 30 24  1  0  0  0  0
M  END
>  <minimizedAffinity>
-5.04495955

$$$$

 OpenBabel03252504563D

 31 33  0  0  1  0  0  0  0  0999 V2000
   37.8530   29.8950   37.9950 N   0  0  0  0  0  0  0  0  0  0  0  0
   36.7710   29.7910   37.0620 C   0  0  0  0  0  0  0  0  0  0  0  0
   36.4070   28.3330   37.1920 C   0  0  0  0  0  0  0  0  0  0  0  0
   37.2560   27.7090   38.2330 C   0  0  0  0  0  0  0  0  0  0  0  0
   37.7880   28.9820   39.0200 C   0  0  2  0  0  0  0  0  0  0  0  0
   36.2290   30.4050   36.3860 H   0  0  0  0  0  0  0  0  0  0  0  0
   35.6080   27.8250   36.6300 H   0  0  0  0  0  0  0  0  0  0  0  0
   38.0750   27.1400   37.8300 H   0  0  0  0  0  0  0  0  0  0  0  0
   36.6050   27.1560   38.9080 H   0  0  0  0  0  0  0  0  0  0  0  0
   38.6550   28.5810   39.5290 H   0  0  0  0  0  0  0  0  0  0  0  0
   36.9210   29.9950   41.2230 C   0  0  2  0  0  3  0  0  0  0  0  0
   36.6710   29.1590   40.0480 C   0  0  2  0  0  3  0  0  0  0  0  0
   36.2260   27.9280   40.5180 O   0  0  0  0  0  0  0  0  0  0  0  0
   36.3800   27.8630   41.8840 C   0  0  0  0  0  2  0  0  0  0  0  0
   37.4170   28.9410   42.2230 C   0  0  2  0  0  3  0  0  0  0  0  0
   35.6960   30.5280   41.7010 O   0  0  0  0  0  0  0  0  0  0  0  0
   35.1820   30.9340   40.9770 H   0  0  0  0  0  0  0  0  0  0  0  0
   37.2760   29.4470   43.4870 O   0  0  0  0  0  0  0  0  0  0  0  0
   37.4760   28.7670   44.1740 H   0  0  0  0  0  0  0  0  0  0  0  0
   38.8420   30.8100   37.7110 C   0  0  0  0  0  0  0  0  0  0  0  0
   39.8920   30.4350   37.6190 H   0  0  0  0  0  0  0  0  0  0  0  0
   38.6700   31.2190   36.6620 H   0  0  0  0  0  0  0  0  0  0  0  0
   38.0370   33.7670   39.9250 C   0  0  0  0  0  0  0  0  0  0  0  0
   37.8250   32.6780   39.0750 C   0  0  0  0  0  0  0  0  0  0  0  0
   38.8800   31.9840   38.5610 C   0  0  0  0  0  0  0  0  0  0  0  0
   40.0770   32.4320   38.9310 N   0  0  0  0  0  0  0  0  0  0  0  0
   40.3230   33.4960   39.7610 C   0  0  0  0  0  0  0  0  0  0  0  0
   39.2860   34.1590   40.2540 N   0  0  0  0  0  0  0  0  0  0  0  0
   37.1170   34.2310   40.2660 H   0  0  0  0  0  0  0  0  0  0  0  0
   36.8290   32.3470   38.7970 H   0  0  0  0  0  0  0  0  0  0  0  0
   41.3500   33.7490   39.9770 H   0  0  0  0  0  0  0  0  0  0  0  0
  1  5  1  0  0  0  0
  2  3  2  0  0  0  0
  2  1  1  0  0  0  0
  3  4  1  0  0  0  0
  4  9  1  0  0  0  0
  4  5  1  0  0  0  0
  5 10  1  1  0  0  0
  5 12  1  0  0  0  0
  6  2  1  0  0  0  0
  7  3  1  0  0  0  0
  8  4  1  0  0  0  0
 11 16  1  1  0  0  0
 11 15  1  0  0  0  0
 12 13  1  1  0  0  0
 12 11  1  0  0  0  0
 13 14  1  0  0  0  0
 14 15  1  0  0  0  0
 15 18  1  1  0  0  0
 17 16  1  0  0  0  0
 18 19  1  0  0  0  0
 20  1  1  0  0  0  0
 20 25  1  0  0  0  0
 21 20  1  0  0  0  0
 22 20  1  0  0  0  0
 23 28  1  0  0  0  0
 23 29  1  0  0  0  0
 24 23  2  0  0  0  0
 25 26  2  0  0  0  0
 25 24  1  0  0  0  0
 26 27  1  0  0  0  0
 27 31  1  0  0  0  0
 27 28  2  0  0  0  0
 30 24  1  0  0  0  0
M  END
>  <minimizedAffinity>
-5.03451777

$$$$

 OpenBabel03252504563D

 31 33  0  0  1  0  0  0  0  0999 V2000
   37.5460   28.2710   41.2120 N   0  0  0  0  0  0  0  0  0  0  0  0
   36.6650   28.1620   42.3360 C   0  0  0  0  0  0  0  0  0  0  0  0
   37.5700   28.5870   43.4650 C   0  0  0  0  0  0  0  0  0  0  0  0
   38.8900   28.9730   42.9130 C   0  0  0  0  0  0  0  0  0  0  0  0
   38.5430   29.2010   41.3800 C   0  0  2  0  0  0  0  0  0  0  0  0
   35.6600   27.8920   42.5480 H   0  0  0  0  0  0  0  0  0  0  0  0
   37.2810   28.6410   44.5250 H   0  0  0  0  0  0  0  0  0  0  0  0
   39.6380   28.2080   43.0240 H   0  0  0  0  0  0  0  0  0  0  0  0
   39.1590   29.9390   43.3350 H   0  0  0  0  0  0  0  0  0  0  0  0
   39.5200   29.1300   40.9200 H   0  0  0  0  0  0  0  0  0  0  0  0
   37.5080   31.2520   40.2140 C   0  0  2  0  0  3  0  0  0  0  0  0
   38.1330   30.6730   41.4050 C   0  0  2  0  0  3  0  0  0  0  0  0
   39.2140   31.4870   41.7270 O   0  0  0  0  0  0  0  0  0  0  0  0
   39.4340   32.3960   40.7160 C   0  0  0  0  0  2  0  0  0  0  0  0
   38.7410   31.8020   39.4840 C   0  0  2  0  0  3  0  0  0  0  0  0
   36.6810   32.3410   40.5890 O   0  0  0  0  0  0  0  0  0  0  0  0
   36.0830   32.0960   41.3210 H   0  0  0  0  0  0  0  0  0  0  0  0
   38.3230   32.7520   38.5920 O   0  0  0  0  0  0  0  0  0  0  0  0
   39.0860   33.2190   38.1740 H   0  0  0  0  0  0  0  0  0  0  0  0
   37.3450   27.3940   40.1690 C   0  0  0  0  0  0  0  0  0  0  0  0
   36.3800   27.4590   39.6080 H   0  0  0  0  0  0  0  0  0  0  0  0
   38.0890   27.6350   39.3410 H   0  0  0  0  0  0  0  0  0  0  0  0
   38.7220   24.0540   41.2860 C   0  0  0  0  0  0  0  0  0  0  0  0
   38.6860   25.4240   41.0120 C   0  0  0  0  0  0  0  0  0  0  0  0
   37.5710   25.9940   40.4690 C   0  0  0  0  0  0  0  0  0  0  0  0
   36.5710   25.1490   40.2340 N   0  0  0  0  0  0  0  0  0  0  0  0
   36.5710   23.8000   40.4890 C   0  0  0  0  0  0  0  0  0  0  0  0
   37.6620   23.2640   41.0180 N   0  0  0  0  0  0  0  0  0  0  0  0
   39.6630   23.7270   41.7170 H   0  0  0  0  0  0  0  0  0  0  0  0
   39.5280   26.0770   41.2180 H   0  0  0  0  0  0  0  0  0  0  0  0
   35.6850   23.2350   40.2470 H   0  0  0  0  0  0  0  0  0  0  0  0
  1  5  1  0  0  0  0
  1  2  1  0  0  0  0
  2  6  1  0  0  0  0
  2  3  2  0  0  0  0
  3  7  1  0  0  0  0
  4  8  1  0  0  0  0
  4  9  1  0  0  0  0
  4  3  1  0  0  0  0
  5 10  1  6  0  0  0
  5 12  1  0  0  0  0
  5  4  1  0  0  0  0
 11 16  1  1  0  0  0
 11 12  1  0  0  0  0
 12 13  1  6  0  0  0
 14 13  1  0  0  0  0
 15 18  1  6  0  0  0
 15 11  1  0  0  0  0
 15 14  1  0  0  0  0
 16 17  1  0  0  0  0
 19 18  1  0  0  0  0
 20 25  1  0  0  0  0
 20  1  1  0  0  0  0
 21 20  1  0  0  0  0
 22 20  1  0  0  0  0
 23 29  1  0  0  0  0
 24 30  1  0  0  0  0
 24 23  2  0  0  0  0
 25 24  1  0  0  0  0
 26 25  2  0  0  0  0
 26 27  1  0  0  0  0
 27 28  2  0  0  0  0
 28 23  1  0  0  0  0
 31 27  1  0  0  0  0
M  END
>  <minimizedAffinity>
-5.01297903

$$$$

 OpenBabel03252504563D

 31 33  0  0  1  0  0  0  0  0999 V2000
   38.2430   29.2650   38.8670 N   0  0  0  0  0  0  0  0  0  0  0  0
   38.4100   28.9920   37.4700 C   0  0  0  0  0  0  0  0  0  0  0  0
   37.1460   29.5840   36.8990 C   0  0  0  0  0  0  0  0  0  0  0  0
   36.3660   30.2140   37.9900 C   0  0  0  0  0  0  0  0  0  0  0  0
   37.4670   30.3680   39.1250 C   0  0  2  0  0  0  0  0  0  0  0  0
   39.1130   28.5340   36.8180 H   0  0  0  0  0  0  0  0  0  0  0  0
   36.8700   29.5840   35.8340 H   0  0  0  0  0  0  0  0  0  0  0  0
   35.5480   29.6060   38.3340 H   0  0  0  0  0  0  0  0  0  0  0  0
   36.0870   31.2140   37.6660 H   0  0  0  0  0  0  0  0  0  0  0  0
   36.8560   30.4850   40.0110 H   0  0  0  0  0  0  0  0  0  0  0  0
   39.2450   32.2010   39.4640 C   0  0  2  0  0  3  0  0  0  0  0  0
   38.0470   31.7350   38.7620 C   0  0  2  0  0  3  0  0  0  0  0  0
   37.0900   32.7350   38.8950 O   0  0  0  0  0  0  0  0  0  0  0  0
   37.5220   33.6830   39.7940 C   0  0  0  0  0  2  0  0  0  0  0  0
   38.6100   32.9860   40.6210 C   0  0  2  0  0  3  0  0  0  0  0  0
   39.9590   33.1080   38.6410 O   0  0  0  0  0  0  0  0  0  0  0  0
   40.0920   32.7430   37.7450 H   0  0  0  0  0  0  0  0  0  0  0  0
   39.5470   33.8520   41.1170 O   0  0  0  0  0  0  0  0  0  0  0  0
   39.1580   34.4610   41.7900 H   0  0  0  0  0  0  0  0  0  0  0  0
   38.7900   28.3630   39.7530 C   0  0  0  0  0  0  0  0  0  0  0  0
   38.9450   27.3120   39.4020 H   0  0  0  0  0  0  0  0  0  0  0  0
   39.8630   28.6730   39.9740 H   0  0  0  0  0  0  0  0  0  0  0  0
   36.6330   27.5240   42.7430 C   0  0  0  0  0  0  0  0  0  0  0  0
   37.0970   27.5120   41.4240 C   0  0  0  0  0  0  0  0  0  0  0  0
   38.1540   28.2900   41.0530 C   0  0  0  0  0  0  0  0  0  0  0  0
   38.6720   29.0300   42.0290 N   0  0  0  0  0  0  0  0  0  0  0  0
   38.2430   29.0690   43.3330 C   0  0  0  0  0  0  0  0  0  0  0  0
   37.2150   28.3050   43.6770 N   0  0  0  0  0  0  0  0  0  0  0  0
   35.7900   26.8610   42.9080 H   0  0  0  0  0  0  0  0  0  0  0  0
   36.6420   26.8920   40.6580 H   0  0  0  0  0  0  0  0  0  0  0  0
   38.7600   29.7190   44.0210 H   0  0  0  0  0  0  0  0  0  0  0  0
  1  5  1  0  0  0  0
  1 20  1  0  0  0  0
  2  1  1  0  0  0  0
  3  2  2  0  0  0  0
  3  4  1  0  0  0  0
  4  8  1  0  0  0  0
  4  5  1  0  0  0  0
  5 10  1  1  0  0  0
  6  2  1  0  0  0  0
  7  3  1  0  0  0  0
  9  4  1  0  0  0  0
 11 16  1  6  0  0  0
 11 15  1  0  0  0  0
 12 13  1  1  0  0  0
 12  5  1  0  0  0  0
 12 11  1  0  0  0  0
 13 14  1  0  0  0  0
 14 15  1  0  0  0  0
 15 18  1  6  0  0  0
 17 16  1  0  0  0  0
 18 19  1  0  0  0  0
 20 22  1  0  0  0  0
 20 25  1  0  0  0  0
 21 20  1  0  0  0  0
 23 29  1  0  0  0  0
 23 28  1  0  0  0  0
 24 23  2  0  0  0  0
 25 24  1  0  0  0  0
 25 26  2  0  0  0  0
 26 27  1  0  0  0  0
 27 28  2  0  0  0  0
 27 31  1  0  0  0  0
 30 24  1  0  0  0  0
M  END
>  <minimizedAffinity>
-4.94379663

$$$$

 OpenBabel03252504563D

 31 33  0  0  1  0  0  0  0  0999 V2000
   38.5200   29.6720   38.0790 N   0  0  0  0  0  0  0  0  0  0  0  0
   37.6820   29.2830   36.9840 C   0  0  0  0  0  0  0  0  0  0  0  0
   37.5900   27.7930   37.1960 C   0  0  0  0  0  0  0  0  0  0  0  0
   38.3240   27.4290   38.4300 C   0  0  0  0  0  0  0  0  0  0  0  0
   38.4360   28.8340   39.1640 C   0  0  2  0  0  0  0  0  0  0  0  0
   37.1740   29.7250   36.1620 H   0  0  0  0  0  0  0  0  0  0  0  0
   37.0300   27.0940   36.5570 H   0  0  0  0  0  0  0  0  0  0  0  0
   39.3000   27.0210   38.2400 H   0  0  0  0  0  0  0  0  0  0  0  0
   37.6730   26.7970   39.0320 H   0  0  0  0  0  0  0  0  0  0  0  0
   39.2480   28.6570   39.8570 H   0  0  0  0  0  0  0  0  0  0  0  0
   36.9860   29.7620   41.0800 C   0  0  2  0  0  3  0  0  0  0  0  0
   37.1260   28.8380   39.9530 C   0  0  2  0  0  3  0  0  0  0  0  0
   36.8300   27.5680   40.4360 O   0  0  0  0  0  0  0  0  0  0  0  0
   36.7250   27.6000   41.8080 C   0  0  0  0  0  2  0  0  0  0  0  0
   37.4630   28.8740   42.2380 C   0  0  2  0  0  3  0  0  0  0  0  0
   35.6160   30.0680   41.2810 O   0  0  0  0  0  0  0  0  0  0  0  0
   35.1860   30.3310   40.4440 H   0  0  0  0  0  0  0  0  0  0  0  0
   36.9880   29.4020   43.4080 O   0  0  0  0  0  0  0  0  0  0  0  0
   37.1710   28.8080   44.1750 H   0  0  0  0  0  0  0  0  0  0  0  0
   39.3500   30.7540   37.8820 C   0  0  0  0  0  0  0  0  0  0  0  0
   40.4540   30.5800   37.9100 H   0  0  0  0  0  0  0  0  0  0  0  0
   39.2190   31.1240   36.8130 H   0  0  0  0  0  0  0  0  0  0  0  0
   39.5530   33.8060   40.1050 C   0  0  0  0  0  0  0  0  0  0  0  0
   39.9770   32.6810   39.3920 C   0  0  0  0  0  0  0  0  0  0  0  0
   39.0800   31.9150   38.7070 C   0  0  0  0  0  0  0  0  0  0  0  0
   37.8180   32.3270   38.7890 N   0  0  0  0  0  0  0  0  0  0  0  0
   37.3650   33.4230   39.4790 C   0  0  0  0  0  0  0  0  0  0  0  0
   38.2510   34.1580   40.1380 N   0  0  0  0  0  0  0  0  0  0  0  0
   40.3630   34.3290   40.6040 H   0  0  0  0  0  0  0  0  0  0  0  0
   41.0190   32.3800   39.3540 H   0  0  0  0  0  0  0  0  0  0  0  0
   36.3080   33.6400   39.4580 H   0  0  0  0  0  0  0  0  0  0  0  0
  1  5  1  0  0  0  0
  2  3  2  0  0  0  0
  2  1  1  0  0  0  0
  3  4  1  0  0  0  0
  4  9  1  0  0  0  0
  4  5  1  0  0  0  0
  5 10  1  1  0  0  0
  5 12  1  0  0  0  0
  6  2  1  0  0  0  0
  7  3  1  0  0  0  0
  8  4  1  0  0  0  0
 11 16  1  1  0  0  0
 11 15  1  0  0  0  0
 12 13  1  1  0  0  0
 12 11  1  0  0  0  0
 13 14  1  0  0  0  0
 14 15  1  0  0  0  0
 15 18  1  1  0  0  0
 17 16  1  0  0  0  0
 18 19  1  0  0  0  0
 20 21  1  0  0  0  0
 20  1  1  0  0  0  0
 20 25  1  0  0  0  0
 22 20  1  0  0  0  0
 23 28  1  0  0  0  0
 23 29  1  0  0  0  0
 24 23  2  0  0  0  0
 25 26  2  0  0  0  0
 25 24  1  0  0  0  0
 26 27  1  0  0  0  0
 27 28  2  0  0  0  0
 30 24  1  0  0  0  0
 31 27  1  0  0  0  0
M  END
>  <minimizedAffinity>
-4.82738018

$$$$

 OpenBabel03252504563D

 31 33  0  0  1  0  0  0  0  0999 V2000
   38.9500   29.5590   42.6770 N   0  0  0  0  0  0  0  0  0  0  0  0
   39.6730   28.3380   42.8740 C   0  0  0  0  0  0  0  0  0  0  0  0
   38.6320   27.4820   43.5500 C   0  0  0  0  0  0  0  0  0  0  0  0
   37.3620   28.2390   43.6410 C   0  0  0  0  0  0  0  0  0  0  0  0
   37.5920   29.3840   42.5640 C   0  0  2  0  0  0  0  0  0  0  0  0
   40.6380   27.9350   42.6880 H   0  0  0  0  0  0  0  0  0  0  0  0
   38.7820   26.4450   43.8840 H   0  0  0  0  0  0  0  0  0  0  0  0
   37.1870   28.6620   44.6140 H   0  0  0  0  0  0  0  0  0  0  0  0
   36.5630   27.5990   43.2710 H   0  0  0  0  0  0  0  0  0  0  0  0
   36.8590   30.1220   42.8660 H   0  0  0  0  0  0  0  0  0  0  0  0
   37.4780   29.2080   39.9970 C   0  0  2  0  0  3  0  0  0  0  0  0
   37.0770   28.6870   41.3050 C   0  0  2  0  0  3  0  0  0  0  0  0
   35.6870   28.6230   41.3030 O   0  0  0  0  0  0  0  0  0  0  0  0
   35.1900   29.2560   40.1860 C   0  0  0  0  0  2  0  0  0  0  0  0
   36.3210   30.1750   39.7070 C   0  0  2  0  0  3  0  0  0  0  0  0
   37.4460   28.1650   39.0360 O   0  0  0  0  0  0  0  0  0  0  0  0
   37.9210   27.3740   39.3560 H   0  0  0  0  0  0  0  0  0  0  0  0
   36.2870   30.4130   38.3600 O   0  0  0  0  0  0  0  0  0  0  0  0
   35.4930   30.9410   38.1050 H   0  0  0  0  0  0  0  0  0  0  0  0
   39.6730   30.7310   42.7140 C   0  0  0  0  0  0  0  0  0  0  0  0
   39.3800   31.5030   43.4680 H   0  0  0  0  0  0  0  0  0  0  0  0
   40.7340   30.4940   43.0540 H   0  0  0  0  0  0  0  0  0  0  0  0
   40.7140   31.8520   39.2560 C   0  0  0  0  0  0  0  0  0  0  0  0
   40.7200   31.1200   40.4470 C   0  0  0  0  0  0  0  0  0  0  0  0
   39.8370   31.4120   41.4450 C   0  0  0  0  0  0  0  0  0  0  0  0
   39.0100   32.4200   41.1810 N   0  0  0  0  0  0  0  0  0  0  0  0
   38.9760   33.1600   40.0260 C   0  0  0  0  0  0  0  0  0  0  0  0
   39.8400   32.8620   39.0660 N   0  0  0  0  0  0  0  0  0  0  0  0
   41.4630   31.5200   38.5450 H   0  0  0  0  0  0  0  0  0  0  0  0
   41.4150   30.3050   40.6210 H   0  0  0  0  0  0  0  0  0  0  0  0
   38.2480   33.9530   39.9480 H   0  0  0  0  0  0  0  0  0  0  0  0
  1 20  1  0  0  0  0
  1  2  1  0  0  0  0
  2  3  2  0  0  0  0
  3  4  1  0  0  0  0
  3  7  1  0  0  0  0
  4  8  1  0  0  0  0
  5  1  1  0  0  0  0
  5 10  1  1  0  0  0
  5  4  1  0  0  0  0
  6  2  1  0  0  0  0
  9  4  1  0  0  0  0
 11 16  1  6  0  0  0
 11 12  1  0  0  0  0
 12 13  1  6  0  0  0
 12  5  1  0  0  0  0
 14 13  1  0  0  0  0
 15 18  1  6  0  0  0
 15 11  1  0  0  0  0
 15 14  1  0  0  0  0
 16 17  1  0  0  0  0
 19 18  1  0  0  0  0
 20 22  1  0  0  0  0
 20 21  1  0  0  0  0
 23 24  1  0  0  0  0
 24 30  1  0  0  0  0
 24 25  2  0  0  0  0
 25 20  1  0  0  0  0
 26 25  1  0  0  0  0
 27 26  2  0  0  0  0
 28 23  2  0  0  0  0
 28 27  1  0  0  0  0
 29 23  1  0  0  0  0
 31 27  1  0  0  0  0
M  END
>  <minimizedAffinity>
-4.82510376

$$$$

 OpenBabel03252504563D

 31 33  0  0  1  0  0  0  0  0999 V2000
   37.5380   25.7690   40.0770 N   0  0  0  0  0  0  0  0  0  0  0  0
   36.6470   24.6930   40.3970 C   0  0  0  0  0  0  0  0  0  0  0  0
   37.4780   23.9030   41.3770 C   0  0  0  0  0  0  0  0  0  0  0  0
   38.7610   24.6060   41.6070 C   0  0  0  0  0  0  0  0  0  0  0  0
   38.4270   26.0670   41.0800 C   0  0  2  0  0  0  0  0  0  0  0  0
   35.6720   24.3540   40.1480 H   0  0  0  0  0  0  0  0  0  0  0  0
   37.1600   22.9740   41.8740 H   0  0  0  0  0  0  0  0  0  0  0  0
   39.5830   24.1820   41.0570 H   0  0  0  0  0  0  0  0  0  0  0  0
   38.9180   24.6740   42.6820 H   0  0  0  0  0  0  0  0  0  0  0  0
   39.4170   26.4720   40.9120 H   0  0  0  0  0  0  0  0  0  0  0  0
   36.7450   27.6350   42.2400 C   0  0  2  0  0  3  0  0  0  0  0  0
   37.8640   26.6970   42.3540 C   0  0  2  0  0  3  0  0  0  0  0  0
   38.8620   27.3490   43.0720 O   0  0  0  0  0  0  0  0  0  0  0  0
   38.5360   28.6770   43.2290 C   0  0  0  0  0  2  0  0  0  0  0  0
   37.4990   28.9680   42.1380 C   0  0  2  0  0  3  0  0  0  0  0  0
   35.9940   27.6320   43.4440 O   0  0  0  0  0  0  0  0  0  0  0  0
   35.7750   26.7210   43.7220 H   0  0  0  0  0  0  0  0  0  0  0  0
   36.6350   29.9770   42.4720 O   0  0  0  0  0  0  0  0  0  0  0  0
   37.0980   30.8460   42.5310 H   0  0  0  0  0  0  0  0  0  0  0  0
   37.4540   26.2980   38.8070 C   0  0  0  0  0  0  0  0  0  0  0  0
   38.2880   26.9560   38.4580 H   0  0  0  0  0  0  0  0  0  0  0  0
   37.5240   25.4480   38.0530 H   0  0  0  0  0  0  0  0  0  0  0  0
   34.5850   28.7340   38.4530 C   0  0  0  0  0  0  0  0  0  0  0  0
   35.7980   28.2040   38.9000 C   0  0  0  0  0  0  0  0  0  0  0  0
   36.2120   26.9730   38.4850 C   0  0  0  0  0  0  0  0  0  0  0  0
   35.3790   26.3550   37.6520 N   0  0  0  0  0  0  0  0  0  0  0  0
   34.1810   26.8430   37.1930 C   0  0  0  0  0  0  0  0  0  0  0  0
   33.7950   28.0420   37.6060 N   0  0  0  0  0  0  0  0  0  0  0  0
   34.3720   29.7190   38.8550 H   0  0  0  0  0  0  0  0  0  0  0  0
   36.4470   28.7430   39.5830 H   0  0  0  0  0  0  0  0  0  0  0  0
   33.6050   26.2300   36.5180 H   0  0  0  0  0  0  0  0  0  0  0  0
  1  2  1  0  0  0  0
  1  5  1  0  0  0  0
  2  3  2  0  0  0  0
  3  4  1  0  0  0  0
  3  7  1  0  0  0  0
  4  9  1  0  0  0  0
  5 10  1  6  0  0  0
  5  4  1  0  0  0  0
  5 12  1  0  0  0  0
  6  2  1  0  0  0  0
  8  4  1  0  0  0  0
 11 12  1  0  0  0  0
 11 16  1  1  0  0  0
 12 13  1  6  0  0  0
 13 14  1  0  0  0  0
 15 11  1  0  0  0  0
 15 18  1  1  0  0  0
 15 14  1  0  0  0  0
 16 17  1  0  0  0  0
 18 19  1  0  0  0  0
 20  1  1  0  0  0  0
 21 20  1  0  0  0  0
 22 20  1  0  0  0  0
 23 29  1  0  0  0  0
 23 24  1  0  0  0  0
 24 30  1  0  0  0  0
 25 20  1  0  0  0  0
 25 24  2  0  0  0  0
 26 25  1  0  0  0  0
 27 28  1  0  0  0  0
 27 26  2  0  0  0  0
 28 23  2  0  0  0  0
 31 27  1  0  0  0  0
M  END
>  <minimizedAffinity>
-4.78453207

$$$$

 OpenBabel03252504563D

 31 33  0  0  1  0  0  0  0  0999 V2000
   39.2500   31.3300   39.3120 N   0  0  0  0  0  0  0  0  0  0  0  0
   38.5250   31.7410   38.1470 C   0  0  0  0  0  0  0  0  0  0  0  0
   38.3290   30.4230   37.4390 C   0  0  0  0  0  0  0  0  0  0  0  0
   38.8950   29.3350   38.2690 C   0  0  0  0  0  0  0  0  0  0  0  0
   38.9960   30.0340   39.6920 C   0  0  2  0  0  0  0  0  0  0  0  0
   38.1380   32.6290   37.7110 H   0  0  0  0  0  0  0  0  0  0  0  0
   37.8090   30.2900   36.4780 H   0  0  0  0  0  0  0  0  0  0  0  0
   39.8640   29.0060   37.9370 H   0  0  0  0  0  0  0  0  0  0  0  0
   38.1470   28.5480   38.3440 H   0  0  0  0  0  0  0  0  0  0  0  0
   39.7130   29.4010   40.1990 H   0  0  0  0  0  0  0  0  0  0  0  0
   37.2310   30.2840   41.5510 C   0  0  2  0  0  3  0  0  0  0  0  0
   37.6070   29.7270   40.2510 C   0  0  2  0  0  3  0  0  0  0  0  0
   37.3920   28.3540   40.3250 O   0  0  0  0  0  0  0  0  0  0  0  0
   37.1160   27.9920   41.6250 C   0  0  0  0  0  2  0  0  0  0  0  0
   37.6540   29.1420   42.4850 C   0  0  2  0  0  3  0  0  0  0  0  0
   35.8220   30.4260   41.6210 O   0  0  0  0  0  0  0  0  0  0  0  0
   35.4730   30.8840   40.8310 H   0  0  0  0  0  0  0  0  0  0  0  0
   36.9850   29.2860   43.6700 O   0  0  0  0  0  0  0  0  0  0  0  0
   37.1350   28.5150   44.2680 H   0  0  0  0  0  0  0  0  0  0  0  0
   40.1530   32.2270   39.8390 C   0  0  0  0  0  0  0  0  0  0  0  0
   39.7510   33.1450   40.3330 H   0  0  0  0  0  0  0  0  0  0  0  0
   40.6900   31.7330   40.7130 H   0  0  0  0  0  0  0  0  0  0  0  0
   42.5810   34.1610   37.6800 C   0  0  0  0  0  0  0  0  0  0  0  0
   41.4790   33.9130   38.5030 C   0  0  0  0  0  0  0  0  0  0  0  0
   41.2150   32.6510   38.9470 C   0  0  0  0  0  0  0  0  0  0  0  0
   42.0730   31.7230   38.5340 N   0  0  0  0  0  0  0  0  0  0  0  0
   43.1640   31.9280   37.7260 C   0  0  0  0  0  0  0  0  0  0  0  0
   43.4060   33.1620   37.3050 N   0  0  0  0  0  0  0  0  0  0  0  0
   42.6800   35.2040   37.3980 H   0  0  0  0  0  0  0  0  0  0  0  0
   40.8020   34.7020   38.8150 H   0  0  0  0  0  0  0  0  0  0  0  0
   43.7770   31.0790   37.4690 H   0  0  0  0  0  0  0  0  0  0  0  0
  1  5  1  0  0  0  0
  1 20  1  0  0  0  0
  2  1  1  0  0  0  0
  3  2  2  0  0  0  0
  3  4  1  0  0  0  0
  4  9  1  0  0  0  0
  4  5  1  0  0  0  0
  5 10  1  1  0  0  0
  5 12  1  0  0  0  0
  6  2  1  0  0  0  0
  7  3  1  0  0  0  0
  8  4  1  0  0  0  0
 11 16  1  6  0  0  0
 11 15  1  0  0  0  0
 12 13  1  1  0  0  0
 12 11  1  0  0  0  0
 13 14  1  0  0  0  0
 14 15  1  0  0  0  0
 15 18  1  1  0  0  0
 17 16  1  0  0  0  0
 18 19  1  0  0  0  0
 20 21  1  0  0  0  0
 20 22  1  0  0  0  0
 23 24  1  0  0  0  0
 24 30  1  0  0  0  0
 24 25  2  0  0  0  0
 25 20  1  0  0  0  0
 26 25  1  0  0  0  0
 27 26  2  0  0  0  0
 28 23  2  0  0  0  0
 28 27  1  0  0  0  0
 29 23  1  0  0  0  0
 31 27  1  0  0  0  0
M  END
>  <minimizedAffinity>
-4.78106594

$$$$
