
     RDKit          3D

 33 35  0  0  0  0  0  0  0  0999 V2000
   45.6033   34.0299   45.3295 C   0  0  0  0  0  0  0  0  0  0  0  0
   44.7008   35.0908   45.5859 C   0  0  0  0  0  0  0  0  0  0  0  0
   44.5292   36.0485   44.5773 C   0  0  0  0  0  0  0  0  0  0  0  0
   45.2325   35.8987   43.4311 N   0  0  0  0  0  0  0  0  0  0  0  0
   46.0873   34.8788   43.2093 C   0  0  0  0  0  0  0  0  0  0  0  0
   46.2674   33.9407   44.1741 N   0  0  0  0  0  0  0  0  0  0  0  0
   44.5808   33.1370   41.1896 Br  0  0  0  0  0  0  0  0  0  0  0  0
   46.2796   33.9918   40.9449 C   0  0  0  0  0  0  0  0  0  0  0  0
   46.8256   34.7503   41.9656 C   0  0  0  0  0  0  0  0  0  0  0  0
   48.0547   35.3737   41.7997 C   0  0  0  0  0  0  0  0  0  0  0  0
   48.7059   35.2179   40.6071 C   0  0  0  0  0  0  0  0  0  0  0  0
   48.1393   34.4608   39.6160 C   0  0  0  0  0  0  0  0  0  0  0  0
   46.9357   33.8359   39.7459 C   0  0  0  0  0  0  0  0  0  0  0  0
   45.6773   33.3369   46.1561 H   0  0  0  0  0  0  0  0  0  0  0  0
   44.1417   35.2101   46.4968 H   0  0  0  0  0  0  0  0  0  0  0  0
   43.8741   36.9000   44.6495 H   0  0  0  0  0  0  0  0  0  0  0  0
   48.4898   35.9637   42.5802 H   0  0  0  0  0  0  0  0  0  0  0  0
   49.6666   35.6947   40.4535 H   0  0  0  0  0  0  0  0  0  0  0  0
   48.6740   34.3540   38.6848 H   0  0  0  0  0  0  0  0  0  0  0  0
   48.2952   32.7425   37.3524 O   0  0  0  0  0  0  0  0  0  0  0  0
   47.2701   32.0614   38.0157 C   0  0  1  0  0  0  0  0  0  0  0  0
   46.3201   33.0264   38.6988 C   0  0  2  0  0  0  0  0  0  0  0  0
   45.8310   33.7215   37.6062 O   0  0  0  0  0  0  0  0  0  0  0  0
   45.3379   32.6584   36.8192 C   0  0  0  0  0  0  0  0  0  0  0  0
   46.3443   31.5526   36.9132 C   0  0  2  0  0  0  0  0  0  0  0  0
   45.7596   30.3731   37.3904 O   0  0  0  0  0  0  0  0  0  0  0  0
   47.9806   33.1443   36.5033 H   0  0  0  0  0  0  0  0  0  0  0  0
   47.6341   31.2605   38.6563 H   0  0  0  0  0  0  0  0  0  0  0  0
   45.4894   32.4105   39.0879 H   0  0  0  0  0  0  0  0  0  0  0  0
   44.3939   32.3357   37.3436 H   0  0  0  0  0  0  0  0  0  0  0  0
   45.1054   32.9589   35.7914 H   0  0  0  0  0  0  0  0  0  0  0  0
   46.8971   31.3874   35.9664 H   0  0  0  0  0  0  0  0  0  0  0  0
   45.0116   30.5912   37.9765 H   0  0  0  0  0  0  0  0  0  0  0  0
  1  2  2  0
  3  2  1  0
  4  3  2  0
  5  4  1  0
  5  6  2  0
  6  1  1  0
  8  7  1  0
  8  9  2  0
  9  5  1  0
 10  9  1  0
 11 10  2  0
 12 13  2  0
 12 11  1  0
 13  8  1  0
  1 14  1  0
  2 15  1  0
  3 16  1  0
 10 17  1  0
 11 18  1  0
 12 19  1  0
 20 21  1  0
 21 22  1  0
 22 23  1  0
 23 24  1  0
 24 25  1  0
 25 26  1  0
 25 21  1  0
 20 27  1  0
 21 28  1  1
 22 29  1  1
 24 30  1  0
 24 31  1  0
 25 32  1  6
 26 33  1  0
 13 22  1  0
M  ISO  6  14  14  15  14  16  14  17  14  18  14  19  14
M  END
>  <DihAtoms>  (1) 
11,12,21,20

>  <DihDeg>  (1) 
89.99968090341869

$$$$
