
 OpenBabel03252500353D

 46 49  0  0  1  0  0  0  0  0999 V2000
   46.1310   34.7850   44.0230 C   0  0  1  0  0  0  0  0  0  0  0  0
   44.8710   34.5190   44.5640 C   0  0  0  0  0  0  0  0  0  0  0  0
   45.9900   33.8930   45.2910 C   0  0  1  0  0  0  0  0  0  0  0  0
   46.6410   35.7750   44.2000 H   0  0  0  0  0  0  0  0  0  0  0  0
   44.1620   33.7820   44.0870 H   0  0  0  0  0  0  0  0  0  0  0  0
   44.2850   35.3240   45.0630 H   0  0  0  0  0  0  0  0  0  0  0  0
   46.5010   34.3650   46.1410 H   0  0  0  0  0  0  0  0  0  0  0  0
   45.8560   33.5770   41.8560 C   0  0  0  0  0  0  0  0  0  0  0  0
   46.7480   34.1380   42.8260 C   0  0  0  0  0  0  0  0  0  0  0  0
   48.0910   34.0650   42.6340 C   0  0  0  0  0  0  0  0  0  0  0  0
   48.5240   33.4400   41.4910 N   0  0  0  0  0  0  0  0  0  0  0  0
   47.6660   32.9120   40.5760 C   0  0  0  0  0  0  0  0  0  0  0  0
   46.3070   32.9670   40.7370 N   0  0  0  0  0  0  0  0  0  0  0  0
   44.7940   33.6630   42.0600 H   0  0  0  0  0  0  0  0  0  0  0  0
   48.7740   34.4780   43.3470 H   0  0  0  0  0  0  0  0  0  0  0  0
   47.9910   33.0270   38.1050 C   0  0  2  0  0  0  0  0  0  0  0  0
   48.2210   32.2540   39.3680 C   0  0  1  0  0  0  0  0  0  0  0  0
   49.5880   32.1550   39.5250 O   0  0  0  0  0  0  0  0  0  0  0  0
   50.0230   31.8240   38.2430 C   0  0  0  0  0  0  0  0  0  0  0  0
   49.2450   32.7390   37.3260 C   0  0  2  0  0  0  0  0  0  0  0  0
   47.8410   34.3960   38.3340 O   0  0  0  0  0  0  0  0  0  0  0  0
   47.8080   34.8190   37.4260 H   0  0  0  0  0  0  0  0  0  0  0  0
   49.9650   33.9120   37.1420 O   0  0  0  0  0  0  0  0  0  0  0  0
   50.1240   34.2990   38.0440 H   0  0  0  0  0  0  0  0  0  0  0  0
   46.2340   32.4330   45.1790 C   0  0  0  0  0  0  0  0  0  0  0  0
   47.2710   32.1530   44.9170 H   0  0  0  0  0  0  0  0  0  0  0  0
   45.5580   32.0380   44.3740 H   0  0  0  0  0  0  0  0  0  0  0  0
   45.8760   31.8520   46.4250 N   0  0  0  0  0  0  0  0  0  0  0  0
   46.1470   32.5760   47.5920 C   0  0  0  0  0  0  0  0  0  0  0  0
   47.5450   32.2430   48.1500 C   0  0  0  0  0  0  0  0  0  0  0  0
   47.4850   30.8200   48.6280 C   0  0  0  0  0  0  0  0  0  0  0  0
   47.1640   29.9780   47.4120 C   0  0  0  0  0  0  0  0  0  0  0  0
   46.0000   30.4680   46.5980 C   0  0  2  0  0  0  0  0  0  0  0  0
   45.4670   32.1340   48.3850 H   0  0  0  0  0  0  0  0  0  0  0  0
   45.9090   33.6360   47.6380 H   0  0  0  0  0  0  0  0  0  0  0  0
   47.8590   32.9390   48.9270 H   0  0  0  0  0  0  0  0  0  0  0  0
   48.2480   32.2400   47.2750 H   0  0  0  0  0  0  0  0  0  0  0  0
   46.7740   30.6690   49.4470 H   0  0  0  0  0  0  0  0  0  0  0  0
   48.5020   30.4910   48.9500 H   0  0  0  0  0  0  0  0  0  0  0  0
   48.0580   29.9220   46.7600 H   0  0  0  0  0  0  0  0  0  0  0  0
   46.9530   28.9270   47.7170 H   0  0  0  0  0  0  0  0  0  0  0  0
   45.0850   30.0850   47.1120 H   0  0  0  0  0  0  0  0  0  0  0  0
   46.0550   29.7310   45.2660 C   0  0  0  0  0  0  0  0  0  0  0  0
   45.8390   28.6410   45.4160 H   0  0  0  0  0  0  0  0  0  0  0  0
   46.9860   29.9150   44.7290 H   0  0  0  0  0  0  0  0  0  0  0  0
   45.1500   30.1010   44.7090 H   0  0  0  0  0  0  0  0  0  0  0  0
  1  4  1  1  0  0  0
  1  2  1  0  0  0  0
  1  3  1  0  0  0  0
  2  6  1  0  0  0  0
  2  3  1  0  0  0  0
  3  7  1  1  0  0  0
  5  2  1  0  0  0  0
  8 14  1  0  0  0  0
  8  9  1  0  0  0  0
  9  1  1  0  0  0  0
 10  9  2  0  0  0  0
 10 15  1  0  0  0  0
 11 10  1  0  0  0  0
 12 13  1  0  0  0  0
 12 11  2  0  0  0  0
 13  8  2  0  0  0  0
 16 21  1  1  0  0  0
 16 17  1  0  0  0  0
 17 18  1  0  0  0  0
 17 12  1  1  0  0  0
 19 18  1  0  0  0  0
 20 23  1  1  0  0  0
 20 16  1  0  0  0  0
 20 19  1  0  0  0  0
 22 21  1  0  0  0  0
 23 24  1  0  0  0  0
 25  3  1  0  0  0  0
 25 28  1  0  0  0  0
 26 25  1  0  0  0  0
 27 25  1  0  0  0  0
 28 33  1  0  0  0  0
 28 29  1  0  0  0  0
 29 35  1  0  0  0  0
 29 30  1  0  0  0  0
 29 34  1  0  0  0  0
 30 31  1  0  0  0  0
 30 36  1  0  0  0  0
 31 39  1  0  0  0  0
 31 38  1  0  0  0  0
 32 41  1  0  0  0  0
 32 31  1  0  0  0  0
 33 42  1  1  0  0  0
 33 32  1  0  0  0  0
 37 30  1  0  0  0  0
 40 32  1  0  0  0  0
 43 44  1  0  0  0  0
 43 33  1  0  0  0  0
 45 43  1  0  0  0  0
 46 43  1  0  0  0  0
M  END
>  <minimizedAffinity>
-5.14266157

>  <minimizedRMSD>
2.32940769

$$$$
