
 OpenBabel03252504073D

 19 20  0  0  1  0  0  0  0  0999 V2000
   46.5720   33.5790   44.5020 C   0  0  0  0  0  0  0  0  0  0  0  0
   46.1140   33.3500   45.8100 C   0  0  0  0  0  0  0  0  0  0  0  0
   45.1040   34.2030   46.2830 C   0  0  0  0  0  0  0  0  0  0  0  0
   44.6340   35.1840   45.4670 N   0  0  0  0  0  0  0  0  0  0  0  0
   45.1070   35.3600   44.2210 C   0  0  0  0  0  0  0  0  0  0  0  0
   46.0650   34.5650   43.7460 N   0  0  0  0  0  0  0  0  0  0  0  0
   44.7180   34.0770   47.2710 H   0  0  0  0  0  0  0  0  0  0  0  0
   44.7560   36.1280   43.5440 H   0  0  0  0  0  0  0  0  0  0  0  0
   45.5670   31.4350   47.3210 C   0  0  2  0  0  0  0  0  0  0  0  0
   46.6460   32.2810   46.6620 C   0  0  2  0  0  0  0  0  0  0  0  0
   47.5100   32.6720   47.6450 O   0  0  0  0  0  0  0  0  0  0  0  0
   47.4080   31.7920   48.7070 C   0  0  0  0  0  0  0  0  0  0  0  0
   46.4450   30.6930   48.3230 C   0  0  1  0  0  0  0  0  0  0  0  0
   44.9060   30.6030   46.4560 O   0  0  0  0  0  0  0  0  0  0  0  0
   43.9460   30.5440   46.7590 H   0  0  0  0  0  0  0  0  0  0  0  0
   45.7410   30.2720   49.4430 O   0  0  0  0  0  0  0  0  0  0  0  0
   46.2370   29.4780   49.8000 H   0  0  0  0  0  0  0  0  0  0  0  0
   47.5570   32.7520   44.0260 O   0  0  0  0  0  0  0  0  0  0  0  0
   48.5280   32.9260   44.3270 H   0  0  0  0  0  0  0  0  0  0  0  0
  1  2  1  0  0  0  0
  2  3  2  0  0  0  0
  3  7  1  0  0  0  0
  4  3  1  0  0  0  0
  5  4  2  0  0  0  0
  6  5  1  0  0  0  0
  6  1  2  0  0  0  0
  8  5  1  0  0  0  0
  9 14  1  6  0  0  0
  9 13  1  0  0  0  0
 10  2  1  1  0  0  0
 10  9  1  0  0  0  0
 10 11  1  0  0  0  0
 11 12  1  0  0  0  0
 13 12  1  0  0  0  0
 13 16  1  1  0  0  0
 14 15  1  0  0  0  0
 16 17  1  0  0  0  0
 18 19  1  0  0  0  0
 18  1  1  0  0  0  0
M  END
>  <minimizedAffinity>
-4.74194908

>  <minimizedRMSD>
6.33302689

$$$$
