
 OpenBabel03252505263D

 43 46  0  0  1  0  0  0  0  0999 V2000
   38.9620   30.2830   41.8150 F   0  0  0  0  0  0  0  0  0  0  0  0
   38.0090   30.1120   40.8610 C   0  0  0  0  0  0  0  0  0  0  0  0
   37.8550   31.0930   39.9170 C   0  0  0  0  0  0  0  0  0  0  0  0
   36.8880   30.9050   38.9610 C   0  0  0  0  0  0  0  0  0  0  0  0
   36.1160   29.7650   38.9740 C   0  0  0  0  0  0  0  0  0  0  0  0
   36.2700   28.7810   39.9200 C   0  0  0  0  0  0  0  0  0  0  0  0
   37.2510   28.9740   40.8880 C   0  0  0  0  0  0  0  0  0  0  0  0
   36.7930   31.7040   38.2250 H   0  0  0  0  0  0  0  0  0  0  0  0
   35.3790   29.7150   38.1710 H   0  0  0  0  0  0  0  0  0  0  0  0
   35.6400   27.9020   39.8910 H   0  0  0  0  0  0  0  0  0  0  0  0
   37.3820   27.9330   41.8540 N   0  0  0  0  0  0  0  0  0  0  0  0
   37.6630   26.5320   41.6960 C   0  0  0  0  0  0  0  0  0  0  0  0
   38.8080   26.3090   42.6940 C   0  0  0  0  0  0  0  0  0  0  0  0
   38.6240   27.4140   43.7030 C   0  0  0  0  0  0  0  0  0  0  0  0
   37.2710   27.9710   43.3010 C   0  0  2  0  0  0  0  0  0  0  0  0
   38.0370   26.2860   40.6730 H   0  0  0  0  0  0  0  0  0  0  0  0
   36.8410   25.8640   41.9480 H   0  0  0  0  0  0  0  0  0  0  0  0
   38.7750   25.2940   43.1380 H   0  0  0  0  0  0  0  0  0  0  0  0
   39.7690   26.4530   42.1800 H   0  0  0  0  0  0  0  0  0  0  0  0
   38.6700   27.0810   44.7510 H   0  0  0  0  0  0  0  0  0  0  0  0
   39.3700   28.2460   43.5560 H   0  0  0  0  0  0  0  0  0  0  0  0
   37.2610   29.0410   43.6500 H   0  0  0  0  0  0  0  0  0  0  0  0
   36.1060   27.2210   43.8420 C   0  0  0  0  0  0  0  0  0  0  0  0
   35.5100   27.9000   44.5130 H   0  0  0  0  0  0  0  0  0  0  0  0
   35.3770   26.8750   43.0780 H   0  0  0  0  0  0  0  0  0  0  0  0
   36.4480   26.3840   44.5070 H   0  0  0  0  0  0  0  0  0  0  0  0
   38.9940   34.5160   40.5520 C   0  0  0  0  0  0  0  0  0  0  0  0
   40.2730   34.5320   39.9900 C   0  0  0  0  0  0  0  0  0  0  0  0
   40.7140   33.3500   39.4000 C   0  0  0  0  0  0  0  0  0  0  0  0
   39.8960   32.2600   39.3990 N   0  0  0  0  0  0  0  0  0  0  0  0
   38.6950   32.2840   39.9410 C   0  0  0  0  0  0  0  0  0  0  0  0
   38.2420   33.4050   40.5160 N   0  0  0  0  0  0  0  0  0  0  0  0
   38.6250   35.4190   41.0190 H   0  0  0  0  0  0  0  0  0  0  0  0
   40.8250   35.4360   40.0450 H   0  0  0  0  0  0  0  0  0  0  0  0
   41.9620   33.3010   37.3070 C   0  0  2  0  0  3  0  0  0  0  0  0
   42.0700   33.3340   38.7910 C   0  0  2  0  0  3  0  0  0  0  0  0
   42.8320   32.2800   39.2310 O   0  0  0  0  0  0  0  0  0  0  0  0
   43.2300   31.5310   38.1600 C   0  0  0  0  0  2  0  0  0  0  0  0
   42.4720   31.9400   36.9400 C   0  0  1  0  0  3  0  0  0  0  0  0
   42.6960   34.3130   36.6910 O   0  0  0  0  0  0  0  0  0  0  0  0
   42.0600   34.9120   36.2240 H   0  0  0  0  0  0  0  0  0  0  0  0
   41.4740   31.0290   36.6120 O   0  0  0  0  0  0  0  0  0  0  0  0
   41.5080   30.1910   37.1450 H   0  0  0  0  0  0  0  0  0  0  0  0
  2  7  1  0  0  0  0
  2  1  1  0  0  0  0
  3 31  1  0  0  0  0
  3  2  2  0  0  0  0
  4  5  2  0  0  0  0
  4  3  1  0  0  0  0
  5  6  1  0  0  0  0
  6  7  2  0  0  0  0
  7 11  1  0  0  0  0
  8  4  1  0  0  0  0
  9  5  1  0  0  0  0
 10  6  1  0  0  0  0
 11 15  1  0  0  0  0
 12 11  1  0  0  0  0
 12 17  1  0  0  0  0
 12 13  1  0  0  0  0
 13 18  1  0  0  0  0
 13 14  1  0  0  0  0
 14 20  1  0  0  0  0
 15 22  1  1  0  0  0
 15 14  1  0  0  0  0
 15 23  1  0  0  0  0
 16 12  1  0  0  0  0
 19 13  1  0  0  0  0
 21 14  1  0  0  0  0
 23 26  1  0  0  0  0
 23 24  1  0  0  0  0
 25 23  1  0  0  0  0
 27 33  1  0  0  0  0
 28 34  1  0  0  0  0
 28 27  2  0  0  0  0
 29 28  1  0  0  0  0
 30 29  2  0  0  0  0
 30 31  1  0  0  0  0
 31 32  2  0  0  0  0
 32 27  1  0  0  0  0
 35 40  1  6  0  0  0
 35 36  1  0  0  0  0
 36 37  1  0  0  0  0
 36 29  1  1  0  0  0
 38 37  1  0  0  0  0
 39 42  1  1  0  0  0
 39 35  1  0  0  0  0
 39 38  1  0  0  0  0
 41 40  1  0  0  0  0
 42 43  1  0  0  0  0
M  END
>  <minimizedAffinity>
-7.26653862

$$$$

 OpenBabel03252505263D

 43 46  0  0  1  0  0  0  0  0999 V2000
   37.6650   31.1290   37.2520 F   0  0  0  0  0  0  0  0  0  0  0  0
   36.9790   30.6510   38.3240 C   0  0  0  0  0  0  0  0  0  0  0  0
   37.1840   31.2470   39.5410 C   0  0  0  0  0  0  0  0  0  0  0  0
   36.4840   30.7520   40.6140 C   0  0  0  0  0  0  0  0  0  0  0  0
   35.6150   29.6970   40.4440 C   0  0  0  0  0  0  0  0  0  0  0  0
   35.4090   29.1000   39.2240 C   0  0  0  0  0  0  0  0  0  0  0  0
   36.1200   29.6030   38.1390 C   0  0  0  0  0  0  0  0  0  0  0  0
   36.6700   31.2490   41.5660 H   0  0  0  0  0  0  0  0  0  0  0  0
   35.1100   29.3820   41.3590 H   0  0  0  0  0  0  0  0  0  0  0  0
   34.7170   28.2730   39.1400 H   0  0  0  0  0  0  0  0  0  0  0  0
   35.8810   28.9590   36.8890 N   0  0  0  0  0  0  0  0  0  0  0  0
   34.6590   28.7270   36.1680 C   0  0  0  0  0  0  0  0  0  0  0  0
   35.0030   29.2380   34.7610 C   0  0  0  0  0  0  0  0  0  0  0  0
   36.5040   29.1220   34.6950 C   0  0  0  0  0  0  0  0  0  0  0  0
   36.8060   28.3370   35.9580 C   0  0  2  0  0  0  0  0  0  0  0  0
   33.8100   29.3340   36.5630 H   0  0  0  0  0  0  0  0  0  0  0  0
   34.3540   27.6840   36.0990 H   0  0  0  0  0  0  0  0  0  0  0  0
   34.4780   28.6610   33.9750 H   0  0  0  0  0  0  0  0  0  0  0  0
   34.7240   30.2990   34.6850 H   0  0  0  0  0  0  0  0  0  0  0  0
   36.8800   28.6420   33.7780 H   0  0  0  0  0  0  0  0  0  0  0  0
   37.0090   30.1230   34.8110 H   0  0  0  0  0  0  0  0  0  0  0  0
   37.8620   28.6030   36.2420 H   0  0  0  0  0  0  0  0  0  0  0  0
   36.6410   26.8640   35.8280 C   0  0  0  0  0  0  0  0  0  0  0  0
   37.6320   26.3650   36.0060 H   0  0  0  0  0  0  0  0  0  0  0  0
   35.9590   26.4030   36.5750 H   0  0  0  0  0  0  0  0  0  0  0  0
   36.3610   26.5890   34.7760 H   0  0  0  0  0  0  0  0  0  0  0  0
   38.5470   34.5350   40.4020 C   0  0  0  0  0  0  0  0  0  0  0  0
   39.8600   34.4650   39.9280 C   0  0  0  0  0  0  0  0  0  0  0  0
   40.2450   33.2750   39.3190 C   0  0  0  0  0  0  0  0  0  0  0  0
   39.3430   32.2570   39.2150 N   0  0  0  0  0  0  0  0  0  0  0  0
   38.1130   32.3620   39.6740 C   0  0  0  0  0  0  0  0  0  0  0  0
   37.7120   33.4930   40.2660 N   0  0  0  0  0  0  0  0  0  0  0  0
   38.2200   35.4480   40.8810 H   0  0  0  0  0  0  0  0  0  0  0  0
   40.4780   35.3170   40.0610 H   0  0  0  0  0  0  0  0  0  0  0  0
   41.6210   33.0680   37.3180 C   0  0  2  0  0  3  0  0  0  0  0  0
   41.6350   33.1690   38.8030 C   0  0  2  0  0  3  0  0  0  0  0  0
   42.3160   32.1040   39.3410 O   0  0  0  0  0  0  0  0  0  0  0  0
   42.7460   31.2870   38.3340 C   0  0  0  0  0  2  0  0  0  0  0  0
   42.0890   31.6690   37.0490 C   0  0  1  0  0  3  0  0  0  0  0  0
   42.4410   34.0140   36.7060 O   0  0  0  0  0  0  0  0  0  0  0  0
   41.8660   34.6170   36.1710 H   0  0  0  0  0  0  0  0  0  0  0  0
   41.0720   30.7870   36.6970 O   0  0  0  0  0  0  0  0  0  0  0  0
   41.0310   29.9770   37.2690 H   0  0  0  0  0  0  0  0  0  0  0  0
  1  2  1  0  0  0  0
  2  3  1  0  0  0  0
  3 31  1  0  0  0  0
  3  4  2  0  0  0  0
  4  8  1  0  0  0  0
  5  4  1  0  0  0  0
  5  9  1  0  0  0  0
  6  5  2  0  0  0  0
  7  2  2  0  0  0  0
  7  6  1  0  0  0  0
 10  6  1  0  0  0  0
 11  7  1  0  0  0  0
 12 16  1  0  0  0  0
 12 11  1  0  0  0  0
 13 12  1  0  0  0  0
 14 13  1  0  0  0  0
 14 21  1  0  0  0  0
 14 15  1  0  0  0  0
 15 22  1  1  0  0  0
 15 11  1  0  0  0  0
 17 12  1  0  0  0  0
 18 13  1  0  0  0  0
 19 13  1  0  0  0  0
 20 14  1  0  0  0  0
 23 15  1  0  0  0  0
 23 24  1  0  0  0  0
 23 25  1  0  0  0  0
 26 23  1  0  0  0  0
 27 33  1  0  0  0  0
 28 34  1  0  0  0  0
 28 27  2  0  0  0  0
 29 28  1  0  0  0  0
 30 29  2  0  0  0  0
 30 31  1  0  0  0  0
 31 32  2  0  0  0  0
 32 27  1  0  0  0  0
 35 40  1  6  0  0  0
 35 36  1  0  0  0  0
 36 29  1  1  0  0  0
 36 37  1  0  0  0  0
 38 37  1  0  0  0  0
 39 42  1  1  0  0  0
 39 35  1  0  0  0  0
 39 38  1  0  0  0  0
 41 40  1  0  0  0  0
 42 43  1  0  0  0  0
M  END
>  <minimizedAffinity>
-6.76847935

$$$$

 OpenBabel03252505263D

 43 46  0  0  1  0  0  0  0  0999 V2000
   37.8160   28.0510   39.4890 F   0  0  0  0  0  0  0  0  0  0  0  0
   37.5790   27.8890   40.8180 C   0  0  0  0  0  0  0  0  0  0  0  0
   37.5960   29.0020   41.6180 C   0  0  0  0  0  0  0  0  0  0  0  0
   37.3560   28.8220   42.9570 C   0  0  0  0  0  0  0  0  0  0  0  0
   37.1110   27.5610   43.4520 C   0  0  0  0  0  0  0  0  0  0  0  0
   37.0940   26.4450   42.6500 C   0  0  0  0  0  0  0  0  0  0  0  0
   37.3380   26.6300   41.2930 C   0  0  0  0  0  0  0  0  0  0  0  0
   37.3760   29.7280   43.5640 H   0  0  0  0  0  0  0  0  0  0  0  0
   36.9330   27.5290   44.5280 H   0  0  0  0  0  0  0  0  0  0  0  0
   36.8980   25.4740   43.0840 H   0  0  0  0  0  0  0  0  0  0  0  0
   37.3130   25.4500   40.4930 N   0  0  0  0  0  0  0  0  0  0  0  0
   38.2550   24.3700   40.3780 C   0  0  0  0  0  0  0  0  0  0  0  0
   37.3620   23.1320   40.5490 C   0  0  0  0  0  0  0  0  0  0  0  0
   35.9970   23.6150   40.1300 C   0  0  0  0  0  0  0  0  0  0  0  0
   36.3220   24.9760   39.5440 C   0  0  2  0  0  0  0  0  0  0  0  0
   39.0100   24.3740   41.2010 H   0  0  0  0  0  0  0  0  0  0  0  0
   38.7690   24.3050   39.4200 H   0  0  0  0  0  0  0  0  0  0  0  0
   37.7310   22.2740   39.9530 H   0  0  0  0  0  0  0  0  0  0  0  0
   37.3310   22.8530   41.6110 H   0  0  0  0  0  0  0  0  0  0  0  0
   35.4760   22.9450   39.4280 H   0  0  0  0  0  0  0  0  0  0  0  0
   35.3260   23.7990   41.0180 H   0  0  0  0  0  0  0  0  0  0  0  0
   35.3820   25.5880   39.6440 H   0  0  0  0  0  0  0  0  0  0  0  0
   36.7930   24.9480   38.1330 C   0  0  0  0  0  0  0  0  0  0  0  0
   36.0670   25.5160   37.4900 H   0  0  0  0  0  0  0  0  0  0  0  0
   37.7710   25.4480   37.9580 H   0  0  0  0  0  0  0  0  0  0  0  0
   36.7780   23.9000   37.7320 H   0  0  0  0  0  0  0  0  0  0  0  0
   37.0570   32.3800   40.3080 C   0  0  0  0  0  0  0  0  0  0  0  0
   38.3500   32.8020   39.9830 C   0  0  0  0  0  0  0  0  0  0  0  0
   39.3830   31.9010   40.2270 C   0  0  0  0  0  0  0  0  0  0  0  0
   39.0920   30.6800   40.7580 N   0  0  0  0  0  0  0  0  0  0  0  0
   37.8590   30.3190   41.0510 C   0  0  0  0  0  0  0  0  0  0  0  0
   36.8430   31.1620   40.8290 N   0  0  0  0  0  0  0  0  0  0  0  0
   36.2350   33.0590   40.1310 H   0  0  0  0  0  0  0  0  0  0  0  0
   38.4630   33.7740   39.5740 H   0  0  0  0  0  0  0  0  0  0  0  0
   40.7420   33.4300   38.9030 C   0  0  2  0  0  3  0  0  0  0  0  0
   40.7700   32.3180   39.8910 C   0  0  2  0  0  3  0  0  0  0  0  0
   41.5310   31.2800   39.4120 O   0  0  0  0  0  0  0  0  0  0  0  0
   42.0020   31.6010   38.1700 C   0  0  0  0  0  2  0  0  0  0  0  0
   41.3020   32.8150   37.6550 C   0  0  1  0  0  3  0  0  0  0  0  0
   41.4860   34.5350   39.3130 O   0  0  0  0  0  0  0  0  0  0  0  0
   40.8640   35.2950   39.4350 H   0  0  0  0  0  0  0  0  0  0  0  0
   40.3440   32.5020   36.6970 O   0  0  0  0  0  0  0  0  0  0  0  0
   40.3670   31.5530   36.4050 H   0  0  0  0  0  0  0  0  0  0  0  0
  1  2  1  0  0  0  0
  2  7  2  0  0  0  0
  2  3  1  0  0  0  0
  3  4  2  0  0  0  0
  4  5  1  0  0  0  0
  4  8  1  0  0  0  0
  5  9  1  0  0  0  0
  6 10  1  0  0  0  0
  6  5  2  0  0  0  0
  7  6  1  0  0  0  0
 11  7  1  0  0  0  0
 12 11  1  0  0  0  0
 12 13  1  0  0  0  0
 12 16  1  0  0  0  0
 13 19  1  0  0  0  0
 14 13  1  0  0  0  0
 14 21  1  0  0  0  0
 15 22  1  1  0  0  0
 15 14  1  0  0  0  0
 15 11  1  0  0  0  0
 17 12  1  0  0  0  0
 18 13  1  0  0  0  0
 20 14  1  0  0  0  0
 23 15  1  0  0  0  0
 24 23  1  0  0  0  0
 25 23  1  0  0  0  0
 26 23  1  0  0  0  0
 27 32  1  0  0  0  0
 28 29  1  0  0  0  0
 28 27  2  0  0  0  0
 29 30  2  0  0  0  0
 30 31  1  0  0  0  0
 31  3  1  0  0  0  0
 32 31  2  0  0  0  0
 33 27  1  0  0  0  0
 34 28  1  0  0  0  0
 35 40  1  1  0  0  0
 35 36  1  0  0  0  0
 36 29  1  6  0  0  0
 37 36  1  0  0  0  0
 38 37  1  0  0  0  0
 39 42  1  6  0  0  0
 39 38  1  0  0  0  0
 39 35  1  0  0  0  0
 40 41  1  0  0  0  0
 43 42  1  0  0  0  0
M  END
>  <minimizedAffinity>
-6.50531721

$$$$

 OpenBabel03252505263D

 43 46  0  0  1  0  0  0  0  0999 V2000
   39.8440   27.9800   40.3020 F   0  0  0  0  0  0  0  0  0  0  0  0
   39.0320   28.1750   41.3730 C   0  0  0  0  0  0  0  0  0  0  0  0
   39.1490   29.3500   42.0700 C   0  0  0  0  0  0  0  0  0  0  0  0
   38.3220   29.5310   43.1500 C   0  0  0  0  0  0  0  0  0  0  0  0
   37.4170   28.5530   43.4990 C   0  0  0  0  0  0  0  0  0  0  0  0
   37.2990   27.3750   42.8010 C   0  0  0  0  0  0  0  0  0  0  0  0
   38.1390   27.1940   41.7070 C   0  0  0  0  0  0  0  0  0  0  0  0
   38.4410   30.4760   43.6810 H   0  0  0  0  0  0  0  0  0  0  0  0
   36.8090   28.7980   44.3710 H   0  0  0  0  0  0  0  0  0  0  0  0
   36.5730   26.6360   43.1130 H   0  0  0  0  0  0  0  0  0  0  0  0
   37.9880   25.9600   41.0080 N   0  0  0  0  0  0  0  0  0  0  0  0
   38.8500   24.8120   40.9270 C   0  0  0  0  0  0  0  0  0  0  0  0
   37.8920   23.6560   41.2480 C   0  0  0  0  0  0  0  0  0  0  0  0
   36.5370   24.1980   40.8720 C   0  0  0  0  0  0  0  0  0  0  0  0
   36.9100   25.4850   40.1590 C   0  0  2  0  0  0  0  0  0  0  0  0
   39.6530   24.8280   41.7020 H   0  0  0  0  0  0  0  0  0  0  0  0
   39.2970   24.6390   39.9490 H   0  0  0  0  0  0  0  0  0  0  0  0
   38.1660   22.7310   40.7030 H   0  0  0  0  0  0  0  0  0  0  0  0
   37.9100   23.4630   42.3300 H   0  0  0  0  0  0  0  0  0  0  0  0
   35.9310   23.5140   40.2580 H   0  0  0  0  0  0  0  0  0  0  0  0
   35.9360   24.4960   41.7780 H   0  0  0  0  0  0  0  0  0  0  0  0
   36.0200   26.1660   40.2640 H   0  0  0  0  0  0  0  0  0  0  0  0
   37.2890   25.3160   38.7310 C   0  0  0  0  0  0  0  0  0  0  0  0
   36.5610   25.8810   38.0860 H   0  0  0  0  0  0  0  0  0  0  0  0
   38.2830   25.7320   38.4590 H   0  0  0  0  0  0  0  0  0  0  0  0
   37.1810   24.2430   38.4170 H   0  0  0  0  0  0  0  0  0  0  0  0
   42.1790   31.4060   41.9930 C   0  0  0  0  0  0  0  0  0  0  0  0
   41.9560   32.2550   40.9060 C   0  0  0  0  0  0  0  0  0  0  0  0
   40.7560   32.0950   40.2210 C   0  0  0  0  0  0  0  0  0  0  0  0
   39.8740   31.1400   40.6340 N   0  0  0  0  0  0  0  0  0  0  0  0
   40.1220   30.3580   41.6650 C   0  0  0  0  0  0  0  0  0  0  0  0
   41.2670   30.4860   42.3450 N   0  0  0  0  0  0  0  0  0  0  0  0
   43.1050   31.5060   42.5440 H   0  0  0  0  0  0  0  0  0  0  0  0
   42.7100   32.9640   40.6720 H   0  0  0  0  0  0  0  0  0  0  0  0
   40.8290   32.2830   37.7920 C   0  0  2  0  0  3  0  0  0  0  0  0
   40.4870   32.9840   39.0600 C   0  0  2  0  0  3  0  0  0  0  0  0
   41.1680   34.1740   39.1390 O   0  0  0  0  0  0  0  0  0  0  0  0
   41.9540   34.3190   38.0320 C   0  0  0  0  0  2  0  0  0  0  0  0
   42.0230   33.0310   37.2800 C   0  0  1  0  0  3  0  0  0  0  0  0
   39.7810   32.2900   36.8730 O   0  0  0  0  0  0  0  0  0  0  0  0
   39.4940   31.3530   36.7280 H   0  0  0  0  0  0  0  0  0  0  0  0
   43.2330   32.3730   37.4770 O   0  0  0  0  0  0  0  0  0  0  0  0
   43.9070   32.9150   37.9640 H   0  0  0  0  0  0  0  0  0  0  0  0
  1  2  1  0  0  0  0
  2  7  2  0  0  0  0
  2  3  1  0  0  0  0
  3  4  2  0  0  0  0
  4  5  1  0  0  0  0
  4  8  1  0  0  0  0
  5  9  1  0  0  0  0
  6 10  1  0  0  0  0
  6  5  2  0  0  0  0
  7  6  1  0  0  0  0
 11  7  1  0  0  0  0
 12 11  1  0  0  0  0
 12 13  1  0  0  0  0
 12 16  1  0  0  0  0
 13 19  1  0  0  0  0
 14 13  1  0  0  0  0
 14 21  1  0  0  0  0
 15 22  1  1  0  0  0
 15 14  1  0  0  0  0
 15 11  1  0  0  0  0
 17 12  1  0  0  0  0
 18 13  1  0  0  0  0
 20 14  1  0  0  0  0
 23 15  1  0  0  0  0
 24 23  1  0  0  0  0
 25 23  1  0  0  0  0
 26 23  1  0  0  0  0
 27 32  1  0  0  0  0
 27 33  1  0  0  0  0
 28 27  2  0  0  0  0
 29 30  2  0  0  0  0
 29 28  1  0  0  0  0
 30 31  1  0  0  0  0
 31  3  1  0  0  0  0
 31 32  2  0  0  0  0
 34 28  1  0  0  0  0
 35 40  1  6  0  0  0
 35 36  1  0  0  0  0
 36 37  1  0  0  0  0
 36 29  1  1  0  0  0
 38 37  1  0  0  0  0
 39 42  1  1  0  0  0
 39 35  1  0  0  0  0
 39 38  1  0  0  0  0
 41 40  1  0  0  0  0
 42 43  1  0  0  0  0
M  END
>  <minimizedAffinity>
-6.35746861

$$$$

 OpenBabel03252505263D

 43 46  0  0  1  0  0  0  0  0999 V2000
   40.1660   31.0870   38.2350 F   0  0  0  0  0  0  0  0  0  0  0  0
   39.8410   32.2410   38.8760 C   0  0  0  0  0  0  0  0  0  0  0  0
   38.6040   32.3310   39.4590 C   0  0  0  0  0  0  0  0  0  0  0  0
   38.2910   33.5030   40.1020 C   0  0  0  0  0  0  0  0  0  0  0  0
   39.2050   34.5330   40.1450 C   0  0  0  0  0  0  0  0  0  0  0  0
   40.4450   34.4420   39.5600 C   0  0  0  0  0  0  0  0  0  0  0  0
   40.7600   33.2540   38.9090 C   0  0  0  0  0  0  0  0  0  0  0  0
   37.3000   33.5410   40.5550 H   0  0  0  0  0  0  0  0  0  0  0  0
   38.8570   35.4170   40.6800 H   0  0  0  0  0  0  0  0  0  0  0  0
   41.1300   35.2780   39.6200 H   0  0  0  0  0  0  0  0  0  0  0  0
   42.0550   33.1970   38.3150 N   0  0  0  0  0  0  0  0  0  0  0  0
   42.7830   34.1710   37.5490 C   0  0  0  0  0  0  0  0  0  0  0  0
   44.1470   34.1950   38.2540 C   0  0  0  0  0  0  0  0  0  0  0  0
   44.2330   32.8410   38.9110 C   0  0  0  0  0  0  0  0  0  0  0  0
   43.0390   32.1290   38.3030 C   0  0  2  0  0  0  0  0  0  0  0  0
   42.3340   35.1910   37.6200 H   0  0  0  0  0  0  0  0  0  0  0  0
   42.9320   33.9180   36.5010 H   0  0  0  0  0  0  0  0  0  0  0  0
   44.9730   34.3960   37.5440 H   0  0  0  0  0  0  0  0  0  0  0  0
   44.1370   34.9690   39.0340 H   0  0  0  0  0  0  0  0  0  0  0  0
   45.1890   32.3180   38.7460 H   0  0  0  0  0  0  0  0  0  0  0  0
   44.0420   32.8990   40.0210 H   0  0  0  0  0  0  0  0  0  0  0  0
   42.7420   31.3350   39.0440 H   0  0  0  0  0  0  0  0  0  0  0  0
   43.2850   31.5430   36.9580 C   0  0  0  0  0  0  0  0  0  0  0  0
   43.1550   30.4270   37.0140 H   0  0  0  0  0  0  0  0  0  0  0  0
   42.5710   31.8670   36.1700 H   0  0  0  0  0  0  0  0  0  0  0  0
   44.3530   31.6950   36.6490 H   0  0  0  0  0  0  0  0  0  0  0  0
   36.0950   29.9900   38.1790 C   0  0  0  0  0  0  0  0  0  0  0  0
   35.9040   29.1150   39.2530 C   0  0  0  0  0  0  0  0  0  0  0  0
   36.6530   29.3580   40.4000 C   0  0  0  0  0  0  0  0  0  0  0  0
   37.5160   30.4130   40.4230 N   0  0  0  0  0  0  0  0  0  0  0  0
   37.6680   31.2150   39.3890 C   0  0  0  0  0  0  0  0  0  0  0  0
   36.9630   31.0090   38.2700 N   0  0  0  0  0  0  0  0  0  0  0  0
   35.5280   29.8250   37.2740 H   0  0  0  0  0  0  0  0  0  0  0  0
   35.2050   28.3270   39.1280 H   0  0  0  0  0  0  0  0  0  0  0  0
   37.4620   28.7730   42.6240 C   0  0  2  0  0  3  0  0  0  0  0  0
   36.4720   28.4460   41.5610 C   0  0  2  0  0  3  0  0  0  0  0  0
   36.5760   27.1220   41.2120 O   0  0  0  0  0  0  0  0  0  0  0  0
   37.5700   26.5380   41.9440 C   0  0  0  0  0  2  0  0  0  0  0  0
   38.3760   27.5840   42.6410 C   0  0  1  0  0  3  0  0  0  0  0  0
   36.8670   28.9860   43.8660 O   0  0  0  0  0  0  0  0  0  0  0  0
   37.0280   29.9290   44.1250 H   0  0  0  0  0  0  0  0  0  0  0  0
   39.6020   27.8010   42.0210 O   0  0  0  0  0  0  0  0  0  0  0  0
   39.8100   27.1430   41.3070 H   0  0  0  0  0  0  0  0  0  0  0  0
  1  2  1  0  0  0  0
  2  7  2  0  0  0  0
  2  3  1  0  0  0  0
  3  4  2  0  0  0  0
  4  5  1  0  0  0  0
  4  8  1  0  0  0  0
  5  9  1  0  0  0  0
  6 10  1  0  0  0  0
  6  5  2  0  0  0  0
  7  6  1  0  0  0  0
 11  7  1  0  0  0  0
 12 16  1  0  0  0  0
 12 13  1  0  0  0  0
 12 11  1  0  0  0  0
 13 14  1  0  0  0  0
 13 19  1  0  0  0  0
 14 21  1  0  0  0  0
 15 11  1  0  0  0  0
 15 14  1  0  0  0  0
 15 22  1  1  0  0  0
 17 12  1  0  0  0  0
 18 13  1  0  0  0  0
 20 14  1  0  0  0  0
 23 24  1  0  0  0  0
 23 15  1  0  0  0  0
 25 23  1  0  0  0  0
 26 23  1  0  0  0  0
 27 32  2  0  0  0  0
 27 28  1  0  0  0  0
 28 29  2  0  0  0  0
 29 30  1  0  0  0  0
 31  3  1  0  0  0  0
 31 30  2  0  0  0  0
 32 31  1  0  0  0  0
 33 27  1  0  0  0  0
 34 28  1  0  0  0  0
 35 39  1  0  0  0  0
 35 40  1  1  0  0  0
 36 29  1  6  0  0  0
 36 35  1  0  0  0  0
 37 36  1  0  0  0  0
 37 38  1  0  0  0  0
 38 39  1  0  0  0  0
 39 42  1  6  0  0  0
 40 41  1  0  0  0  0
 43 42  1  0  0  0  0
M  END
>  <minimizedAffinity>
-6.32392836

$$$$

 OpenBabel03252505263D

 43 46  0  0  1  0  0  0  0  0999 V2000
   39.4360   27.7310   40.4180 F   0  0  0  0  0  0  0  0  0  0  0  0
   38.6330   27.7750   41.5130 C   0  0  0  0  0  0  0  0  0  0  0  0
   38.7260   28.8640   42.3410 C   0  0  0  0  0  0  0  0  0  0  0  0
   37.9090   28.8930   43.4440 C   0  0  0  0  0  0  0  0  0  0  0  0
   37.0380   27.8540   43.6850 C   0  0  0  0  0  0  0  0  0  0  0  0
   36.9440   26.7620   42.8560 C   0  0  0  0  0  0  0  0  0  0  0  0
   37.7740   26.7350   41.7400 C   0  0  0  0  0  0  0  0  0  0  0  0
   38.0090   29.7730   44.0800 H   0  0  0  0  0  0  0  0  0  0  0  0
   36.4350   27.9770   44.5870 H   0  0  0  0  0  0  0  0  0  0  0  0
   36.2450   25.9700   43.0870 H   0  0  0  0  0  0  0  0  0  0  0  0
   37.6490   25.5870   40.9020 N   0  0  0  0  0  0  0  0  0  0  0  0
   38.5180   24.4570   40.7180 C   0  0  0  0  0  0  0  0  0  0  0  0
   37.5580   23.2700   40.8810 C   0  0  0  0  0  0  0  0  0  0  0  0
   36.2110   23.8490   40.5300 C   0  0  0  0  0  0  0  0  0  0  0  0
   36.5970   25.2070   39.9760 C   0  0  2  0  0  0  0  0  0  0  0  0
   39.3000   24.3880   41.5120 H   0  0  0  0  0  0  0  0  0  0  0  0
   38.9930   24.3950   39.7400 H   0  0  0  0  0  0  0  0  0  0  0  0
   37.8520   22.4130   40.2440 H   0  0  0  0  0  0  0  0  0  0  0  0
   37.5470   22.9570   41.9340 H   0  0  0  0  0  0  0  0  0  0  0  0
   35.6260   23.2360   39.8260 H   0  0  0  0  0  0  0  0  0  0  0  0
   35.5840   24.0420   41.4470 H   0  0  0  0  0  0  0  0  0  0  0  0
   35.7010   25.8710   40.1310 H   0  0  0  0  0  0  0  0  0  0  0  0
   37.0160   25.2000   38.5490 C   0  0  0  0  0  0  0  0  0  0  0  0
   36.3040   25.8330   37.9520 H   0  0  0  0  0  0  0  0  0  0  0  0
   38.0160   25.6470   38.3540 H   0  0  0  0  0  0  0  0  0  0  0  0
   36.9230   24.1690   38.1150 H   0  0  0  0  0  0  0  0  0  0  0  0
   41.6570   31.0530   42.5260 C   0  0  0  0  0  0  0  0  0  0  0  0
   41.4310   31.9690   41.4950 C   0  0  0  0  0  0  0  0  0  0  0  0
   40.2640   31.8060   40.7550 C   0  0  0  0  0  0  0  0  0  0  0  0
   39.4150   30.7850   41.0650 N   0  0  0  0  0  0  0  0  0  0  0  0
   39.6630   29.9410   42.0460 C   0  0  0  0  0  0  0  0  0  0  0  0
   40.7780   30.0700   42.7760 N   0  0  0  0  0  0  0  0  0  0  0  0
   42.5570   31.1540   43.1170 H   0  0  0  0  0  0  0  0  0  0  0  0
   42.1580   32.7260   41.3400 H   0  0  0  0  0  0  0  0  0  0  0  0
   39.2090   32.0970   38.5780 C   0  0  2  0  0  3  0  0  0  0  0  0
   39.9930   32.7650   39.6520 C   0  0  2  0  0  3  0  0  0  0  0  0
   41.1430   33.3040   39.1290 O   0  0  0  0  0  0  0  0  0  0  0  0
   41.2010   33.0350   37.7910 C   0  0  0  0  0  2  0  0  0  0  0  0
   40.1680   32.0210   37.4270 C   0  0  1  0  0  3  0  0  0  0  0  0
   38.0510   32.7960   38.2410 O   0  0  0  0  0  0  0  0  0  0  0  0
   37.2730   32.2290   38.4720 H   0  0  0  0  0  0  0  0  0  0  0  0
   40.7180   30.7590   37.2280 O   0  0  0  0  0  0  0  0  0  0  0  0
   41.7110   30.7540   37.2210 H   0  0  0  0  0  0  0  0  0  0  0  0
  1  2  1  0  0  0  0
  2  7  2  0  0  0  0
  2  3  1  0  0  0  0
  3  4  2  0  0  0  0
  4  5  1  0  0  0  0
  4  8  1  0  0  0  0
  5  9  1  0  0  0  0
  6 10  1  0  0  0  0
  6  5  2  0  0  0  0
  7  6  1  0  0  0  0
 11  7  1  0  0  0  0
 12 13  1  0  0  0  0
 12 11  1  0  0  0  0
 12 16  1  0  0  0  0
 13 19  1  0  0  0  0
 14 13  1  0  0  0  0
 14 21  1  0  0  0  0
 15 22  1  1  0  0  0
 15 14  1  0  0  0  0
 15 11  1  0  0  0  0
 17 12  1  0  0  0  0
 18 13  1  0  0  0  0
 20 14  1  0  0  0  0
 23 15  1  0  0  0  0
 24 23  1  0  0  0  0
 25 23  1  0  0  0  0
 26 23  1  0  0  0  0
 27 32  1  0  0  0  0
 27 33  1  0  0  0  0
 28 27  2  0  0  0  0
 29 30  2  0  0  0  0
 29 28  1  0  0  0  0
 30 31  1  0  0  0  0
 31  3  1  0  0  0  0
 31 32  2  0  0  0  0
 34 28  1  0  0  0  0
 35 40  1  6  0  0  0
 35 36  1  0  0  0  0
 36 29  1  1  0  0  0
 37 36  1  0  0  0  0
 38 37  1  0  0  0  0
 39 42  1  1  0  0  0
 39 38  1  0  0  0  0
 39 35  1  0  0  0  0
 40 41  1  0  0  0  0
 43 42  1  0  0  0  0
M  END
>  <minimizedAffinity>
-6.29291582

$$$$

 OpenBabel03252505263D

 43 46  0  0  1  0  0  0  0  0999 V2000
   40.0830   30.8730   41.3550 F   0  0  0  0  0  0  0  0  0  0  0  0
   39.0180   31.0150   40.5230 C   0  0  0  0  0  0  0  0  0  0  0  0
   37.9910   30.1130   40.6270 C   0  0  0  0  0  0  0  0  0  0  0  0
   36.9230   30.2690   39.7800 C   0  0  0  0  0  0  0  0  0  0  0  0
   36.9090   31.3020   38.8690 C   0  0  0  0  0  0  0  0  0  0  0  0
   37.9380   32.2060   38.7640 C   0  0  0  0  0  0  0  0  0  0  0  0
   39.0200   32.0460   39.6240 C   0  0  0  0  0  0  0  0  0  0  0  0
   36.1240   29.5350   39.8900 H   0  0  0  0  0  0  0  0  0  0  0  0
   36.0140   31.3360   38.2450 H   0  0  0  0  0  0  0  0  0  0  0  0
   37.8830   33.0010   38.0320 H   0  0  0  0  0  0  0  0  0  0  0  0
   40.0680   33.0020   39.4860 N   0  0  0  0  0  0  0  0  0  0  0  0
   40.1050   34.4080   39.7830 C   0  0  0  0  0  0  0  0  0  0  0  0
   41.3830   34.5360   40.6250 C   0  0  0  0  0  0  0  0  0  0  0  0
   42.2140   33.3530   40.1950 C   0  0  0  0  0  0  0  0  0  0  0  0
   41.4280   32.8460   39.0000 C   0  0  2  0  0  0  0  0  0  0  0  0
   39.2400   34.7340   40.4090 H   0  0  0  0  0  0  0  0  0  0  0  0
   40.1870   35.0620   38.9160 H   0  0  0  0  0  0  0  0  0  0  0  0
   41.8840   35.5110   40.4660 H   0  0  0  0  0  0  0  0  0  0  0  0
   41.1280   34.4240   41.6880 H   0  0  0  0  0  0  0  0  0  0  0  0
   43.2620   33.5980   39.9620 H   0  0  0  0  0  0  0  0  0  0  0  0
   42.1990   32.5280   40.9630 H   0  0  0  0  0  0  0  0  0  0  0  0
   41.6720   31.7510   38.9120 H   0  0  0  0  0  0  0  0  0  0  0  0
   41.7050   33.5610   37.7260 C   0  0  0  0  0  0  0  0  0  0  0  0
   42.1380   32.8360   36.9830 H   0  0  0  0  0  0  0  0  0  0  0  0
   40.8070   33.9770   37.2190 H   0  0  0  0  0  0  0  0  0  0  0  0
   42.5030   34.3370   37.8730 H   0  0  0  0  0  0  0  0  0  0  0  0
   37.4700   28.2010   43.7070 C   0  0  0  0  0  0  0  0  0  0  0  0
   38.1510   27.0060   43.4560 C   0  0  0  0  0  0  0  0  0  0  0  0
   38.7780   26.8910   42.2190 C   0  0  0  0  0  0  0  0  0  0  0  0
   38.7000   27.9240   41.3320 N   0  0  0  0  0  0  0  0  0  0  0  0
   38.0480   29.0350   41.6070 C   0  0  0  0  0  0  0  0  0  0  0  0
   37.4340   29.1780   42.7880 N   0  0  0  0  0  0  0  0  0  0  0  0
   36.9720   28.3190   44.6600 H   0  0  0  0  0  0  0  0  0  0  0  0
   38.1490   26.2680   44.2170 H   0  0  0  0  0  0  0  0  0  0  0  0
   40.0290   25.0330   43.1800 C   0  0  2  0  0  3  0  0  0  0  0  0
   39.5130   25.6330   41.9200 C   0  0  2  0  0  3  0  0  0  0  0  0
   40.5430   25.8230   41.0310 O   0  0  0  0  0  0  0  0  0  0  0  0
   41.7140   25.4140   41.6040 C   0  0  0  0  0  2  0  0  0  0  0  0
   41.5170   25.1830   43.0650 C   0  0  1  0  0  3  0  0  0  0  0  0
   39.6540   23.7000   43.3350 O   0  0  0  0  0  0  0  0  0  0  0  0
   39.0700   23.6370   44.1330 H   0  0  0  0  0  0  0  0  0  0  0  0
   42.0450   26.2140   43.8360 O   0  0  0  0  0  0  0  0  0  0  0  0
   42.5850   26.8640   43.3150 H   0  0  0  0  0  0  0  0  0  0  0  0
  2  3  1  0  0  0  0
  2  1  1  0  0  0  0
  3 31  1  0  0  0  0
  4  8  1  0  0  0  0
  4  3  2  0  0  0  0
  5  4  1  0  0  0  0
  6  5  2  0  0  0  0
  6  7  1  0  0  0  0
  7  2  2  0  0  0  0
  9  5  1  0  0  0  0
 10  6  1  0  0  0  0
 11  7  1  0  0  0  0
 11 12  1  0  0  0  0
 12 16  1  0  0  0  0
 12 13  1  0  0  0  0
 13 19  1  0  0  0  0
 14 13  1  0  0  0  0
 14 21  1  0  0  0  0
 15 22  1  6  0  0  0
 15 11  1  0  0  0  0
 15 14  1  0  0  0  0
 17 12  1  0  0  0  0
 18 13  1  0  0  0  0
 20 14  1  0  0  0  0
 23 26  1  0  0  0  0
 23 15  1  0  0  0  0
 24 23  1  0  0  0  0
 25 23  1  0  0  0  0
 27 33  1  0  0  0  0
 28 27  1  0  0  0  0
 28 34  1  0  0  0  0
 29 28  2  0  0  0  0
 30 31  2  0  0  0  0
 30 29  1  0  0  0  0
 31 32  1  0  0  0  0
 32 27  2  0  0  0  0
 35 40  1  6  0  0  0
 36 29  1  1  0  0  0
 36 35  1  0  0  0  0
 37 38  1  0  0  0  0
 37 36  1  0  0  0  0
 38 39  1  0  0  0  0
 39 35  1  0  0  0  0
 39 42  1  1  0  0  0
 40 41  1  0  0  0  0
 43 42  1  0  0  0  0
M  END
>  <minimizedAffinity>
-6.28981638

$$$$

 OpenBabel03252505263D

 43 46  0  0  1  0  0  0  0  0999 V2000
   38.0870   28.3220   39.6110 F   0  0  0  0  0  0  0  0  0  0  0  0
   37.9920   28.2350   40.9640 C   0  0  0  0  0  0  0  0  0  0  0  0
   38.0940   29.3910   41.6950 C   0  0  0  0  0  0  0  0  0  0  0  0
   37.9970   29.2860   43.0600 C   0  0  0  0  0  0  0  0  0  0  0  0
   37.8040   28.0560   43.6470 C   0  0  0  0  0  0  0  0  0  0  0  0
   37.7020   26.8970   42.9150 C   0  0  0  0  0  0  0  0  0  0  0  0
   37.8020   27.0050   41.5310 C   0  0  0  0  0  0  0  0  0  0  0  0
   38.0810   30.2240   43.6100 H   0  0  0  0  0  0  0  0  0  0  0  0
   37.7410   28.0850   44.7360 H   0  0  0  0  0  0  0  0  0  0  0  0
   37.5520   25.9530   43.4200 H   0  0  0  0  0  0  0  0  0  0  0  0
   37.6910   25.7830   40.8050 N   0  0  0  0  0  0  0  0  0  0  0  0
   38.6160   24.6940   40.6480 C   0  0  0  0  0  0  0  0  0  0  0  0
   37.7490   23.4720   40.9830 C   0  0  0  0  0  0  0  0  0  0  0  0
   36.3460   23.9380   40.6890 C   0  0  0  0  0  0  0  0  0  0  0  0
   36.6030   25.2630   39.9970 C   0  0  2  0  0  0  0  0  0  0  0  0
   39.4560   24.7400   41.3830 H   0  0  0  0  0  0  0  0  0  0  0  0
   39.0230   24.5740   39.6450 H   0  0  0  0  0  0  0  0  0  0  0  0
   38.0520   22.5810   40.3980 H   0  0  0  0  0  0  0  0  0  0  0  0
   37.8340   23.2520   42.0560 H   0  0  0  0  0  0  0  0  0  0  0  0
   35.7530   23.2330   40.0860 H   0  0  0  0  0  0  0  0  0  0  0  0
   35.7750   24.1740   41.6330 H   0  0  0  0  0  0  0  0  0  0  0  0
   35.6790   25.8840   40.1650 H   0  0  0  0  0  0  0  0  0  0  0  0
   36.9180   25.1550   38.5470 C   0  0  0  0  0  0  0  0  0  0  0  0
   36.1250   25.6900   37.9560 H   0  0  0  0  0  0  0  0  0  0  0  0
   37.8700   25.6400   38.2390 H   0  0  0  0  0  0  0  0  0  0  0  0
   36.8610   24.0860   38.2090 H   0  0  0  0  0  0  0  0  0  0  0  0
   37.3990   32.6130   40.0990 C   0  0  0  0  0  0  0  0  0  0  0  0
   38.6740   33.0890   39.7810 C   0  0  0  0  0  0  0  0  0  0  0  0
   39.7510   32.2780   40.1280 C   0  0  0  0  0  0  0  0  0  0  0  0
   39.5150   31.0860   40.7480 N   0  0  0  0  0  0  0  0  0  0  0  0
   38.2970   30.6730   41.0310 C   0  0  0  0  0  0  0  0  0  0  0  0
   37.2400   31.4290   40.7110 N   0  0  0  0  0  0  0  0  0  0  0  0
   36.5430   33.2220   39.8420 H   0  0  0  0  0  0  0  0  0  0  0  0
   38.7430   34.0300   39.2980 H   0  0  0  0  0  0  0  0  0  0  0  0
   42.1330   31.8600   40.4300 C   0  0  2  0  0  3  0  0  0  0  0  0
   41.1210   32.7540   39.8030 C   0  0  2  0  0  3  0  0  0  0  0  0
   41.3330   34.0540   40.1930 O   0  0  0  0  0  0  0  0  0  0  0  0
   42.3980   34.1010   41.0470 C   0  0  0  0  0  2  0  0  0  0  0  0
   42.7680   32.7210   41.4810 C   0  0  1  0  0  3  0  0  0  0  0  0
   43.0700   31.3830   39.5160 O   0  0  0  0  0  0  0  0  0  0  0  0
   42.9700   30.3990   39.4600 H   0  0  0  0  0  0  0  0  0  0  0  0
   42.3410   32.4450   42.7760 O   0  0  0  0  0  0  0  0  0  0  0  0
   41.9850   33.2380   43.2560 H   0  0  0  0  0  0  0  0  0  0  0  0
  1  2  1  0  0  0  0
  2  7  2  0  0  0  0
  2  3  1  0  0  0  0
  3  4  2  0  0  0  0
  4  8  1  0  0  0  0
  4  5  1  0  0  0  0
  5  9  1  0  0  0  0
  6 10  1  0  0  0  0
  6  5  2  0  0  0  0
  7  6  1  0  0  0  0
 11  7  1  0  0  0  0
 12 11  1  0  0  0  0
 12 13  1  0  0  0  0
 12 16  1  0  0  0  0
 13 19  1  0  0  0  0
 14 13  1  0  0  0  0
 14 21  1  0  0  0  0
 15 22  1  1  0  0  0
 15 14  1  0  0  0  0
 15 11  1  0  0  0  0
 17 12  1  0  0  0  0
 18 13  1  0  0  0  0
 20 14  1  0  0  0  0
 23 15  1  0  0  0  0
 24 23  1  0  0  0  0
 25 23  1  0  0  0  0
 26 23  1  0  0  0  0
 27 32  1  0  0  0  0
 28 27  2  0  0  0  0
 28 29  1  0  0  0  0
 29 30  2  0  0  0  0
 30 31  1  0  0  0  0
 31  3  1  0  0  0  0
 32 31  2  0  0  0  0
 33 27  1  0  0  0  0
 34 28  1  0  0  0  0
 35 40  1  6  0  0  0
 35 39  1  0  0  0  0
 36 29  1  1  0  0  0
 36 37  1  0  0  0  0
 36 35  1  0  0  0  0
 37 38  1  0  0  0  0
 38 39  1  0  0  0  0
 39 42  1  1  0  0  0
 41 40  1  0  0  0  0
 42 43  1  0  0  0  0
M  END
>  <minimizedAffinity>
-6.24884367

$$$$

 OpenBabel03252505263D

 43 46  0  0  1  0  0  0  0  0999 V2000
   38.8620   27.9870   39.2490 F   0  0  0  0  0  0  0  0  0  0  0  0
   38.7520   28.4640   40.5170 C   0  0  0  0  0  0  0  0  0  0  0  0
   38.9410   29.8060   40.7220 C   0  0  0  0  0  0  0  0  0  0  0  0
   38.8270   30.2720   42.0090 C   0  0  0  0  0  0  0  0  0  0  0  0
   38.5330   29.4020   43.0350 C   0  0  0  0  0  0  0  0  0  0  0  0
   38.3440   28.0560   42.8300 C   0  0  0  0  0  0  0  0  0  0  0  0
   38.4610   27.5860   41.5260 C   0  0  0  0  0  0  0  0  0  0  0  0
   38.9820   31.3430   42.1360 H   0  0  0  0  0  0  0  0  0  0  0  0
   38.4660   29.8740   44.0160 H   0  0  0  0  0  0  0  0  0  0  0  0
   38.1160   27.4110   43.6680 H   0  0  0  0  0  0  0  0  0  0  0  0
   38.2580   26.1850   41.3510 N   0  0  0  0  0  0  0  0  0  0  0  0
   39.1480   25.0740   41.5490 C   0  0  0  0  0  0  0  0  0  0  0  0
   38.3060   24.1260   42.4160 C   0  0  0  0  0  0  0  0  0  0  0  0
   36.8850   24.5150   42.0960 C   0  0  0  0  0  0  0  0  0  0  0  0
   37.0830   25.4510   40.9180 C   0  0  2  0  0  0  0  0  0  0  0  0
   40.0620   25.3570   42.1240 H   0  0  0  0  0  0  0  0  0  0  0  0
   39.4430   24.5510   40.6400 H   0  0  0  0  0  0  0  0  0  0  0  0
   38.5340   23.0630   42.2030 H   0  0  0  0  0  0  0  0  0  0  0  0
   38.5030   24.3370   43.4770 H   0  0  0  0  0  0  0  0  0  0  0  0
   36.2220   23.6640   41.8770 H   0  0  0  0  0  0  0  0  0  0  0  0
   36.4220   25.1300   42.9200 H   0  0  0  0  0  0  0  0  0  0  0  0
   36.1900   26.1360   40.9150 H   0  0  0  0  0  0  0  0  0  0  0  0
   37.2400   24.7700   39.6050 C   0  0  0  0  0  0  0  0  0  0  0  0
   36.3950   25.0750   38.9280 H   0  0  0  0  0  0  0  0  0  0  0  0
   38.1590   25.0460   39.0430 H   0  0  0  0  0  0  0  0  0  0  0  0
   37.1330   23.6590   39.7200 H   0  0  0  0  0  0  0  0  0  0  0  0
   38.6450   31.6100   37.5490 C   0  0  0  0  0  0  0  0  0  0  0  0
   39.8260   32.3560   37.4990 C   0  0  0  0  0  0  0  0  0  0  0  0
   40.7020   32.2160   38.5720 C   0  0  0  0  0  0  0  0  0  0  0  0
   40.3740   31.3770   39.5960 N   0  0  0  0  0  0  0  0  0  0  0  0
   39.2490   30.6900   39.6060 C   0  0  0  0  0  0  0  0  0  0  0  0
   38.3860   30.8030   38.5890 N   0  0  0  0  0  0  0  0  0  0  0  0
   37.9450   31.6990   36.7300 H   0  0  0  0  0  0  0  0  0  0  0  0
   39.9820   32.9770   36.6540 H   0  0  0  0  0  0  0  0  0  0  0  0
   42.4640   33.1200   37.1530 C   0  0  2  0  0  3  0  0  0  0  0  0
   41.9680   32.9950   38.5500 C   0  0  2  0  0  3  0  0  0  0  0  0
   42.9400   32.4420   39.3480 O   0  0  0  0  0  0  0  0  0  0  0  0
   44.0440   32.1700   38.5910 C   0  0  0  0  0  2  0  0  0  0  0  0
   43.7140   32.2920   37.1400 C   0  0  1  0  0  3  0  0  0  0  0  0
   42.7150   34.4410   36.7870 O   0  0  0  0  0  0  0  0  0  0  0  0
   42.0910   34.6800   36.0560 H   0  0  0  0  0  0  0  0  0  0  0  0
   43.5680   31.0510   36.5290 O   0  0  0  0  0  0  0  0  0  0  0  0
   43.8370   30.2890   37.1050 H   0  0  0  0  0  0  0  0  0  0  0  0
  1  2  1  0  0  0  0
  2  3  2  0  0  0  0
  2  7  1  0  0  0  0
  3  4  1  0  0  0  0
  4  8  1  0  0  0  0
  4  5  2  0  0  0  0
  5  9  1  0  0  0  0
  6  5  1  0  0  0  0
  6 10  1  0  0  0  0
  7  6  2  0  0  0  0
 11  7  1  0  0  0  0
 11 12  1  0  0  0  0
 12 16  1  0  0  0  0
 12 13  1  0  0  0  0
 13 19  1  0  0  0  0
 14 13  1  0  0  0  0
 14 21  1  0  0  0  0
 15 22  1  6  0  0  0
 15 11  1  0  0  0  0
 15 14  1  0  0  0  0
 17 12  1  0  0  0  0
 18 13  1  0  0  0  0
 20 14  1  0  0  0  0
 23 26  1  0  0  0  0
 23 15  1  0  0  0  0
 24 23  1  0  0  0  0
 25 23  1  0  0  0  0
 27 32  1  0  0  0  0
 28 27  2  0  0  0  0
 28 29  1  0  0  0  0
 29 30  2  0  0  0  0
 30 31  1  0  0  0  0
 31  3  1  0  0  0  0
 32 31  2  0  0  0  0
 33 27  1  0  0  0  0
 34 28  1  0  0  0  0
 35 40  1  1  0  0  0
 35 36  1  0  0  0  0
 36 29  1  6  0  0  0
 36 37  1  0  0  0  0
 38 37  1  0  0  0  0
 39 42  1  1  0  0  0
 39 35  1  0  0  0  0
 39 38  1  0  0  0  0
 41 40  1  0  0  0  0
 42 43  1  0  0  0  0
M  END
>  <minimizedAffinity>
-6.10339546

$$$$
