
     RDKit          3D

 29 30  0  0  0  0  0  0  0  0999 V2000
   45.1955   35.2127   44.0462 C   0  0  0  0  0  0  0  0  0  0  0  0
   46.2364   34.5749   43.3723 C   0  0  0  0  0  0  0  0  0  0  0  0
   46.9118   33.5630   44.0577 C   0  0  0  0  0  0  0  0  0  0  0  0
   46.5117   33.2679   45.3307 N   0  0  0  0  0  0  0  0  0  0  0  0
   45.5087   33.8999   45.9470 C   0  0  0  0  0  0  0  0  0  0  0  0
   44.8329   34.8888   45.3058 N   0  0  0  0  0  0  0  0  0  0  0  0
   46.5472   34.9938   42.0235 C   0  0  0  0  0  0  0  0  0  0  0  0
   48.0518   35.1850   41.9229 C   0  0  0  0  0  0  0  0  0  0  0  0
   44.5882   36.0149   43.6321 H   0  0  0  0  0  0  0  0  0  0  0  0
   47.7116   33.0757   43.5349 H   0  0  0  0  0  0  0  0  0  0  0  0
   46.0950   35.9556   41.7855 H   0  0  0  0  0  0  0  0  0  0  0  0
   46.2114   34.2220   41.2870 H   0  0  0  0  0  0  0  0  0  0  0  0
   48.2517   35.6239   40.9056 H   0  0  0  0  0  0  0  0  0  0  0  0
   48.3331   35.9512   42.6706 H   0  0  0  0  0  0  0  0  0  0  0  0
   48.5996   34.2345   42.0667 H   0  0  0  0  0  0  0  0  0  0  0  0
   43.2755   34.6140   48.3583 O   0  0  0  0  0  0  0  0  0  0  0  0
   43.6362   33.6368   47.4617 C   0  0  1  0  0  0  0  0  0  0  0  0
   45.1533   33.5017   47.3331 C   0  0  1  0  0  0  0  0  0  0  0  0
   45.4339   32.1483   47.5479 O   0  0  0  0  0  0  0  0  0  0  0  0
   44.5774   31.8460   48.6117 C   0  0  0  0  0  0  0  0  0  0  0  0
   43.2427   32.2548   47.9777 C   0  0  1  0  0  0  0  0  0  0  0  0
   42.2551   32.4111   48.9239 O   0  0  0  0  0  0  0  0  0  0  0  0
   44.0070   35.0047   48.8639 H   0  0  0  0  0  0  0  0  0  0  0  0
   43.1585   33.8669   46.4930 H   0  0  0  0  0  0  0  0  0  0  0  0
   45.6306   34.1375   48.1074 H   0  0  0  0  0  0  0  0  0  0  0  0
   44.7893   32.5726   49.4088 H   0  0  0  0  0  0  0  0  0  0  0  0
   44.6044   30.8022   48.9182 H   0  0  0  0  0  0  0  0  0  0  0  0
   42.9618   31.5864   47.1483 H   0  0  0  0  0  0  0  0  0  0  0  0
   41.8643   31.5506   49.2010 H   0  0  0  0  0  0  0  0  0  0  0  0
  1  6  2  0
  2  1  1  0
  2  3  2  0
  3  4  1  0
  4  5  2  0
  6  5  1  0
  7  2  1  0
  8  7  1  0
  1  9  1  0
  3 10  1  0
  7 11  1  0
  7 12  1  0
  8 13  1  0
  8 14  1  0
  8 15  1  0
 16 17  1  0
 17 18  1  0
 18 19  1  0
 19 20  1  0
 20 21  1  0
 21 22  1  0
 21 17  1  0
 16 23  1  0
 17 24  1  6
 18 25  1  1
 20 26  1  0
 20 27  1  0
 21 28  1  6
 22 29  1  0
  5 18  1  0
M  ISO  7   9  14  10  14  11   8  12   8  13   8  14   8  15   8
M  END
>  <DihAtoms>  (1) 
3,4,17,16

>  <DihDeg>  (1) 
-159.83144750658175

$$$$
