
 OpenBabel03242523463D

 19 20  0  0  1  0  0  0  0  0999 V2000
   45.0720   35.5180   43.9230 C   0  0  0  0  0  0  0  0  0  0  0  0
   46.1450   35.0390   43.1520 C   0  0  0  0  0  0  0  0  0  0  0  0
   46.9060   33.9930   43.6900 C   0  0  0  0  0  0  0  0  0  0  0  0
   46.5770   33.4950   44.9180 N   0  0  0  0  0  0  0  0  0  0  0  0
   45.5360   33.9910   45.6190 C   0  0  0  0  0  0  0  0  0  0  0  0
   44.7960   34.9840   45.1310 N   0  0  0  0  0  0  0  0  0  0  0  0
   46.4230   35.4160   42.1840 H   0  0  0  0  0  0  0  0  0  0  0  0
   45.3330   33.5420   46.5920 H   0  0  0  0  0  0  0  0  0  0  0  0
   47.8620   33.0960   41.5570 C   0  0  1  0  0  3  0  0  0  0  0  0
   48.0500   33.3750   43.0340 C   0  0  1  0  0  3  0  0  0  0  0  0
   49.1540   34.2220   42.9860 O   0  0  0  0  0  0  0  0  0  0  0  0
   50.0700   33.6340   42.1380 C   0  0  0  0  0  2  0  0  0  0  0  0
   49.3090   32.7440   41.1910 C   0  0  2  0  0  3  0  0  0  0  0  0
   47.0110   32.0350   41.3010 O   0  0  0  0  0  0  0  0  0  0  0  0
   46.4430   32.1850   40.4810 H   0  0  0  0  0  0  0  0  0  0  0  0
   49.5740   33.0050   39.8620 O   0  0  0  0  0  0  0  0  0  0  0  0
   49.7380   32.1690   39.3450 H   0  0  0  0  0  0  0  0  0  0  0  0
   44.3310   36.5360   43.3980 O   0  0  0  0  0  0  0  0  0  0  0  0
   44.8120   37.2620   42.8810 H   0  0  0  0  0  0  0  0  0  0  0  0
  1  6  1  0  0  0  0
  2  3  1  0  0  0  0
  2  1  2  0  0  0  0
  3  4  2  0  0  0  0
  4  5  1  0  0  0  0
  5  8  1  0  0  0  0
  6  5  2  0  0  0  0
  7  2  1  0  0  0  0
  9 14  1  1  0  0  0
  9 10  1  0  0  0  0
 10  3  1  6  0  0  0
 11 10  1  0  0  0  0
 12 11  1  0  0  0  0
 13 16  1  6  0  0  0
 13  9  1  0  0  0  0
 13 12  1  0  0  0  0
 15 14  1  0  0  0  0
 17 16  1  0  0  0  0
 18  1  1  0  0  0  0
 19 18  1  0  0  0  0
M  END
>  <minimizedAffinity>
-4.53491306

>  <minimizedRMSD>
0.779004455

$$$$
