
 OpenBabel03252505173D

 34 37  0  0  1  0  0  0  0  0999 V2000
   45.9400   33.0230   46.4830 C   0  0  0  0  0  0  0  0  0  0  0  0
   45.1550   33.0410   47.6170 C   0  0  0  0  0  0  0  0  0  0  0  0
   45.3880   32.1190   48.6270 C   0  0  0  0  0  0  0  0  0  0  0  0
   46.4150   31.2100   48.4470 C   0  0  0  0  0  0  0  0  0  0  0  0
   47.1720   31.2400   47.2840 C   0  0  0  0  0  0  0  0  0  0  0  0
   46.9450   32.1410   46.2960 N   0  0  0  0  0  0  0  0  0  0  0  0
   44.3480   33.7520   47.7660 H   0  0  0  0  0  0  0  0  0  0  0  0
   44.7680   32.1380   49.5170 H   0  0  0  0  0  0  0  0  0  0  0  0
   46.6100   30.4940   49.2120 H   0  0  0  0  0  0  0  0  0  0  0  0
   44.5430   35.8770   44.6130 C   0  0  0  0  0  0  0  0  0  0  0  0
   45.2070   35.8160   43.3660 C   0  0  0  0  0  0  0  0  0  0  0  0
   46.1140   34.7920   43.2250 C   0  0  0  0  0  0  0  0  0  0  0  0
   46.3440   33.8990   44.2430 N   0  0  0  0  0  0  0  0  0  0  0  0
   45.6710   34.0030   45.4350 C   0  0  0  0  0  0  0  0  0  0  0  0
   44.7790   34.9920   45.6030 N   0  0  0  0  0  0  0  0  0  0  0  0
   43.8110   36.6820   44.7610 H   0  0  0  0  0  0  0  0  0  0  0  0
   45.0020   36.5360   42.5850 H   0  0  0  0  0  0  0  0  0  0  0  0
   46.8510   34.6150   41.9310 C   0  0  0  0  0  0  0  0  0  0  0  0
   48.2030   35.3300   41.9320 C   0  0  0  0  0  0  0  0  0  0  0  0
   48.0220   33.7780   41.8990 C   0  0  0  0  0  0  0  0  0  0  0  0
   46.2360   34.7830   41.0180 H   0  0  0  0  0  0  0  0  0  0  0  0
   48.5830   35.7130   42.9010 H   0  0  0  0  0  0  0  0  0  0  0  0
   48.4640   35.8170   40.9960 H   0  0  0  0  0  0  0  0  0  0  0  0
   48.3860   33.2300   42.7970 H   0  0  0  0  0  0  0  0  0  0  0  0
   48.3480   33.3370   40.9400 H   0  0  0  0  0  0  0  0  0  0  0  0
   48.4470   29.7210   45.7540 C   0  0  1  0  0  3  0  0  0  0  0  0
   48.2560   30.2490   47.1410 C   0  0  2  0  0  3  0  0  0  0  0  0
   48.0450   29.0880   47.8760 O   0  0  0  0  0  0  0  0  0  0  0  0
   49.0760   28.2650   47.4820 C   0  0  0  0  0  2  0  0  0  0  0  0
   49.4070   28.5580   46.0430 C   0  0  2  0  0  3  0  0  0  0  0  0
   47.3170   29.2280   45.1510 O   0  0  0  0  0  0  0  0  0  0  0  0
   46.8320   29.8700   44.5760 H   0  0  0  0  0  0  0  0  0  0  0  0
   50.7430   29.0000   46.0120 O   0  0  0  0  0  0  0  0  0  0  0  0
   50.8020   29.9340   46.3350 H   0  0  0  0  0  0  0  0  0  0  0  0
  1  2  1  0  0  0  0
  2  7  1  0  0  0  0
  2  3  2  0  0  0  0
  3  8  1  0  0  0  0
  4  3  1  0  0  0  0
  4  9  1  0  0  0  0
  5  4  2  0  0  0  0
  6  1  2  0  0  0  0
  6  5  1  0  0  0  0
 10 16  1  0  0  0  0
 10 15  1  0  0  0  0
 11 10  2  0  0  0  0
 12 11  1  0  0  0  0
 12 13  2  0  0  0  0
 13 14  1  0  0  0  0
 14 15  2  0  0  0  0
 14  1  1  0  0  0  0
 17 11  1  0  0  0  0
 18 19  1  0  0  0  0
 18 12  1  0  0  0  0
 19 22  1  0  0  0  0
 20 18  1  0  0  0  0
 20 19  1  0  0  0  0
 20 24  1  0  0  0  0
 21 18  1  0  0  0  0
 23 19  1  0  0  0  0
 25 20  1  0  0  0  0
 26 31  1  1  0  0  0
 26 30  1  0  0  0  0
 26 27  1  0  0  0  0
 27  5  1  6  0  0  0
 27 28  1  0  0  0  0
 29 28  1  0  0  0  0
 30 33  1  1  0  0  0
 30 29  1  0  0  0  0
 32 31  1  0  0  0  0
 33 34  1  0  0  0  0
M  END
>  <minimizedAffinity>
-5.74970675

>  <minimizedRMSD>
0.701966405

$$$$
