
 OpenBabel03242513393D

 34 37  0  0  1  0  0  0  0  0999 V2000
   40.0440   30.3450   39.9170 C   0  0  0  0  0  0  0  0  0  0  0  0
   38.8450   29.9710   40.4660 C   0  0  0  0  0  0  0  0  0  0  0  0
   37.9030   30.9580   40.7050 C   0  0  0  0  0  0  0  0  0  0  0  0
   38.1140   32.2860   40.4200 C   0  0  0  0  0  0  0  0  0  0  0  0
   37.4430   33.4540   40.5210 N   0  0  0  0  0  0  0  0  0  0  0  0
   38.1990   34.4730   40.0580 C   0  0  0  0  0  0  0  0  0  0  0  0
   39.3680   33.9250   39.6610 N   0  0  0  0  0  0  0  0  0  0  0  0
   39.3450   32.5920   39.8690 C   0  0  0  0  0  0  0  0  0  0  0  0
   40.3160   31.6640   39.6090 C   0  0  0  0  0  0  0  0  0  0  0  0
   40.7620   29.5530   39.7410 H   0  0  0  0  0  0  0  0  0  0  0  0
   36.9350   30.6950   41.1410 H   0  0  0  0  0  0  0  0  0  0  0  0
   36.4740   33.5020   40.9120 H   0  0  0  0  0  0  0  0  0  0  0  0
   37.9080   35.5050   40.0240 H   0  0  0  0  0  0  0  0  0  0  0  0
   38.7630   26.3070   40.4450 C   0  0  0  0  0  0  0  0  0  0  0  0
   37.9200   26.0110   41.5080 C   0  0  0  0  0  0  0  0  0  0  0  0
   37.3910   27.0950   42.2180 C   0  0  0  0  0  0  0  0  0  0  0  0
   37.7160   28.3620   41.8470 N   0  0  0  0  0  0  0  0  0  0  0  0
   38.5490   28.5830   40.7950 C   0  0  0  0  0  0  0  0  0  0  0  0
   39.0690   27.5830   40.1000 N   0  0  0  0  0  0  0  0  0  0  0  0
   39.2010   25.4990   39.8620 H   0  0  0  0  0  0  0  0  0  0  0  0
   36.7370   26.8520   43.0410 H   0  0  0  0  0  0  0  0  0  0  0  0
   37.6530   24.5870   41.7990 C   0  0  0  0  0  0  0  0  0  0  0  0
   37.7390   23.9230   40.6010 F   0  0  0  0  0  0  0  0  0  0  0  0
   36.3750   24.4870   42.3070 F   0  0  0  0  0  0  0  0  0  0  0  0
   38.5910   24.1570   42.7260 F   0  0  0  0  0  0  0  0  0  0  0  0
   41.4920   32.5530   37.6100 C   0  0  1  0  0  3  0  0  0  0  0  0
   41.6320   32.0280   39.0150 C   0  0  1  0  0  3  0  0  0  0  0  0
   42.2650   32.9940   39.7780 O   0  0  0  0  0  0  0  0  0  0  0  0
   42.9140   33.8550   38.9030 C   0  0  0  0  0  2  0  0  0  0  0  0
   42.0190   33.9530   37.6850 C   0  0  1  0  0  3  0  0  0  0  0  0
   42.2400   31.8090   36.7010 O   0  0  0  0  0  0  0  0  0  0  0  0
   42.3490   30.8670   37.0070 H   0  0  0  0  0  0  0  0  0  0  0  0
   42.8130   34.2390   36.5860 O   0  0  0  0  0  0  0  0  0  0  0  0
   43.2500   33.4040   36.3040 H   0  0  0  0  0  0  0  0  0  0  0  0
  1  2  1  0  0  0  0
  2  3  2  0  0  0  0
  2 18  1  0  0  0  0
  3 11  1  0  0  0  0
  4  5  1  0  0  0  0
  4  3  1  0  0  0  0
  5 12  1  0  0  0  0
  6  5  1  0  0  0  0
  7  8  1  0  0  0  0
  7  6  2  0  0  0  0
  8  4  2  0  0  0  0
  9  8  1  0  0  0  0
  9  1  2  0  0  0  0
 10  1  1  0  0  0  0
 13  6  1  0  0  0  0
 14 15  1  0  0  0  0
 15 22  1  0  0  0  0
 15 16  2  0  0  0  0
 16 21  1  0  0  0  0
 17 16  1  0  0  0  0
 18 17  2  0  0  0  0
 19 14  2  0  0  0  0
 19 18  1  0  0  0  0
 20 14  1  0  0  0  0
 22 24  1  0  0  0  0
 22 25  1  0  0  0  0
 23 22  1  0  0  0  0
 26 31  1  6  0  0  0
 26 30  1  0  0  0  0
 26 27  1  0  0  0  0
 27  9  1  1  0  0  0
 27 28  1  0  0  0  0
 29 28  1  0  0  0  0
 30 33  1  6  0  0  0
 30 29  1  0  0  0  0
 31 32  1  0  0  0  0
 34 33  1  0  0  0  0
M  END
>  <minimizedAffinity>
-6.89454031

$$$$

 OpenBabel03242513393D

 34 37  0  0  1  0  0  0  0  0999 V2000
   39.7220   29.9330   39.7530 C   0  0  0  0  0  0  0  0  0  0  0  0
   38.5220   29.5460   40.2920 C   0  0  0  0  0  0  0  0  0  0  0  0
   37.5780   30.5250   40.5500 C   0  0  0  0  0  0  0  0  0  0  0  0
   37.7860   31.8600   40.2930 C   0  0  0  0  0  0  0  0  0  0  0  0
   37.1120   33.0230   40.4180 N   0  0  0  0  0  0  0  0  0  0  0  0
   37.8660   34.0530   39.9780 C   0  0  0  0  0  0  0  0  0  0  0  0
   39.0370   33.5170   39.5710 N   0  0  0  0  0  0  0  0  0  0  0  0
   39.0170   32.1800   39.7510 C   0  0  0  0  0  0  0  0  0  0  0  0
   39.9900   31.2590   39.4740 C   0  0  0  0  0  0  0  0  0  0  0  0
   40.4410   29.1480   39.5620 H   0  0  0  0  0  0  0  0  0  0  0  0
   36.6100   30.2500   40.9790 H   0  0  0  0  0  0  0  0  0  0  0  0
   36.1410   33.0600   40.8080 H   0  0  0  0  0  0  0  0  0  0  0  0
   37.5720   35.0850   39.9640 H   0  0  0  0  0  0  0  0  0  0  0  0
   36.8270   26.3120   40.6060 C   0  0  0  0  0  0  0  0  0  0  0  0
   37.7950   25.5120   41.2000 C   0  0  0  0  0  0  0  0  0  0  0  0
   39.0270   26.1130   41.4830 C   0  0  0  0  0  0  0  0  0  0  0  0
   39.2210   27.4230   41.1730 N   0  0  0  0  0  0  0  0  0  0  0  0
   38.2290   28.1500   40.5910 C   0  0  0  0  0  0  0  0  0  0  0  0
   37.0520   27.6150   40.3080 N   0  0  0  0  0  0  0  0  0  0  0  0
   35.8520   25.8900   40.3650 H   0  0  0  0  0  0  0  0  0  0  0  0
   39.7700   25.4820   41.9450 H   0  0  0  0  0  0  0  0  0  0  0  0
   37.4470   24.1040   41.4830 C   0  0  0  0  0  0  0  0  0  0  0  0
   37.8450   23.8570   42.7720 F   0  0  0  0  0  0  0  0  0  0  0  0
   38.1500   23.3050   40.6070 F   0  0  0  0  0  0  0  0  0  0  0  0
   36.0790   23.9570   41.3000 F   0  0  0  0  0  0  0  0  0  0  0  0
   41.1590   32.2800   37.5340 C   0  0  1  0  0  3  0  0  0  0  0  0
   41.3060   31.6390   38.8890 C   0  0  1  0  0  3  0  0  0  0  0  0
   41.9750   32.5240   39.7180 O   0  0  0  0  0  0  0  0  0  0  0  0
   42.6330   33.4370   38.9050 C   0  0  0  0  0  2  0  0  0  0  0  0
   41.7230   33.6570   37.7140 C   0  0  1  0  0  3  0  0  0  0  0  0
   41.8750   31.5950   36.5550 O   0  0  0  0  0  0  0  0  0  0  0  0
   41.9650   30.6300   36.7820 H   0  0  0  0  0  0  0  0  0  0  0  0
   42.5080   34.0130   36.6290 O   0  0  0  0  0  0  0  0  0  0  0  0
   42.9190   33.1930   36.2720 H   0  0  0  0  0  0  0  0  0  0  0  0
  1  2  1  0  0  0  0
  2  3  2  0  0  0  0
  2 18  1  0  0  0  0
  3 11  1  0  0  0  0
  4  5  1  0  0  0  0
  4  3  1  0  0  0  0
  5 12  1  0  0  0  0
  6  5  1  0  0  0  0
  7  8  1  0  0  0  0
  7  6  2  0  0  0  0
  8  4  2  0  0  0  0
  9  8  1  0  0  0  0
  9  1  2  0  0  0  0
 10  1  1  0  0  0  0
 13  6  1  0  0  0  0
 14 15  1  0  0  0  0
 15 16  2  0  0  0  0
 15 22  1  0  0  0  0
 16 21  1  0  0  0  0
 17 16  1  0  0  0  0
 18 17  2  0  0  0  0
 19 18  1  0  0  0  0
 19 14  2  0  0  0  0
 20 14  1  0  0  0  0
 22 23  1  0  0  0  0
 24 22  1  0  0  0  0
 25 22  1  0  0  0  0
 26 31  1  6  0  0  0
 26 30  1  0  0  0  0
 26 27  1  0  0  0  0
 27  9  1  1  0  0  0
 27 28  1  0  0  0  0
 29 28  1  0  0  0  0
 30 33  1  6  0  0  0
 30 29  1  0  0  0  0
 31 32  1  0  0  0  0
 34 33  1  0  0  0  0
M  END
>  <minimizedAffinity>
-6.71939659

$$$$

 OpenBabel03242513393D

 34 37  0  0  1  0  0  0  0  0999 V2000
   39.6010   30.2180   39.1530 C   0  0  0  0  0  0  0  0  0  0  0  0
   38.8760   30.0150   40.2990 C   0  0  0  0  0  0  0  0  0  0  0  0
   38.5800   31.1150   41.0850 C   0  0  0  0  0  0  0  0  0  0  0  0
   38.9770   32.3940   40.7730 C   0  0  0  0  0  0  0  0  0  0  0  0
   38.8650   33.6350   41.2940 N   0  0  0  0  0  0  0  0  0  0  0  0
   39.4890   34.5350   40.5030 C   0  0  0  0  0  0  0  0  0  0  0  0
   40.0020   33.8360   39.4670 N   0  0  0  0  0  0  0  0  0  0  0  0
   39.7050   32.5270   39.6050 C   0  0  0  0  0  0  0  0  0  0  0  0
   40.0290   31.4800   38.7860 C   0  0  0  0  0  0  0  0  0  0  0  0
   39.8180   29.3410   38.5570 H   0  0  0  0  0  0  0  0  0  0  0  0
   38.0030   30.9890   42.0060 H   0  0  0  0  0  0  0  0  0  0  0  0
   38.3540   33.8150   42.1890 H   0  0  0  0  0  0  0  0  0  0  0  0
   39.5530   35.5910   40.6830 H   0  0  0  0  0  0  0  0  0  0  0  0
   37.3280   27.2460   42.1330 C   0  0  0  0  0  0  0  0  0  0  0  0
   37.6160   26.1470   41.3350 C   0  0  0  0  0  0  0  0  0  0  0  0
   38.3480   26.3880   40.1660 C   0  0  0  0  0  0  0  0  0  0  0  0
   38.7370   27.6560   39.8680 N   0  0  0  0  0  0  0  0  0  0  0  0
   38.4200   28.6890   40.6940 C   0  0  0  0  0  0  0  0  0  0  0  0
   37.7300   28.5000   41.8080 N   0  0  0  0  0  0  0  0  0  0  0  0
   36.7600   27.1110   43.0530 H   0  0  0  0  0  0  0  0  0  0  0  0
   38.5660   25.5260   39.5550 H   0  0  0  0  0  0  0  0  0  0  0  0
   37.1320   24.8240   41.7820 C   0  0  0  0  0  0  0  0  0  0  0  0
   36.4260   24.2940   40.7320 F   0  0  0  0  0  0  0  0  0  0  0  0
   36.3000   25.0170   42.8650 F   0  0  0  0  0  0  0  0  0  0  0  0
   38.2360   24.0610   42.1330 F   0  0  0  0  0  0  0  0  0  0  0  0
   42.0240   32.5310   37.7430 C   0  0  1  0  0  3  0  0  0  0  0  0
   40.8140   31.6580   37.5330 C   0  0  1  0  0  3  0  0  0  0  0  0
   41.2420   30.4350   37.0440 O   0  0  0  0  0  0  0  0  0  0  0  0
   42.5150   30.6190   36.5210 C   0  0  0  0  0  2  0  0  0  0  0  0
   43.1830   31.6390   37.4190 C   0  0  1  0  0  3  0  0  0  0  0  0
   42.0190   33.6360   36.8960 O   0  0  0  0  0  0  0  0  0  0  0  0
   41.0910   33.9040   36.6560 H   0  0  0  0  0  0  0  0  0  0  0  0
   44.1320   32.3180   36.6710 O   0  0  0  0  0  0  0  0  0  0  0  0
   43.6610   32.9850   36.1200 H   0  0  0  0  0  0  0  0  0  0  0  0
  1  2  1  0  0  0  0
  2 18  1  0  0  0  0
  2  3  2  0  0  0  0
  3 11  1  0  0  0  0
  4  3  1  0  0  0  0
  4  5  1  0  0  0  0
  5 12  1  0  0  0  0
  6 13  1  0  0  0  0
  6  5  1  0  0  0  0
  7  8  1  0  0  0  0
  7  6  2  0  0  0  0
  8  4  2  0  0  0  0
  9  1  2  0  0  0  0
  9  8  1  0  0  0  0
 10  1  1  0  0  0  0
 14 20  1  0  0  0  0
 15 22  1  0  0  0  0
 15 14  2  0  0  0  0
 16 15  1  0  0  0  0
 17 16  2  0  0  0  0
 17 18  1  0  0  0  0
 18 19  2  0  0  0  0
 19 14  1  0  0  0  0
 21 16  1  0  0  0  0
 22 25  1  0  0  0  0
 22 24  1  0  0  0  0
 23 22  1  0  0  0  0
 26 31  1  6  0  0  0
 27 26  1  0  0  0  0
 27  9  1  1  0  0  0
 28 27  1  0  0  0  0
 29 28  1  0  0  0  0
 29 30  1  0  0  0  0
 30 33  1  6  0  0  0
 30 26  1  0  0  0  0
 32 31  1  0  0  0  0
 34 33  1  0  0  0  0
M  END
>  <minimizedAffinity>
-6.70805073

$$$$

 OpenBabel03242513393D

 34 37  0  0  1  0  0  0  0  0999 V2000
   37.3930   30.1460   39.9230 C   0  0  0  0  0  0  0  0  0  0  0  0
   36.9460   30.7020   38.7530 C   0  0  0  0  0  0  0  0  0  0  0  0
   37.2170   32.0400   38.5230 C   0  0  0  0  0  0  0  0  0  0  0  0
   37.9080   32.8330   39.4080 C   0  0  0  0  0  0  0  0  0  0  0  0
   38.3260   34.1140   39.4940 N   0  0  0  0  0  0  0  0  0  0  0  0
   38.9880   34.3160   40.6540 C   0  0  0  0  0  0  0  0  0  0  0  0
   38.9810   33.1320   41.3040 N   0  0  0  0  0  0  0  0  0  0  0  0
   38.3290   32.2080   40.5680 C   0  0  0  0  0  0  0  0  0  0  0  0
   38.0930   30.8910   40.8530 C   0  0  0  0  0  0  0  0  0  0  0  0
   37.1680   29.0980   40.0770 H   0  0  0  0  0  0  0  0  0  0  0  0
   36.8750   32.5150   37.5990 H   0  0  0  0  0  0  0  0  0  0  0  0
   38.1350   34.8090   38.7360 H   0  0  0  0  0  0  0  0  0  0  0  0
   39.4250   35.2430   40.9740 H   0  0  0  0  0  0  0  0  0  0  0  0
   34.4500   28.5600   37.1360 C   0  0  0  0  0  0  0  0  0  0  0  0
   34.9000   28.4970   35.8240 C   0  0  0  0  0  0  0  0  0  0  0  0
   36.0700   29.2040   35.5210 C   0  0  0  0  0  0  0  0  0  0  0  0
   36.7020   29.9050   36.5000 N   0  0  0  0  0  0  0  0  0  0  0  0
   36.2070   29.9250   37.7660 C   0  0  0  0  0  0  0  0  0  0  0  0
   35.1030   29.2700   38.0900 N   0  0  0  0  0  0  0  0  0  0  0  0
   33.5440   28.0280   37.4220 H   0  0  0  0  0  0  0  0  0  0  0  0
   36.4100   29.1460   34.4990 H   0  0  0  0  0  0  0  0  0  0  0  0
   34.1140   27.6950   34.8640 C   0  0  0  0  0  0  0  0  0  0  0  0
   34.9150   27.5100   33.7650 F   0  0  0  0  0  0  0  0  0  0  0  0
   32.9930   28.4200   34.5180 F   0  0  0  0  0  0  0  0  0  0  0  0
   33.7640   26.5060   35.4860 F   0  0  0  0  0  0  0  0  0  0  0  0
   37.6990   29.0780   42.5050 C   0  0  1  0  0  3  0  0  0  0  0  0
   38.5620   30.2490   42.1120 C   0  0  1  0  0  3  0  0  0  0  0  0
   39.8660   29.8030   41.9800 O   0  0  0  0  0  0  0  0  0  0  0  0
   39.9660   28.6020   42.6710 C   0  0  0  0  0  2  0  0  0  0  0  0
   38.6340   27.9070   42.4800 C   0  0  1  0  0  3  0  0  0  0  0  0
   37.1630   29.2340   43.7810 O   0  0  0  0  0  0  0  0  0  0  0  0
   37.0500   30.1970   44.0110 H   0  0  0  0  0  0  0  0  0  0  0  0
   38.4160   27.0820   43.5720 O   0  0  0  0  0  0  0  0  0  0  0  0
   38.1130   27.6450   44.3210 H   0  0  0  0  0  0  0  0  0  0  0  0
  1 10  1  0  0  0  0
  1  9  1  0  0  0  0
  2  1  2  0  0  0  0
  3  2  1  0  0  0  0
  3  4  2  0  0  0  0
  4  5  1  0  0  0  0
  4  8  1  0  0  0  0
  5  6  1  0  0  0  0
  6 13  1  0  0  0  0
  6  7  2  0  0  0  0
  8  9  2  0  0  0  0
  8  7  1  0  0  0  0
 11  3  1  0  0  0  0
 12  5  1  0  0  0  0
 14 20  1  0  0  0  0
 14 19  1  0  0  0  0
 15 14  2  0  0  0  0
 16 15  1  0  0  0  0
 16 17  2  0  0  0  0
 17 18  1  0  0  0  0
 18 19  2  0  0  0  0
 18  2  1  0  0  0  0
 21 16  1  0  0  0  0
 22 25  1  0  0  0  0
 22 15  1  0  0  0  0
 23 22  1  0  0  0  0
 24 22  1  0  0  0  0
 26 31  1  1  0  0  0
 27  9  1  6  0  0  0
 27 26  1  0  0  0  0
 28 27  1  0  0  0  0
 28 29  1  0  0  0  0
 30 26  1  0  0  0  0
 30 29  1  0  0  0  0
 30 33  1  1  0  0  0
 31 32  1  0  0  0  0
 33 34  1  0  0  0  0
M  END
>  <minimizedAffinity>
-6.17212105

$$$$

 OpenBabel03242513393D

 34 37  0  0  1  0  0  0  0  0999 V2000
   36.8270   26.8320   39.7380 C   0  0  0  0  0  0  0  0  0  0  0  0
   36.0000   27.9230   39.6560 C   0  0  0  0  0  0  0  0  0  0  0  0
   35.9320   28.7700   40.7490 C   0  0  0  0  0  0  0  0  0  0  0  0
   36.6500   28.5710   41.9050 C   0  0  0  0  0  0  0  0  0  0  0  0
   36.8110   29.1720   43.1030 N   0  0  0  0  0  0  0  0  0  0  0  0
   37.6870   28.4800   43.8630 C   0  0  0  0  0  0  0  0  0  0  0  0
   38.0790   27.4230   43.1180 N   0  0  0  0  0  0  0  0  0  0  0  0
   37.4630   27.4520   41.9180 C   0  0  0  0  0  0  0  0  0  0  0  0
   37.5740   26.5780   40.8720 C   0  0  0  0  0  0  0  0  0  0  0  0
   36.8620   26.1870   38.8700 H   0  0  0  0  0  0  0  0  0  0  0  0
   35.2820   29.6500   40.7180 H   0  0  0  0  0  0  0  0  0  0  0  0
   36.3010   30.0510   43.3530 H   0  0  0  0  0  0  0  0  0  0  0  0
   37.9960   28.7380   44.8580 H   0  0  0  0  0  0  0  0  0  0  0  0
   34.8750   28.1650   36.1770 C   0  0  0  0  0  0  0  0  0  0  0  0
   33.6300   28.7680   36.2970 C   0  0  0  0  0  0  0  0  0  0  0  0
   33.2000   29.0830   37.5910 C   0  0  0  0  0  0  0  0  0  0  0  0
   33.9990   28.7920   38.6520 N   0  0  0  0  0  0  0  0  0  0  0  0
   35.2090   28.1990   38.4650 C   0  0  0  0  0  0  0  0  0  0  0  0
   35.6480   27.8870   37.2560 N   0  0  0  0  0  0  0  0  0  0  0  0
   35.2540   27.9000   35.1910 H   0  0  0  0  0  0  0  0  0  0  0  0
   32.2310   29.5520   37.6710 H   0  0  0  0  0  0  0  0  0  0  0  0
   32.8680   29.0270   35.0570 C   0  0  0  0  0  0  0  0  0  0  0  0
   31.5490   29.1190   35.4240 F   0  0  0  0  0  0  0  0  0  0  0  0
   33.0520   27.9560   34.2100 F   0  0  0  0  0  0  0  0  0  0  0  0
   33.3560   30.1970   34.4930 F   0  0  0  0  0  0  0  0  0  0  0  0
   37.7630   24.1840   41.5100 C   0  0  1  0  0  3  0  0  0  0  0  0
   38.4600   25.3820   40.9200 C   0  0  1  0  0  3  0  0  0  0  0  0
   38.9010   25.0460   39.6510 O   0  0  0  0  0  0  0  0  0  0  0  0
   38.9390   23.6600   39.5780 C   0  0  0  0  0  2  0  0  0  0  0  0
   37.7660   23.1740   40.4040 C   0  0  1  0  0  3  0  0  0  0  0  0
   38.4420   23.6820   42.6180 O   0  0  0  0  0  0  0  0  0  0  0  0
   38.9530   24.3990   43.0840 H   0  0  0  0  0  0  0  0  0  0  0  0
   38.0740   21.9130   40.8910 O   0  0  0  0  0  0  0  0  0  0  0  0
   38.6790   22.0250   41.6590 H   0  0  0  0  0  0  0  0  0  0  0  0
  1  9  1  0  0  0  0
  2  1  2  0  0  0  0
  2  3  1  0  0  0  0
  3  4  2  0  0  0  0
  4  8  1  0  0  0  0
  4  5  1  0  0  0  0
  5 12  1  0  0  0  0
  5  6  1  0  0  0  0
  6 13  1  0  0  0  0
  7  6  2  0  0  0  0
  8  7  1  0  0  0  0
  9  8  2  0  0  0  0
 10  1  1  0  0  0  0
 11  3  1  0  0  0  0
 14 15  2  0  0  0  0
 14 19  1  0  0  0  0
 15 16  1  0  0  0  0
 16 21  1  0  0  0  0
 16 17  2  0  0  0  0
 18 17  1  0  0  0  0
 18  2  1  0  0  0  0
 19 18  2  0  0  0  0
 20 14  1  0  0  0  0
 22 23  1  0  0  0  0
 22 15  1  0  0  0  0
 24 22  1  0  0  0  0
 25 22  1  0  0  0  0
 26 31  1  1  0  0  0
 27  9  1  6  0  0  0
 27 26  1  0  0  0  0
 28 27  1  0  0  0  0
 29 28  1  0  0  0  0
 29 30  1  0  0  0  0
 30 33  1  1  0  0  0
 30 26  1  0  0  0  0
 31 32  1  0  0  0  0
 33 34  1  0  0  0  0
M  END
>  <minimizedAffinity>
-6.16429043

$$$$

 OpenBabel03242513393D

 34 37  0  0  1  0  0  0  0  0999 V2000
   39.9970   30.5290   40.9110 C   0  0  0  0  0  0  0  0  0  0  0  0
   38.6950   30.1000   40.9090 C   0  0  0  0  0  0  0  0  0  0  0  0
   37.7030   31.0330   40.6610 C   0  0  0  0  0  0  0  0  0  0  0  0
   37.9600   32.3620   40.4190 C   0  0  0  0  0  0  0  0  0  0  0  0
   37.2630   33.4880   40.1540 N   0  0  0  0  0  0  0  0  0  0  0  0
   38.1010   34.5360   40.0050 C   0  0  0  0  0  0  0  0  0  0  0  0
   39.3490   34.0500   40.1830 N   0  0  0  0  0  0  0  0  0  0  0  0
   39.2940   32.7260   40.4370 C   0  0  0  0  0  0  0  0  0  0  0  0
   40.3190   31.8520   40.6750 C   0  0  0  0  0  0  0  0  0  0  0  0
   40.7520   29.7790   41.1070 H   0  0  0  0  0  0  0  0  0  0  0  0
   36.6530   30.7250   40.6520 H   0  0  0  0  0  0  0  0  0  0  0  0
   36.2190   33.4880   40.0850 H   0  0  0  0  0  0  0  0  0  0  0  0
   37.8110   35.5460   39.7890 H   0  0  0  0  0  0  0  0  0  0  0  0
   37.1310   26.7920   40.7060 C   0  0  0  0  0  0  0  0  0  0  0  0
   37.7710   26.0850   41.7160 C   0  0  0  0  0  0  0  0  0  0  0  0
   38.7410   26.7740   42.4550 C   0  0  0  0  0  0  0  0  0  0  0  0
   39.0090   28.0740   42.1610 N   0  0  0  0  0  0  0  0  0  0  0  0
   38.3440   28.7080   41.1570 C   0  0  0  0  0  0  0  0  0  0  0  0
   37.4220   28.0890   40.4370 N   0  0  0  0  0  0  0  0  0  0  0  0
   36.3690   26.3000   40.1030 H   0  0  0  0  0  0  0  0  0  0  0  0
   39.2300   26.2140   43.2370 H   0  0  0  0  0  0  0  0  0  0  0  0
   37.3780   24.6760   41.9270 C   0  0  0  0  0  0  0  0  0  0  0  0
   37.1290   24.1530   40.6830 F   0  0  0  0  0  0  0  0  0  0  0  0
   36.2280   24.6620   42.6880 F   0  0  0  0  0  0  0  0  0  0  0  0
   38.4180   24.0370   42.5860 F   0  0  0  0  0  0  0  0  0  0  0  0
   42.3140   32.3170   42.0810 C   0  0  1  0  0  3  0  0  0  0  0  0
   41.7460   32.2770   40.6860 C   0  0  1  0  0  3  0  0  0  0  0  0
   42.5210   31.4170   39.9270 O   0  0  0  0  0  0  0  0  0  0  0  0
   43.7410   31.2750   40.5750 C   0  0  0  0  0  2  0  0  0  0  0  0
   43.4250   31.3120   42.0560 C   0  0  1  0  0  3  0  0  0  0  0  0
   42.8160   33.5770   42.4010 O   0  0  0  0  0  0  0  0  0  0  0  0
   42.3390   34.2940   41.9010 H   0  0  0  0  0  0  0  0  0  0  0  0
   44.5400   31.7960   42.7240 O   0  0  0  0  0  0  0  0  0  0  0  0
   44.5570   32.7740   42.6150 H   0  0  0  0  0  0  0  0  0  0  0  0
  1 10  1  0  0  0  0
  2  1  1  0  0  0  0
  2 18  1  0  0  0  0
  3  2  2  0  0  0  0
  4  8  2  0  0  0  0
  4  3  1  0  0  0  0
  5  4  1  0  0  0  0
  6  5  1  0  0  0  0
  6  7  2  0  0  0  0
  7  8  1  0  0  0  0
  8  9  1  0  0  0  0
  9  1  2  0  0  0  0
 11  3  1  0  0  0  0
 12  5  1  0  0  0  0
 13  6  1  0  0  0  0
 14 15  1  0  0  0  0
 15 22  1  0  0  0  0
 15 16  2  0  0  0  0
 16 21  1  0  0  0  0
 17 16  1  0  0  0  0
 18 17  2  0  0  0  0
 19 14  2  0  0  0  0
 19 18  1  0  0  0  0
 20 14  1  0  0  0  0
 22 25  1  0  0  0  0
 22 24  1  0  0  0  0
 23 22  1  0  0  0  0
 26 31  1  6  0  0  0
 27  9  1  1  0  0  0
 27 26  1  0  0  0  0
 28 29  1  0  0  0  0
 28 27  1  0  0  0  0
 29 30  1  0  0  0  0
 30 26  1  0  0  0  0
 30 33  1  1  0  0  0
 32 31  1  0  0  0  0
 34 33  1  0  0  0  0
M  END
>  <minimizedAffinity>
-6.12077379

$$$$

 OpenBabel03242513393D

 34 37  0  0  1  0  0  0  0  0999 V2000
   34.6370   29.1910   38.1440 C   0  0  0  0  0  0  0  0  0  0  0  0
   33.7970   28.5780   37.2500 C   0  0  0  0  0  0  0  0  0  0  0  0
   33.9730   27.2250   37.0150 C   0  0  0  0  0  0  0  0  0  0  0  0
   34.9450   26.4720   37.6310 C   0  0  0  0  0  0  0  0  0  0  0  0
   35.3740   25.1910   37.6310 N   0  0  0  0  0  0  0  0  0  0  0  0
   36.4140   25.0440   38.4790 C   0  0  0  0  0  0  0  0  0  0  0  0
   36.6380   26.2620   39.0170 N   0  0  0  0  0  0  0  0  0  0  0  0
   35.7560   27.1540   38.5190 C   0  0  0  0  0  0  0  0  0  0  0  0
   35.6330   28.4880   38.7940 C   0  0  0  0  0  0  0  0  0  0  0  0
   34.4770   30.2480   38.3090 H   0  0  0  0  0  0  0  0  0  0  0  0
   33.3200   26.7040   36.3080 H   0  0  0  0  0  0  0  0  0  0  0  0
   34.9230   24.4580   37.0360 H   0  0  0  0  0  0  0  0  0  0  0  0
   36.9430   24.1300   38.6700 H   0  0  0  0  0  0  0  0  0  0  0  0
   30.7110   30.4100   36.5090 C   0  0  0  0  0  0  0  0  0  0  0  0
   30.8300   30.6780   35.1520 C   0  0  0  0  0  0  0  0  0  0  0  0
   31.9860   30.2150   34.5130 C   0  0  0  0  0  0  0  0  0  0  0  0
   32.9220   29.5390   35.2300 N   0  0  0  0  0  0  0  0  0  0  0  0
   32.7440   29.3100   36.5590 C   0  0  0  0  0  0  0  0  0  0  0  0
   31.6640   29.7330   37.1960 N   0  0  0  0  0  0  0  0  0  0  0  0
   29.8300   30.7500   37.0510 H   0  0  0  0  0  0  0  0  0  0  0  0
   32.0660   30.4290   33.4580 H   0  0  0  0  0  0  0  0  0  0  0  0
   29.7330   31.4240   34.4980 C   0  0  0  0  0  0  0  0  0  0  0  0
   29.3130   32.3680   35.4010 F   0  0  0  0  0  0  0  0  0  0  0  0
   28.7130   30.5360   34.2300 F   0  0  0  0  0  0  0  0  0  0  0  0
   30.2310   31.9770   33.3280 F   0  0  0  0  0  0  0  0  0  0  0  0
   35.9020   29.3050   41.1250 C   0  0  1  0  0  3  0  0  0  0  0  0
   36.5240   29.1920   39.7580 C   0  0  1  0  0  3  0  0  0  0  0  0
   37.7320   28.5270   39.8840 O   0  0  0  0  0  0  0  0  0  0  0  0
   38.1170   28.6150   41.2160 C   0  0  0  0  0  2  0  0  0  0  0  0
   36.8340   28.5460   42.0180 C   0  0  1  0  0  3  0  0  0  0  0  0
   35.8110   30.6300   41.5450 O   0  0  0  0  0  0  0  0  0  0  0  0
   35.7310   31.2510   40.7690 H   0  0  0  0  0  0  0  0  0  0  0  0
   37.0340   29.2240   43.2110 O   0  0  0  0  0  0  0  0  0  0  0  0
   36.9660   30.1880   43.0250 H   0  0  0  0  0  0  0  0  0  0  0  0
  1 10  1  0  0  0  0
  1  9  1  0  0  0  0
  2  1  2  0  0  0  0
  3  2  1  0  0  0  0
  3  4  2  0  0  0  0
  4  8  1  0  0  0  0
  5  4  1  0  0  0  0
  5  6  1  0  0  0  0
  6 13  1  0  0  0  0
  6  7  2  0  0  0  0
  8  9  2  0  0  0  0
  8  7  1  0  0  0  0
 11  3  1  0  0  0  0
 12  5  1  0  0  0  0
 14 20  1  0  0  0  0
 14 19  1  0  0  0  0
 15 14  2  0  0  0  0
 16 15  1  0  0  0  0
 16 17  2  0  0  0  0
 17 18  1  0  0  0  0
 18 19  2  0  0  0  0
 18  2  1  0  0  0  0
 21 16  1  0  0  0  0
 22 15  1  0  0  0  0
 22 23  1  0  0  0  0
 24 22  1  0  0  0  0
 25 22  1  0  0  0  0
 26 31  1  1  0  0  0
 26 30  1  0  0  0  0
 27  9  1  6  0  0  0
 27 28  1  0  0  0  0
 27 26  1  0  0  0  0
 28 29  1  0  0  0  0
 29 30  1  0  0  0  0
 30 33  1  1  0  0  0
 32 31  1  0  0  0  0
 34 33  1  0  0  0  0
M  END
>  <minimizedAffinity>
-6.00830317

$$$$

 OpenBabel03242513393D

 34 37  0  0  1  0  0  0  0  0999 V2000
   39.7980   30.5020   40.9830 C   0  0  0  0  0  0  0  0  0  0  0  0
   40.1950   29.4490   41.7660 C   0  0  0  0  0  0  0  0  0  0  0  0
   41.3520   29.5930   42.5110 C   0  0  0  0  0  0  0  0  0  0  0  0
   42.1190   30.7350   42.5020 C   0  0  0  0  0  0  0  0  0  0  0  0
   43.2520   31.1880   43.0800 N   0  0  0  0  0  0  0  0  0  0  0  0
   43.5210   32.4460   42.6660 C   0  0  0  0  0  0  0  0  0  0  0  0
   42.5310   32.7800   41.8090 N   0  0  0  0  0  0  0  0  0  0  0  0
   41.6610   31.7560   41.6900 C   0  0  0  0  0  0  0  0  0  0  0  0
   40.5260   31.6750   40.9300 C   0  0  0  0  0  0  0  0  0  0  0  0
   38.8890   30.3630   40.4110 H   0  0  0  0  0  0  0  0  0  0  0  0
   41.6980   28.7730   43.1470 H   0  0  0  0  0  0  0  0  0  0  0  0
   43.8040   30.6030   43.7490 H   0  0  0  0  0  0  0  0  0  0  0  0
   44.3600   33.0410   42.9700 H   0  0  0  0  0  0  0  0  0  0  0  0
   39.1150   26.0390   42.5620 C   0  0  0  0  0  0  0  0  0  0  0  0
   37.9170   25.9250   41.8680 C   0  0  0  0  0  0  0  0  0  0  0  0
   37.5020   27.0400   41.1320 C   0  0  0  0  0  0  0  0  0  0  0  0
   38.2700   28.1620   41.1250 N   0  0  0  0  0  0  0  0  0  0  0  0
   39.4340   28.2080   41.8280 C   0  0  0  0  0  0  0  0  0  0  0  0
   39.8580   27.1730   42.5360 N   0  0  0  0  0  0  0  0  0  0  0  0
   39.4800   25.1980   43.1500 H   0  0  0  0  0  0  0  0  0  0  0  0
   36.5710   26.9390   40.5970 H   0  0  0  0  0  0  0  0  0  0  0  0
   37.1860   24.6440   41.9640 C   0  0  0  0  0  0  0  0  0  0  0  0
   36.1210   24.8660   42.8000 F   0  0  0  0  0  0  0  0  0  0  0  0
   38.0340   23.7060   42.5140 F   0  0  0  0  0  0  0  0  0  0  0  0
   36.8010   24.2750   40.6830 F   0  0  0  0  0  0  0  0  0  0  0  0
   38.8200   32.4350   39.2920 C   0  0  1  0  0  3  0  0  0  0  0  0
   40.0600   32.7950   40.0660 C   0  0  1  0  0  3  0  0  0  0  0  0
   39.7860   33.9200   40.8260 O   0  0  0  0  0  0  0  0  0  0  0  0
   38.6720   34.5350   40.2700 C   0  0  0  0  0  2  0  0  0  0  0  0
   37.7890   33.4100   39.7720 C   0  0  1  0  0  3  0  0  0  0  0  0
   39.0070   32.5730   37.9190 O   0  0  0  0  0  0  0  0  0  0  0  0
   39.9610   32.4360   37.6680 H   0  0  0  0  0  0  0  0  0  0  0  0
   37.0350   33.8890   38.7120 O   0  0  0  0  0  0  0  0  0  0  0  0
   37.6110   33.9050   37.9140 H   0  0  0  0  0  0  0  0  0  0  0  0
  1  2  1  0  0  0  0
  2 18  1  0  0  0  0
  2  3  2  0  0  0  0
  3 11  1  0  0  0  0
  4  3  1  0  0  0  0
  4  5  1  0  0  0  0
  5 12  1  0  0  0  0
  6 13  1  0  0  0  0
  6  5  1  0  0  0  0
  7  6  2  0  0  0  0
  8  7  1  0  0  0  0
  8  4  2  0  0  0  0
  9  1  2  0  0  0  0
  9  8  1  0  0  0  0
 10  1  1  0  0  0  0
 14 20  1  0  0  0  0
 15 22  1  0  0  0  0
 15 14  2  0  0  0  0
 16 15  1  0  0  0  0
 17 16  2  0  0  0  0
 17 18  1  0  0  0  0
 18 19  2  0  0  0  0
 19 14  1  0  0  0  0
 21 16  1  0  0  0  0
 22 24  1  0  0  0  0
 22 23  1  0  0  0  0
 25 22  1  0  0  0  0
 26 31  1  6  0  0  0
 26 30  1  0  0  0  0
 26 27  1  0  0  0  0
 27 28  1  0  0  0  0
 27  9  1  1  0  0  0
 29 28  1  0  0  0  0
 30 33  1  6  0  0  0
 30 29  1  0  0  0  0
 32 31  1  0  0  0  0
 34 33  1  0  0  0  0
M  END
>  <minimizedAffinity>
-5.99264765

$$$$

 OpenBabel03242513393D

 34 37  0  0  1  0  0  0  0  0999 V2000
   37.7910   29.9940   38.8150 C   0  0  0  0  0  0  0  0  0  0  0  0
   37.4030   28.7440   38.4090 C   0  0  0  0  0  0  0  0  0  0  0  0
   36.9740   28.5880   37.1020 C   0  0  0  0  0  0  0  0  0  0  0  0
   36.9200   29.6220   36.1980 C   0  0  0  0  0  0  0  0  0  0  0  0
   36.5680   29.8110   34.9070 N   0  0  0  0  0  0  0  0  0  0  0  0
   36.7370   31.1040   34.5580 C   0  0  0  0  0  0  0  0  0  0  0  0
   37.2030   31.7350   35.6580 N   0  0  0  0  0  0  0  0  0  0  0  0
   37.3250   30.8560   36.6740 C   0  0  0  0  0  0  0  0  0  0  0  0
   37.7580   31.0740   37.9530 C   0  0  0  0  0  0  0  0  0  0  0  0
   38.1220   30.0870   39.8420 H   0  0  0  0  0  0  0  0  0  0  0  0
   36.6570   27.6030   36.7450 H   0  0  0  0  0  0  0  0  0  0  0  0
   36.2210   29.0250   34.3090 H   0  0  0  0  0  0  0  0  0  0  0  0
   36.5340   31.5250   33.5920 H   0  0  0  0  0  0  0  0  0  0  0  0
   36.6490   25.5520   40.0440 C   0  0  0  0  0  0  0  0  0  0  0  0
   37.5870   25.4990   41.0660 C   0  0  0  0  0  0  0  0  0  0  0  0
   38.4710   26.5800   41.1710 C   0  0  0  0  0  0  0  0  0  0  0  0
   38.3770   27.6110   40.2900 N   0  0  0  0  0  0  0  0  0  0  0  0
   37.4330   27.5990   39.3110 C   0  0  0  0  0  0  0  0  0  0  0  0
   36.5810   26.5950   39.1800 N   0  0  0  0  0  0  0  0  0  0  0  0
   35.9390   24.7350   39.9210 H   0  0  0  0  0  0  0  0  0  0  0  0
   39.1950   26.5270   41.9700 H   0  0  0  0  0  0  0  0  0  0  0  0
   37.5750   24.3170   41.9530 C   0  0  0  0  0  0  0  0  0  0  0  0
   36.4190   24.3940   42.6880 F   0  0  0  0  0  0  0  0  0  0  0  0
   38.6720   24.3930   42.7840 F   0  0  0  0  0  0  0  0  0  0  0  0
   37.6350   23.1840   41.1540 F   0  0  0  0  0  0  0  0  0  0  0  0
   37.6330   32.7340   39.7980 C   0  0  1  0  0  3  0  0  0  0  0  0
   38.1890   32.4160   38.4340 C   0  0  1  0  0  3  0  0  0  0  0  0
   39.5700   32.4940   38.4990 O   0  0  0  0  0  0  0  0  0  0  0  0
   39.8910   33.2470   39.6210 C   0  0  0  0  0  2  0  0  0  0  0  0
   38.8460   32.8980   40.6610 C   0  0  1  0  0  3  0  0  0  0  0  0
   36.8870   33.9100   39.7920 O   0  0  0  0  0  0  0  0  0  0  0  0
   36.4800   34.0760   38.8990 H   0  0  0  0  0  0  0  0  0  0  0  0
   38.7020   33.9840   41.5100 O   0  0  0  0  0  0  0  0  0  0  0  0
   38.1450   34.6530   41.0520 H   0  0  0  0  0  0  0  0  0  0  0  0
  1 10  1  0  0  0  0
  2  1  1  0  0  0  0
  2 18  1  0  0  0  0
  3  2  2  0  0  0  0
  4  8  2  0  0  0  0
  4  3  1  0  0  0  0
  5  4  1  0  0  0  0
  6  5  1  0  0  0  0
  6  7  2  0  0  0  0
  7  8  1  0  0  0  0
  8  9  1  0  0  0  0
  9  1  2  0  0  0  0
 11  3  1  0  0  0  0
 12  5  1  0  0  0  0
 13  6  1  0  0  0  0
 14 15  1  0  0  0  0
 15 16  2  0  0  0  0
 15 22  1  0  0  0  0
 16 21  1  0  0  0  0
 17 16  1  0  0  0  0
 18 17  2  0  0  0  0
 19 18  1  0  0  0  0
 19 14  2  0  0  0  0
 20 14  1  0  0  0  0
 22 23  1  0  0  0  0
 22 24  1  0  0  0  0
 25 22  1  0  0  0  0
 26 31  1  6  0  0  0
 26 30  1  0  0  0  0
 27  9  1  1  0  0  0
 27 28  1  0  0  0  0
 27 26  1  0  0  0  0
 28 29  1  0  0  0  0
 29 30  1  0  0  0  0
 30 33  1  1  0  0  0
 32 31  1  0  0  0  0
 34 33  1  0  0  0  0
M  END
>  <minimizedAffinity>
-5.90651035

$$$$
