
 OpenBabel03252507573D

 27 29  0  0  1  0  0  0  0  0999 V2000
   46.4610   32.1610   45.4210 C   0  0  1  0  0  0  0  0  0  0  0  0
   47.0490   32.0870   46.7940 C   0  0  0  0  0  0  0  0  0  0  0  0
   45.7540   31.4110   46.5040 C   0  0  2  0  0  0  0  0  0  0  0  0
   46.9420   31.6290   44.6020 H   0  0  0  0  0  0  0  0  0  0  0  0
   47.1000   33.0660   47.3190 H   0  0  0  0  0  0  0  0  0  0  0  0
   47.9750   31.4800   46.8730 H   0  0  0  0  0  0  0  0  0  0  0  0
   44.8890   31.9060   47.0300 H   0  0  0  0  0  0  0  0  0  0  0  0
   45.0060   34.7780   43.2960 C   0  0  0  0  0  0  0  0  0  0  0  0
   44.4510   35.6940   44.2270 C   0  0  0  0  0  0  0  0  0  0  0  0
   44.5910   35.3770   45.5880 C   0  0  0  0  0  0  0  0  0  0  0  0
   45.2420   34.2270   45.9290 N   0  0  0  0  0  0  0  0  0  0  0  0
   45.7470   33.3980   44.9730 C   0  0  0  0  0  0  0  0  0  0  0  0
   45.6460   33.6440   43.6720 N   0  0  0  0  0  0  0  0  0  0  0  0
   43.9490   36.5850   43.9180 H   0  0  0  0  0  0  0  0  0  0  0  0
   44.1950   36.0270   46.3350 H   0  0  0  0  0  0  0  0  0  0  0  0
   44.8390   35.1610   41.9250 C   0  0  0  0  0  0  0  0  0  0  0  0
   43.7810   35.6580   41.4280 O   0  0  0  0  0  0  0  0  0  0  0  0
   45.6410   35.0480   41.1800 H   0  0  0  0  0  0  0  0  0  0  0  0
   46.0680   29.3030   47.8620 C   0  0  2  0  0  3  0  0  0  0  0  0
   45.7310   29.9260   46.5420 C   0  0  1  0  0  3  0  0  0  0  0  0
   44.4720   29.3870   46.2950 O   0  0  0  0  0  0  0  0  0  0  0  0
   44.5700   28.0470   46.5860 C   0  0  0  0  0  2  0  0  0  0  0  0
   45.7120   27.8420   47.5540 C   0  0  2  0  0  3  0  0  0  0  0  0
   45.2210   29.7950   48.8260 O   0  0  0  0  0  0  0  0  0  0  0  0
   44.4480   29.1920   48.9750 H   0  0  0  0  0  0  0  0  0  0  0  0
   45.3290   27.2260   48.7300 O   0  0  0  0  0  0  0  0  0  0  0  0
   45.7100   26.3120   48.7060 H   0  0  0  0  0  0  0  0  0  0  0  0
  1  4  1  6  0  0  0
  1  3  1  0  0  0  0
  1  2  1  0  0  0  0
  2  6  1  0  0  0  0
  2  5  1  0  0  0  0
  3 20  1  0  0  0  0
  3  2  1  0  0  0  0
  3  7  1  1  0  0  0
  8 13  2  0  0  0  0
  8  9  1  0  0  0  0
  9 10  2  0  0  0  0
 10 11  1  0  0  0  0
 10 15  1  0  0  0  0
 12  1  1  0  0  0  0
 12 11  2  0  0  0  0
 13 12  1  0  0  0  0
 14  9  1  0  0  0  0
 16  8  1  0  0  0  0
 17 16  2  0  0  0  0
 18 16  1  0  0  0  0
 19 24  1  1  0  0  0
 20 21  1  1  0  0  0
 20 19  1  0  0  0  0
 21 22  1  0  0  0  0
 22 23  1  0  0  0  0
 23 19  1  0  0  0  0
 23 26  1  1  0  0  0
 24 25  1  0  0  0  0
 27 26  1  0  0  0  0
M  END
>  <minimizedAffinity>
-4.74162483

>  <minimizedRMSD>
2.46745324

$$$$
