
     RDKit          3D

 29 30  0  0  0  0  0  0  0  0999 V2000
   44.5882   35.9918   44.5102 C   0  0  0  0  0  0  0  0  0  0  0  0
   45.2230   36.0049   43.2569 C   0  0  0  0  0  0  0  0  0  0  0  0
   46.0924   34.9598   42.9748 C   0  0  0  0  0  0  0  0  0  0  0  0
   46.2964   33.9750   43.9064 N   0  0  0  0  0  0  0  0  0  0  0  0
   45.6662   33.9981   45.1016 C   0  0  0  0  0  0  0  0  0  0  0  0
   44.8200   35.0012   45.3952 N   0  0  0  0  0  0  0  0  0  0  0  0
   46.7202   34.9783   41.7280 O   0  0  0  0  0  0  0  0  0  0  0  0
   48.6474   33.3268   40.9733 O   0  0  0  0  0  0  0  0  0  0  0  0
   48.4095   34.6814   41.6331 P   0  0  0  0  0  0  0  0  0  0  0  0
   49.1189   35.9265   40.7772 O   0  0  0  0  0  0  0  0  0  0  0  0
   48.9927   34.5971   43.2244 O   0  0  0  0  0  0  0  0  0  0  0  0
   43.9073   36.8048   44.7385 H   0  0  0  0  0  0  0  0  0  0  0  0
   44.9963   36.8220   42.5960 H   0  0  0  0  0  0  0  0  0  0  0  0
   48.7636   35.9270   39.8728 H   0  0  0  0  0  0  0  0  0  0  0  0
   48.7139   33.7239   43.5984 H   0  0  0  0  0  0  0  0  0  0  0  0
   47.2738   34.4573   47.1664 O   0  0  0  0  0  0  0  0  0  0  0  0
   47.2882   33.1209   46.7570 C   0  0  2  0  0  0  0  0  0  0  0  0
   45.9468   32.8895   46.0510 C   0  0  1  0  0  0  0  0  0  0  0  0
   45.0192   32.8316   47.0804 O   0  0  0  0  0  0  0  0  0  0  0  0
   45.6363   32.3331   48.1946 C   0  0  0  0  0  0  0  0  0  0  0  0
   47.1095   32.2010   47.9443 C   0  0  2  0  0  0  0  0  0  0  0  0
   47.8761   32.6724   49.0060 O   0  0  0  0  0  0  0  0  0  0  0  0
   46.3410   34.8357   47.1939 H   0  0  0  0  0  0  0  0  0  0  0  0
   48.1411   32.8694   46.1261 H   0  0  0  0  0  0  0  0  0  0  0  0
   46.0210   31.9263   45.5472 H   0  0  0  0  0  0  0  0  0  0  0  0
   45.4973   33.0878   49.0124 H   0  0  0  0  0  0  0  0  0  0  0  0
   45.2387   31.3583   48.5377 H   0  0  0  0  0  0  0  0  0  0  0  0
   47.4229   31.1771   47.6291 H   0  0  0  0  0  0  0  0  0  0  0  0
   47.9760   33.6609   48.9776 H   0  0  0  0  0  0  0  0  0  0  0  0
  1  6  2  0
  2  1  1  0
  3  2  2  0
  3  4  1  0
  4  5  2  0
  5  6  1  0
  7  3  1  0
  8  9  2  0
  9  7  1  0
  9 11  1  0
 10  9  1  0
  1 12  1  0
  2 13  1  0
 10 14  1  0
 11 15  1  0
 16 17  1  0
 17 18  1  0
 18 19  1  0
 19 20  1  0
 20 21  1  0
 21 22  1  0
 21 17  1  0
 16 23  1  0
 17 24  1  6
 18 25  1  6
 20 26  1  0
 20 27  1  0
 21 28  1  6
 22 29  1  0
  5 18  1  0
M  ISO  4  12  14  13  14  14   3  15   3
M  END
>  <DihAtoms>  (1) 
3,4,17,16

>  <DihDeg>  (1) 
-161.03818320251906

$$$$
