
 OpenBabel03252505153D

 25 27  0  0  1  0  0  0  0  0999 V2000
   44.8880   35.5400   43.8860 C   0  0  0  0  0  0  0  0  0  0  0  0
   45.9030   35.3680   42.9320 C   0  0  0  0  0  0  0  0  0  0  0  0
   46.8580   34.4130   43.2650 C   0  0  0  0  0  0  0  0  0  0  0  0
   46.7630   33.7230   44.4520 N   0  0  0  0  0  0  0  0  0  0  0  0
   45.7570   33.9360   45.3310 C   0  0  0  0  0  0  0  0  0  0  0  0
   44.8270   34.8540   45.0250 N   0  0  0  0  0  0  0  0  0  0  0  0
   44.1320   36.2620   43.6770 H   0  0  0  0  0  0  0  0  0  0  0  0
   45.9850   35.9010   42.0070 H   0  0  0  0  0  0  0  0  0  0  0  0
   47.9990   34.1110   42.3320 C   0  0  0  0  0  0  0  0  0  0  0  0
   48.4300   35.3170   41.5300 C   0  0  0  0  0  0  0  0  0  0  0  0
   49.3080   34.6730   42.6370 C   0  0  0  0  0  0  0  0  0  0  0  0
   47.9380   33.1380   41.7860 H   0  0  0  0  0  0  0  0  0  0  0  0
   48.7170   35.0860   40.4900 H   0  0  0  0  0  0  0  0  0  0  0  0
   47.9650   36.2780   41.7540 H   0  0  0  0  0  0  0  0  0  0  0  0
   50.2360   34.1790   42.2450 H   0  0  0  0  0  0  0  0  0  0  0  0
   49.4520   35.3370   43.5060 H   0  0  0  0  0  0  0  0  0  0  0  0
   47.3200   32.6950   46.8010 C   0  0  2  0  0  3  0  0  0  0  0  0
   45.8750   33.0700   46.5330 C   0  0  2  0  0  3  0  0  0  0  0  0
   45.1660   31.8880   46.3510 O   0  0  0  0  0  0  0  0  0  0  0  0
   45.8610   30.8970   47.0400 C   0  0  0  0  0  2  0  0  0  0  0  0
   47.2830   31.1970   46.5540 C   0  0  1  0  0  3  0  0  0  0  0  0
   47.6610   32.8840   48.1370 O   0  0  0  0  0  0  0  0  0  0  0  0
   47.6940   33.8490   48.3810 H   0  0  0  0  0  0  0  0  0  0  0  0
   47.3250   31.0050   45.1770 O   0  0  0  0  0  0  0  0  0  0  0  0
   46.6610   30.2790   44.9630 H   0  0  0  0  0  0  0  0  0  0  0  0
  1  6  1  0  0  0  0
  2  3  1  0  0  0  0
  2  1  2  0  0  0  0
  3  4  2  0  0  0  0
  4  5  1  0  0  0  0
  6  5  2  0  0  0  0
  7  1  1  0  0  0  0
  8  2  1  0  0  0  0
  9 11  1  0  0  0  0
  9  3  1  0  0  0  0
 10 14  1  0  0  0  0
 10  9  1  0  0  0  0
 10 11  1  0  0  0  0
 11 16  1  0  0  0  0
 12  9  1  0  0  0  0
 13 10  1  0  0  0  0
 15 11  1  0  0  0  0
 17 22  1  1  0  0  0
 18  5  1  6  0  0  0
 18 17  1  0  0  0  0
 19 18  1  0  0  0  0
 19 20  1  0  0  0  0
 21 24  1  6  0  0  0
 21 17  1  0  0  0  0
 21 20  1  0  0  0  0
 22 23  1  0  0  0  0
 25 24  1  0  0  0  0
M  END
>  <minimizedAffinity>
-4.68367195

>  <minimizedRMSD>
1.16801989

$$$$
