
     RDKit          3D

 32 34  0  0  0  0  0  0  0  0999 V2000
   46.0712   34.7592   43.3891 C   0  0  0  0  0  0  0  0  0  0  0  0
   45.1721   35.7838   43.7812 C   0  0  0  0  0  0  0  0  0  0  0  0
   44.5714   35.6510   45.0443 C   0  0  0  0  0  0  0  0  0  0  0  0
   44.8833   34.5629   45.8062 N   0  0  0  0  0  0  0  0  0  0  0  0
   45.7584   33.6199   45.3567 C   0  0  0  0  0  0  0  0  0  0  0  0
   46.3569   33.6908   44.1730 N   0  0  0  0  0  0  0  0  0  0  0  0
   46.6580   34.9563   42.0955 C   0  0  0  0  0  0  0  0  0  0  0  0
   47.8265   35.4058   41.8849 O   0  0  0  0  0  0  0  0  0  0  0  0
   46.0641   32.4610   46.2522 C   0  0  1  0  0  0  0  0  0  0  0  0
   46.9959   32.6305   47.4101 C   0  0  0  0  0  0  0  0  0  0  0  0
   45.5251   32.6069   47.6388 C   0  0  2  0  0  0  0  0  0  0  0  0
   44.9549   36.6210   43.1536 H   0  0  0  0  0  0  0  0  0  0  0  0
   43.8864   36.3899   45.3938 H   0  0  0  0  0  0  0  0  0  0  0  0
   46.1213   34.7251   41.1636 H   0  0  0  0  0  0  0  0  0  0  0  0
   46.0164   31.5025   45.7372 H   0  0  0  0  0  0  0  0  0  0  0  0
   47.5770   33.5779   47.3886 H   0  0  0  0  0  0  0  0  0  0  0  0
   47.6012   31.7321   47.6571 H   0  0  0  0  0  0  0  0  0  0  0  0
   45.1301   33.6111   47.9640 H   0  0  0  0  0  0  0  0  0  0  0  0
   45.2304   29.9274   46.6272 O   0  0  0  0  0  0  0  0  0  0  0  0
   44.3254   30.3839   47.5553 C   0  0  2  0  0  0  0  0  0  0  0  0
   44.9653   31.4524   48.3876 C   0  0  1  0  0  0  0  0  0  0  0  0
   45.9281   30.7232   49.0794 O   0  0  0  0  0  0  0  0  0  0  0  0
   45.2981   29.5852   49.5216 C   0  0  0  0  0  0  0  0  0  0  0  0
   44.1042   29.3165   48.6350 C   0  0  2  0  0  0  0  0  0  0  0  0
   44.1369   28.0713   48.0354 O   0  0  0  0  0  0  0  0  0  0  0  0
   45.6958   29.1109   46.9430 H   0  0  0  0  0  0  0  0  0  0  0  0
   43.3656   30.6860   47.1063 H   0  0  0  0  0  0  0  0  0  0  0  0
   44.1933   31.8176   49.0911 H   0  0  0  0  0  0  0  0  0  0  0  0
   45.0600   29.6565   50.5928 H   0  0  0  0  0  0  0  0  0  0  0  0
   45.9830   28.7036   49.3771 H   0  0  0  0  0  0  0  0  0  0  0  0
   43.1951   29.5115   49.2137 H   0  0  0  0  0  0  0  0  0  0  0  0
   43.4334   27.5292   48.4724 H   0  0  0  0  0  0  0  0  0  0  0  0
  1  2  2  0
  1  6  1  0
  2  3  1  0
  3  4  2  0
  5  4  1  0
  5  9  1  0
  6  5  2  0
  7  1  1  0
  8  7  2  0
  9 10  1  0
  9 11  1  0
 10 11  1  0
  2 12  1  0
  3 13  1  0
  7 14  1  0
  9 15  1  6
 10 16  1  0
 10 17  1  0
 11 18  1  6
 19 20  1  0
 20 21  1  0
 21 22  1  0
 22 23  1  0
 23 24  1  0
 24 25  1  0
 24 20  1  0
 19 26  1  0
 20 27  1  6
 21 28  1  1
 23 29  1  0
 23 30  1  0
 24 31  1  1
 25 32  1  0
 11 21  1  0
M  ISO  7  12  14  13  14  14   6  15  13  16  13  17  13  18  13
M  END
>  <DihAtoms>  (1) 
8,10,20,19

>  <DihDeg>  (1) 
-60.26054325830561

$$$$
