
 OpenBabel03242510083D

 28 30  0  0  1  0  0  0  0  0999 V2000
   44.7870   32.7070   41.3580 Br  0  0  0  0  0  0  0  0  0  0  0  0
   46.3650   33.7320   40.9880 C   0  0  0  0  0  0  0  0  0  0  0  0
   46.8290   34.6460   41.9180 C   0  0  0  0  0  0  0  0  0  0  0  0
   47.9700   35.3940   41.6610 C   0  0  0  0  0  0  0  0  0  0  0  0
   48.6180   35.2020   40.4720 C   0  0  0  0  0  0  0  0  0  0  0  0
   48.1340   34.2890   39.5720 C   0  0  0  0  0  0  0  0  0  0  0  0
   47.0180   33.5390   39.7930 C   0  0  0  0  0  0  0  0  0  0  0  0
   48.3410   36.1050   42.3690 H   0  0  0  0  0  0  0  0  0  0  0  0
   49.5110   35.7730   40.2480 H   0  0  0  0  0  0  0  0  0  0  0  0
   48.6640   34.1560   38.6420 H   0  0  0  0  0  0  0  0  0  0  0  0
   45.6690   34.0430   45.3270 C   0  0  0  0  0  0  0  0  0  0  0  0
   44.7280   35.0790   45.5420 C   0  0  0  0  0  0  0  0  0  0  0  0
   44.5070   35.9780   44.4890 C   0  0  0  0  0  0  0  0  0  0  0  0
   45.2050   35.8010   43.3440 N   0  0  0  0  0  0  0  0  0  0  0  0
   46.0980   34.8060   43.1610 C   0  0  0  0  0  0  0  0  0  0  0  0
   46.3250   33.9250   44.1690 N   0  0  0  0  0  0  0  0  0  0  0  0
   45.7800   33.3950   46.1850 H   0  0  0  0  0  0  0  0  0  0  0  0
   44.1730   35.2200   46.4520 H   0  0  0  0  0  0  0  0  0  0  0  0
   43.8190   36.8050   44.5290 H   0  0  0  0  0  0  0  0  0  0  0  0
   45.7990   33.1730   37.6400 C   0  0  1  0  0  3  0  0  0  0  0  0
   46.4910   32.5630   38.8440 C   0  0  2  0  0  3  0  0  0  0  0  0
   45.4900   31.7340   39.3220 O   0  0  0  0  0  0  0  0  0  0  0  0
   45.2220   30.9590   38.1730 C   0  0  0  0  0  2  0  0  0  0  0  0
   45.2500   31.8970   37.0060 C   0  0  2  0  0  3  0  0  0  0  0  0
   44.6750   33.9110   38.0190 O   0  0  0  0  0  0  0  0  0  0  0  0
   43.9110   33.3240   38.2490 H   0  0  0  0  0  0  0  0  0  0  0  0
   46.1860   31.4880   36.0480 O   0  0  0  0  0  0  0  0  0  0  0  0
   46.9150   31.0080   36.4840 H   0  0  0  0  0  0  0  0  0  0  0  0
  2  1  1  0  0  0  0
  2  3  1  0  0  0  0
  3 15  1  0  0  0  0
  4  3  2  0  0  0  0
  4  8  1  0  0  0  0
  5  4  1  0  0  0  0
  6  7  1  0  0  0  0
  6  5  2  0  0  0  0
  7  2  2  0  0  0  0
  9  5  1  0  0  0  0
 10  6  1  0  0  0  0
 11 12  1  0  0  0  0
 11 17  1  0  0  0  0
 12 18  1  0  0  0  0
 13 19  1  0  0  0  0
 13 12  2  0  0  0  0
 14 13  1  0  0  0  0
 15 14  2  0  0  0  0
 15 16  1  0  0  0  0
 16 11  2  0  0  0  0
 20 25  1  1  0  0  0
 20 21  1  0  0  0  0
 21 22  1  0  0  0  0
 21  7  1  1  0  0  0
 23 22  1  0  0  0  0
 24 27  1  6  0  0  0
 24 20  1  0  0  0  0
 24 23  1  0  0  0  0
 25 26  1  0  0  0  0
 27 28  1  0  0  0  0
M  END
>  <minimizedAffinity>
-5.58807135

>  <minimizedRMSD>
0.474211812

$$$$
