REMARK  Name = 
REMARK  4 active torsions:
REMARK  status: ('A' for Active; 'I' for Inactive)
REMARK    1  A    between atoms: C_1  and  C_7
REMARK    2  A    between atoms: C_8  and  C_19
REMARK    3  A    between atoms: O_17  and  C_18
REMARK    4  A    between atoms: C_22  and  O_23
REMARK                            x       y       z     vdW  Elec       q    Type
REMARK                         _______ _______ _______ _____ _____    ______ ____
ROOT
ATOM      1  C   UNL     1      44.686  35.022  43.876  0.00  0.00    +0.000 C 
ATOM      2  C   UNL     1      44.783  36.459  44.343  0.00  0.00    +0.000 C 
ATOM      3  C   UNL     1      45.216  36.022  42.976  0.00  0.00    +0.000 C 
ATOM      4  H   UNL     1      43.632  34.613  43.739  0.00  0.00    +0.000 HD
ATOM      5  H   UNL     1      43.784  36.990  44.318  0.00  0.00    +0.000 HD
ATOM      6  H   UNL     1      44.585  36.278  42.087  0.00  0.00    +0.000 HD
ATOM      7  H   UNL     1      46.283  35.908  42.702  0.00  0.00    +0.000 HD
ENDROOT
BRANCH   1   8
ATOM      8  C   UNL     1      45.509  34.059  44.636  0.00  0.00    +0.000 A 
ATOM      9  C   UNL     1      46.474  33.333  43.908  0.00  0.00    +0.000 A 
ATOM     10  C   UNL     1      47.277  32.409  44.617  0.00  0.00    +0.000 A 
ATOM     11  N   UNL     1      47.051  32.290  45.977  0.00  0.00    +0.000 NA
ATOM     12  C   UNL     1      46.108  33.018  46.606  0.00  0.00    +0.000 A 
ATOM     13  N   UNL     1      45.348  33.890  45.947  0.00  0.00    +0.000 NA
ATOM     14  H   UNL     1      46.649  33.428  42.844  0.00  0.00    +0.000 HD
ATOM     15  H   UNL     1      48.040  31.811  44.138  0.00  0.00    +0.000 HD
ATOM     16  H   UNL     1      46.000  32.858  47.683  0.00  0.00    +0.000 HD
ENDBRANCH   1   8
BRANCH   2  18
ATOM     17  C   UNL     1      46.166  38.398  45.208  0.00  0.00    +0.000 C 
ATOM     18  C   UNL     1      45.786  36.960  45.303  0.00  0.00    +0.000 C 
ATOM     19  O   UNL     1      45.231  36.880  46.581  0.00  0.00    +0.000 OA
ATOM     20  C   UNL     1      44.298  37.943  46.561  0.00  0.00    +0.000 C 
ATOM     21  C   UNL     1      45.072  39.103  45.956  0.00  0.00    +0.000 C 
BRANCH  17  22
ATOM     22  O   UNL     1      47.356  38.574  45.929  0.00  0.00    +0.000 OA
ATOM     23  H   UNL     1      47.152  38.584  46.895  0.00  0.00    +0.000 HD
ENDBRANCH  17  22
BRANCH  21  24
ATOM     24  O   UNL     1      45.590  39.819  47.045  0.00  0.00    +0.000 OA
ATOM     25  H   UNL     1      44.855  40.370  47.400  0.00  0.00    +0.000 HD
ENDBRANCH  21  24
ENDBRANCH   2  18
TORSDOF 4
