REMARK  Name = 
REMARK  8 active torsions:
REMARK  status: ('A' for Active; 'I' for Inactive)
REMARK    1  A    between atoms: P_2  and  O_3
REMARK    2  A    between atoms: P_2  and  O_4
REMARK    3  A    between atoms: P_2  and  O_14
REMARK    4  A    between atoms: O_4  and  C_6
REMARK    5  A    between atoms: O_14  and  C_15
REMARK    6  A    between atoms: C_20  and  C_36
REMARK    7  A    between atoms: O_34  and  C_35
REMARK    8  A    between atoms: C_39  and  O_40
REMARK                            x       y       z     vdW  Elec       q    Type
REMARK                         _______ _______ _______ _____ _____    ______ ____
ROOT
ATOM      1  C   UNL     1      46.541  35.122  42.083  0.00  0.00    +0.000 C 
ATOM      2  C   UNL     1      45.499  35.601  43.020  0.00  0.00    +0.000 C 
ATOM      3  C   UNL     1      44.185  35.732  42.340  0.00  0.00    +0.000 C 
ATOM      4  O   UNL     1      43.657  34.529  41.895  0.00  0.00    +0.000 OA
ATOM      5  C   UNL     1      44.644  33.583  41.719  0.00  0.00    +0.000 C 
ATOM      6  C   UNL     1      45.868  34.226  41.073  0.00  0.00    +0.000 C 
ATOM      7  H   UNL     1      46.964  36.028  41.565  0.00  0.00    +0.000 HD
ATOM      8  H   UNL     1      45.353  34.914  43.890  0.00  0.00    +0.000 HD
ATOM      9  H   UNL     1      45.742  36.596  43.483  0.00  0.00    +0.000 HD
ATOM     10  H   UNL     1      44.053  36.584  41.666  0.00  0.00    +0.000 HD
ATOM     11  H   UNL     1      43.471  36.001  43.192  0.00  0.00    +0.000 HD
ATOM     12  H   UNL     1      44.983  33.167  42.713  0.00  0.00    +0.000 HD
ATOM     13  H   UNL     1      44.351  32.745  41.089  0.00  0.00    +0.000 HD
ATOM     14  H   UNL     1      46.543  33.299  41.108  0.00  0.00    +0.000 HD
ENDROOT
BRANCH   6  16
ATOM     15  C   UNL     1      46.812  34.927  38.748  0.00  0.00    +0.000 C 
ATOM     16  C   UNL     1      45.798  34.508  39.667  0.00  0.00    +0.000 C 
ATOM     17  O   UNL     1      45.080  33.531  38.918  0.00  0.00    +0.000 OA
ATOM     18  C   UNL     1      44.800  34.274  37.742  0.00  0.00    +0.000 C 
ATOM     19  C   UNL     1      46.230  34.596  37.365  0.00  0.00    +0.000 C 
BRANCH  15  20
ATOM     20  O   UNL     1      48.068  34.423  38.717  0.00  0.00    +0.000 OA
ATOM     21  H   UNL     1      48.169  33.469  38.578  0.00  0.00    +0.000 HD
ENDBRANCH  15  20
BRANCH  19  22
ATOM     22  O   UNL     1      46.798  33.424  36.936  0.00  0.00    +0.000 OA
ATOM     23  H   UNL     1      47.243  33.432  36.074  0.00  0.00    +0.000 HD
ENDBRANCH  19  22
ENDBRANCH   6  16
BRANCH   1  24
ATOM     24  O   UNL     1      47.620  34.558  42.654  0.00  0.00    +0.000 OA
BRANCH  24  26
ATOM     25  O   UNL     1      50.221  34.905  42.707  0.00  0.00    +0.000 OA
ATOM     26  P   UNL     1      49.056  34.618  41.840  0.00  0.00    +0.000 P 
BRANCH  26  27
ATOM     27  O   UNL     1      48.971  35.880  40.700  0.00  0.00    +0.000 OA
ATOM     28  H   UNL     1      49.610  35.672  39.972  0.00  0.00    +0.000 HD
ENDBRANCH  26  27
BRANCH  26  29
ATOM     29  O   UNL     1      49.311  33.158  40.957  0.00  0.00    +0.000 OA
BRANCH  29  31
ATOM     30  C   UNL     1      49.530  31.439  42.556  0.00  0.00    +0.000 A 
ATOM     31  C   UNL     1      50.053  32.119  41.482  0.00  0.00    +0.000 A 
ATOM     32  C   UNL     1      51.316  31.723  40.973  0.00  0.00    +0.000 A 
ATOM     33  N   UNL     1      51.930  30.685  41.590  0.00  0.00    +0.000 NA
ATOM     34  C   UNL     1      51.400  30.055  42.617  0.00  0.00    +0.000 A 
ATOM     35  N   UNL     1      50.190  30.444  43.094  0.00  0.00    +0.000 NA
ATOM     36  C   UNL     1      47.090  31.040  42.836  0.00  0.00    +0.000 C 
ATOM     37  O   UNL     1      46.924  30.692  41.622  0.00  0.00    +0.000 OA
ATOM     38  N   UNL     1      48.381  31.436  43.391  0.00  0.00    +0.000 N 
ATOM     39  H   UNL     1      51.661  32.301  40.134  0.00  0.00    +0.000 HD
ATOM     40  H   UNL     1      51.957  29.229  43.058  0.00  0.00    +0.000 HD
ATOM     41  H   UNL     1      46.187  31.010  43.399  0.00  0.00    +0.000 HD
ATOM     42  H   UNL     1      48.316  31.690  44.384  0.00  0.00    +0.000 HD
ENDBRANCH  29  31
ENDBRANCH  26  29
ENDBRANCH  24  26
ENDBRANCH   1  24
TORSDOF 8
