
     RDKit          3D

 24 25  0  0  0  0  0  0  0  0999 V2000
   45.0013   35.4855   44.1871 C   0  0  0  0  0  0  0  0  0  0  0  0
   45.9784   34.9304   43.3427 C   0  0  0  0  0  0  0  0  0  0  0  0
   46.7082   33.8403   43.8352 C   0  0  0  0  0  0  0  0  0  0  0  0
   46.4420   33.3750   45.0907 N   0  0  0  0  0  0  0  0  0  0  0  0
   45.4928   33.9440   45.8618 C   0  0  0  0  0  0  0  0  0  0  0  0
   44.7839   34.9812   45.4194 N   0  0  0  0  0  0  0  0  0  0  0  0
   44.2913   36.5466   43.7071 O   0  0  0  0  0  0  0  0  0  0  0  0
   46.2046   35.2799   42.3522 H   0  0  0  0  0  0  0  0  0  0  0  0
   45.3360   33.5179   46.8541 H   0  0  0  0  0  0  0  0  0  0  0  0
   44.7777   37.2351   43.1450 H   0  0  0  0  0  0  0  0  0  0  0  0
   49.1795   34.9563   42.3505 O   0  0  0  0  0  0  0  0  0  0  0  0
   49.1114   33.8168   43.1336 C   0  0  1  0  0  0  0  0  0  0  0  0
   47.7551   33.1423   43.1020 C   0  0  1  0  0  0  0  0  0  0  0  0
   48.0759   31.9165   43.6766 O   0  0  0  0  0  0  0  0  0  0  0  0
   49.2273   31.4758   43.0566 C   0  0  0  0  0  0  0  0  0  0  0  0
   49.9580   32.6860   42.5373 C   0  0  2  0  0  0  0  0  0  0  0  0
   51.2704   32.7559   42.9594 O   0  0  0  0  0  0  0  0  0  0  0  0
   49.7526   35.6748   42.7635 H   0  0  0  0  0  0  0  0  0  0  0  0
   49.3607   33.9627   44.1905 H   0  0  0  0  0  0  0  0  0  0  0  0
   47.5371   32.9467   42.0283 H   0  0  0  0  0  0  0  0  0  0  0  0
   49.8603   30.8369   43.7231 H   0  0  0  0  0  0  0  0  0  0  0  0
   48.8845   30.8178   42.2052 H   0  0  0  0  0  0  0  0  0  0  0  0
   49.8336   32.7157   41.4432 H   0  0  0  0  0  0  0  0  0  0  0  0
   51.8902   32.9773   42.2121 H   0  0  0  0  0  0  0  0  0  0  0  0
  1  6  2  0
  2  3  2  0
  2  1  1  0
  3  4  1  0
  4  5  2  0
  6  5  1  0
  7  1  1  0
  2  8  1  0
  5  9  1  0
  7 10  1  0
 11 12  1  0
 12 13  1  0
 13 14  1  0
 14 15  1  0
 15 16  1  0
 16 17  1  0
 16 12  1  0
 11 18  1  0
 12 19  1  1
 13 20  1  6
 15 21  1  0
 15 22  1  0
 16 23  1  6
 17 24  1  0
  3 13  1  0
M  ISO  3   8  14   9  14  10   3
M  END
>  <DihAtoms>  (1) 
1,2,12,11

>  <DihDeg>  (1) 
21.352162942984876

$$$$
