
     RDKit          3D

 24 25  0  0  0  0  0  0  0  0999 V2000
   45.0013   35.4855   44.1871 C   0  0  0  0  0  0  0  0  0  0  0  0
   45.9784   34.9304   43.3427 C   0  0  0  0  0  0  0  0  0  0  0  0
   46.7082   33.8403   43.8352 C   0  0  0  0  0  0  0  0  0  0  0  0
   46.4420   33.3750   45.0907 N   0  0  0  0  0  0  0  0  0  0  0  0
   45.4928   33.9440   45.8618 C   0  0  0  0  0  0  0  0  0  0  0  0
   44.7839   34.9812   45.4194 N   0  0  0  0  0  0  0  0  0  0  0  0
   44.2913   36.5466   43.7071 O   0  0  0  0  0  0  0  0  0  0  0  0
   46.2046   35.2799   42.3522 H   0  0  0  0  0  0  0  0  0  0  0  0
   45.3360   33.5179   46.8541 H   0  0  0  0  0  0  0  0  0  0  0  0
   44.7777   37.2351   43.1450 H   0  0  0  0  0  0  0  0  0  0  0  0
   49.0988   32.1804   44.8778 O   0  0  0  0  0  0  0  0  0  0  0  0
   48.2928   31.9026   43.7871 C   0  0  1  0  0  0  0  0  0  0  0  0
   47.7551   33.1423   43.1020 C   0  0  1  0  0  0  0  0  0  0  0  0
   47.2885   32.5854   41.9155 O   0  0  0  0  0  0  0  0  0  0  0  0
   48.2859   31.7549   41.4467 C   0  0  0  0  0  0  0  0  0  0  0  0
   49.1128   31.3222   42.6287 C   0  0  2  0  0  0  0  0  0  0  0  0
   49.2428   29.9520   42.7336 O   0  0  0  0  0  0  0  0  0  0  0  0
   48.9817   31.5136   45.6241 H   0  0  0  0  0  0  0  0  0  0  0  0
   47.4273   31.2648   43.9983 H   0  0  0  0  0  0  0  0  0  0  0  0
   48.6457   33.7563   42.8404 H   0  0  0  0  0  0  0  0  0  0  0  0
   47.8880   30.8927   40.8538 H   0  0  0  0  0  0  0  0  0  0  0  0
   48.8991   32.3829   40.7360 H   0  0  0  0  0  0  0  0  0  0  0  0
   50.0706   31.8649   42.5915 H   0  0  0  0  0  0  0  0  0  0  0  0
   50.1837   29.6804   42.9141 H   0  0  0  0  0  0  0  0  0  0  0  0
  1  6  2  0
  2  3  2  0
  2  1  1  0
  3  4  1  0
  4  5  2  0
  6  5  1  0
  7  1  1  0
  2  8  1  0
  5  9  1  0
  7 10  1  0
 11 12  1  0
 12 13  1  0
 13 14  1  0
 14 15  1  0
 15 16  1  0
 16 17  1  0
 16 12  1  0
 11 18  1  0
 12 19  1  1
 13 20  1  6
 15 21  1  0
 15 22  1  0
 16 23  1  6
 17 24  1  0
  3 13  1  0
M  ISO  3   8  14   9  14  10   3
M  END
>  <DihAtoms>  (1) 
1,2,12,11

>  <DihDeg>  (1) 
21.352162942984876

$$$$
