
     RDKit          3D

 24 25  0  0  0  0  0  0  0  0999 V2000
   45.0013   35.4855   44.1871 C   0  0  0  0  0  0  0  0  0  0  0  0
   45.9784   34.9304   43.3427 C   0  0  0  0  0  0  0  0  0  0  0  0
   46.7082   33.8403   43.8352 C   0  0  0  0  0  0  0  0  0  0  0  0
   46.4420   33.3750   45.0907 N   0  0  0  0  0  0  0  0  0  0  0  0
   45.4928   33.9440   45.8618 C   0  0  0  0  0  0  0  0  0  0  0  0
   44.7839   34.9812   45.4194 N   0  0  0  0  0  0  0  0  0  0  0  0
   44.2913   36.5466   43.7071 O   0  0  0  0  0  0  0  0  0  0  0  0
   46.2046   35.2799   42.3522 H   0  0  0  0  0  0  0  0  0  0  0  0
   45.3360   33.5179   46.8541 H   0  0  0  0  0  0  0  0  0  0  0  0
   44.7777   37.2351   43.1450 H   0  0  0  0  0  0  0  0  0  0  0  0
   48.3024   31.2985   44.5802 O   0  0  0  0  0  0  0  0  0  0  0  0
   47.8058   31.6462   43.3357 C   0  0  1  0  0  0  0  0  0  0  0  0
   47.7551   33.1423   43.1020 C   0  0  1  0  0  0  0  0  0  0  0  0
   47.5462   33.1700   41.7268 O   0  0  0  0  0  0  0  0  0  0  0  0
   48.4433   32.2814   41.1702 C   0  0  0  0  0  0  0  0  0  0  0  0
   48.7871   31.2604   42.2225 C   0  0  2  0  0  0  0  0  0  0  0  0
   48.5968   29.9585   41.8050 O   0  0  0  0  0  0  0  0  0  0  0  0
   47.8407   30.4913   44.9682 H   0  0  0  0  0  0  0  0  0  0  0  0
   46.8043   31.2630   43.1105 H   0  0  0  0  0  0  0  0  0  0  0  0
   48.7897   33.5132   43.2774 H   0  0  0  0  0  0  0  0  0  0  0  0
   48.0648   31.8207   40.2227 H   0  0  0  0  0  0  0  0  0  0  0  0
   49.3506   32.8944   40.8938 H   0  0  0  0  0  0  0  0  0  0  0  0
   49.8052   31.4740   42.5847 H   0  0  0  0  0  0  0  0  0  0  0  0
   49.3689   29.3757   42.0409 H   0  0  0  0  0  0  0  0  0  0  0  0
  1  6  2  0
  2  3  2  0
  2  1  1  0
  3  4  1  0
  4  5  2  0
  6  5  1  0
  7  1  1  0
  2  8  1  0
  5  9  1  0
  7 10  1  0
 11 12  1  0
 12 13  1  0
 13 14  1  0
 14 15  1  0
 15 16  1  0
 16 17  1  0
 16 12  1  0
 11 18  1  0
 12 19  1  6
 13 20  1  6
 15 21  1  0
 15 22  1  0
 16 23  1  1
 17 24  1  0
  3 13  1  0
M  ISO  3   8  14   9  14  10   3
M  END
>  <DihAtoms>  (1) 
1,2,12,11

>  <DihDeg>  (1) 
21.352162942984876

$$$$
