
 OpenBabel03252506413D

 40 43  0  0  1  0  0  0  0  0999 V2000
   49.3650   33.3210   41.3280 N   0  0  1  0  0  0  0  0  0  0  0  0
   50.6390   33.0480   41.9600 C   0  0  0  0  0  0  0  0  0  0  0  0
   51.2370   31.7280   41.6560 C   0  0  0  0  0  0  0  0  0  0  0  0
   50.3420   30.6170   42.1190 C   0  0  0  0  0  0  0  0  0  0  0  0
   48.9110   31.0150   42.1080 C   0  0  0  0  0  0  0  0  0  0  0  0
   48.6950   32.0880   41.0520 C   0  0  2  0  0  0  0  0  0  0  0  0
   50.4990   33.0870   43.0730 H   0  0  0  0  0  0  0  0  0  0  0  0
   51.3820   33.8680   41.7630 H   0  0  0  0  0  0  0  0  0  0  0  0
   52.1440   31.6590   42.3430 H   0  0  0  0  0  0  0  0  0  0  0  0
   51.6840   31.5990   40.6600 H   0  0  0  0  0  0  0  0  0  0  0  0
   50.4420   29.7250   41.4500 H   0  0  0  0  0  0  0  0  0  0  0  0
   50.6300   30.2270   43.1270 H   0  0  0  0  0  0  0  0  0  0  0  0
   48.6370   31.4960   43.0700 H   0  0  0  0  0  0  0  0  0  0  0  0
   48.2240   30.1880   41.8420 H   0  0  0  0  0  0  0  0  0  0  0  0
   47.6110   32.3450   41.2200 H   0  0  0  0  0  0  0  0  0  0  0  0
   47.2560   34.6800   41.9480 C   0  0  1  0  0  0  0  0  0  0  0  0
   48.4060   35.5710   41.7370 C   0  0  0  0  0  0  0  0  0  0  0  0
   48.6430   34.1830   42.2090 C   0  0  2  0  0  0  0  0  0  0  0  0
   46.7380   34.2260   41.0850 H   0  0  0  0  0  0  0  0  0  0  0  0
   48.5450   36.4230   42.4360 H   0  0  0  0  0  0  0  0  0  0  0  0
   48.6770   35.8370   40.6860 H   0  0  0  0  0  0  0  0  0  0  0  0
   48.9330   34.0950   43.2930 H   0  0  0  0  0  0  0  0  0  0  0  0
   45.5300   36.0550   43.1360 C   0  0  0  0  0  0  0  0  0  0  0  0
   46.3390   34.8910   43.1020 C   0  0  0  0  0  0  0  0  0  0  0  0
   46.2420   33.9830   44.1390 C   0  0  0  0  0  0  0  0  0  0  0  0
   45.3740   34.2470   45.1450 N   0  0  0  0  0  0  0  0  0  0  0  0
   44.6040   35.3650   45.1660 C   0  0  0  0  0  0  0  0  0  0  0  0
   44.6740   36.2730   44.1690 N   0  0  0  0  0  0  0  0  0  0  0  0
   45.6520   36.7310   42.2930 H   0  0  0  0  0  0  0  0  0  0  0  0
   46.8530   33.0920   44.1250 H   0  0  0  0  0  0  0  0  0  0  0  0
   43.9130   35.5690   45.9760 H   0  0  0  0  0  0  0  0  0  0  0  0
   48.8440   32.6330   38.6040 C   0  0  2  0  0  3  0  0  0  0  0  0
   48.7670   31.5660   39.6690 C   0  0  2  0  0  3  0  0  0  0  0  0
   47.6390   30.7930   39.3380 O   0  0  0  0  0  0  0  0  0  0  0  0
   47.7830   30.6580   37.9370 C   0  0  0  0  0  2  0  0  0  0  0  0
   47.8940   32.1080   37.5230 C   0  0  2  0  0  3  0  0  0  0  0  0
   50.1320   32.7740   38.0960 O   0  0  0  0  0  0  0  0  0  0  0  0
   50.3600   33.7310   38.1380 H   0  0  0  0  0  0  0  0  0  0  0  0
   48.4980   32.2490   36.2780 O   0  0  0  0  0  0  0  0  0  0  0  0
   49.4890   32.1070   36.4050 H   0  0  0  0  0  0  0  0  0  0  0  0
  1  2  1  1  0  0  0
  1 18  1  0  0  0  0
  2  7  1  0  0  0  0
  3  2  1  0  0  0  0
  3  4  1  0  0  0  0
  3  9  1  0  0  0  0
  4 12  1  0  0  0  0
  5  4  1  0  0  0  0
  5 13  1  0  0  0  0
  6 15  1  1  0  0  0
  6  1  1  0  0  0  0
  6  5  1  0  0  0  0
  8  2  1  0  0  0  0
 10  3  1  0  0  0  0
 11  4  1  0  0  0  0
 14  5  1  0  0  0  0
 16 19  1  6  0  0  0
 16 18  1  0  0  0  0
 16 24  1  0  0  0  0
 17 16  1  0  0  0  0
 17 18  1  0  0  0  0
 17 20  1  0  0  0  0
 18 22  1  1  0  0  0
 21 17  1  0  0  0  0
 23 28  1  0  0  0  0
 24 23  2  0  0  0  0
 24 25  1  0  0  0  0
 25 26  2  0  0  0  0
 26 27  1  0  0  0  0
 27 31  1  0  0  0  0
 28 27  2  0  0  0  0
 29 23  1  0  0  0  0
 30 25  1  0  0  0  0
 32 37  1  6  0  0  0
 32 33  1  0  0  0  0
 33 34  1  6  0  0  0
 33  6  1  0  0  0  0
 35 34  1  0  0  0  0
 36 39  1  6  0  0  0
 36 35  1  0  0  0  0
 36 32  1  0  0  0  0
 37 38  1  0  0  0  0
 39 40  1  0  0  0  0
M  END
>  <minimizedAffinity>
-5.30369091

>  <minimizedRMSD>
0.63805002

$$$$
