
 OpenBabel03252507073D

 24 25  0  0  1  0  0  0  0  0999 V2000
   44.7040   36.2680   44.4140 C   0  0  0  0  0  0  0  0  0  0  0  0
   45.3670   36.1930   43.1780 C   0  0  0  0  0  0  0  0  0  0  0  0
   45.9860   34.9910   42.8620 C   0  0  0  0  0  0  0  0  0  0  0  0
   45.9310   33.9450   43.7450 N   0  0  0  0  0  0  0  0  0  0  0  0
   45.2830   34.0570   44.9260 C   0  0  0  0  0  0  0  0  0  0  0  0
   44.6760   35.2110   45.2520 N   0  0  0  0  0  0  0  0  0  0  0  0
   44.2170   37.2030   44.6690 H   0  0  0  0  0  0  0  0  0  0  0  0
   45.3520   37.0690   42.5550 H   0  0  0  0  0  0  0  0  0  0  0  0
   46.5520   32.0450   45.6250 C   0  0  2  0  0  3  0  0  0  0  0  0
   45.2750   32.8710   45.8230 C   0  0  1  0  0  3  0  0  0  0  0  0
   45.2970   33.2270   47.1630 O   0  0  0  0  0  0  0  0  0  0  0  0
   45.9450   32.2460   47.8630 C   0  0  0  0  0  2  0  0  0  0  0  0
   46.5380   31.2500   46.9120 C   0  0  2  0  0  3  0  0  0  0  0  0
   47.6020   32.9670   45.6300 O   0  0  0  0  0  0  0  0  0  0  0  0
   47.3380   33.8420   46.0520 H   0  0  0  0  0  0  0  0  0  0  0  0
   47.8440   30.9030   47.2470 O   0  0  0  0  0  0  0  0  0  0  0  0
   48.4980   31.5770   46.9230 H   0  0  0  0  0  0  0  0  0  0  0  0
   46.6430   34.9220   41.6310 O   0  0  0  0  0  0  0  0  0  0  0  0
   48.5890   33.2890   40.8880 O   0  0  0  0  0  0  0  0  0  0  0  0
   48.3330   34.6150   41.5970 P   0  0  0  0  0  0  0  0  0  0  0  0
   49.0880   35.8900   40.8290 O   0  0  0  0  0  0  0  0  0  0  0  0
   48.7730   35.9340   39.9110 H   0  0  0  0  0  0  0  0  0  0  0  0
   48.8460   34.4550   43.2060 O   0  0  0  0  0  0  0  0  0  0  0  0
   48.5440   33.5690   43.5280 H   0  0  0  0  0  0  0  0  0  0  0  0
  1  7  1  0  0  0  0
  1  6  1  0  0  0  0
  2  1  2  0  0  0  0
  3  2  1  0  0  0  0
  3  4  2  0  0  0  0
  4  5  1  0  0  0  0
  5  6  2  0  0  0  0
  8  2  1  0  0  0  0
  9 14  1  1  0  0  0
  9 10  1  0  0  0  0
  9 13  1  0  0  0  0
 10  5  1  6  0  0  0
 10 11  1  0  0  0  0
 11 12  1  0  0  0  0
 13 16  1  1  0  0  0
 13 12  1  0  0  0  0
 14 15  1  0  0  0  0
 17 16  1  0  0  0  0
 18  3  1  0  0  0  0
 19 20  2  0  0  0  0
 20 18  1  0  0  0  0
 20 23  1  0  0  0  0
 21 20  1  0  0  0  0
 22 21  1  0  0  0  0
 23 24  1  0  0  0  0
M  END
>  <minimizedAffinity>
-4.96190596

>  <minimizedRMSD>
0.637427509

$$$$
