
 OpenBabel03252505153D

 25 27  0  0  1  0  0  0  0  0999 V2000
   44.7840   35.3590   44.6530 C   0  0  0  0  0  0  0  0  0  0  0  0
   45.3710   35.5340   43.3910 C   0  0  0  0  0  0  0  0  0  0  0  0
   46.4160   34.6590   43.1100 C   0  0  0  0  0  0  0  0  0  0  0  0
   46.7990   33.7170   44.0370 N   0  0  0  0  0  0  0  0  0  0  0  0
   46.1910   33.5990   45.2390 C   0  0  0  0  0  0  0  0  0  0  0  0
   45.1810   34.4360   45.5260 N   0  0  0  0  0  0  0  0  0  0  0  0
   43.9790   36.0060   44.9170 H   0  0  0  0  0  0  0  0  0  0  0  0
   45.0790   36.2640   42.6640 H   0  0  0  0  0  0  0  0  0  0  0  0
   47.1320   34.7190   41.7880 C   0  0  0  0  0  0  0  0  0  0  0  0
   48.4120   35.5190   41.8540 C   0  0  0  0  0  0  0  0  0  0  0  0
   48.3800   33.9810   41.6450 C   0  0  0  0  0  0  0  0  0  0  0  0
   46.4860   34.8750   40.8900 H   0  0  0  0  0  0  0  0  0  0  0  0
   48.6100   36.1260   40.9550 H   0  0  0  0  0  0  0  0  0  0  0  0
   48.7390   35.8860   42.8290 H   0  0  0  0  0  0  0  0  0  0  0  0
   48.7280   33.6590   40.6280 H   0  0  0  0  0  0  0  0  0  0  0  0
   48.8130   33.4270   42.4950 H   0  0  0  0  0  0  0  0  0  0  0  0
   45.8030   31.3700   46.2490 C   0  0  2  0  0  0  0  0  0  0  0  0
   46.7840   32.5110   46.0600 C   0  0  2  0  0  0  0  0  0  0  0  0
   47.1160   32.9850   47.3240 O   0  0  0  0  0  0  0  0  0  0  0  0
   46.9290   31.9260   48.2080 C   0  0  0  0  0  0  0  0  0  0  0  0
   45.5500   31.4460   47.7430 C   0  0  1  0  0  0  0  0  0  0  0  0
   46.3940   30.1360   45.9920 O   0  0  0  0  0  0  0  0  0  0  0  0
   46.6040   30.0150   45.0270 H   0  0  0  0  0  0  0  0  0  0  0  0
   44.6350   32.4730   47.9560 O   0  0  0  0  0  0  0  0  0  0  0  0
   44.9540   32.9860   48.7620 H   0  0  0  0  0  0  0  0  0  0  0  0
  1  7  1  0  0  0  0
  1  6  1  0  0  0  0
  2  1  2  0  0  0  0
  3  2  1  0  0  0  0
  3  4  2  0  0  0  0
  4  5  1  0  0  0  0
  5  6  2  0  0  0  0
  8  2  1  0  0  0  0
  9 10  1  0  0  0  0
  9  3  1  0  0  0  0
 10 14  1  0  0  0  0
 11  9  1  0  0  0  0
 11 10  1  0  0  0  0
 11 16  1  0  0  0  0
 12  9  1  0  0  0  0
 13 10  1  0  0  0  0
 15 11  1  0  0  0  0
 17 22  1  1  0  0  0
 17 21  1  0  0  0  0
 18  5  1  6  0  0  0
 18 17  1  0  0  0  0
 18 19  1  0  0  0  0
 19 20  1  0  0  0  0
 21 24  1  6  0  0  0
 21 20  1  0  0  0  0
 23 22  1  0  0  0  0
 24 25  1  0  0  0  0
M  END
>  <minimizedAffinity>
-5.36680698

>  <minimizedRMSD>
0.85243696

$$$$
