
 OpenBabel03252503383D

 41 44  0  0  1  0  0  0  0  0999 V2000
   43.7150   32.3860   40.4280 C   0  0  1  0  0  0  0  0  0  0  0  0
   44.6160   31.4750   39.4900 C   0  0  0  0  0  0  0  0  0  0  0  0
   43.7740   30.9940   38.3390 C   0  0  0  0  0  0  0  0  0  0  0  0
   42.7330   29.9960   38.7890 C   0  0  0  0  0  0  0  0  0  0  0  0
   42.2860   30.3460   40.1760 C   0  0  0  0  0  0  0  0  0  0  0  0
   42.3540   31.8150   40.4650 C   0  0  2  0  0  0  0  0  0  0  0  0
   43.8510   33.3600   39.9160 H   0  0  0  0  0  0  0  0  0  0  0  0
   45.4960   32.0220   39.1730 H   0  0  0  0  0  0  0  0  0  0  0  0
   44.8300   30.5980   40.1350 H   0  0  0  0  0  0  0  0  0  0  0  0
   44.4730   30.4250   37.6890 H   0  0  0  0  0  0  0  0  0  0  0  0
   43.3870   31.8040   37.7010 H   0  0  0  0  0  0  0  0  0  0  0  0
   43.1270   28.9580   38.8080 H   0  0  0  0  0  0  0  0  0  0  0  0
   41.9260   30.0130   38.0380 H   0  0  0  0  0  0  0  0  0  0  0  0
   41.2630   29.9850   40.4230 H   0  0  0  0  0  0  0  0  0  0  0  0
   42.9560   29.8540   40.9260 H   0  0  0  0  0  0  0  0  0  0  0  0
   42.0540   31.8680   41.5570 H   0  0  0  0  0  0  0  0  0  0  0  0
   44.4270   32.3920   41.7440 C   0  0  0  0  0  0  0  0  0  0  0  0
   44.9200   33.4660   42.4410 C   0  0  0  0  0  0  0  0  0  0  0  0
   45.4950   33.1690   43.6800 C   0  0  0  0  0  0  0  0  0  0  0  0
   45.5380   31.8740   44.1270 N   0  0  0  0  0  0  0  0  0  0  0  0
   45.0360   30.8680   43.4010 C   0  0  0  0  0  0  0  0  0  0  0  0
   44.4780   31.1510   42.1970 N   0  0  0  0  0  0  0  0  0  0  0  0
   45.8880   34.0110   44.2350 H   0  0  0  0  0  0  0  0  0  0  0  0
   45.1320   29.8950   43.8680 H   0  0  0  0  0  0  0  0  0  0  0  0
   44.9620   34.8700   41.9230 C   0  0  0  0  0  0  0  0  0  0  0  0
   43.7040   35.6380   42.1360 C   0  0  0  0  0  0  0  0  0  0  0  0
   44.9480   35.9980   42.9300 C   0  0  0  0  0  0  0  0  0  0  0  0
   45.1550   34.9190   40.8470 H   0  0  0  0  0  0  0  0  0  0  0  0
   43.4390   36.4200   41.4120 H   0  0  0  0  0  0  0  0  0  0  0  0
   42.8710   35.1250   42.6080 H   0  0  0  0  0  0  0  0  0  0  0  0
   44.8910   35.6670   43.9930 H   0  0  0  0  0  0  0  0  0  0  0  0
   45.5000   36.9310   42.6970 H   0  0  0  0  0  0  0  0  0  0  0  0
   39.9440   32.1140   39.7520 C   0  0  1  0  0  0  0  0  0  0  0  0
   41.3250   32.6480   39.7650 C   0  0  1  0  0  0  0  0  0  0  0  0
   41.1460   33.8170   40.5440 O   0  0  0  0  0  0  0  0  0  0  0  0
   40.3180   33.4890   41.5920 C   0  0  0  0  0  0  0  0  0  0  0  0
   39.3450   32.4410   41.0900 C   0  0  1  0  0  0  0  0  0  0  0  0
   39.2320   32.8500   38.7780 O   0  0  0  0  0  0  0  0  0  0  0  0
   39.7490   32.9340   37.9380 H   0  0  0  0  0  0  0  0  0  0  0  0
   38.0810   33.0210   40.9590 O   0  0  0  0  0  0  0  0  0  0  0  0
   38.1900   33.7840   40.3360 H   0  0  0  0  0  0  0  0  0  0  0  0
  1  7  1  6  0  0  0
  1  6  1  0  0  0  0
  1 17  1  0  0  0  0
  2  9  1  0  0  0  0
  2  1  1  0  0  0  0
  3  4  1  0  0  0  0
  3  2  1  0  0  0  0
  4 12  1  0  0  0  0
  4  5  1  0  0  0  0
  5 14  1  0  0  0  0
  5  6  1  0  0  0  0
  5 15  1  0  0  0  0
  6 16  1  1  0  0  0
  8  2  1  0  0  0  0
 10  3  1  0  0  0  0
 11  3  1  0  0  0  0
 13  4  1  0  0  0  0
 17 22  2  0  0  0  0
 17 18  1  0  0  0  0
 18 19  2  0  0  0  0
 19 20  1  0  0  0  0
 19 23  1  0  0  0  0
 21 24  1  0  0  0  0
 21 20  2  0  0  0  0
 22 21  1  0  0  0  0
 25 26  1  0  0  0  0
 25 18  1  0  0  0  0
 25 27  1  0  0  0  0
 26 30  1  0  0  0  0
 26 27  1  0  0  0  0
 27 31  1  0  0  0  0
 28 25  1  0  0  0  0
 29 26  1  0  0  0  0
 32 27  1  0  0  0  0
 33 38  1  6  0  0  0
 33 34  1  0  0  0  0
 33 37  1  0  0  0  0
 34  6  1  0  0  0  0
 34 35  1  1  0  0  0
 35 36  1  0  0  0  0
 37 40  1  6  0  0  0
 37 36  1  0  0  0  0
 39 38  1  0  0  0  0
 41 40  1  0  0  0  0
M  END
>  <minimizedAffinity>
-4.26857185

>  <minimizedRMSD>
4.47650242

$$$$
