
 OpenBabel03252506443D

 40 43  0  0  1  0  0  0  0  0999 V2000
   38.2540   26.6380   42.1320 N   0  0  1  0  0  0  0  0  0  0  0  0
   37.1160   25.7610   42.3080 C   0  0  0  0  0  0  0  0  0  0  0  0
   37.2630   24.3970   41.7500 C   0  0  0  0  0  0  0  0  0  0  0  0
   37.4720   24.4480   40.2660 C   0  0  0  0  0  0  0  0  0  0  0  0
   38.1410   25.7050   39.8420 C   0  0  0  0  0  0  0  0  0  0  0  0
   38.9990   26.2280   40.9820 C   0  0  2  0  0  0  0  0  0  0  0  0
   36.2300   26.2230   41.7970 H   0  0  0  0  0  0  0  0  0  0  0  0
   36.7970   25.7100   43.3850 H   0  0  0  0  0  0  0  0  0  0  0  0
   36.2320   23.9260   41.8700 H   0  0  0  0  0  0  0  0  0  0  0  0
   37.9080   23.6980   42.3010 H   0  0  0  0  0  0  0  0  0  0  0  0
   38.1180   23.5990   39.9290 H   0  0  0  0  0  0  0  0  0  0  0  0
   36.5210   24.3010   39.6950 H   0  0  0  0  0  0  0  0  0  0  0  0
   37.3890   26.5000   39.6580 H   0  0  0  0  0  0  0  0  0  0  0  0
   38.8280   25.5720   38.9830 H   0  0  0  0  0  0  0  0  0  0  0  0
   39.3620   27.2040   40.5530 H   0  0  0  0  0  0  0  0  0  0  0  0
   38.4910   29.1890   42.4750 C   0  0  1  0  0  0  0  0  0  0  0  0
   37.4180   28.6470   43.3210 C   0  0  0  0  0  0  0  0  0  0  0  0
   37.7420   27.9680   42.0410 C   0  0  2  0  0  0  0  0  0  0  0  0
   39.5490   29.0300   42.7480 H   0  0  0  0  0  0  0  0  0  0  0  0
   36.4780   29.2300   43.4140 H   0  0  0  0  0  0  0  0  0  0  0  0
   37.7060   28.1540   44.2810 H   0  0  0  0  0  0  0  0  0  0  0  0
   36.9900   28.1240   41.2180 H   0  0  0  0  0  0  0  0  0  0  0  0
   39.3720   31.3680   41.6090 C   0  0  0  0  0  0  0  0  0  0  0  0
   38.2910   30.4590   41.7250 C   0  0  0  0  0  0  0  0  0  0  0  0
   37.0870   30.7770   41.1250 C   0  0  0  0  0  0  0  0  0  0  0  0
   36.9940   31.9490   40.4520 N   0  0  0  0  0  0  0  0  0  0  0  0
   38.0380   32.8120   40.3470 C   0  0  0  0  0  0  0  0  0  0  0  0
   39.2280   32.5320   40.9210 N   0  0  0  0  0  0  0  0  0  0  0  0
   40.2920   31.0630   42.1010 H   0  0  0  0  0  0  0  0  0  0  0  0
   36.2550   30.0930   41.2070 H   0  0  0  0  0  0  0  0  0  0  0  0
   37.9550   33.7470   39.8080 H   0  0  0  0  0  0  0  0  0  0  0  0
   40.6950   25.4040   42.6430 C   0  0  2  0  0  3  0  0  0  0  0  0
   40.2190   25.4200   41.2100 C   0  0  2  0  0  3  0  0  0  0  0  0
   41.3110   25.8940   40.4620 O   0  0  0  0  0  0  0  0  0  0  0  0
   42.3900   25.1850   41.0440 C   0  0  0  0  0  2  0  0  0  0  0  0
   42.2140   25.5510   42.5010 C   0  0  2  0  0  3  0  0  0  0  0  0
   40.3780   24.2120   43.2870 O   0  0  0  0  0  0  0  0  0  0  0  0
   39.9310   24.4460   44.1320 H   0  0  0  0  0  0  0  0  0  0  0  0
   42.8400   24.6400   43.3450 O   0  0  0  0  0  0  0  0  0  0  0  0
   42.2620   23.8140   43.3810 H   0  0  0  0  0  0  0  0  0  0  0  0
  1  2  1  6  0  0  0
  2  8  1  0  0  0  0
  3  9  1  0  0  0  0
  3 10  1  0  0  0  0
  3  2  1  0  0  0  0
  4  3  1  0  0  0  0
  5  4  1  0  0  0  0
  5  6  1  0  0  0  0
  6 15  1  6  0  0  0
  6 33  1  0  0  0  0
  6  1  1  0  0  0  0
  7  2  1  0  0  0  0
 11  4  1  0  0  0  0
 12  4  1  0  0  0  0
 13  5  1  0  0  0  0
 14  5  1  0  0  0  0
 16 19  1  1  0  0  0
 16 17  1  0  0  0  0
 17 20  1  0  0  0  0
 17 21  1  0  0  0  0
 18 22  1  6  0  0  0
 18  1  1  0  0  0  0
 18 16  1  0  0  0  0
 18 17  1  0  0  0  0
 23 24  1  0  0  0  0
 23 29  1  0  0  0  0
 24 16  1  0  0  0  0
 25 30  1  0  0  0  0
 25 24  2  0  0  0  0
 26 25  1  0  0  0  0
 27 26  2  0  0  0  0
 27 28  1  0  0  0  0
 28 23  2  0  0  0  0
 31 27  1  0  0  0  0
 32 37  1  6  0  0  0
 33 34  1  6  0  0  0
 33 32  1  0  0  0  0
 34 35  1  0  0  0  0
 35 36  1  0  0  0  0
 36 32  1  0  0  0  0
 36 39  1  1  0  0  0
 37 38  1  0  0  0  0
 39 40  1  0  0  0  0
M  END
>  <minimizedAffinity>
-5.71485329

$$$$

 OpenBabel03252506443D

 40 43  0  0  1  0  0  0  0  0999 V2000
   37.0180   29.8140   40.7170 N   0  0  1  0  0  0  0  0  0  0  0  0
   37.2920   31.1880   41.0780 C   0  0  0  0  0  0  0  0  0  0  0  0
   37.0770   32.1890   40.0080 C   0  0  0  0  0  0  0  0  0  0  0  0
   37.9750   31.9210   38.8380 C   0  0  0  0  0  0  0  0  0  0  0  0
   38.3060   30.4790   38.7110 C   0  0  0  0  0  0  0  0  0  0  0  0
   37.1800   29.6490   39.3060 C   0  0  2  0  0  0  0  0  0  0  0  0
   38.3700   31.2680   41.3780 H   0  0  0  0  0  0  0  0  0  0  0  0
   36.7400   31.4880   42.0100 H   0  0  0  0  0  0  0  0  0  0  0  0
   37.4710   33.1650   40.4450 H   0  0  0  0  0  0  0  0  0  0  0  0
   36.0350   32.4430   39.7630 H   0  0  0  0  0  0  0  0  0  0  0  0
   37.4830   32.2330   37.8820 H   0  0  0  0  0  0  0  0  0  0  0  0
   38.9100   32.5350   38.8680 H   0  0  0  0  0  0  0  0  0  0  0  0
   39.2010   30.2330   39.3200 H   0  0  0  0  0  0  0  0  0  0  0  0
   38.4090   30.1400   37.6610 H   0  0  0  0  0  0  0  0  0  0  0  0
   37.6050   28.6090   39.2180 H   0  0  0  0  0  0  0  0  0  0  0  0
   37.4370   28.0400   42.5500 C   0  0  1  0  0  0  0  0  0  0  0  0
   38.0140   29.3350   42.9370 C   0  0  0  0  0  0  0  0  0  0  0  0
   37.8950   28.9990   41.4950 C   0  0  2  0  0  0  0  0  0  0  0  0
   36.3470   27.8760   42.6080 H   0  0  0  0  0  0  0  0  0  0  0  0
   39.0130   29.3410   43.4220 H   0  0  0  0  0  0  0  0  0  0  0  0
   37.3300   30.1050   43.3690 H   0  0  0  0  0  0  0  0  0  0  0  0
   38.8650   28.7380   40.9880 H   0  0  0  0  0  0  0  0  0  0  0  0
   37.7710   25.5960   42.1090 C   0  0  0  0  0  0  0  0  0  0  0  0
   38.2030   26.7800   42.7570 C   0  0  0  0  0  0  0  0  0  0  0  0
   39.3310   26.7290   43.5530 C   0  0  0  0  0  0  0  0  0  0  0  0
   39.9760   25.5440   43.6800 N   0  0  0  0  0  0  0  0  0  0  0  0
   39.5520   24.4160   43.0530 C   0  0  0  0  0  0  0  0  0  0  0  0
   38.4530   24.4310   42.2680 N   0  0  0  0  0  0  0  0  0  0  0  0
   36.8780   25.7000   41.4970 H   0  0  0  0  0  0  0  0  0  0  0  0
   39.6710   27.6250   44.0530 H   0  0  0  0  0  0  0  0  0  0  0  0
   40.0730   23.4720   43.1600 H   0  0  0  0  0  0  0  0  0  0  0  0
   34.8900   28.6840   38.9360 C   0  0  2  0  0  3  0  0  0  0  0  0
   35.9560   29.6470   38.4720 C   0  0  2  0  0  3  0  0  0  0  0  0
   36.2280   29.2860   37.1400 O   0  0  0  0  0  0  0  0  0  0  0  0
   34.9260   29.0690   36.6280 C   0  0  0  0  0  2  0  0  0  0  0  0
   34.3940   28.0640   37.6250 C   0  0  2  0  0  3  0  0  0  0  0  0
   33.8500   29.3310   39.5940 O   0  0  0  0  0  0  0  0  0  0  0  0
   33.7100   28.8670   40.4500 H   0  0  0  0  0  0  0  0  0  0  0  0
   33.0040   28.0280   37.6360 O   0  0  0  0  0  0  0  0  0  0  0  0
   32.6840   28.8430   38.1380 H   0  0  0  0  0  0  0  0  0  0  0  0
  1  2  1  6  0  0  0
  1 18  1  0  0  0  0
  2  7  1  0  0  0  0
  2  8  1  0  0  0  0
  3  9  1  0  0  0  0
  3  2  1  0  0  0  0
  4 12  1  0  0  0  0
  4  3  1  0  0  0  0
  5  4  1  0  0  0  0
  5  6  1  0  0  0  0
  5 13  1  0  0  0  0
  6 15  1  6  0  0  0
  6  1  1  0  0  0  0
 10  3  1  0  0  0  0
 11  4  1  0  0  0  0
 14  5  1  0  0  0  0
 16 19  1  1  0  0  0
 16 24  1  0  0  0  0
 16 17  1  0  0  0  0
 17 21  1  0  0  0  0
 17 20  1  0  0  0  0
 18 22  1  6  0  0  0
 18 16  1  0  0  0  0
 18 17  1  0  0  0  0
 23 28  2  0  0  0  0
 23 24  1  0  0  0  0
 24 25  2  0  0  0  0
 25 26  1  0  0  0  0
 25 30  1  0  0  0  0
 27 31  1  0  0  0  0
 27 26  2  0  0  0  0
 28 27  1  0  0  0  0
 29 23  1  0  0  0  0
 32 37  1  6  0  0  0
 33 34  1  6  0  0  0
 33 32  1  0  0  0  0
 33  6  1  0  0  0  0
 35 34  1  0  0  0  0
 35 36  1  0  0  0  0
 36 39  1  1  0  0  0
 36 32  1  0  0  0  0
 37 38  1  0  0  0  0
 39 40  1  0  0  0  0
M  END
>  <minimizedAffinity>
-5.65357065

$$$$

 OpenBabel03252506443D

 40 43  0  0  1  0  0  0  0  0999 V2000
   38.3290   26.6380   41.9130 N   0  0  1  0  0  0  0  0  0  0  0  0
   39.1820   26.4230   43.0630 C   0  0  0  0  0  0  0  0  0  0  0  0
   40.0390   27.5670   43.4500 C   0  0  0  0  0  0  0  0  0  0  0  0
   40.9840   27.9250   42.3420 C   0  0  0  0  0  0  0  0  0  0  0  0
   40.4280   27.5880   41.0070 C   0  0  0  0  0  0  0  0  0  0  0  0
   38.9090   27.6340   41.0670 C   0  0  2  0  0  0  0  0  0  0  0  0
   39.8720   25.5680   42.8380 H   0  0  0  0  0  0  0  0  0  0  0  0
   38.5960   26.0570   43.9490 H   0  0  0  0  0  0  0  0  0  0  0  0
   40.7140   27.1550   44.2710 H   0  0  0  0  0  0  0  0  0  0  0  0
   39.5470   28.4130   43.9510 H   0  0  0  0  0  0  0  0  0  0  0  0
   41.1970   29.0230   42.3440 H   0  0  0  0  0  0  0  0  0  0  0  0
   41.9920   27.4580   42.4730 H   0  0  0  0  0  0  0  0  0  0  0  0
   40.6750   26.5400   40.7380 H   0  0  0  0  0  0  0  0  0  0  0  0
   40.7200   28.3030   40.2130 H   0  0  0  0  0  0  0  0  0  0  0  0
   38.6380   27.2800   40.0330 H   0  0  0  0  0  0  0  0  0  0  0  0
   36.8620   24.6390   41.1800 C   0  0  1  0  0  0  0  0  0  0  0  0
   37.8700   24.2130   42.1620 C   0  0  0  0  0  0  0  0  0  0  0  0
   38.1660   25.3690   41.2770 C   0  0  2  0  0  0  0  0  0  0  0  0
   35.9710   25.2040   41.5070 H   0  0  0  0  0  0  0  0  0  0  0  0
   38.3870   23.2450   41.9960 H   0  0  0  0  0  0  0  0  0  0  0  0
   37.6610   24.4010   43.2430 H   0  0  0  0  0  0  0  0  0  0  0  0
   38.9040   25.1590   40.4540 H   0  0  0  0  0  0  0  0  0  0  0  0
   35.7940   24.3570   38.9320 C   0  0  0  0  0  0  0  0  0  0  0  0
   36.5890   23.8140   39.9720 C   0  0  0  0  0  0  0  0  0  0  0  0
   37.0950   22.5360   39.8250 C   0  0  0  0  0  0  0  0  0  0  0  0
   36.8070   21.8580   38.6880 N   0  0  0  0  0  0  0  0  0  0  0  0
   36.0440   22.3890   37.6980 C   0  0  0  0  0  0  0  0  0  0  0  0
   35.5340   23.6340   37.8100 N   0  0  0  0  0  0  0  0  0  0  0  0
   35.4250   25.3650   39.1050 H   0  0  0  0  0  0  0  0  0  0  0  0
   37.7020   22.1110   40.6110 H   0  0  0  0  0  0  0  0  0  0  0  0
   35.8180   21.8390   36.7930 H   0  0  0  0  0  0  0  0  0  0  0  0
   36.9370   29.0870   41.6250 C   0  0  2  0  0  3  0  0  0  0  0  0
   38.3730   29.0110   41.1650 C   0  0  2  0  0  3  0  0  0  0  0  0
   38.4010   29.6760   39.9270 O   0  0  0  0  0  0  0  0  0  0  0  0
   37.5990   30.8120   40.1900 C   0  0  0  0  0  2  0  0  0  0  0  0
   36.3380   30.1550   40.7040 C   0  0  2  0  0  3  0  0  0  0  0  0
   36.8330   29.4770   42.9570 O   0  0  0  0  0  0  0  0  0  0  0  0
   36.2510   28.8240   43.4090 H   0  0  0  0  0  0  0  0  0  0  0  0
   35.5670   31.0300   41.4630 O   0  0  0  0  0  0  0  0  0  0  0  0
   36.0070   31.1160   42.3660 H   0  0  0  0  0  0  0  0  0  0  0  0
  1  2  1  1  0  0  0
  2  3  1  0  0  0  0
  2  8  1  0  0  0  0
  3 10  1  0  0  0  0
  3  9  1  0  0  0  0
  4 11  1  0  0  0  0
  4 12  1  0  0  0  0
  4  3  1  0  0  0  0
  5  6  1  0  0  0  0
  5  4  1  0  0  0  0
  6 15  1  6  0  0  0
  6 33  1  0  0  0  0
  6  1  1  0  0  0  0
  7  2  1  0  0  0  0
 13  5  1  0  0  0  0
 14  5  1  0  0  0  0
 16 18  1  0  0  0  0
 16 19  1  1  0  0  0
 16 17  1  0  0  0  0
 17 21  1  0  0  0  0
 18 22  1  6  0  0  0
 18  1  1  0  0  0  0
 18 17  1  0  0  0  0
 20 17  1  0  0  0  0
 23 29  1  0  0  0  0
 23 24  1  0  0  0  0
 24 16  1  0  0  0  0
 25 24  2  0  0  0  0
 25 30  1  0  0  0  0
 26 25  1  0  0  0  0
 27 28  1  0  0  0  0
 27 26  2  0  0  0  0
 28 23  2  0  0  0  0
 31 27  1  0  0  0  0
 32 37  1  1  0  0  0
 33 34  1  6  0  0  0
 33 32  1  0  0  0  0
 34 35  1  0  0  0  0
 35 36  1  0  0  0  0
 36 39  1  1  0  0  0
 36 32  1  0  0  0  0
 37 38  1  0  0  0  0
 39 40  1  0  0  0  0
M  END
>  <minimizedAffinity>
-5.63114929

$$$$

 OpenBabel03252506443D

 40 43  0  0  1  0  0  0  0  0999 V2000
   38.1420   31.2280   39.6910 N   0  0  1  0  0  0  0  0  0  0  0  0
   37.0310   32.1230   39.4450 C   0  0  0  0  0  0  0  0  0  0  0  0
   37.3950   33.5170   39.1030 C   0  0  0  0  0  0  0  0  0  0  0  0
   38.1550   34.1610   40.2230 C   0  0  0  0  0  0  0  0  0  0  0  0
   38.9220   33.1670   41.0170 C   0  0  0  0  0  0  0  0  0  0  0  0
   39.2740   31.9810   40.1330 C   0  0  2  0  0  0  0  0  0  0  0  0
   36.4040   32.1740   40.3730 H   0  0  0  0  0  0  0  0  0  0  0  0
   36.3260   31.7040   38.6770 H   0  0  0  0  0  0  0  0  0  0  0  0
   36.4010   34.0760   39.0830 H   0  0  0  0  0  0  0  0  0  0  0  0
   37.7870   33.6980   38.0920 H   0  0  0  0  0  0  0  0  0  0  0  0
   38.8900   34.9050   39.8260 H   0  0  0  0  0  0  0  0  0  0  0  0
   37.4960   34.7690   40.8930 H   0  0  0  0  0  0  0  0  0  0  0  0
   38.2900   32.7480   41.8260 H   0  0  0  0  0  0  0  0  0  0  0  0
   39.8870   33.5560   41.3980 H   0  0  0  0  0  0  0  0  0  0  0  0
   39.7640   31.2920   40.8780 H   0  0  0  0  0  0  0  0  0  0  0  0
   36.7000   29.1790   40.3310 C   0  0  1  0  0  0  0  0  0  0  0  0
   36.2760   30.3700   41.0820 C   0  0  0  0  0  0  0  0  0  0  0  0
   37.6900   30.2600   40.6390 C   0  0  2  0  0  0  0  0  0  0  0  0
   36.4300   29.0670   39.2670 H   0  0  0  0  0  0  0  0  0  0  0  0
   36.0230   30.2490   42.1570 H   0  0  0  0  0  0  0  0  0  0  0  0
   35.6060   31.1010   40.5690 H   0  0  0  0  0  0  0  0  0  0  0  0
   38.4250   30.0270   41.4590 H   0  0  0  0  0  0  0  0  0  0  0  0
   37.1840   26.7230   40.2510 C   0  0  0  0  0  0  0  0  0  0  0  0
   36.8360   27.8640   41.0150 C   0  0  0  0  0  0  0  0  0  0  0  0
   36.6450   27.7200   42.3770 C   0  0  0  0  0  0  0  0  0  0  0  0
   36.7990   26.4900   42.9210 N   0  0  0  0  0  0  0  0  0  0  0  0
   37.1330   25.4030   42.1780 C   0  0  0  0  0  0  0  0  0  0  0  0
   37.3270   25.5080   40.8460 N   0  0  0  0  0  0  0  0  0  0  0  0
   37.3210   26.8980   39.1870 H   0  0  0  0  0  0  0  0  0  0  0  0
   36.3800   28.5830   42.9700 H   0  0  0  0  0  0  0  0  0  0  0  0
   37.2540   24.4220   42.6210 H   0  0  0  0  0  0  0  0  0  0  0  0
   40.2530   31.4520   37.8810 C   0  0  2  0  0  3  0  0  0  0  0  0
   40.3220   32.2900   39.1340 C   0  0  2  0  0  3  0  0  0  0  0  0
   41.6150   32.0840   39.6470 O   0  0  0  0  0  0  0  0  0  0  0  0
   42.4050   32.1510   38.4740 C   0  0  0  0  0  2  0  0  0  0  0  0
   41.7220   31.1110   37.6140 C   0  0  2  0  0  3  0  0  0  0  0  0
   39.7120   32.1550   36.8090 O   0  0  0  0  0  0  0  0  0  0  0  0
   38.9950   31.6010   36.4260 H   0  0  0  0  0  0  0  0  0  0  0  0
   41.9950   31.2940   36.2620 O   0  0  0  0  0  0  0  0  0  0  0  0
   41.4330   32.0680   35.9430 H   0  0  0  0  0  0  0  0  0  0  0  0
  1  2  1  1  0  0  0
  1  6  1  0  0  0  0
  1 18  1  0  0  0  0
  2  7  1  0  0  0  0
  3  2  1  0  0  0  0
  3  4  1  0  0  0  0
  4 12  1  0  0  0  0
  4  5  1  0  0  0  0
  5 14  1  0  0  0  0
  5 13  1  0  0  0  0
  6 15  1  1  0  0  0
  6  5  1  0  0  0  0
  8  2  1  0  0  0  0
  9  3  1  0  0  0  0
 10  3  1  0  0  0  0
 11  4  1  0  0  0  0
 16 19  1  6  0  0  0
 16 18  1  0  0  0  0
 16 24  1  0  0  0  0
 16 17  1  0  0  0  0
 17 20  1  0  0  0  0
 18 17  1  0  0  0  0
 18 22  1  1  0  0  0
 21 17  1  0  0  0  0
 23 28  2  0  0  0  0
 23 24  1  0  0  0  0
 24 25  2  0  0  0  0
 25 26  1  0  0  0  0
 25 30  1  0  0  0  0
 27 31  1  0  0  0  0
 27 26  2  0  0  0  0
 28 27  1  0  0  0  0
 29 23  1  0  0  0  0
 32 37  1  6  0  0  0
 32 33  1  0  0  0  0
 33 34  1  1  0  0  0
 33  6  1  0  0  0  0
 35 34  1  0  0  0  0
 36 39  1  6  0  0  0
 36 32  1  0  0  0  0
 36 35  1  0  0  0  0
 38 37  1  0  0  0  0
 40 39  1  0  0  0  0
M  END
>  <minimizedAffinity>
-5.62938976

$$$$

 OpenBabel03252506443D

 40 43  0  0  1  0  0  0  0  0999 V2000
   37.5990   28.4130   40.7380 N   0  0  1  0  0  0  0  0  0  0  0  0
   37.9220   29.3940   41.7520 C   0  0  0  0  0  0  0  0  0  0  0  0
   38.4320   28.8510   43.0320 C   0  0  0  0  0  0  0  0  0  0  0  0
   37.4120   27.9640   43.6790 C   0  0  0  0  0  0  0  0  0  0  0  0
   36.5270   27.3130   42.6790 C   0  0  0  0  0  0  0  0  0  0  0  0
   37.2740   27.1690   41.3630 C   0  0  2  0  0  0  0  0  0  0  0  0
   36.9920   29.9700   41.9970 H   0  0  0  0  0  0  0  0  0  0  0  0
   38.6190   30.1820   41.3570 H   0  0  0  0  0  0  0  0  0  0  0  0
   38.4930   29.7560   43.7230 H   0  0  0  0  0  0  0  0  0  0  0  0
   39.4660   28.4780   43.0400 H   0  0  0  0  0  0  0  0  0  0  0  0
   37.9110   27.1470   44.2600 H   0  0  0  0  0  0  0  0  0  0  0  0
   36.8030   28.5020   44.4470 H   0  0  0  0  0  0  0  0  0  0  0  0
   35.6590   27.9660   42.4490 H   0  0  0  0  0  0  0  0  0  0  0  0
   36.2160   26.2890   42.9640 H   0  0  0  0  0  0  0  0  0  0  0  0
   36.4670   26.7520   40.6980 H   0  0  0  0  0  0  0  0  0  0  0  0
   36.6590   29.3370   38.5150 C   0  0  1  0  0  0  0  0  0  0  0  0
   36.6700   30.3810   39.5490 C   0  0  0  0  0  0  0  0  0  0  0  0
   36.5350   28.9590   39.9580 C   0  0  2  0  0  0  0  0  0  0  0  0
   37.5980   29.0350   38.0190 H   0  0  0  0  0  0  0  0  0  0  0  0
   35.7930   31.0600   39.6180 H   0  0  0  0  0  0  0  0  0  0  0  0
   37.6320   30.9110   39.7490 H   0  0  0  0  0  0  0  0  0  0  0  0
   35.5040   28.6590   40.2960 H   0  0  0  0  0  0  0  0  0  0  0  0
   34.1970   28.9900   38.2050 C   0  0  0  0  0  0  0  0  0  0  0  0
   35.4770   29.1690   37.6240 C   0  0  0  0  0  0  0  0  0  0  0  0
   35.5860   29.1930   36.2470 C   0  0  0  0  0  0  0  0  0  0  0  0
   34.4580   29.0430   35.5100 N   0  0  0  0  0  0  0  0  0  0  0  0
   33.2370   28.8730   36.0780 C   0  0  0  0  0  0  0  0  0  0  0  0
   33.0950   28.8450   37.4210 N   0  0  0  0  0  0  0  0  0  0  0  0
   34.1750   28.9800   39.2920 H   0  0  0  0  0  0  0  0  0  0  0  0
   36.5570   29.3280   35.7920 H   0  0  0  0  0  0  0  0  0  0  0  0
   32.3400   28.7530   35.4820 H   0  0  0  0  0  0  0  0  0  0  0  0
   38.1820   25.1410   42.5370 C   0  0  2  0  0  3  0  0  0  0  0  0
   38.3270   26.1280   41.4040 C   0  0  2  0  0  3  0  0  0  0  0  0
   39.6100   26.6840   41.5580 O   0  0  0  0  0  0  0  0  0  0  0  0
   40.3860   25.5390   41.8600 C   0  0  0  0  0  2  0  0  0  0  0  0
   39.6200   24.9810   43.0390 C   0  0  2  0  0  3  0  0  0  0  0  0
   37.6770   23.9180   42.1050 O   0  0  0  0  0  0  0  0  0  0  0  0
   36.9170   23.6930   42.6880 H   0  0  0  0  0  0  0  0  0  0  0  0
   39.8850   23.6310   43.2400 O   0  0  0  0  0  0  0  0  0  0  0  0
   39.3750   23.1150   42.5390 H   0  0  0  0  0  0  0  0  0  0  0  0
  1  6  1  0  0  0  0
  1  2  1  1  0  0  0
  2  7  1  0  0  0  0
  2  3  1  0  0  0  0
  3 10  1  0  0  0  0
  3  4  1  0  0  0  0
  3  9  1  0  0  0  0
  4 11  1  0  0  0  0
  4 12  1  0  0  0  0
  5 14  1  0  0  0  0
  5  4  1  0  0  0  0
  6 15  1  6  0  0  0
  6 33  1  0  0  0  0
  6  5  1  0  0  0  0
  8  2  1  0  0  0  0
 13  5  1  0  0  0  0
 16 19  1  6  0  0  0
 16 17  1  0  0  0  0
 16 18  1  0  0  0  0
 17 20  1  0  0  0  0
 17 21  1  0  0  0  0
 17 18  1  0  0  0  0
 18 22  1  1  0  0  0
 18  1  1  0  0  0  0
 23 29  1  0  0  0  0
 24 23  1  0  0  0  0
 24 16  1  0  0  0  0
 25 24  2  0  0  0  0
 26 27  2  0  0  0  0
 26 25  1  0  0  0  0
 27 28  1  0  0  0  0
 28 23  2  0  0  0  0
 30 25  1  0  0  0  0
 31 27  1  0  0  0  0
 32 37  1  6  0  0  0
 32 36  1  0  0  0  0
 33 34  1  1  0  0  0
 33 32  1  0  0  0  0
 34 35  1  0  0  0  0
 35 36  1  0  0  0  0
 36 39  1  6  0  0  0
 37 38  1  0  0  0  0
 40 39  1  0  0  0  0
M  END
>  <minimizedAffinity>
-5.57524681

$$$$

 OpenBabel03252506443D

 40 43  0  0  1  0  0  0  0  0999 V2000
   37.1440   27.7650   40.9910 N   0  0  1  0  0  0  0  0  0  0  0  0
   36.6300   27.1160   42.1780 C   0  0  0  0  0  0  0  0  0  0  0  0
   36.9480   27.7810   43.4630 C   0  0  0  0  0  0  0  0  0  0  0  0
   38.4300   27.8420   43.6800 C   0  0  0  0  0  0  0  0  0  0  0  0
   39.1780   27.8900   42.3970 C   0  0  0  0  0  0  0  0  0  0  0  0
   38.3050   28.5280   41.3280 C   0  0  2  0  0  0  0  0  0  0  0  0
   37.0670   26.0840   42.2360 H   0  0  0  0  0  0  0  0  0  0  0  0
   35.5250   26.9260   42.1000 H   0  0  0  0  0  0  0  0  0  0  0  0
   36.5790   27.0550   44.2600 H   0  0  0  0  0  0  0  0  0  0  0  0
   36.3910   28.6980   43.7020 H   0  0  0  0  0  0  0  0  0  0  0  0
   38.7070   28.7600   44.2570 H   0  0  0  0  0  0  0  0  0  0  0  0
   38.8040   27.0030   44.3180 H   0  0  0  0  0  0  0  0  0  0  0  0
   39.3800   26.8620   42.0290 H   0  0  0  0  0  0  0  0  0  0  0  0
   40.0980   28.5060   42.4430 H   0  0  0  0  0  0  0  0  0  0  0  0
   38.9580   28.4160   40.4170 H   0  0  0  0  0  0  0  0  0  0  0  0
   36.3400   26.1390   39.1500 C   0  0  1  0  0  0  0  0  0  0  0  0
   36.8170   25.3980   40.3260 C   0  0  0  0  0  0  0  0  0  0  0  0
   37.3920   26.7360   40.0320 C   0  0  2  0  0  0  0  0  0  0  0  0
   35.3570   26.6400   39.1690 H   0  0  0  0  0  0  0  0  0  0  0  0
   37.4300   24.4860   40.1590 H   0  0  0  0  0  0  0  0  0  0  0  0
   36.1230   25.2880   41.1940 H   0  0  0  0  0  0  0  0  0  0  0  0
   38.4390   26.7220   39.6200 H   0  0  0  0  0  0  0  0  0  0  0  0
   37.1330   24.3610   37.5720 C   0  0  0  0  0  0  0  0  0  0  0  0
   36.7170   25.7010   37.7780 C   0  0  0  0  0  0  0  0  0  0  0  0
   36.6640   26.5550   36.6930 C   0  0  0  0  0  0  0  0  0  0  0  0
   37.0140   26.0720   35.4760 N   0  0  0  0  0  0  0  0  0  0  0  0
   37.4110   24.7860   35.2920 C   0  0  0  0  0  0  0  0  0  0  0  0
   37.4740   23.9250   36.3300 N   0  0  0  0  0  0  0  0  0  0  0  0
   37.1550   23.7380   38.4620 H   0  0  0  0  0  0  0  0  0  0  0  0
   36.3480   27.5780   36.8360 H   0  0  0  0  0  0  0  0  0  0  0  0
   37.6900   24.4080   34.3150 H   0  0  0  0  0  0  0  0  0  0  0  0
   37.0280   30.5940   40.6830 C   0  0  2  0  0  3  0  0  0  0  0  0
   38.1340   29.9880   41.5130 C   0  0  2  0  0  3  0  0  0  0  0  0
   39.2940   30.7020   41.1630 O   0  0  0  0  0  0  0  0  0  0  0  0
   38.8160   32.0340   41.1350 C   0  0  0  0  0  2  0  0  0  0  0  0
   37.6540   31.8970   40.1760 C   0  0  2  0  0  3  0  0  0  0  0  0
   35.8910   30.8600   41.4390 O   0  0  0  0  0  0  0  0  0  0  0  0
   35.1250   30.4590   40.9690 H   0  0  0  0  0  0  0  0  0  0  0  0
   36.7350   32.9310   40.3220 O   0  0  0  0  0  0  0  0  0  0  0  0
   36.1980   32.7420   41.1540 H   0  0  0  0  0  0  0  0  0  0  0  0
  1  6  1  0  0  0  0
  1  2  1  1  0  0  0
  2  7  1  0  0  0  0
  2  3  1  0  0  0  0
  3  4  1  0  0  0  0
  3 10  1  0  0  0  0
  3  9  1  0  0  0  0
  4 11  1  0  0  0  0
  4 12  1  0  0  0  0
  5 14  1  0  0  0  0
  5  4  1  0  0  0  0
  6 15  1  6  0  0  0
  6 33  1  0  0  0  0
  6  5  1  0  0  0  0
  8  2  1  0  0  0  0
 13  5  1  0  0  0  0
 16 19  1  1  0  0  0
 16 18  1  0  0  0  0
 16 17  1  0  0  0  0
 17 21  1  0  0  0  0
 18 22  1  6  0  0  0
 18 17  1  0  0  0  0
 18  1  1  0  0  0  0
 20 17  1  0  0  0  0
 23 24  1  0  0  0  0
 23 29  1  0  0  0  0
 24 16  1  0  0  0  0
 25 30  1  0  0  0  0
 25 24  2  0  0  0  0
 26 25  1  0  0  0  0
 27 26  2  0  0  0  0
 27 28  1  0  0  0  0
 28 23  2  0  0  0  0
 31 27  1  0  0  0  0
 32 37  1  1  0  0  0
 32 33  1  0  0  0  0
 33 34  1  6  0  0  0
 35 34  1  0  0  0  0
 36 39  1  1  0  0  0
 36 32  1  0  0  0  0
 36 35  1  0  0  0  0
 38 37  1  0  0  0  0
 39 40  1  0  0  0  0
M  END
>  <minimizedAffinity>
-5.53664541

$$$$

 OpenBabel03252506443D

 40 43  0  0  1  0  0  0  0  0999 V2000
   35.1390   28.4690   37.6390 N   0  0  1  0  0  0  0  0  0  0  0  0
   36.3340   27.9500   37.0080 C   0  0  0  0  0  0  0  0  0  0  0  0
   37.5850   28.0920   37.7870 C   0  0  0  0  0  0  0  0  0  0  0  0
   37.8930   29.5360   38.0440 C   0  0  0  0  0  0  0  0  0  0  0  0
   36.6620   30.3650   38.1020 C   0  0  0  0  0  0  0  0  0  0  0  0
   35.4960   29.5040   38.5600 C   0  0  2  0  0  0  0  0  0  0  0  0
   36.4930   28.5000   36.0440 H   0  0  0  0  0  0  0  0  0  0  0  0
   36.1970   26.8840   36.6790 H   0  0  0  0  0  0  0  0  0  0  0  0
   38.4070   27.7540   37.0730 H   0  0  0  0  0  0  0  0  0  0  0  0
   37.7220   27.4140   38.6420 H   0  0  0  0  0  0  0  0  0  0  0  0
   38.4210   29.6600   39.0230 H   0  0  0  0  0  0  0  0  0  0  0  0
   38.6130   29.9590   37.2990 H   0  0  0  0  0  0  0  0  0  0  0  0
   36.3830   30.7140   37.0850 H   0  0  0  0  0  0  0  0  0  0  0  0
   36.7240   31.2000   38.8280 H   0  0  0  0  0  0  0  0  0  0  0  0
   34.6400   30.2300   38.4710 H   0  0  0  0  0  0  0  0  0  0  0  0
   32.7840   28.7580   36.6130 C   0  0  1  0  0  0  0  0  0  0  0  0
   33.6000   27.8470   35.7970 C   0  0  0  0  0  0  0  0  0  0  0  0
   34.2740   28.9060   36.5900 C   0  0  2  0  0  0  0  0  0  0  0  0
   32.3510   28.4130   37.5680 H   0  0  0  0  0  0  0  0  0  0  0  0
   33.5420   27.9390   34.6910 H   0  0  0  0  0  0  0  0  0  0  0  0
   33.6900   26.7840   36.1290 H   0  0  0  0  0  0  0  0  0  0  0  0
   34.6680   29.7710   35.9880 H   0  0  0  0  0  0  0  0  0  0  0  0
   32.0010   29.9590   34.5580 C   0  0  0  0  0  0  0  0  0  0  0  0
   31.9480   29.8060   35.9660 C   0  0  0  0  0  0  0  0  0  0  0  0
   31.1110   30.6310   36.6930 C   0  0  0  0  0  0  0  0  0  0  0  0
   30.3760   31.5520   36.0250 N   0  0  0  0  0  0  0  0  0  0  0  0
   30.4350   31.6880   34.6750 C   0  0  0  0  0  0  0  0  0  0  0  0
   31.2420   30.8990   33.9340 N   0  0  0  0  0  0  0  0  0  0  0  0
   32.6770   29.2820   34.0410 H   0  0  0  0  0  0  0  0  0  0  0  0
   31.0620   30.5260   37.7680 H   0  0  0  0  0  0  0  0  0  0  0  0
   29.8450   32.4280   34.1480 H   0  0  0  0  0  0  0  0  0  0  0  0
   36.4050   30.0860   40.8280 C   0  0  2  0  0  3  0  0  0  0  0  0
   35.5640   29.1480   39.9960 C   0  0  2  0  0  3  0  0  0  0  0  0
   36.1230   27.8730   40.1950 O   0  0  0  0  0  0  0  0  0  0  0  0
   36.3540   27.8750   41.5920 C   0  0  0  0  0  2  0  0  0  0  0  0
   37.1830   29.1310   41.7390 C   0  0  2  0  0  3  0  0  0  0  0  0
   35.6260   30.9560   41.5850 O   0  0  0  0  0  0  0  0  0  0  0  0
   35.9570   31.8670   41.4170 H   0  0  0  0  0  0  0  0  0  0  0  0
   37.1570   29.6210   43.0410 O   0  0  0  0  0  0  0  0  0  0  0  0
   36.2670   30.0760   43.1760 H   0  0  0  0  0  0  0  0  0  0  0  0
  1  2  1  6  0  0  0
  1  6  1  0  0  0  0
  2  3  1  0  0  0  0
  3  4  1  0  0  0  0
  3 10  1  0  0  0  0
  4  5  1  0  0  0  0
  4 11  1  0  0  0  0
  5  6  1  0  0  0  0
  5 14  1  0  0  0  0
  6 15  1  6  0  0  0
  6 33  1  0  0  0  0
  7  2  1  0  0  0  0
  8  2  1  0  0  0  0
  9  3  1  0  0  0  0
 12  4  1  0  0  0  0
 13  5  1  0  0  0  0
 16 19  1  1  0  0  0
 17 21  1  0  0  0  0
 17 18  1  0  0  0  0
 17 16  1  0  0  0  0
 18 22  1  6  0  0  0
 18 16  1  0  0  0  0
 18  1  1  0  0  0  0
 20 17  1  0  0  0  0
 23 24  1  0  0  0  0
 24 16  1  0  0  0  0
 24 25  2  0  0  0  0
 25 30  1  0  0  0  0
 26 25  1  0  0  0  0
 27 26  2  0  0  0  0
 28 23  2  0  0  0  0
 28 27  1  0  0  0  0
 29 23  1  0  0  0  0
 31 27  1  0  0  0  0
 32 37  1  1  0  0  0
 32 36  1  0  0  0  0
 33 34  1  6  0  0  0
 33 32  1  0  0  0  0
 34 35  1  0  0  0  0
 35 36  1  0  0  0  0
 36 39  1  1  0  0  0
 38 37  1  0  0  0  0
 39 40  1  0  0  0  0
M  END
>  <minimizedAffinity>
-5.44887114

$$$$

 OpenBabel03252506443D

 40 43  0  0  1  0  0  0  0  0999 V2000
   38.6450   31.0170   39.5090 N   0  0  1  0  0  0  0  0  0  0  0  0
   37.3360   31.4840   39.1050 C   0  0  0  0  0  0  0  0  0  0  0  0
   37.2450   32.9210   38.7600 C   0  0  0  0  0  0  0  0  0  0  0  0
   37.6010   33.7770   39.9380 C   0  0  0  0  0  0  0  0  0  0  0  0
   38.5580   33.0970   40.8490 C   0  0  0  0  0  0  0  0  0  0  0  0
   39.3940   32.1070   40.0540 C   0  0  2  0  0  0  0  0  0  0  0  0
   36.6210   31.3120   39.9520 H   0  0  0  0  0  0  0  0  0  0  0  0
   36.9110   30.8560   38.2750 H   0  0  0  0  0  0  0  0  0  0  0  0
   36.1310   33.1090   38.6060 H   0  0  0  0  0  0  0  0  0  0  0  0
   37.6720   33.2320   37.7960 H   0  0  0  0  0  0  0  0  0  0  0  0
   38.0840   34.7290   39.6030 H   0  0  0  0  0  0  0  0  0  0  0  0
   36.7010   34.1200   40.5050 H   0  0  0  0  0  0  0  0  0  0  0  0
   38.0120   32.4820   41.5940 H   0  0  0  0  0  0  0  0  0  0  0  0
   39.2810   33.7870   41.3260 H   0  0  0  0  0  0  0  0  0  0  0  0
   39.9940   31.6200   40.8730 H   0  0  0  0  0  0  0  0  0  0  0  0
   39.0070   28.5720   40.2670 C   0  0  1  0  0  0  0  0  0  0  0  0
   37.5900   28.8190   39.9620 C   0  0  0  0  0  0  0  0  0  0  0  0
   38.4360   29.9470   40.4310 C   0  0  2  0  0  0  0  0  0  0  0  0
   39.7390   28.4520   39.4500 H   0  0  0  0  0  0  0  0  0  0  0  0
   36.8240   28.3850   40.6400 H   0  0  0  0  0  0  0  0  0  0  0  0
   37.2720   28.7920   38.8920 H   0  0  0  0  0  0  0  0  0  0  0  0
   38.2460   30.2720   41.4920 H   0  0  0  0  0  0  0  0  0  0  0  0
   38.7470   26.5760   41.7590 C   0  0  0  0  0  0  0  0  0  0  0  0
   39.3950   27.8060   41.4830 C   0  0  0  0  0  0  0  0  0  0  0  0
   40.3770   28.2490   42.3490 C   0  0  0  0  0  0  0  0  0  0  0  0
   40.6770   27.4850   43.4260 N   0  0  0  0  0  0  0  0  0  0  0  0
   40.0490   26.3070   43.6790 C   0  0  0  0  0  0  0  0  0  0  0  0
   39.0850   25.8450   42.8540 N   0  0  0  0  0  0  0  0  0  0  0  0
   37.9840   26.2810   41.0420 H   0  0  0  0  0  0  0  0  0  0  0  0
   40.8790   29.1850   42.1500 H   0  0  0  0  0  0  0  0  0  0  0  0
   40.2940   25.7030   44.5440 H   0  0  0  0  0  0  0  0  0  0  0  0
   40.7980   31.9360   37.9770 C   0  0  2  0  0  3  0  0  0  0  0  0
   40.3880   32.7610   39.1720 C   0  0  2  0  0  3  0  0  0  0  0  0
   41.5850   33.0480   39.8530 O   0  0  0  0  0  0  0  0  0  0  0  0
   42.4520   33.3800   38.7840 C   0  0  0  0  0  2  0  0  0  0  0  0
   42.3140   32.1490   37.9160 C   0  0  2  0  0  3  0  0  0  0  0  0
   40.1940   32.3770   36.8030 O   0  0  0  0  0  0  0  0  0  0  0  0
   39.7830   31.5940   36.3720 H   0  0  0  0  0  0  0  0  0  0  0  0
   42.6860   32.3970   36.5980 O   0  0  0  0  0  0  0  0  0  0  0  0
   41.9330   32.9090   36.1630 H   0  0  0  0  0  0  0  0  0  0  0  0
  1  2  1  1  0  0  0
  1  6  1  0  0  0  0
  1 18  1  0  0  0  0
  2  7  1  0  0  0  0
  3  2  1  0  0  0  0
  3  4  1  0  0  0  0
  4 12  1  0  0  0  0
  4  5  1  0  0  0  0
  5 14  1  0  0  0  0
  5 13  1  0  0  0  0
  6  5  1  0  0  0  0
  6 15  1  1  0  0  0
  8  2  1  0  0  0  0
  9  3  1  0  0  0  0
 10  3  1  0  0  0  0
 11  4  1  0  0  0  0
 16 19  1  6  0  0  0
 16 18  1  0  0  0  0
 16 24  1  0  0  0  0
 17 16  1  0  0  0  0
 17 18  1  0  0  0  0
 17 20  1  0  0  0  0
 18 22  1  1  0  0  0
 21 17  1  0  0  0  0
 23 28  1  0  0  0  0
 24 23  2  0  0  0  0
 24 25  1  0  0  0  0
 25 26  2  0  0  0  0
 26 27  1  0  0  0  0
 27 31  1  0  0  0  0
 28 27  2  0  0  0  0
 29 23  1  0  0  0  0
 30 25  1  0  0  0  0
 32 37  1  6  0  0  0
 32 33  1  0  0  0  0
 33 34  1  1  0  0  0
 33  6  1  0  0  0  0
 35 34  1  0  0  0  0
 36 39  1  6  0  0  0
 36 32  1  0  0  0  0
 36 35  1  0  0  0  0
 38 37  1  0  0  0  0
 40 39  1  0  0  0  0
M  END
>  <minimizedAffinity>
-5.2344532

$$$$

 OpenBabel03252506443D

 40 43  0  0  1  0  0  0  0  0999 V2000
   37.9080   28.5390   40.3310 N   0  0  1  0  0  0  0  0  0  0  0  0
   37.0650   27.7430   41.1990 C   0  0  0  0  0  0  0  0  0  0  0  0
   36.7920   28.3210   42.5350 C   0  0  0  0  0  0  0  0  0  0  0  0
   38.0640   28.5010   43.3080 C   0  0  0  0  0  0  0  0  0  0  0  0
   39.2290   28.7300   42.4160 C   0  0  0  0  0  0  0  0  0  0  0  0
   38.7550   29.3750   41.1230 C   0  0  2  0  0  0  0  0  0  0  0  0
   37.5680   26.7560   41.3730 H   0  0  0  0  0  0  0  0  0  0  0  0
   36.1030   27.4590   40.6920 H   0  0  0  0  0  0  0  0  0  0  0  0
   36.2390   27.4970   43.0950 H   0  0  0  0  0  0  0  0  0  0  0  0
   36.0800   29.1570   42.5820 H   0  0  0  0  0  0  0  0  0  0  0  0
   37.9900   29.3860   43.9890 H   0  0  0  0  0  0  0  0  0  0  0  0
   38.2670   27.6480   44.0030 H   0  0  0  0  0  0  0  0  0  0  0  0
   39.6760   27.7610   42.1090 H   0  0  0  0  0  0  0  0  0  0  0  0
   39.9820   29.4220   42.8400 H   0  0  0  0  0  0  0  0  0  0  0  0
   39.7120   29.4040   40.5300 H   0  0  0  0  0  0  0  0  0  0  0  0
   38.7150   27.7460   38.0070 C   0  0  1  0  0  0  0  0  0  0  0  0
   37.8050   26.7600   38.6060 C   0  0  0  0  0  0  0  0  0  0  0  0
   38.6210   27.6260   39.4960 C   0  0  2  0  0  0  0  0  0  0  0  0
   38.3160   28.6810   37.5760 H   0  0  0  0  0  0  0  0  0  0  0  0
   38.0560   25.6830   38.5030 H   0  0  0  0  0  0  0  0  0  0  0  0
   36.7060   26.9470   38.5320 H   0  0  0  0  0  0  0  0  0  0  0  0
   39.4840   27.1080   39.9980 H   0  0  0  0  0  0  0  0  0  0  0  0
   40.9970   28.2500   37.1050 C   0  0  0  0  0  0  0  0  0  0  0  0
   39.9640   27.3060   37.3280 C   0  0  0  0  0  0  0  0  0  0  0  0
   40.1570   26.0000   36.9170 C   0  0  0  0  0  0  0  0  0  0  0  0
   41.3280   25.6810   36.3160 N   0  0  0  0  0  0  0  0  0  0  0  0
   42.3110   26.5960   36.1080 C   0  0  0  0  0  0  0  0  0  0  0  0
   42.1550   27.8790   36.4970 N   0  0  0  0  0  0  0  0  0  0  0  0
   40.7870   29.2600   37.4490 H   0  0  0  0  0  0  0  0  0  0  0  0
   39.3770   25.2700   37.0810 H   0  0  0  0  0  0  0  0  0  0  0  0
   43.2440   26.3320   35.6260 H   0  0  0  0  0  0  0  0  0  0  0  0
   37.3060   31.2610   40.3140 C   0  0  2  0  0  3  0  0  0  0  0  0
   38.3530   30.7900   41.2930 C   0  0  2  0  0  3  0  0  0  0  0  0
   39.4390   31.6690   41.1270 O   0  0  0  0  0  0  0  0  0  0  0  0
   38.7860   32.9220   41.0390 C   0  0  0  0  0  2  0  0  0  0  0  0
   37.8080   32.6530   39.9170 C   0  0  2  0  0  3  0  0  0  0  0  0
   36.0440   31.3440   40.8940 O   0  0  0  0  0  0  0  0  0  0  0  0
   35.4200   30.8550   40.3120 H   0  0  0  0  0  0  0  0  0  0  0  0
   36.7410   33.5450   39.9330 O   0  0  0  0  0  0  0  0  0  0  0  0
   36.1190   33.2580   40.6750 H   0  0  0  0  0  0  0  0  0  0  0  0
  1  6  1  0  0  0  0
  1  2  1  1  0  0  0
  2  7  1  0  0  0  0
  2  3  1  0  0  0  0
  3 10  1  0  0  0  0
  3  9  1  0  0  0  0
  3  4  1  0  0  0  0
  4 11  1  0  0  0  0
  4 12  1  0  0  0  0
  5 14  1  0  0  0  0
  5  4  1  0  0  0  0
  6 15  1  6  0  0  0
  6 33  1  0  0  0  0
  6  5  1  0  0  0  0
  8  2  1  0  0  0  0
 13  5  1  0  0  0  0
 16 19  1  6  0  0  0
 16 17  1  0  0  0  0
 16 18  1  0  0  0  0
 17 18  1  0  0  0  0
 18 22  1  1  0  0  0
 18  1  1  0  0  0  0
 20 17  1  0  0  0  0
 21 17  1  0  0  0  0
 23 24  1  0  0  0  0
 23 29  1  0  0  0  0
 24 16  1  0  0  0  0
 25 30  1  0  0  0  0
 25 24  2  0  0  0  0
 26 25  1  0  0  0  0
 27 26  2  0  0  0  0
 27 28  1  0  0  0  0
 28 23  2  0  0  0  0
 31 27  1  0  0  0  0
 32 37  1  1  0  0  0
 32 33  1  0  0  0  0
 33 34  1  6  0  0  0
 35 34  1  0  0  0  0
 36 39  1  1  0  0  0
 36 32  1  0  0  0  0
 36 35  1  0  0  0  0
 38 37  1  0  0  0  0
 39 40  1  0  0  0  0
M  END
>  <minimizedAffinity>
-5.20518684

$$$$
