
 OpenBabel03252505183D

 34 37  0  0  1  0  0  0  0  0999 V2000
   46.0170   32.9190   46.7540 C   0  0  0  0  0  0  0  0  0  0  0  0
   45.1050   32.8290   47.7840 C   0  0  0  0  0  0  0  0  0  0  0  0
   45.3430   31.9580   48.8370 C   0  0  0  0  0  0  0  0  0  0  0  0
   46.5050   31.2080   48.8040 C   0  0  0  0  0  0  0  0  0  0  0  0
   47.3860   31.3410   47.7400 C   0  0  0  0  0  0  0  0  0  0  0  0
   47.1540   32.1920   46.7100 N   0  0  0  0  0  0  0  0  0  0  0  0
   44.1910   33.4150   47.8170 H   0  0  0  0  0  0  0  0  0  0  0  0
   44.6220   31.8920   49.6450 H   0  0  0  0  0  0  0  0  0  0  0  0
   46.7060   30.5330   49.6040 H   0  0  0  0  0  0  0  0  0  0  0  0
   44.5860   35.6540   44.7370 C   0  0  0  0  0  0  0  0  0  0  0  0
   45.2620   35.5450   43.5000 C   0  0  0  0  0  0  0  0  0  0  0  0
   46.1880   34.5320   43.4150 C   0  0  0  0  0  0  0  0  0  0  0  0
   46.4260   33.6930   44.4770 N   0  0  0  0  0  0  0  0  0  0  0  0
   45.7400   33.8420   45.6580 C   0  0  0  0  0  0  0  0  0  0  0  0
   44.8290   34.8210   45.7710 N   0  0  0  0  0  0  0  0  0  0  0  0
   43.8390   36.4520   44.8400 H   0  0  0  0  0  0  0  0  0  0  0  0
   45.0510   36.2220   42.6840 H   0  0  0  0  0  0  0  0  0  0  0  0
   46.9400   34.3060   42.1380 C   0  0  0  0  0  0  0  0  0  0  0  0
   48.0590   35.3280   41.9350 C   0  0  0  0  0  0  0  0  0  0  0  0
   48.2880   33.8040   42.1940 C   0  0  0  0  0  0  0  0  0  0  0  0
   46.2970   34.1350   41.2440 H   0  0  0  0  0  0  0  0  0  0  0  0
   48.3310   35.9720   42.7960 H   0  0  0  0  0  0  0  0  0  0  0  0
   48.1790   35.6780   40.9130 H   0  0  0  0  0  0  0  0  0  0  0  0
   48.7870   33.5470   43.1560 H   0  0  0  0  0  0  0  0  0  0  0  0
   48.7130   33.2870   41.3150 H   0  0  0  0  0  0  0  0  0  0  0  0
   48.6660   29.4540   46.7010 C   0  0  1  0  0  3  0  0  0  0  0  0
   48.6120   30.5170   47.7520 C   0  0  2  0  0  3  0  0  0  0  0  0
   48.7770   29.7880   48.9240 O   0  0  0  0  0  0  0  0  0  0  0  0
   49.8720   28.9970   48.6600 C   0  0  0  0  0  2  0  0  0  0  0  0
   49.8810   28.6560   47.1950 C   0  0  2  0  0  3  0  0  0  0  0  0
   47.5760   28.6210   46.6510 O   0  0  0  0  0  0  0  0  0  0  0  0
   46.8770   28.8830   46.0010 H   0  0  0  0  0  0  0  0  0  0  0  0
   51.0710   29.1850   46.6580 O   0  0  0  0  0  0  0  0  0  0  0  0
   50.9880   30.1660   46.5460 H   0  0  0  0  0  0  0  0  0  0  0  0
  1  2  1  0  0  0  0
  2  7  1  0  0  0  0
  2  3  2  0  0  0  0
  3  8  1  0  0  0  0
  4  3  1  0  0  0  0
  4  9  1  0  0  0  0
  5  4  2  0  0  0  0
  6  1  2  0  0  0  0
  6  5  1  0  0  0  0
 10 16  1  0  0  0  0
 10 15  1  0  0  0  0
 11 10  2  0  0  0  0
 12 11  1  0  0  0  0
 12 13  2  0  0  0  0
 13 14  1  0  0  0  0
 14 15  2  0  0  0  0
 14  1  1  0  0  0  0
 17 11  1  0  0  0  0
 18 20  1  0  0  0  0
 18 12  1  0  0  0  0
 19 18  1  0  0  0  0
 19 20  1  0  0  0  0
 19 22  1  0  0  0  0
 20 24  1  0  0  0  0
 21 18  1  0  0  0  0
 23 19  1  0  0  0  0
 25 20  1  0  0  0  0
 26 31  1  1  0  0  0
 26 30  1  0  0  0  0
 26 27  1  0  0  0  0
 27  5  1  1  0  0  0
 27 28  1  0  0  0  0
 29 28  1  0  0  0  0
 30 33  1  6  0  0  0
 30 29  1  0  0  0  0
 32 31  1  0  0  0  0
 34 33  1  0  0  0  0
M  END
>  <minimizedAffinity>
-5.78931189

>  <minimizedRMSD>
0.483387232

$$$$
