REMARK  Name = 
REMARK  6 active torsions:
REMARK  status: ('A' for Active; 'I' for Inactive)
REMARK    1  A    between atoms: C_3  and  C_18
REMARK    2  A    between atoms: C_7  and  N_8
REMARK    3  A    between atoms: C_12  and  C_13
REMARK    4  A    between atoms: C_16  and  C_37
REMARK    5  A    between atoms: O_35  and  C_36
REMARK    6  A    between atoms: C_40  and  O_41
REMARK                            x       y       z     vdW  Elec       q    Type
REMARK                         _______ _______ _______ _____ _____    ______ ____
ROOT
ATOM      1  F   UNL     1      46.717  33.467  44.904  0.00  0.00    +0.000 F 
ATOM      2  C   UNL     1      47.296  32.267  44.636  0.00  0.00    +0.000 A 
ATOM      3  C   UNL     1      48.088  32.165  43.522  0.00  0.00    +0.000 A 
ATOM      4  C   UNL     1      48.665  30.946  43.265  0.00  0.00    +0.000 A 
ATOM      5  C   UNL     1      48.440  29.883  44.111  0.00  0.00    +0.000 A 
ATOM      6  C   UNL     1      47.646  29.985  45.228  0.00  0.00    +0.000 A 
ATOM      7  C   UNL     1      47.062  31.221  45.486  0.00  0.00    +0.000 A 
ATOM      8  H   UNL     1      49.289  30.900  42.372  0.00  0.00    +0.000 HD
ATOM      9  H   UNL     1      48.945  28.962  43.816  0.00  0.00    +0.000 HD
ATOM     10  H   UNL     1      47.498  29.122  45.863  0.00  0.00    +0.000 HD
ENDROOT
BRANCH   7  11
ATOM     11  N   UNL     1      46.245  31.289  46.653  0.00  0.00    +0.000 N 
ATOM     12  C   UNL     1      45.171  30.445  47.101  0.00  0.00    +0.000 C 
ATOM     13  C   UNL     1      45.571  30.142  48.552  0.00  0.00    +0.000 C 
ATOM     14  C   UNL     1      46.454  31.304  48.930  0.00  0.00    +0.000 C 
ATOM     15  C   UNL     1      46.250  32.238  47.752  0.00  0.00    +0.000 C 
ATOM     16  H   UNL     1      45.126  29.480  46.541  0.00  0.00    +0.000 HD
ATOM     17  H   UNL     1      44.186  30.909  47.096  0.00  0.00    +0.000 HD
ATOM     18  H   UNL     1      44.685  30.027  49.207  0.00  0.00    +0.000 HD
ATOM     19  H   UNL     1      46.167  29.219  48.577  0.00  0.00    +0.000 HD
ATOM     20  H   UNL     1      46.209  31.760  49.902  0.00  0.00    +0.000 HD
ATOM     21  H   UNL     1      47.545  31.020  48.930  0.00  0.00    +0.000 HD
ATOM     22  H   UNL     1      47.178  32.873  47.697  0.00  0.00    +0.000 HD
BRANCH  15  23
ATOM     23  C   UNL     1      45.028  33.082  47.833  0.00  0.00    +0.000 C 
ATOM     24  H   UNL     1      45.329  34.165  47.863  0.00  0.00    +0.000 HD
ATOM     25  H   UNL     1      44.349  33.006  46.956  0.00  0.00    +0.000 HD
ATOM     26  H   UNL     1      44.488  32.904  48.801  0.00  0.00    +0.000 HD
ENDBRANCH  15  23
ENDBRANCH   7  11
BRANCH   3  31
ATOM     27  C   UNL     1      49.490  35.259  42.153  0.00  0.00    +0.000 A 
ATOM     28  C   UNL     1      48.701  35.489  41.022  0.00  0.00    +0.000 A 
ATOM     29  C   UNL     1      47.697  34.562  40.759  0.00  0.00    +0.000 A 
ATOM     30  N   UNL     1      47.534  33.499  41.597  0.00  0.00    +0.000 NA
ATOM     31  C   UNL     1      48.299  33.317  42.654  0.00  0.00    +0.000 A 
ATOM     32  N   UNL     1      49.274  34.190  42.935  0.00  0.00    +0.000 NA
ATOM     33  H   UNL     1      50.279  35.962  42.382  0.00  0.00    +0.000 HD
ATOM     34  H   UNL     1      48.914  36.349  40.439  0.00  0.00    +0.000 HD
BRANCH  29  36
ATOM     35  C   UNL     1      45.427  34.992  39.982  0.00  0.00    +0.000 C 
ATOM     36  C   UNL     1      46.839  34.778  39.564  0.00  0.00    +0.000 C 
ATOM     37  O   UNL     1      46.914  33.738  38.669  0.00  0.00    +0.000 OA
ATOM     38  C   UNL     1      45.663  33.226  38.467  0.00  0.00    +0.000 C 
ATOM     39  C   UNL     1      44.716  33.768  39.485  0.00  0.00    +0.000 C 
BRANCH  35  40
ATOM     40  O   UNL     1      44.880  36.159  39.451  0.00  0.00    +0.000 OA
ATOM     41  H   UNL     1      44.670  36.769  40.202  0.00  0.00    +0.000 HD
ENDBRANCH  35  40
BRANCH  39  42
ATOM     42  O   UNL     1      44.426  32.839  40.479  0.00  0.00    +0.000 OA
ATOM     43  H   UNL     1      44.774  31.929  40.288  0.00  0.00    +0.000 HD
ENDBRANCH  39  42
ENDBRANCH  29  36
ENDBRANCH   3  31
TORSDOF 6
