
 OpenBabel03252507073D

 24 25  0  0  1  0  0  0  0  0999 V2000
   44.7920   35.3350   45.0460 C   0  0  0  0  0  0  0  0  0  0  0  0
   45.3570   35.6070   43.7890 C   0  0  0  0  0  0  0  0  0  0  0  0
   46.1990   34.6440   43.2500 C   0  0  0  0  0  0  0  0  0  0  0  0
   46.4450   33.4890   43.9460 N   0  0  0  0  0  0  0  0  0  0  0  0
   45.8820   33.2640   45.1540 C   0  0  0  0  0  0  0  0  0  0  0  0
   45.0630   34.1830   45.6940 N   0  0  0  0  0  0  0  0  0  0  0  0
   44.1320   36.0820   45.4750 H   0  0  0  0  0  0  0  0  0  0  0  0
   45.1020   36.5420   43.3240 H   0  0  0  0  0  0  0  0  0  0  0  0
   47.4350   32.1570   46.7360 C   0  0  2  0  0  3  0  0  0  0  0  0
   46.2040   31.9840   45.8380 C   0  0  1  0  0  3  0  0  0  0  0  0
   45.1970   31.5820   46.7030 O   0  0  0  0  0  0  0  0  0  0  0  0
   45.7630   30.8810   47.7320 C   0  0  0  0  0  2  0  0  0  0  0  0
   47.2580   30.9560   47.6380 C   0  0  2  0  0  3  0  0  0  0  0  0
   47.2190   33.3400   47.4480 O   0  0  0  0  0  0  0  0  0  0  0  0
   46.2490   33.6100   47.4520 H   0  0  0  0  0  0  0  0  0  0  0  0
   47.8570   31.2160   48.8680 O   0  0  0  0  0  0  0  0  0  0  0  0
   47.8390   32.1850   49.0890 H   0  0  0  0  0  0  0  0  0  0  0  0
   46.7580   34.9200   42.0010 O   0  0  0  0  0  0  0  0  0  0  0  0
   48.5810   33.2160   41.1160 O   0  0  0  0  0  0  0  0  0  0  0  0
   48.4260   34.6000   41.7360 P   0  0  0  0  0  0  0  0  0  0  0  0
   49.0440   35.7980   40.7520 O   0  0  0  0  0  0  0  0  0  0  0  0
   48.5930   35.7620   39.8930 H   0  0  0  0  0  0  0  0  0  0  0  0
   49.1790   34.5810   43.2560 O   0  0  0  0  0  0  0  0  0  0  0  0
   48.9370   33.7290   43.6980 H   0  0  0  0  0  0  0  0  0  0  0  0
  1  7  1  0  0  0  0
  1  6  1  0  0  0  0
  2  1  2  0  0  0  0
  3  2  1  0  0  0  0
  3  4  2  0  0  0  0
  4  5  1  0  0  0  0
  5  6  2  0  0  0  0
  8  2  1  0  0  0  0
  9 14  1  1  0  0  0
  9 13  1  0  0  0  0
 10  5  1  1  0  0  0
 10 11  1  0  0  0  0
 10  9  1  0  0  0  0
 11 12  1  0  0  0  0
 13 12  1  0  0  0  0
 13 16  1  1  0  0  0
 14 15  1  0  0  0  0
 16 17  1  0  0  0  0
 18  3  1  0  0  0  0
 19 20  2  0  0  0  0
 20 18  1  0  0  0  0
 20 23  1  0  0  0  0
 21 20  1  0  0  0  0
 22 21  1  0  0  0  0
 23 24  1  0  0  0  0
M  END
>  <minimizedAffinity>
-5.27747011

>  <minimizedRMSD>
1.01523364

$$$$
