
 OpenBabel03252503253D

 47 52  0  0  1  0  0  0  0  0999 V2000
   35.4810   29.0640   40.2290 C   0  0  0  0  0  0  0  0  0  0  0  0
   35.7090   28.2870   39.0490 C   0  0  0  0  0  0  0  0  0  0  0  0
   36.4170   27.1210   39.1790 C   0  0  0  0  0  0  0  0  0  0  0  0
   36.8580   26.7780   40.4210 N   0  0  0  0  0  0  0  0  0  0  0  0
   36.6320   27.5270   41.5260 C   0  0  0  0  0  0  0  0  0  0  0  0
   35.9410   28.6720   41.4250 N   0  0  0  0  0  0  0  0  0  0  0  0
   34.9190   30.0050   40.1790 H   0  0  0  0  0  0  0  0  0  0  0  0
   36.6060   26.5190   38.3260 H   0  0  0  0  0  0  0  0  0  0  0  0
   35.1770   28.7870   37.7460 C   0  0  1  0  0  0  0  0  0  0  0  0
   35.2430   27.9560   36.5460 C   0  0  0  0  0  0  0  0  0  0  0  0
   33.9270   28.0980   37.2180 C   0  0  2  0  0  0  0  0  0  0  0  0
   35.1930   29.8860   37.6520 H   0  0  0  0  0  0  0  0  0  0  0  0
   35.7850   26.9590   36.6640 H   0  0  0  0  0  0  0  0  0  0  0  0
   35.5610   28.4460   35.6350 H   0  0  0  0  0  0  0  0  0  0  0  0
   33.5050   27.2990   37.8510 H   0  0  0  0  0  0  0  0  0  0  0  0
   32.9450   29.0260   36.5910 C   0  0  0  0  0  0  0  0  0  0  0  0
   32.9240   29.3580   35.2460 C   0  0  0  0  0  0  0  0  0  0  0  0
   31.9680   30.2230   34.7390 C   0  0  0  0  0  0  0  0  0  0  0  0
   31.0160   30.7710   35.5650 C   0  0  0  0  0  0  0  0  0  0  0  0
   30.0700   31.6040   35.0870 N   0  0  0  0  0  0  0  0  0  0  0  0
   29.1310   32.1250   35.9250 C   0  0  0  0  0  0  0  0  0  0  0  0
   29.0700   31.8550   37.2980 C   0  0  0  0  0  0  0  0  0  0  0  0
   30.0400   30.9990   37.7900 C   0  0  0  0  0  0  0  0  0  0  0  0
   30.9930   30.4710   36.9290 C   0  0  0  0  0  0  0  0  0  0  0  0
   31.9620   29.6060   37.3970 C   0  0  0  0  0  0  0  0  0  0  0  0
   33.6990   28.8980   34.6350 H   0  0  0  0  0  0  0  0  0  0  0  0
   32.0000   30.4480   33.6760 H   0  0  0  0  0  0  0  0  0  0  0  0
   28.3800   32.7930   35.5160 H   0  0  0  0  0  0  0  0  0  0  0  0
   28.2930   32.3100   37.8950 H   0  0  0  0  0  0  0  0  0  0  0  0
   30.0330   30.7610   38.8440 H   0  0  0  0  0  0  0  0  0  0  0  0
   31.8780   29.4320   38.4620 H   0  0  0  0  0  0  0  0  0  0  0  0
   37.1630   27.0400   42.8260 C   0  0  2  0  0  0  0  0  0  0  0  0
   37.5920   27.9560   43.8640 C   0  0  0  0  0  0  0  0  0  0  0  0
   38.6800   27.3320   43.0210 C   0  0  1  0  0  0  0  0  0  0  0  0
   36.9600   25.9590   43.0460 H   0  0  0  0  0  0  0  0  0  0  0  0
   37.5810   27.6860   44.9220 H   0  0  0  0  0  0  0  0  0  0  0  0
   37.3870   29.0500   43.6960 H   0  0  0  0  0  0  0  0  0  0  0  0
   39.1460   28.0100   42.2730 H   0  0  0  0  0  0  0  0  0  0  0  0
   40.3570   25.6330   42.4770 C   0  0  1  0  0  3  0  0  0  0  0  0
   39.5530   26.2710   43.5960 C   0  0  1  0  0  3  0  0  0  0  0  0
   40.5480   26.8810   44.3490 O   0  0  0  0  0  0  0  0  0  0  0  0
   41.3330   27.5430   43.4130 C   0  0  0  0  0  2  0  0  0  0  0  0
   41.2620   26.8110   42.1130 C   0  0  1  0  0  3  0  0  0  0  0  0
   41.1520   24.6080   42.9850 O   0  0  0  0  0  0  0  0  0  0  0  0
   41.8370   24.3220   42.3590 H   0  0  0  0  0  0  0  0  0  0  0  0
   42.5070   26.4170   41.6700 O   0  0  0  0  0  0  0  0  0  0  0  0
   43.1760   26.5920   42.4010 H   0  0  0  0  0  0  0  0  0  0  0  0
  1  6  1  0  0  0  0
  2  3  1  0  0  0  0
  2  1  2  0  0  0  0
  3  4  2  0  0  0  0
  4  5  1  0  0  0  0
  5 32  1  0  0  0  0
  6  5  2  0  0  0  0
  7  1  1  0  0  0  0
  8  3  1  0  0  0  0
  9 12  1  6  0  0  0
  9  2  1  0  0  0  0
 10 13  1  0  0  0  0
 10 11  1  0  0  0  0
 10  9  1  0  0  0  0
 11  9  1  0  0  0  0
 11 15  1  1  0  0  0
 14 10  1  0  0  0  0
 16 11  1  0  0  0  0
 16 25  1  0  0  0  0
 17 16  2  0  0  0  0
 18 17  1  0  0  0  0
 18 19  2  0  0  0  0
 19 24  1  0  0  0  0
 20 19  1  0  0  0  0
 20 21  2  0  0  0  0
 21 22  1  0  0  0  0
 22 23  2  0  0  0  0
 22 29  1  0  0  0  0
 23 30  1  0  0  0  0
 24 25  2  0  0  0  0
 24 23  1  0  0  0  0
 25 31  1  0  0  0  0
 26 17  1  0  0  0  0
 27 18  1  0  0  0  0
 28 21  1  0  0  0  0
 32 34  1  0  0  0  0
 32 35  1  1  0  0  0
 32 33  1  0  0  0  0
 33 36  1  0  0  0  0
 34 38  1  6  0  0  0
 34 40  1  0  0  0  0
 34 33  1  0  0  0  0
 37 33  1  0  0  0  0
 39 44  1  1  0  0  0
 39 40  1  0  0  0  0
 40 41  1  1  0  0  0
 42 41  1  0  0  0  0
 43 46  1  1  0  0  0
 43 39  1  0  0  0  0
 43 42  1  0  0  0  0
 45 44  1  0  0  0  0
 46 47  1  0  0  0  0
M  END
>  <minimizedAffinity>
-6.93324327

$$$$

 OpenBabel03252503253D

 47 52  0  0  1  0  0  0  0  0999 V2000
   38.4180   29.6500   40.5970 C   0  0  0  0  0  0  0  0  0  0  0  0
   39.1600   29.1000   41.6900 C   0  0  0  0  0  0  0  0  0  0  0  0
   39.7910   29.9730   42.5370 C   0  0  0  0  0  0  0  0  0  0  0  0
   39.6720   31.3060   42.2840 N   0  0  0  0  0  0  0  0  0  0  0  0
   38.9660   31.8070   41.2430 C   0  0  0  0  0  0  0  0  0  0  0  0
   38.3390   30.9740   40.4000 N   0  0  0  0  0  0  0  0  0  0  0  0
   37.8940   28.9950   39.8900 H   0  0  0  0  0  0  0  0  0  0  0  0
   40.3490   29.6010   43.3580 H   0  0  0  0  0  0  0  0  0  0  0  0
   39.2150   27.6160   41.8450 C   0  0  1  0  0  0  0  0  0  0  0  0
   39.1110   27.0000   43.1660 C   0  0  0  0  0  0  0  0  0  0  0  0
   37.9260   26.9330   42.2750 C   0  0  2  0  0  0  0  0  0  0  0  0
   39.7830   27.1070   41.0470 H   0  0  0  0  0  0  0  0  0  0  0  0
   39.0620   27.7230   44.0460 H   0  0  0  0  0  0  0  0  0  0  0  0
   39.8040   26.1990   43.3820 H   0  0  0  0  0  0  0  0  0  0  0  0
   37.0500   27.5880   42.4180 H   0  0  0  0  0  0  0  0  0  0  0  0
   37.6690   25.6360   41.5870 C   0  0  0  0  0  0  0  0  0  0  0  0
   38.2050   24.4200   41.9770 C   0  0  0  0  0  0  0  0  0  0  0  0
   37.9090   23.2560   41.2880 C   0  0  0  0  0  0  0  0  0  0  0  0
   37.0710   23.2840   40.1980 C   0  0  0  0  0  0  0  0  0  0  0  0
   36.7610   22.1600   39.5240 N   0  0  0  0  0  0  0  0  0  0  0  0
   35.9200   22.2140   38.4540 C   0  0  0  0  0  0  0  0  0  0  0  0
   35.3310   23.3930   37.9800 C   0  0  0  0  0  0  0  0  0  0  0  0
   35.6480   24.5490   38.6710 C   0  0  0  0  0  0  0  0  0  0  0  0
   36.5060   24.4840   39.7620 C   0  0  0  0  0  0  0  0  0  0  0  0
   36.8250   25.6230   40.4730 C   0  0  0  0  0  0  0  0  0  0  0  0
   38.8630   24.4510   42.8450 H   0  0  0  0  0  0  0  0  0  0  0  0
   38.3580   22.3300   41.6380 H   0  0  0  0  0  0  0  0  0  0  0  0
   35.6850   21.2940   37.9270 H   0  0  0  0  0  0  0  0  0  0  0  0
   34.6750   23.3520   37.1220 H   0  0  0  0  0  0  0  0  0  0  0  0
   35.2170   25.4840   38.3420 H   0  0  0  0  0  0  0  0  0  0  0  0
   36.3530   26.5080   40.0680 H   0  0  0  0  0  0  0  0  0  0  0  0
   38.9100   33.2840   41.0770 C   0  0  2  0  0  0  0  0  0  0  0  0
   38.5130   33.8950   39.8250 C   0  0  0  0  0  0  0  0  0  0  0  0
   39.9960   33.8370   40.1090 C   0  0  1  0  0  0  0  0  0  0  0  0
   38.9300   33.8690   42.0350 H   0  0  0  0  0  0  0  0  0  0  0  0
   38.0650   34.8890   39.7770 H   0  0  0  0  0  0  0  0  0  0  0  0
   38.1250   33.2070   39.0230 H   0  0  0  0  0  0  0  0  0  0  0  0
   40.5610   33.0780   39.5250 H   0  0  0  0  0  0  0  0  0  0  0  0
   42.1200   34.6990   40.9700 C   0  0  1  0  0  3  0  0  0  0  0  0
   40.7330   35.0770   40.4820 C   0  0  1  0  0  3  0  0  0  0  0  0
   41.0220   35.7810   39.3200 O   0  0  0  0  0  0  0  0  0  0  0  0
   41.9450   34.9850   38.6540 C   0  0  0  0  0  2  0  0  0  0  0  0
   42.7220   34.1960   39.6570 C   0  0  1  0  0  3  0  0  0  0  0  0
   42.8150   35.8420   41.3630 O   0  0  0  0  0  0  0  0  0  0  0  0
   43.7660   35.6800   41.4720 H   0  0  0  0  0  0  0  0  0  0  0  0
   44.0780   34.4270   39.5630 O   0  0  0  0  0  0  0  0  0  0  0  0
   44.2280   35.1900   38.9230 H   0  0  0  0  0  0  0  0  0  0  0  0
  1  2  1  0  0  0  0
  2  9  1  0  0  0  0
  2  3  2  0  0  0  0
  3  8  1  0  0  0  0
  4  3  1  0  0  0  0
  5  4  2  0  0  0  0
  6  1  2  0  0  0  0
  6  5  1  0  0  0  0
  7  1  1  0  0  0  0
  9 12  1  6  0  0  0
  9 11  1  0  0  0  0
  9 10  1  0  0  0  0
 10 14  1  0  0  0  0
 10 13  1  0  0  0  0
 11 15  1  1  0  0  0
 11 10  1  0  0  0  0
 16 17  1  0  0  0  0
 16 11  1  0  0  0  0
 17 26  1  0  0  0  0
 18 27  1  0  0  0  0
 18 17  2  0  0  0  0
 19 18  1  0  0  0  0
 20 19  2  0  0  0  0
 21 20  1  0  0  0  0
 22 21  2  0  0  0  0
 22 23  1  0  0  0  0
 23 24  2  0  0  0  0
 24 19  1  0  0  0  0
 24 25  1  0  0  0  0
 25 16  2  0  0  0  0
 28 21  1  0  0  0  0
 29 22  1  0  0  0  0
 30 23  1  0  0  0  0
 31 25  1  0  0  0  0
 32  5  1  0  0  0  0
 32 35  1  1  0  0  0
 33 34  1  0  0  0  0
 33 32  1  0  0  0  0
 34 38  1  6  0  0  0
 34 40  1  0  0  0  0
 34 32  1  0  0  0  0
 36 33  1  0  0  0  0
 37 33  1  0  0  0  0
 39 44  1  6  0  0  0
 40 41  1  6  0  0  0
 40 39  1  0  0  0  0
 42 41  1  0  0  0  0
 42 43  1  0  0  0  0
 43 46  1  1  0  0  0
 43 39  1  0  0  0  0
 44 45  1  0  0  0  0
 47 46  1  0  0  0  0
M  END
>  <minimizedAffinity>
-6.73533106

$$$$

 OpenBabel03252503253D

 47 52  0  0  1  0  0  0  0  0999 V2000
   35.8290   27.5790   39.3300 C   0  0  0  0  0  0  0  0  0  0  0  0
   35.3190   28.9150   39.2880 C   0  0  0  0  0  0  0  0  0  0  0  0
   35.5400   29.7180   40.3760 C   0  0  0  0  0  0  0  0  0  0  0  0
   36.2300   29.1920   41.4270 N   0  0  0  0  0  0  0  0  0  0  0  0
   36.7040   27.9240   41.4480 C   0  0  0  0  0  0  0  0  0  0  0  0
   36.5010   27.1190   40.3950 N   0  0  0  0  0  0  0  0  0  0  0  0
   35.6790   26.8960   38.4850 H   0  0  0  0  0  0  0  0  0  0  0  0
   35.1770   30.7150   40.3810 H   0  0  0  0  0  0  0  0  0  0  0  0
   34.5700   29.3600   38.0750 C   0  0  1  0  0  0  0  0  0  0  0  0
   34.4350   28.4780   36.9190 C   0  0  0  0  0  0  0  0  0  0  0  0
   33.2520   28.6540   37.7980 C   0  0  2  0  0  0  0  0  0  0  0  0
   34.5660   30.4540   37.9320 H   0  0  0  0  0  0  0  0  0  0  0  0
   34.9920   27.4860   36.9850 H   0  0  0  0  0  0  0  0  0  0  0  0
   34.5910   28.9270   35.9460 H   0  0  0  0  0  0  0  0  0  0  0  0
   32.9470   27.8850   38.5270 H   0  0  0  0  0  0  0  0  0  0  0  0
   32.1730   29.5570   37.3080 C   0  0  0  0  0  0  0  0  0  0  0  0
   31.1540   30.0640   38.0970 C   0  0  0  0  0  0  0  0  0  0  0  0
   30.1920   30.9080   37.5660 C   0  0  0  0  0  0  0  0  0  0  0  0
   30.2320   31.2610   36.2370 C   0  0  0  0  0  0  0  0  0  0  0  0
   29.3130   32.0910   35.7060 N   0  0  0  0  0  0  0  0  0  0  0  0
   29.3810   32.4350   34.3900 C   0  0  0  0  0  0  0  0  0  0  0  0
   30.3690   31.9730   33.5100 C   0  0  0  0  0  0  0  0  0  0  0  0
   31.3130   31.1200   34.0540 C   0  0  0  0  0  0  0  0  0  0  0  0
   31.2370   30.7770   35.3980 C   0  0  0  0  0  0  0  0  0  0  0  0
   32.1760   29.9380   35.9640 C   0  0  0  0  0  0  0  0  0  0  0  0
   31.1660   29.7540   39.1410 H   0  0  0  0  0  0  0  0  0  0  0  0
   29.4160   31.2750   38.2310 H   0  0  0  0  0  0  0  0  0  0  0  0
   28.6290   33.1050   33.9850 H   0  0  0  0  0  0  0  0  0  0  0  0
   30.3520   32.2910   32.4780 H   0  0  0  0  0  0  0  0  0  0  0  0
   32.0950   30.7390   33.4140 H   0  0  0  0  0  0  0  0  0  0  0  0
   32.9140   29.6030   35.2460 H   0  0  0  0  0  0  0  0  0  0  0  0
   37.4450   27.4710   42.6540 C   0  0  2  0  0  0  0  0  0  0  0  0
   38.4650   28.2910   43.2750 C   0  0  0  0  0  0  0  0  0  0  0  0
   38.9480   27.1740   42.3790 C   0  0  1  0  0  0  0  0  0  0  0  0
   36.9850   26.6000   43.1930 H   0  0  0  0  0  0  0  0  0  0  0  0
   38.7160   28.2090   44.3340 H   0  0  0  0  0  0  0  0  0  0  0  0
   38.5840   29.3400   42.8830 H   0  0  0  0  0  0  0  0  0  0  0  0
   39.3350   27.4950   41.3880 H   0  0  0  0  0  0  0  0  0  0  0  0
   38.8250   24.7300   42.4680 C   0  0  1  0  0  3  0  0  0  0  0  0
   39.5650   25.9550   42.9750 C   0  0  1  0  0  3  0  0  0  0  0  0
   40.8230   25.7810   42.4110 O   0  0  0  0  0  0  0  0  0  0  0  0
   40.5660   25.4580   41.0850 C   0  0  0  0  0  2  0  0  0  0  0  0
   39.2420   24.7720   40.9980 C   0  0  1  0  0  3  0  0  0  0  0  0
   39.3590   23.5790   43.0440 O   0  0  0  0  0  0  0  0  0  0  0  0
   39.0720   22.7690   42.5920 H   0  0  0  0  0  0  0  0  0  0  0  0
   39.3420   23.5190   40.4300 O   0  0  0  0  0  0  0  0  0  0  0  0
   40.3180   23.2920   40.3290 H   0  0  0  0  0  0  0  0  0  0  0  0
  1  6  1  0  0  0  0
  2  1  2  0  0  0  0
  2  3  1  0  0  0  0
  3  8  1  0  0  0  0
  3  4  2  0  0  0  0
  4  5  1  0  0  0  0
  5 32  1  0  0  0  0
  6  5  2  0  0  0  0
  7  1  1  0  0  0  0
  9 12  1  6  0  0  0
  9  2  1  0  0  0  0
 10 13  1  0  0  0  0
 10 11  1  0  0  0  0
 10  9  1  0  0  0  0
 11  9  1  0  0  0  0
 11 15  1  1  0  0  0
 14 10  1  0  0  0  0
 16 11  1  0  0  0  0
 16 17  1  0  0  0  0
 17 26  1  0  0  0  0
 18 17  2  0  0  0  0
 18 27  1  0  0  0  0
 19 18  1  0  0  0  0
 20 19  1  0  0  0  0
 21 20  2  0  0  0  0
 22 23  2  0  0  0  0
 22 21  1  0  0  0  0
 23 24  1  0  0  0  0
 24 25  1  0  0  0  0
 24 19  2  0  0  0  0
 25 16  2  0  0  0  0
 28 21  1  0  0  0  0
 29 22  1  0  0  0  0
 30 23  1  0  0  0  0
 31 25  1  0  0  0  0
 32 35  1  1  0  0  0
 32 33  1  0  0  0  0
 33 36  1  0  0  0  0
 34 38  1  6  0  0  0
 34 32  1  0  0  0  0
 34 40  1  0  0  0  0
 34 33  1  0  0  0  0
 37 33  1  0  0  0  0
 39 40  1  0  0  0  0
 39 44  1  1  0  0  0
 40 41  1  6  0  0  0
 42 41  1  0  0  0  0
 43 46  1  1  0  0  0
 43 42  1  0  0  0  0
 43 39  1  0  0  0  0
 45 44  1  0  0  0  0
 47 46  1  0  0  0  0
M  END
>  <minimizedAffinity>
-6.71551943

$$$$

 OpenBabel03252503253D

 47 52  0  0  1  0  0  0  0  0999 V2000
   38.8780   30.5880   41.7920 C   0  0  0  0  0  0  0  0  0  0  0  0
   37.5640   30.3670   41.2690 C   0  0  0  0  0  0  0  0  0  0  0  0
   36.9400   31.4140   40.6430 C   0  0  0  0  0  0  0  0  0  0  0  0
   37.6110   32.5970   40.5590 N   0  0  0  0  0  0  0  0  0  0  0  0
   38.8540   32.7880   41.0600 C   0  0  0  0  0  0  0  0  0  0  0  0
   39.4850   31.7780   41.6770 N   0  0  0  0  0  0  0  0  0  0  0  0
   39.4200   29.7830   42.3010 H   0  0  0  0  0  0  0  0  0  0  0  0
   35.9670   31.2870   40.2440 H   0  0  0  0  0  0  0  0  0  0  0  0
   36.9410   29.0200   41.4400 C   0  0  1  0  0  0  0  0  0  0  0  0
   35.6410   28.7200   40.8460 C   0  0  0  0  0  0  0  0  0  0  0  0
   36.8480   28.1560   40.1920 C   0  0  2  0  0  0  0  0  0  0  0  0
   37.2560   28.4990   42.3610 H   0  0  0  0  0  0  0  0  0  0  0  0
   35.1230   29.5910   40.3230 H   0  0  0  0  0  0  0  0  0  0  0  0
   34.9350   28.1880   41.4700 H   0  0  0  0  0  0  0  0  0  0  0  0
   37.2670   28.5870   39.2670 H   0  0  0  0  0  0  0  0  0  0  0  0
   37.1360   26.7140   40.4320 C   0  0  0  0  0  0  0  0  0  0  0  0
   36.9510   26.0660   41.6420 C   0  0  0  0  0  0  0  0  0  0  0  0
   37.2340   24.7170   41.7810 C   0  0  0  0  0  0  0  0  0  0  0  0
   37.7060   23.9910   40.7130 C   0  0  0  0  0  0  0  0  0  0  0  0
   37.9740   22.6750   40.8260 N   0  0  0  0  0  0  0  0  0  0  0  0
   38.4300   21.9760   39.7500 C   0  0  0  0  0  0  0  0  0  0  0  0
   38.6540   22.5390   38.4870 C   0  0  0  0  0  0  0  0  0  0  0  0
   38.3780   23.8900   38.3700 C   0  0  0  0  0  0  0  0  0  0  0  0
   37.9120   24.5950   39.4720 C   0  0  0  0  0  0  0  0  0  0  0  0
   37.6200   25.9410   39.3730 C   0  0  0  0  0  0  0  0  0  0  0  0
   36.5760   26.6850   42.4570 H   0  0  0  0  0  0  0  0  0  0  0  0
   37.0700   24.2610   42.7540 H   0  0  0  0  0  0  0  0  0  0  0  0
   38.6390   20.9170   39.8650 H   0  0  0  0  0  0  0  0  0  0  0  0
   39.0190   21.9160   37.6840 H   0  0  0  0  0  0  0  0  0  0  0  0
   38.5350   24.3690   37.4140 H   0  0  0  0  0  0  0  0  0  0  0  0
   37.8130   26.3330   38.3830 H   0  0  0  0  0  0  0  0  0  0  0  0
   39.4790   34.1270   40.9000 C   0  0  2  0  0  0  0  0  0  0  0  0
   39.0030   35.0780   39.9160 C   0  0  0  0  0  0  0  0  0  0  0  0
   40.2430   34.2940   39.5540 C   0  0  1  0  0  0  0  0  0  0  0  0
   40.1430   34.4430   41.7480 H   0  0  0  0  0  0  0  0  0  0  0  0
   39.1260   36.1550   40.0390 H   0  0  0  0  0  0  0  0  0  0  0  0
   38.0570   34.8110   39.3660 H   0  0  0  0  0  0  0  0  0  0  0  0
   40.0910   33.4870   38.8040 H   0  0  0  0  0  0  0  0  0  0  0  0
   42.6310   33.9550   39.9700 C   0  0  1  0  0  3  0  0  0  0  0  0
   41.5740   34.9630   39.5560 C   0  0  1  0  0  3  0  0  0  0  0  0
   41.9330   35.2280   38.2410 O   0  0  0  0  0  0  0  0  0  0  0  0
   42.1470   33.9750   37.6810 C   0  0  0  0  0  2  0  0  0  0  0  0
   42.5940   33.0330   38.7500 C   0  0  1  0  0  3  0  0  0  0  0  0
   43.8820   34.5690   40.0180 O   0  0  0  0  0  0  0  0  0  0  0  0
   44.6100   33.9280   40.0610 H   0  0  0  0  0  0  0  0  0  0  0  0
   43.8190   32.4660   38.4650 O   0  0  0  0  0  0  0  0  0  0  0  0
   44.2020   32.9280   37.6570 H   0  0  0  0  0  0  0  0  0  0  0  0
  1  7  1  0  0  0  0
  2  9  1  0  0  0  0
  2  1  2  0  0  0  0
  3  2  1  0  0  0  0
  4  3  2  0  0  0  0
  4  5  1  0  0  0  0
  5  6  2  0  0  0  0
  6  1  1  0  0  0  0
  8  3  1  0  0  0  0
  9 12  1  1  0  0  0
 10  9  1  0  0  0  0
 10 14  1  0  0  0  0
 11 15  1  6  0  0  0
 11 16  1  0  0  0  0
 11 10  1  0  0  0  0
 11  9  1  0  0  0  0
 13 10  1  0  0  0  0
 16 17  1  0  0  0  0
 17 18  2  0  0  0  0
 17 26  1  0  0  0  0
 18 27  1  0  0  0  0
 19 20  1  0  0  0  0
 19 18  1  0  0  0  0
 21 28  1  0  0  0  0
 21 20  2  0  0  0  0
 22 21  1  0  0  0  0
 23 22  2  0  0  0  0
 23 24  1  0  0  0  0
 24 19  2  0  0  0  0
 25 24  1  0  0  0  0
 25 16  2  0  0  0  0
 29 22  1  0  0  0  0
 30 23  1  0  0  0  0
 31 25  1  0  0  0  0
 32  5  1  0  0  0  0
 32 35  1  1  0  0  0
 33 36  1  0  0  0  0
 33 32  1  0  0  0  0
 34 38  1  6  0  0  0
 34 40  1  0  0  0  0
 34 33  1  0  0  0  0
 34 32  1  0  0  0  0
 37 33  1  0  0  0  0
 39 44  1  6  0  0  0
 40 41  1  6  0  0  0
 40 39  1  0  0  0  0
 42 41  1  0  0  0  0
 42 43  1  0  0  0  0
 43 46  1  6  0  0  0
 43 39  1  0  0  0  0
 44 45  1  0  0  0  0
 47 46  1  0  0  0  0
M  END
>  <minimizedAffinity>
-6.6145997

$$$$

 OpenBabel03252503253D

 47 52  0  0  1  0  0  0  0  0999 V2000
   38.2660   29.7960   40.0560 C   0  0  0  0  0  0  0  0  0  0  0  0
   38.7890   29.0750   41.1770 C   0  0  0  0  0  0  0  0  0  0  0  0
   39.3130   29.8000   42.2150 C   0  0  0  0  0  0  0  0  0  0  0  0
   39.3020   31.1580   42.1130 N   0  0  0  0  0  0  0  0  0  0  0  0
   38.8030   31.8220   41.0440 C   0  0  0  0  0  0  0  0  0  0  0  0
   38.2840   31.1360   40.0160 N   0  0  0  0  0  0  0  0  0  0  0  0
   37.8350   29.2630   39.2000 H   0  0  0  0  0  0  0  0  0  0  0  0
   39.7090   29.2990   43.0620 H   0  0  0  0  0  0  0  0  0  0  0  0
   38.7460   27.5820   41.1530 C   0  0  1  0  0  0  0  0  0  0  0  0
   38.5080   26.8250   42.3790 C   0  0  0  0  0  0  0  0  0  0  0  0
   37.3910   26.9410   41.4080 C   0  0  2  0  0  0  0  0  0  0  0  0
   39.3420   27.1340   40.3390 H   0  0  0  0  0  0  0  0  0  0  0  0
   38.4350   27.4410   43.3350 H   0  0  0  0  0  0  0  0  0  0  0  0
   39.1350   25.9580   42.5420 H   0  0  0  0  0  0  0  0  0  0  0  0
   36.5460   27.6320   41.5700 H   0  0  0  0  0  0  0  0  0  0  0  0
   37.1120   25.7550   40.5520 C   0  0  0  0  0  0  0  0  0  0  0  0
   36.3250   25.7750   39.4120 C   0  0  0  0  0  0  0  0  0  0  0  0
   36.1230   24.6270   38.6630 C   0  0  0  0  0  0  0  0  0  0  0  0
   36.7030   23.4380   39.0390 C   0  0  0  0  0  0  0  0  0  0  0  0
   36.5280   22.3150   38.3160 N   0  0  0  0  0  0  0  0  0  0  0  0
   37.1240   21.1530   38.7040 C   0  0  0  0  0  0  0  0  0  0  0  0
   37.9330   21.0280   39.8400 C   0  0  0  0  0  0  0  0  0  0  0  0
   38.1130   22.1820   40.5840 C   0  0  0  0  0  0  0  0  0  0  0  0
   37.5040   23.3630   40.1800 C   0  0  0  0  0  0  0  0  0  0  0  0
   37.6810   24.5270   40.9010 C   0  0  0  0  0  0  0  0  0  0  0  0
   35.8880   26.7400   39.1570 H   0  0  0  0  0  0  0  0  0  0  0  0
   35.4960   24.7020   37.7790 H   0  0  0  0  0  0  0  0  0  0  0  0
   36.9680   20.2610   38.1050 H   0  0  0  0  0  0  0  0  0  0  0  0
   38.3680   20.0690   40.0810 H   0  0  0  0  0  0  0  0  0  0  0  0
   38.7300   22.1350   41.4700 H   0  0  0  0  0  0  0  0  0  0  0  0
   38.3070   24.3810   41.7710 H   0  0  0  0  0  0  0  0  0  0  0  0
   38.8470   33.3080   41.0560 C   0  0  2  0  0  0  0  0  0  0  0  0
   38.4180   34.0920   39.9160 C   0  0  0  0  0  0  0  0  0  0  0  0
   39.9070   33.9020   40.0830 C   0  0  1  0  0  0  0  0  0  0  0  0
   38.9720   33.7700   42.0710 H   0  0  0  0  0  0  0  0  0  0  0  0
   38.0420   35.1120   40.0170 H   0  0  0  0  0  0  0  0  0  0  0  0
   37.9280   33.5340   39.0690 H   0  0  0  0  0  0  0  0  0  0  0  0
   40.3750   33.1840   39.3750 H   0  0  0  0  0  0  0  0  0  0  0  0
   42.1590   34.5230   40.8160 C   0  0  1  0  0  3  0  0  0  0  0  0
   40.7560   35.0360   40.5440 C   0  0  1  0  0  3  0  0  0  0  0  0
   40.9690   35.8890   39.4680 O   0  0  0  0  0  0  0  0  0  0  0  0
   41.7660   35.1560   38.5980 C   0  0  0  0  0  2  0  0  0  0  0  0
   42.5890   34.1910   39.3860 C   0  0  1  0  0  3  0  0  0  0  0  0
   42.9630   35.5590   41.2870 O   0  0  0  0  0  0  0  0  0  0  0  0
   43.9080   35.3370   41.2650 H   0  0  0  0  0  0  0  0  0  0  0  0
   43.9410   34.3670   39.1750 O   0  0  0  0  0  0  0  0  0  0  0  0
   44.0720   35.2080   38.6380 H   0  0  0  0  0  0  0  0  0  0  0  0
  1  2  1  0  0  0  0
  2  3  2  0  0  0  0
  3  8  1  0  0  0  0
  4  3  1  0  0  0  0
  5 32  1  0  0  0  0
  5  4  2  0  0  0  0
  6  1  2  0  0  0  0
  6  5  1  0  0  0  0
  7  1  1  0  0  0  0
  9 12  1  6  0  0  0
  9  2  1  0  0  0  0
  9 11  1  0  0  0  0
  9 10  1  0  0  0  0
 10 14  1  0  0  0  0
 10 13  1  0  0  0  0
 11 15  1  1  0  0  0
 11 10  1  0  0  0  0
 16 25  1  0  0  0  0
 16 11  1  0  0  0  0
 17 16  2  0  0  0  0
 18 19  2  0  0  0  0
 18 17  1  0  0  0  0
 19 24  1  0  0  0  0
 20 21  2  0  0  0  0
 20 19  1  0  0  0  0
 21 22  1  0  0  0  0
 22 29  1  0  0  0  0
 22 23  2  0  0  0  0
 23 30  1  0  0  0  0
 24 23  1  0  0  0  0
 24 25  2  0  0  0  0
 25 31  1  0  0  0  0
 26 17  1  0  0  0  0
 27 18  1  0  0  0  0
 28 21  1  0  0  0  0
 32 35  1  1  0  0  0
 33 36  1  0  0  0  0
 33 34  1  0  0  0  0
 33 32  1  0  0  0  0
 34 38  1  6  0  0  0
 34 40  1  0  0  0  0
 34 32  1  0  0  0  0
 37 33  1  0  0  0  0
 39 44  1  6  0  0  0
 40 41  1  6  0  0  0
 40 39  1  0  0  0  0
 42 43  1  0  0  0  0
 42 41  1  0  0  0  0
 43 46  1  1  0  0  0
 43 39  1  0  0  0  0
 45 44  1  0  0  0  0
 47 46  1  0  0  0  0
M  END
>  <minimizedAffinity>
-6.37868977

$$$$

 OpenBabel03252503253D

 47 52  0  0  1  0  0  0  0  0999 V2000
   36.9870   31.0350   38.1900 C   0  0  0  0  0  0  0  0  0  0  0  0
   37.0820   29.8700   37.3630 C   0  0  0  0  0  0  0  0  0  0  0  0
   38.2390   29.1380   37.4210 C   0  0  0  0  0  0  0  0  0  0  0  0
   39.2230   29.5660   38.2610 N   0  0  0  0  0  0  0  0  0  0  0  0
   39.1140   30.6710   39.0350 C   0  0  0  0  0  0  0  0  0  0  0  0
   37.9920   31.4040   38.9960 N   0  0  0  0  0  0  0  0  0  0  0  0
   36.0830   31.6550   38.1810 H   0  0  0  0  0  0  0  0  0  0  0  0
   38.3450   28.2690   36.8230 H   0  0  0  0  0  0  0  0  0  0  0  0
   35.9290   29.5210   36.4800 C   0  0  1  0  0  0  0  0  0  0  0  0
   35.7210   28.1450   36.0360 C   0  0  0  0  0  0  0  0  0  0  0  0
   34.8340   28.6700   37.1040 C   0  0  2  0  0  0  0  0  0  0  0  0
   35.5840   30.3580   35.8500 H   0  0  0  0  0  0  0  0  0  0  0  0
   36.5260   27.3980   36.3450 H   0  0  0  0  0  0  0  0  0  0  0  0
   35.4670   28.0060   34.9940 H   0  0  0  0  0  0  0  0  0  0  0  0
   34.9720   28.3970   38.1640 H   0  0  0  0  0  0  0  0  0  0  0  0
   33.4560   29.0680   36.7030 C   0  0  0  0  0  0  0  0  0  0  0  0
   33.0030   29.1260   35.3960 C   0  0  0  0  0  0  0  0  0  0  0  0
   31.7000   29.4980   35.1070 C   0  0  0  0  0  0  0  0  0  0  0  0
   30.8260   29.8180   36.1190 C   0  0  0  0  0  0  0  0  0  0  0  0
   29.5520   30.1690   35.8580 N   0  0  0  0  0  0  0  0  0  0  0  0
   28.7020   30.4710   36.8790 C   0  0  0  0  0  0  0  0  0  0  0  0
   29.0650   30.4460   38.2320 C   0  0  0  0  0  0  0  0  0  0  0  0
   30.3730   30.0850   38.5020 C   0  0  0  0  0  0  0  0  0  0  0  0
   31.2320   29.7780   37.4540 C   0  0  0  0  0  0  0  0  0  0  0  0
   32.5380   29.4040   37.7020 C   0  0  0  0  0  0  0  0  0  0  0  0
   33.7330   28.8640   34.6310 H   0  0  0  0  0  0  0  0  0  0  0  0
   31.4000   29.5260   34.0630 H   0  0  0  0  0  0  0  0  0  0  0  0
   27.6800   30.7500   36.6440 H   0  0  0  0  0  0  0  0  0  0  0  0
   28.3320   30.7010   38.9840 H   0  0  0  0  0  0  0  0  0  0  0  0
   30.6990   30.0520   39.5320 H   0  0  0  0  0  0  0  0  0  0  0  0
   32.7730   29.4050   38.7580 H   0  0  0  0  0  0  0  0  0  0  0  0
   40.2590   31.0300   39.9130 C   0  0  2  0  0  0  0  0  0  0  0  0
   40.1340   32.0230   40.9600 C   0  0  0  0  0  0  0  0  0  0  0  0
   40.7890   32.4740   39.6750 C   0  0  1  0  0  0  0  0  0  0  0  0
   41.1190   30.3090   39.8890 H   0  0  0  0  0  0  0  0  0  0  0  0
   40.7640   32.0140   41.8510 H   0  0  0  0  0  0  0  0  0  0  0  0
   39.1000   32.4180   41.1670 H   0  0  0  0  0  0  0  0  0  0  0  0
   40.1620   33.1240   39.0270 H   0  0  0  0  0  0  0  0  0  0  0  0
   42.7300   32.6110   38.1900 C   0  0  1  0  0  3  0  0  0  0  0  0
   42.2600   32.7070   39.6310 C   0  0  1  0  0  3  0  0  0  0  0  0
   42.5010   34.0440   39.9200 O   0  0  0  0  0  0  0  0  0  0  0  0
   41.9810   34.7330   38.8320 C   0  0  0  0  0  2  0  0  0  0  0  0
   42.0600   33.8620   37.6210 C   0  0  1  0  0  3  0  0  0  0  0  0
   44.1120   32.7850   38.1280 O   0  0  0  0  0  0  0  0  0  0  0  0
   44.4260   32.9500   37.2240 H   0  0  0  0  0  0  0  0  0  0  0  0
   42.7870   34.4480   36.6050 O   0  0  0  0  0  0  0  0  0  0  0  0
   43.2220   35.2810   36.9650 H   0  0  0  0  0  0  0  0  0  0  0  0
  1  6  1  0  0  0  0
  2  3  1  0  0  0  0
  2  1  2  0  0  0  0
  3  4  2  0  0  0  0
  4  5  1  0  0  0  0
  5 32  1  0  0  0  0
  6  5  2  0  0  0  0
  7  1  1  0  0  0  0
  8  3  1  0  0  0  0
  9 12  1  6  0  0  0
  9 11  1  0  0  0  0
  9  2  1  0  0  0  0
 10 13  1  0  0  0  0
 10  9  1  0  0  0  0
 10 11  1  0  0  0  0
 11 15  1  1  0  0  0
 14 10  1  0  0  0  0
 16 11  1  0  0  0  0
 16 25  1  0  0  0  0
 17 16  2  0  0  0  0
 18 17  1  0  0  0  0
 18 19  2  0  0  0  0
 19 24  1  0  0  0  0
 20 19  1  0  0  0  0
 20 21  2  0  0  0  0
 21 22  1  0  0  0  0
 22 23  2  0  0  0  0
 22 29  1  0  0  0  0
 23 30  1  0  0  0  0
 24 25  2  0  0  0  0
 24 23  1  0  0  0  0
 25 31  1  0  0  0  0
 26 17  1  0  0  0  0
 27 18  1  0  0  0  0
 28 21  1  0  0  0  0
 32 35  1  1  0  0  0
 32 33  1  0  0  0  0
 33 37  1  0  0  0  0
 33 36  1  0  0  0  0
 34 38  1  6  0  0  0
 34 32  1  0  0  0  0
 34 33  1  0  0  0  0
 39 44  1  1  0  0  0
 39 40  1  0  0  0  0
 40 34  1  0  0  0  0
 40 41  1  6  0  0  0
 42 41  1  0  0  0  0
 43 46  1  6  0  0  0
 43 39  1  0  0  0  0
 43 42  1  0  0  0  0
 45 44  1  0  0  0  0
 46 47  1  0  0  0  0
M  END
>  <minimizedAffinity>
-6.3675518

$$$$

 OpenBabel03252503253D

 47 52  0  0  1  0  0  0  0  0999 V2000
   36.9220   31.2520   38.4830 C   0  0  0  0  0  0  0  0  0  0  0  0
   37.0440   29.9350   39.0300 C   0  0  0  0  0  0  0  0  0  0  0  0
   37.7720   29.7850   40.1810 C   0  0  0  0  0  0  0  0  0  0  0  0
   38.3330   30.8980   40.7300 N   0  0  0  0  0  0  0  0  0  0  0  0
   38.2080   32.1370   40.1970 C   0  0  0  0  0  0  0  0  0  0  0  0
   37.4990   32.3090   39.0720 N   0  0  0  0  0  0  0  0  0  0  0  0
   36.3490   31.4250   37.5640 H   0  0  0  0  0  0  0  0  0  0  0  0
   37.8830   28.8240   40.6150 H   0  0  0  0  0  0  0  0  0  0  0  0
   36.3840   28.7990   38.3190 C   0  0  1  0  0  0  0  0  0  0  0  0
   36.0350   27.5740   39.0340 C   0  0  0  0  0  0  0  0  0  0  0  0
   34.9380   28.5150   38.6950 C   0  0  2  0  0  0  0  0  0  0  0  0
   36.6140   28.7560   37.2410 H   0  0  0  0  0  0  0  0  0  0  0  0
   36.3640   27.5270   40.1250 H   0  0  0  0  0  0  0  0  0  0  0  0
   36.2630   26.6410   38.5370 H   0  0  0  0  0  0  0  0  0  0  0  0
   34.4890   29.1840   39.4480 H   0  0  0  0  0  0  0  0  0  0  0  0
   34.0710   28.1550   37.5380 C   0  0  0  0  0  0  0  0  0  0  0  0
   33.8870   26.8660   37.0650 C   0  0  0  0  0  0  0  0  0  0  0  0
   33.0540   26.6130   35.9880 C   0  0  0  0  0  0  0  0  0  0  0  0
   32.3900   27.6430   35.3630 C   0  0  0  0  0  0  0  0  0  0  0  0
   31.5650   27.4140   34.3230 N   0  0  0  0  0  0  0  0  0  0  0  0
   30.9100   28.4500   33.7290 C   0  0  0  0  0  0  0  0  0  0  0  0
   31.0320   29.7870   34.1300 C   0  0  0  0  0  0  0  0  0  0  0  0
   31.8780   30.0230   35.2000 C   0  0  0  0  0  0  0  0  0  0  0  0
   32.5410   28.9600   35.8000 C   0  0  0  0  0  0  0  0  0  0  0  0
   33.3800   29.1720   36.8760 C   0  0  0  0  0  0  0  0  0  0  0  0
   34.4360   26.0870   37.5930 H   0  0  0  0  0  0  0  0  0  0  0  0
   32.9480   25.5830   35.6590 H   0  0  0  0  0  0  0  0  0  0  0  0
   30.2510   28.2410   32.8920 H   0  0  0  0  0  0  0  0  0  0  0  0
   30.4790   30.5520   33.6060 H   0  0  0  0  0  0  0  0  0  0  0  0
   32.0040   31.0390   35.5450 H   0  0  0  0  0  0  0  0  0  0  0  0
   33.4470   30.2180   37.1450 H   0  0  0  0  0  0  0  0  0  0  0  0
   38.8660   33.2720   40.8940 C   0  0  2  0  0  0  0  0  0  0  0  0
   38.5600   34.6500   40.5650 C   0  0  0  0  0  0  0  0  0  0  0  0
   39.8310   34.0810   39.9800 C   0  0  1  0  0  0  0  0  0  0  0  0
   39.3940   33.0010   41.8470 H   0  0  0  0  0  0  0  0  0  0  0  0
   38.6740   35.4610   41.2850 H   0  0  0  0  0  0  0  0  0  0  0  0
   37.7080   34.8250   39.8490 H   0  0  0  0  0  0  0  0  0  0  0  0
   39.7890   33.8440   38.8950 H   0  0  0  0  0  0  0  0  0  0  0  0
   42.2480   34.0030   39.5940 C   0  0  1  0  0  3  0  0  0  0  0  0
   41.1540   34.5050   40.5200 C   0  0  1  0  0  3  0  0  0  0  0  0
   41.2670   35.8810   40.3740 O   0  0  0  0  0  0  0  0  0  0  0  0
   41.3440   36.0780   39.0010 C   0  0  0  0  0  2  0  0  0  0  0  0
   41.9630   34.8740   38.3700 C   0  0  1  0  0  3  0  0  0  0  0  0
   43.4990   34.3530   40.1000 O   0  0  0  0  0  0  0  0  0  0  0  0
   44.2070   34.2500   39.4450 H   0  0  0  0  0  0  0  0  0  0  0  0
   43.0990   35.1880   37.6550 O   0  0  0  0  0  0  0  0  0  0  0  0
   43.3350   36.1490   37.8380 H   0  0  0  0  0  0  0  0  0  0  0  0
  1  2  2  0  0  0  0
  1  6  1  0  0  0  0
  2  3  1  0  0  0  0
  3  8  1  0  0  0  0
  3  4  2  0  0  0  0
  5  4  1  0  0  0  0
  5 32  1  0  0  0  0
  6  5  2  0  0  0  0
  7  1  1  0  0  0  0
  9 12  1  6  0  0  0
  9 11  1  0  0  0  0
  9  2  1  0  0  0  0
  9 10  1  0  0  0  0
 10 13  1  0  0  0  0
 11 10  1  0  0  0  0
 11 15  1  1  0  0  0
 14 10  1  0  0  0  0
 16 11  1  0  0  0  0
 17 16  1  0  0  0  0
 17 26  1  0  0  0  0
 18 17  2  0  0  0  0
 19 24  1  0  0  0  0
 19 18  1  0  0  0  0
 20 19  2  0  0  0  0
 21 22  2  0  0  0  0
 21 20  1  0  0  0  0
 22 23  1  0  0  0  0
 23 30  1  0  0  0  0
 23 24  2  0  0  0  0
 24 25  1  0  0  0  0
 25 31  1  0  0  0  0
 25 16  2  0  0  0  0
 27 18  1  0  0  0  0
 28 21  1  0  0  0  0
 29 22  1  0  0  0  0
 32 35  1  1  0  0  0
 33 32  1  0  0  0  0
 33 36  1  0  0  0  0
 34 38  1  6  0  0  0
 34 40  1  0  0  0  0
 34 33  1  0  0  0  0
 34 32  1  0  0  0  0
 37 33  1  0  0  0  0
 39 44  1  1  0  0  0
 39 40  1  0  0  0  0
 40 41  1  6  0  0  0
 42 41  1  0  0  0  0
 43 46  1  1  0  0  0
 43 42  1  0  0  0  0
 43 39  1  0  0  0  0
 45 44  1  0  0  0  0
 46 47  1  0  0  0  0
M  END
>  <minimizedAffinity>
-6.31708097

$$$$

 OpenBabel03252503253D

 47 52  0  0  1  0  0  0  0  0999 V2000
   36.5760   31.2600   39.1020 C   0  0  0  0  0  0  0  0  0  0  0  0
   36.7120   30.0450   39.8450 C   0  0  0  0  0  0  0  0  0  0  0  0
   37.5380   30.0530   40.9390 C   0  0  0  0  0  0  0  0  0  0  0  0
   38.1750   31.2170   41.2470 N   0  0  0  0  0  0  0  0  0  0  0  0
   38.0340   32.3570   40.5310 C   0  0  0  0  0  0  0  0  0  0  0  0
   37.2310   32.3740   39.4570 N   0  0  0  0  0  0  0  0  0  0  0  0
   35.9260   31.3060   38.2190 H   0  0  0  0  0  0  0  0  0  0  0  0
   37.6630   29.1710   41.5140 H   0  0  0  0  0  0  0  0  0  0  0  0
   35.9610   28.8370   39.3900 C   0  0  1  0  0  0  0  0  0  0  0  0
   35.3360   28.8030   38.0700 C   0  0  0  0  0  0  0  0  0  0  0  0
   36.5920   28.0350   38.2620 C   0  0  2  0  0  0  0  0  0  0  0  0
   35.5300   28.2440   40.2150 H   0  0  0  0  0  0  0  0  0  0  0  0
   35.4010   29.7680   37.4660 H   0  0  0  0  0  0  0  0  0  0  0  0
   34.3330   28.4000   38.0190 H   0  0  0  0  0  0  0  0  0  0  0  0
   37.5630   28.4000   37.8860 H   0  0  0  0  0  0  0  0  0  0  0  0
   36.4650   26.5590   38.4240 C   0  0  0  0  0  0  0  0  0  0  0  0
   35.4650   25.7890   37.8540 C   0  0  0  0  0  0  0  0  0  0  0  0
   35.4220   24.4180   38.0460 C   0  0  0  0  0  0  0  0  0  0  0  0
   36.3790   23.7910   38.8100 C   0  0  0  0  0  0  0  0  0  0  0  0
   36.3620   22.4570   38.9960 N   0  0  0  0  0  0  0  0  0  0  0  0
   37.3270   21.8590   39.7480 C   0  0  0  0  0  0  0  0  0  0  0  0
   38.3760   22.5490   40.3690 C   0  0  0  0  0  0  0  0  0  0  0  0
   38.3950   23.9200   40.1780 C   0  0  0  0  0  0  0  0  0  0  0  0
   37.4070   24.5210   39.4080 C   0  0  0  0  0  0  0  0  0  0  0  0
   37.4150   25.8850   39.1950 C   0  0  0  0  0  0  0  0  0  0  0  0
   34.7320   26.3330   37.2590 H   0  0  0  0  0  0  0  0  0  0  0  0
   34.6150   23.8640   37.5750 H   0  0  0  0  0  0  0  0  0  0  0  0
   37.2920   20.7820   39.8840 H   0  0  0  0  0  0  0  0  0  0  0  0
   39.1020   22.0010   40.9510 H   0  0  0  0  0  0  0  0  0  0  0  0
   39.1860   24.4950   40.6370 H   0  0  0  0  0  0  0  0  0  0  0  0
   38.2380   26.3760   39.6980 H   0  0  0  0  0  0  0  0  0  0  0  0
   38.7830   33.5630   40.9730 C   0  0  2  0  0  0  0  0  0  0  0  0
   38.6410   34.8380   40.3000 C   0  0  0  0  0  0  0  0  0  0  0  0
   39.8670   34.0240   39.9560 C   0  0  1  0  0  0  0  0  0  0  0  0
   39.2390   33.4890   41.9960 H   0  0  0  0  0  0  0  0  0  0  0  0
   38.8140   35.7880   40.8070 H   0  0  0  0  0  0  0  0  0  0  0  0
   37.8430   34.9100   39.5080 H   0  0  0  0  0  0  0  0  0  0  0  0
   39.8430   33.5290   38.9600 H   0  0  0  0  0  0  0  0  0  0  0  0
   42.2730   33.9190   39.5200 C   0  0  1  0  0  3  0  0  0  0  0  0
   41.2040   34.4410   40.4630 C   0  0  1  0  0  3  0  0  0  0  0  0
   41.3260   35.8150   40.2990 O   0  0  0  0  0  0  0  0  0  0  0  0
   41.3760   35.9960   38.9230 C   0  0  0  0  0  2  0  0  0  0  0  0
   41.9700   34.7790   38.2920 C   0  0  1  0  0  3  0  0  0  0  0  0
   43.5380   34.2620   39.9960 O   0  0  0  0  0  0  0  0  0  0  0  0
   44.2310   34.1460   39.3270 H   0  0  0  0  0  0  0  0  0  0  0  0
   43.0940   35.0740   37.5500 O   0  0  0  0  0  0  0  0  0  0  0  0
   43.3430   36.0350   37.7170 H   0  0  0  0  0  0  0  0  0  0  0  0
  1  6  2  0  0  0  0
  1  2  1  0  0  0  0
  2  3  2  0  0  0  0
  3  4  1  0  0  0  0
  3  8  1  0  0  0  0
  5 32  1  0  0  0  0
  5  4  2  0  0  0  0
  6  5  1  0  0  0  0
  7  1  1  0  0  0  0
  9  2  1  0  0  0  0
  9 12  1  1  0  0  0
 10 11  1  0  0  0  0
 10  9  1  0  0  0  0
 11 15  1  6  0  0  0
 11 16  1  0  0  0  0
 11  9  1  0  0  0  0
 13 10  1  0  0  0  0
 14 10  1  0  0  0  0
 16 25  1  0  0  0  0
 17 18  1  0  0  0  0
 17 16  2  0  0  0  0
 18 19  2  0  0  0  0
 19 20  1  0  0  0  0
 19 24  1  0  0  0  0
 20 21  2  0  0  0  0
 21 28  1  0  0  0  0
 21 22  1  0  0  0  0
 22 29  1  0  0  0  0
 23 22  2  0  0  0  0
 23 30  1  0  0  0  0
 24 23  1  0  0  0  0
 25 24  2  0  0  0  0
 25 31  1  0  0  0  0
 26 17  1  0  0  0  0
 27 18  1  0  0  0  0
 32 35  1  1  0  0  0
 33 36  1  0  0  0  0
 33 32  1  0  0  0  0
 34 38  1  6  0  0  0
 34 33  1  0  0  0  0
 34 40  1  0  0  0  0
 34 32  1  0  0  0  0
 37 33  1  0  0  0  0
 39 44  1  1  0  0  0
 39 40  1  0  0  0  0
 40 41  1  6  0  0  0
 42 41  1  0  0  0  0
 43 46  1  1  0  0  0
 43 42  1  0  0  0  0
 43 39  1  0  0  0  0
 45 44  1  0  0  0  0
 46 47  1  0  0  0  0
M  END
>  <minimizedAffinity>
-6.27328634

$$$$

 OpenBabel03252503253D

 47 52  0  0  1  0  0  0  0  0999 V2000
   38.3970   28.9240   41.6850 C   0  0  0  0  0  0  0  0  0  0  0  0
   39.5530   28.8860   42.5270 C   0  0  0  0  0  0  0  0  0  0  0  0
   39.8220   27.7170   43.1910 C   0  0  0  0  0  0  0  0  0  0  0  0
   38.9710   26.6690   43.0060 N   0  0  0  0  0  0  0  0  0  0  0  0
   37.8820   26.7250   42.2040 C   0  0  0  0  0  0  0  0  0  0  0  0
   37.5980   27.8570   41.5440 N   0  0  0  0  0  0  0  0  0  0  0  0
   38.1380   29.8350   41.1310 H   0  0  0  0  0  0  0  0  0  0  0  0
   40.6700   27.6520   43.8230 H   0  0  0  0  0  0  0  0  0  0  0  0
   40.3950   30.1140   42.6470 C   0  0  1  0  0  0  0  0  0  0  0  0
   41.8510   30.0160   42.6970 C   0  0  0  0  0  0  0  0  0  0  0  0
   41.2320   30.4800   41.4310 C   0  0  2  0  0  0  0  0  0  0  0  0
   39.8850   30.9550   43.1470 H   0  0  0  0  0  0  0  0  0  0  0  0
   42.2760   28.9580   42.7150 H   0  0  0  0  0  0  0  0  0  0  0  0
   42.3520   30.6290   43.4350 H   0  0  0  0  0  0  0  0  0  0  0  0
   41.1340   29.8190   40.5530 H   0  0  0  0  0  0  0  0  0  0  0  0
   41.2830   31.9410   41.1490 C   0  0  0  0  0  0  0  0  0  0  0  0
   42.4380   32.7040   41.1560 C   0  0  0  0  0  0  0  0  0  0  0  0
   42.4020   34.0590   40.8730 C   0  0  0  0  0  0  0  0  0  0  0  0
   41.2100   34.6780   40.5760 C   0  0  0  0  0  0  0  0  0  0  0  0
   41.1560   35.9920   40.2850 N   0  0  0  0  0  0  0  0  0  0  0  0
   39.9640   36.5780   39.9830 C   0  0  0  0  0  0  0  0  0  0  0  0
   38.7410   35.8950   39.9520 C   0  0  0  0  0  0  0  0  0  0  0  0
   38.7950   34.5440   40.2510 C   0  0  0  0  0  0  0  0  0  0  0  0
   40.0150   33.9550   40.5560 C   0  0  0  0  0  0  0  0  0  0  0  0
   40.0920   32.6070   40.8450 C   0  0  0  0  0  0  0  0  0  0  0  0
   43.3560   32.1680   41.3980 H   0  0  0  0  0  0  0  0  0  0  0  0
   43.3390   34.6080   40.8940 H   0  0  0  0  0  0  0  0  0  0  0  0
   39.9470   37.6380   39.7510 H   0  0  0  0  0  0  0  0  0  0  0  0
   37.8380   36.4320   39.7050 H   0  0  0  0  0  0  0  0  0  0  0  0
   37.8760   33.9750   40.2400 H   0  0  0  0  0  0  0  0  0  0  0  0
   39.1240   32.1240   40.8150 H   0  0  0  0  0  0  0  0  0  0  0  0
   37.0340   25.5100   42.0840 C   0  0  2  0  0  0  0  0  0  0  0  0
   37.5980   24.1770   42.1570 C   0  0  0  0  0  0  0  0  0  0  0  0
   37.2900   24.7070   40.7750 C   0  0  1  0  0  0  0  0  0  0  0  0
   35.9330   25.6870   42.2040 H   0  0  0  0  0  0  0  0  0  0  0  0
   37.0180   23.3150   42.4890 H   0  0  0  0  0  0  0  0  0  0  0  0
   38.6860   24.0990   42.4370 H   0  0  0  0  0  0  0  0  0  0  0  0
   38.1750   25.0160   40.1780 H   0  0  0  0  0  0  0  0  0  0  0  0
   36.0160   24.9140   38.6950 C   0  0  1  0  0  3  0  0  0  0  0  0
   36.1260   24.1720   40.0150 C   0  0  1  0  0  3  0  0  0  0  0  0
   36.4310   22.8850   39.5930 O   0  0  0  0  0  0  0  0  0  0  0  0
   37.4410   23.0580   38.6550 C   0  0  0  0  0  2  0  0  0  0  0  0
   37.2780   24.3940   38.0070 C   0  0  1  0  0  3  0  0  0  0  0  0
   34.9080   24.4590   37.9830 O   0  0  0  0  0  0  0  0  0  0  0  0
   34.9210   24.7390   37.0540 H   0  0  0  0  0  0  0  0  0  0  0  0
   37.1440   24.2950   36.6380 O   0  0  0  0  0  0  0  0  0  0  0  0
   37.0450   23.3230   36.3970 H   0  0  0  0  0  0  0  0  0  0  0  0
  1  2  1  0  0  0  0
  2  9  1  0  0  0  0
  2  3  2  0  0  0  0
  3  8  1  0  0  0  0
  4  3  1  0  0  0  0
  5  4  2  0  0  0  0
  6  1  2  0  0  0  0
  6  5  1  0  0  0  0
  7  1  1  0  0  0  0
  9 10  1  0  0  0  0
  9 12  1  1  0  0  0
 10 13  1  0  0  0  0
 10 14  1  0  0  0  0
 11 15  1  6  0  0  0
 11  9  1  0  0  0  0
 11 10  1  0  0  0  0
 16 17  1  0  0  0  0
 16 11  1  0  0  0  0
 17 26  1  0  0  0  0
 18 27  1  0  0  0  0
 18 17  2  0  0  0  0
 19 18  1  0  0  0  0
 20 19  2  0  0  0  0
 21 20  1  0  0  0  0
 22 21  2  0  0  0  0
 22 23  1  0  0  0  0
 23 24  2  0  0  0  0
 24 19  1  0  0  0  0
 24 25  1  0  0  0  0
 25 16  2  0  0  0  0
 28 21  1  0  0  0  0
 29 22  1  0  0  0  0
 30 23  1  0  0  0  0
 31 25  1  0  0  0  0
 32 33  1  0  0  0  0
 32  5  1  0  0  0  0
 32 35  1  1  0  0  0
 33 37  1  0  0  0  0
 33 36  1  0  0  0  0
 34 38  1  6  0  0  0
 34 32  1  0  0  0  0
 34 33  1  0  0  0  0
 39 44  1  6  0  0  0
 39 40  1  0  0  0  0
 40 41  1  6  0  0  0
 40 34  1  0  0  0  0
 42 41  1  0  0  0  0
 43 46  1  6  0  0  0
 43 42  1  0  0  0  0
 43 39  1  0  0  0  0
 45 44  1  0  0  0  0
 47 46  1  0  0  0  0
M  END
>  <minimizedAffinity>
-6.23017502

$$$$
