
 OpenBabel03252505553D

 33 35  0  0  1  0  0  0  0  0999 V2000
   37.6980   32.2640   39.9470 C   0  0  0  0  0  0  0  0  0  0  0  0
   37.7170   33.6070   40.2790 C   0  0  0  0  0  0  0  0  0  0  0  0
   38.8800   34.3070   40.0880 C   0  0  0  0  0  0  0  0  0  0  0  0
   39.9740   33.7290   39.5970 N   0  0  0  0  0  0  0  0  0  0  0  0
   39.9490   32.4180   39.2730 C   0  0  0  0  0  0  0  0  0  0  0  0
   38.8150   31.6830   39.4460 N   0  0  0  0  0  0  0  0  0  0  0  0
   36.7580   33.9260   40.6620 H   0  0  0  0  0  0  0  0  0  0  0  0
   38.8180   35.3490   40.3710 H   0  0  0  0  0  0  0  0  0  0  0  0
   41.4070   32.4090   37.3470 C   0  0  1  0  0  3  0  0  0  0  0  0
   41.2270   31.8800   38.7340 C   0  0  2  0  0  3  0  0  0  0  0  0
   41.2630   30.5000   38.7030 O   0  0  0  0  0  0  0  0  0  0  0  0
   41.5080   30.1060   37.4040 C   0  0  0  0  0  2  0  0  0  0  0  0
   42.2450   31.2750   36.7420 C   0  0  2  0  0  3  0  0  0  0  0  0
   40.1910   32.4260   36.7060 O   0  0  0  0  0  0  0  0  0  0  0  0
   40.0570   33.2670   36.2000 H   0  0  0  0  0  0  0  0  0  0  0  0
   43.5590   31.3390   37.1790 O   0  0  0  0  0  0  0  0  0  0  0  0
   43.7340   30.7160   37.9470 H   0  0  0  0  0  0  0  0  0  0  0  0
   36.6230   31.2570   40.0310 C   0  0  0  0  0  0  0  0  0  0  0  0
   36.8970   30.4360   39.3370 H   0  0  0  0  0  0  0  0  0  0  0  0
   35.6360   31.6470   39.7010 H   0  0  0  0  0  0  0  0  0  0  0  0
   36.6030   30.7320   41.3320 O   0  0  0  0  0  0  0  0  0  0  0  0
   36.8020   27.2290   40.7430 C   0  0  0  0  0  0  0  0  0  0  0  0
   37.2970   26.7150   41.9410 C   0  0  0  0  0  0  0  0  0  0  0  0
   37.5610   27.6280   42.9620 C   0  0  0  0  0  0  0  0  0  0  0  0
   37.3330   28.9370   42.7590 N   0  0  0  0  0  0  0  0  0  0  0  0
   36.8500   29.3830   41.5760 C   0  0  0  0  0  0  0  0  0  0  0  0
   36.5880   28.5450   40.5820 N   0  0  0  0  0  0  0  0  0  0  0  0
   36.5940   26.5250   39.9430 H   0  0  0  0  0  0  0  0  0  0  0  0
   37.9480   27.2240   43.9000 H   0  0  0  0  0  0  0  0  0  0  0  0
   37.5130   25.2420   42.0580 C   0  0  0  0  0  0  0  0  0  0  0  0
   37.6220   24.7920   40.7610 F   0  0  0  0  0  0  0  0  0  0  0  0
   36.3500   24.7230   42.6370 F   0  0  0  0  0  0  0  0  0  0  0  0
   38.6080   25.0080   42.8220 F   0  0  0  0  0  0  0  0  0  0  0  0
  1 18  1  0  0  0  0
  1  2  1  0  0  0  0
  2  7  1  0  0  0  0
  3  2  2  0  0  0  0
  3  8  1  0  0  0  0
  4  3  1  0  0  0  0
  5  6  1  0  0  0  0
  5  4  2  0  0  0  0
  6  1  2  0  0  0  0
  9 14  1  6  0  0  0
  9 10  1  0  0  0  0
 10  5  1  6  0  0  0
 11 10  1  0  0  0  0
 12 11  1  0  0  0  0
 13 16  1  1  0  0  0
 13  9  1  0  0  0  0
 13 12  1  0  0  0  0
 15 14  1  0  0  0  0
 16 17  1  0  0  0  0
 18 21  1  0  0  0  0
 19 18  1  0  0  0  0
 20 18  1  0  0  0  0
 21 26  1  0  0  0  0
 22 23  1  0  0  0  0
 23 30  1  0  0  0  0
 23 24  2  0  0  0  0
 24 29  1  0  0  0  0
 25 24  1  0  0  0  0
 26 25  2  0  0  0  0
 27 22  2  0  0  0  0
 27 26  1  0  0  0  0
 28 22  1  0  0  0  0
 30 32  1  0  0  0  0
 30 33  1  0  0  0  0
 31 30  1  0  0  0  0
M  END
>  <minimizedAffinity>
-6.12117004

$$$$

 OpenBabel03252505553D

 33 35  0  0  1  0  0  0  0  0999 V2000
   38.9430   31.2850   41.2660 C   0  0  0  0  0  0  0  0  0  0  0  0
   37.6720   31.2600   40.7180 C   0  0  0  0  0  0  0  0  0  0  0  0
   37.4620   31.9250   39.5380 C   0  0  0  0  0  0  0  0  0  0  0  0
   38.4380   32.5830   38.9180 N   0  0  0  0  0  0  0  0  0  0  0  0
   39.6760   32.6030   39.4570 C   0  0  0  0  0  0  0  0  0  0  0  0
   39.9320   31.9570   40.6290 N   0  0  0  0  0  0  0  0  0  0  0  0
   36.9940   30.6880   41.3360 H   0  0  0  0  0  0  0  0  0  0  0  0
   36.4450   31.8610   39.1730 H   0  0  0  0  0  0  0  0  0  0  0  0
   41.0340   32.5760   37.4590 C   0  0  1  0  0  3  0  0  0  0  0  0
   40.6870   33.3680   38.6790 C   0  0  2  0  0  3  0  0  0  0  0  0
   41.8390   33.6280   39.3950 O   0  0  0  0  0  0  0  0  0  0  0  0
   42.9070   33.1060   38.6950 C   0  0  0  0  0  2  0  0  0  0  0  0
   42.4680   33.0680   37.2270 C   0  0  2  0  0  3  0  0  0  0  0  0
   41.0900   31.2420   37.7850 O   0  0  0  0  0  0  0  0  0  0  0  0
   40.6430   30.6810   37.1020 H   0  0  0  0  0  0  0  0  0  0  0  0
   42.4760   34.3410   36.6780 O   0  0  0  0  0  0  0  0  0  0  0  0
   42.6160   35.0520   37.3730 H   0  0  0  0  0  0  0  0  0  0  0  0
   39.4820   30.6810   42.4990 C   0  0  0  0  0  0  0  0  0  0  0  0
   39.6420   31.5100   43.2190 H   0  0  0  0  0  0  0  0  0  0  0  0
   40.4650   30.1870   42.3470 H   0  0  0  0  0  0  0  0  0  0  0  0
   38.5100   29.8240   43.0390 O   0  0  0  0  0  0  0  0  0  0  0  0
   39.6480   26.4580   43.2070 C   0  0  0  0  0  0  0  0  0  0  0  0
   38.7190   25.7500   42.4440 C   0  0  0  0  0  0  0  0  0  0  0  0
   37.6810   26.4840   41.8690 C   0  0  0  0  0  0  0  0  0  0  0  0
   37.6170   27.8130   42.0650 N   0  0  0  0  0  0  0  0  0  0  0  0
   38.5470   28.4500   42.8150 C   0  0  0  0  0  0  0  0  0  0  0  0
   39.5470   27.7860   43.3780 N   0  0  0  0  0  0  0  0  0  0  0  0
   40.4580   25.8940   43.6590 H   0  0  0  0  0  0  0  0  0  0  0  0
   36.9550   25.9300   41.2710 H   0  0  0  0  0  0  0  0  0  0  0  0
   38.8860   24.2750   42.2920 C   0  0  0  0  0  0  0  0  0  0  0  0
   39.7720   23.9100   43.2820 F   0  0  0  0  0  0  0  0  0  0  0  0
   39.4770   24.0770   41.0400 F   0  0  0  0  0  0  0  0  0  0  0  0
   37.6740   23.6740   42.3810 F   0  0  0  0  0  0  0  0  0  0  0  0
  1 18  1  0  0  0  0
  2  1  1  0  0  0  0
  2  7  1  0  0  0  0
  3  2  2  0  0  0  0
  4  5  2  0  0  0  0
  4  3  1  0  0  0  0
  5  6  1  0  0  0  0
  6  1  2  0  0  0  0
  8  3  1  0  0  0  0
  9 14  1  1  0  0  0
  9 10  1  0  0  0  0
 10 11  1  0  0  0  0
 10  5  1  1  0  0  0
 12 11  1  0  0  0  0
 13 16  1  1  0  0  0
 13  9  1  0  0  0  0
 13 12  1  0  0  0  0
 15 14  1  0  0  0  0
 16 17  1  0  0  0  0
 18 21  1  0  0  0  0
 18 19  1  0  0  0  0
 20 18  1  0  0  0  0
 22 27  1  0  0  0  0
 22 28  1  0  0  0  0
 23 22  2  0  0  0  0
 24 25  2  0  0  0  0
 24 23  1  0  0  0  0
 25 26  1  0  0  0  0
 26 21  1  0  0  0  0
 26 27  2  0  0  0  0
 29 24  1  0  0  0  0
 30 33  1  0  0  0  0
 30 23  1  0  0  0  0
 30 31  1  0  0  0  0
 32 30  1  0  0  0  0
M  END
>  <minimizedAffinity>
-5.96225309

$$$$

 OpenBabel03252505553D

 33 35  0  0  1  0  0  0  0  0999 V2000
   38.2980   31.9370   38.6200 C   0  0  0  0  0  0  0  0  0  0  0  0
   37.4780   32.8610   39.2420 C   0  0  0  0  0  0  0  0  0  0  0  0
   38.0650   33.8980   39.9200 C   0  0  0  0  0  0  0  0  0  0  0  0
   39.3870   34.0320   39.9910 N   0  0  0  0  0  0  0  0  0  0  0  0
   40.1830   33.1270   39.3810 C   0  0  0  0  0  0  0  0  0  0  0  0
   39.6440   32.0800   38.6960 N   0  0  0  0  0  0  0  0  0  0  0  0
   36.4350   32.6170   39.0940 H   0  0  0  0  0  0  0  0  0  0  0  0
   37.3600   34.5780   40.3800 H   0  0  0  0  0  0  0  0  0  0  0  0
   42.0810   34.2520   38.3960 C   0  0  1  0  0  3  0  0  0  0  0  0
   41.6420   33.3760   39.5270 C   0  0  2  0  0  3  0  0  0  0  0  0
   42.3930   32.2160   39.5210 O   0  0  0  0  0  0  0  0  0  0  0  0
   43.3180   32.3080   38.5030 C   0  0  0  0  0  2  0  0  0  0  0  0
   43.5440   33.8070   38.2740 C   0  0  2  0  0  3  0  0  0  0  0  0
   41.4250   33.8730   37.2490 O   0  0  0  0  0  0  0  0  0  0  0  0
   41.1020   34.6580   36.7380 H   0  0  0  0  0  0  0  0  0  0  0  0
   44.3160   34.3480   39.2890 O   0  0  0  0  0  0  0  0  0  0  0  0
   44.4500   33.7040   40.0480 H   0  0  0  0  0  0  0  0  0  0  0  0
   37.9810   30.7340   37.8280 C   0  0  0  0  0  0  0  0  0  0  0  0
   38.8450   30.0450   37.9320 H   0  0  0  0  0  0  0  0  0  0  0  0
   37.8640   30.9470   36.7430 H   0  0  0  0  0  0  0  0  0  0  0  0
   36.8600   30.1090   38.3940 O   0  0  0  0  0  0  0  0  0  0  0  0
   35.9530   28.4380   41.4010 C   0  0  0  0  0  0  0  0  0  0  0  0
   37.0850   27.6890   41.7230 C   0  0  0  0  0  0  0  0  0  0  0  0
   38.1760   27.7840   40.8590 C   0  0  0  0  0  0  0  0  0  0  0  0
   38.0980   28.5750   39.7740 N   0  0  0  0  0  0  0  0  0  0  0  0
   36.9740   29.2810   39.5080 C   0  0  0  0  0  0  0  0  0  0  0  0
   35.9180   29.2150   40.3070 N   0  0  0  0  0  0  0  0  0  0  0  0
   35.1000   28.3690   42.0690 H   0  0  0  0  0  0  0  0  0  0  0  0
   39.0610   27.1980   41.1130 H   0  0  0  0  0  0  0  0  0  0  0  0
   37.0630   26.8440   42.9530 C   0  0  0  0  0  0  0  0  0  0  0  0
   38.1720   27.2280   43.6730 F   0  0  0  0  0  0  0  0  0  0  0  0
   37.2200   25.5230   42.5210 F   0  0  0  0  0  0  0  0  0  0  0  0
   35.8870   27.0280   43.6040 F   0  0  0  0  0  0  0  0  0  0  0  0
  1  6  2  0  0  0  0
  1  2  1  0  0  0  0
  2  3  2  0  0  0  0
  3  4  1  0  0  0  0
  3  8  1  0  0  0  0
  5  4  2  0  0  0  0
  6  5  1  0  0  0  0
  7  2  1  0  0  0  0
  9 14  1  6  0  0  0
  9 10  1  0  0  0  0
 10  5  1  6  0  0  0
 11 10  1  0  0  0  0
 12 11  1  0  0  0  0
 13  9  1  0  0  0  0
 13 12  1  0  0  0  0
 13 16  1  1  0  0  0
 15 14  1  0  0  0  0
 16 17  1  0  0  0  0
 18 19  1  0  0  0  0
 18 21  1  0  0  0  0
 18  1  1  0  0  0  0
 20 18  1  0  0  0  0
 21 26  1  0  0  0  0
 22 23  1  0  0  0  0
 22 28  1  0  0  0  0
 23 30  1  0  0  0  0
 24 29  1  0  0  0  0
 24 23  2  0  0  0  0
 25 24  1  0  0  0  0
 26 25  2  0  0  0  0
 26 27  1  0  0  0  0
 27 22  2  0  0  0  0
 30 33  1  0  0  0  0
 30 31  1  0  0  0  0
 32 30  1  0  0  0  0
M  END
>  <minimizedAffinity>
-5.82705736

$$$$

 OpenBabel03252505553D

 33 35  0  0  1  0  0  0  0  0999 V2000
   38.2280   26.7480   43.2400 C   0  0  0  0  0  0  0  0  0  0  0  0
   39.5080   26.4560   43.6790 C   0  0  0  0  0  0  0  0  0  0  0  0
   40.0700   25.2660   43.2970 C   0  0  0  0  0  0  0  0  0  0  0  0
   39.4210   24.3980   42.5250 N   0  0  0  0  0  0  0  0  0  0  0  0
   38.1730   24.6880   42.0980 C   0  0  0  0  0  0  0  0  0  0  0  0
   37.5740   25.8600   42.4520 N   0  0  0  0  0  0  0  0  0  0  0  0
   39.8980   27.2550   44.2940 H   0  0  0  0  0  0  0  0  0  0  0  0
   41.0700   25.1080   43.6800 H   0  0  0  0  0  0  0  0  0  0  0  0
   38.2940   23.5940   39.9480 C   0  0  1  0  0  3  0  0  0  0  0  0
   37.5440   23.6480   41.2410 C   0  0  2  0  0  3  0  0  0  0  0  0
   36.2090   23.8910   40.9830 O   0  0  0  0  0  0  0  0  0  0  0  0
   36.0390   23.9430   39.6160 C   0  0  0  0  0  2  0  0  0  0  0  0
   37.1750   23.1060   39.0180 C   0  0  2  0  0  3  0  0  0  0  0  0
   38.6350   24.8700   39.5680 O   0  0  0  0  0  0  0  0  0  0  0  0
   39.5690   24.9140   39.2380 H   0  0  0  0  0  0  0  0  0  0  0  0
   36.9340   21.7530   39.1940 O   0  0  0  0  0  0  0  0  0  0  0  0
   36.1540   21.5830   39.8040 H   0  0  0  0  0  0  0  0  0  0  0  0
   37.3650   27.9210   43.4710 C   0  0  0  0  0  0  0  0  0  0  0  0
   37.0110   27.8570   44.5210 H   0  0  0  0  0  0  0  0  0  0  0  0
   36.4620   27.9310   42.8230 H   0  0  0  0  0  0  0  0  0  0  0  0
   38.1460   29.0810   43.3500 O   0  0  0  0  0  0  0  0  0  0  0  0
   38.9210   31.5520   40.9100 C   0  0  0  0  0  0  0  0  0  0  0  0
   37.7110   31.7600   40.2470 C   0  0  0  0  0  0  0  0  0  0  0  0
   36.6160   31.0110   40.6760 C   0  0  0  0  0  0  0  0  0  0  0  0
   36.7620   30.1390   41.6890 N   0  0  0  0  0  0  0  0  0  0  0  0
   37.9600   29.9760   42.2980 C   0  0  0  0  0  0  0  0  0  0  0  0
   39.0240   30.6690   41.9170 N   0  0  0  0  0  0  0  0  0  0  0  0
   39.7790   32.1300   40.5810 H   0  0  0  0  0  0  0  0  0  0  0  0
   35.6700   31.1760   40.1570 H   0  0  0  0  0  0  0  0  0  0  0  0
   37.6620   32.7550   39.1350 C   0  0  0  0  0  0  0  0  0  0  0  0
   38.9610   33.1880   38.9830 F   0  0  0  0  0  0  0  0  0  0  0  0
   36.8680   33.8110   39.5920 F   0  0  0  0  0  0  0  0  0  0  0  0
   37.1380   32.1680   38.0300 F   0  0  0  0  0  0  0  0  0  0  0  0
  1 18  1  0  0  0  0
  1  2  1  0  0  0  0
  2  7  1  0  0  0  0
  3  2  2  0  0  0  0
  3  8  1  0  0  0  0
  4  3  1  0  0  0  0
  5  6  1  0  0  0  0
  5  4  2  0  0  0  0
  6  1  2  0  0  0  0
  9 14  1  6  0  0  0
  9 10  1  0  0  0  0
 10  5  1  1  0  0  0
 11 10  1  0  0  0  0
 12 11  1  0  0  0  0
 13 16  1  1  0  0  0
 13 12  1  0  0  0  0
 13  9  1  0  0  0  0
 15 14  1  0  0  0  0
 16 17  1  0  0  0  0
 18 19  1  0  0  0  0
 20 18  1  0  0  0  0
 21 18  1  0  0  0  0
 22 27  1  0  0  0  0
 23 24  1  0  0  0  0
 23 22  2  0  0  0  0
 24 25  2  0  0  0  0
 25 26  1  0  0  0  0
 26 21  1  0  0  0  0
 27 26  2  0  0  0  0
 28 22  1  0  0  0  0
 29 24  1  0  0  0  0
 30 32  1  0  0  0  0
 30 23  1  0  0  0  0
 31 30  1  0  0  0  0
 33 30  1  0  0  0  0
M  END
>  <minimizedAffinity>
-5.6932416

$$$$

 OpenBabel03252505553D

 33 35  0  0  1  0  0  0  0  0999 V2000
   37.8910   31.8940   39.9740 C   0  0  0  0  0  0  0  0  0  0  0  0
   37.6570   33.2020   40.3620 C   0  0  0  0  0  0  0  0  0  0  0  0
   38.6580   34.1210   40.1810 C   0  0  0  0  0  0  0  0  0  0  0  0
   39.8310   33.7870   39.6500 N   0  0  0  0  0  0  0  0  0  0  0  0
   40.0530   32.5100   39.2720 C   0  0  0  0  0  0  0  0  0  0  0  0
   39.0880   31.5620   39.4320 N   0  0  0  0  0  0  0  0  0  0  0  0
   36.6640   33.3130   40.7740 H   0  0  0  0  0  0  0  0  0  0  0  0
   38.4010   35.1200   40.5090 H   0  0  0  0  0  0  0  0  0  0  0  0
   41.3850   32.7090   37.2660 C   0  0  1  0  0  3  0  0  0  0  0  0
   41.3970   32.2520   38.6900 C   0  0  2  0  0  3  0  0  0  0  0  0
   41.7620   30.9200   38.7370 O   0  0  0  0  0  0  0  0  0  0  0  0
   42.0370   30.5050   37.4510 C   0  0  0  0  0  2  0  0  0  0  0  0
   42.4430   31.7650   36.6800 C   0  0  2  0  0  3  0  0  0  0  0  0
   40.1730   32.3930   36.6990 O   0  0  0  0  0  0  0  0  0  0  0  0
   39.8200   33.1410   36.1540 H   0  0  0  0  0  0  0  0  0  0  0  0
   43.7210   32.1680   37.0330 O   0  0  0  0  0  0  0  0  0  0  0  0
   44.0730   31.6590   37.8240 H   0  0  0  0  0  0  0  0  0  0  0  0
   37.0340   30.6950   40.0340 C   0  0  0  0  0  0  0  0  0  0  0  0
   36.1710   30.8840   39.3630 H   0  0  0  0  0  0  0  0  0  0  0  0
   36.6220   30.5050   41.0490 H   0  0  0  0  0  0  0  0  0  0  0  0
   37.7520   29.6060   39.5160 O   0  0  0  0  0  0  0  0  0  0  0  0
   37.6750   26.7280   41.6060 C   0  0  0  0  0  0  0  0  0  0  0  0
   37.0270   25.7670   40.8300 C   0  0  0  0  0  0  0  0  0  0  0  0
   36.6150   26.1540   39.5540 C   0  0  0  0  0  0  0  0  0  0  0  0
   36.8550   27.4070   39.1290 N   0  0  0  0  0  0  0  0  0  0  0  0
   37.4890   28.3000   39.9240 C   0  0  0  0  0  0  0  0  0  0  0  0
   37.8940   27.9690   41.1430 N   0  0  0  0  0  0  0  0  0  0  0  0
   37.9980   26.4340   42.6000 H   0  0  0  0  0  0  0  0  0  0  0  0
   36.1090   25.4010   38.9480 H   0  0  0  0  0  0  0  0  0  0  0  0
   36.8130   24.4050   41.4010 C   0  0  0  0  0  0  0  0  0  0  0  0
   36.4190   24.6190   42.7030 F   0  0  0  0  0  0  0  0  0  0  0  0
   38.0630   23.7770   41.3880 F   0  0  0  0  0  0  0  0  0  0  0  0
   35.9040   23.7380   40.6470 F   0  0  0  0  0  0  0  0  0  0  0  0
  1 18  1  0  0  0  0
  1  2  1  0  0  0  0
  2  7  1  0  0  0  0
  3  2  2  0  0  0  0
  3  8  1  0  0  0  0
  4  3  1  0  0  0  0
  5  6  1  0  0  0  0
  5  4  2  0  0  0  0
  6  1  2  0  0  0  0
  9 14  1  6  0  0  0
  9 10  1  0  0  0  0
 10 11  1  0  0  0  0
 10  5  1  6  0  0  0
 12 11  1  0  0  0  0
 13 16  1  1  0  0  0
 13  9  1  0  0  0  0
 13 12  1  0  0  0  0
 15 14  1  0  0  0  0
 16 17  1  0  0  0  0
 18 20  1  0  0  0  0
 19 18  1  0  0  0  0
 21 26  1  0  0  0  0
 21 18  1  0  0  0  0
 22 28  1  0  0  0  0
 23 30  1  0  0  0  0
 23 22  2  0  0  0  0
 24 23  1  0  0  0  0
 25 24  2  0  0  0  0
 25 26  1  0  0  0  0
 26 27  2  0  0  0  0
 27 22  1  0  0  0  0
 29 24  1  0  0  0  0
 30 31  1  0  0  0  0
 32 30  1  0  0  0  0
 33 30  1  0  0  0  0
M  END
>  <minimizedAffinity>
-5.66598797

$$$$

 OpenBabel03252505553D

 33 35  0  0  1  0  0  0  0  0999 V2000
   36.7580   30.5280   39.7020 C   0  0  0  0  0  0  0  0  0  0  0  0
   36.7520   30.3580   38.3290 C   0  0  0  0  0  0  0  0  0  0  0  0
   37.8280   30.8150   37.6140 C   0  0  0  0  0  0  0  0  0  0  0  0
   38.8620   31.4090   38.2030 N   0  0  0  0  0  0  0  0  0  0  0  0
   38.8630   31.5720   39.5440 C   0  0  0  0  0  0  0  0  0  0  0  0
   37.8150   31.1330   40.2960 N   0  0  0  0  0  0  0  0  0  0  0  0
   35.8480   29.8610   38.0040 H   0  0  0  0  0  0  0  0  0  0  0  0
   37.7500   30.6470   36.5470 H   0  0  0  0  0  0  0  0  0  0  0  0
   39.6740   33.6240   40.5270 C   0  0  1  0  0  3  0  0  0  0  0  0
   40.0690   32.2480   40.0940 C   0  0  2  0  0  3  0  0  0  0  0  0
   41.1030   32.3380   39.1830 O   0  0  0  0  0  0  0  0  0  0  0  0
   41.4370   33.6680   39.0420 C   0  0  0  0  0  2  0  0  0  0  0  0
   41.0140   34.3490   40.3480 C   0  0  2  0  0  3  0  0  0  0  0  0
   38.7840   34.1480   39.6200 O   0  0  0  0  0  0  0  0  0  0  0  0
   38.0300   34.6050   40.0720 H   0  0  0  0  0  0  0  0  0  0  0  0
   41.8920   34.0340   41.3730 O   0  0  0  0  0  0  0  0  0  0  0  0
   42.5380   33.3110   41.1100 H   0  0  0  0  0  0  0  0  0  0  0  0
   35.7710   30.1530   40.7330 C   0  0  0  0  0  0  0  0  0  0  0  0
   34.7910   30.5520   40.3980 H   0  0  0  0  0  0  0  0  0  0  0  0
   35.9850   30.6060   41.7250 H   0  0  0  0  0  0  0  0  0  0  0  0
   35.6750   28.7540   40.7720 O   0  0  0  0  0  0  0  0  0  0  0  0
   38.3360   26.4050   41.0240 C   0  0  0  0  0  0  0  0  0  0  0  0
   38.6500   26.3980   42.3830 C   0  0  0  0  0  0  0  0  0  0  0  0
   37.9060   27.2390   43.2100 C   0  0  0  0  0  0  0  0  0  0  0  0
   36.9360   28.0060   42.6800 N   0  0  0  0  0  0  0  0  0  0  0  0
   36.6720   27.9730   41.3530 C   0  0  0  0  0  0  0  0  0  0  0  0
   37.3590   27.1870   40.5360 N   0  0  0  0  0  0  0  0  0  0  0  0
   38.9110   25.7530   40.3730 H   0  0  0  0  0  0  0  0  0  0  0  0
   38.1520   27.2320   44.2730 H   0  0  0  0  0  0  0  0  0  0  0  0
   39.7470   25.5070   42.8630 C   0  0  0  0  0  0  0  0  0  0  0  0
   40.5230   26.3000   43.6790 F   0  0  0  0  0  0  0  0  0  0  0  0
   40.4790   25.1440   41.7280 F   0  0  0  0  0  0  0  0  0  0  0  0
   39.2090   24.4280   43.4850 F   0  0  0  0  0  0  0  0  0  0  0  0
  1  6  1  0  0  0  0
  1 18  1  0  0  0  0
  2  1  2  0  0  0  0
  3  4  2  0  0  0  0
  3  2  1  0  0  0  0
  4  5  1  0  0  0  0
  5  6  2  0  0  0  0
  7  2  1  0  0  0  0
  8  3  1  0  0  0  0
  9 14  1  6  0  0  0
 10  5  1  6  0  0  0
 10  9  1  0  0  0  0
 11 10  1  0  0  0  0
 12 11  1  0  0  0  0
 12 13  1  0  0  0  0
 13  9  1  0  0  0  0
 13 16  1  1  0  0  0
 14 15  1  0  0  0  0
 17 16  1  0  0  0  0
 18 21  1  0  0  0  0
 18 20  1  0  0  0  0
 19 18  1  0  0  0  0
 21 26  1  0  0  0  0
 22 23  1  0  0  0  0
 23 30  1  0  0  0  0
 23 24  2  0  0  0  0
 24 29  1  0  0  0  0
 25 24  1  0  0  0  0
 26 25  2  0  0  0  0
 27 22  2  0  0  0  0
 27 26  1  0  0  0  0
 28 22  1  0  0  0  0
 30 33  1  0  0  0  0
 30 31  1  0  0  0  0
 32 30  1  0  0  0  0
M  END
>  <minimizedAffinity>
-5.43363094

$$$$

 OpenBabel03252505553D

 33 35  0  0  1  0  0  0  0  0999 V2000
   36.7230   28.7220   41.7360 C   0  0  0  0  0  0  0  0  0  0  0  0
   37.4290   29.0550   42.8790 C   0  0  0  0  0  0  0  0  0  0  0  0
   38.0710   28.0540   43.5600 C   0  0  0  0  0  0  0  0  0  0  0  0
   38.0310   26.7880   43.1510 N   0  0  0  0  0  0  0  0  0  0  0  0
   37.3430   26.4690   42.0330 C   0  0  0  0  0  0  0  0  0  0  0  0
   36.6880   27.4310   41.3240 N   0  0  0  0  0  0  0  0  0  0  0  0
   37.3660   30.1160   43.0790 H   0  0  0  0  0  0  0  0  0  0  0  0
   38.5990   28.3910   44.4420 H   0  0  0  0  0  0  0  0  0  0  0  0
   38.7740   24.6570   41.3240 C   0  0  1  0  0  3  0  0  0  0  0  0
   37.3670   25.0270   41.6710 C   0  0  2  0  0  3  0  0  0  0  0  0
   36.5410   24.7210   40.6070 O   0  0  0  0  0  0  0  0  0  0  0  0
   37.3070   24.1320   39.6240 C   0  0  0  0  0  2  0  0  0  0  0  0
   38.5080   23.5080   40.3440 C   0  0  2  0  0  3  0  0  0  0  0  0
   39.3540   25.6870   40.6220 O   0  0  0  0  0  0  0  0  0  0  0  0
   40.2760   25.8680   40.9350 H   0  0  0  0  0  0  0  0  0  0  0  0
   38.1320   22.3560   41.0160 O   0  0  0  0  0  0  0  0  0  0  0  0
   37.1350   22.2340   41.0330 H   0  0  0  0  0  0  0  0  0  0  0  0
   35.9420   29.5520   40.7990 C   0  0  0  0  0  0  0  0  0  0  0  0
   34.8810   29.4830   41.1180 H   0  0  0  0  0  0  0  0  0  0  0  0
   35.9920   29.1880   39.7510 H   0  0  0  0  0  0  0  0  0  0  0  0
   36.3480   30.8880   40.9410 O   0  0  0  0  0  0  0  0  0  0  0  0
   39.4820   32.4890   40.4150 C   0  0  0  0  0  0  0  0  0  0  0  0
   39.6750   32.4030   39.0360 C   0  0  0  0  0  0  0  0  0  0  0  0
   38.6790   31.7690   38.2940 C   0  0  0  0  0  0  0  0  0  0  0  0
   37.5950   31.2770   38.9200 N   0  0  0  0  0  0  0  0  0  0  0  0
   37.4570   31.3870   40.2620 C   0  0  0  0  0  0  0  0  0  0  0  0
   38.3840   31.9830   41.0000 N   0  0  0  0  0  0  0  0  0  0  0  0
   40.2530   32.9810   40.9990 H   0  0  0  0  0  0  0  0  0  0  0  0
   38.8300   31.7030   37.2150 H   0  0  0  0  0  0  0  0  0  0  0  0
   40.9160   32.9850   38.4460 C   0  0  0  0  0  0  0  0  0  0  0  0
   41.9530   32.3770   39.1190 F   0  0  0  0  0  0  0  0  0  0  0  0
   40.8930   34.3490   38.7560 F   0  0  0  0  0  0  0  0  0  0  0  0
   40.9210   32.7700   37.1070 F   0  0  0  0  0  0  0  0  0  0  0  0
  1  2  1  0  0  0  0
  2  7  1  0  0  0  0
  2  3  2  0  0  0  0
  3  8  1  0  0  0  0
  4  3  1  0  0  0  0
  5  4  2  0  0  0  0
  6  1  2  0  0  0  0
  6  5  1  0  0  0  0
  9 14  1  6  0  0  0
  9 10  1  0  0  0  0
 10  5  1  6  0  0  0
 11 10  1  0  0  0  0
 12 13  1  0  0  0  0
 12 11  1  0  0  0  0
 13 16  1  1  0  0  0
 13  9  1  0  0  0  0
 14 15  1  0  0  0  0
 16 17  1  0  0  0  0
 18 21  1  0  0  0  0
 18 19  1  0  0  0  0
 18  1  1  0  0  0  0
 20 18  1  0  0  0  0
 22 28  1  0  0  0  0
 22 27  1  0  0  0  0
 23 22  2  0  0  0  0
 24 25  2  0  0  0  0
 24 23  1  0  0  0  0
 25 26  1  0  0  0  0
 26 21  1  0  0  0  0
 26 27  2  0  0  0  0
 29 24  1  0  0  0  0
 30 32  1  0  0  0  0
 30 23  1  0  0  0  0
 30 31  1  0  0  0  0
 33 30  1  0  0  0  0
M  END
>  <minimizedAffinity>
-5.39919567

$$$$

 OpenBabel03252505553D

 33 35  0  0  1  0  0  0  0  0999 V2000
   37.2160   26.9670   41.9050 C   0  0  0  0  0  0  0  0  0  0  0  0
   37.1290   27.3340   43.2370 C   0  0  0  0  0  0  0  0  0  0  0  0
   37.3250   28.6520   43.5610 C   0  0  0  0  0  0  0  0  0  0  0  0
   37.5930   29.5700   42.6370 N   0  0  0  0  0  0  0  0  0  0  0  0
   37.6750   29.2070   41.3380 C   0  0  0  0  0  0  0  0  0  0  0  0
   37.4880   27.9090   40.9690 N   0  0  0  0  0  0  0  0  0  0  0  0
   36.9070   26.4800   43.8610 H   0  0  0  0  0  0  0  0  0  0  0  0
   37.2420   28.8610   44.6200 H   0  0  0  0  0  0  0  0  0  0  0  0
   37.0370   31.4410   40.6780 C   0  0  1  0  0  3  0  0  0  0  0  0
   37.9790   30.3150   40.3940 C   0  0  2  0  0  3  0  0  0  0  0  0
   37.8580   29.9460   39.0680 O   0  0  0  0  0  0  0  0  0  0  0  0
   36.9470   30.7890   38.4680 C   0  0  0  0  0  2  0  0  0  0  0  0
   36.9710   32.0840   39.2870 C   0  0  2  0  0  3  0  0  0  0  0  0
   35.7940   30.9310   40.9690 O   0  0  0  0  0  0  0  0  0  0  0  0
   35.3850   31.3890   41.7460 H   0  0  0  0  0  0  0  0  0  0  0  0
   38.1190   32.8140   39.0200 O   0  0  0  0  0  0  0  0  0  0  0  0
   38.7790   32.2940   38.4690 H   0  0  0  0  0  0  0  0  0  0  0  0
   37.0590   25.6570   41.2460 C   0  0  0  0  0  0  0  0  0  0  0  0
   37.4030   25.7820   40.1990 H   0  0  0  0  0  0  0  0  0  0  0  0
   36.0010   25.3160   41.2030 H   0  0  0  0  0  0  0  0  0  0  0  0
   37.9120   24.7360   41.8730 O   0  0  0  0  0  0  0  0  0  0  0  0
   41.2860   25.3500   40.9260 C   0  0  0  0  0  0  0  0  0  0  0  0
   41.9600   25.4650   42.1410 C   0  0  0  0  0  0  0  0  0  0  0  0
   41.2010   25.3230   43.3030 C   0  0  0  0  0  0  0  0  0  0  0  0
   39.8810   25.0840   43.2110 N   0  0  0  0  0  0  0  0  0  0  0  0
   39.2770   24.9820   42.0040 C   0  0  0  0  0  0  0  0  0  0  0  0
   39.9650   25.1120   40.8780 N   0  0  0  0  0  0  0  0  0  0  0  0
   41.8690   25.4610   40.0170 H   0  0  0  0  0  0  0  0  0  0  0  0
   41.7300   25.4120   44.2540 H   0  0  0  0  0  0  0  0  0  0  0  0
   43.4290   25.7310   42.1270 C   0  0  0  0  0  0  0  0  0  0  0  0
   43.9150   25.1220   43.2630 F   0  0  0  0  0  0  0  0  0  0  0  0
   43.5750   27.1170   42.2410 F   0  0  0  0  0  0  0  0  0  0  0  0
   43.9600   25.2590   40.9720 F   0  0  0  0  0  0  0  0  0  0  0  0
  1  2  1  0  0  0  0
  2  3  2  0  0  0  0
  2  7  1  0  0  0  0
  3  8  1  0  0  0  0
  4  3  1  0  0  0  0
  5  4  2  0  0  0  0
  6  5  1  0  0  0  0
  6  1  2  0  0  0  0
  9 14  1  6  0  0  0
 10  9  1  0  0  0  0
 10  5  1  1  0  0  0
 11 10  1  0  0  0  0
 12 11  1  0  0  0  0
 12 13  1  0  0  0  0
 13 16  1  6  0  0  0
 13  9  1  0  0  0  0
 14 15  1  0  0  0  0
 17 16  1  0  0  0  0
 18 21  1  0  0  0  0
 18  1  1  0  0  0  0
 19 18  1  0  0  0  0
 20 18  1  0  0  0  0
 21 26  1  0  0  0  0
 22 23  1  0  0  0  0
 23 24  2  0  0  0  0
 24 29  1  0  0  0  0
 25 24  1  0  0  0  0
 26 25  2  0  0  0  0
 27 22  2  0  0  0  0
 27 26  1  0  0  0  0
 28 22  1  0  0  0  0
 30 23  1  0  0  0  0
 30 32  1  0  0  0  0
 30 31  1  0  0  0  0
 33 30  1  0  0  0  0
M  END
>  <minimizedAffinity>
-5.39002657

$$$$

 OpenBabel03252505553D

 33 35  0  0  1  0  0  0  0  0999 V2000
   39.9590   28.0180   42.6420 C   0  0  0  0  0  0  0  0  0  0  0  0
   41.0470   27.5840   41.9050 C   0  0  0  0  0  0  0  0  0  0  0  0
   41.7420   28.5080   41.1680 C   0  0  0  0  0  0  0  0  0  0  0  0
   41.3980   29.7930   41.1470 N   0  0  0  0  0  0  0  0  0  0  0  0
   40.3360   30.2120   41.8690 C   0  0  0  0  0  0  0  0  0  0  0  0
   39.6150   29.3290   42.6170 N   0  0  0  0  0  0  0  0  0  0  0  0
   41.1980   26.5210   42.0250 H   0  0  0  0  0  0  0  0  0  0  0  0
   42.5770   28.0940   40.6190 H   0  0  0  0  0  0  0  0  0  0  0  0
   38.6810   31.8280   41.1730 C   0  0  1  0  0  3  0  0  0  0  0  0
   40.0430   31.6660   41.7710 C   0  0  2  0  0  3  0  0  0  0  0  0
   40.9610   32.3540   41.0020 O   0  0  0  0  0  0  0  0  0  0  0  0
   40.2810   32.9900   39.9860 C   0  0  0  0  0  2  0  0  0  0  0  0
   38.8520   33.1970   40.5020 C   0  0  2  0  0  3  0  0  0  0  0  0
   38.5050   30.8900   40.1850 O   0  0  0  0  0  0  0  0  0  0  0  0
   37.6080   30.4710   40.2350 H   0  0  0  0  0  0  0  0  0  0  0  0
   38.8100   34.2200   41.4360 O   0  0  0  0  0  0  0  0  0  0  0  0
   39.7290   34.5230   41.7080 H   0  0  0  0  0  0  0  0  0  0  0  0
   39.0260   27.2870   43.5200 C   0  0  0  0  0  0  0  0  0  0  0  0
   38.3880   28.0490   44.0140 H   0  0  0  0  0  0  0  0  0  0  0  0
   39.5410   26.7210   44.3260 H   0  0  0  0  0  0  0  0  0  0  0  0
   38.1970   26.4850   42.7210 O   0  0  0  0  0  0  0  0  0  0  0  0
   35.7790   28.5930   41.1820 C   0  0  0  0  0  0  0  0  0  0  0  0
   35.7790   28.1850   39.8480 C   0  0  0  0  0  0  0  0  0  0  0  0
   36.6490   27.1520   39.5010 C   0  0  0  0  0  0  0  0  0  0  0  0
   37.4360   26.6000   40.4420 N   0  0  0  0  0  0  0  0  0  0  0  0
   37.3960   27.0340   41.7230 C   0  0  0  0  0  0  0  0  0  0  0  0
   36.5820   28.0140   42.0900 N   0  0  0  0  0  0  0  0  0  0  0  0
   35.1050   29.3970   41.4610 H   0  0  0  0  0  0  0  0  0  0  0  0
   36.6470   26.8330   38.4570 H   0  0  0  0  0  0  0  0  0  0  0  0
   34.8630   28.8680   38.8880 C   0  0  0  0  0  0  0  0  0  0  0  0
   33.7690   29.2400   39.6370 F   0  0  0  0  0  0  0  0  0  0  0  0
   34.4830   27.8970   37.9550 F   0  0  0  0  0  0  0  0  0  0  0  0
   35.5160   29.9030   38.3030 F   0  0  0  0  0  0  0  0  0  0  0  0
  1 18  1  0  0  0  0
  2  7  1  0  0  0  0
  2  1  2  0  0  0  0
  3  2  1  0  0  0  0
  4  3  2  0  0  0  0
  4  5  1  0  0  0  0
  5  6  2  0  0  0  0
  6  1  1  0  0  0  0
  8  3  1  0  0  0  0
  9 14  1  6  0  0  0
  9 10  1  0  0  0  0
 10  5  1  6  0  0  0
 11 10  1  0  0  0  0
 12 13  1  0  0  0  0
 12 11  1  0  0  0  0
 13  9  1  0  0  0  0
 13 16  1  1  0  0  0
 14 15  1  0  0  0  0
 16 17  1  0  0  0  0
 18 19  1  0  0  0  0
 18 20  1  0  0  0  0
 21 18  1  0  0  0  0
 22 28  1  0  0  0  0
 22 27  1  0  0  0  0
 23 22  2  0  0  0  0
 24 23  1  0  0  0  0
 24 25  2  0  0  0  0
 25 26  1  0  0  0  0
 26 27  2  0  0  0  0
 26 21  1  0  0  0  0
 29 24  1  0  0  0  0
 30 31  1  0  0  0  0
 30 23  1  0  0  0  0
 32 30  1  0  0  0  0
 33 30  1  0  0  0  0
M  END
>  <minimizedAffinity>
-5.30885458

$$$$
