
 OpenBabel03252507073D

 24 25  0  0  1  0  0  0  0  0999 V2000
   44.5960   35.6800   44.8060 C   0  0  0  0  0  0  0  0  0  0  0  0
   45.1740   35.7300   43.5270 C   0  0  0  0  0  0  0  0  0  0  0  0
   46.1330   34.7730   43.2260 C   0  0  0  0  0  0  0  0  0  0  0  0
   46.4760   33.8350   44.1650 N   0  0  0  0  0  0  0  0  0  0  0  0
   45.8960   33.8200   45.3860 C   0  0  0  0  0  0  0  0  0  0  0  0
   44.9650   34.7380   45.6980 N   0  0  0  0  0  0  0  0  0  0  0  0
   43.8450   36.4250   45.0500 H   0  0  0  0  0  0  0  0  0  0  0  0
   44.8380   36.5050   42.8620 H   0  0  0  0  0  0  0  0  0  0  0  0
   45.8940   33.1310   47.7660 C   0  0  2  0  0  3  0  0  0  0  0  0
   46.3290   32.7660   46.3420 C   0  0  1  0  0  3  0  0  0  0  0  0
   45.7160   31.5480   46.0930 O   0  0  0  0  0  0  0  0  0  0  0  0
   45.5870   30.8770   47.2780 C   0  0  0  0  0  2  0  0  0  0  0  0
   45.9890   31.7680   48.4150 C   0  0  2  0  0  3  0  0  0  0  0  0
   44.5570   33.5300   47.6620 O   0  0  0  0  0  0  0  0  0  0  0  0
   44.1290   33.2040   46.8110 H   0  0  0  0  0  0  0  0  0  0  0  0
   45.1000   31.7080   49.4830 O   0  0  0  0  0  0  0  0  0  0  0  0
   44.3040   32.2840   49.3330 H   0  0  0  0  0  0  0  0  0  0  0  0
   46.7040   34.8270   41.9530 O   0  0  0  0  0  0  0  0  0  0  0  0
   48.6090   33.1430   41.2140 O   0  0  0  0  0  0  0  0  0  0  0  0
   48.3900   34.5440   41.7740 P   0  0  0  0  0  0  0  0  0  0  0  0
   49.0210   35.7230   40.7750 O   0  0  0  0  0  0  0  0  0  0  0  0
   48.6100   35.6440   39.8980 H   0  0  0  0  0  0  0  0  0  0  0  0
   49.0740   34.6010   43.3260 O   0  0  0  0  0  0  0  0  0  0  0  0
   48.8340   33.7590   43.7880 H   0  0  0  0  0  0  0  0  0  0  0  0
  1  7  1  0  0  0  0
  1  6  1  0  0  0  0
  2  1  2  0  0  0  0
  3  2  1  0  0  0  0
  3  4  2  0  0  0  0
  4  5  1  0  0  0  0
  5  6  2  0  0  0  0
  8  2  1  0  0  0  0
  9 14  1  6  0  0  0
  9 13  1  0  0  0  0
 10  5  1  6  0  0  0
 10  9  1  0  0  0  0
 11 10  1  0  0  0  0
 11 12  1  0  0  0  0
 12 13  1  0  0  0  0
 13 16  1  1  0  0  0
 15 14  1  0  0  0  0
 17 16  1  0  0  0  0
 18  3  1  0  0  0  0
 19 20  2  0  0  0  0
 20 18  1  0  0  0  0
 20 23  1  0  0  0  0
 21 20  1  0  0  0  0
 22 21  1  0  0  0  0
 23 24  1  0  0  0  0
M  END
>  <minimizedAffinity>
-6.22164011

>  <minimizedRMSD>
0.850673914

$$$$
