REMARK  Name = 
REMARK  8 active torsions:
REMARK  status: ('A' for Active; 'I' for Inactive)
REMARK    1  A    between atoms: C_1  and  C_2
REMARK    2  A    between atoms: C_1  and  C_14
REMARK    3  A    between atoms: C_6  and  C_8
REMARK    4  A    between atoms: C_14  and  N_15
REMARK    5  A    between atoms: C_20  and  S_21
REMARK    6  A    between atoms: S_21  and  C_41
REMARK    7  A    between atoms: O_39  and  C_40
REMARK    8  A    between atoms: C_44  and  O_45
REMARK                            x       y       z     vdW  Elec       q    Type
REMARK                         _______ _______ _______ _____ _____    ______ ____
ROOT
ATOM      1  C   UNL     1      41.904  33.955  41.206  0.00  0.00    +0.000 C 
ATOM      2  H   UNL     1      41.541  33.951  42.257  0.00  0.00    +0.000 HD
ATOM      3  H   UNL     1      42.198  35.046  41.036  0.00  0.00    +0.000 HD
ENDROOT
BRANCH   1   4
ATOM      4  N   UNL     1      41.001  33.486  40.351  0.00  0.00    +0.000 N 
ATOM      5  C   UNL     1      40.326  32.253  40.333  0.00  0.00    +0.000 C 
ATOM      6  C   UNL     1      38.939  32.745  40.813  0.00  0.00    +0.000 C 
ATOM      7  C   UNL     1      38.336  33.702  39.901  0.00  0.00    +0.000 C 
ATOM      8  C   UNL     1      39.175  34.506  39.039  0.00  0.00    +0.000 C 
ATOM      9  C   UNL     1      40.657  34.433  39.265  0.00  0.00    +0.000 C 
ATOM     10  H   UNL     1      40.282  31.660  39.436  0.00  0.00    +0.000 HD
ATOM     11  H   UNL     1      40.708  31.580  41.143  0.00  0.00    +0.000 HD
ATOM     12  H   UNL     1      39.050  33.119  41.844  0.00  0.00    +0.000 HD
ATOM     13  H   UNL     1      38.341  31.791  40.895  0.00  0.00    +0.000 HD
ATOM     14  H   UNL     1      37.677  34.408  40.486  0.00  0.00    +0.000 HD
ATOM     15  H   UNL     1      37.595  33.157  39.246  0.00  0.00    +0.000 HD
ATOM     16  H   UNL     1      38.873  35.166  38.270  0.00  0.00    +0.000 HD
BRANCH   9  17
ATOM     17  S   UNL     1      41.775  35.421  38.334  0.00  0.00    +0.000 S 
BRANCH  17  19
ATOM     18  C   UNL     1      39.989  37.361  37.818  0.00  0.00    +0.000 C 
ATOM     19  C   UNL     1      40.953  36.445  37.096  0.00  0.00    +0.000 C 
ATOM     20  O   UNL     1      41.892  37.278  36.511  0.00  0.00    +0.000 OA
ATOM     21  C   UNL     1      42.211  38.138  37.584  0.00  0.00    +0.000 C 
ATOM     22  C   UNL     1      40.834  38.576  38.096  0.00  0.00    +0.000 C 
BRANCH  18  23
ATOM     23  O   UNL     1      39.606  36.763  39.020  0.00  0.00    +0.000 OA
ATOM     24  H   UNL     1      40.303  37.008  39.696  0.00  0.00    +0.000 HD
ENDBRANCH  18  23
BRANCH  22  25
ATOM     25  O   UNL     1      40.916  38.862  39.450  0.00  0.00    +0.000 OA
ATOM     26  H   UNL     1      41.791  39.282  39.663  0.00  0.00    +0.000 HD
ENDBRANCH  22  25
ENDBRANCH  17  19
ENDBRANCH   9  17
ENDBRANCH   1   4
BRANCH   1  27
ATOM     27  C   UNL     1      43.199  33.222  41.167  0.00  0.00    +0.000 C 
ATOM     28  H   UNL     1      43.482  32.983  40.125  0.00  0.00    +0.000 HD
ATOM     29  H   UNL     1      43.082  32.258  41.724  0.00  0.00    +0.000 HD
BRANCH  27  30
ATOM     30  C   UNL     1      44.229  34.071  41.788  0.00  0.00    +0.000 A 
ATOM     31  C   UNL     1      43.882  35.253  42.401  0.00  0.00    +0.000 A 
ATOM     32  C   UNL     1      44.885  36.027  42.963  0.00  0.00    +0.000 A 
ATOM     33  N   UNL     1      46.176  35.572  42.880  0.00  0.00    +0.000 NA
ATOM     34  C   UNL     1      46.471  34.424  42.280  0.00  0.00    +0.000 A 
ATOM     35  N   UNL     1      45.488  33.699  41.746  0.00  0.00    +0.000 NA
ATOM     36  H   UNL     1      42.947  35.757  42.579  0.00  0.00    +0.000 HD
ATOM     37  H   UNL     1      44.799  36.977  43.479  0.00  0.00    +0.000 HD
BRANCH  34  38
ATOM     38  C   UNL     1      47.872  34.008  42.260  0.00  0.00    +0.000 A 
ATOM     39  C   UNL     1      48.215  32.685  42.005  0.00  0.00    +0.000 A 
ATOM     40  C   UNL     1      49.530  32.291  41.993  0.00  0.00    +0.000 A 
ATOM     41  C   UNL     1      50.428  33.312  42.252  0.00  0.00    +0.000 A 
ATOM     42  C   UNL     1      50.139  34.650  42.513  0.00  0.00    +0.000 A 
ATOM     43  N   UNL     1      48.816  34.947  42.504  0.00  0.00    +0.000 NA
ATOM     44  H   UNL     1      47.452  31.924  41.808  0.00  0.00    +0.000 HD
ATOM     45  H   UNL     1      49.890  31.303  41.809  0.00  0.00    +0.000 HD
ATOM     46  H   UNL     1      51.492  33.065  42.258  0.00  0.00    +0.000 HD
ATOM     47  H   UNL     1      50.910  35.352  42.699  0.00  0.00    +0.000 HD
ENDBRANCH  34  38
ENDBRANCH  27  30
ENDBRANCH   1  27
TORSDOF 8
