
 OpenBabel03252507033D

 47 50  0  0  1  0  0  0  0  0999 V2000
   42.5750   31.5920   39.6670 C   0  0  0  0  0  0  0  0  0  0  0  0
   42.4640   30.5100   39.4390 H   0  0  0  0  0  0  0  0  0  0  0  0
   43.2280   31.5970   40.6040 H   0  0  0  0  0  0  0  0  0  0  0  0
   41.4050   32.2080   39.8050 N   0  0  0  0  0  0  0  0  0  0  0  0
   40.9490   33.0680   40.8200 C   0  0  0  0  0  0  0  0  0  0  0  0
   41.0370   34.4040   40.0430 C   0  0  0  0  0  0  0  0  0  0  0  0
   40.1670   34.4350   38.8790 C   0  0  0  0  0  0  0  0  0  0  0  0
   39.7810   33.2000   38.2330 C   0  0  0  0  0  0  0  0  0  0  0  0
   40.4550   31.9430   38.7000 C   0  0  0  0  0  0  0  0  0  0  0  0
   39.9940   32.9100   41.2910 H   0  0  0  0  0  0  0  0  0  0  0  0
   41.7040   33.1440   41.6440 H   0  0  0  0  0  0  0  0  0  0  0  0
   42.0980   34.5930   39.8130 H   0  0  0  0  0  0  0  0  0  0  0  0
   40.7490   35.1730   40.8180 H   0  0  0  0  0  0  0  0  0  0  0  0
   40.6260   35.1010   38.0910 H   0  0  0  0  0  0  0  0  0  0  0  0
   39.2220   34.9900   39.1520 H   0  0  0  0  0  0  0  0  0  0  0  0
   39.0870   33.0680   37.4450 H   0  0  0  0  0  0  0  0  0  0  0  0
   40.1270   30.3920   37.9400 S   0  0  0  0  0  0  0  0  0  0  0  0
   41.2120   27.9520   37.6330 C   0  0  2  0  0  3  0  0  0  0  0  0
   41.6160   29.4110   37.6620 C   0  0  1  0  0  3  0  0  0  0  0  0
   42.1040   29.6880   36.3960 O   0  0  0  0  0  0  0  0  0  0  0  0
   41.1010   29.1210   35.5800 C   0  0  0  0  0  2  0  0  0  0  0  0
   40.9240   27.7190   36.1740 C   0  0  2  0  0  3  0  0  0  0  0  0
   40.0450   27.7890   38.3810 O   0  0  0  0  0  0  0  0  0  0  0  0
   39.2800   27.9840   37.7640 H   0  0  0  0  0  0  0  0  0  0  0  0
   39.6250   27.2870   35.9560 O   0  0  0  0  0  0  0  0  0  0  0  0
   39.2970   27.6050   35.0730 H   0  0  0  0  0  0  0  0  0  0  0  0
   43.4440   32.1930   38.6180 C   0  0  0  0  0  0  0  0  0  0  0  0
   43.7140   33.2330   38.8820 H   0  0  0  0  0  0  0  0  0  0  0  0
   42.8770   32.2180   37.6530 H   0  0  0  0  0  0  0  0  0  0  0  0
   44.6590   31.3710   38.4980 C   0  0  0  0  0  0  0  0  0  0  0  0
   44.9100   30.3620   39.4000 C   0  0  0  0  0  0  0  0  0  0  0  0
   46.0710   29.6190   39.2560 C   0  0  0  0  0  0  0  0  0  0  0  0
   46.9120   29.9290   38.2180 N   0  0  0  0  0  0  0  0  0  0  0  0
   46.6340   30.9110   37.3670 C   0  0  0  0  0  0  0  0  0  0  0  0
   45.5110   31.6110   37.5280 N   0  0  0  0  0  0  0  0  0  0  0  0
   44.3760   29.9660   40.2470 H   0  0  0  0  0  0  0  0  0  0  0  0
   46.4300   28.7980   39.8660 H   0  0  0  0  0  0  0  0  0  0  0  0
   47.5780   31.1540   36.2780 C   0  0  0  0  0  0  0  0  0  0  0  0
   47.1980   31.8900   35.1620 C   0  0  0  0  0  0  0  0  0  0  0  0
   48.0810   32.1130   34.1350 C   0  0  0  0  0  0  0  0  0  0  0  0
   49.3290   31.5480   34.3290 C   0  0  0  0  0  0  0  0  0  0  0  0
   49.7610   30.8030   35.4250 C   0  0  0  0  0  0  0  0  0  0  0  0
   48.8230   30.6350   36.3900 N   0  0  0  0  0  0  0  0  0  0  0  0
   46.1900   32.3110   35.0700 H   0  0  0  0  0  0  0  0  0  0  0  0
   47.8820   32.6630   33.2410 H   0  0  0  0  0  0  0  0  0  0  0  0
   50.0790   31.6880   33.5480 H   0  0  0  0  0  0  0  0  0  0  0  0
   50.7450   30.4150   35.4710 H   0  0  0  0  0  0  0  0  0  0  0  0
  1  4  1  0  0  0  0
  1  3  1  0  0  0  0
  2  1  1  0  0  0  0
  4  5  1  0  0  0  0
  5 10  1  0  0  0  0
  5 11  1  0  0  0  0
  6 13  1  0  0  0  0
  6  5  1  0  0  0  0
  7 15  1  0  0  0  0
  7  6  1  0  0  0  0
  8  9  2  0  0  0  0
  8  7  1  0  0  0  0
  9  4  1  0  0  0  0
 12  6  1  0  0  0  0
 14  7  1  0  0  0  0
 16  8  1  0  0  0  0
 17  9  1  0  0  0  0
 18 19  1  0  0  0  0
 18 23  1  1  0  0  0
 19 17  1  6  0  0  0
 20 19  1  0  0  0  0
 21 22  1  0  0  0  0
 21 20  1  0  0  0  0
 22 25  1  1  0  0  0
 22 18  1  0  0  0  0
 24 23  1  0  0  0  0
 26 25  1  0  0  0  0
 27 28  1  0  0  0  0
 27  1  1  0  0  0  0
 29 27  1  0  0  0  0
 30 27  1  0  0  0  0
 30 31  1  0  0  0  0
 31 36  1  0  0  0  0
 32 31  2  0  0  0  0
 32 37  1  0  0  0  0
 33 32  1  0  0  0  0
 34 35  1  0  0  0  0
 34 33  2  0  0  0  0
 35 30  2  0  0  0  0
 38 43  1  0  0  0  0
 38 34  1  0  0  0  0
 39 38  2  0  0  0  0
 40 41  2  0  0  0  0
 40 39  1  0  0  0  0
 41 42  1  0  0  0  0
 42 47  1  0  0  0  0
 42 43  2  0  0  0  0
 44 39  1  0  0  0  0
 45 40  1  0  0  0  0
 46 41  1  0  0  0  0
M  END
>  <minimizedAffinity>
-2.98734975

>  <minimizedRMSD>
6.68798971

$$$$
