REMARK  Name = 
REMARK  6 active torsions:
REMARK  status: ('A' for Active; 'I' for Inactive)
REMARK    1  A    between atoms: O_1  and  C_2
REMARK    2  A    between atoms: O_1  and  C_13
REMARK    3  A    between atoms: C_16  and  C_18
REMARK    4  A    between atoms: N_21  and  C_35
REMARK    5  A    between atoms: O_33  and  C_34
REMARK    6  A    between atoms: C_38  and  O_39
REMARK                            x       y       z     vdW  Elec       q    Type
REMARK                         _______ _______ _______ _____ _____    ______ ____
ROOT
ATOM      1  C   UNL     1      44.934  34.852  45.133  0.00  0.00    +0.000 A 
ATOM      2  C   UNL     1      45.669  34.633  43.974  0.00  0.00    +0.000 A 
ATOM      3  C   UNL     1      46.646  33.622  44.017  0.00  0.00    +0.000 A 
ATOM      4  N   UNL     1      46.808  32.940  45.156  0.00  0.00    +0.000 NA
ATOM      5  C   UNL     1      46.087  33.168  46.266  0.00  0.00    +0.000 A 
ATOM      6  N   UNL     1      45.139  34.144  46.234  0.00  0.00    +0.000 NA
ATOM      7  H   UNL     1      44.176  35.641  45.092  0.00  0.00    +0.000 HD
ATOM      8  H   UNL     1      47.251  33.396  43.165  0.00  0.00    +0.000 HD
ENDROOT
BRANCH   5   9
ATOM      9  C   UNL     1      46.231  32.451  47.519  0.00  0.00    +0.000 A 
ATOM     10  C   UNL     1      45.115  31.967  48.215  0.00  0.00    +0.000 A 
ATOM     11  C   UNL     1      45.603  31.337  49.360  0.00  0.00    +0.000 A 
ATOM     12  N   UNL     1      46.947  31.446  49.339  0.00  0.00    +0.000 N 
ATOM     13  N   UNL     1      47.283  32.111  48.235  0.00  0.00    +0.000 NA
ATOM     14  H   UNL     1      44.059  32.052  47.939  0.00  0.00    +0.000 HD
ATOM     15  H   UNL     1      45.000  30.850  50.127  0.00  0.00    +0.000 HD
BRANCH  12  17
ATOM     16  C   UNL     1      48.561  29.699  49.779  0.00  0.00    +0.000 C 
ATOM     17  C   UNL     1      47.864  30.932  50.339  0.00  0.00    +0.000 C 
ATOM     18  O   UNL     1      48.943  31.791  50.527  0.00  0.00    +0.000 OA
ATOM     19  C   UNL     1      49.961  31.035  51.086  0.00  0.00    +0.000 C 
ATOM     20  C   UNL     1      49.807  29.615  50.597  0.00  0.00    +0.000 C 
BRANCH  16  21
ATOM     21  O   UNL     1      47.760  28.583  49.803  0.00  0.00    +0.000 OA
ATOM     22  H   UNL     1      48.058  27.986  49.066  0.00  0.00    +0.000 HD
ENDBRANCH  16  21
BRANCH  20  23
ATOM     23  O   UNL     1      49.621  28.688  51.594  0.00  0.00    +0.000 OA
ATOM     24  H   UNL     1      49.102  29.030  52.340  0.00  0.00    +0.000 HD
ENDBRANCH  20  23
ENDBRANCH  12  17
ENDBRANCH   5   9
BRANCH   2  25
ATOM     25  O   UNL     1      45.508  35.334  42.792  0.00  0.00    +0.000 OA
BRANCH  25  26
ATOM     26  C   UNL     1      44.588  35.016  41.800  0.00  0.00    +0.000 A 
ATOM     27  C   UNL     1      44.799  34.215  40.708  0.00  0.00    +0.000 A 
ATOM     28  C   UNL     1      43.784  33.992  39.807  0.00  0.00    +0.000 A 
ATOM     29  C   UNL     1      42.528  34.552  39.955  0.00  0.00    +0.000 A 
ATOM     30  N   UNL     1      41.578  34.304  39.052  0.00  0.00    +0.000 NA
ATOM     31  C   UNL     1      40.350  34.828  39.163  0.00  0.00    +0.000 A 
ATOM     32  C   UNL     1      40.102  35.635  40.245  0.00  0.00    +0.000 A 
ATOM     33  C   UNL     1      41.084  35.909  41.204  0.00  0.00    +0.000 A 
ATOM     34  C   UNL     1      42.331  35.355  41.059  0.00  0.00    +0.000 A 
ATOM     35  C   UNL     1      43.343  35.598  41.988  0.00  0.00    +0.000 A 
ATOM     36  H   UNL     1      45.790  33.790  40.615  0.00  0.00    +0.000 HD
ATOM     37  H   UNL     1      44.032  33.352  38.977  0.00  0.00    +0.000 HD
ATOM     38  H   UNL     1      39.654  34.572  38.390  0.00  0.00    +0.000 HD
ATOM     39  H   UNL     1      39.129  36.060  40.348  0.00  0.00    +0.000 HD
ATOM     40  H   UNL     1      40.853  36.554  42.051  0.00  0.00    +0.000 HD
ATOM     41  H   UNL     1      43.092  36.239  42.818  0.00  0.00    +0.000 HD
ENDBRANCH  25  26
ENDBRANCH   2  25
TORSDOF 6
