
 OpenBabel03252506363D

 44 47  0  0  1  0  0  0  0  0999 V2000
   44.5070   35.5410   45.1190 C   0  0  0  0  0  0  0  0  0  0  0  0
   45.1680   35.5180   43.8820 C   0  0  0  0  0  0  0  0  0  0  0  0
   46.0880   34.5580   43.6380 C   0  0  0  0  0  0  0  0  0  0  0  0
   46.3180   33.6570   44.6270 N   0  0  0  0  0  0  0  0  0  0  0  0
   45.6910   33.6830   45.7940 C   0  0  0  0  0  0  0  0  0  0  0  0
   44.7810   34.6190   46.0590 N   0  0  0  0  0  0  0  0  0  0  0  0
   46.0160   32.6810   46.7740 N   0  0  0  0  0  0  0  0  0  0  0  0
   45.2680   32.4470   47.9580 C   0  0  0  0  0  0  0  0  0  0  0  0
   46.3400   32.1080   48.9810 C   0  0  0  0  0  0  0  0  0  0  0  0
   47.6230   31.9960   48.2210 C   0  0  0  0  0  0  0  0  0  0  0  0
   47.1350   31.7700   46.7900 C   0  0  1  0  0  0  0  0  0  0  0  0
   43.7600   36.3200   45.3180 H   0  0  0  0  0  0  0  0  0  0  0  0
   46.5970   34.5290   42.7040 H   0  0  0  0  0  0  0  0  0  0  0  0
   44.9130   33.4720   48.3040 H   0  0  0  0  0  0  0  0  0  0  0  0
   44.4300   31.8290   48.0340 H   0  0  0  0  0  0  0  0  0  0  0  0
   46.0860   31.0770   49.3670 H   0  0  0  0  0  0  0  0  0  0  0  0
   46.3510   32.7460   49.8610 H   0  0  0  0  0  0  0  0  0  0  0  0
   48.2000   31.1190   48.5820 H   0  0  0  0  0  0  0  0  0  0  0  0
   48.1870   32.9520   48.3030 H   0  0  0  0  0  0  0  0  0  0  0  0
   47.8680   32.1300   46.0450 H   0  0  0  0  0  0  0  0  0  0  0  0
   44.8080   36.5480   42.9440 N   0  0  0  0  0  0  0  0  0  0  0  0
   43.8180   36.4850   42.6140 H   0  0  0  0  0  0  0  0  0  0  0  0
   45.4400   37.3040   42.5980 H   0  0  0  0  0  0  0  0  0  0  0  0
   46.6210   30.0800   46.6170 S   0  0  0  0  0  0  0  0  0  0  0  0
   45.8320   30.5370   43.4150 O   0  0  0  0  0  0  0  0  0  0  0  0
   45.1380   29.9950   44.2930 C   0  0  0  0  0  0  0  0  0  0  0  0
   45.1310   29.7830   45.7590 C   0  0  1  0  0  0  0  0  0  0  0  0
   44.5910   28.3790   45.8670 C   0  0  0  0  0  0  0  0  0  0  0  0
   43.3310   28.5870   45.0240 C   0  0  0  0  0  0  0  0  0  0  0  0
   43.9200   29.3170   43.9050 N   0  0  0  0  0  0  0  0  0  0  0  0
   44.2250   30.3940   46.0300 H   0  0  0  0  0  0  0  0  0  0  0  0
   45.2250   27.6360   45.3550 H   0  0  0  0  0  0  0  0  0  0  0  0
   44.3260   28.1050   46.9050 H   0  0  0  0  0  0  0  0  0  0  0  0
   42.9790   27.5870   44.7840 H   0  0  0  0  0  0  0  0  0  0  0  0
   42.5920   29.2080   45.5680 H   0  0  0  0  0  0  0  0  0  0  0  0
   42.7040   30.6170   42.1900 C   0  0  2  0  0  3  0  0  0  0  0  0
   43.2780   29.3080   42.5770 C   0  0  2  0  0  3  0  0  0  0  0  0
   42.2710   28.3930   42.4890 O   0  0  0  0  0  0  0  0  0  0  0  0
   41.0480   29.0040   42.5460 C   0  0  0  0  0  2  0  0  0  0  0  0
   41.2020   30.4600   42.2620 C   0  0  1  0  0  3  0  0  0  0  0  0
   43.0010   30.8840   40.8530 O   0  0  0  0  0  0  0  0  0  0  0  0
   42.9990   30.0580   40.2970 H   0  0  0  0  0  0  0  0  0  0  0  0
   40.6650   31.2650   43.2820 O   0  0  0  0  0  0  0  0  0  0  0  0
   41.4000   31.6260   43.8560 H   0  0  0  0  0  0  0  0  0  0  0  0
  1 12  1  0  0  0  0
  1  6  1  0  0  0  0
  2  1  2  0  0  0  0
  3  2  1  0  0  0  0
  3  4  2  0  0  0  0
  4  5  1  0  0  0  0
  5  6  2  0  0  0  0
  5  7  1  0  0  0  0
  7 11  1  0  0  0  0
  7  8  1  0  0  0  0
  8 15  1  0  0  0  0
  8 14  1  0  0  0  0
  8  9  1  0  0  0  0
  9 16  1  0  0  0  0
  9 17  1  0  0  0  0
 10 19  1  0  0  0  0
 10 18  1  0  0  0  0
 10  9  1  0  0  0  0
 11 20  1  6  0  0  0
 11 10  1  0  0  0  0
 13  3  1  0  0  0  0
 21  2  1  0  0  0  0
 22 21  1  0  0  0  0
 23 21  1  0  0  0  0
 24 11  1  0  0  0  0
 25 26  2  0  0  0  0
 26 27  1  0  0  0  0
 27 28  1  0  0  0  0
 27 31  1  1  0  0  0
 27 24  1  0  0  0  0
 28 33  1  0  0  0  0
 29 35  1  0  0  0  0
 29 28  1  0  0  0  0
 30 26  1  0  0  0  0
 30 29  1  0  0  0  0
 32 28  1  0  0  0  0
 34 29  1  0  0  0  0
 36 41  1  6  0  0  0
 36 40  1  0  0  0  0
 36 37  1  0  0  0  0
 37 30  1  1  0  0  0
 38 39  1  0  0  0  0
 38 37  1  0  0  0  0
 40 39  1  0  0  0  0
 40 43  1  1  0  0  0
 42 41  1  0  0  0  0
 43 44  1  0  0  0  0
M  END
>  <minimizedAffinity>
-5.87341595

>  <minimizedRMSD>
0.244525433

$$$$
