REMARK  Name = 
REMARK  6 active torsions:
REMARK  status: ('A' for Active; 'I' for Inactive)
REMARK    1  A    between atoms: C_2  and  N_12
REMARK    2  A    between atoms: C_11  and  S_13
REMARK    3  A    between atoms: S_13  and  C_16
REMARK    4  A    between atoms: N_19  and  C_38
REMARK    5  A    between atoms: O_36  and  C_37
REMARK    6  A    between atoms: C_41  and  O_42
REMARK                            x       y       z     vdW  Elec       q    Type
REMARK                         _______ _______ _______ _____ _____    ______ ____
ROOT
ATOM      1  C   UNL     1      44.505  35.533  45.116  0.00  0.00    +0.000 A 
ATOM      2  C   UNL     1      45.166  35.505  43.879  0.00  0.00    +0.000 A 
ATOM      3  C   UNL     1      46.086  34.544  43.640  0.00  0.00    +0.000 A 
ATOM      4  N   UNL     1      46.316  33.647  44.633  0.00  0.00    +0.000 NA
ATOM      5  C   UNL     1      45.688  33.678  45.799  0.00  0.00    +0.000 A 
ATOM      6  N   UNL     1      44.778  34.615  46.060  0.00  0.00    +0.000 NA
ATOM      7  N   UNL     1      46.013  32.681  46.784  0.00  0.00    +0.000 N 
ATOM      8  C   UNL     1      45.265  32.452  47.968  0.00  0.00    +0.000 C 
ATOM      9  C   UNL     1      46.336  32.117  48.993  0.00  0.00    +0.000 C 
ATOM     10  C   UNL     1      47.620  32.002  48.234  0.00  0.00    +0.000 C 
ATOM     11  C   UNL     1      47.132  31.770  46.804  0.00  0.00    +0.000 C 
ATOM     12  H   UNL     1      43.758  36.313  45.311  0.00  0.00    +0.000 HD
ATOM     13  H   UNL     1      46.595  34.511  42.706  0.00  0.00    +0.000 HD
ATOM     14  H   UNL     1      44.910  33.478  48.310  0.00  0.00    +0.000 HD
ATOM     15  H   UNL     1      44.427  31.834  48.047  0.00  0.00    +0.000 HD
ATOM     16  H   UNL     1      46.082  31.088  49.384  0.00  0.00    +0.000 HD
ATOM     17  H   UNL     1      46.347  32.759  49.870  0.00  0.00    +0.000 HD
ATOM     18  H   UNL     1      48.197  31.126  48.599  0.00  0.00    +0.000 HD
ATOM     19  H   UNL     1      48.184  32.958  48.312  0.00  0.00    +0.000 HD
ATOM     20  H   UNL     1      47.865  32.126  46.058  0.00  0.00    +0.000 HD
ENDROOT
BRANCH   2  21
ATOM     21  N   UNL     1      44.806  36.531  42.937  0.00  0.00    +0.000 N 
ATOM     22  H   UNL     1      43.816  36.467  42.607  0.00  0.00    +0.000 HD
ATOM     23  H   UNL     1      45.438  37.286  42.588  0.00  0.00    +0.000 HD
ENDBRANCH   2  21
BRANCH  11  24
ATOM     24  S   UNL     1      46.618  30.079  46.638  0.00  0.00    +0.000 S 
BRANCH  24  27
ATOM     25  O   UNL     1      45.622  30.512  43.491  0.00  0.00    +0.000 OA
ATOM     26  C   UNL     1      44.984  29.983  44.418  0.00  0.00    +0.000 C 
ATOM     27  C   UNL     1      45.073  29.785  45.884  0.00  0.00    +0.000 C 
ATOM     28  C   UNL     1      44.531  28.386  46.041  0.00  0.00    +0.000 C 
ATOM     29  C   UNL     1      43.219  28.596  45.282  0.00  0.00    +0.000 C 
ATOM     30  N   UNL     1      43.738  29.311  44.119  0.00  0.00    +0.000 N 
ATOM     31  H   UNL     1      44.191  30.406  46.208  0.00  0.00    +0.000 HD
ATOM     32  H   UNL     1      45.125  27.634  45.496  0.00  0.00    +0.000 HD
ATOM     33  H   UNL     1      44.334  28.124  47.097  0.00  0.00    +0.000 HD
ATOM     34  H   UNL     1      42.845  27.596  45.075  0.00  0.00    +0.000 HD
ATOM     35  H   UNL     1      42.522  29.228  45.867  0.00  0.00    +0.000 HD
BRANCH  30  37
ATOM     36  C   UNL     1      41.548  29.483  42.986  0.00  0.00    +0.000 C 
ATOM     37  C   UNL     1      43.009  29.294  42.837  0.00  0.00    +0.000 C 
ATOM     38  O   UNL     1      43.189  28.130  42.148  0.00  0.00    +0.000 OA
ATOM     39  C   UNL     1      42.081  27.332  42.240  0.00  0.00    +0.000 C 
ATOM     40  C   UNL     1      40.914  28.144  42.687  0.00  0.00    +0.000 C 
BRANCH  36  41
ATOM     41  O   UNL     1      41.084  30.358  42.003  0.00  0.00    +0.000 OA
ATOM     42  H   UNL     1      41.574  30.250  41.144  0.00  0.00    +0.000 HD
ENDBRANCH  36  41
BRANCH  40  43
ATOM     43  O   UNL     1      40.300  27.614  43.836  0.00  0.00    +0.000 OA
ATOM     44  H   UNL     1      40.569  28.142  44.641  0.00  0.00    +0.000 HD
ENDBRANCH  40  43
ENDBRANCH  30  37
ENDBRANCH  24  27
ENDBRANCH  11  24
TORSDOF 6
