
 OpenBabel03242520023D

 25 27  0  0  1  0  0  0  0  0999 V2000
   45.5790   33.4610   43.8760 C   0  0  0  0  0  0  0  0  0  0  0  0
   46.9590   33.5020   44.1200 C   0  0  0  0  0  0  0  0  0  0  0  0
   47.1390   32.9490   45.3700 C   0  0  0  0  0  0  0  0  0  0  0  0
   45.9480   32.5910   45.8630 N   0  0  0  0  0  0  0  0  0  0  0  0
   45.0370   32.9130   44.9410 N   0  0  0  0  0  0  0  0  0  0  0  0
   47.7160   33.8940   43.4490 H   0  0  0  0  0  0  0  0  0  0  0  0
   48.1090   32.8260   45.8710 H   0  0  0  0  0  0  0  0  0  0  0  0
   43.5950   35.5220   41.6020 C   0  0  0  0  0  0  0  0  0  0  0  0
   43.7890   34.9090   40.3520 C   0  0  0  0  0  0  0  0  0  0  0  0
   44.6160   33.7740   40.3070 C   0  0  0  0  0  0  0  0  0  0  0  0
   45.1610   33.3590   41.4750 N   0  0  0  0  0  0  0  0  0  0  0  0
   44.9640   33.9550   42.6520 C   0  0  0  0  0  0  0  0  0  0  0  0
   44.1700   35.0560   42.7350 N   0  0  0  0  0  0  0  0  0  0  0  0
   42.9670   36.3980   41.6880 H   0  0  0  0  0  0  0  0  0  0  0  0
   43.3260   35.2950   39.4760 H   0  0  0  0  0  0  0  0  0  0  0  0
   44.8040   33.2580   39.3770 H   0  0  0  0  0  0  0  0  0  0  0  0
   46.8590   31.9570   48.0540 C   0  0  1  0  0  0  0  0  0  0  0  0
   45.6580   31.9860   47.1130 C   0  0  2  0  0  0  0  0  0  0  0  0
   45.3430   30.6480   47.0830 O   0  0  0  0  0  0  0  0  0  0  0  0
   45.2740   30.2850   48.4170 C   0  0  0  0  0  0  0  0  0  0  0  0
   46.2520   31.1500   49.1860 C   0  0  2  0  0  0  0  0  0  0  0  0
   47.9020   31.2290   47.4820 O   0  0  0  0  0  0  0  0  0  0  0  0
   47.5070   30.3310   47.2540 H   0  0  0  0  0  0  0  0  0  0  0  0
   45.5880   32.0150   50.0340 O   0  0  0  0  0  0  0  0  0  0  0  0
   44.7400   31.6830   50.4030 H   0  0  0  0  0  0  0  0  0  0  0  0
  1  2  1  0  0  0  0
  1  5  2  0  0  0  0
  2  3  2  0  0  0  0
  3  4  1  0  0  0  0
  3  7  1  0  0  0  0
  5  4  1  0  0  0  0
  6  2  1  0  0  0  0
  8 14  1  0  0  0  0
  8 13  1  0  0  0  0
  9  8  2  0  0  0  0
 10  9  1  0  0  0  0
 10 11  2  0  0  0  0
 11 12  1  0  0  0  0
 12 13  2  0  0  0  0
 12  1  1  0  0  0  0
 15  9  1  0  0  0  0
 16 10  1  0  0  0  0
 17 22  1  6  0  0  0
 17 21  1  0  0  0  0
 18  4  1  6  0  0  0
 18 17  1  0  0  0  0
 19 18  1  0  0  0  0
 19 20  1  0  0  0  0
 20 21  1  0  0  0  0
 21 24  1  1  0  0  0
 23 22  1  0  0  0  0
 24 25  1  0  0  0  0
M  END
>  <minimizedAffinity>
-4.21886778

>  <minimizedRMSD>
3.10748219

$$$$
