
 OpenBabel03252506363D

 44 47  0  0  1  0  0  0  0  0999 V2000
   44.5270   35.4860   45.1340 C   0  0  0  0  0  0  0  0  0  0  0  0
   45.1820   35.4680   43.8940 C   0  0  0  0  0  0  0  0  0  0  0  0
   46.1030   34.5120   43.6430 C   0  0  0  0  0  0  0  0  0  0  0  0
   46.3410   33.6080   44.6280 N   0  0  0  0  0  0  0  0  0  0  0  0
   45.7190   33.6290   45.7970 C   0  0  0  0  0  0  0  0  0  0  0  0
   44.8080   34.5610   46.0700 N   0  0  0  0  0  0  0  0  0  0  0  0
   46.0520   32.6260   46.7730 N   0  0  0  0  0  0  0  0  0  0  0  0
   45.3120   32.3860   47.9600 C   0  0  0  0  0  0  0  0  0  0  0  0
   46.3890   32.0470   48.9760 C   0  0  0  0  0  0  0  0  0  0  0  0
   47.6690   31.9410   48.2100 C   0  0  0  0  0  0  0  0  0  0  0  0
   47.1740   31.7180   46.7810 C   0  0  1  0  0  0  0  0  0  0  0  0
   43.7790   36.2620   45.3390 H   0  0  0  0  0  0  0  0  0  0  0  0
   46.6070   34.4870   42.7060 H   0  0  0  0  0  0  0  0  0  0  0  0
   44.9560   33.4080   48.3110 H   0  0  0  0  0  0  0  0  0  0  0  0
   44.4760   31.7650   48.0390 H   0  0  0  0  0  0  0  0  0  0  0  0
   46.1400   31.0140   49.3610 H   0  0  0  0  0  0  0  0  0  0  0  0
   46.4030   32.6820   49.8580 H   0  0  0  0  0  0  0  0  0  0  0  0
   48.2510   31.0640   48.5650 H   0  0  0  0  0  0  0  0  0  0  0  0
   48.2310   32.8980   48.2910 H   0  0  0  0  0  0  0  0  0  0  0  0
   47.9020   32.0810   46.0330 H   0  0  0  0  0  0  0  0  0  0  0  0
   44.8140   36.5000   42.9610 N   0  0  0  0  0  0  0  0  0  0  0  0
   43.8220   36.4360   42.6360 H   0  0  0  0  0  0  0  0  0  0  0  0
   45.4420   37.2600   42.6140 H   0  0  0  0  0  0  0  0  0  0  0  0
   46.6640   30.0270   46.6050 S   0  0  0  0  0  0  0  0  0  0  0  0
   45.5740   30.3090   43.4720 O   0  0  0  0  0  0  0  0  0  0  0  0
   44.9530   29.8530   44.4480 C   0  0  0  0  0  0  0  0  0  0  0  0
   45.0870   29.7360   45.9200 C   0  0  1  0  0  0  0  0  0  0  0  0
   44.5120   28.3650   46.1750 C   0  0  0  0  0  0  0  0  0  0  0  0
   43.1810   28.5700   45.4480 C   0  0  0  0  0  0  0  0  0  0  0  0
   43.6800   29.2020   44.2290 N   0  0  0  0  0  0  0  0  0  0  0  0
   44.2340   30.4000   46.2350 H   0  0  0  0  0  0  0  0  0  0  0  0
   45.0660   27.5660   45.6560 H   0  0  0  0  0  0  0  0  0  0  0  0
   44.3440   28.1700   47.2500 H   0  0  0  0  0  0  0  0  0  0  0  0
   42.7730   27.5710   45.3120 H   0  0  0  0  0  0  0  0  0  0  0  0
   42.5220   29.2550   46.0180 H   0  0  0  0  0  0  0  0  0  0  0  0
   41.4410   29.1500   43.1830 C   0  0  2  0  0  3  0  0  0  0  0  0
   42.9070   29.1330   42.9750 C   0  0  2  0  0  3  0  0  0  0  0  0
   43.1910   28.0150   42.2470 O   0  0  0  0  0  0  0  0  0  0  0  0
   42.1860   27.0930   42.3560 C   0  0  0  0  0  2  0  0  0  0  0  0
   40.9510   27.7550   42.8690 C   0  0  1  0  0  3  0  0  0  0  0  0
   40.8420   29.9900   42.2440 O   0  0  0  0  0  0  0  0  0  0  0  0
   41.3060   29.9600   41.3640 H   0  0  0  0  0  0  0  0  0  0  0  0
   40.4490   27.1300   44.0240 O   0  0  0  0  0  0  0  0  0  0  0  0
   40.6880   27.6650   44.8330 H   0  0  0  0  0  0  0  0  0  0  0  0
  1 12  1  0  0  0  0
  1  6  1  0  0  0  0
  2  1  2  0  0  0  0
  3  2  1  0  0  0  0
  3  4  2  0  0  0  0
  4  5  1  0  0  0  0
  5  6  2  0  0  0  0
  5  7  1  0  0  0  0
  7 11  1  0  0  0  0
  7  8  1  0  0  0  0
  8 15  1  0  0  0  0
  8 14  1  0  0  0  0
  8  9  1  0  0  0  0
  9 16  1  0  0  0  0
  9 17  1  0  0  0  0
 10 19  1  0  0  0  0
 10 18  1  0  0  0  0
 10  9  1  0  0  0  0
 11 20  1  6  0  0  0
 11 10  1  0  0  0  0
 13  3  1  0  0  0  0
 21  2  1  0  0  0  0
 22 21  1  0  0  0  0
 23 21  1  0  0  0  0
 24 11  1  0  0  0  0
 25 26  2  0  0  0  0
 26 27  1  0  0  0  0
 27 28  1  0  0  0  0
 27 31  1  1  0  0  0
 27 24  1  0  0  0  0
 28 33  1  0  0  0  0
 29 35  1  0  0  0  0
 29 28  1  0  0  0  0
 30 26  1  0  0  0  0
 30 29  1  0  0  0  0
 32 28  1  0  0  0  0
 34 29  1  0  0  0  0
 36 41  1  6  0  0  0
 37 36  1  0  0  0  0
 37 30  1  1  0  0  0
 38 39  1  0  0  0  0
 38 37  1  0  0  0  0
 39 40  1  0  0  0  0
 40 36  1  0  0  0  0
 40 43  1  1  0  0  0
 42 41  1  0  0  0  0
 43 44  1  0  0  0  0
M  END
>  <minimizedAffinity>
-5.67815113

>  <minimizedRMSD>
0.936695039

$$$$
