
 OpenBabel03242515483D

 43 46  0  0  1  0  0  0  0  0999 V2000
   36.3020   30.6640   41.0400 C   0  0  0  0  0  0  0  0  0  0  0  0
   37.3420   29.9440   41.6180 C   0  0  0  0  0  0  0  0  0  0  0  0
   38.6430   30.4220   41.5840 C   0  0  0  0  0  0  0  0  0  0  0  0
   38.9390   31.6050   40.9830 C   0  0  0  0  0  0  0  0  0  0  0  0
   37.9140   32.3290   40.4030 C   0  0  0  0  0  0  0  0  0  0  0  0
   36.6290   31.8850   40.4230 C   0  0  0  0  0  0  0  0  0  0  0  0
   38.5000   33.4940   39.8640 O   0  0  0  0  0  0  0  0  0  0  0  0
   39.8630   33.3590   39.9030 C   0  0  1  0  0  0  0  0  0  0  0  0
   40.1340   32.3120   40.8030 O   0  0  0  0  0  0  0  0  0  0  0  0
   35.2720   30.3980   41.0050 H   0  0  0  0  0  0  0  0  0  0  0  0
   39.3740   29.7960   42.0580 H   0  0  0  0  0  0  0  0  0  0  0  0
   35.8530   32.4840   39.9560 H   0  0  0  0  0  0  0  0  0  0  0  0
   40.3250   34.2860   40.3370 H   0  0  0  0  0  0  0  0  0  0  0  0
   40.3750   33.0880   38.5780 N   0  0  0  0  0  0  0  0  0  0  0  0
   40.2490   33.9870   38.0310 H   0  0  0  0  0  0  0  0  0  0  0  0
   42.5640   32.9830   37.4480 C   0  0  2  0  0  3  0  0  0  0  0  0
   41.8070   32.8890   38.7440 C   0  0  1  0  0  3  0  0  0  0  0  0
   42.3840   33.8730   39.5190 O   0  0  0  0  0  0  0  0  0  0  0  0
   43.7370   33.6990   39.3580 C   0  0  0  0  0  2  0  0  0  0  0  0
   43.9910   33.1610   37.9700 C   0  0  2  0  0  3  0  0  0  0  0  0
   42.1620   34.0010   36.6190 O   0  0  0  0  0  0  0  0  0  0  0  0
   42.6280   34.8380   36.8580 H   0  0  0  0  0  0  0  0  0  0  0  0
   44.7220   34.0050   37.1630 O   0  0  0  0  0  0  0  0  0  0  0  0
   45.6420   33.6840   37.0200 H   0  0  0  0  0  0  0  0  0  0  0  0
   36.8020   28.4070   42.3720 S   0  0  0  0  0  0  0  0  0  0  0  0
   38.2660   27.3570   42.7060 C   0  0  0  0  0  0  0  0  0  0  0  0
   38.1100   26.0320   42.4830 C   0  0  0  0  0  0  0  0  0  0  0  0
   39.2280   25.2680   42.7550 C   0  0  0  0  0  0  0  0  0  0  0  0
   40.3770   25.7860   43.2020 N   0  0  0  0  0  0  0  0  0  0  0  0
   40.4870   27.1180   43.4090 C   0  0  0  0  0  0  0  0  0  0  0  0
   39.4110   27.8690   43.1510 N   0  0  0  0  0  0  0  0  0  0  0  0
   39.1690   23.8330   42.5630 N   0  0  0  0  0  0  0  0  0  0  0  0
   39.2170   23.3020   43.4610 H   0  0  0  0  0  0  0  0  0  0  0  0
   39.0870   23.5180   41.5930 H   0  0  0  0  0  0  0  0  0  0  0  0
   36.9850   25.1760   41.9860 C   0  0  0  0  0  0  0  0  0  0  0  0
   36.1920   25.8170   41.5060 H   0  0  0  0  0  0  0  0  0  0  0  0
   36.5960   24.5290   42.7860 H   0  0  0  0  0  0  0  0  0  0  0  0
   37.3360   24.5000   41.1730 H   0  0  0  0  0  0  0  0  0  0  0  0
   41.6160   27.7660   43.8650 O   0  0  0  0  0  0  0  0  0  0  0  0
   42.4190   28.4150   42.8830 C   0  0  0  0  0  0  0  0  0  0  0  0
   43.7260   28.1040   43.0310 F   0  0  0  0  0  0  0  0  0  0  0  0
   41.9090   28.0290   41.6320 F   0  0  0  0  0  0  0  0  0  0  0  0
   42.2950   29.7830   43.0450 F   0  0  0  0  0  0  0  0  0  0  0  0
  1  2  1  0  0  0  0
  2 25  1  0  0  0  0
  3  2  2  0  0  0  0
  3 11  1  0  0  0  0
  4  3  1  0  0  0  0
  5  6  1  0  0  0  0
  5  4  2  0  0  0  0
  6  1  2  0  0  0  0
  7  8  1  0  0  0  0
  7  5  1  0  0  0  0
  8 13  1  1  0  0  0
  8  9  1  0  0  0  0
  9  4  1  0  0  0  0
 10  1  1  0  0  0  0
 12  6  1  0  0  0  0
 14  8  1  0  0  0  0
 15 14  1  0  0  0  0
 16 21  1  6  0  0  0
 16 20  1  0  0  0  0
 16 17  1  0  0  0  0
 17 14  1  6  0  0  0
 17 18  1  0  0  0  0
 19 18  1  0  0  0  0
 20 23  1  6  0  0  0
 20 19  1  0  0  0  0
 21 22  1  0  0  0  0
 24 23  1  0  0  0  0
 25 26  1  0  0  0  0
 26 31  1  0  0  0  0
 27 26  2  0  0  0  0
 27 28  1  0  0  0  0
 28 29  2  0  0  0  0
 29 30  1  0  0  0  0
 30 39  1  0  0  0  0
 31 30  2  0  0  0  0
 32 28  1  0  0  0  0
 32 33  1  0  0  0  0
 34 32  1  0  0  0  0
 35 27  1  0  0  0  0
 35 37  1  0  0  0  0
 36 35  1  0  0  0  0
 38 35  1  0  0  0  0
 40 41  1  0  0  0  0
 40 43  1  0  0  0  0
 40 39  1  0  0  0  0
 42 40  1  0  0  0  0
M  END
>  <minimizedAffinity>
-7.07415104

$$$$

 OpenBabel03242515483D

 43 46  0  0  1  0  0  0  0  0999 V2000
   36.8300   30.6290   41.0420 C   0  0  0  0  0  0  0  0  0  0  0  0
   37.9460   29.9420   41.5100 C   0  0  0  0  0  0  0  0  0  0  0  0
   39.2020   30.5280   41.4880 C   0  0  0  0  0  0  0  0  0  0  0  0
   39.3790   31.7870   41.0070 C   0  0  0  0  0  0  0  0  0  0  0  0
   38.2790   32.4800   40.5390 C   0  0  0  0  0  0  0  0  0  0  0  0
   37.0350   31.9310   40.5490 C   0  0  0  0  0  0  0  0  0  0  0  0
   38.7490   33.7390   40.1100 O   0  0  0  0  0  0  0  0  0  0  0  0
   40.1190   33.7150   40.0930 C   0  0  1  0  0  0  0  0  0  0  0  0
   40.5070   32.6070   40.8680 O   0  0  0  0  0  0  0  0  0  0  0  0
   35.8240   30.2830   41.0090 H   0  0  0  0  0  0  0  0  0  0  0  0
   39.9980   29.9190   41.8700 H   0  0  0  0  0  0  0  0  0  0  0  0
   36.1960   32.5080   40.1720 H   0  0  0  0  0  0  0  0  0  0  0  0
   40.5220   34.6270   40.6090 H   0  0  0  0  0  0  0  0  0  0  0  0
   40.6000   33.6260   38.7320 N   0  0  0  0  0  0  0  0  0  0  0  0
   40.5430   34.6100   38.3420 H   0  0  0  0  0  0  0  0  0  0  0  0
   42.6850   33.1740   37.4970 C   0  0  2  0  0  3  0  0  0  0  0  0
   42.0120   33.2930   38.8360 C   0  0  1  0  0  3  0  0  0  0  0  0
   42.7370   34.2820   39.4670 O   0  0  0  0  0  0  0  0  0  0  0  0
   44.0520   33.9480   39.2500 C   0  0  0  0  0  2  0  0  0  0  0  0
   44.1550   33.2490   37.9140 C   0  0  2  0  0  3  0  0  0  0  0  0
   42.3320   34.1410   36.5880 O   0  0  0  0  0  0  0  0  0  0  0  0
   42.8960   34.9430   36.7100 H   0  0  0  0  0  0  0  0  0  0  0  0
   44.9120   33.9240   36.9820 O   0  0  0  0  0  0  0  0  0  0  0  0
   45.7820   33.4930   36.8220 H   0  0  0  0  0  0  0  0  0  0  0  0
   37.5600   28.2960   42.1120 S   0  0  0  0  0  0  0  0  0  0  0  0
   36.9620   27.2730   40.7150 C   0  0  0  0  0  0  0  0  0  0  0  0
   36.9170   25.9380   40.9330 C   0  0  0  0  0  0  0  0  0  0  0  0
   36.4730   25.1950   39.8560 C   0  0  0  0  0  0  0  0  0  0  0  0
   36.1130   25.7400   38.6890 N   0  0  0  0  0  0  0  0  0  0  0  0
   36.1730   27.0800   38.5180 C   0  0  0  0  0  0  0  0  0  0  0  0
   36.6030   27.8110   39.5520 N   0  0  0  0  0  0  0  0  0  0  0  0
   36.3980   23.7530   39.9750 N   0  0  0  0  0  0  0  0  0  0  0  0
   37.0950   23.2600   39.3730 H   0  0  0  0  0  0  0  0  0  0  0  0
   35.6870   23.3970   40.6200 H   0  0  0  0  0  0  0  0  0  0  0  0
   37.2330   25.0530   42.1000 C   0  0  0  0  0  0  0  0  0  0  0  0
   37.3170   25.6670   43.0410 H   0  0  0  0  0  0  0  0  0  0  0  0
   38.1220   24.4370   41.9010 H   0  0  0  0  0  0  0  0  0  0  0  0
   36.3930   24.3470   42.2950 H   0  0  0  0  0  0  0  0  0  0  0  0
   35.8280   27.7560   37.3650 O   0  0  0  0  0  0  0  0  0  0  0  0
   34.8330   28.7670   37.4930 C   0  0  0  0  0  0  0  0  0  0  0  0
   33.8870   28.4160   38.3920 F   0  0  0  0  0  0  0  0  0  0  0  0
   35.5080   29.9480   37.8490 F   0  0  0  0  0  0  0  0  0  0  0  0
   34.2070   28.9280   36.2700 F   0  0  0  0  0  0  0  0  0  0  0  0
  1  2  1  0  0  0  0
  2 25  1  0  0  0  0
  3  2  2  0  0  0  0
  3 11  1  0  0  0  0
  4  3  1  0  0  0  0
  5  6  1  0  0  0  0
  5  4  2  0  0  0  0
  6  1  2  0  0  0  0
  7  5  1  0  0  0  0
  8  7  1  0  0  0  0
  8 13  1  1  0  0  0
  8  9  1  0  0  0  0
  9  4  1  0  0  0  0
 10  1  1  0  0  0  0
 12  6  1  0  0  0  0
 14  8  1  0  0  0  0
 15 14  1  0  0  0  0
 16 21  1  6  0  0  0
 16 20  1  0  0  0  0
 16 17  1  0  0  0  0
 17 14  1  6  0  0  0
 17 18  1  0  0  0  0
 19 18  1  0  0  0  0
 20 23  1  6  0  0  0
 20 19  1  0  0  0  0
 21 22  1  0  0  0  0
 24 23  1  0  0  0  0
 26 27  1  0  0  0  0
 26 25  1  0  0  0  0
 27 35  1  0  0  0  0
 28 32  1  0  0  0  0
 28 27  2  0  0  0  0
 29 28  1  0  0  0  0
 30 29  2  0  0  0  0
 30 31  1  0  0  0  0
 31 26  2  0  0  0  0
 32 34  1  0  0  0  0
 33 32  1  0  0  0  0
 35 38  1  0  0  0  0
 35 36  1  0  0  0  0
 37 35  1  0  0  0  0
 39 40  1  0  0  0  0
 39 30  1  0  0  0  0
 40 42  1  0  0  0  0
 40 41  1  0  0  0  0
 43 40  1  0  0  0  0
M  END
>  <minimizedAffinity>
-7.04443789

$$$$

 OpenBabel03242515483D

 43 46  0  0  1  0  0  0  0  0999 V2000
   36.9490   31.2870   38.8030 C   0  0  0  0  0  0  0  0  0  0  0  0
   37.9150   30.2990   38.9650 C   0  0  0  0  0  0  0  0  0  0  0  0
   39.1850   30.6150   39.4240 C   0  0  0  0  0  0  0  0  0  0  0  0
   39.5220   31.8960   39.7260 C   0  0  0  0  0  0  0  0  0  0  0  0
   38.5720   32.8870   39.5690 C   0  0  0  0  0  0  0  0  0  0  0  0
   37.3190   32.6070   39.1210 C   0  0  0  0  0  0  0  0  0  0  0  0
   39.1870   34.0980   39.9510 O   0  0  0  0  0  0  0  0  0  0  0  0
   40.5310   33.8810   40.1000 C   0  0  1  0  0  0  0  0  0  0  0  0
   40.7010   32.4880   40.1970 O   0  0  0  0  0  0  0  0  0  0  0  0
   35.9500   31.1640   38.4600 H   0  0  0  0  0  0  0  0  0  0  0  0
   39.8580   29.7840   39.5160 H   0  0  0  0  0  0  0  0  0  0  0  0
   36.6010   33.4140   39.0120 H   0  0  0  0  0  0  0  0  0  0  0  0
   40.8810   34.3180   41.0740 H   0  0  0  0  0  0  0  0  0  0  0  0
   41.2540   34.4440   38.9810 N   0  0  0  0  0  0  0  0  0  0  0  0
   41.5460   35.4160   39.2870 H   0  0  0  0  0  0  0  0  0  0  0  0
   42.8680   33.4060   37.4340 C   0  0  2  0  0  3  0  0  0  0  0  0
   42.4700   33.6540   38.8620 C   0  0  1  0  0  3  0  0  0  0  0  0
   43.5680   34.3020   39.3880 O   0  0  0  0  0  0  0  0  0  0  0  0
   44.6470   33.5650   38.9660 C   0  0  0  0  0  2  0  0  0  0  0  0
   44.3190   32.9600   37.6210 C   0  0  2  0  0  3  0  0  0  0  0  0
   42.7400   34.4930   36.6040 O   0  0  0  0  0  0  0  0  0  0  0  0
   43.5530   35.0520   36.6490 H   0  0  0  0  0  0  0  0  0  0  0  0
   45.1210   33.4050   36.5930 O   0  0  0  0  0  0  0  0  0  0  0  0
   45.7630   32.7200   36.2940 H   0  0  0  0  0  0  0  0  0  0  0  0
   37.3280   28.6600   38.5280 S   0  0  0  0  0  0  0  0  0  0  0  0
   37.4090   27.5810   40.0060 C   0  0  0  0  0  0  0  0  0  0  0  0
   36.7910   28.0470   41.1160 C   0  0  0  0  0  0  0  0  0  0  0  0
   36.8810   27.2160   42.2150 C   0  0  0  0  0  0  0  0  0  0  0  0
   37.5230   26.0430   42.1950 N   0  0  0  0  0  0  0  0  0  0  0  0
   38.1260   25.6170   41.0610 C   0  0  0  0  0  0  0  0  0  0  0  0
   38.0470   26.4140   39.9900 N   0  0  0  0  0  0  0  0  0  0  0  0
   36.2660   27.6220   43.4620 N   0  0  0  0  0  0  0  0  0  0  0  0
   36.9650   27.8360   44.2080 H   0  0  0  0  0  0  0  0  0  0  0  0
   35.2430   27.6510   43.4640 H   0  0  0  0  0  0  0  0  0  0  0  0
   36.0020   29.2790   41.4400 C   0  0  0  0  0  0  0  0  0  0  0  0
   35.6950   29.8040   40.4920 H   0  0  0  0  0  0  0  0  0  0  0  0
   36.5500   29.9280   42.1390 H   0  0  0  0  0  0  0  0  0  0  0  0
   35.0440   29.0100   41.9400 H   0  0  0  0  0  0  0  0  0  0  0  0
   38.8140   24.4300   40.9180 O   0  0  0  0  0  0  0  0  0  0  0  0
   38.1200   23.3650   40.2750 C   0  0  0  0  0  0  0  0  0  0  0  0
   36.8230   23.3220   40.6530 F   0  0  0  0  0  0  0  0  0  0  0  0
   38.2750   23.5640   38.8930 F   0  0  0  0  0  0  0  0  0  0  0  0
   38.7030   22.1680   40.6510 F   0  0  0  0  0  0  0  0  0  0  0  0
  1  2  2  0  0  0  0
  1  6  1  0  0  0  0
  2  3  1  0  0  0  0
  3 11  1  0  0  0  0
  3  4  2  0  0  0  0
  4  9  1  0  0  0  0
  5  4  1  0  0  0  0
  5  7  1  0  0  0  0
  6  5  2  0  0  0  0
  7  8  1  0  0  0  0
  8  9  1  0  0  0  0
  8 13  1  1  0  0  0
 10  1  1  0  0  0  0
 12  6  1  0  0  0  0
 14 15  1  0  0  0  0
 14  8  1  0  0  0  0
 16 21  1  6  0  0  0
 16 20  1  0  0  0  0
 16 17  1  0  0  0  0
 17 14  1  6  0  0  0
 17 18  1  0  0  0  0
 19 18  1  0  0  0  0
 20 23  1  6  0  0  0
 20 19  1  0  0  0  0
 21 22  1  0  0  0  0
 24 23  1  0  0  0  0
 25  2  1  0  0  0  0
 25 26  1  0  0  0  0
 26 27  1  0  0  0  0
 27 35  1  0  0  0  0
 27 28  2  0  0  0  0
 28 32  1  0  0  0  0
 29 28  1  0  0  0  0
 30 29  2  0  0  0  0
 31 26  2  0  0  0  0
 31 30  1  0  0  0  0
 32 34  1  0  0  0  0
 32 33  1  0  0  0  0
 35 38  1  0  0  0  0
 35 37  1  0  0  0  0
 36 35  1  0  0  0  0
 39 30  1  0  0  0  0
 40 43  1  0  0  0  0
 40 41  1  0  0  0  0
 40 39  1  0  0  0  0
 42 40  1  0  0  0  0
M  END
>  <minimizedAffinity>
-6.98714495

$$$$

 OpenBabel03242515483D

 43 46  0  0  1  0  0  0  0  0999 V2000
   37.2900   30.2940   37.7370 C   0  0  0  0  0  0  0  0  0  0  0  0
   38.3810   29.4830   38.0310 C   0  0  0  0  0  0  0  0  0  0  0  0
   39.4740   29.9850   38.7230 C   0  0  0  0  0  0  0  0  0  0  0  0
   39.5100   31.2810   39.1310 C   0  0  0  0  0  0  0  0  0  0  0  0
   38.4320   32.0970   38.8440 C   0  0  0  0  0  0  0  0  0  0  0  0
   37.3480   31.6320   38.1690 C   0  0  0  0  0  0  0  0  0  0  0  0
   38.7370   33.3660   39.3790 O   0  0  0  0  0  0  0  0  0  0  0  0
   40.0530   33.3800   39.7580 C   0  0  1  0  0  0  0  0  0  0  0  0
   40.4610   32.0360   39.8290 O   0  0  0  0  0  0  0  0  0  0  0  0
   36.4030   30.0220   37.2160 H   0  0  0  0  0  0  0  0  0  0  0  0
   40.2640   29.2820   38.9010 H   0  0  0  0  0  0  0  0  0  0  0  0
   36.5210   32.3060   37.9640 H   0  0  0  0  0  0  0  0  0  0  0  0
   40.1460   33.8010   40.7950 H   0  0  0  0  0  0  0  0  0  0  0  0
   40.8370   34.1410   38.8100 N   0  0  0  0  0  0  0  0  0  0  0  0
   40.9500   35.1050   39.2380 H   0  0  0  0  0  0  0  0  0  0  0  0
   42.7410   33.4110   37.4250 C   0  0  2  0  0  3  0  0  0  0  0  0
   42.1540   33.5220   38.8050 C   0  0  1  0  0  3  0  0  0  0  0  0
   43.0870   34.2750   39.4850 O   0  0  0  0  0  0  0  0  0  0  0  0
   44.2970   33.7090   39.1650 C   0  0  0  0  0  2  0  0  0  0  0  0
   44.2080   33.1460   37.7660 C   0  0  2  0  0  3  0  0  0  0  0  0
   42.5630   34.5180   36.6320 O   0  0  0  0  0  0  0  0  0  0  0  0
   43.2820   35.1740   36.7980 H   0  0  0  0  0  0  0  0  0  0  0  0
   45.0550   33.7490   36.8620 O   0  0  0  0  0  0  0  0  0  0  0  0
   45.8130   33.1710   36.6130 H   0  0  0  0  0  0  0  0  0  0  0  0
   38.1930   27.8020   37.4310 S   0  0  0  0  0  0  0  0  0  0  0  0
   37.5490   26.7520   38.7870 C   0  0  0  0  0  0  0  0  0  0  0  0
   36.7650   25.7140   38.4140 C   0  0  0  0  0  0  0  0  0  0  0  0
   36.2870   24.9500   39.4600 C   0  0  0  0  0  0  0  0  0  0  0  0
   36.5710   25.2040   40.7420 N   0  0  0  0  0  0  0  0  0  0  0  0
   37.3620   26.2530   41.0680 C   0  0  0  0  0  0  0  0  0  0  0  0
   37.8290   27.0020   40.0630 N   0  0  0  0  0  0  0  0  0  0  0  0
   35.4260   23.8200   39.1750 N   0  0  0  0  0  0  0  0  0  0  0  0
   34.4460   23.9640   39.5070 H   0  0  0  0  0  0  0  0  0  0  0  0
   35.8700   23.0330   38.6940 H   0  0  0  0  0  0  0  0  0  0  0  0
   36.2890   25.1780   37.0980 C   0  0  0  0  0  0  0  0  0  0  0  0
   36.8960   25.6180   36.2570 H   0  0  0  0  0  0  0  0  0  0  0  0
   35.2060   25.3270   36.9780 H   0  0  0  0  0  0  0  0  0  0  0  0
   36.4680   24.0800   37.0350 H   0  0  0  0  0  0  0  0  0  0  0  0
   37.7240   26.6130   42.3490 O   0  0  0  0  0  0  0  0  0  0  0  0
   36.8830   27.5540   43.0090 C   0  0  0  0  0  0  0  0  0  0  0  0
   37.6020   28.4200   43.7560 F   0  0  0  0  0  0  0  0  0  0  0  0
   36.1370   28.1950   42.0050 F   0  0  0  0  0  0  0  0  0  0  0  0
   36.0380   26.8680   43.8630 F   0  0  0  0  0  0  0  0  0  0  0  0
  1  2  2  0  0  0  0
  1  6  1  0  0  0  0
  2  3  1  0  0  0  0
  3 11  1  0  0  0  0
  3  4  2  0  0  0  0
  4  9  1  0  0  0  0
  5  4  1  0  0  0  0
  5  7  1  0  0  0  0
  6  5  2  0  0  0  0
  7  8  1  0  0  0  0
  8  9  1  0  0  0  0
  8 13  1  1  0  0  0
 10  1  1  0  0  0  0
 12  6  1  0  0  0  0
 14 15  1  0  0  0  0
 14  8  1  0  0  0  0
 16 21  1  6  0  0  0
 16 20  1  0  0  0  0
 16 17  1  0  0  0  0
 17 14  1  6  0  0  0
 17 18  1  0  0  0  0
 19 18  1  0  0  0  0
 20 23  1  6  0  0  0
 20 19  1  0  0  0  0
 21 22  1  0  0  0  0
 24 23  1  0  0  0  0
 25  2  1  0  0  0  0
 25 26  1  0  0  0  0
 26 31  1  0  0  0  0
 27 26  2  0  0  0  0
 27 28  1  0  0  0  0
 28 29  2  0  0  0  0
 29 30  1  0  0  0  0
 30 39  1  0  0  0  0
 31 30  2  0  0  0  0
 32 28  1  0  0  0  0
 32 33  1  0  0  0  0
 34 32  1  0  0  0  0
 35 27  1  0  0  0  0
 36 35  1  0  0  0  0
 37 35  1  0  0  0  0
 38 35  1  0  0  0  0
 39 40  1  0  0  0  0
 40 41  1  0  0  0  0
 40 43  1  0  0  0  0
 42 40  1  0  0  0  0
M  END
>  <minimizedAffinity>
-6.87187624

$$$$

 OpenBabel03242515483D

 43 46  0  0  1  0  0  0  0  0999 V2000
   41.6680   29.5500   42.4650 C   0  0  0  0  0  0  0  0  0  0  0  0
   40.8060   30.6000   42.1680 C   0  0  0  0  0  0  0  0  0  0  0  0
   39.4410   30.4840   42.3870 C   0  0  0  0  0  0  0  0  0  0  0  0
   38.9090   29.3410   42.8950 C   0  0  0  0  0  0  0  0  0  0  0  0
   39.7540   28.2900   43.1930 C   0  0  0  0  0  0  0  0  0  0  0  0
   41.0960   28.3760   42.9900 C   0  0  0  0  0  0  0  0  0  0  0  0
   38.9430   27.2520   43.6980 O   0  0  0  0  0  0  0  0  0  0  0  0
   37.6290   27.5760   43.4820 C   0  0  1  0  0  0  0  0  0  0  0  0
   37.5990   28.9560   43.2100 O   0  0  0  0  0  0  0  0  0  0  0  0
   42.7240   29.5240   42.3390 H   0  0  0  0  0  0  0  0  0  0  0  0
   38.8610   31.3480   42.1270 H   0  0  0  0  0  0  0  0  0  0  0  0
   41.7270   27.5270   43.2370 H   0  0  0  0  0  0  0  0  0  0  0  0
   37.0390   27.4200   44.4250 H   0  0  0  0  0  0  0  0  0  0  0  0
   37.0940   26.7920   42.3910 N   0  0  0  0  0  0  0  0  0  0  0  0
   37.0820   27.4380   41.5510 H   0  0  0  0  0  0  0  0  0  0  0  0
   37.5310   24.3720   42.2080 C   0  0  2  0  0  3  0  0  0  0  0  0
   38.0900   25.7650   42.1220 C   0  0  1  0  0  3  0  0  0  0  0  0
   38.5730   25.8320   40.8320 O   0  0  0  0  0  0  0  0  0  0  0  0
   39.2780   24.6660   40.6590 C   0  0  0  0  0  2  0  0  0  0  0  0
   38.6280   23.5850   41.4910 C   0  0  2  0  0  3  0  0  0  0  0  0
   36.2920   24.2130   41.6370 O   0  0  0  0  0  0  0  0  0  0  0  0
   36.3840   24.0290   40.6710 H   0  0  0  0  0  0  0  0  0  0  0  0
   38.1060   22.5440   40.7540 O   0  0  0  0  0  0  0  0  0  0  0  0
   38.6420   21.7220   40.8320 H   0  0  0  0  0  0  0  0  0  0  0  0
   41.6500   32.0390   41.5060 S   0  0  0  0  0  0  0  0  0  0  0  0
   41.2470   32.2040   39.7260 C   0  0  0  0  0  0  0  0  0  0  0  0
   42.0060   33.0750   39.0230 C   0  0  0  0  0  0  0  0  0  0  0  0
   41.6690   33.1850   37.6890 C   0  0  0  0  0  0  0  0  0  0  0  0
   40.6740   32.4890   37.1260 N   0  0  0  0  0  0  0  0  0  0  0  0
   39.9420   31.6280   37.8690 C   0  0  0  0  0  0  0  0  0  0  0  0
   40.2580   31.5150   39.1630 N   0  0  0  0  0  0  0  0  0  0  0  0
   42.4090   34.0990   36.8440 N   0  0  0  0  0  0  0  0  0  0  0  0
   41.8360   34.9130   36.5270 H   0  0  0  0  0  0  0  0  0  0  0  0
   43.3850   33.8460   36.6620 H   0  0  0  0  0  0  0  0  0  0  0  0
   43.1650   33.9650   39.3570 C   0  0  0  0  0  0  0  0  0  0  0  0
   43.6100   33.6680   40.3490 H   0  0  0  0  0  0  0  0  0  0  0  0
   42.8780   35.0250   39.3080 H   0  0  0  0  0  0  0  0  0  0  0  0
   43.9910   33.8250   38.6220 H   0  0  0  0  0  0  0  0  0  0  0  0
   38.8970   30.8580   37.4020 O   0  0  0  0  0  0  0  0  0  0  0  0
   37.6500   31.5210   37.2170 C   0  0  0  0  0  0  0  0  0  0  0  0
   37.6090   32.1730   36.0340 F   0  0  0  0  0  0  0  0  0  0  0  0
   36.6540   30.5360   37.3280 F   0  0  0  0  0  0  0  0  0  0  0  0
   37.4990   32.4640   38.2180 F   0  0  0  0  0  0  0  0  0  0  0  0
  1  6  1  0  0  0  0
  2  3  1  0  0  0  0
  2  1  2  0  0  0  0
  3  4  2  0  0  0  0
  4  5  1  0  0  0  0
  4  9  1  0  0  0  0
  5  7  1  0  0  0  0
  6  5  2  0  0  0  0
  6 12  1  0  0  0  0
  8  7  1  0  0  0  0
  8 13  1  1  0  0  0
  9  8  1  0  0  0  0
 10  1  1  0  0  0  0
 11  3  1  0  0  0  0
 14  8  1  0  0  0  0
 15 14  1  0  0  0  0
 16 21  1  6  0  0  0
 17 16  1  0  0  0  0
 17 14  1  6  0  0  0
 18 17  1  0  0  0  0
 19 18  1  0  0  0  0
 19 20  1  0  0  0  0
 20 23  1  6  0  0  0
 20 16  1  0  0  0  0
 22 21  1  0  0  0  0
 23 24  1  0  0  0  0
 25  2  1  0  0  0  0
 26 25  1  0  0  0  0
 27 35  1  0  0  0  0
 27 26  2  0  0  0  0
 28 27  1  0  0  0  0
 29 28  2  0  0  0  0
 29 30  1  0  0  0  0
 30 31  2  0  0  0  0
 31 26  1  0  0  0  0
 32 28  1  0  0  0  0
 33 32  1  0  0  0  0
 34 32  1  0  0  0  0
 35 36  1  0  0  0  0
 37 35  1  0  0  0  0
 38 35  1  0  0  0  0
 39 30  1  0  0  0  0
 40 42  1  0  0  0  0
 40 39  1  0  0  0  0
 40 43  1  0  0  0  0
 41 40  1  0  0  0  0
M  END
>  <minimizedAffinity>
-6.86065435

$$$$

 OpenBabel03242515483D

 43 46  0  0  1  0  0  0  0  0999 V2000
   37.1810   30.5000   37.9470 C   0  0  0  0  0  0  0  0  0  0  0  0
   38.2520   29.6350   38.1480 C   0  0  0  0  0  0  0  0  0  0  0  0
   39.4050   30.0660   38.7860 C   0  0  0  0  0  0  0  0  0  0  0  0
   39.5230   31.3450   39.2290 C   0  0  0  0  0  0  0  0  0  0  0  0
   38.4670   32.2150   39.0350 C   0  0  0  0  0  0  0  0  0  0  0  0
   37.3240   31.8190   38.4140 C   0  0  0  0  0  0  0  0  0  0  0  0
   38.8590   33.4530   39.5870 O   0  0  0  0  0  0  0  0  0  0  0  0
   40.1950   33.3990   39.8840 C   0  0  1  0  0  0  0  0  0  0  0  0
   40.5470   32.0370   39.8900 O   0  0  0  0  0  0  0  0  0  0  0  0
   36.2540   30.2830   37.4740 H   0  0  0  0  0  0  0  0  0  0  0  0
   40.1730   29.3250   38.8930 H   0  0  0  0  0  0  0  0  0  0  0  0
   36.5170   32.5340   38.2810 H   0  0  0  0  0  0  0  0  0  0  0  0
   40.3690   33.7810   40.9260 H   0  0  0  0  0  0  0  0  0  0  0  0
   40.9540   34.1560   38.9130 N   0  0  0  0  0  0  0  0  0  0  0  0
   41.0910   35.1160   39.3410 H   0  0  0  0  0  0  0  0  0  0  0  0
   42.7920   33.3920   37.4590 C   0  0  2  0  0  3  0  0  0  0  0  0
   42.2640   33.5250   38.8600 C   0  0  1  0  0  3  0  0  0  0  0  0
   43.2320   34.2770   39.4920 O   0  0  0  0  0  0  0  0  0  0  0  0
   44.4220   33.6960   39.1280 C   0  0  0  0  0  2  0  0  0  0  0  0
   44.2690   33.1180   37.7410 C   0  0  2  0  0  3  0  0  0  0  0  0
   42.5900   34.4920   36.6610 O   0  0  0  0  0  0  0  0  0  0  0  0
   43.3220   35.1420   36.7890 H   0  0  0  0  0  0  0  0  0  0  0  0
   45.0820   33.7020   36.7950 O   0  0  0  0  0  0  0  0  0  0  0  0
   45.8240   33.1140   36.5220 H   0  0  0  0  0  0  0  0  0  0  0  0
   37.9530   27.9830   37.5110 S   0  0  0  0  0  0  0  0  0  0  0  0
   36.8410   28.0940   36.0590 C   0  0  0  0  0  0  0  0  0  0  0  0
   35.7290   27.3250   36.1020 C   0  0  0  0  0  0  0  0  0  0  0  0
   34.9190   27.4220   34.9880 C   0  0  0  0  0  0  0  0  0  0  0  0
   35.2010   28.2110   33.9460 N   0  0  0  0  0  0  0  0  0  0  0  0
   36.3250   28.9640   33.9470 C   0  0  0  0  0  0  0  0  0  0  0  0
   37.1180   28.8770   35.0200 N   0  0  0  0  0  0  0  0  0  0  0  0
   33.7070   26.6310   34.9230 N   0  0  0  0  0  0  0  0  0  0  0  0
   33.7490   25.8840   34.1940 H   0  0  0  0  0  0  0  0  0  0  0  0
   32.9700   26.8920   35.5840 H   0  0  0  0  0  0  0  0  0  0  0  0
   35.1470   26.3750   37.1050 C   0  0  0  0  0  0  0  0  0  0  0  0
   35.6470   26.5120   38.1060 H   0  0  0  0  0  0  0  0  0  0  0  0
   35.1840   25.3390   36.7380 H   0  0  0  0  0  0  0  0  0  0  0  0
   34.0730   26.6090   37.2890 H   0  0  0  0  0  0  0  0  0  0  0  0
   36.7200   29.8130   32.9340 O   0  0  0  0  0  0  0  0  0  0  0  0
   36.2960   31.1690   33.0380 C   0  0  0  0  0  0  0  0  0  0  0  0
   35.0660   31.2610   33.5910 F   0  0  0  0  0  0  0  0  0  0  0  0
   37.2780   31.8380   33.7890 F   0  0  0  0  0  0  0  0  0  0  0  0
   36.2220   31.7080   31.7660 F   0  0  0  0  0  0  0  0  0  0  0  0
  1  2  2  0  0  0  0
  1  6  1  0  0  0  0
  2  3  1  0  0  0  0
  3 11  1  0  0  0  0
  3  4  2  0  0  0  0
  4  9  1  0  0  0  0
  5  4  1  0  0  0  0
  5  7  1  0  0  0  0
  6  5  2  0  0  0  0
  7  8  1  0  0  0  0
  8  9  1  0  0  0  0
  8 13  1  1  0  0  0
 10  1  1  0  0  0  0
 12  6  1  0  0  0  0
 14 15  1  0  0  0  0
 14  8  1  0  0  0  0
 16 21  1  6  0  0  0
 16 20  1  0  0  0  0
 16 17  1  0  0  0  0
 17 14  1  6  0  0  0
 17 18  1  0  0  0  0
 19 18  1  0  0  0  0
 20 23  1  6  0  0  0
 20 19  1  0  0  0  0
 21 22  1  0  0  0  0
 24 23  1  0  0  0  0
 25  2  1  0  0  0  0
 26 27  1  0  0  0  0
 26 25  1  0  0  0  0
 27 35  1  0  0  0  0
 28 27  2  0  0  0  0
 29 30  2  0  0  0  0
 29 28  1  0  0  0  0
 30 31  1  0  0  0  0
 31 26  2  0  0  0  0
 32 28  1  0  0  0  0
 32 34  1  0  0  0  0
 33 32  1  0  0  0  0
 35 38  1  0  0  0  0
 35 36  1  0  0  0  0
 37 35  1  0  0  0  0
 39 40  1  0  0  0  0
 39 30  1  0  0  0  0
 40 41  1  0  0  0  0
 40 42  1  0  0  0  0
 43 40  1  0  0  0  0
M  END
>  <minimizedAffinity>
-6.7225976

$$$$

 OpenBabel03242515483D

 43 46  0  0  1  0  0  0  0  0999 V2000
   35.8670   29.0650   41.2680 C   0  0  0  0  0  0  0  0  0  0  0  0
   37.0350   28.8870   42.0030 C   0  0  0  0  0  0  0  0  0  0  0  0
   38.0460   29.8360   41.9720 C   0  0  0  0  0  0  0  0  0  0  0  0
   37.9260   30.9640   41.2230 C   0  0  0  0  0  0  0  0  0  0  0  0
   36.7710   31.1520   40.4880 C   0  0  0  0  0  0  0  0  0  0  0  0
   35.7630   30.2390   40.5000 C   0  0  0  0  0  0  0  0  0  0  0  0
   36.9170   32.3860   39.8190 O   0  0  0  0  0  0  0  0  0  0  0  0
   38.2130   32.8080   39.9530 C   0  0  1  0  0  0  0  0  0  0  0  0
   38.7670   32.0630   41.0100 O   0  0  0  0  0  0  0  0  0  0  0  0
   35.0310   28.4100   41.2140 H   0  0  0  0  0  0  0  0  0  0  0  0
   38.9060   29.6080   42.5720 H   0  0  0  0  0  0  0  0  0  0  0  0
   34.8710   30.4240   39.9080 H   0  0  0  0  0  0  0  0  0  0  0  0
   38.2300   33.8840   40.2730 H   0  0  0  0  0  0  0  0  0  0  0  0
   38.9300   32.6170   38.7120 N   0  0  0  0  0  0  0  0  0  0  0  0
   38.5830   33.3760   38.0590 H   0  0  0  0  0  0  0  0  0  0  0  0
   41.2670   32.4500   37.9440 C   0  0  2  0  0  3  0  0  0  0  0  0
   40.3210   32.9210   39.0130 C   0  0  1  0  0  3  0  0  0  0  0  0
   40.5590   34.2790   39.0690 O   0  0  0  0  0  0  0  0  0  0  0  0
   41.9270   34.3960   39.0910 C   0  0  0  0  0  2  0  0  0  0  0  0
   42.5200   33.2490   38.3060 C   0  0  2  0  0  3  0  0  0  0  0  0
   40.8390   32.6710   36.6580 O   0  0  0  0  0  0  0  0  0  0  0  0
   41.0910   33.5800   36.3680 H   0  0  0  0  0  0  0  0  0  0  0  0
   43.2150   33.6360   37.1810 O   0  0  0  0  0  0  0  0  0  0  0  0
   44.1890   33.5380   37.2890 H   0  0  0  0  0  0  0  0  0  0  0  0
   37.0520   27.3570   42.9400 S   0  0  0  0  0  0  0  0  0  0  0  0
   38.1970   26.1740   42.1360 C   0  0  0  0  0  0  0  0  0  0  0  0
   39.4270   26.0680   42.6890 C   0  0  0  0  0  0  0  0  0  0  0  0
   40.2690   25.1780   42.0520 C   0  0  0  0  0  0  0  0  0  0  0  0
   39.9070   24.4710   40.9760 N   0  0  0  0  0  0  0  0  0  0  0  0
   38.6650   24.6090   40.4580 C   0  0  0  0  0  0  0  0  0  0  0  0
   37.8410   25.4690   41.0650 N   0  0  0  0  0  0  0  0  0  0  0  0
   41.6160   24.9950   42.5530 N   0  0  0  0  0  0  0  0  0  0  0  0
   42.3450   25.3600   41.8990 H   0  0  0  0  0  0  0  0  0  0  0  0
   41.6920   24.5420   43.4670 H   0  0  0  0  0  0  0  0  0  0  0  0
   40.1060   26.6970   43.8670 C   0  0  0  0  0  0  0  0  0  0  0  0
   39.3460   27.1920   44.5350 H   0  0  0  0  0  0  0  0  0  0  0  0
   40.9110   27.3750   43.5460 H   0  0  0  0  0  0  0  0  0  0  0  0
   40.5830   25.9190   44.5060 H   0  0  0  0  0  0  0  0  0  0  0  0
   38.1780   23.9360   39.3560 O   0  0  0  0  0  0  0  0  0  0  0  0
   37.3550   22.8030   39.6140 C   0  0  0  0  0  0  0  0  0  0  0  0
   37.6990   22.1960   40.7720 F   0  0  0  0  0  0  0  0  0  0  0  0
   36.0280   23.2670   39.6200 F   0  0  0  0  0  0  0  0  0  0  0  0
   37.5330   21.8860   38.5940 F   0  0  0  0  0  0  0  0  0  0  0  0
  1  2  1  0  0  0  0
  2 25  1  0  0  0  0
  3  2  2  0  0  0  0
  3 11  1  0  0  0  0
  4  3  1  0  0  0  0
  5  6  1  0  0  0  0
  5  4  2  0  0  0  0
  6  1  2  0  0  0  0
  7  8  1  0  0  0  0
  7  5  1  0  0  0  0
  8 13  1  1  0  0  0
  8  9  1  0  0  0  0
  9  4  1  0  0  0  0
 10  1  1  0  0  0  0
 12  6  1  0  0  0  0
 14  8  1  0  0  0  0
 15 14  1  0  0  0  0
 16 21  1  6  0  0  0
 16 20  1  0  0  0  0
 16 17  1  0  0  0  0
 17 14  1  6  0  0  0
 17 18  1  0  0  0  0
 18 19  1  0  0  0  0
 20 23  1  6  0  0  0
 20 19  1  0  0  0  0
 22 21  1  0  0  0  0
 23 24  1  0  0  0  0
 26 27  1  0  0  0  0
 26 25  1  0  0  0  0
 27 35  1  0  0  0  0
 28 32  1  0  0  0  0
 28 27  2  0  0  0  0
 29 28  1  0  0  0  0
 30 29  2  0  0  0  0
 30 31  1  0  0  0  0
 31 26  2  0  0  0  0
 32 34  1  0  0  0  0
 33 32  1  0  0  0  0
 35 38  1  0  0  0  0
 35 36  1  0  0  0  0
 37 35  1  0  0  0  0
 39 40  1  0  0  0  0
 39 30  1  0  0  0  0
 40 42  1  0  0  0  0
 40 41  1  0  0  0  0
 43 40  1  0  0  0  0
M  END
>  <minimizedAffinity>
-6.59902525

$$$$

 OpenBabel03242515483D

 43 46  0  0  1  0  0  0  0  0999 V2000
   36.0670   28.8560   41.1440 C   0  0  0  0  0  0  0  0  0  0  0  0
   37.3460   28.5020   41.5580 C   0  0  0  0  0  0  0  0  0  0  0  0
   38.3730   29.4340   41.5730 C   0  0  0  0  0  0  0  0  0  0  0  0
   38.1590   30.7180   41.1820 C   0  0  0  0  0  0  0  0  0  0  0  0
   36.8920   31.0830   40.7670 C   0  0  0  0  0  0  0  0  0  0  0  0
   35.8670   30.1900   40.7430 C   0  0  0  0  0  0  0  0  0  0  0  0
   36.9590   32.4500   40.4260 O   0  0  0  0  0  0  0  0  0  0  0  0
   38.2740   32.8340   40.4030 C   0  0  1  0  0  0  0  0  0  0  0  0
   38.9900   31.8420   41.0970 O   0  0  0  0  0  0  0  0  0  0  0  0
   35.2070   28.2310   41.0910 H   0  0  0  0  0  0  0  0  0  0  0  0
   39.3220   29.0640   41.9090 H   0  0  0  0  0  0  0  0  0  0  0  0
   34.8860   30.5170   40.4110 H   0  0  0  0  0  0  0  0  0  0  0  0
   38.4020   33.7880   40.9810 H   0  0  0  0  0  0  0  0  0  0  0  0
   38.7270   32.9820   39.0370 N   0  0  0  0  0  0  0  0  0  0  0  0
   38.4590   33.9660   38.7500 H   0  0  0  0  0  0  0  0  0  0  0  0
   40.7940   32.2270   37.9260 C   0  0  2  0  0  3  0  0  0  0  0  0
   40.1800   32.9390   39.0990 C   0  0  1  0  0  3  0  0  0  0  0  0
   40.7420   34.1960   39.0350 O   0  0  0  0  0  0  0  0  0  0  0  0
   42.0830   33.9720   38.8360 C   0  0  0  0  0  2  0  0  0  0  0  0
   42.2440   32.6990   38.0390 C   0  0  2  0  0  3  0  0  0  0  0  0
   40.2240   32.5210   36.7120 O   0  0  0  0  0  0  0  0  0  0  0  0
   40.6360   33.3330   36.3310 H   0  0  0  0  0  0  0  0  0  0  0  0
   42.8160   32.8790   36.7990 O   0  0  0  0  0  0  0  0  0  0  0  0
   43.7410   32.5460   36.7600 H   0  0  0  0  0  0  0  0  0  0  0  0
   37.4780   26.7790   42.0440 S   0  0  0  0  0  0  0  0  0  0  0  0
   39.0590   26.0990   41.4170 C   0  0  0  0  0  0  0  0  0  0  0  0
   39.9760   25.7640   42.3540 C   0  0  0  0  0  0  0  0  0  0  0  0
   41.1600   25.2660   41.8470 C   0  0  0  0  0  0  0  0  0  0  0  0
   41.3920   25.1210   40.5380 N   0  0  0  0  0  0  0  0  0  0  0  0
   40.4450   25.4680   39.6370 C   0  0  0  0  0  0  0  0  0  0  0  0
   39.2940   25.9530   40.1150 N   0  0  0  0  0  0  0  0  0  0  0  0
   42.2180   24.8880   42.7620 N   0  0  0  0  0  0  0  0  0  0  0  0
   43.0510   25.5150   42.7010 H   0  0  0  0  0  0  0  0  0  0  0  0
   42.0270   24.0700   43.3470 H   0  0  0  0  0  0  0  0  0  0  0  0
   40.0060   25.7970   43.8510 C   0  0  0  0  0  0  0  0  0  0  0  0
   38.9640   25.9290   44.2590 H   0  0  0  0  0  0  0  0  0  0  0  0
   40.7160   26.5540   44.2170 H   0  0  0  0  0  0  0  0  0  0  0  0
   40.3490   24.8170   44.2580 H   0  0  0  0  0  0  0  0  0  0  0  0
   40.5670   25.3630   38.2670 O   0  0  0  0  0  0  0  0  0  0  0  0
   40.8880   26.5590   37.5630 C   0  0  0  0  0  0  0  0  0  0  0  0
   41.6260   27.3960   38.3250 F   0  0  0  0  0  0  0  0  0  0  0  0
   41.5550   26.1640   36.3900 F   0  0  0  0  0  0  0  0  0  0  0  0
   39.7120   27.2130   37.2440 F   0  0  0  0  0  0  0  0  0  0  0  0
  1  2  1  0  0  0  0
  2  3  2  0  0  0  0
  2 25  1  0  0  0  0
  3 11  1  0  0  0  0
  4  3  1  0  0  0  0
  5  4  2  0  0  0  0
  6  5  1  0  0  0  0
  6  1  2  0  0  0  0
  7  5  1  0  0  0  0
  8  7  1  0  0  0  0
  8 13  1  1  0  0  0
  8  9  1  0  0  0  0
  9  4  1  0  0  0  0
 10  1  1  0  0  0  0
 12  6  1  0  0  0  0
 14  8  1  0  0  0  0
 15 14  1  0  0  0  0
 16 21  1  6  0  0  0
 16 20  1  0  0  0  0
 16 17  1  0  0  0  0
 17 14  1  6  0  0  0
 18 17  1  0  0  0  0
 19 18  1  0  0  0  0
 20 23  1  6  0  0  0
 20 19  1  0  0  0  0
 22 21  1  0  0  0  0
 24 23  1  0  0  0  0
 26 25  1  0  0  0  0
 26 27  1  0  0  0  0
 27 35  1  0  0  0  0
 28 27  2  0  0  0  0
 28 32  1  0  0  0  0
 29 28  1  0  0  0  0
 30 31  1  0  0  0  0
 30 29  2  0  0  0  0
 31 26  2  0  0  0  0
 32 34  1  0  0  0  0
 33 32  1  0  0  0  0
 35 37  1  0  0  0  0
 35 38  1  0  0  0  0
 35 36  1  0  0  0  0
 39 30  1  0  0  0  0
 40 39  1  0  0  0  0
 40 41  1  0  0  0  0
 42 40  1  0  0  0  0
 43 40  1  0  0  0  0
M  END
>  <minimizedAffinity>
-6.49894571

$$$$

 OpenBabel03242515483D

 43 46  0  0  1  0  0  0  0  0999 V2000
   36.6140   27.9590   41.7290 C   0  0  0  0  0  0  0  0  0  0  0  0
   37.9460   27.7670   42.0810 C   0  0  0  0  0  0  0  0  0  0  0  0
   38.8680   28.7970   41.9650 C   0  0  0  0  0  0  0  0  0  0  0  0
   38.4970   30.0190   41.5010 C   0  0  0  0  0  0  0  0  0  0  0  0
   37.1770   30.2220   41.1470 C   0  0  0  0  0  0  0  0  0  0  0  0
   36.2520   29.2320   41.2520 C   0  0  0  0  0  0  0  0  0  0  0  0
   37.0790   31.5600   40.7100 O   0  0  0  0  0  0  0  0  0  0  0  0
   38.3430   32.0720   40.5740 C   0  0  1  0  0  0  0  0  0  0  0  0
   39.1990   31.2120   41.2850 O   0  0  0  0  0  0  0  0  0  0  0  0
   35.8240   27.2480   41.7750 H   0  0  0  0  0  0  0  0  0  0  0  0
   39.8690   28.5510   42.2620 H   0  0  0  0  0  0  0  0  0  0  0  0
   35.2240   29.4320   40.9630 H   0  0  0  0  0  0  0  0  0  0  0  0
   38.4030   33.0750   41.0750 H   0  0  0  0  0  0  0  0  0  0  0  0
   38.6970   32.1620   39.1740 N   0  0  0  0  0  0  0  0  0  0  0  0
   38.0790   32.9220   38.7690 H   0  0  0  0  0  0  0  0  0  0  0  0
   40.7540   32.4070   37.8380 C   0  0  2  0  0  3  0  0  0  0  0  0
   40.0610   32.6660   39.1470 C   0  0  1  0  0  3  0  0  0  0  0  0
   40.1130   34.0390   39.2650 O   0  0  0  0  0  0  0  0  0  0  0  0
   41.4100   34.3700   38.9570 C   0  0  0  0  0  2  0  0  0  0  0  0
   41.9330   33.3740   37.9480 C   0  0  2  0  0  3  0  0  0  0  0  0
   39.9800   32.6240   36.7240 O   0  0  0  0  0  0  0  0  0  0  0  0
   40.0200   33.5760   36.4640 H   0  0  0  0  0  0  0  0  0  0  0  0
   42.2520   33.9240   36.7260 O   0  0  0  0  0  0  0  0  0  0  0  0
   43.2250   33.9760   36.5800 H   0  0  0  0  0  0  0  0  0  0  0  0
   38.2870   26.1080   42.6740 S   0  0  0  0  0  0  0  0  0  0  0  0
   38.1800   24.9360   41.2700 C   0  0  0  0  0  0  0  0  0  0  0  0
   39.3140   24.7620   40.5530 C   0  0  0  0  0  0  0  0  0  0  0  0
   39.1960   23.8820   39.4950 C   0  0  0  0  0  0  0  0  0  0  0  0
   38.0580   23.2470   39.1950 N   0  0  0  0  0  0  0  0  0  0  0  0
   36.9480   23.4510   39.9420 C   0  0  0  0  0  0  0  0  0  0  0  0
   37.0500   24.3020   40.9680 N   0  0  0  0  0  0  0  0  0  0  0  0
   40.3470   23.6310   38.6520 N   0  0  0  0  0  0  0  0  0  0  0  0
   40.2310   24.0080   37.6840 H   0  0  0  0  0  0  0  0  0  0  0  0
   41.1200   23.1260   39.0940 H   0  0  0  0  0  0  0  0  0  0  0  0
   40.7080   25.3040   40.6450 C   0  0  0  0  0  0  0  0  0  0  0  0
   40.8720   25.7850   41.6510 H   0  0  0  0  0  0  0  0  0  0  0  0
   40.9290   25.9740   39.8010 H   0  0  0  0  0  0  0  0  0  0  0  0
   41.4540   24.4780   40.5990 H   0  0  0  0  0  0  0  0  0  0  0  0
   35.7220   22.8550   39.7320 O   0  0  0  0  0  0  0  0  0  0  0  0
   34.9310   23.3810   38.6700 C   0  0  0  0  0  0  0  0  0  0  0  0
   35.1630   24.7000   38.4890 F   0  0  0  0  0  0  0  0  0  0  0  0
   35.2340   22.6160   37.5310 F   0  0  0  0  0  0  0  0  0  0  0  0
   33.5960   23.2350   39.0000 F   0  0  0  0  0  0  0  0  0  0  0  0
  1 10  1  0  0  0  0
  1  2  1  0  0  0  0
  2 25  1  0  0  0  0
  3  2  2  0  0  0  0
  3 11  1  0  0  0  0
  4  3  1  0  0  0  0
  5  6  1  0  0  0  0
  5  4  2  0  0  0  0
  6  1  2  0  0  0  0
  7  5  1  0  0  0  0
  8  7  1  0  0  0  0
  8 13  1  1  0  0  0
  8  9  1  0  0  0  0
  9  4  1  0  0  0  0
 12  6  1  0  0  0  0
 14  8  1  0  0  0  0
 15 14  1  0  0  0  0
 16 21  1  6  0  0  0
 16 20  1  0  0  0  0
 16 17  1  0  0  0  0
 17 14  1  6  0  0  0
 17 18  1  0  0  0  0
 19 18  1  0  0  0  0
 20 23  1  6  0  0  0
 20 19  1  0  0  0  0
 22 21  1  0  0  0  0
 24 23  1  0  0  0  0
 26 25  1  0  0  0  0
 27 35  1  0  0  0  0
 27 26  2  0  0  0  0
 28 27  1  0  0  0  0
 29 28  2  0  0  0  0
 29 30  1  0  0  0  0
 30 31  2  0  0  0  0
 31 26  1  0  0  0  0
 32 34  1  0  0  0  0
 32 28  1  0  0  0  0
 33 32  1  0  0  0  0
 35 36  1  0  0  0  0
 37 35  1  0  0  0  0
 38 35  1  0  0  0  0
 39 30  1  0  0  0  0
 40 43  1  0  0  0  0
 40 39  1  0  0  0  0
 41 40  1  0  0  0  0
 42 40  1  0  0  0  0
M  END
>  <minimizedAffinity>
-6.459795

$$$$
