
 OpenBabel03252508063D

 44 47  0  0  1  0  0  0  0  0999 V2000
   45.1920   35.8050   42.9900 C   0  0  0  0  0  0  0  0  0  0  0  0
   45.4890   34.4520   43.0260 C   0  0  0  0  0  0  0  0  0  0  0  0
   45.3340   33.7480   44.1940 C   0  0  0  0  0  0  0  0  0  0  0  0
   44.8750   34.4470   45.2920 N   0  0  0  0  0  0  0  0  0  0  0  0
   44.5890   35.7480   45.2490 C   0  0  0  0  0  0  0  0  0  0  0  0
   44.7540   36.4160   44.0880 N   0  0  0  0  0  0  0  0  0  0  0  0
   45.3130   36.3730   42.0710 H   0  0  0  0  0  0  0  0  0  0  0  0
   44.2320   36.2650   46.1320 H   0  0  0  0  0  0  0  0  0  0  0  0
   45.5920   32.3720   44.3950 C   0  0  0  0  0  0  0  0  0  0  0  0
   45.1820   31.3620   43.5200 C   0  0  0  0  0  0  0  0  0  0  0  0
   45.3720   30.0240   43.7450 C   0  0  0  0  0  0  0  0  0  0  0  0
   46.0020   29.6100   44.8950 C   0  0  0  0  0  0  0  0  0  0  0  0
   46.4340   30.6220   45.8050 C   0  0  0  0  0  0  0  0  0  0  0  0
   47.0600   30.2180   46.9490 C   0  0  0  0  0  0  0  0  0  0  0  0
   47.5030   31.1490   47.8680 C   0  0  0  0  0  0  0  0  0  0  0  0
   47.3050   32.5150   47.6150 C   0  0  0  0  0  0  0  0  0  0  0  0
   46.6540   32.8790   46.4220 C   0  0  0  0  0  0  0  0  0  0  0  0
   46.2220   31.9340   45.5320 C   0  0  0  0  0  0  0  0  0  0  0  0
   44.6820   31.6800   42.6100 H   0  0  0  0  0  0  0  0  0  0  0  0
   45.0240   29.3020   43.0160 H   0  0  0  0  0  0  0  0  0  0  0  0
   46.1780   28.5710   45.1280 H   0  0  0  0  0  0  0  0  0  0  0  0
   47.2260   29.1710   47.1710 H   0  0  0  0  0  0  0  0  0  0  0  0
   47.9980   30.7850   48.7720 H   0  0  0  0  0  0  0  0  0  0  0  0
   47.6840   33.1710   48.3830 H   0  0  0  0  0  0  0  0  0  0  0  0
   46.6190   33.9480   46.4000 H   0  0  0  0  0  0  0  0  0  0  0  0
   45.9300   33.8780   41.8670 O   0  0  0  0  0  0  0  0  0  0  0  0
   48.0180   32.3950   41.3230 O   0  0  0  0  0  0  0  0  0  0  0  0
   47.5520   33.8040   41.3840 P   0  0  1  0  0  0  0  0  0  0  0  0
   47.7590   34.4610   39.8390 O   0  0  0  0  0  0  0  0  0  0  0  0
   48.9160   33.8390   37.8950 C   0  0  2  0  0  3  0  0  0  0  0  0
   47.8510   33.4700   38.8730 C   0  0  2  0  0  3  0  0  0  0  0  0
   46.6560   33.3670   38.1700 O   0  0  0  0  0  0  0  0  0  0  0  0
   46.9900   32.9460   36.8860 C   0  0  0  0  0  2  0  0  0  0  0  0
   48.2410   33.6950   36.5410 C   0  0  2  0  0  3  0  0  0  0  0  0
   49.9810   32.9240   37.9370 O   0  0  0  0  0  0  0  0  0  0  0  0
   49.6830   32.1600   38.4910 H   0  0  0  0  0  0  0  0  0  0  0  0
   49.0010   32.9580   35.6510 O   0  0  0  0  0  0  0  0  0  0  0  0
   48.6180   32.0410   35.4900 H   0  0  0  0  0  0  0  0  0  0  0  0
   48.4660   34.6950   42.4760 O   0  0  0  0  0  0  0  0  0  0  0  0
   49.6840   35.3100   42.2310 C   0  0  0  0  0  0  0  0  0  0  0  0
   49.3890   36.3800   41.6690 O   0  0  0  0  0  0  0  0  0  0  0  0
   50.7760   34.4960   42.7070 N   0  0  0  0  0  0  0  0  0  0  0  0
   51.4960   33.9500   42.1600 H   0  0  0  0  0  0  0  0  0  0  0  0
   50.8850   34.4260   43.7460 H   0  0  0  0  0  0  0  0  0  0  0  0
  1  2  2  0  0  0  0
  1  6  1  0  0  0  0
  2  3  1  0  0  0  0
  3  9  1  0  0  0  0
  3  4  2  0  0  0  0
  5  4  1  0  0  0  0
  5  8  1  0  0  0  0
  6  5  2  0  0  0  0
  7  1  1  0  0  0  0
  9 18  1  0  0  0  0
 10 11  1  0  0  0  0
 10  9  2  0  0  0  0
 11 12  2  0  0  0  0
 12 21  1  0  0  0  0
 12 13  1  0  0  0  0
 13 14  1  0  0  0  0
 14 22  1  0  0  0  0
 14 15  2  0  0  0  0
 15 23  1  0  0  0  0
 16 15  1  0  0  0  0
 16 24  1  0  0  0  0
 17 16  2  0  0  0  0
 18 13  2  0  0  0  0
 18 17  1  0  0  0  0
 19 10  1  0  0  0  0
 20 11  1  0  0  0  0
 25 17  1  0  0  0  0
 26  2  1  0  0  0  0
 28 27  2  1  0  0  0
 28 26  1  0  0  0  0
 28 39  1  0  0  0  0
 29 28  1  0  0  0  0
 30 35  1  6  0  0  0
 30 31  1  0  0  0  0
 31 29  1  1  0  0  0
 32 31  1  0  0  0  0
 33 32  1  0  0  0  0
 34 37  1  6  0  0  0
 34 33  1  0  0  0  0
 34 30  1  0  0  0  0
 35 36  1  0  0  0  0
 38 37  1  0  0  0  0
 40 39  1  0  0  0  0
 40 42  1  0  0  0  0
 41 40  2  0  0  0  0
 42 44  1  0  0  0  0
 43 42  1  0  0  0  0
M  END
>  <minimizedAffinity>
-6.58706188

>  <minimizedRMSD>
1.46157753

$$$$
