
 OpenBabel03252508063D

 44 47  0  0  1  0  0  0  0  0999 V2000
   45.1820   35.5500   43.1320 C   0  0  0  0  0  0  0  0  0  0  0  0
   45.5500   34.2170   43.2100 C   0  0  0  0  0  0  0  0  0  0  0  0
   45.4530   33.5480   44.4050 C   0  0  0  0  0  0  0  0  0  0  0  0
   44.9780   34.2620   45.4870 N   0  0  0  0  0  0  0  0  0  0  0  0
   44.6250   35.5430   45.4040 C   0  0  0  0  0  0  0  0  0  0  0  0
   44.7320   36.1770   44.2170 N   0  0  0  0  0  0  0  0  0  0  0  0
   45.2560   36.0900   42.1920 H   0  0  0  0  0  0  0  0  0  0  0  0
   44.2560   36.0730   46.2750 H   0  0  0  0  0  0  0  0  0  0  0  0
   45.7870   32.1950   44.6490 C   0  0  0  0  0  0  0  0  0  0  0  0
   45.4490   31.1390   43.7980 C   0  0  0  0  0  0  0  0  0  0  0  0
   45.7120   29.8210   44.0640 C   0  0  0  0  0  0  0  0  0  0  0  0
   46.3470   29.4770   45.2340 C   0  0  0  0  0  0  0  0  0  0  0  0
   46.7050   30.5370   46.1210 C   0  0  0  0  0  0  0  0  0  0  0  0
   47.3350   30.2020   47.2840 C   0  0  0  0  0  0  0  0  0  0  0  0
   47.7090   31.1820   48.1820 C   0  0  0  0  0  0  0  0  0  0  0  0
   47.4370   32.5270   47.8870 C   0  0  0  0  0  0  0  0  0  0  0  0
   46.7860   32.8200   46.6760 C   0  0  0  0  0  0  0  0  0  0  0  0
   46.4230   31.8260   45.8070 C   0  0  0  0  0  0  0  0  0  0  0  0
   44.9470   31.4030   42.8710 H   0  0  0  0  0  0  0  0  0  0  0  0
   45.4180   29.0600   43.3510 H   0  0  0  0  0  0  0  0  0  0  0  0
   46.5790   28.4570   45.4990 H   0  0  0  0  0  0  0  0  0  0  0  0
   47.5580   29.1730   47.5390 H   0  0  0  0  0  0  0  0  0  0  0  0
   48.2100   30.8720   49.1040 H   0  0  0  0  0  0  0  0  0  0  0  0
   47.7650   33.2250   48.6420 H   0  0  0  0  0  0  0  0  0  0  0  0
   46.6890   33.8830   46.6220 H   0  0  0  0  0  0  0  0  0  0  0  0
   45.9990   33.6240   42.0630 O   0  0  0  0  0  0  0  0  0  0  0  0
   48.2010   32.4150   41.3270 O   0  0  0  0  0  0  0  0  0  0  0  0
   47.5780   33.7570   41.4650 P   0  0  1  0  0  0  0  0  0  0  0  0
   47.5910   34.4670   39.9300 O   0  0  0  0  0  0  0  0  0  0  0  0
   48.3100   34.2640   37.7060 C   0  0  2  0  0  3  0  0  0  0  0  0
   47.8920   33.5410   38.9420 C   0  0  2  0  0  3  0  0  0  0  0  0
   46.7660   32.7880   38.6260 O   0  0  0  0  0  0  0  0  0  0  0  0
   46.8930   32.4360   37.2840 C   0  0  0  0  0  2  0  0  0  0  0  0
   47.4500   33.6530   36.6110 C   0  0  2  0  0  3  0  0  0  0  0  0
   49.6510   33.9940   37.3910 O   0  0  0  0  0  0  0  0  0  0  0  0
   49.9430   33.2530   37.9790 H   0  0  0  0  0  0  0  0  0  0  0  0
   48.1950   33.2800   35.5060 O   0  0  0  0  0  0  0  0  0  0  0  0
   48.2930   32.2820   35.4310 H   0  0  0  0  0  0  0  0  0  0  0  0
   48.4590   34.7260   42.5150 O   0  0  0  0  0  0  0  0  0  0  0  0
   49.6750   35.3400   42.2570 C   0  0  0  0  0  0  0  0  0  0  0  0
   49.3750   36.4110   41.6990 O   0  0  0  0  0  0  0  0  0  0  0  0
   50.7700   34.5240   42.7200 N   0  0  0  0  0  0  0  0  0  0  0  0
   51.4840   33.9770   42.1660 H   0  0  0  0  0  0  0  0  0  0  0  0
   50.8910   34.4540   43.7590 H   0  0  0  0  0  0  0  0  0  0  0  0
  1  2  2  0  0  0  0
  1  6  1  0  0  0  0
  2  3  1  0  0  0  0
  3  9  1  0  0  0  0
  3  4  2  0  0  0  0
  5  4  1  0  0  0  0
  5  8  1  0  0  0  0
  6  5  2  0  0  0  0
  7  1  1  0  0  0  0
  9 18  1  0  0  0  0
 10 11  1  0  0  0  0
 10  9  2  0  0  0  0
 11 12  2  0  0  0  0
 12 21  1  0  0  0  0
 12 13  1  0  0  0  0
 13 14  1  0  0  0  0
 14 22  1  0  0  0  0
 14 15  2  0  0  0  0
 15 23  1  0  0  0  0
 16 15  1  0  0  0  0
 16 24  1  0  0  0  0
 17 16  2  0  0  0  0
 18 13  2  0  0  0  0
 18 17  1  0  0  0  0
 19 10  1  0  0  0  0
 20 11  1  0  0  0  0
 25 17  1  0  0  0  0
 26  2  1  0  0  0  0
 28 27  2  6  0  0  0
 28 26  1  0  0  0  0
 28 39  1  0  0  0  0
 29 28  1  0  0  0  0
 30 35  1  6  0  0  0
 30 31  1  0  0  0  0
 31 29  1  1  0  0  0
 32 31  1  0  0  0  0
 33 32  1  0  0  0  0
 34 37  1  6  0  0  0
 34 33  1  0  0  0  0
 34 30  1  0  0  0  0
 35 36  1  0  0  0  0
 38 37  1  0  0  0  0
 40 39  1  0  0  0  0
 40 42  1  0  0  0  0
 41 40  2  0  0  0  0
 42 44  1  0  0  0  0
 43 42  1  0  0  0  0
M  END
>  <minimizedAffinity>
-6.95969582

>  <minimizedRMSD>
0.635619044

$$$$
