
 OpenBabel03252507493D

 45 47  0  0  1  0  0  0  0  0999 V2000
   46.3870   34.8210   41.8470 C   0  0  0  0  0  0  0  0  0  0  0  0
   46.5690   34.2090   42.7550 H   0  0  0  0  0  0  0  0  0  0  0  0
   46.6040   35.8790   42.1570 H   0  0  0  0  0  0  0  0  0  0  0  0
   44.9570   34.6420   41.4870 C   0  0  0  0  0  0  0  0  0  0  0  0
   44.0170   35.6620   41.7850 C   0  0  0  0  0  0  0  0  0  0  0  0
   42.4430   34.9830   41.1630 S   0  0  0  0  0  0  0  0  0  0  0  0
   43.3330   33.3920   40.5890 C   0  0  0  0  0  0  0  0  0  0  0  0
   44.4030   33.6220   40.9040 N   0  0  0  0  0  0  0  0  0  0  0  0
   44.2120   36.6070   42.2640 H   0  0  0  0  0  0  0  0  0  0  0  0
   42.6710   32.3440   39.9710 O   0  0  0  0  0  0  0  0  0  0  0  0
   42.0160   31.0280   37.7650 O   0  0  0  0  0  0  0  0  0  0  0  0
   42.5630   32.3620   38.2890 P   0  0  1  0  0  0  0  0  0  0  0  0
   41.4680   33.5860   37.8460 O   0  0  0  0  0  0  0  0  0  0  0  0
   41.7820   33.9660   36.9950 H   0  0  0  0  0  0  0  0  0  0  0  0
   44.0600   32.7160   37.6080 O   0  0  0  0  0  0  0  0  0  0  0  0
   44.6900   31.9040   35.4350 C   0  0  2  0  0  3  0  0  0  0  0  0
   44.4640   31.5700   36.9100 C   0  0  1  0  0  3  0  0  0  0  0  0
   45.6990   31.1180   37.3000 O   0  0  0  0  0  0  0  0  0  0  0  0
   46.1110   30.2670   36.3030 C   0  0  0  0  0  2  0  0  0  0  0  0
   45.5000   30.6980   35.0030 C   0  0  2  0  0  3  0  0  0  0  0  0
   45.3890   33.0690   35.2440 O   0  0  0  0  0  0  0  0  0  0  0  0
   45.9020   33.0120   34.4020 H   0  0  0  0  0  0  0  0  0  0  0  0
   46.4240   31.0830   34.0420 O   0  0  0  0  0  0  0  0  0  0  0  0
   46.5460   30.4150   33.3220 H   0  0  0  0  0  0  0  0  0  0  0  0
   47.3440   34.4550   40.7570 C   0  0  0  0  0  0  0  0  0  0  0  0
   46.8570   33.7350   40.0900 H   0  0  0  0  0  0  0  0  0  0  0  0
   47.5220   35.3720   40.1300 H   0  0  0  0  0  0  0  0  0  0  0  0
   48.6480   33.9840   41.2520 C   0  0  0  0  0  0  0  0  0  0  0  0
   49.1610   32.8320   40.6610 C   0  0  0  0  0  0  0  0  0  0  0  0
   50.3750   32.3140   41.0570 C   0  0  0  0  0  0  0  0  0  0  0  0
   51.0440   32.9880   42.0570 N   0  0  0  0  0  0  0  0  0  0  0  0
   50.5010   34.1160   42.6100 C   0  0  0  0  0  0  0  0  0  0  0  0
   49.3360   34.5820   42.2030 N   0  0  0  0  0  0  0  0  0  0  0  0
   50.8110   31.4230   40.6270 H   0  0  0  0  0  0  0  0  0  0  0  0
   51.0690   34.6120   43.3970 H   0  0  0  0  0  0  0  0  0  0  0  0
   48.2380   32.0080   39.3680 S   0  0  0  0  0  0  0  0  0  0  0  0
   49.0160   32.3130   37.7540 C   0  0  0  0  0  0  0  0  0  0  0  0
   50.1090   32.4610   37.9290 H   0  0  0  0  0  0  0  0  0  0  0  0
   48.8970   31.4130   37.1410 H   0  0  0  0  0  0  0  0  0  0  0  0
   48.3600   33.4910   37.1050 C   0  0  0  0  0  0  0  0  0  0  0  0
   47.4130   33.7860   37.6010 H   0  0  0  0  0  0  0  0  0  0  0  0
   49.0560   34.3490   37.2080 H   0  0  0  0  0  0  0  0  0  0  0  0
   48.2010   33.2080   35.7090 N   0  0  0  0  0  0  0  0  0  0  0  0
   47.9630   34.0770   35.1880 H   0  0  0  0  0  0  0  0  0  0  0  0
   49.0350   32.7040   35.3880 H   0  0  0  0  0  0  0  0  0  0  0  0
  1  3  1  0  0  0  0
  1  2  1  0  0  0  0
  4  5  2  0  0  0  0
  4  1  1  0  0  0  0
  5  9  1  0  0  0  0
  6  5  1  0  0  0  0
  7  8  2  0  0  0  0
  7  6  1  0  0  0  0
  8  4  1  0  0  0  0
 10  7  1  0  0  0  0
 12 11  2  6  0  0  0
 12 10  1  0  0  0  0
 13 12  1  0  0  0  0
 14 13  1  0  0  0  0
 15 12  1  0  0  0  0
 16 21  1  1  0  0  0
 16 17  1  0  0  0  0
 17 18  1  0  0  0  0
 17 15  1  1  0  0  0
 19 18  1  0  0  0  0
 20 23  1  6  0  0  0
 20 16  1  0  0  0  0
 20 19  1  0  0  0  0
 22 21  1  0  0  0  0
 24 23  1  0  0  0  0
 25 28  1  0  0  0  0
 25  1  1  0  0  0  0
 26 25  1  0  0  0  0
 27 25  1  0  0  0  0
 28 33  1  0  0  0  0
 29 30  1  0  0  0  0
 29 28  2  0  0  0  0
 30 31  2  0  0  0  0
 31 32  1  0  0  0  0
 32 35  1  0  0  0  0
 33 32  2  0  0  0  0
 34 30  1  0  0  0  0
 36 29  1  0  0  0  0
 37 38  1  0  0  0  0
 37 36  1  0  0  0  0
 39 37  1  0  0  0  0
 40 42  1  0  0  0  0
 40 41  1  0  0  0  0
 40 37  1  0  0  0  0
 43 40  1  0  0  0  0
 44 43  1  0  0  0  0
 45 43  1  0  0  0  0
M  END
>  <minimizedAffinity>
-4.64042854

>  <minimizedRMSD>
2.08417654

$$$$
