
     RDKit          3D

 29 30  0  0  0  0  0  0  0  0999 V2000
   44.4691   35.6966   44.5869 C   0  0  0  0  0  0  0  0  0  0  0  0
   44.9294   35.8218   43.2646 C   0  0  0  0  0  0  0  0  0  0  0  0
   46.0161   35.0026   42.8892 C   0  0  0  0  0  0  0  0  0  0  0  0
   46.5394   34.1628   43.8060 N   0  0  0  0  0  0  0  0  0  0  0  0
   46.0730   34.0702   45.0617 C   0  0  0  0  0  0  0  0  0  0  0  0
   45.0469   34.8294   45.4513 N   0  0  0  0  0  0  0  0  0  0  0  0
   46.5952   33.2149   46.0191 O   0  0  0  0  0  0  0  0  0  0  0  0
   46.7744   32.2230   48.3949 O   0  0  0  0  0  0  0  0  0  0  0  0
   45.7615   32.5146   47.2999 P   0  0  1  0  0  0  0  0  0  0  0  0
   44.5332   33.5289   47.8616 O   0  0  0  0  0  0  0  0  0  0  0  0
   45.0518   31.0363   46.8918 O   0  0  0  0  0  0  0  0  0  0  0  0
   43.6343   36.3159   44.9000 H   0  0  0  0  0  0  0  0  0  0  0  0
   44.4457   36.5228   42.6026 H   0  0  0  0  0  0  0  0  0  0  0  0
   46.3842   35.0850   41.8752 H   0  0  0  0  0  0  0  0  0  0  0  0
   43.6722   33.3775   47.4080 H   0  0  0  0  0  0  0  0  0  0  0  0
   47.1050   28.9146   46.1449 O   0  0  0  0  0  0  0  0  0  0  0  0
   45.8355   28.7907   46.7018 C   0  0  2  0  0  0  0  0  0  0  0  0
   45.5236   29.9580   47.5869 C   0  0  2  0  0  0  0  0  0  0  0  0
   44.6892   29.5130   48.5927 O   0  0  0  0  0  0  0  0  0  0  0  0
   44.7588   28.1503   48.6761 C   0  0  0  0  0  0  0  0  0  0  0  0
   45.7671   27.6387   47.6827 C   0  0  2  0  0  0  0  0  0  0  0  0
   47.0316   27.4551   48.2537 O   0  0  0  0  0  0  0  0  0  0  0  0
   47.2742   28.1783   45.5211 H   0  0  0  0  0  0  0  0  0  0  0  0
   45.0459   28.7389   45.9346 H   0  0  0  0  0  0  0  0  0  0  0  0
   46.4801   30.2613   48.0891 H   0  0  0  0  0  0  0  0  0  0  0  0
   44.9844   27.8063   49.7108 H   0  0  0  0  0  0  0  0  0  0  0  0
   43.7566   27.7041   48.4056 H   0  0  0  0  0  0  0  0  0  0  0  0
   45.4036   26.7125   47.1864 H   0  0  0  0  0  0  0  0  0  0  0  0
   47.0567   27.7259   49.2235 H   0  0  0  0  0  0  0  0  0  0  0  0
  1  6  2  0
  2  1  1  0
  3  2  2  0
  3  4  1  0
  4  5  2  0
  5  6  1  0
  5  7  1  0
  9  7  1  6
  9 10  1  0
  9  8  2  0
 11  9  1  0
  1 12  1  0
  2 13  1  0
  3 14  1  0
 10 15  1  0
 16 17  1  0
 17 18  1  0
 18 19  1  0
 19 20  1  0
 20 21  1  0
 21 22  1  0
 21 17  1  0
 16 23  1  0
 17 24  1  6
 18 25  1  1
 20 26  1  0
 20 27  1  0
 21 28  1  6
 22 29  1  0
 11 18  1  0
M  ISO  4  12  14  13  14  14  14  15   3
M  END
>  <DihAtoms>  (1) 
8,10,17,16

>  <DihDeg>  (1) 
-118.3515570180904

$$$$
