
 OpenBabel03252507493D

 45 47  0  0  1  0  0  0  0  0999 V2000
   47.4290   34.5290   40.8210 C   0  0  0  0  0  0  0  0  0  0  0  0
   48.2860   34.9960   41.3500 H   0  0  0  0  0  0  0  0  0  0  0  0
   47.3400   35.0940   39.8520 H   0  0  0  0  0  0  0  0  0  0  0  0
   46.2330   34.7300   41.6790 C   0  0  0  0  0  0  0  0  0  0  0  0
   46.3320   35.5050   42.8630 C   0  0  0  0  0  0  0  0  0  0  0  0
   44.6400   35.4550   43.5440 S   0  0  0  0  0  0  0  0  0  0  0  0
   44.0620   34.3680   42.0820 C   0  0  0  0  0  0  0  0  0  0  0  0
   45.0320   34.2710   41.4930 N   0  0  0  0  0  0  0  0  0  0  0  0
   47.2090   35.9980   43.2480 H   0  0  0  0  0  0  0  0  0  0  0  0
   42.7590   33.9160   41.9540 O   0  0  0  0  0  0  0  0  0  0  0  0
   40.3940   34.0150   40.7590 O   0  0  0  0  0  0  0  0  0  0  0  0
   41.7380   34.7420   40.8960 P   0  0  1  0  0  0  0  0  0  0  0  0
   41.4370   36.2820   41.5530 O   0  0  0  0  0  0  0  0  0  0  0  0
   41.3470   36.9080   40.8010 H   0  0  0  0  0  0  0  0  0  0  0  0
   42.4800   34.9390   39.3990 O   0  0  0  0  0  0  0  0  0  0  0  0
   43.6700   33.4780   37.9060 C   0  0  2  0  0  3  0  0  0  0  0  0
   42.4170   33.6950   38.7550 C   0  0  1  0  0  3  0  0  0  0  0  0
   42.4710   32.6400   39.6290 O   0  0  0  0  0  0  0  0  0  0  0  0
   42.7830   31.5430   38.8640 C   0  0  0  0  0  2  0  0  0  0  0  0
   43.5920   31.9810   37.6800 C   0  0  2  0  0  3  0  0  0  0  0  0
   44.8300   33.8250   38.5530 O   0  0  0  0  0  0  0  0  0  0  0  0
   45.5740   33.2700   38.2160 H   0  0  0  0  0  0  0  0  0  0  0  0
   44.8740   31.4530   37.6410 O   0  0  0  0  0  0  0  0  0  0  0  0
   44.9850   30.7380   36.9670 H   0  0  0  0  0  0  0  0  0  0  0  0
   47.7170   33.0980   40.4950 C   0  0  0  0  0  0  0  0  0  0  0  0
   46.9870   32.4670   41.0160 H   0  0  0  0  0  0  0  0  0  0  0  0
   47.5180   32.9450   39.3990 H   0  0  0  0  0  0  0  0  0  0  0  0
   49.1090   32.7030   40.7640 C   0  0  0  0  0  0  0  0  0  0  0  0
   49.7200   31.8850   39.8150 C   0  0  0  0  0  0  0  0  0  0  0  0
   51.0210   31.4620   39.9790 C   0  0  0  0  0  0  0  0  0  0  0  0
   51.6760   31.8860   41.1150 N   0  0  0  0  0  0  0  0  0  0  0  0
   51.0370   32.6900   42.0200 C   0  0  0  0  0  0  0  0  0  0  0  0
   49.7890   33.0740   41.8280 N   0  0  0  0  0  0  0  0  0  0  0  0
   51.5340   30.8270   39.2690 H   0  0  0  0  0  0  0  0  0  0  0  0
   51.5980   32.9980   42.9020 H   0  0  0  0  0  0  0  0  0  0  0  0
   48.8080   31.3720   38.3630 S   0  0  0  0  0  0  0  0  0  0  0  0
   49.4170   32.2590   36.8990 C   0  0  0  0  0  0  0  0  0  0  0  0
   50.1590   33.0180   37.2480 H   0  0  0  0  0  0  0  0  0  0  0  0
   49.9510   31.5430   36.2630 H   0  0  0  0  0  0  0  0  0  0  0  0
   48.2590   32.8610   36.1690 C   0  0  0  0  0  0  0  0  0  0  0  0
   47.3440   32.2360   36.2210 H   0  0  0  0  0  0  0  0  0  0  0  0
   48.0210   33.8210   36.6720 H   0  0  0  0  0  0  0  0  0  0  0  0
   48.6700   33.1490   34.8270 N   0  0  0  0  0  0  0  0  0  0  0  0
   47.9760   33.7700   34.3600 H   0  0  0  0  0  0  0  0  0  0  0  0
   49.6350   33.4940   34.8550 H   0  0  0  0  0  0  0  0  0  0  0  0
  1  2  1  0  0  0  0
  1  4  1  0  0  0  0
  3  1  1  0  0  0  0
  4  5  2  0  0  0  0
  5  9  1  0  0  0  0
  5  6  1  0  0  0  0
  7  6  1  0  0  0  0
  8  4  1  0  0  0  0
  8  7  2  0  0  0  0
 10  7  1  0  0  0  0
 12 11  2  6  0  0  0
 12 13  1  0  0  0  0
 12 10  1  0  0  0  0
 14 13  1  0  0  0  0
 15 12  1  0  0  0  0
 16 21  1  1  0  0  0
 16 17  1  0  0  0  0
 17 15  1  1  0  0  0
 17 18  1  0  0  0  0
 19 18  1  0  0  0  0
 20 23  1  1  0  0  0
 20 16  1  0  0  0  0
 20 19  1  0  0  0  0
 22 21  1  0  0  0  0
 24 23  1  0  0  0  0
 25 28  1  0  0  0  0
 25  1  1  0  0  0  0
 25 26  1  0  0  0  0
 27 25  1  0  0  0  0
 28 33  1  0  0  0  0
 29 30  1  0  0  0  0
 29 28  2  0  0  0  0
 30 31  2  0  0  0  0
 31 32  1  0  0  0  0
 32 35  1  0  0  0  0
 33 32  2  0  0  0  0
 34 30  1  0  0  0  0
 36 29  1  0  0  0  0
 37 38  1  0  0  0  0
 37 36  1  0  0  0  0
 39 37  1  0  0  0  0
 40 41  1  0  0  0  0
 40 42  1  0  0  0  0
 40 37  1  0  0  0  0
 43 45  1  0  0  0  0
 43 40  1  0  0  0  0
 44 43  1  0  0  0  0
M  END
>  <minimizedAffinity>
-4.63015509

>  <minimizedRMSD>
1.87283421

$$$$
