
     RDKit          3D

 29 30  0  0  0  0  0  0  0  0999 V2000
   44.4691   35.6966   44.5869 C   0  0  0  0  0  0  0  0  0  0  0  0
   44.9294   35.8218   43.2646 C   0  0  0  0  0  0  0  0  0  0  0  0
   46.0161   35.0026   42.8892 C   0  0  0  0  0  0  0  0  0  0  0  0
   46.5394   34.1628   43.8060 N   0  0  0  0  0  0  0  0  0  0  0  0
   46.0730   34.0702   45.0617 C   0  0  0  0  0  0  0  0  0  0  0  0
   45.0469   34.8294   45.4513 N   0  0  0  0  0  0  0  0  0  0  0  0
   46.5952   33.2149   46.0191 O   0  0  0  0  0  0  0  0  0  0  0  0
   46.7744   32.2230   48.3949 O   0  0  0  0  0  0  0  0  0  0  0  0
   45.7615   32.5146   47.2999 P   0  0  1  0  0  0  0  0  0  0  0  0
   44.5332   33.5289   47.8616 O   0  0  0  0  0  0  0  0  0  0  0  0
   45.0518   31.0363   46.8918 O   0  0  0  0  0  0  0  0  0  0  0  0
   43.6343   36.3159   44.9000 H   0  0  0  0  0  0  0  0  0  0  0  0
   44.4457   36.5228   42.6026 H   0  0  0  0  0  0  0  0  0  0  0  0
   46.3842   35.0850   41.8752 H   0  0  0  0  0  0  0  0  0  0  0  0
   43.6722   33.3775   47.4080 H   0  0  0  0  0  0  0  0  0  0  0  0
   47.4903   29.2700   46.4347 O   0  0  0  0  0  0  0  0  0  0  0  0
   46.1660   28.9350   46.7014 C   0  0  2  0  0  0  0  0  0  0  0  0
   45.5236   29.9580   47.5869 C   0  0  2  0  0  0  0  0  0  0  0  0
   44.5776   29.3131   48.3583 O   0  0  0  0  0  0  0  0  0  0  0  0
   44.8206   27.9678   48.3511 C   0  0  0  0  0  0  0  0  0  0  0  0
   46.0676   27.6885   47.5560 C   0  0  2  0  0  0  0  0  0  0  0  0
   47.2068   27.6031   48.3644 O   0  0  0  0  0  0  0  0  0  0  0  0
   47.8818   28.6281   45.8065 H   0  0  0  0  0  0  0  0  0  0  0  0
   45.5595   28.8663   45.7837 H   0  0  0  0  0  0  0  0  0  0  0  0
   46.3091   30.3227   48.3004 H   0  0  0  0  0  0  0  0  0  0  0  0
   44.8828   27.5493   49.3810 H   0  0  0  0  0  0  0  0  0  0  0  0
   43.9649   27.4326   47.8430 H   0  0  0  0  0  0  0  0  0  0  0  0
   45.9438   26.7808   46.9257 H   0  0  0  0  0  0  0  0  0  0  0  0
   47.0008   27.7736   49.3354 H   0  0  0  0  0  0  0  0  0  0  0  0
  1  6  2  0
  2  1  1  0
  3  2  2  0
  3  4  1  0
  4  5  2  0
  5  6  1  0
  5  7  1  0
  9  7  1  6
  9 10  1  0
  9  8  2  0
 11  9  1  0
  1 12  1  0
  2 13  1  0
  3 14  1  0
 10 15  1  0
 16 17  1  0
 17 18  1  0
 18 19  1  0
 19 20  1  0
 20 21  1  0
 21 22  1  0
 21 17  1  0
 16 23  1  0
 17 24  1  6
 18 25  1  1
 20 26  1  0
 20 27  1  0
 21 28  1  6
 22 29  1  0
 11 18  1  0
M  ISO  4  12  14  13  14  14  14  15   3
M  END
>  <DihAtoms>  (1) 
8,10,17,16

>  <DihDeg>  (1) 
-118.3515570180904

$$$$
