
 OpenBabel03252505273D

 24 25  0  0  1  0  0  0  0  0999 V2000
   46.8880   32.1580   48.4470 O   0  0  0  0  0  0  0  0  0  0  0  0
   45.8690   32.4090   47.3480 P   0  0  1  0  0  0  0  0  0  0  0  0
   44.5810   33.3440   47.9140 O   0  0  0  0  0  0  0  0  0  0  0  0
   43.7340   33.1510   47.4510 H   0  0  0  0  0  0  0  0  0  0  0  0
   46.6720   33.1740   46.0850 O   0  0  0  0  0  0  0  0  0  0  0  0
   44.4780   35.6360   44.7240 C   0  0  0  0  0  0  0  0  0  0  0  0
   44.8990   35.7720   43.3900 C   0  0  0  0  0  0  0  0  0  0  0  0
   45.9860   34.9690   42.9800 C   0  0  0  0  0  0  0  0  0  0  0  0
   46.5440   34.1310   43.8790 N   0  0  0  0  0  0  0  0  0  0  0  0
   46.1140   34.0260   45.1460 C   0  0  0  0  0  0  0  0  0  0  0  0
   45.0900   34.7710   45.5670 N   0  0  0  0  0  0  0  0  0  0  0  0
   43.6440   36.2430   45.0620 H   0  0  0  0  0  0  0  0  0  0  0  0
   44.3900   36.4700   42.7450 H   0  0  0  0  0  0  0  0  0  0  0  0
   46.3240   35.0600   41.9570 H   0  0  0  0  0  0  0  0  0  0  0  0
   45.2470   30.8990   46.9130 O   0  0  0  0  0  0  0  0  0  0  0  0
   46.9160   29.2230   46.6000 C   0  0  2  0  0  3  0  0  0  0  0  0
   45.8740   29.8290   47.4880 C   0  0  2  0  0  3  0  0  0  0  0  0
   45.0260   28.8170   47.8930 O   0  0  0  0  0  0  0  0  0  0  0  0
   45.6300   27.6070   47.6960 C   0  0  0  0  0  2  0  0  0  0  0  0
   47.0230   27.8230   47.1680 C   0  0  2  0  0  3  0  0  0  0  0  0
   48.1210   29.9120   46.7070 O   0  0  0  0  0  0  0  0  0  0  0  0
   48.7770   29.5460   46.0780 H   0  0  0  0  0  0  0  0  0  0  0  0
   47.9850   27.8190   48.1840 O   0  0  0  0  0  0  0  0  0  0  0  0
   47.5760   27.7030   49.0970 H   0  0  0  0  0  0  0  0  0  0  0  0
  2  3  1  0  0  0  0
  2  1  2  1  0  0  0
  4  3  1  0  0  0  0
  5  2  1  0  0  0  0
  6 12  1  0  0  0  0
  6 11  1  0  0  0  0
  7  6  2  0  0  0  0
  8  7  1  0  0  0  0
  8  9  2  0  0  0  0
  9 10  1  0  0  0  0
 10 11  2  0  0  0  0
 10  5  1  0  0  0  0
 13  7  1  0  0  0  0
 14  8  1  0  0  0  0
 15  2  1  0  0  0  0
 16 21  1  1  0  0  0
 16 20  1  0  0  0  0
 16 17  1  0  0  0  0
 17 15  1  6  0  0  0
 17 18  1  0  0  0  0
 19 18  1  0  0  0  0
 20 19  1  0  0  0  0
 20 23  1  1  0  0  0
 22 21  1  0  0  0  0
 23 24  1  0  0  0  0
M  END
>  <minimizedAffinity>
-4.82938051

>  <minimizedRMSD>
0.556382954

$$$$
