
 OpenBabel03242515123D

 31 33  0  0  1  0  0  0  0  0999 V2000
   46.6040   33.1000   45.3260 C   0  0  2  0  0  0  0  0  0  0  0  0
   46.8360   33.1590   43.8350 C   0  0  1  0  0  0  0  0  0  0  0  0
   46.6780   31.7910   43.4340 O   0  0  0  0  0  0  0  0  0  0  0  0
   47.6350   31.2420   44.3180 C   0  0  0  0  0  0  0  0  0  0  0  0
   47.0270   31.6590   45.6530 C   0  0  2  0  0  0  0  0  0  0  0  0
   47.2230   33.8260   45.8820 H   0  0  0  0  0  0  0  0  0  0  0  0
   47.8880   33.3760   43.5760 H   0  0  0  0  0  0  0  0  0  0  0  0
   48.5890   31.7570   44.1600 H   0  0  0  0  0  0  0  0  0  0  0  0
   47.6670   30.1610   44.1930 H   0  0  0  0  0  0  0  0  0  0  0  0
   47.7540   31.6320   46.4640 H   0  0  0  0  0  0  0  0  0  0  0  0
   44.8260   36.1110   43.0100 C   0  0  0  0  0  0  0  0  0  0  0  0
   44.1350   35.7210   41.8310 C   0  0  0  0  0  0  0  0  0  0  0  0
   44.3700   34.4130   41.3280 C   0  0  0  0  0  0  0  0  0  0  0  0
   45.2360   33.6010   41.9900 N   0  0  0  0  0  0  0  0  0  0  0  0
   45.8790   34.0130   43.1190 C   0  0  0  0  0  0  0  0  0  0  0  0
   45.6740   35.2520   43.6210 N   0  0  0  0  0  0  0  0  0  0  0  0
   44.6370   37.1070   43.3790 H   0  0  0  0  0  0  0  0  0  0  0  0
   43.4540   36.4000   41.3370 H   0  0  0  0  0  0  0  0  0  0  0  0
   43.8480   34.1220   40.4390 H   0  0  0  0  0  0  0  0  0  0  0  0
   45.2380   33.2760   45.6190 O   0  0  0  0  0  0  0  0  0  0  0  0
   44.7320   32.4370   45.4870 H   0  0  0  0  0  0  0  0  0  0  0  0
   45.9070   30.8780   45.8660 O   0  0  0  0  0  0  0  0  0  0  0  0
   47.1200   29.3280   47.2530 C   0  0  2  0  0  0  0  0  0  0  0  0
   45.9980   30.3270   47.1410 C   0  0  2  0  0  0  0  0  0  0  0  0
   44.8210   29.7190   47.5320 O   0  0  0  0  0  0  0  0  0  0  0  0
   45.0620   28.4230   47.8990 C   0  0  0  0  0  0  0  0  0  0  0  0
   46.3970   28.0210   47.3290 C   0  0  2  0  0  0  0  0  0  0  0  0
   47.7650   29.5140   48.4760 O   0  0  0  0  0  0  0  0  0  0  0  0
   47.8370   30.4910   48.6660 H   0  0  0  0  0  0  0  0  0  0  0  0
   46.9930   27.1490   48.2440 O   0  0  0  0  0  0  0  0  0  0  0  0
   46.9080   26.1930   47.9900 H   0  0  0  0  0  0  0  0  0  0  0  0
  1 20  1  0  0  0  0
  1  5  1  0  0  0  0
  1  6  1  1  0  0  0
  2  7  1  6  0  0  0
  2  1  1  0  0  0  0
  3  2  1  0  0  0  0
  3  4  1  0  0  0  0
  4  5  1  0  0  0  0
  5 22  1  0  0  0  0
  5 10  1  1  0  0  0
  8  4  1  0  0  0  0
  9  4  1  0  0  0  0
 11 17  1  0  0  0  0
 11 16  1  0  0  0  0
 12 11  2  0  0  0  0
 13 12  1  0  0  0  0
 13 14  2  0  0  0  0
 14 15  1  0  0  0  0
 15 16  2  0  0  0  0
 15  2  1  0  0  0  0
 18 12  1  0  0  0  0
 19 13  1  0  0  0  0
 21 20  1  0  0  0  0
 23 27  1  0  0  0  0
 23 28  1  1  0  0  0
 24 22  1  6  0  0  0
 24 23  1  0  0  0  0
 24 25  1  0  0  0  0
 25 26  1  0  0  0  0
 27 26  1  0  0  0  0
 27 30  1  1  0  0  0
 28 29  1  0  0  0  0
 31 30  1  0  0  0  0
M  END
>  <minimizedAffinity>
-4.57597589

>  <minimizedRMSD>
3.03461742

$$$$
