
     RDKit          3D

 50 52  0  0  0  0  0  0  0  0999 V2000
   47.5239   34.4454   40.7682 C   0  0  0  0  0  0  0  0  0  0  0  0
   48.7821   33.7735   41.1335 C   0  0  0  0  0  0  0  0  0  0  0  0
   49.1072   32.6242   40.4154 C   0  0  0  0  0  0  0  0  0  0  0  0
   50.2640   31.9257   40.6838 C   0  0  0  0  0  0  0  0  0  0  0  0
   51.0709   32.4193   41.6877 N   0  0  0  0  0  0  0  0  0  0  0  0
   50.7115   33.5517   42.3665 C   0  0  0  0  0  0  0  0  0  0  0  0
   49.5952   34.1931   42.0803 N   0  0  0  0  0  0  0  0  0  0  0  0
   48.0120   32.0413   39.1253 S   0  0  0  0  0  0  0  0  0  0  0  0
   48.8285   32.1739   37.5070 C   0  0  0  0  0  0  0  0  0  0  0  0
   48.4919   33.4956   36.8919 C   0  0  0  0  0  0  0  0  0  0  0  0
   48.1909   33.2868   35.5066 N   0  0  0  0  0  0  0  0  0  0  0  0
   46.7493   34.9426   41.9456 C   0  0  0  0  0  0  0  0  0  0  0  0
   45.2764   34.9349   41.7542 C   0  0  0  0  0  0  0  0  0  0  0  0
   44.4349   35.5945   42.6876 C   0  0  0  0  0  0  0  0  0  0  0  0
   42.7595   35.3037   42.0269 S   0  0  0  0  0  0  0  0  0  0  0  0
   43.4868   34.3145   40.5622 C   0  0  0  0  0  0  0  0  0  0  0  0
   44.6005   34.3770   40.7960 N   0  0  0  0  0  0  0  0  0  0  0  0
   42.6975   33.7476   39.5759 O   0  0  0  0  0  0  0  0  0  0  0  0
   40.7443   33.9908   37.7994 O   0  0  0  0  0  0  0  0  0  0  0  0
   41.7809   34.7808   38.6084 P   0  0  1  0  0  0  0  0  0  0  0  0
   40.9433   35.8519   39.6304 O   0  0  0  0  0  0  0  0  0  0  0  0
   42.7825   35.6824   37.6000 O   0  0  0  0  0  0  0  0  0  0  0  0
   46.8671   33.8151   40.1574 H   0  0  0  0  0  0  0  0  0  0  0  0
   47.7775   35.3289   40.1212 H   0  0  0  0  0  0  0  0  0  0  0  0
   50.5562   31.0298   40.1525 H   0  0  0  0  0  0  0  0  0  0  0  0
   51.3833   33.9012   43.1513 H   0  0  0  0  0  0  0  0  0  0  0  0
   49.9238   32.0307   37.6685 H   0  0  0  0  0  0  0  0  0  0  0  0
   48.4764   31.3488   36.8770 H   0  0  0  0  0  0  0  0  0  0  0  0
   47.6903   34.0342   37.4365 H   0  0  0  0  0  0  0  0  0  0  0  0
   49.4029   34.1260   36.9575 H   0  0  0  0  0  0  0  0  0  0  0  0
   48.1774   34.1954   34.9977 H   0  0  0  0  0  0  0  0  0  0  0  0
   48.8346   32.5765   35.1427 H   0  0  0  0  0  0  0  0  0  0  0  0
   46.9589   34.3291   42.8473 H   0  0  0  0  0  0  0  0  0  0  0  0
   47.1251   35.9720   42.1980 H   0  0  0  0  0  0  0  0  0  0  0  0
   44.7378   36.1330   43.5701 H   0  0  0  0  0  0  0  0  0  0  0  0
   40.8768   36.7127   39.1602 H   0  0  0  0  0  0  0  0  0  0  0  0
   45.2942   36.1578   36.6284 O   0  0  0  0  0  0  0  0  0  0  0  0
   44.4082   35.4638   35.8428 C   0  0  2  0  0  0  0  0  0  0  0  0
   43.2887   34.7944   36.6405 C   0  0  1  0  0  0  0  0  0  0  0  0
   43.9320   33.7191   37.1988 O   0  0  0  0  0  0  0  0  0  0  0  0
   44.6799   33.1707   36.1856 C   0  0  0  0  0  0  0  0  0  0  0  0
   45.0621   34.2486   35.2156 C   0  0  2  0  0  0  0  0  0  0  0  0
   46.4293   34.4617   35.1129 O   0  0  0  0  0  0  0  0  0  0  0  0
   46.1842   36.1588   36.1999 H   0  0  0  0  0  0  0  0  0  0  0  0
   43.9996   36.0716   35.0110 H   0  0  0  0  0  0  0  0  0  0  0  0
   42.5015   34.5717   35.9203 H   0  0  0  0  0  0  0  0  0  0  0  0
   45.6343   32.7293   36.5544 H   0  0  0  0  0  0  0  0  0  0  0  0
   44.1579   32.3703   35.6392 H   0  0  0  0  0  0  0  0  0  0  0  0
   44.6848   34.0715   34.1748 H   0  0  0  0  0  0  0  0  0  0  0  0
   46.8217   34.1041   34.2780 H   0  0  0  0  0  0  0  0  0  0  0  0
  1  2  1  0
  1 12  1  0
  2  7  2  0
  3  4  2  0
  3  2  1  0
  4  5  1  0
  5  6  2  0
  7  6  1  0
  8  3  1  0
  9  8  1  0
 10  9  1  0
 11 10  1  0
 13 12  1  0
 13 14  2  0
 15 14  1  0
 16 17  2  0
 16 15  1  0
 17 13  1  0
 18 16  1  0
 19 20  2  0
 20 18  1  1
 20 21  1  0
 22 20  1  0
  1 23  1  0
  1 24  1  0
  4 25  1  0
  6 26  1  0
  9 27  1  0
  9 28  1  0
 10 29  1  0
 10 30  1  0
 11 31  1  0
 11 32  1  0
 12 33  1  0
 12 34  1  0
 14 35  1  0
 21 36  1  0
 37 38  1  0
 38 39  1  0
 39 40  1  0
 40 41  1  0
 41 42  1  0
 42 43  1  0
 42 38  1  0
 37 44  1  0
 38 45  1  6
 39 46  1  6
 41 47  1  0
 41 48  1  0
 42 49  1  6
 43 50  1  0
 22 39  1  0
M  ISO  8  23   8  24   8  25  14  26  14  27   8  28   8  29   8  30   8
M  ISO  6  31   5  32   5  33   8  34   8  35  14  36   3
M  END
>  <DihAtoms>  (1) 
19,21,38,37

>  <DihDeg>  (1) 
115.57518810645652

$$$$
