
 OpenBabel03252506443D

 42 45  0  0  1  0  0  0  0  0999 V2000
   49.5240   33.5160   41.3690 N   0  0  1  0  0  0  0  0  0  0  0  0
   50.7200   33.0890   42.0930 C   0  0  0  0  0  0  0  0  0  0  0  0
   51.2680   31.7790   41.6020 C   0  0  0  0  0  0  0  0  0  0  0  0
   50.2780   30.6790   41.9550 C   0  0  0  0  0  0  0  0  0  0  0  0
   48.8660   31.1780   41.8100 C   0  0  0  0  0  0  0  0  0  0  0  0
   48.8420   32.3500   40.8630 C   0  0  2  0  0  0  0  0  0  0  0  0
   50.5280   32.9770   43.1680 H   0  0  0  0  0  0  0  0  0  0  0  0
   51.4810   33.8870   41.9830 H   0  0  0  0  0  0  0  0  0  0  0  0
   51.4710   31.7830   40.5100 H   0  0  0  0  0  0  0  0  0  0  0  0
   52.2190   31.6190   42.1270 H   0  0  0  0  0  0  0  0  0  0  0  0
   50.4890   30.2600   42.9560 H   0  0  0  0  0  0  0  0  0  0  0  0
   50.4500   29.8470   41.2280 H   0  0  0  0  0  0  0  0  0  0  0  0
   48.1520   30.4340   41.4680 H   0  0  0  0  0  0  0  0  0  0  0  0
   48.5900   31.5800   42.8270 H   0  0  0  0  0  0  0  0  0  0  0  0
   47.7620   32.6340   40.7620 H   0  0  0  0  0  0  0  0  0  0  0  0
   47.3750   34.7870   41.9710 C   0  0  1  0  0  0  0  0  0  0  0  0
   48.4880   35.7170   41.8190 C   0  0  0  0  0  0  0  0  0  0  0  0
   48.7820   34.3210   42.2700 C   0  0  2  0  0  0  0  0  0  0  0  0
   46.9320   34.2070   41.1260 H   0  0  0  0  0  0  0  0  0  0  0  0
   48.7560   35.9820   40.7590 H   0  0  0  0  0  0  0  0  0  0  0  0
   48.5790   36.5600   42.5340 H   0  0  0  0  0  0  0  0  0  0  0  0
   48.9840   34.2000   43.3540 H   0  0  0  0  0  0  0  0  0  0  0  0
   45.5520   36.0460   43.1640 C   0  0  0  0  0  0  0  0  0  0  0  0
   46.4200   34.9300   43.0980 C   0  0  0  0  0  0  0  0  0  0  0  0
   46.3420   33.9900   44.1220 C   0  0  0  0  0  0  0  0  0  0  0  0
   45.4440   34.1990   45.1110 N   0  0  0  0  0  0  0  0  0  0  0  0
   44.6290   35.2600   45.1600 C   0  0  0  0  0  0  0  0  0  0  0  0
   44.6730   36.2030   44.1790 N   0  0  0  0  0  0  0  0  0  0  0  0
   45.6500   36.7470   42.3490 H   0  0  0  0  0  0  0  0  0  0  0  0
   46.9850   33.1190   44.1170 H   0  0  0  0  0  0  0  0  0  0  0  0
   43.9410   35.3330   46.0020 H   0  0  0  0  0  0  0  0  0  0  0  0
   49.2940   31.9620   39.5580 N   0  0  0  0  0  0  0  0  0  0  0  0
   50.2190   32.3600   39.3540 H   0  0  0  0  0  0  0  0  0  0  0  0
   48.9460   32.0140   37.1380 C   0  0  2  0  0  3  0  0  0  0  0  0
   48.3960   32.3880   38.5120 C   0  0  2  0  0  3  0  0  0  0  0  0
   48.2000   33.7410   38.4690 O   0  0  0  0  0  0  0  0  0  0  0  0
   48.1190   34.1790   37.1750 C   0  0  0  0  0  2  0  0  0  0  0  0
   48.1420   32.9650   36.2730 C   0  0  1  0  0  3  0  0  0  0  0  0
   48.6770   30.6850   36.8340 O   0  0  0  0  0  0  0  0  0  0  0  0
   47.7370   30.5100   37.1020 H   0  0  0  0  0  0  0  0  0  0  0  0
   48.8570   33.2820   35.0950 O   0  0  0  0  0  0  0  0  0  0  0  0
   48.6200   34.2000   34.8150 H   0  0  0  0  0  0  0  0  0  0  0  0
  1  2  1  1  0  0  0
  1 18  1  0  0  0  0
  2  7  1  0  0  0  0
  3  4  1  0  0  0  0
  3  2  1  0  0  0  0
  3 10  1  0  0  0  0
  4 11  1  0  0  0  0
  5  4  1  0  0  0  0
  5 14  1  0  0  0  0
  6 15  1  6  0  0  0
  6  1  1  0  0  0  0
  6  5  1  0  0  0  0
  8  2  1  0  0  0  0
  9  3  1  0  0  0  0
 12  4  1  0  0  0  0
 13  5  1  0  0  0  0
 16 19  1  6  0  0  0
 16 18  1  0  0  0  0
 16 24  1  0  0  0  0
 17 16  1  0  0  0  0
 17 18  1  0  0  0  0
 17 21  1  0  0  0  0
 18 22  1  1  0  0  0
 20 17  1  0  0  0  0
 23 28  1  0  0  0  0
 24 23  2  0  0  0  0
 24 25  1  0  0  0  0
 25 26  2  0  0  0  0
 26 27  1  0  0  0  0
 27 31  1  0  0  0  0
 28 27  2  0  0  0  0
 29 23  1  0  0  0  0
 30 25  1  0  0  0  0
 32  6  1  0  0  0  0
 33 32  1  0  0  0  0
 34 39  1  6  0  0  0
 34 35  1  0  0  0  0
 35 32  1  1  0  0  0
 36 35  1  0  0  0  0
 37 36  1  0  0  0  0
 38 41  1  6  0  0  0
 38 34  1  0  0  0  0
 38 37  1  0  0  0  0
 39 40  1  0  0  0  0
 42 41  1  0  0  0  0
M  END
>  <minimizedAffinity>
-5.64270258

>  <minimizedRMSD>
2.4004426

$$$$
