
 OpenBabel03252501033D

 31 33  0  0  1  0  0  0  0  0999 V2000
   47.9300   35.1330   41.6990 C   0  0  1  0  0  0  0  0  0  0  0  0
   48.9690   34.0750   41.6840 C   0  0  0  0  0  0  0  0  0  0  0  0
   47.9140   34.1630   40.5890 C   0  0  1  0  0  0  0  0  0  0  0  0
   48.2780   36.1820   41.5050 H   0  0  0  0  0  0  0  0  0  0  0  0
   50.0320   34.3300   41.4430 H   0  0  0  0  0  0  0  0  0  0  0  0
   48.8750   33.1160   42.2350 H   0  0  0  0  0  0  0  0  0  0  0  0
   48.3830   34.4260   39.6200 H   0  0  0  0  0  0  0  0  0  0  0  0
   45.9350   33.8310   44.6250 C   0  0  0  0  0  0  0  0  0  0  0  0
   46.9580   33.9290   43.6680 C   0  0  0  0  0  0  0  0  0  0  0  0
   46.8800   34.9770   42.7460 C   0  0  0  0  0  0  0  0  0  0  0  0
   45.8360   35.8480   42.8060 N   0  0  0  0  0  0  0  0  0  0  0  0
   44.8660   35.7260   43.7410 C   0  0  0  0  0  0  0  0  0  0  0  0
   44.9180   34.7140   44.6530 N   0  0  0  0  0  0  0  0  0  0  0  0
   45.9720   33.0300   45.3500 H   0  0  0  0  0  0  0  0  0  0  0  0
   47.7390   33.2130   43.6880 H   0  0  0  0  0  0  0  0  0  0  0  0
   44.0410   36.4250   43.7790 H   0  0  0  0  0  0  0  0  0  0  0  0
   46.8770   33.3140   40.5110 O   0  0  0  0  0  0  0  0  0  0  0  0
   46.1410   31.6060   38.6170 O   0  0  0  0  0  0  0  0  0  0  0  0
   46.1650   33.0520   39.0560 P   0  0  2  0  0  0  0  0  0  0  0  0
   46.8510   33.9230   37.7790 O   0  0  0  0  0  0  0  0  0  0  0  0
   47.8540   33.8820   37.8220 H   0  0  0  0  0  0  0  0  0  0  0  0
   44.5380   33.5110   39.1450 O   0  0  0  0  0  0  0  0  0  0  0  0
   43.3270   32.9020   41.0510 C   0  0  2  0  0  0  0  0  0  0  0  0
   44.1670   33.9840   40.3850 C   0  0  2  0  0  0  0  0  0  0  0  0
   43.1960   34.9610   40.1860 O   0  0  0  0  0  0  0  0  0  0  0  0
   42.0860   34.3210   39.6600 C   0  0  0  0  0  0  0  0  0  0  0  0
   42.1360   32.8800   40.1100 C   0  0  1  0  0  0  0  0  0  0  0  0
   42.9640   33.3970   42.3020 O   0  0  0  0  0  0  0  0  0  0  0  0
   42.6590   34.3300   42.1620 H   0  0  0  0  0  0  0  0  0  0  0  0
   42.4560   32.0000   39.0780 O   0  0  0  0  0  0  0  0  0  0  0  0
   42.4200   32.4300   38.1840 H   0  0  0  0  0  0  0  0  0  0  0  0
  1  4  1  6  0  0  0
  1 10  1  0  0  0  0
  2  1  1  0  0  0  0
  2  6  1  0  0  0  0
  3  7  1  6  0  0  0
  3  2  1  0  0  0  0
  3  1  1  0  0  0  0
  5  2  1  0  0  0  0
  8 13  1  0  0  0  0
  8 14  1  0  0  0  0
  9 15  1  0  0  0  0
  9  8  2  0  0  0  0
 10 11  2  0  0  0  0
 10  9  1  0  0  0  0
 11 12  1  0  0  0  0
 12 16  1  0  0  0  0
 12 13  2  0  0  0  0
 17  3  1  0  0  0  0
 19 18  2  6  0  0  0
 19 22  1  0  0  0  0
 19 17  1  0  0  0  0
 20 21  1  0  0  0  0
 20 19  1  0  0  0  0
 23 28  1  1  0  0  0
 24 22  1  6  0  0  0
 24 23  1  0  0  0  0
 25 24  1  0  0  0  0
 26 27  1  0  0  0  0
 26 25  1  0  0  0  0
 27 30  1  6  0  0  0
 27 23  1  0  0  0  0
 29 28  1  0  0  0  0
 31 30  1  0  0  0  0
M  END
>  <minimizedAffinity>
-4.7413106

>  <minimizedRMSD>
2.22328901

$$$$
