
     RDKit          3D

 47 50  0  0  0  0  0  0  0  0999 V2000
   49.3225   33.2190   41.4843 N   0  0  0  0  0  0  0  0  0  0  0  0
   50.6690   33.1264   42.0445 C   0  0  0  0  0  0  0  0  0  0  0  0
   51.3334   31.8075   41.7629 C   0  0  0  0  0  0  0  0  0  0  0  0
   50.5972   30.7231   42.5351 C   0  0  0  0  0  0  0  0  0  0  0  0
   49.1191   31.0040   42.5542 C   0  0  0  0  0  0  0  0  0  0  0  0
   48.7622   31.8930   41.3911 C   0  0  2  0  0  0  0  0  0  0  0  0
   47.1940   34.5580   42.0090 C   0  0  1  0  0  0  0  0  0  0  0  0
   48.2958   35.4602   41.6977 C   0  0  0  0  0  0  0  0  0  0  0  0
   48.6133   34.1311   42.3070 C   0  0  2  0  0  0  0  0  0  0  0  0
   45.5245   36.0350   43.1760 C   0  0  0  0  0  0  0  0  0  0  0  0
   46.2843   34.8413   43.1459 C   0  0  0  0  0  0  0  0  0  0  0  0
   46.1438   33.9597   44.2147 C   0  0  0  0  0  0  0  0  0  0  0  0
   45.2933   34.2984   45.2105 N   0  0  0  0  0  0  0  0  0  0  0  0
   44.5808   35.4312   45.2253 C   0  0  0  0  0  0  0  0  0  0  0  0
   44.6887   36.3198   44.2005 N   0  0  0  0  0  0  0  0  0  0  0  0
   49.0580   31.2492   40.1443 N   0  0  0  0  0  0  0  0  0  0  0  0
   50.6691   33.2629   43.1325 H   0  0  0  0  0  0  0  0  0  0  0  0
   51.2671   33.9552   41.6152 H   0  0  0  0  0  0  0  0  0  0  0  0
   51.3578   31.5651   40.6800 H   0  0  0  0  0  0  0  0  0  0  0  0
   52.3684   31.8946   42.1190 H   0  0  0  0  0  0  0  0  0  0  0  0
   51.0274   30.5927   43.5451 H   0  0  0  0  0  0  0  0  0  0  0  0
   50.7821   29.7617   41.9934 H   0  0  0  0  0  0  0  0  0  0  0  0
   48.4866   30.1196   42.5285 H   0  0  0  0  0  0  0  0  0  0  0  0
   48.9473   31.6114   43.4888 H   0  0  0  0  0  0  0  0  0  0  0  0
   47.6482   32.0161   41.4367 H   0  0  0  0  0  0  0  0  0  0  0  0
   46.7203   33.8781   41.2613 H   0  0  0  0  0  0  0  0  0  0  0  0
   48.5210   35.5910   40.6029 H   0  0  0  0  0  0  0  0  0  0  0  0
   48.4122   36.3853   42.2983 H   0  0  0  0  0  0  0  0  0  0  0  0
   48.8578   34.1450   43.3892 H   0  0  0  0  0  0  0  0  0  0  0  0
   45.6671   36.6860   42.3268 H   0  0  0  0  0  0  0  0  0  0  0  0
   46.7029   33.0335   44.2389 H   0  0  0  0  0  0  0  0  0  0  0  0
   43.9240   35.6070   46.0764 H   0  0  0  0  0  0  0  0  0  0  0  0
   48.8379   31.8633   39.3504 H   0  0  0  0  0  0  0  0  0  0  0  0
   47.1058   30.4156   37.9245 O   0  0  0  0  0  0  0  0  0  0  0  0
   46.9711   30.2913   39.3023 C   0  0  2  0  0  0  0  0  0  0  0  0
   48.3201   30.0227   39.9655 C   0  0  2  0  0  0  0  0  0  0  0  0
   48.0258   29.3802   41.1368 O   0  0  0  0  0  0  0  0  0  0  0  0
   46.7758   28.8238   41.0855 C   0  0  0  0  0  0  0  0  0  0  0  0
   46.2394   29.0204   39.6849 C   0  0  1  0  0  0  0  0  0  0  0  0
   44.8474   29.2572   39.7564 O   0  0  0  0  0  0  0  0  0  0  0  0
   47.7165   29.6931   37.6253 H   0  0  0  0  0  0  0  0  0  0  0  0
   46.5116   31.1464   39.7993 H   0  0  0  0  0  0  0  0  0  0  0  0
   48.8418   29.3068   39.2724 H   0  0  0  0  0  0  0  0  0  0  0  0
   46.1231   29.4482   41.7541 H   0  0  0  0  0  0  0  0  0  0  0  0
   46.7340   27.7818   41.4320 H   0  0  0  0  0  0  0  0  0  0  0  0
   46.4700   28.1808   38.9997 H   0  0  0  0  0  0  0  0  0  0  0  0
   44.4571   28.6608   40.4421 H   0  0  0  0  0  0  0  0  0  0  0  0
  1  2  1  0
  1  9  1  0
  3  2  1  0
  3  4  1  0
  5  4  1  0
  6  1  1  0
  6  5  1  0
  7  9  1  0
  7 11  1  0
  8  7  1  0
  8  9  1  0
 10 15  2  0
 11 10  1  0
 11 12  2  0
 12 13  1  0
 14 13  2  0
 15 14  1  0
 16  6  1  0
  2 17  1  0
  2 18  1  0
  3 19  1  0
  3 20  1  0
  4 21  1  0
  4 22  1  0
  5 23  1  0
  5 24  1  0
  6 25  1  6
  7 26  1  6
  8 27  1  0
  8 28  1  0
  9 29  1  1
 10 30  1  0
 12 31  1  0
 14 32  1  0
 16 33  1  0
 34 35  1  0
 35 36  1  0
 36 37  1  0
 37 38  1  0
 38 39  1  0
 39 40  1  0
 39 35  1  0
 34 41  1  0
 35 42  1  1
 36 43  1  6
 38 44  1  0
 38 45  1  0
 39 46  1  6
 40 47  1  0
 16 36  1  0
M  ISO  8  17  13  18  13  19  13  20  13  21  13  22  13  23  13  24  13
M  ISO  8  25  13  26  13  27  13  28  13  29  13  30  14  31  14  32  14
M  ISO  1  33   5
M  END
>  <DihAtoms>  (1) 
5,15,35,34

>  <DihDeg>  (1) 
178.64703283006904

$$$$
