
 OpenBabel03252506443D

 42 45  0  0  1  0  0  0  0  0999 V2000
   49.6720   33.6600   41.3640 N   0  0  1  0  0  0  0  0  0  0  0  0
   50.7020   33.0460   42.1990 C   0  0  0  0  0  0  0  0  0  0  0  0
   51.2040   31.7410   41.6490 C   0  0  0  0  0  0  0  0  0  0  0  0
   50.0810   30.7180   41.7340 C   0  0  0  0  0  0  0  0  0  0  0  0
   48.7560   31.3690   41.4470 C   0  0  0  0  0  0  0  0  0  0  0  0
   48.9770   32.6230   40.6410 C   0  0  2  0  0  0  0  0  0  0  0  0
   50.3410   32.8510   43.2170 H   0  0  0  0  0  0  0  0  0  0  0  0
   51.5360   33.7700   42.2870 H   0  0  0  0  0  0  0  0  0  0  0  0
   51.5700   31.8300   40.6050 H   0  0  0  0  0  0  0  0  0  0  0  0
   52.0470   31.4360   42.2830 H   0  0  0  0  0  0  0  0  0  0  0  0
   50.1010   30.1850   42.7030 H   0  0  0  0  0  0  0  0  0  0  0  0
   50.2900   29.9460   40.9520 H   0  0  0  0  0  0  0  0  0  0  0  0
   48.0410   30.7370   40.9260 H   0  0  0  0  0  0  0  0  0  0  0  0
   48.3640   31.6970   42.4520 H   0  0  0  0  0  0  0  0  0  0  0  0
   47.9530   33.0230   40.4190 H   0  0  0  0  0  0  0  0  0  0  0  0
   47.4380   34.8000   41.9180 C   0  0  1  0  0  0  0  0  0  0  0  0
   48.4830   35.7980   41.7300 C   0  0  0  0  0  0  0  0  0  0  0  0
   48.8730   34.4450   42.2340 C   0  0  2  0  0  0  0  0  0  0  0  0
   47.0380   34.1580   41.0970 H   0  0  0  0  0  0  0  0  0  0  0  0
   48.7340   36.0410   40.6600 H   0  0  0  0  0  0  0  0  0  0  0  0
   48.5130   36.6720   42.4110 H   0  0  0  0  0  0  0  0  0  0  0  0
   49.0800   34.3800   43.3220 H   0  0  0  0  0  0  0  0  0  0  0  0
   45.5840   36.0180   43.1050 C   0  0  0  0  0  0  0  0  0  0  0  0
   46.4730   34.9190   43.0390 C   0  0  0  0  0  0  0  0  0  0  0  0
   46.4050   33.9710   44.0570 C   0  0  0  0  0  0  0  0  0  0  0  0
   45.4960   34.1590   45.0420 N   0  0  0  0  0  0  0  0  0  0  0  0
   44.6610   35.2040   45.0900 C   0  0  0  0  0  0  0  0  0  0  0  0
   44.6950   36.1530   44.1160 N   0  0  0  0  0  0  0  0  0  0  0  0
   45.6740   36.7250   42.2950 H   0  0  0  0  0  0  0  0  0  0  0  0
   47.0640   33.1120   44.0520 H   0  0  0  0  0  0  0  0  0  0  0  0
   43.9670   35.2600   45.9280 H   0  0  0  0  0  0  0  0  0  0  0  0
   49.5870   32.3200   39.3780 N   0  0  0  0  0  0  0  0  0  0  0  0
   50.3380   32.9860   39.1620 H   0  0  0  0  0  0  0  0  0  0  0  0
   47.6670   33.5150   38.4480 C   0  0  2  0  0  3  0  0  0  0  0  0
   48.6450   32.3530   38.2860 C   0  0  2  0  0  3  0  0  0  0  0  0
   47.8650   31.2340   38.1960 O   0  0  0  0  0  0  0  0  0  0  0  0
   46.5860   31.5600   37.8320 C   0  0  0  0  0  2  0  0  0  0  0  0
   46.5540   33.0430   37.5330 C   0  0  1  0  0  3  0  0  0  0  0  0
   48.2270   34.7080   38.0060 O   0  0  0  0  0  0  0  0  0  0  0  0
   48.6910   34.5120   37.1520 H   0  0  0  0  0  0  0  0  0  0  0  0
   45.3120   33.5690   37.9580 O   0  0  0  0  0  0  0  0  0  0  0  0
   44.5980   32.9230   37.7330 H   0  0  0  0  0  0  0  0  0  0  0  0
  1  2  1  1  0  0  0
  1 18  1  0  0  0  0
  2  8  1  0  0  0  0
  2  7  1  0  0  0  0
  3  4  1  0  0  0  0
  3  2  1  0  0  0  0
  3 10  1  0  0  0  0
  4 11  1  0  0  0  0
  5  4  1  0  0  0  0
  5 14  1  0  0  0  0
  6 15  1  6  0  0  0
  6  1  1  0  0  0  0
  6  5  1  0  0  0  0
  9  3  1  0  0  0  0
 12  4  1  0  0  0  0
 13  5  1  0  0  0  0
 16 19  1  6  0  0  0
 16 18  1  0  0  0  0
 16 24  1  0  0  0  0
 17 16  1  0  0  0  0
 17 18  1  0  0  0  0
 17 21  1  0  0  0  0
 18 22  1  1  0  0  0
 20 17  1  0  0  0  0
 23 28  1  0  0  0  0
 24 23  2  0  0  0  0
 24 25  1  0  0  0  0
 25 26  2  0  0  0  0
 26 27  1  0  0  0  0
 27 31  1  0  0  0  0
 28 27  2  0  0  0  0
 29 23  1  0  0  0  0
 30 25  1  0  0  0  0
 32  6  1  0  0  0  0
 33 32  1  0  0  0  0
 34 39  1  6  0  0  0
 35 34  1  0  0  0  0
 35 32  1  1  0  0  0
 36 35  1  0  0  0  0
 37 36  1  0  0  0  0
 38 37  1  0  0  0  0
 38 41  1  1  0  0  0
 38 34  1  0  0  0  0
 40 39  1  0  0  0  0
 42 41  1  0  0  0  0
M  END
>  <minimizedAffinity>
-5.57508755

>  <minimizedRMSD>
3.05339289

$$$$
