
 OpenBabel03252506443D

 42 45  0  0  1  0  0  0  0  0999 V2000
   49.8310   33.5700   41.4260 N   0  0  1  0  0  0  0  0  0  0  0  0
   50.7150   32.8590   42.3470 C   0  0  0  0  0  0  0  0  0  0  0  0
   51.1900   31.5400   41.8070 C   0  0  0  0  0  0  0  0  0  0  0  0
   50.0000   30.5960   41.7240 C   0  0  0  0  0  0  0  0  0  0  0  0
   48.7620   31.3480   41.3140 C   0  0  0  0  0  0  0  0  0  0  0  0
   49.1570   32.6080   40.5880 C   0  0  2  0  0  0  0  0  0  0  0  0
   50.2260   32.6580   43.3090 H   0  0  0  0  0  0  0  0  0  0  0  0
   51.5800   33.5200   42.5570 H   0  0  0  0  0  0  0  0  0  0  0  0
   51.6790   31.6370   40.8150 H   0  0  0  0  0  0  0  0  0  0  0  0
   51.9330   31.1570   42.5190 H   0  0  0  0  0  0  0  0  0  0  0  0
   49.8730   30.0330   42.6670 H   0  0  0  0  0  0  0  0  0  0  0  0
   50.2460   29.8370   40.9400 H   0  0  0  0  0  0  0  0  0  0  0  0
   48.0730   30.7840   40.6910 H   0  0  0  0  0  0  0  0  0  0  0  0
   48.2800   31.6700   42.2810 H   0  0  0  0  0  0  0  0  0  0  0  0
   48.1940   33.0850   40.2680 H   0  0  0  0  0  0  0  0  0  0  0  0
   47.5480   34.6600   41.8730 C   0  0  1  0  0  0  0  0  0  0  0  0
   48.5590   35.6820   41.6300 C   0  0  0  0  0  0  0  0  0  0  0  0
   48.9900   34.3810   42.2300 C   0  0  2  0  0  0  0  0  0  0  0  0
   47.1850   33.9500   41.0910 H   0  0  0  0  0  0  0  0  0  0  0  0
   48.8170   35.8610   40.5500 H   0  0  0  0  0  0  0  0  0  0  0  0
   48.5460   36.6000   42.2510 H   0  0  0  0  0  0  0  0  0  0  0  0
   49.1830   34.3970   43.3230 H   0  0  0  0  0  0  0  0  0  0  0  0
   45.6730   35.9180   42.9810 C   0  0  0  0  0  0  0  0  0  0  0  0
   46.5620   34.8170   42.9700 C   0  0  0  0  0  0  0  0  0  0  0  0
   46.4750   33.9060   44.0190 C   0  0  0  0  0  0  0  0  0  0  0  0
   45.5480   34.1280   44.9790 N   0  0  0  0  0  0  0  0  0  0  0  0
   44.7130   35.1730   44.9760 C   0  0  0  0  0  0  0  0  0  0  0  0
   44.7650   36.0880   43.9690 N   0  0  0  0  0  0  0  0  0  0  0  0
   45.7780   36.5960   42.1490 H   0  0  0  0  0  0  0  0  0  0  0  0
   47.1340   33.0480   44.0560 H   0  0  0  0  0  0  0  0  0  0  0  0
   44.0030   35.2580   45.7980 H   0  0  0  0  0  0  0  0  0  0  0  0
   49.8870   32.3020   39.3920 N   0  0  0  0  0  0  0  0  0  0  0  0
   50.7110   32.9090   39.2970 H   0  0  0  0  0  0  0  0  0  0  0  0
   48.1460   33.6550   38.3320 C   0  0  2  0  0  3  0  0  0  0  0  0
   49.0900   32.4600   38.2010 C   0  0  2  0  0  3  0  0  0  0  0  0
   48.2820   31.3890   37.9330 O   0  0  0  0  0  0  0  0  0  0  0  0
   47.0710   31.8030   37.4430 C   0  0  0  0  0  2  0  0  0  0  0  0
   47.1370   33.3020   37.2580 C   0  0  1  0  0  3  0  0  0  0  0  0
   48.8050   34.8460   38.0530 O   0  0  0  0  0  0  0  0  0  0  0  0
   49.3630   34.6880   37.2470 H   0  0  0  0  0  0  0  0  0  0  0  0
   45.8740   33.8590   37.5690 O   0  0  0  0  0  0  0  0  0  0  0  0
   45.1680   33.2660   37.2110 H   0  0  0  0  0  0  0  0  0  0  0  0
  1 18  1  0  0  0  0
  1  2  1  1  0  0  0
  2  8  1  0  0  0  0
  2  7  1  0  0  0  0
  3  2  1  0  0  0  0
  3 10  1  0  0  0  0
  4  3  1  0  0  0  0
  4 11  1  0  0  0  0
  5  4  1  0  0  0  0
  5 14  1  0  0  0  0
  6 15  1  6  0  0  0
  6  5  1  0  0  0  0
  6  1  1  0  0  0  0
  9  3  1  0  0  0  0
 12  4  1  0  0  0  0
 13  5  1  0  0  0  0
 16 19  1  6  0  0  0
 16 18  1  0  0  0  0
 16 24  1  0  0  0  0
 17 16  1  0  0  0  0
 17 18  1  0  0  0  0
 17 21  1  0  0  0  0
 18 22  1  1  0  0  0
 20 17  1  0  0  0  0
 23 28  1  0  0  0  0
 24 23  2  0  0  0  0
 24 25  1  0  0  0  0
 25 30  1  0  0  0  0
 25 26  2  0  0  0  0
 27 26  1  0  0  0  0
 27 31  1  0  0  0  0
 28 27  2  0  0  0  0
 29 23  1  0  0  0  0
 32  6  1  0  0  0  0
 33 32  1  0  0  0  0
 34 39  1  6  0  0  0
 35 34  1  0  0  0  0
 35 32  1  1  0  0  0
 36 35  1  0  0  0  0
 37 36  1  0  0  0  0
 38 37  1  0  0  0  0
 38 41  1  1  0  0  0
 38 34  1  0  0  0  0
 40 39  1  0  0  0  0
 42 41  1  0  0  0  0
M  END
>  <minimizedAffinity>
-5.88540268

>  <minimizedRMSD>
2.78021169

$$$$
