
 OpenBabel03252500453D

 34 36  0  0  1  0  0  0  0  0999 V2000
   36.8150   28.1050   41.0130 C   0  0  1  0  0  0  0  0  0  0  0  0
   35.8320   29.2330   40.7260 C   0  0  0  0  0  0  0  0  0  0  0  0
   37.3150   29.4030   40.4700 C   0  0  1  0  0  0  0  0  0  0  0  0
   36.6680   27.2840   40.2630 H   0  0  0  0  0  0  0  0  0  0  0  0
   35.4080   29.7870   41.6060 H   0  0  0  0  0  0  0  0  0  0  0  0
   35.2220   29.2460   39.8260 H   0  0  0  0  0  0  0  0  0  0  0  0
   37.6690   29.4300   39.4240 H   0  0  0  0  0  0  0  0  0  0  0  0
   37.1120   27.8490   42.4350 C   0  0  0  0  0  0  0  0  0  0  0  0
   37.4580   28.7820   42.9670 H   0  0  0  0  0  0  0  0  0  0  0  0
   36.1790   27.5680   42.9960 H   0  0  0  0  0  0  0  0  0  0  0  0
   38.0750   26.7740   42.6880 C   0  0  0  0  0  0  0  0  0  0  0  0
   39.0980   27.1370   43.5240 C   0  0  0  0  0  0  0  0  0  0  0  0
   40.1070   26.2130   43.8540 C   0  0  0  0  0  0  0  0  0  0  0  0
   39.9790   24.9640   43.2870 N   0  0  0  0  0  0  0  0  0  0  0  0
   38.9620   24.6320   42.4680 C   0  0  0  0  0  0  0  0  0  0  0  0
   38.0290   25.5280   42.1780 N   0  0  0  0  0  0  0  0  0  0  0  0
   39.3620   28.0390   44.0610 H   0  0  0  0  0  0  0  0  0  0  0  0
   40.9690   26.3400   44.4880 H   0  0  0  0  0  0  0  0  0  0  0  0
   38.9020   23.6410   42.0470 H   0  0  0  0  0  0  0  0  0  0  0  0
   37.9930   30.2320   41.3390 O   0  0  0  0  0  0  0  0  0  0  0  0
   37.3340   32.6260   40.3500 O   0  0  0  0  0  0  0  0  0  0  0  0
   38.4780   31.6750   40.5900 P   0  0  1  0  0  0  0  0  0  0  0  0
   39.5420   32.4520   41.6940 O   0  0  0  0  0  0  0  0  0  0  0  0
   39.8410   33.3240   41.3320 H   0  0  0  0  0  0  0  0  0  0  0  0
   39.3260   31.3310   39.1770 O   0  0  0  0  0  0  0  0  0  0  0  0
   41.1340   32.1730   37.7920 C   0  0  2  0  0  3  0  0  0  0  0  0
   40.3820   32.1970   39.1080 C   0  0  1  0  0  3  0  0  0  0  0  0
   40.0160   33.5420   39.1610 O   0  0  0  0  0  0  0  0  0  0  0  0
   41.2130   34.2150   38.9520 C   0  0  0  0  0  2  0  0  0  0  0  0
   42.0120   33.3950   37.9740 C   0  0  2  0  0  3  0  0  0  0  0  0
   40.2940   32.4490   36.7160 O   0  0  0  0  0  0  0  0  0  0  0  0
   40.1800   33.4280   36.5750 H   0  0  0  0  0  0  0  0  0  0  0  0
   42.2270   34.0620   36.7750 O   0  0  0  0  0  0  0  0  0  0  0  0
   43.1360   34.4780   36.7710 H   0  0  0  0  0  0  0  0  0  0  0  0
  1  4  1  6  0  0  0
  1  8  1  0  0  0  0
  2  1  1  0  0  0  0
  2  5  1  0  0  0  0
  3  7  1  6  0  0  0
  3  2  1  0  0  0  0
  3  1  1  0  0  0  0
  3 20  1  0  0  0  0
  6  2  1  0  0  0  0
  8 11  1  0  0  0  0
  8  9  1  0  0  0  0
  8 10  1  0  0  0  0
 11 12  1  0  0  0  0
 12 13  2  0  0  0  0
 12 17  1  0  0  0  0
 13 18  1  0  0  0  0
 14 13  1  0  0  0  0
 15 14  2  0  0  0  0
 16 15  1  0  0  0  0
 16 11  2  0  0  0  0
 19 15  1  0  0  0  0
 22 21  2  6  0  0  0
 22 20  1  0  0  0  0
 22 23  1  0  0  0  0
 24 23  1  0  0  0  0
 25 22  1  0  0  0  0
 26 31  1  6  0  0  0
 26 30  1  0  0  0  0
 26 27  1  0  0  0  0
 27 28  1  0  0  0  0
 27 25  1  6  0  0  0
 29 28  1  0  0  0  0
 30 33  1  6  0  0  0
 30 29  1  0  0  0  0
 32 31  1  0  0  0  0
 34 33  1  0  0  0  0
M  END
>  <minimizedAffinity>
-6.05224133

$$$$

 OpenBabel03252500453D

 34 36  0  0  1  0  0  0  0  0999 V2000
   37.2590   26.9230   42.6640 C   0  0  1  0  0  0  0  0  0  0  0  0
   37.6820   28.1980   43.3820 C   0  0  0  0  0  0  0  0  0  0  0  0
   36.6580   28.2310   42.2670 C   0  0  1  0  0  0  0  0  0  0  0  0
   36.6440   26.2920   43.3590 H   0  0  0  0  0  0  0  0  0  0  0  0
   38.6970   28.6150   43.1430 H   0  0  0  0  0  0  0  0  0  0  0  0
   37.2840   28.4650   44.3580 H   0  0  0  0  0  0  0  0  0  0  0  0
   35.6020   28.4220   42.5280 H   0  0  0  0  0  0  0  0  0  0  0  0
   38.2390   26.3550   41.7190 C   0  0  0  0  0  0  0  0  0  0  0  0
   38.5040   27.0850   40.9000 H   0  0  0  0  0  0  0  0  0  0  0  0
   39.2250   26.1710   42.2250 H   0  0  0  0  0  0  0  0  0  0  0  0
   37.8520   25.0790   41.1110 C   0  0  0  0  0  0  0  0  0  0  0  0
   36.6910   25.1440   40.3880 C   0  0  0  0  0  0  0  0  0  0  0  0
   36.1870   23.9940   39.7510 C   0  0  0  0  0  0  0  0  0  0  0  0
   36.9350   22.8490   39.9110 N   0  0  0  0  0  0  0  0  0  0  0  0
   38.0760   22.8120   40.6270 C   0  0  0  0  0  0  0  0  0  0  0  0
   38.5210   23.9140   41.2140 N   0  0  0  0  0  0  0  0  0  0  0  0
   35.9850   25.9270   40.1440 H   0  0  0  0  0  0  0  0  0  0  0  0
   35.2970   23.8780   39.1530 H   0  0  0  0  0  0  0  0  0  0  0  0
   38.6290   21.8920   40.7250 H   0  0  0  0  0  0  0  0  0  0  0  0
   37.0750   28.7810   41.0720 O   0  0  0  0  0  0  0  0  0  0  0  0
   34.5070   29.0000   40.3640 O   0  0  0  0  0  0  0  0  0  0  0  0
   35.8480   29.6870   40.3300 P   0  0  1  0  0  0  0  0  0  0  0  0
   35.6890   31.1260   41.2580 O   0  0  0  0  0  0  0  0  0  0  0  0
   34.9620   31.6930   40.8970 H   0  0  0  0  0  0  0  0  0  0  0  0
   36.3090   30.1040   38.7650 O   0  0  0  0  0  0  0  0  0  0  0  0
   38.3320   30.6880   37.5570 C   0  0  2  0  0  3  0  0  0  0  0  0
   37.5320   30.7120   38.8440 C   0  0  1  0  0  3  0  0  0  0  0  0
   37.4680   32.0860   39.0720 O   0  0  0  0  0  0  0  0  0  0  0  0
   38.7930   32.4930   38.9890 C   0  0  0  0  0  2  0  0  0  0  0  0
   39.4460   31.6470   37.9280 C   0  0  2  0  0  3  0  0  0  0  0  0
   37.6350   31.2830   36.5080 O   0  0  0  0  0  0  0  0  0  0  0  0
   37.7470   32.2720   36.5000 H   0  0  0  0  0  0  0  0  0  0  0  0
   39.8690   32.3970   36.8380 O   0  0  0  0  0  0  0  0  0  0  0  0
   40.8460   32.5950   36.9150 H   0  0  0  0  0  0  0  0  0  0  0  0
  1  4  1  1  0  0  0
  1  2  1  0  0  0  0
  2  6  1  0  0  0  0
  3  7  1  1  0  0  0
  3  1  1  0  0  0  0
  3  2  1  0  0  0  0
  5  2  1  0  0  0  0
  8 10  1  0  0  0  0
  8  1  1  0  0  0  0
  9  8  1  0  0  0  0
 11 16  1  0  0  0  0
 11  8  1  0  0  0  0
 12 11  2  0  0  0  0
 13 14  2  0  0  0  0
 13 12  1  0  0  0  0
 14 15  1  0  0  0  0
 15 19  1  0  0  0  0
 15 16  2  0  0  0  0
 17 12  1  0  0  0  0
 18 13  1  0  0  0  0
 20  3  1  0  0  0  0
 22 21  2  6  0  0  0
 22 20  1  0  0  0  0
 22 23  1  0  0  0  0
 24 23  1  0  0  0  0
 25 22  1  0  0  0  0
 26 31  1  6  0  0  0
 26 30  1  0  0  0  0
 26 27  1  0  0  0  0
 27 25  1  6  0  0  0
 27 28  1  0  0  0  0
 29 28  1  0  0  0  0
 30 33  1  6  0  0  0
 30 29  1  0  0  0  0
 32 31  1  0  0  0  0
 33 34  1  0  0  0  0
M  END
>  <minimizedAffinity>
-5.80841494

$$$$

 OpenBabel03252500453D

 34 36  0  0  1  0  0  0  0  0999 V2000
   35.8390   30.1950   40.2630 C   0  0  1  0  0  0  0  0  0  0  0  0
   35.0190   28.9760   39.8620 C   0  0  0  0  0  0  0  0  0  0  0  0
   35.7970   29.0050   41.1620 C   0  0  1  0  0  0  0  0  0  0  0  0
   35.1460   31.0370   40.5310 H   0  0  0  0  0  0  0  0  0  0  0  0
   35.4290   28.3200   39.0480 H   0  0  0  0  0  0  0  0  0  0  0  0
   33.9400   28.9430   39.9920 H   0  0  0  0  0  0  0  0  0  0  0  0
   35.2340   29.0840   42.1100 H   0  0  0  0  0  0  0  0  0  0  0  0
   37.1010   30.3990   39.5280 C   0  0  0  0  0  0  0  0  0  0  0  0
   37.7410   29.4690   39.5260 H   0  0  0  0  0  0  0  0  0  0  0  0
   36.9070   30.5760   38.4360 H   0  0  0  0  0  0  0  0  0  0  0  0
   37.9130   31.5310   39.9830 C   0  0  0  0  0  0  0  0  0  0  0  0
   37.3980   32.7520   39.6390 C   0  0  0  0  0  0  0  0  0  0  0  0
   38.0720   33.9340   39.9990 C   0  0  0  0  0  0  0  0  0  0  0  0
   39.2450   33.7600   40.7000 N   0  0  0  0  0  0  0  0  0  0  0  0
   39.7310   32.5470   41.0280 C   0  0  0  0  0  0  0  0  0  0  0  0
   39.0690   31.4550   40.6720 N   0  0  0  0  0  0  0  0  0  0  0  0
   36.5130   33.0870   39.1130 H   0  0  0  0  0  0  0  0  0  0  0  0
   37.8030   34.9600   39.8060 H   0  0  0  0  0  0  0  0  0  0  0  0
   40.6540   32.4590   41.5780 H   0  0  0  0  0  0  0  0  0  0  0  0
   36.9250   28.2130   41.2160 O   0  0  0  0  0  0  0  0  0  0  0  0
   38.0560   29.1760   43.4380 O   0  0  0  0  0  0  0  0  0  0  0  0
   37.4410   27.9510   42.8110 P   0  0  1  0  0  0  0  0  0  0  0  0
   36.0250   27.5900   43.7170 O   0  0  0  0  0  0  0  0  0  0  0  0
   36.2500   27.4570   44.6720 H   0  0  0  0  0  0  0  0  0  0  0  0
   38.4720   26.6220   42.8690 O   0  0  0  0  0  0  0  0  0  0  0  0
   38.9530   24.5290   41.7350 C   0  0  2  0  0  3  0  0  0  0  0  0
   38.0390   25.7230   41.9330 C   0  0  1  0  0  3  0  0  0  0  0  0
   36.8530   25.0740   42.2760 O   0  0  0  0  0  0  0  0  0  0  0  0
   36.6840   24.1440   41.2590 C   0  0  0  0  0  2  0  0  0  0  0  0
   38.0570   23.6600   40.8740 C   0  0  2  0  0  3  0  0  0  0  0  0
   39.1520   23.8330   42.9240 O   0  0  0  0  0  0  0  0  0  0  0  0
   38.4200   23.1800   43.1000 H   0  0  0  0  0  0  0  0  0  0  0  0
   38.2370   22.3080   41.1410 O   0  0  0  0  0  0  0  0  0  0  0  0
   38.0980   21.7720   40.3090 H   0  0  0  0  0  0  0  0  0  0  0  0
  1  4  1  1  0  0  0
  1  3  1  0  0  0  0
  2  6  1  0  0  0  0
  2  1  1  0  0  0  0
  2  3  1  0  0  0  0
  3 20  1  0  0  0  0
  3  7  1  1  0  0  0
  5  2  1  0  0  0  0
  8 11  1  0  0  0  0
  8  1  1  0  0  0  0
  9  8  1  0  0  0  0
 10  8  1  0  0  0  0
 11 16  1  0  0  0  0
 12 11  2  0  0  0  0
 12 13  1  0  0  0  0
 13 14  2  0  0  0  0
 14 15  1  0  0  0  0
 15 19  1  0  0  0  0
 16 15  2  0  0  0  0
 17 12  1  0  0  0  0
 18 13  1  0  0  0  0
 20 22  1  0  0  0  0
 22 25  1  0  0  0  0
 22 21  2  1  0  0  0
 22 23  1  0  0  0  0
 23 24  1  0  0  0  0
 26 27  1  0  0  0  0
 26 31  1  1  0  0  0
 27 28  1  0  0  0  0
 27 25  1  1  0  0  0
 29 28  1  0  0  0  0
 30 33  1  1  0  0  0
 30 29  1  0  0  0  0
 30 26  1  0  0  0  0
 31 32  1  0  0  0  0
 34 33  1  0  0  0  0
M  END
>  <minimizedAffinity>
-5.75530481

$$$$

 OpenBabel03252500453D

 34 36  0  0  1  0  0  0  0  0999 V2000
   37.5950   26.9650   42.8650 C   0  0  1  0  0  0  0  0  0  0  0  0
   36.2250   27.5530   43.1790 C   0  0  0  0  0  0  0  0  0  0  0  0
   36.8720   27.7550   41.8240 C   0  0  1  0  0  0  0  0  0  0  0  0
   37.5100   25.8490   42.7800 H   0  0  0  0  0  0  0  0  0  0  0  0
   36.1880   28.4480   43.8550 H   0  0  0  0  0  0  0  0  0  0  0  0
   35.3220   26.9470   43.1530 H   0  0  0  0  0  0  0  0  0  0  0  0
   36.4540   27.2160   40.9550 H   0  0  0  0  0  0  0  0  0  0  0  0
   38.7480   27.6360   43.4930 C   0  0  0  0  0  0  0  0  0  0  0  0
   38.9160   28.6690   43.0680 H   0  0  0  0  0  0  0  0  0  0  0  0
   38.5530   27.8380   44.5810 H   0  0  0  0  0  0  0  0  0  0  0  0
   40.0090   26.8920   43.4390 C   0  0  0  0  0  0  0  0  0  0  0  0
   39.8870   25.6390   42.9010 C   0  0  0  0  0  0  0  0  0  0  0  0
   41.0120   24.8000   42.7910 C   0  0  0  0  0  0  0  0  0  0  0  0
   42.1960   25.3300   43.2530 N   0  0  0  0  0  0  0  0  0  0  0  0
   42.2910   26.5670   43.7790 C   0  0  0  0  0  0  0  0  0  0  0  0
   41.2100   27.3300   43.8660 N   0  0  0  0  0  0  0  0  0  0  0  0
   39.0700   25.0620   42.4860 H   0  0  0  0  0  0  0  0  0  0  0  0
   41.0830   23.7990   42.3970 H   0  0  0  0  0  0  0  0  0  0  0  0
   43.2400   26.9410   44.1280 H   0  0  0  0  0  0  0  0  0  0  0  0
   37.3410   29.0240   41.5560 O   0  0  0  0  0  0  0  0  0  0  0  0
   35.1340   29.0570   40.0500 O   0  0  0  0  0  0  0  0  0  0  0  0
   36.2830   29.8920   40.5540 P   0  0  1  0  0  0  0  0  0  0  0  0
   35.6020   31.1290   41.5350 O   0  0  0  0  0  0  0  0  0  0  0  0
   34.9440   31.6590   41.0180 H   0  0  0  0  0  0  0  0  0  0  0  0
   37.1430   30.6130   39.2980 O   0  0  0  0  0  0  0  0  0  0  0  0
   39.1590   31.9630   39.2080 C   0  0  2  0  0  3  0  0  0  0  0  0
   37.7950   31.6980   39.8150 C   0  0  1  0  0  3  0  0  0  0  0  0
   37.1650   32.9150   39.5540 O   0  0  0  0  0  0  0  0  0  0  0  0
   38.0550   33.8570   40.0550 C   0  0  0  0  0  2  0  0  0  0  0  0
   39.4420   33.3310   39.7980 C   0  0  2  0  0  3  0  0  0  0  0  0
   39.0810   32.1390   37.8290 O   0  0  0  0  0  0  0  0  0  0  0  0
   38.8460   33.0750   37.5860 H   0  0  0  0  0  0  0  0  0  0  0  0
   40.1600   34.1340   38.9210 O   0  0  0  0  0  0  0  0  0  0  0  0
   40.7660   34.7440   39.4320 H   0  0  0  0  0  0  0  0  0  0  0  0
  1  4  1  6  0  0  0
  1  2  1  0  0  0  0
  1  8  1  0  0  0  0
  2  5  1  0  0  0  0
  3  7  1  6  0  0  0
  3  1  1  0  0  0  0
  3  2  1  0  0  0  0
  6  2  1  0  0  0  0
  8 10  1  0  0  0  0
  9  8  1  0  0  0  0
 11  8  1  0  0  0  0
 11 16  1  0  0  0  0
 12 11  2  0  0  0  0
 13 12  1  0  0  0  0
 13 14  2  0  0  0  0
 14 15  1  0  0  0  0
 15 16  2  0  0  0  0
 15 19  1  0  0  0  0
 17 12  1  0  0  0  0
 18 13  1  0  0  0  0
 20  3  1  0  0  0  0
 22 21  2  6  0  0  0
 22 23  1  0  0  0  0
 22 20  1  0  0  0  0
 24 23  1  0  0  0  0
 25 22  1  0  0  0  0
 26 31  1  6  0  0  0
 26 30  1  0  0  0  0
 26 27  1  0  0  0  0
 27 25  1  6  0  0  0
 28 27  1  0  0  0  0
 28 29  1  0  0  0  0
 30 33  1  6  0  0  0
 30 29  1  0  0  0  0
 32 31  1  0  0  0  0
 33 34  1  0  0  0  0
M  END
>  <minimizedAffinity>
-5.72327852

$$$$

 OpenBabel03252500453D

 34 36  0  0  1  0  0  0  0  0999 V2000
   37.8870   26.4040   40.4090 C   0  0  1  0  0  0  0  0  0  0  0  0
   36.5090   26.4640   39.7640 C   0  0  0  0  0  0  0  0  0  0  0  0
   37.3590   27.7090   39.9130 C   0  0  1  0  0  0  0  0  0  0  0  0
   38.5960   25.8690   39.7220 H   0  0  0  0  0  0  0  0  0  0  0  0
   35.6160   26.3830   40.4400 H   0  0  0  0  0  0  0  0  0  0  0  0
   36.3450   26.1600   38.7330 H   0  0  0  0  0  0  0  0  0  0  0  0
   37.8140   28.1470   39.0060 H   0  0  0  0  0  0  0  0  0  0  0  0
   37.9120   26.2380   41.8740 C   0  0  0  0  0  0  0  0  0  0  0  0
   37.3450   27.0600   42.4000 H   0  0  0  0  0  0  0  0  0  0  0  0
   37.3570   25.3100   42.1830 H   0  0  0  0  0  0  0  0  0  0  0  0
   39.2470   26.1270   42.4680 C   0  0  0  0  0  0  0  0  0  0  0  0
   39.6500   27.2550   43.1310 C   0  0  0  0  0  0  0  0  0  0  0  0
   40.9140   27.3030   43.7470 C   0  0  0  0  0  0  0  0  0  0  0  0
   41.6770   26.1630   43.6300 N   0  0  0  0  0  0  0  0  0  0  0  0
   41.2570   25.0640   42.9720 C   0  0  0  0  0  0  0  0  0  0  0  0
   40.0600   25.0540   42.4030 N   0  0  0  0  0  0  0  0  0  0  0  0
   39.2050   28.2210   43.3360 H   0  0  0  0  0  0  0  0  0  0  0  0
   41.3750   28.1060   44.3000 H   0  0  0  0  0  0  0  0  0  0  0  0
   41.8890   24.1930   42.9060 H   0  0  0  0  0  0  0  0  0  0  0  0
   36.9420   28.6220   40.8590 O   0  0  0  0  0  0  0  0  0  0  0  0
   34.6750   29.3320   39.6340 O   0  0  0  0  0  0  0  0  0  0  0  0
   35.9830   29.8460   40.1800 P   0  0  1  0  0  0  0  0  0  0  0  0
   35.5950   30.9180   41.4660 O   0  0  0  0  0  0  0  0  0  0  0  0
   35.0040   31.6450   41.1450 H   0  0  0  0  0  0  0  0  0  0  0  0
   36.8660   30.6910   39.0220 O   0  0  0  0  0  0  0  0  0  0  0  0
   37.9630   32.7670   39.6410 C   0  0  2  0  0  3  0  0  0  0  0  0
   37.9430   31.2520   39.6530 C   0  0  1  0  0  3  0  0  0  0  0  0
   37.9810   31.0130   41.0270 O   0  0  0  0  0  0  0  0  0  0  0  0
   39.0660   31.7660   41.4590 C   0  0  0  0  0  2  0  0  0  0  0  0
   39.0910   33.0180   40.6220 C   0  0  2  0  0  3  0  0  0  0  0  0
   36.8140   33.3000   40.2200 O   0  0  0  0  0  0  0  0  0  0  0  0
   36.8880   33.3570   41.2110 H   0  0  0  0  0  0  0  0  0  0  0  0
   38.8760   34.1640   41.3770 O   0  0  0  0  0  0  0  0  0  0  0  0
   39.7490   34.6020   41.5930 H   0  0  0  0  0  0  0  0  0  0  0  0
  1  4  1  6  0  0  0
  1  8  1  0  0  0  0
  2  3  1  0  0  0  0
  2  1  1  0  0  0  0
  2  5  1  0  0  0  0
  3  7  1  6  0  0  0
  3  1  1  0  0  0  0
  3 20  1  0  0  0  0
  6  2  1  0  0  0  0
  8 10  1  0  0  0  0
  8  9  1  0  0  0  0
  8 11  1  0  0  0  0
 11 12  1  0  0  0  0
 12 17  1  0  0  0  0
 12 13  2  0  0  0  0
 13 18  1  0  0  0  0
 14 13  1  0  0  0  0
 15 14  2  0  0  0  0
 16 11  2  0  0  0  0
 16 15  1  0  0  0  0
 19 15  1  0  0  0  0
 22 21  2  6  0  0  0
 22 20  1  0  0  0  0
 22 23  1  0  0  0  0
 24 23  1  0  0  0  0
 25 22  1  0  0  0  0
 26 27  1  0  0  0  0
 26 31  1  1  0  0  0
 26 30  1  0  0  0  0
 27 25  1  1  0  0  0
 27 28  1  0  0  0  0
 28 29  1  0  0  0  0
 30 33  1  1  0  0  0
 30 29  1  0  0  0  0
 31 32  1  0  0  0  0
 33 34  1  0  0  0  0
M  END
>  <minimizedAffinity>
-5.70403004

$$$$

 OpenBabel03252500453D

 34 36  0  0  1  0  0  0  0  0999 V2000
   37.6040   26.9200   42.9560 C   0  0  1  0  0  0  0  0  0  0  0  0
   36.2330   27.5030   43.2740 C   0  0  0  0  0  0  0  0  0  0  0  0
   36.8500   27.6580   41.8990 C   0  0  1  0  0  0  0  0  0  0  0  0
   37.5320   25.8010   42.9180 H   0  0  0  0  0  0  0  0  0  0  0  0
   36.1970   28.4250   43.9140 H   0  0  0  0  0  0  0  0  0  0  0  0
   35.3380   26.8860   43.2910 H   0  0  0  0  0  0  0  0  0  0  0  0
   36.4220   27.0780   41.0620 H   0  0  0  0  0  0  0  0  0  0  0  0
   38.7600   27.6310   43.5320 C   0  0  0  0  0  0  0  0  0  0  0  0
   38.9000   28.6510   43.0690 H   0  0  0  0  0  0  0  0  0  0  0  0
   38.5880   27.8670   44.6170 H   0  0  0  0  0  0  0  0  0  0  0  0
   40.0320   26.9050   43.4730 C   0  0  0  0  0  0  0  0  0  0  0  0
   39.9200   25.6380   42.9670 C   0  0  0  0  0  0  0  0  0  0  0  0
   41.0560   24.8150   42.8560 C   0  0  0  0  0  0  0  0  0  0  0  0
   42.2400   25.3740   43.2830 N   0  0  0  0  0  0  0  0  0  0  0  0
   42.3240   26.6250   43.7780 C   0  0  0  0  0  0  0  0  0  0  0  0
   41.2330   27.3720   43.8670 N   0  0  0  0  0  0  0  0  0  0  0  0
   39.1050   25.0390   42.5820 H   0  0  0  0  0  0  0  0  0  0  0  0
   41.1360   23.8060   42.4850 H   0  0  0  0  0  0  0  0  0  0  0  0
   43.2740   27.0220   44.1000 H   0  0  0  0  0  0  0  0  0  0  0  0
   37.2970   28.9210   41.5700 O   0  0  0  0  0  0  0  0  0  0  0  0
   35.0250   28.8830   40.1620 O   0  0  0  0  0  0  0  0  0  0  0  0
   36.2170   29.7250   40.5370 P   0  0  1  0  0  0  0  0  0  0  0  0
   35.6140   31.0660   41.4290 O   0  0  0  0  0  0  0  0  0  0  0  0
   34.9480   31.5660   40.8930 H   0  0  0  0  0  0  0  0  0  0  0  0
   37.0380   30.3020   39.1860 O   0  0  0  0  0  0  0  0  0  0  0  0
   36.6920   29.6580   36.8710 C   0  0  2  0  0  3  0  0  0  0  0  0
   37.1080   29.2810   38.2780 C   0  0  1  0  0  3  0  0  0  0  0  0
   38.4040   28.8230   38.0410 O   0  0  0  0  0  0  0  0  0  0  0  0
   38.2400   27.8970   37.0190 C   0  0  0  0  0  2  0  0  0  0  0  0
   37.1440   28.4160   36.1270 C   0  0  2  0  0  3  0  0  0  0  0  0
   37.4550   30.7120   36.3750 O   0  0  0  0  0  0  0  0  0  0  0  0
   38.3140   30.3980   35.9820 H   0  0  0  0  0  0  0  0  0  0  0  0
   37.5970   28.7150   34.8480 O   0  0  0  0  0  0  0  0  0  0  0  0
   37.3910   27.9600   34.2260 H   0  0  0  0  0  0  0  0  0  0  0  0
  1  4  1  6  0  0  0
  1  2  1  0  0  0  0
  1  8  1  0  0  0  0
  2  6  1  0  0  0  0
  2  5  1  0  0  0  0
  3  7  1  6  0  0  0
  3  1  1  0  0  0  0
  3  2  1  0  0  0  0
  8 10  1  0  0  0  0
  9  8  1  0  0  0  0
 11  8  1  0  0  0  0
 11 16  1  0  0  0  0
 12 11  2  0  0  0  0
 13 12  1  0  0  0  0
 13 14  2  0  0  0  0
 14 15  1  0  0  0  0
 15 16  2  0  0  0  0
 15 19  1  0  0  0  0
 17 12  1  0  0  0  0
 18 13  1  0  0  0  0
 20  3  1  0  0  0  0
 22 21  2  6  0  0  0
 22 23  1  0  0  0  0
 22 20  1  0  0  0  0
 24 23  1  0  0  0  0
 25 22  1  0  0  0  0
 26 31  1  6  0  0  0
 26 27  1  0  0  0  0
 27 25  1  1  0  0  0
 28 27  1  0  0  0  0
 29 28  1  0  0  0  0
 30 33  1  6  0  0  0
 30 26  1  0  0  0  0
 30 29  1  0  0  0  0
 32 31  1  0  0  0  0
 34 33  1  0  0  0  0
M  END
>  <minimizedAffinity>
-5.56629705

$$$$

 OpenBabel03252500453D

 34 36  0  0  1  0  0  0  0  0999 V2000
   36.6430   28.5770   41.7220 C   0  0  1  0  0  0  0  0  0  0  0  0
   37.5170   28.3750   42.9530 C   0  0  0  0  0  0  0  0  0  0  0  0
   37.5720   29.6610   42.1550 C   0  0  1  0  0  0  0  0  0  0  0  0
   35.5730   28.6920   42.0410 H   0  0  0  0  0  0  0  0  0  0  0  0
   38.3980   27.6860   42.8540 H   0  0  0  0  0  0  0  0  0  0  0  0
   37.1250   28.4940   43.9600 H   0  0  0  0  0  0  0  0  0  0  0  0
   37.1400   30.5750   42.6000 H   0  0  0  0  0  0  0  0  0  0  0  0
   37.0430   27.8340   40.5120 C   0  0  0  0  0  0  0  0  0  0  0  0
   38.1640   27.8040   40.3900 H   0  0  0  0  0  0  0  0  0  0  0  0
   36.7670   26.7480   40.5970 H   0  0  0  0  0  0  0  0  0  0  0  0
   36.4430   28.3080   39.2620 C   0  0  0  0  0  0  0  0  0  0  0  0
   37.3500   28.4980   38.2530 C   0  0  0  0  0  0  0  0  0  0  0  0
   36.9240   28.9590   36.9930 C   0  0  0  0  0  0  0  0  0  0  0  0
   35.5720   29.1910   36.8700 N   0  0  0  0  0  0  0  0  0  0  0  0
   34.6990   28.9960   37.8790 C   0  0  0  0  0  0  0  0  0  0  0  0
   35.1360   28.5600   39.0520 N   0  0  0  0  0  0  0  0  0  0  0  0
   38.4190   28.3670   38.1530 H   0  0  0  0  0  0  0  0  0  0  0  0
   37.5030   29.1580   36.1070 H   0  0  0  0  0  0  0  0  0  0  0  0
   33.6480   29.1910   37.7370 H   0  0  0  0  0  0  0  0  0  0  0  0
   38.7080   29.8600   41.3970 O   0  0  0  0  0  0  0  0  0  0  0  0
   37.4080   32.1050   40.7550 O   0  0  0  0  0  0  0  0  0  0  0  0
   38.7430   31.4080   40.7020 P   0  0  1  0  0  0  0  0  0  0  0  0
   39.8240   32.3370   41.6630 O   0  0  0  0  0  0  0  0  0  0  0  0
   39.8690   33.2690   41.3310 H   0  0  0  0  0  0  0  0  0  0  0  0
   39.3540   31.3200   39.1360 O   0  0  0  0  0  0  0  0  0  0  0  0
   41.1280   32.1820   37.7200 C   0  0  2  0  0  3  0  0  0  0  0  0
   40.4290   32.1630   39.0650 C   0  0  1  0  0  3  0  0  0  0  0  0
   40.0990   33.5130   39.1930 O   0  0  0  0  0  0  0  0  0  0  0  0
   41.3050   34.1650   38.9670 C   0  0  0  0  0  2  0  0  0  0  0  0
   42.0440   33.3730   37.9230 C   0  0  2  0  0  3  0  0  0  0  0  0
   40.2550   32.5280   36.6920 O   0  0  0  0  0  0  0  0  0  0  0  0
   40.1610   33.5150   36.6000 H   0  0  0  0  0  0  0  0  0  0  0  0
   42.2290   34.0890   36.7470 O   0  0  0  0  0  0  0  0  0  0  0  0
   43.1480   34.4830   36.7260 H   0  0  0  0  0  0  0  0  0  0  0  0
  1  4  1  1  0  0  0
  1  3  1  0  0  0  0
  1  2  1  0  0  0  0
  2  6  1  0  0  0  0
  3  7  1  1  0  0  0
  3  2  1  0  0  0  0
  5  2  1  0  0  0  0
  8 10  1  0  0  0  0
  8  1  1  0  0  0  0
  9  8  1  0  0  0  0
 11  8  1  0  0  0  0
 12 11  2  0  0  0  0
 13 12  1  0  0  0  0
 14 13  2  0  0  0  0
 14 15  1  0  0  0  0
 15 16  2  0  0  0  0
 16 11  1  0  0  0  0
 17 12  1  0  0  0  0
 18 13  1  0  0  0  0
 19 15  1  0  0  0  0
 20  3  1  0  0  0  0
 22 21  2  1  0  0  0
 22 20  1  0  0  0  0
 22 23  1  0  0  0  0
 24 23  1  0  0  0  0
 25 22  1  0  0  0  0
 26 31  1  6  0  0  0
 26 30  1  0  0  0  0
 26 27  1  0  0  0  0
 27 25  1  6  0  0  0
 27 28  1  0  0  0  0
 29 28  1  0  0  0  0
 30 33  1  6  0  0  0
 30 29  1  0  0  0  0
 32 31  1  0  0  0  0
 34 33  1  0  0  0  0
M  END
>  <minimizedAffinity>
-5.40587234

$$$$

 OpenBabel03252500453D

 34 36  0  0  1  0  0  0  0  0999 V2000
   37.6610   24.2950   41.0650 C   0  0  1  0  0  0  0  0  0  0  0  0
   36.7580   23.4020   40.2250 C   0  0  0  0  0  0  0  0  0  0  0  0
   37.2150   24.7530   39.7160 C   0  0  1  0  0  0  0  0  0  0  0  0
   38.6870   23.8440   41.1150 H   0  0  0  0  0  0  0  0  0  0  0  0
   35.6800   23.3200   40.5310 H   0  0  0  0  0  0  0  0  0  0  0  0
   37.1500   22.5590   39.6610 H   0  0  0  0  0  0  0  0  0  0  0  0
   37.9610   24.7830   38.9010 H   0  0  0  0  0  0  0  0  0  0  0  0
   37.0230   24.9670   42.2130 C   0  0  0  0  0  0  0  0  0  0  0  0
   35.9230   25.1470   42.0360 H   0  0  0  0  0  0  0  0  0  0  0  0
   37.0290   24.3060   43.1210 H   0  0  0  0  0  0  0  0  0  0  0  0
   37.6490   26.2270   42.6250 C   0  0  0  0  0  0  0  0  0  0  0  0
   36.7950   27.0790   43.2740 C   0  0  0  0  0  0  0  0  0  0  0  0
   37.2500   28.3320   43.7240 C   0  0  0  0  0  0  0  0  0  0  0  0
   38.5730   28.6130   43.4660 N   0  0  0  0  0  0  0  0  0  0  0  0
   39.3930   27.7570   42.8250 C   0  0  0  0  0  0  0  0  0  0  0  0
   38.9310   26.5840   42.4150 N   0  0  0  0  0  0  0  0  0  0  0  0
   35.7550   27.0380   43.5720 H   0  0  0  0  0  0  0  0  0  0  0  0
   36.7120   29.1090   44.2440 H   0  0  0  0  0  0  0  0  0  0  0  0
   40.4240   28.0200   42.6450 H   0  0  0  0  0  0  0  0  0  0  0  0
   36.2570   25.7440   39.6700 O   0  0  0  0  0  0  0  0  0  0  0  0
   38.3810   27.1570   38.8740 O   0  0  0  0  0  0  0  0  0  0  0  0
   36.9020   27.2270   39.1570 P   0  0  1  0  0  0  0  0  0  0  0  0
   36.1300   27.5940   37.6660 O   0  0  0  0  0  0  0  0  0  0  0  0
   36.4850   28.4380   37.2900 H   0  0  0  0  0  0  0  0  0  0  0  0
   36.5250   28.4320   40.2700 O   0  0  0  0  0  0  0  0  0  0  0  0
   36.1020   30.8000   39.9360 C   0  0  2  0  0  3  0  0  0  0  0  0
   37.0290   29.6090   39.7900 C   0  0  1  0  0  3  0  0  0  0  0  0
   38.1430   30.0750   40.4890 O   0  0  0  0  0  0  0  0  0  0  0  0
   38.3950   31.3140   39.9140 C   0  0  0  0  0  2  0  0  0  0  0  0
   37.0590   31.9180   39.5710 C   0  0  2  0  0  3  0  0  0  0  0  0
   35.7400   31.0090   41.2640 O   0  0  0  0  0  0  0  0  0  0  0  0
   36.4220   31.5440   41.7550 H   0  0  0  0  0  0  0  0  0  0  0  0
   36.8000   33.0760   40.2930 O   0  0  0  0  0  0  0  0  0  0  0  0
   37.0140   33.8810   39.7390 H   0  0  0  0  0  0  0  0  0  0  0  0
  1  4  1  1  0  0  0
  1  8  1  0  0  0  0
  2  5  1  0  0  0  0
  2  1  1  0  0  0  0
  3  7  1  6  0  0  0
  3  2  1  0  0  0  0
  3  1  1  0  0  0  0
  6  2  1  0  0  0  0
  8 11  1  0  0  0  0
  8 10  1  0  0  0  0
  9  8  1  0  0  0  0
 11 12  1  0  0  0  0
 12 17  1  0  0  0  0
 12 13  2  0  0  0  0
 13 18  1  0  0  0  0
 14 13  1  0  0  0  0
 15 14  2  0  0  0  0
 16 11  2  0  0  0  0
 16 15  1  0  0  0  0
 19 15  1  0  0  0  0
 20  3  1  0  0  0  0
 22 21  2  6  0  0  0
 22 20  1  0  0  0  0
 22 25  1  0  0  0  0
 23 22  1  0  0  0  0
 24 23  1  0  0  0  0
 26 31  1  1  0  0  0
 27 26  1  0  0  0  0
 27 25  1  1  0  0  0
 27 28  1  0  0  0  0
 29 28  1  0  0  0  0
 30 29  1  0  0  0  0
 30 26  1  0  0  0  0
 30 33  1  1  0  0  0
 31 32  1  0  0  0  0
 34 33  1  0  0  0  0
M  END
>  <minimizedAffinity>
-5.39775753

$$$$

 OpenBabel03252500453D

 34 36  0  0  1  0  0  0  0  0999 V2000
   38.1750   26.8320   41.9530 C   0  0  1  0  0  0  0  0  0  0  0  0
   36.9940   26.0100   42.4530 C   0  0  0  0  0  0  0  0  0  0  0  0
   36.8070   27.1010   41.4190 C   0  0  1  0  0  0  0  0  0  0  0  0
   38.8330   26.1870   41.3130 H   0  0  0  0  0  0  0  0  0  0  0  0
   36.6110   26.2270   43.4860 H   0  0  0  0  0  0  0  0  0  0  0  0
   36.7960   25.0070   42.0810 H   0  0  0  0  0  0  0  0  0  0  0  0
   36.5850   26.8070   40.3770 H   0  0  0  0  0  0  0  0  0  0  0  0
   38.7060   27.8400   42.8900 C   0  0  0  0  0  0  0  0  0  0  0  0
   37.8880   28.3070   43.5130 H   0  0  0  0  0  0  0  0  0  0  0  0
   39.3710   27.3630   43.6600 H   0  0  0  0  0  0  0  0  0  0  0  0
   39.5010   28.9070   42.2750 C   0  0  0  0  0  0  0  0  0  0  0  0
   39.1030   30.1670   42.6340 C   0  0  0  0  0  0  0  0  0  0  0  0
   39.7670   31.2950   42.1170 C   0  0  0  0  0  0  0  0  0  0  0  0
   40.8070   31.0300   41.2550 N   0  0  0  0  0  0  0  0  0  0  0  0
   41.1790   29.7800   40.9160 C   0  0  0  0  0  0  0  0  0  0  0  0
   40.5310   28.7400   41.4230 N   0  0  0  0  0  0  0  0  0  0  0  0
   38.3380   30.5700   43.2860 H   0  0  0  0  0  0  0  0  0  0  0  0
   39.5790   32.3410   42.2980 H   0  0  0  0  0  0  0  0  0  0  0  0
   42.0010   29.6200   40.2370 H   0  0  0  0  0  0  0  0  0  0  0  0
   36.1740   28.2480   41.8510 O   0  0  0  0  0  0  0  0  0  0  0  0
   34.4350   29.1030   40.0110 O   0  0  0  0  0  0  0  0  0  0  0  0
   35.8220   29.2990   40.5670 P   0  0  1  0  0  0  0  0  0  0  0  0
   35.8700   30.8880   41.2230 O   0  0  0  0  0  0  0  0  0  0  0  0
   35.6400   31.5560   40.5300 H   0  0  0  0  0  0  0  0  0  0  0  0
   37.0070   29.1710   39.3780 O   0  0  0  0  0  0  0  0  0  0  0  0
   38.7340   30.4560   38.2550 C   0  0  2  0  0  3  0  0  0  0  0  0
   37.5570   30.4120   39.2090 C   0  0  1  0  0  3  0  0  0  0  0  0
   36.7050   31.3310   38.5960 O   0  0  0  0  0  0  0  0  0  0  0  0
   37.5060   32.4520   38.4210 C   0  0  0  0  0  2  0  0  0  0  0  0
   38.8940   31.9570   38.1110 C   0  0  2  0  0  3  0  0  0  0  0  0
   38.3910   29.9740   36.9950 O   0  0  0  0  0  0  0  0  0  0  0  0
   37.9710   30.6780   36.4290 H   0  0  0  0  0  0  0  0  0  0  0  0
   39.3100   32.3120   36.8340 O   0  0  0  0  0  0  0  0  0  0  0  0
   39.8910   33.1260   36.8770 H   0  0  0  0  0  0  0  0  0  0  0  0
  1  4  1  6  0  0  0
  1  2  1  0  0  0  0
  1  8  1  0  0  0  0
  2  5  1  0  0  0  0
  3  7  1  6  0  0  0
  3 20  1  0  0  0  0
  3  1  1  0  0  0  0
  3  2  1  0  0  0  0
  6  2  1  0  0  0  0
  8  9  1  0  0  0  0
  8 10  1  0  0  0  0
 11 12  1  0  0  0  0
 11  8  1  0  0  0  0
 12 17  1  0  0  0  0
 13 18  1  0  0  0  0
 13 12  2  0  0  0  0
 14 13  1  0  0  0  0
 15 14  2  0  0  0  0
 15 16  1  0  0  0  0
 16 11  2  0  0  0  0
 19 15  1  0  0  0  0
 22 21  2  6  0  0  0
 22 23  1  0  0  0  0
 22 20  1  0  0  0  0
 24 23  1  0  0  0  0
 25 22  1  0  0  0  0
 26 31  1  6  0  0  0
 26 27  1  0  0  0  0
 27 25  1  6  0  0  0
 28 27  1  0  0  0  0
 29 28  1  0  0  0  0
 30 33  1  6  0  0  0
 30 26  1  0  0  0  0
 30 29  1  0  0  0  0
 32 31  1  0  0  0  0
 33 34  1  0  0  0  0
M  END
>  <minimizedAffinity>
-5.36972237

$$$$
