
 OpenBabel03252506453D

 42 45  0  0  1  0  0  0  0  0999 V2000
   49.8320   33.5690   41.4240 N   0  0  1  0  0  0  0  0  0  0  0  0
   50.7170   32.8590   42.3450 C   0  0  0  0  0  0  0  0  0  0  0  0
   51.1920   31.5400   41.8050 C   0  0  0  0  0  0  0  0  0  0  0  0
   50.0020   30.5960   41.7230 C   0  0  0  0  0  0  0  0  0  0  0  0
   48.7640   31.3470   41.3130 C   0  0  0  0  0  0  0  0  0  0  0  0
   49.1580   32.6070   40.5870 C   0  0  2  0  0  0  0  0  0  0  0  0
   50.2290   32.6580   43.3070 H   0  0  0  0  0  0  0  0  0  0  0  0
   51.5810   33.5210   42.5550 H   0  0  0  0  0  0  0  0  0  0  0  0
   51.6800   31.6360   40.8130 H   0  0  0  0  0  0  0  0  0  0  0  0
   51.9350   31.1580   42.5170 H   0  0  0  0  0  0  0  0  0  0  0  0
   49.8760   30.0330   42.6660 H   0  0  0  0  0  0  0  0  0  0  0  0
   50.2480   29.8370   40.9390 H   0  0  0  0  0  0  0  0  0  0  0  0
   48.0740   30.7830   40.6910 H   0  0  0  0  0  0  0  0  0  0  0  0
   48.2820   31.6690   42.2810 H   0  0  0  0  0  0  0  0  0  0  0  0
   48.1950   33.0840   40.2680 H   0  0  0  0  0  0  0  0  0  0  0  0
   47.5500   34.6600   41.8710 C   0  0  1  0  0  0  0  0  0  0  0  0
   48.5610   35.6820   41.6290 C   0  0  0  0  0  0  0  0  0  0  0  0
   48.9910   34.3810   42.2290 C   0  0  2  0  0  0  0  0  0  0  0  0
   47.1870   33.9510   41.0880 H   0  0  0  0  0  0  0  0  0  0  0  0
   48.8200   35.8620   40.5490 H   0  0  0  0  0  0  0  0  0  0  0  0
   48.5490   36.6000   42.2510 H   0  0  0  0  0  0  0  0  0  0  0  0
   49.1840   34.3960   43.3210 H   0  0  0  0  0  0  0  0  0  0  0  0
   45.6740   35.9180   42.9790 C   0  0  0  0  0  0  0  0  0  0  0  0
   46.5630   34.8180   42.9680 C   0  0  0  0  0  0  0  0  0  0  0  0
   46.4760   33.9070   44.0170 C   0  0  0  0  0  0  0  0  0  0  0  0
   45.5480   34.1280   44.9760 N   0  0  0  0  0  0  0  0  0  0  0  0
   44.7130   35.1730   44.9730 C   0  0  0  0  0  0  0  0  0  0  0  0
   44.7660   36.0880   43.9660 N   0  0  0  0  0  0  0  0  0  0  0  0
   45.7790   36.5970   42.1460 H   0  0  0  0  0  0  0  0  0  0  0  0
   47.1340   33.0480   44.0540 H   0  0  0  0  0  0  0  0  0  0  0  0
   44.0030   35.2580   45.7940 H   0  0  0  0  0  0  0  0  0  0  0  0
   49.8880   32.3010   39.3900 N   0  0  0  0  0  0  0  0  0  0  0  0
   50.7110   32.9080   39.2950 H   0  0  0  0  0  0  0  0  0  0  0  0
   48.1480   33.6530   38.3310 C   0  0  2  0  0  3  0  0  0  0  0  0
   49.0900   32.4590   38.2000 C   0  0  2  0  0  3  0  0  0  0  0  0
   48.2810   31.3880   37.9330 O   0  0  0  0  0  0  0  0  0  0  0  0
   47.0700   31.8030   37.4430 C   0  0  0  0  0  2  0  0  0  0  0  0
   47.1370   33.3030   37.2570 C   0  0  1  0  0  3  0  0  0  0  0  0
   48.8060   34.8440   38.0510 O   0  0  0  0  0  0  0  0  0  0  0  0
   49.3640   34.6870   37.2460 H   0  0  0  0  0  0  0  0  0  0  0  0
   45.8750   33.8590   37.5690 O   0  0  0  0  0  0  0  0  0  0  0  0
   45.1680   33.2660   37.2120 H   0  0  0  0  0  0  0  0  0  0  0  0
  1 18  1  0  0  0  0
  1  2  1  1  0  0  0
  2  8  1  0  0  0  0
  2  7  1  0  0  0  0
  3  2  1  0  0  0  0
  3 10  1  0  0  0  0
  4  3  1  0  0  0  0
  4 11  1  0  0  0  0
  5  4  1  0  0  0  0
  5 14  1  0  0  0  0
  6 15  1  6  0  0  0
  6  5  1  0  0  0  0
  6  1  1  0  0  0  0
  9  3  1  0  0  0  0
 12  4  1  0  0  0  0
 13  5  1  0  0  0  0
 16 19  1  6  0  0  0
 16 18  1  0  0  0  0
 16 24  1  0  0  0  0
 17 16  1  0  0  0  0
 17 18  1  0  0  0  0
 17 21  1  0  0  0  0
 18 22  1  1  0  0  0
 20 17  1  0  0  0  0
 23 28  1  0  0  0  0
 24 23  2  0  0  0  0
 24 25  1  0  0  0  0
 25 30  1  0  0  0  0
 25 26  2  0  0  0  0
 27 26  1  0  0  0  0
 27 31  1  0  0  0  0
 28 27  2  0  0  0  0
 29 23  1  0  0  0  0
 32  6  1  0  0  0  0
 33 32  1  0  0  0  0
 34 39  1  6  0  0  0
 35 34  1  0  0  0  0
 35 32  1  1  0  0  0
 36 35  1  0  0  0  0
 37 36  1  0  0  0  0
 38 37  1  0  0  0  0
 38 41  1  1  0  0  0
 38 34  1  0  0  0  0
 40 39  1  0  0  0  0
 42 41  1  0  0  0  0
M  END
>  <minimizedAffinity>
-5.88521051

>  <minimizedRMSD>
2.9808023

$$$$
