
 OpenBabel03252504323D

 40 42  0  0  1  0  0  0  0  0999 V2000
   42.5900   35.4130   40.5660 O   0  0  0  0  0  0  0  0  0  0  0  0
   41.3930   35.6200   41.1720 C   0  0  0  0  0  0  0  0  0  0  0  0
   41.3830   35.7850   42.2730 H   0  0  0  0  0  0  0  0  0  0  0  0
   40.8900   36.5140   40.7310 H   0  0  0  0  0  0  0  0  0  0  0  0
   40.7130   33.3390   41.7170 C   0  0  0  0  0  0  0  0  0  0  0  0
   40.4140   34.4990   40.9800 C   0  0  0  0  0  0  0  0  0  0  0  0
   39.3030   34.5020   40.2040 C   0  0  0  0  0  0  0  0  0  0  0  0
   38.5710   33.3780   40.2080 N   0  0  0  0  0  0  0  0  0  0  0  0
   38.8380   32.2880   40.8930 C   0  0  0  0  0  0  0  0  0  0  0  0
   39.9710   32.2290   41.7070 N   0  0  0  0  0  0  0  0  0  0  0  0
   41.5880   33.2840   42.3510 H   0  0  0  0  0  0  0  0  0  0  0  0
   39.1090   35.3950   39.6610 H   0  0  0  0  0  0  0  0  0  0  0  0
   38.3570   30.0940   39.7900 C   0  0  1  0  0  3  0  0  0  0  0  0
   38.0020   31.0540   40.8750 C   0  0  1  0  0  3  0  0  0  0  0  0
   38.2290   30.2790   42.0230 O   0  0  0  0  0  0  0  0  0  0  0  0
   37.5670   29.1040   41.7550 C   0  0  0  0  0  2  0  0  0  0  0  0
   37.6100   28.8430   40.2750 C   0  0  1  0  0  3  0  0  0  0  0  0
   37.8560   30.4630   38.5450 O   0  0  0  0  0  0  0  0  0  0  0  0
   38.3830   30.1030   37.7970 H   0  0  0  0  0  0  0  0  0  0  0  0
   36.3060   28.9650   39.7860 O   0  0  0  0  0  0  0  0  0  0  0  0
   36.0530   29.9070   39.5800 H   0  0  0  0  0  0  0  0  0  0  0  0
   43.8410   35.3180   41.1520 C   0  0  0  0  0  3  0  0  0  0  0  0
   43.9110   35.6470   42.4410 C   0  0  0  0  0  3  0  0  0  0  0  0
   45.1830   35.6080   43.2700 C   0  0  0  0  0  0  0  0  0  0  0  0
   45.4740   36.6020   43.6220 H   0  0  0  0  0  0  0  0  0  0  0  0
   46.0190   35.2480   42.6250 H   0  0  0  0  0  0  0  0  0  0  0  0
   44.9700   34.6990   44.2870 O   0  0  0  0  0  0  0  0  0  0  0  0
   45.6910   32.5800   42.8440 O   0  0  0  0  0  0  0  0  0  0  0  0
   45.9810   33.3610   44.1060 P   0  0  1  0  0  0  0  0  0  0  0  0
   47.6050   33.8730   44.0130 O   0  0  0  0  0  0  0  0  0  0  0  0
   47.7030   34.8280   44.3020 H   0  0  0  0  0  0  0  0  0  0  0  0
   45.8600   32.3520   45.4520 O   0  0  0  0  0  0  0  0  0  0  0  0
   46.1410   33.0090   46.6310 C   0  0  0  0  0  0  0  0  0  0  0  0
   47.0460   32.3580   47.6310 C   0  0  0  0  0  0  0  0  0  0  0  0
   45.5440   32.3980   47.8740 C   0  0  0  0  0  0  0  0  0  0  0  0
   46.1270   34.1080   46.5680 H   0  0  0  0  0  0  0  0  0  0  0  0
   47.6260   33.0480   48.2780 H   0  0  0  0  0  0  0  0  0  0  0  0
   47.5290   31.4100   47.3640 H   0  0  0  0  0  0  0  0  0  0  0  0
   45.1570   33.0520   48.6790 H   0  0  0  0  0  0  0  0  0  0  0  0
   45.0750   31.4080   47.8250 H   0  0  0  0  0  0  0  0  0  0  0  0
  1 22  1  0  0  0  0
  1  2  1  0  0  0  0
  2  3  1  0  0  0  0
  4  2  1  0  0  0  0
  5 11  1  0  0  0  0
  6  2  1  0  0  0  0
  6  5  2  0  0  0  0
  7  8  2  0  0  0  0
  7  6  1  0  0  0  0
  8  9  1  0  0  0  0
  9 10  2  0  0  0  0
 10  5  1  0  0  0  0
 12  7  1  0  0  0  0
 13 18  1  6  0  0  0
 13 17  1  0  0  0  0
 13 14  1  0  0  0  0
 14  9  1  1  0  0  0
 14 15  1  0  0  0  0
 16 15  1  0  0  0  0
 17 20  1  6  0  0  0
 17 16  1  0  0  0  0
 19 18  1  0  0  0  0
 21 20  1  0  0  0  0
 22 23  2  0  0  0  0
 23 24  1  0  0  0  0
 24 25  1  0  0  0  0
 24 27  1  0  0  0  0
 26 24  1  0  0  0  0
 29 28  2  6  0  0  0
 29 27  1  0  0  0  0
 29 32  1  0  0  0  0
 30 29  1  0  0  0  0
 30 31  1  0  0  0  0
 32 33  1  0  0  0  0
 33 34  1  0  0  0  0
 33 35  1  0  0  0  0
 34 35  1  0  0  0  0
 34 37  1  0  0  0  0
 35 39  1  0  0  0  0
 36 33  1  0  0  0  0
 38 34  1  0  0  0  0
 40 35  1  0  0  0  0
M  END
>  <minimizedAffinity>
-5.14999771

>  <minimizedRMSD>
0.80101943

$$$$
