
 OpenBabel03252504323D

 40 42  0  0  1  0  0  0  0  0999 V2000
   43.8030   34.8870   40.8630 O   0  0  0  0  0  0  0  0  0  0  0  0
   42.5350   35.3690   40.8600 C   0  0  0  0  0  0  0  0  0  0  0  0
   42.2430   36.0840   41.6620 H   0  0  0  0  0  0  0  0  0  0  0  0
   42.3270   35.8970   39.8990 H   0  0  0  0  0  0  0  0  0  0  0  0
   41.9070   33.0350   40.5120 C   0  0  0  0  0  0  0  0  0  0  0  0
   41.4800   34.3040   40.9440 C   0  0  0  0  0  0  0  0  0  0  0  0
   40.2090   34.4390   41.3910 C   0  0  0  0  0  0  0  0  0  0  0  0
   39.4540   33.3310   41.3860 N   0  0  0  0  0  0  0  0  0  0  0  0
   39.8400   32.1390   40.9870 C   0  0  0  0  0  0  0  0  0  0  0  0
   41.1380   31.9430   40.5140 N   0  0  0  0  0  0  0  0  0  0  0  0
   42.9110   32.8720   40.1450 H   0  0  0  0  0  0  0  0  0  0  0  0
   39.9210   35.4130   41.7090 H   0  0  0  0  0  0  0  0  0  0  0  0
   39.2680   29.9720   42.1030 C   0  0  1  0  0  3  0  0  0  0  0  0
   38.9730   30.9260   40.9940 C   0  0  1  0  0  3  0  0  0  0  0  0
   37.6380   31.2690   41.2640 O   0  0  0  0  0  0  0  0  0  0  0  0
   37.0250   30.0530   41.4490 C   0  0  0  0  0  2  0  0  0  0  0  0
   38.0130   29.0910   42.0460 C   0  0  1  0  0  3  0  0  0  0  0  0
   40.3870   29.1820   41.8610 O   0  0  0  0  0  0  0  0  0  0  0  0
   40.8180   28.8650   42.6870 H   0  0  0  0  0  0  0  0  0  0  0  0
   38.2810   28.1100   41.0870 O   0  0  0  0  0  0  0  0  0  0  0  0
   38.9860   28.3810   40.4380 H   0  0  0  0  0  0  0  0  0  0  0  0
   44.7730   35.0330   41.8410 C   0  0  0  0  0  3  0  0  0  0  0  0
   44.3340   35.3430   43.0590 C   0  0  0  0  0  3  0  0  0  0  0  0
   45.2290   35.5440   44.2700 C   0  0  0  0  0  0  0  0  0  0  0  0
   45.1370   36.5510   44.6860 H   0  0  0  0  0  0  0  0  0  0  0  0
   46.2920   35.4340   43.9500 H   0  0  0  0  0  0  0  0  0  0  0  0
   44.9190   34.5420   45.1670 O   0  0  0  0  0  0  0  0  0  0  0  0
   45.5710   32.0800   44.3870 O   0  0  0  0  0  0  0  0  0  0  0  0
   46.0720   33.3130   45.1040 P   0  0  1  0  0  0  0  0  0  0  0  0
   47.4490   33.8560   44.2550 O   0  0  0  0  0  0  0  0  0  0  0  0
   47.4360   34.8530   44.1410 H   0  0  0  0  0  0  0  0  0  0  0  0
   46.5830   32.9100   46.6600 O   0  0  0  0  0  0  0  0  0  0  0  0
   45.5290   32.6710   47.5160 C   0  0  0  0  0  0  0  0  0  0  0  0
   45.8150   32.2320   48.9190 C   0  0  0  0  0  0  0  0  0  0  0  0
   45.3120   31.2270   47.8930 C   0  0  0  0  0  0  0  0  0  0  0  0
   44.6260   33.2720   47.3250 H   0  0  0  0  0  0  0  0  0  0  0  0
   45.0590   32.5190   49.6790 H   0  0  0  0  0  0  0  0  0  0  0  0
   46.8590   32.1910   49.2540 H   0  0  0  0  0  0  0  0  0  0  0  0
   44.2820   30.8340   48.0000 H   0  0  0  0  0  0  0  0  0  0  0  0
   46.0620   30.4740   47.6250 H   0  0  0  0  0  0  0  0  0  0  0  0
  1 22  1  0  0  0  0
  2  1  1  0  0  0  0
  2  6  1  0  0  0  0
  2  3  1  0  0  0  0
  4  2  1  0  0  0  0
  5 10  2  0  0  0  0
  5  6  1  0  0  0  0
  6  7  2  0  0  0  0
  7 12  1  0  0  0  0
  8  7  1  0  0  0  0
  9  8  2  0  0  0  0
 10  9  1  0  0  0  0
 11  5  1  0  0  0  0
 13 18  1  6  0  0  0
 14  9  1  1  0  0  0
 14 15  1  0  0  0  0
 14 13  1  0  0  0  0
 15 16  1  0  0  0  0
 16 17  1  0  0  0  0
 17 20  1  6  0  0  0
 17 13  1  0  0  0  0
 18 19  1  0  0  0  0
 21 20  1  0  0  0  0
 22 23  2  0  0  0  0
 23 24  1  0  0  0  0
 24 25  1  0  0  0  0
 24 27  1  0  0  0  0
 26 24  1  0  0  0  0
 29 28  2  6  0  0  0
 29 27  1  0  0  0  0
 29 32  1  0  0  0  0
 30 29  1  0  0  0  0
 31 30  1  0  0  0  0
 32 33  1  0  0  0  0
 33 35  1  0  0  0  0
 33 34  1  0  0  0  0
 34 38  1  0  0  0  0
 34 37  1  0  0  0  0
 35 39  1  0  0  0  0
 35 34  1  0  0  0  0
 36 33  1  0  0  0  0
 40 35  1  0  0  0  0
M  END
>  <minimizedAffinity>
-5.29263783

>  <minimizedRMSD>
1.66208792

$$$$
