
 OpenBabel03252501063D

 40 43  0  0  1  0  0  0  0  0999 V2000
   48.6000   32.3290   38.0690 O   0  0  0  0  0  0  0  0  0  0  0  0
   48.1020   33.7620   38.2500 P   0  0  2  0  0  0  0  0  0  0  0  0
   49.2880   34.7500   37.5620 O   0  0  0  0  0  0  0  0  0  0  0  0
   48.8270   35.6100   37.3120 H   0  0  0  0  0  0  0  0  0  0  0  0
   47.7370   34.1020   39.8080 O   0  0  0  0  0  0  0  0  0  0  0  0
   48.0570   35.4480   41.7960 C   0  0  1  0  0  0  0  0  0  0  0  0
   49.2940   34.6700   41.6840 C   0  0  0  0  0  0  0  0  0  0  0  0
   48.4600   35.0430   40.4460 C   0  0  1  0  0  0  0  0  0  0  0  0
   48.1210   36.5240   42.0610 H   0  0  0  0  0  0  0  0  0  0  0  0
   49.3090   33.5740   41.8450 H   0  0  0  0  0  0  0  0  0  0  0  0
   50.2990   35.1140   41.7980 H   0  0  0  0  0  0  0  0  0  0  0  0
   49.0340   35.7120   39.7770 H   0  0  0  0  0  0  0  0  0  0  0  0
   46.0250   32.9530   43.7960 C   0  0  0  0  0  0  0  0  0  0  0  0
   47.1220   33.6300   43.2690 C   0  0  0  0  0  0  0  0  0  0  0  0
   46.8920   34.7070   42.3910 C   0  0  0  0  0  0  0  0  0  0  0  0
   45.6130   35.0590   42.0790 N   0  0  0  0  0  0  0  0  0  0  0  0
   44.5620   34.3760   42.6110 C   0  0  0  0  0  0  0  0  0  0  0  0
   44.7690   33.3280   43.4660 N   0  0  0  0  0  0  0  0  0  0  0  0
   46.1600   32.1270   44.4680 H   0  0  0  0  0  0  0  0  0  0  0  0
   48.1140   33.3250   43.5350 H   0  0  0  0  0  0  0  0  0  0  0  0
   43.5760   34.7110   42.3200 H   0  0  0  0  0  0  0  0  0  0  0  0
   46.7430   33.8690   37.2710 O   0  0  0  0  0  0  0  0  0  0  0  0
   45.6330   33.0430   37.3800 C   0  0  0  0  0  0  0  0  0  0  0  0
   45.3330   31.9230   36.6330 C   0  0  0  0  0  0  0  0  0  0  0  0
   44.1940   31.2100   36.8590 C   0  0  0  0  0  0  0  0  0  0  0  0
   43.3190   31.5980   37.8410 C   0  0  0  0  0  0  0  0  0  0  0  0
   43.6550   32.7370   38.5780 C   0  0  0  0  0  0  0  0  0  0  0  0
   44.7850   33.4370   38.3470 N   0  0  0  0  0  0  0  0  0  0  0  0
   46.0930   31.7040   35.8810 H   0  0  0  0  0  0  0  0  0  0  0  0
   44.0920   30.3570   36.1970 H   0  0  0  0  0  0  0  0  0  0  0  0
   42.4380   31.0070   37.9820 H   0  0  0  0  0  0  0  0  0  0  0  0
   41.2900   33.4010   39.0840 C   0  0  1  0  0  3  0  0  0  0  0  0
   42.6760   33.1200   39.6200 C   0  0  1  0  0  3  0  0  0  0  0  0
   42.4180   32.1610   40.5650 O   0  0  0  0  0  0  0  0  0  0  0  0
   41.4100   32.7430   41.3280 C   0  0  0  0  0  2  0  0  0  0  0  0
   40.5390   33.5660   40.4160 C   0  0  2  0  0  3  0  0  0  0  0  0
   41.2420   34.5600   38.3370 O   0  0  0  0  0  0  0  0  0  0  0  0
   40.6450   35.2340   38.7470 H   0  0  0  0  0  0  0  0  0  0  0  0
   39.2330   33.1540   40.3380 O   0  0  0  0  0  0  0  0  0  0  0  0
   38.9190   32.6250   41.0980 H   0  0  0  0  0  0  0  0  0  0  0  0
  2  1  2  6  0  0  0
  2  5  1  0  0  0  0
  3  2  1  0  0  0  0
  4  3  1  0  0  0  0
  5  8  1  0  0  0  0
  6  9  1  1  0  0  0
  6 15  1  0  0  0  0
  7  6  1  0  0  0  0
  7 11  1  0  0  0  0
  7 10  1  0  0  0  0
  8 12  1  6  0  0  0
  8  7  1  0  0  0  0
  8  6  1  0  0  0  0
 13 19  1  0  0  0  0
 14 20  1  0  0  0  0
 14 13  2  0  0  0  0
 15 14  1  0  0  0  0
 16 15  2  0  0  0  0
 16 17  1  0  0  0  0
 17 18  2  0  0  0  0
 18 13  1  0  0  0  0
 21 17  1  0  0  0  0
 22 23  1  0  0  0  0
 22  2  1  0  0  0  0
 23 28  1  0  0  0  0
 24 25  1  0  0  0  0
 24 23  2  0  0  0  0
 25 26  2  0  0  0  0
 26 31  1  0  0  0  0
 26 27  1  0  0  0  0
 28 27  2  0  0  0  0
 29 24  1  0  0  0  0
 30 25  1  0  0  0  0
 32 37  1  6  0  0  0
 32 33  1  0  0  0  0
 32 36  1  0  0  0  0
 33 27  1  6  0  0  0
 33 34  1  0  0  0  0
 34 35  1  0  0  0  0
 36 39  1  6  0  0  0
 36 35  1  0  0  0  0
 37 38  1  0  0  0  0
 39 40  1  0  0  0  0
M  END
>  <minimizedAffinity>
-5.15449286

>  <minimizedRMSD>
1.24075222

$$$$
