
 OpenBabel03252501053D

 40 43  0  0  1  0  0  0  0  0999 V2000
   48.5520   32.3460   38.2680 O   0  0  0  0  0  0  0  0  0  0  0  0
   48.0700   33.7950   38.2380 P   0  0  2  0  0  0  0  0  0  0  0  0
   49.3130   34.6770   37.5080 O   0  0  0  0  0  0  0  0  0  0  0  0
   48.8850   35.5030   37.1250 H   0  0  0  0  0  0  0  0  0  0  0  0
   47.6160   34.3310   39.7150 O   0  0  0  0  0  0  0  0  0  0  0  0
   48.1670   35.3720   41.8320 C   0  0  1  0  0  0  0  0  0  0  0  0
   49.1970   34.3450   41.6560 C   0  0  0  0  0  0  0  0  0  0  0  0
   48.5120   35.0160   40.4530 C   0  0  1  0  0  0  0  0  0  0  0  0
   48.4650   36.3730   42.2050 H   0  0  0  0  0  0  0  0  0  0  0  0
   48.9570   33.2640   41.7060 H   0  0  0  0  0  0  0  0  0  0  0  0
   50.2720   34.5320   41.8240 H   0  0  0  0  0  0  0  0  0  0  0  0
   49.2460   35.5960   39.8610 H   0  0  0  0  0  0  0  0  0  0  0  0
   45.3200   33.0450   42.7480 C   0  0  0  0  0  0  0  0  0  0  0  0
   46.5570   33.4860   42.2850 C   0  0  0  0  0  0  0  0  0  0  0  0
   46.8440   34.8640   42.3360 C   0  0  0  0  0  0  0  0  0  0  0  0
   45.9140   35.7260   42.8340 N   0  0  0  0  0  0  0  0  0  0  0  0
   44.7140   35.2630   43.2780 C   0  0  0  0  0  0  0  0  0  0  0  0
   44.4190   33.9270   43.2350 N   0  0  0  0  0  0  0  0  0  0  0  0
   45.0650   32.0030   42.7250 H   0  0  0  0  0  0  0  0  0  0  0  0
   47.2650   32.7790   41.8990 H   0  0  0  0  0  0  0  0  0  0  0  0
   44.0250   36.0040   43.6590 H   0  0  0  0  0  0  0  0  0  0  0  0
   46.7760   33.7920   37.1690 O   0  0  0  0  0  0  0  0  0  0  0  0
   45.6230   33.0390   37.3380 C   0  0  0  0  0  0  0  0  0  0  0  0
   45.1900   31.9700   36.5810 C   0  0  0  0  0  0  0  0  0  0  0  0
   44.0250   31.3260   36.8720 C   0  0  0  0  0  0  0  0  0  0  0  0
   43.2560   31.7330   37.9330 C   0  0  0  0  0  0  0  0  0  0  0  0
   43.7250   32.8190   38.6770 C   0  0  0  0  0  0  0  0  0  0  0  0
   44.8800   33.4500   38.3810 N   0  0  0  0  0  0  0  0  0  0  0  0
   45.8740   31.7290   35.7650 H   0  0  0  0  0  0  0  0  0  0  0  0
   43.8140   30.5070   36.1930 H   0  0  0  0  0  0  0  0  0  0  0  0
   42.3500   31.1980   38.1230 H   0  0  0  0  0  0  0  0  0  0  0  0
   42.6960   34.7240   39.9430 C   0  0  1  0  0  3  0  0  0  0  0  0
   42.8570   33.2270   39.8050 C   0  0  1  0  0  3  0  0  0  0  0  0
   41.5540   32.8130   39.7220 O   0  0  0  0  0  0  0  0  0  0  0  0
   40.9660   33.4170   40.8300 C   0  0  0  0  0  2  0  0  0  0  0  0
   41.6230   34.7550   41.0460 C   0  0  2  0  0  3  0  0  0  0  0  0
   43.8580   35.3410   40.3600 O   0  0  0  0  0  0  0  0  0  0  0  0
   43.7440   35.7790   41.2400 H   0  0  0  0  0  0  0  0  0  0  0  0
   40.7850   35.8340   40.9330 O   0  0  0  0  0  0  0  0  0  0  0  0
   39.8360   35.6390   41.0670 H   0  0  0  0  0  0  0  0  0  0  0  0
  2  1  2  1  0  0  0
  2  5  1  0  0  0  0
  3  2  1  0  0  0  0
  4  3  1  0  0  0  0
  5  8  1  0  0  0  0
  6  9  1  1  0  0  0
  6 15  1  0  0  0  0
  7 10  1  0  0  0  0
  7 11  1  0  0  0  0
  7  6  1  0  0  0  0
  8 12  1  6  0  0  0
  8  7  1  0  0  0  0
  8  6  1  0  0  0  0
 13 18  1  0  0  0  0
 14 15  1  0  0  0  0
 14 13  2  0  0  0  0
 15 16  2  0  0  0  0
 16 17  1  0  0  0  0
 17 21  1  0  0  0  0
 18 17  2  0  0  0  0
 19 13  1  0  0  0  0
 20 14  1  0  0  0  0
 22 23  1  0  0  0  0
 22  2  1  0  0  0  0
 23 28  1  0  0  0  0
 24 25  1  0  0  0  0
 24 23  2  0  0  0  0
 25 26  2  0  0  0  0
 26 31  1  0  0  0  0
 26 27  1  0  0  0  0
 28 27  2  0  0  0  0
 29 24  1  0  0  0  0
 30 25  1  0  0  0  0
 32 37  1  1  0  0  0
 32 36  1  0  0  0  0
 33 27  1  6  0  0  0
 33 32  1  0  0  0  0
 34 33  1  0  0  0  0
 34 35  1  0  0  0  0
 35 36  1  0  0  0  0
 36 39  1  6  0  0  0
 37 38  1  0  0  0  0
 39 40  1  0  0  0  0
M  END
>  <minimizedAffinity>
-5.55191994

>  <minimizedRMSD>
1.20476866

$$$$
