
 OpenBabel03252501063D

 40 43  0  0  1  0  0  0  0  0999 V2000
   49.0000   32.4320   38.2300 O   0  0  0  0  0  0  0  0  0  0  0  0
   48.1890   33.6790   38.5780 P   0  0  2  0  0  0  0  0  0  0  0  0
   48.8820   34.9400   37.6920 O   0  0  0  0  0  0  0  0  0  0  0  0
   48.1640   35.6370   37.5870 H   0  0  0  0  0  0  0  0  0  0  0  0
   48.1000   33.9330   40.1910 O   0  0  0  0  0  0  0  0  0  0  0  0
   47.9810   35.6050   41.9400 C   0  0  1  0  0  0  0  0  0  0  0  0
   49.3710   35.1410   41.9770 C   0  0  0  0  0  0  0  0  0  0  0  0
   48.5430   35.1080   40.6820 C   0  0  1  0  0  0  0  0  0  0  0  0
   47.7750   36.6910   42.0300 H   0  0  0  0  0  0  0  0  0  0  0  0
   49.6360   34.1200   42.3140 H   0  0  0  0  0  0  0  0  0  0  0  0
   50.2350   35.8270   42.0350 H   0  0  0  0  0  0  0  0  0  0  0  0
   48.9800   35.7850   39.9230 H   0  0  0  0  0  0  0  0  0  0  0  0
   46.5040   32.9590   44.2150 C   0  0  0  0  0  0  0  0  0  0  0  0
   47.4390   33.7900   43.6030 C   0  0  0  0  0  0  0  0  0  0  0  0
   46.9930   34.7030   42.6270 C   0  0  0  0  0  0  0  0  0  0  0  0
   45.6700   34.7520   42.3070 N   0  0  0  0  0  0  0  0  0  0  0  0
   44.7820   33.9250   42.9230 C   0  0  0  0  0  0  0  0  0  0  0  0
   45.1980   33.0330   43.8730 N   0  0  0  0  0  0  0  0  0  0  0  0
   46.8040   32.2510   44.9630 H   0  0  0  0  0  0  0  0  0  0  0  0
   48.4720   33.7240   43.8800 H   0  0  0  0  0  0  0  0  0  0  0  0
   43.7480   34.0190   42.6190 H   0  0  0  0  0  0  0  0  0  0  0  0
   46.6690   33.3940   37.9240 O   0  0  0  0  0  0  0  0  0  0  0  0
   45.6300   32.7710   38.5990 C   0  0  0  0  0  0  0  0  0  0  0  0
   45.5190   31.4380   38.9390 C   0  0  0  0  0  0  0  0  0  0  0  0
   44.4280   30.9700   39.6080 C   0  0  0  0  0  0  0  0  0  0  0  0
   43.4130   31.8240   39.9570 C   0  0  0  0  0  0  0  0  0  0  0  0
   43.5590   33.1660   39.5960 C   0  0  0  0  0  0  0  0  0  0  0  0
   44.6430   33.6200   38.9340 N   0  0  0  0  0  0  0  0  0  0  0  0
   46.3790   30.8490   38.6150 H   0  0  0  0  0  0  0  0  0  0  0  0
   44.4800   29.9050   39.8060 H   0  0  0  0  0  0  0  0  0  0  0  0
   42.5760   31.4110   40.4810 H   0  0  0  0  0  0  0  0  0  0  0  0
   41.3870   34.2150   38.9090 C   0  0  1  0  0  3  0  0  0  0  0  0
   42.4340   34.0450   39.9870 C   0  0  1  0  0  3  0  0  0  0  0  0
   41.6780   33.6000   41.0400 O   0  0  0  0  0  0  0  0  0  0  0  0
   40.6580   34.5440   41.1100 C   0  0  0  0  0  2  0  0  0  0  0  0
   40.3320   34.9960   39.7100 C   0  0  2  0  0  3  0  0  0  0  0  0
   41.8500   34.9550   37.8410 O   0  0  0  0  0  0  0  0  0  0  0  0
   41.3400   35.7950   37.7280 H   0  0  0  0  0  0  0  0  0  0  0  0
   39.0520   34.7220   39.2990 O   0  0  0  0  0  0  0  0  0  0  0  0
   38.4040   34.5930   40.0210 H   0  0  0  0  0  0  0  0  0  0  0  0
  2  1  2  6  0  0  0
  2  5  1  0  0  0  0
  3  2  1  0  0  0  0
  4  3  1  0  0  0  0
  5  8  1  0  0  0  0
  6  7  1  0  0  0  0
  6  9  1  1  0  0  0
  6 15  1  0  0  0  0
  7 11  1  0  0  0  0
  7 10  1  0  0  0  0
  8 12  1  6  0  0  0
  8  6  1  0  0  0  0
  8  7  1  0  0  0  0
 13 19  1  0  0  0  0
 14 20  1  0  0  0  0
 14 13  2  0  0  0  0
 15 14  1  0  0  0  0
 16 15  2  0  0  0  0
 16 17  1  0  0  0  0
 17 18  2  0  0  0  0
 18 13  1  0  0  0  0
 21 17  1  0  0  0  0
 22  2  1  0  0  0  0
 22 23  1  0  0  0  0
 23 28  2  0  0  0  0
 23 24  1  0  0  0  0
 24 25  2  0  0  0  0
 25 30  1  0  0  0  0
 25 26  1  0  0  0  0
 26 31  1  0  0  0  0
 27 26  2  0  0  0  0
 28 27  1  0  0  0  0
 29 24  1  0  0  0  0
 32 37  1  6  0  0  0
 32 36  1  0  0  0  0
 32 33  1  0  0  0  0
 33 27  1  6  0  0  0
 33 34  1  0  0  0  0
 34 35  1  0  0  0  0
 36 39  1  6  0  0  0
 36 35  1  0  0  0  0
 38 37  1  0  0  0  0
 39 40  1  0  0  0  0
M  END
>  <minimizedAffinity>
-5.57768011

>  <minimizedRMSD>
2.31709671

$$$$
