
 OpenBabel03252501063D

 40 43  0  0  1  0  0  0  0  0999 V2000
   48.4890   32.3630   38.3360 O   0  0  0  0  0  0  0  0  0  0  0  0
   48.0320   33.8200   38.3690 P   0  0  2  0  0  0  0  0  0  0  0  0
   49.2590   34.7030   37.6120 O   0  0  0  0  0  0  0  0  0  0  0  0
   48.8290   35.5470   37.2720 H   0  0  0  0  0  0  0  0  0  0  0  0
   47.6510   34.3190   39.8780 O   0  0  0  0  0  0  0  0  0  0  0  0
   48.2440   35.4770   41.9210 C   0  0  1  0  0  0  0  0  0  0  0  0
   49.3840   34.5920   41.6640 C   0  0  0  0  0  0  0  0  0  0  0  0
   48.5090   35.1350   40.5210 C   0  0  1  0  0  0  0  0  0  0  0  0
   48.4370   36.5190   42.2520 H   0  0  0  0  0  0  0  0  0  0  0  0
   49.2970   33.4910   41.7500 H   0  0  0  0  0  0  0  0  0  0  0  0
   50.4350   34.9250   41.7300 H   0  0  0  0  0  0  0  0  0  0  0  0
   49.1020   35.7920   39.8560 H   0  0  0  0  0  0  0  0  0  0  0  0
   46.0820   32.9650   43.7560 C   0  0  0  0  0  0  0  0  0  0  0  0
   47.2040   33.5640   43.1900 C   0  0  0  0  0  0  0  0  0  0  0  0
   47.0530   34.8110   42.5530 C   0  0  0  0  0  0  0  0  0  0  0  0
   45.8240   35.3980   42.5050 N   0  0  0  0  0  0  0  0  0  0  0  0
   44.7470   34.7850   43.0670 C   0  0  0  0  0  0  0  0  0  0  0  0
   44.8770   33.5740   43.6900 N   0  0  0  0  0  0  0  0  0  0  0  0
   46.1570   32.0150   44.2500 H   0  0  0  0  0  0  0  0  0  0  0  0
   48.1560   33.0740   43.2470 H   0  0  0  0  0  0  0  0  0  0  0  0
   43.8040   35.3080   42.9910 H   0  0  0  0  0  0  0  0  0  0  0  0
   46.6940   33.8700   37.3570 O   0  0  0  0  0  0  0  0  0  0  0  0
   45.6320   32.9790   37.4190 C   0  0  0  0  0  0  0  0  0  0  0  0
   45.5430   31.7250   36.8510 C   0  0  0  0  0  0  0  0  0  0  0  0
   44.4240   30.9610   37.0000 C   0  0  0  0  0  0  0  0  0  0  0  0
   43.3580   31.4320   37.7240 C   0  0  0  0  0  0  0  0  0  0  0  0
   43.4830   32.7060   38.2840 C   0  0  0  0  0  0  0  0  0  0  0  0
   44.5940   33.4540   38.1300 N   0  0  0  0  0  0  0  0  0  0  0  0
   46.4440   31.4490   36.2990 H   0  0  0  0  0  0  0  0  0  0  0  0
   44.4980   30.0020   36.5010 H   0  0  0  0  0  0  0  0  0  0  0  0
   42.5010   30.7980   37.8140 H   0  0  0  0  0  0  0  0  0  0  0  0
   42.5610   33.3400   40.5290 C   0  0  1  0  0  3  0  0  0  0  0  0
   42.3040   33.1730   39.0480 C   0  0  1  0  0  3  0  0  0  0  0  0
   41.8360   34.4150   38.7060 O   0  0  0  0  0  0  0  0  0  0  0  0
   40.8230   34.6310   39.6360 C   0  0  0  0  0  2  0  0  0  0  0  0
   41.2300   33.9930   40.9380 C   0  0  2  0  0  3  0  0  0  0  0  0
   42.7430   32.1320   41.1700 O   0  0  0  0  0  0  0  0  0  0  0  0
   42.0410   31.9690   41.8480 H   0  0  0  0  0  0  0  0  0  0  0  0
   41.3740   34.8650   41.9880 O   0  0  0  0  0  0  0  0  0  0  0  0
   40.8870   35.7090   41.8950 H   0  0  0  0  0  0  0  0  0  0  0  0
  2  1  2  1  0  0  0
  2  5  1  0  0  0  0
  3  2  1  0  0  0  0
  4  3  1  0  0  0  0
  5  8  1  0  0  0  0
  6  9  1  1  0  0  0
  6 15  1  0  0  0  0
  7 11  1  0  0  0  0
  7 10  1  0  0  0  0
  7  6  1  0  0  0  0
  8 12  1  6  0  0  0
  8  7  1  0  0  0  0
  8  6  1  0  0  0  0
 13 19  1  0  0  0  0
 14 20  1  0  0  0  0
 14 13  2  0  0  0  0
 15 14  1  0  0  0  0
 16 15  2  0  0  0  0
 16 17  1  0  0  0  0
 17 18  2  0  0  0  0
 18 13  1  0  0  0  0
 21 17  1  0  0  0  0
 22 23  1  0  0  0  0
 22  2  1  0  0  0  0
 23 28  1  0  0  0  0
 24 25  1  0  0  0  0
 24 23  2  0  0  0  0
 25 26  2  0  0  0  0
 26 31  1  0  0  0  0
 26 27  1  0  0  0  0
 28 27  2  0  0  0  0
 29 24  1  0  0  0  0
 30 25  1  0  0  0  0
 32 36  1  0  0  0  0
 32 37  1  1  0  0  0
 33 27  1  6  0  0  0
 33 32  1  0  0  0  0
 34 33  1  0  0  0  0
 34 35  1  0  0  0  0
 35 36  1  0  0  0  0
 36 39  1  1  0  0  0
 37 38  1  0  0  0  0
 40 39  1  0  0  0  0
M  END
>  <minimizedAffinity>
-5.35265923

>  <minimizedRMSD>
1.8691299

$$$$
