
 OpenBabel03252501063D

 40 43  0  0  1  0  0  0  0  0999 V2000
   48.5180   32.3810   38.0180 O   0  0  0  0  0  0  0  0  0  0  0  0
   48.0960   33.8320   38.2370 P   0  0  2  0  0  0  0  0  0  0  0  0
   49.3300   34.7750   37.5720 O   0  0  0  0  0  0  0  0  0  0  0  0
   48.9150   35.6640   37.3450 H   0  0  0  0  0  0  0  0  0  0  0  0
   47.7500   34.1500   39.8040 O   0  0  0  0  0  0  0  0  0  0  0  0
   48.1110   35.4550   41.8120 C   0  0  1  0  0  0  0  0  0  0  0  0
   49.3290   34.6500   41.6800 C   0  0  0  0  0  0  0  0  0  0  0  0
   48.4970   35.0630   40.4540 C   0  0  1  0  0  0  0  0  0  0  0  0
   48.2020   36.5240   42.0960 H   0  0  0  0  0  0  0  0  0  0  0  0
   49.3190   33.5510   41.8230 H   0  0  0  0  0  0  0  0  0  0  0  0
   50.3450   35.0670   41.7960 H   0  0  0  0  0  0  0  0  0  0  0  0
   49.0840   35.7300   39.7930 H   0  0  0  0  0  0  0  0  0  0  0  0
   46.0290   32.9410   43.7370 C   0  0  0  0  0  0  0  0  0  0  0  0
   47.1400   33.5990   43.2150 C   0  0  0  0  0  0  0  0  0  0  0  0
   46.9320   34.7300   42.4010 C   0  0  0  0  0  0  0  0  0  0  0  0
   45.6610   35.1510   42.1450 N   0  0  0  0  0  0  0  0  0  0  0  0
   44.5970   34.4840   42.6710 C   0  0  0  0  0  0  0  0  0  0  0  0
   44.7820   33.3840   43.4630 N   0  0  0  0  0  0  0  0  0  0  0  0
   46.1470   32.0760   44.3610 H   0  0  0  0  0  0  0  0  0  0  0  0
   48.1250   33.2410   43.4360 H   0  0  0  0  0  0  0  0  0  0  0  0
   43.6190   34.8740   42.4260 H   0  0  0  0  0  0  0  0  0  0  0  0
   46.7430   34.0340   37.2640 O   0  0  0  0  0  0  0  0  0  0  0  0
   45.7300   33.0960   37.1270 C   0  0  0  0  0  0  0  0  0  0  0  0
   45.5630   32.1700   36.1180 C   0  0  0  0  0  0  0  0  0  0  0  0
   44.5070   31.3080   36.1210 C   0  0  0  0  0  0  0  0  0  0  0  0
   43.5860   31.3470   37.1360 C   0  0  0  0  0  0  0  0  0  0  0  0
   43.7870   32.2970   38.1410 C   0  0  0  0  0  0  0  0  0  0  0  0
   44.8350   33.1470   38.1290 N   0  0  0  0  0  0  0  0  0  0  0  0
   46.3500   32.2240   35.3630 H   0  0  0  0  0  0  0  0  0  0  0  0
   44.5060   30.6390   35.2680 H   0  0  0  0  0  0  0  0  0  0  0  0
   42.7740   30.6510   37.0960 H   0  0  0  0  0  0  0  0  0  0  0  0
   43.1270   31.4680   40.4140 C   0  0  1  0  0  3  0  0  0  0  0  0
   42.7620   32.3070   39.2090 C   0  0  1  0  0  3  0  0  0  0  0  0
   42.5210   33.5270   39.7840 O   0  0  0  0  0  0  0  0  0  0  0  0
   41.6200   33.2190   40.7980 C   0  0  0  0  0  2  0  0  0  0  0  0
   41.9690   31.8610   41.3470 C   0  0  2  0  0  3  0  0  0  0  0  0
   43.1090   30.1160   40.1380 O   0  0  0  0  0  0  0  0  0  0  0  0
   42.4280   29.6430   40.6760 H   0  0  0  0  0  0  0  0  0  0  0  0
   42.3320   31.8500   42.6700 O   0  0  0  0  0  0  0  0  0  0  0  0
   42.0110   32.6090   43.1950 H   0  0  0  0  0  0  0  0  0  0  0  0
  2  1  2  6  0  0  0
  2  5  1  0  0  0  0
  3  2  1  0  0  0  0
  4  3  1  0  0  0  0
  5  8  1  0  0  0  0
  6  9  1  1  0  0  0
  6 15  1  0  0  0  0
  7 11  1  0  0  0  0
  7  6  1  0  0  0  0
  7 10  1  0  0  0  0
  8 12  1  6  0  0  0
  8  7  1  0  0  0  0
  8  6  1  0  0  0  0
 13 19  1  0  0  0  0
 14 20  1  0  0  0  0
 14 13  2  0  0  0  0
 15 14  1  0  0  0  0
 16 15  2  0  0  0  0
 16 17  1  0  0  0  0
 17 18  2  0  0  0  0
 18 13  1  0  0  0  0
 21 17  1  0  0  0  0
 22  2  1  0  0  0  0
 23 22  1  0  0  0  0
 23 28  1  0  0  0  0
 24 25  1  0  0  0  0
 24 23  2  0  0  0  0
 25 26  2  0  0  0  0
 26 27  1  0  0  0  0
 28 27  2  0  0  0  0
 29 24  1  0  0  0  0
 30 25  1  0  0  0  0
 31 26  1  0  0  0  0
 32 37  1  6  0  0  0
 32 36  1  0  0  0  0
 33 27  1  6  0  0  0
 33 34  1  0  0  0  0
 33 32  1  0  0  0  0
 34 35  1  0  0  0  0
 35 36  1  0  0  0  0
 36 39  1  1  0  0  0
 37 38  1  0  0  0  0
 39 40  1  0  0  0  0
M  END
>  <minimizedAffinity>
-5.1722703

>  <minimizedRMSD>
0.588136971

$$$$
