
 OpenBabel03252501063D

 40 43  0  0  1  0  0  0  0  0999 V2000
   48.6650   32.2950   38.0640 O   0  0  0  0  0  0  0  0  0  0  0  0
   48.1080   33.6970   38.3030 P   0  0  2  0  0  0  0  0  0  0  0  0
   49.2320   34.7590   37.6210 O   0  0  0  0  0  0  0  0  0  0  0  0
   48.7280   35.6040   37.4100 H   0  0  0  0  0  0  0  0  0  0  0  0
   47.7640   33.9700   39.8780 O   0  0  0  0  0  0  0  0  0  0  0  0
   47.8690   35.4070   41.8250 C   0  0  1  0  0  0  0  0  0  0  0  0
   49.2200   34.8500   41.7150 C   0  0  0  0  0  0  0  0  0  0  0  0
   48.3210   35.0390   40.4810 C   0  0  1  0  0  0  0  0  0  0  0  0
   47.7500   36.4840   42.0620 H   0  0  0  0  0  0  0  0  0  0  0  0
   49.4250   33.7780   41.9040 H   0  0  0  0  0  0  0  0  0  0  0  0
   50.1350   35.4620   41.8010 H   0  0  0  0  0  0  0  0  0  0  0  0
   48.7650   35.7780   39.7860 H   0  0  0  0  0  0  0  0  0  0  0  0
   46.3070   32.7160   43.9890 C   0  0  0  0  0  0  0  0  0  0  0  0
   47.2650   33.5580   43.4290 C   0  0  0  0  0  0  0  0  0  0  0  0
   46.8560   34.4930   42.4570 C   0  0  0  0  0  0  0  0  0  0  0  0
   45.5450   34.5520   42.0910 N   0  0  0  0  0  0  0  0  0  0  0  0
   44.6340   33.7140   42.6570 C   0  0  0  0  0  0  0  0  0  0  0  0
   45.0150   32.8010   43.6020 N   0  0  0  0  0  0  0  0  0  0  0  0
   46.5800   31.9920   44.7310 H   0  0  0  0  0  0  0  0  0  0  0  0
   48.2870   33.4840   43.7400 H   0  0  0  0  0  0  0  0  0  0  0  0
   43.6120   33.8170   42.3190 H   0  0  0  0  0  0  0  0  0  0  0  0
   46.7230   33.7720   37.3570 O   0  0  0  0  0  0  0  0  0  0  0  0
   45.6090   32.9640   37.5350 C   0  0  0  0  0  0  0  0  0  0  0  0
   45.3380   31.7510   36.9350 C   0  0  0  0  0  0  0  0  0  0  0  0
   44.1910   31.0700   37.2120 C   0  0  0  0  0  0  0  0  0  0  0  0
   43.2790   31.5840   38.0980 C   0  0  0  0  0  0  0  0  0  0  0  0
   43.5860   32.8140   38.6850 C   0  0  0  0  0  0  0  0  0  0  0  0
   44.7240   33.4810   38.4050 N   0  0  0  0  0  0  0  0  0  0  0  0
   46.1280   31.4350   36.2500 H   0  0  0  0  0  0  0  0  0  0  0  0
   44.1150   30.1340   36.6690 H   0  0  0  0  0  0  0  0  0  0  0  0
   42.3930   31.0130   38.2840 H   0  0  0  0  0  0  0  0  0  0  0  0
   42.3650   34.8280   39.5500 C   0  0  1  0  0  3  0  0  0  0  0  0
   42.5670   33.3300   39.6270 C   0  0  1  0  0  3  0  0  0  0  0  0
   41.2930   32.8680   39.4240 O   0  0  0  0  0  0  0  0  0  0  0  0
   40.5510   33.5860   40.3580 C   0  0  0  0  0  2  0  0  0  0  0  0
   41.1530   34.9610   40.4870 C   0  0  2  0  0  3  0  0  0  0  0  0
   43.4510   35.5280   40.0350 O   0  0  0  0  0  0  0  0  0  0  0  0
   43.2120   36.0690   40.8280 H   0  0  0  0  0  0  0  0  0  0  0  0
   40.3220   35.9910   40.1270 O   0  0  0  0  0  0  0  0  0  0  0  0
   39.3660   35.7820   40.1590 H   0  0  0  0  0  0  0  0  0  0  0  0
  2  1  2  6  0  0  0
  2  5  1  0  0  0  0
  3  2  1  0  0  0  0
  4  3  1  0  0  0  0
  5  8  1  0  0  0  0
  6  9  1  1  0  0  0
  6 15  1  0  0  0  0
  7 11  1  0  0  0  0
  7  6  1  0  0  0  0
  7 10  1  0  0  0  0
  8 12  1  6  0  0  0
  8  7  1  0  0  0  0
  8  6  1  0  0  0  0
 13 19  1  0  0  0  0
 14 20  1  0  0  0  0
 14 13  2  0  0  0  0
 15 14  1  0  0  0  0
 16 15  2  0  0  0  0
 16 17  1  0  0  0  0
 17 18  2  0  0  0  0
 18 13  1  0  0  0  0
 21 17  1  0  0  0  0
 22 23  1  0  0  0  0
 22  2  1  0  0  0  0
 23 28  1  0  0  0  0
 24 25  1  0  0  0  0
 24 23  2  0  0  0  0
 25 26  2  0  0  0  0
 26 31  1  0  0  0  0
 26 27  1  0  0  0  0
 28 27  2  0  0  0  0
 29 24  1  0  0  0  0
 30 25  1  0  0  0  0
 32 33  1  0  0  0  0
 32 37  1  1  0  0  0
 32 36  1  0  0  0  0
 33 27  1  6  0  0  0
 34 33  1  0  0  0  0
 34 35  1  0  0  0  0
 35 36  1  0  0  0  0
 36 39  1  6  0  0  0
 37 38  1  0  0  0  0
 39 40  1  0  0  0  0
M  END
>  <minimizedAffinity>
-5.51161003

>  <minimizedRMSD>
1.29847908

$$$$
