
 OpenBabel03252501063D

 40 43  0  0  1  0  0  0  0  0999 V2000
   48.4460   32.4040   38.1120 O   0  0  0  0  0  0  0  0  0  0  0  0
   48.0640   33.8760   38.2580 P   0  0  2  0  0  0  0  0  0  0  0  0
   49.3400   34.7510   37.5790 O   0  0  0  0  0  0  0  0  0  0  0  0
   48.9570   35.6410   37.3040 H   0  0  0  0  0  0  0  0  0  0  0  0
   47.6960   34.2740   39.8010 O   0  0  0  0  0  0  0  0  0  0  0  0
   48.2120   35.4510   41.8540 C   0  0  1  0  0  0  0  0  0  0  0  0
   49.3420   34.5370   41.6690 C   0  0  0  0  0  0  0  0  0  0  0  0
   48.5390   35.0810   40.4750 C   0  0  1  0  0  0  0  0  0  0  0  0
   48.4110   36.4940   42.1790 H   0  0  0  0  0  0  0  0  0  0  0  0
   49.2250   33.4390   41.7670 H   0  0  0  0  0  0  0  0  0  0  0  0
   50.3960   34.8470   41.7840 H   0  0  0  0  0  0  0  0  0  0  0  0
   49.1810   35.7130   39.8310 H   0  0  0  0  0  0  0  0  0  0  0  0
   45.9110   33.0530   43.6740 C   0  0  0  0  0  0  0  0  0  0  0  0
   47.0750   33.6190   43.1590 C   0  0  0  0  0  0  0  0  0  0  0  0
   46.9750   34.8230   42.4330 C   0  0  0  0  0  0  0  0  0  0  0  0
   45.7540   35.4000   42.2540 N   0  0  0  0  0  0  0  0  0  0  0  0
   44.6360   34.8200   42.7700 C   0  0  0  0  0  0  0  0  0  0  0  0
   44.7150   33.6520   43.4770 N   0  0  0  0  0  0  0  0  0  0  0  0
   45.9470   32.1370   44.2320 H   0  0  0  0  0  0  0  0  0  0  0  0
   48.0180   33.1370   43.3190 H   0  0  0  0  0  0  0  0  0  0  0  0
   43.7020   35.3340   42.5880 H   0  0  0  0  0  0  0  0  0  0  0  0
   46.7380   34.0740   37.2480 O   0  0  0  0  0  0  0  0  0  0  0  0
   45.7920   33.0910   36.9960 C   0  0  0  0  0  0  0  0  0  0  0  0
   45.6670   32.3050   35.8690 C   0  0  0  0  0  0  0  0  0  0  0  0
   44.6770   31.3740   35.7660 C   0  0  0  0  0  0  0  0  0  0  0  0
   43.7800   31.2020   36.7900 C   0  0  0  0  0  0  0  0  0  0  0  0
   43.9380   32.0160   37.9150 C   0  0  0  0  0  0  0  0  0  0  0  0
   44.9210   32.9350   38.0080 N   0  0  0  0  0  0  0  0  0  0  0  0
   46.4280   32.5220   35.1170 H   0  0  0  0  0  0  0  0  0  0  0  0
   44.7020   30.8330   34.8270 H   0  0  0  0  0  0  0  0  0  0  0  0
   43.0200   30.4600   36.6650 H   0  0  0  0  0  0  0  0  0  0  0  0
   43.3170   32.4330   40.3100 C   0  0  1  0  0  3  0  0  0  0  0  0
   42.9420   31.8000   38.9890 C   0  0  1  0  0  3  0  0  0  0  0  0
   41.7050   32.3440   38.7620 O   0  0  0  0  0  0  0  0  0  0  0  0
   41.0290   32.0850   39.9510 C   0  0  0  0  0  2  0  0  0  0  0  0
   42.0150   32.1760   41.0860 C   0  0  2  0  0  3  0  0  0  0  0  0
   44.3880   31.8040   40.9090 O   0  0  0  0  0  0  0  0  0  0  0  0
   44.1380   31.4010   41.7770 H   0  0  0  0  0  0  0  0  0  0  0  0
   41.7470   33.1580   42.0060 O   0  0  0  0  0  0  0  0  0  0  0  0
   40.8160   33.4540   42.0360 H   0  0  0  0  0  0  0  0  0  0  0  0
  2  1  2  6  0  0  0
  2  5  1  0  0  0  0
  3  2  1  0  0  0  0
  4  3  1  0  0  0  0
  5  8  1  0  0  0  0
  6  9  1  1  0  0  0
  6 15  1  0  0  0  0
  7 10  1  0  0  0  0
  7 11  1  0  0  0  0
  7  6  1  0  0  0  0
  8 12  1  6  0  0  0
  8  7  1  0  0  0  0
  8  6  1  0  0  0  0
 13 19  1  0  0  0  0
 14 20  1  0  0  0  0
 14 13  2  0  0  0  0
 15 14  1  0  0  0  0
 16 15  2  0  0  0  0
 16 17  1  0  0  0  0
 17 18  2  0  0  0  0
 18 13  1  0  0  0  0
 21 17  1  0  0  0  0
 22  2  1  0  0  0  0
 23 22  1  0  0  0  0
 23 28  1  0  0  0  0
 24 23  2  0  0  0  0
 25 24  1  0  0  0  0
 25 26  2  0  0  0  0
 26 27  1  0  0  0  0
 27 28  2  0  0  0  0
 29 24  1  0  0  0  0
 30 25  1  0  0  0  0
 31 26  1  0  0  0  0
 32 37  1  1  0  0  0
 32 36  1  0  0  0  0
 33 27  1  6  0  0  0
 33 32  1  0  0  0  0
 34 33  1  0  0  0  0
 34 35  1  0  0  0  0
 35 36  1  0  0  0  0
 36 39  1  1  0  0  0
 37 38  1  0  0  0  0
 39 40  1  0  0  0  0
M  END
>  <minimizedAffinity>
-5.00810432

>  <minimizedRMSD>
0.149711952

$$$$
