
 OpenBabel03252501053D

 40 43  0  0  1  0  0  0  0  0999 V2000
   48.7050   32.4760   38.5320 O   0  0  0  0  0  0  0  0  0  0  0  0
   48.0180   33.8410   38.5550 P   0  0  2  0  0  0  0  0  0  0  0  0
   49.0150   34.8710   37.6600 O   0  0  0  0  0  0  0  0  0  0  0  0
   48.4240   35.6170   37.3310 H   0  0  0  0  0  0  0  0  0  0  0  0
   47.6880   34.3450   40.0750 O   0  0  0  0  0  0  0  0  0  0  0  0
   48.3090   35.5770   42.0660 C   0  0  1  0  0  0  0  0  0  0  0  0
   49.4480   34.6880   41.8210 C   0  0  0  0  0  0  0  0  0  0  0  0
   48.5520   35.1870   40.6750 C   0  0  1  0  0  0  0  0  0  0  0  0
   48.5030   36.6300   42.3570 H   0  0  0  0  0  0  0  0  0  0  0  0
   49.3680   33.5900   41.9470 H   0  0  0  0  0  0  0  0  0  0  0  0
   50.4990   35.0270   41.8580 H   0  0  0  0  0  0  0  0  0  0  0  0
   49.1310   35.8230   39.9770 H   0  0  0  0  0  0  0  0  0  0  0  0
   46.1410   33.0430   43.8650 C   0  0  0  0  0  0  0  0  0  0  0  0
   47.2520   33.6230   43.2560 C   0  0  0  0  0  0  0  0  0  0  0  0
   47.1320   34.9280   42.7400 C   0  0  0  0  0  0  0  0  0  0  0  0
   45.9440   35.5880   42.8470 N   0  0  0  0  0  0  0  0  0  0  0  0
   44.8780   34.9910   43.4470 C   0  0  0  0  0  0  0  0  0  0  0  0
   44.9780   33.7240   43.9540 N   0  0  0  0  0  0  0  0  0  0  0  0
   46.1930   32.0500   44.2700 H   0  0  0  0  0  0  0  0  0  0  0  0
   48.1700   33.0750   43.1890 H   0  0  0  0  0  0  0  0  0  0  0  0
   43.9680   35.5730   43.4960 H   0  0  0  0  0  0  0  0  0  0  0  0
   46.6100   33.6240   37.6680 O   0  0  0  0  0  0  0  0  0  0  0  0
   45.5640   32.7960   38.0490 C   0  0  0  0  0  0  0  0  0  0  0  0
   45.4600   31.4310   37.8830 C   0  0  0  0  0  0  0  0  0  0  0  0
   44.3600   30.7500   38.3130 C   0  0  0  0  0  0  0  0  0  0  0  0
   43.3290   31.4190   38.9220 C   0  0  0  0  0  0  0  0  0  0  0  0
   43.4680   32.8010   39.0730 C   0  0  0  0  0  0  0  0  0  0  0  0
   44.5600   33.4650   38.6440 N   0  0  0  0  0  0  0  0  0  0  0  0
   46.3330   31.0000   37.3890 H   0  0  0  0  0  0  0  0  0  0  0  0
   44.4190   29.6860   38.1160 H   0  0  0  0  0  0  0  0  0  0  0  0
   42.4860   30.8430   39.2430 H   0  0  0  0  0  0  0  0  0  0  0  0
   42.5790   33.8400   41.1750 C   0  0  1  0  0  3  0  0  0  0  0  0
   42.3260   33.4780   39.7280 C   0  0  1  0  0  3  0  0  0  0  0  0
   41.9780   34.6910   39.1950 O   0  0  0  0  0  0  0  0  0  0  0  0
   40.9760   35.1300   40.0560 C   0  0  0  0  0  2  0  0  0  0  0  0
   41.3060   34.6610   41.4480 C   0  0  2  0  0  3  0  0  0  0  0  0
   42.6410   32.7300   41.9910 O   0  0  0  0  0  0  0  0  0  0  0  0
   41.9190   32.7330   42.6670 H   0  0  0  0  0  0  0  0  0  0  0  0
   41.5140   35.6640   42.3610 O   0  0  0  0  0  0  0  0  0  0  0  0
   41.1080   36.5230   42.1320 H   0  0  0  0  0  0  0  0  0  0  0  0
  2  1  2  1  0  0  0
  2  5  1  0  0  0  0
  3  2  1  0  0  0  0
  4  3  1  0  0  0  0
  5  8  1  0  0  0  0
  6  9  1  1  0  0  0
  6 15  1  0  0  0  0
  7 11  1  0  0  0  0
  7 10  1  0  0  0  0
  7  6  1  0  0  0  0
  8 12  1  6  0  0  0
  8  7  1  0  0  0  0
  8  6  1  0  0  0  0
 13 18  1  0  0  0  0
 13 19  1  0  0  0  0
 14 13  2  0  0  0  0
 15 16  2  0  0  0  0
 15 14  1  0  0  0  0
 16 17  1  0  0  0  0
 17 21  1  0  0  0  0
 17 18  2  0  0  0  0
 20 14  1  0  0  0  0
 22 23  1  0  0  0  0
 22  2  1  0  0  0  0
 23 28  1  0  0  0  0
 24 23  2  0  0  0  0
 24 25  1  0  0  0  0
 25 26  2  0  0  0  0
 26 27  1  0  0  0  0
 26 31  1  0  0  0  0
 28 27  2  0  0  0  0
 29 24  1  0  0  0  0
 30 25  1  0  0  0  0
 32 36  1  0  0  0  0
 32 37  1  1  0  0  0
 33 27  1  6  0  0  0
 33 32  1  0  0  0  0
 34 33  1  0  0  0  0
 34 35  1  0  0  0  0
 35 36  1  0  0  0  0
 36 39  1  1  0  0  0
 37 38  1  0  0  0  0
 40 39  1  0  0  0  0
M  END
>  <minimizedAffinity>
-5.7709341

>  <minimizedRMSD>
2.36927605

$$$$
