
 OpenBabel03242523553D

 45 48  0  0  1  0  0  0  0  0999 V2000
   42.8100   34.3440   38.9650 C   0  0  1  0  0  0  0  0  0  0  0  0
   43.0270   35.1870   40.2140 C   0  0  1  0  0  0  0  0  0  0  0  0
   41.7740   35.6340   40.6690 O   0  0  0  0  0  0  0  0  0  0  0  0
   40.9020   35.9340   39.6190 C   0  0  0  0  0  0  0  0  0  0  0  0
   40.4540   34.6890   38.8830 C   0  0  2  0  0  0  0  0  0  0  0  0
   41.5380   33.5900   39.1830 C   0  0  1  0  0  0  0  0  0  0  0  0
   43.6790   33.6540   38.8170 H   0  0  0  0  0  0  0  0  0  0  0  0
   43.7230   36.0240   40.0600 H   0  0  0  0  0  0  0  0  0  0  0  0
   41.2680   36.7180   38.9460 H   0  0  0  0  0  0  0  0  0  0  0  0
   39.9930   36.3380   40.1110 H   0  0  0  0  0  0  0  0  0  0  0  0
   39.4740   34.3120   39.2200 H   0  0  0  0  0  0  0  0  0  0  0  0
   41.2900   33.5050   40.2890 H   0  0  0  0  0  0  0  0  0  0  0  0
   42.7160   35.1580   37.8270 O   0  0  0  0  0  0  0  0  0  0  0  0
   43.6220   35.2680   37.4770 H   0  0  0  0  0  0  0  0  0  0  0  0
   40.5260   34.9060   37.5140 O   0  0  0  0  0  0  0  0  0  0  0  0
   40.0250   34.1870   37.0380 H   0  0  0  0  0  0  0  0  0  0  0  0
   43.4370   34.2720   41.2030 O   0  0  0  0  0  0  0  0  0  0  0  0
   44.5880   34.3470   41.8820 C   0  0  0  0  0  0  0  0  0  0  0  0
   45.8160   34.4810   41.2190 C   0  0  0  0  0  0  0  0  0  0  0  0
   46.9720   34.5570   41.9790 C   0  0  0  0  0  0  0  0  0  0  0  0
   46.8820   34.4990   43.3590 N   0  0  0  0  0  0  0  0  0  0  0  0
   45.6800   34.3700   43.9630 C   0  0  0  0  0  0  0  0  0  0  0  0
   44.5380   34.2940   43.2300 N   0  0  0  0  0  0  0  0  0  0  0  0
   45.8640   34.5230   40.1420 H   0  0  0  0  0  0  0  0  0  0  0  0
   45.6290   34.3260   45.0430 H   0  0  0  0  0  0  0  0  0  0  0  0
   48.3200   34.6830   41.3460 C   0  0  0  0  0  0  0  0  0  0  0  0
   49.0440   36.0170   41.5310 C   0  0  0  0  0  0  0  0  0  0  0  0
   49.5120   34.6730   42.1300 C   0  0  0  0  0  0  0  0  0  0  0  0
   48.3110   34.2850   40.2940 H   0  0  0  0  0  0  0  0  0  0  0  0
   48.5800   36.7440   42.2130 H   0  0  0  0  0  0  0  0  0  0  0  0
   49.6110   36.3730   40.6520 H   0  0  0  0  0  0  0  0  0  0  0  0
   50.4520   34.2550   41.7190 H   0  0  0  0  0  0  0  0  0  0  0  0
   49.4850   34.6290   43.2360 H   0  0  0  0  0  0  0  0  0  0  0  0
   41.3000   32.5510   38.3650 O   0  0  0  0  0  0  0  0  0  0  0  0
   40.3230   31.6170   38.4360 C   0  0  0  0  0  0  0  0  0  0  0  0
   39.8440   31.0700   37.3490 O   0  0  0  0  0  0  0  0  0  0  0  0
   39.4670   30.8570   39.3000 N   0  0  0  0  0  0  0  0  0  0  0  0
   38.9190   31.7700   40.2870 C   0  0  0  0  0  3  0  0  0  0  0  0
   39.6580   32.2990   40.8840 H   0  0  0  0  0  0  0  0  0  0  0  0
   37.9140   31.0130   41.1160 C   0  0  0  0  0  3  0  0  0  0  0  0
   37.0200   30.7950   40.5040 H   0  0  0  0  0  0  0  0  0  0  0  0
   38.4660   29.8230   41.7030 N   0  0  0  0  0  0  0  0  0  0  0  0
   37.6680   29.2790   42.1130 H   0  0  0  0  0  0  0  0  0  0  0  0
   39.2370   29.0270   40.7940 C   0  0  0  0  0  2  0  0  0  0  0  0
   39.1010   29.4800   39.3410 C   0  0  0  0  0  2  0  0  0  0  0  0
  1  7  1  6  0  0  0
  1  6  1  0  0  0  0
  1  2  1  0  0  0  0
  2  8  1  6  0  0  0
  2  3  1  0  0  0  0
  2 17  1  0  0  0  0
  4 10  1  0  0  0  0
  4  3  1  0  0  0  0
  5  6  1  0  0  0  0
  5 11  1  1  0  0  0
  5  4  1  0  0  0  0
  6 12  1  1  0  0  0
  9  4  1  0  0  0  0
 13  1  1  0  0  0  0
 14 13  1  0  0  0  0
 15  5  1  0  0  0  0
 16 15  1  0  0  0  0
 17 18  1  0  0  0  0
 18 23  1  0  0  0  0
 19 18  2  0  0  0  0
 19 20  1  0  0  0  0
 20 21  2  0  0  0  0
 21 22  1  0  0  0  0
 22 25  1  0  0  0  0
 23 22  2  0  0  0  0
 24 19  1  0  0  0  0
 26 27  1  0  0  0  0
 26 20  1  0  0  0  0
 26 28  1  0  0  0  0
 27 28  1  0  0  0  0
 27 30  1  0  0  0  0
 28 33  1  0  0  0  0
 29 26  1  0  0  0  0
 31 27  1  0  0  0  0
 32 28  1  0  0  0  0
 34 35  1  0  0  0  0
 34  6  1  0  0  0  0
 35 37  1  0  0  0  0
 36 35  2  0  0  0  0
 37 45  1  0  0  0  0
 37 38  1  0  0  0  0
 38 39  1  0  0  0  0
 38 40  1  0  0  0  0
 40 42  1  0  0  0  0
 41 40  1  0  0  0  0
 42 43  1  0  0  0  0
 44 42  1  0  0  0  0
 45 44  1  0  0  0  0
M  END
>  <minimizedAffinity>
-6.48067856

>  <minimizedRMSD>
1.75218272

$$$$
