
 OpenBabel03242523553D

 45 48  0  0  1  0  0  0  0  0999 V2000
   42.8160   34.4970   38.7650 C   0  0  1  0  0  0  0  0  0  0  0  0
   42.9560   35.1820   40.1180 C   0  0  1  0  0  0  0  0  0  0  0  0
   41.6680   35.4130   40.6320 O   0  0  0  0  0  0  0  0  0  0  0  0
   40.7480   35.7470   39.6340 C   0  0  0  0  0  0  0  0  0  0  0  0
   40.4360   34.5700   38.7360 C   0  0  2  0  0  0  0  0  0  0  0  0
   41.6450   33.5750   38.8800 C   0  0  1  0  0  0  0  0  0  0  0  0
   43.7580   33.9400   38.5220 H   0  0  0  0  0  0  0  0  0  0  0  0
   43.5470   36.1090   40.0780 H   0  0  0  0  0  0  0  0  0  0  0  0
   41.0080   36.6530   39.0740 H   0  0  0  0  0  0  0  0  0  0  0  0
   39.8070   35.9700   40.1790 H   0  0  0  0  0  0  0  0  0  0  0  0
   39.5120   34.0380   39.0190 H   0  0  0  0  0  0  0  0  0  0  0  0
   41.4280   33.3130   39.9650 H   0  0  0  0  0  0  0  0  0  0  0  0
   42.6080   35.4410   37.7500 O   0  0  0  0  0  0  0  0  0  0  0  0
   43.4880   35.7040   37.4160 H   0  0  0  0  0  0  0  0  0  0  0  0
   40.4560   34.9770   37.4090 O   0  0  0  0  0  0  0  0  0  0  0  0
   40.0340   34.2760   36.8400 H   0  0  0  0  0  0  0  0  0  0  0  0
   43.4880   34.1960   40.9710 O   0  0  0  0  0  0  0  0  0  0  0  0
   44.6010   34.3380   41.7000 C   0  0  0  0  0  0  0  0  0  0  0  0
   45.8610   34.4390   41.0930 C   0  0  0  0  0  0  0  0  0  0  0  0
   46.9740   34.5880   41.9040 C   0  0  0  0  0  0  0  0  0  0  0  0
   46.8130   34.6320   43.2780 N   0  0  0  0  0  0  0  0  0  0  0  0
   45.5820   34.5320   43.8280 C   0  0  0  0  0  0  0  0  0  0  0  0
   44.4800   34.3860   43.0440 N   0  0  0  0  0  0  0  0  0  0  0  0
   45.9650   34.4010   40.0200 H   0  0  0  0  0  0  0  0  0  0  0  0
   45.4750   34.5690   44.9030 H   0  0  0  0  0  0  0  0  0  0  0  0
   48.3520   34.6850   41.3340 C   0  0  0  0  0  0  0  0  0  0  0  0
   49.0750   36.0210   41.5050 C   0  0  0  0  0  0  0  0  0  0  0  0
   49.5050   34.6990   42.1750 C   0  0  0  0  0  0  0  0  0  0  0  0
   48.3920   34.2480   40.2980 H   0  0  0  0  0  0  0  0  0  0  0  0
   48.5820   36.7750   42.1360 H   0  0  0  0  0  0  0  0  0  0  0  0
   49.6860   36.3430   40.6420 H   0  0  0  0  0  0  0  0  0  0  0  0
   50.4610   34.2610   41.8260 H   0  0  0  0  0  0  0  0  0  0  0  0
   49.4240   34.6950   43.2800 H   0  0  0  0  0  0  0  0  0  0  0  0
   41.5150   32.6370   37.9280 O   0  0  0  0  0  0  0  0  0  0  0  0
   40.8360   31.4660   37.9730 C   0  0  0  0  0  0  0  0  0  0  0  0
   39.6380   31.3710   37.4560 O   0  0  0  0  0  0  0  0  0  0  0  0
   40.8580   30.0960   38.3930 N   0  0  0  0  0  0  0  0  0  0  0  0
   42.1320   29.8590   39.0470 C   0  0  0  0  0  3  0  0  0  0  0  0
   43.0090   30.0650   38.4370 H   0  0  0  0  0  0  0  0  0  0  0  0
   42.1150   28.4630   39.6130 C   0  0  0  0  0  3  0  0  0  0  0  0
   41.4200   28.4210   40.4720 H   0  0  0  0  0  0  0  0  0  0  0  0
   41.8040   27.4690   38.6220 N   0  0  0  0  0  0  0  0  0  0  0  0
   41.6460   26.5640   39.1280 H   0  0  0  0  0  0  0  0  0  0  0  0
   40.6910   27.8070   37.7860 C   0  0  0  0  0  2  0  0  0  0  0  0
   39.9190   29.0290   38.2830 C   0  0  0  0  0  2  0  0  0  0  0  0
  1  7  1  6  0  0  0
  1  6  1  0  0  0  0
  1  2  1  0  0  0  0
  2  8  1  6  0  0  0
  2  3  1  0  0  0  0
  2 17  1  0  0  0  0
  4 10  1  0  0  0  0
  4  3  1  0  0  0  0
  5  6  1  0  0  0  0
  5 11  1  1  0  0  0
  5  4  1  0  0  0  0
  6 12  1  1  0  0  0
  9  4  1  0  0  0  0
 13  1  1  0  0  0  0
 14 13  1  0  0  0  0
 15  5  1  0  0  0  0
 16 15  1  0  0  0  0
 17 18  1  0  0  0  0
 18 23  1  0  0  0  0
 19 18  2  0  0  0  0
 19 20  1  0  0  0  0
 20 21  2  0  0  0  0
 21 22  1  0  0  0  0
 22 25  1  0  0  0  0
 23 22  2  0  0  0  0
 24 19  1  0  0  0  0
 26 27  1  0  0  0  0
 26 20  1  0  0  0  0
 26 28  1  0  0  0  0
 27 30  1  0  0  0  0
 27 28  1  0  0  0  0
 28 33  1  0  0  0  0
 29 26  1  0  0  0  0
 31 27  1  0  0  0  0
 32 28  1  0  0  0  0
 34 35  1  0  0  0  0
 34  6  1  0  0  0  0
 35 37  1  0  0  0  0
 36 35  2  0  0  0  0
 37 38  1  0  0  0  0
 38 40  1  0  0  0  0
 39 38  1  0  0  0  0
 40 41  1  0  0  0  0
 42 43  1  0  0  0  0
 42 40  1  0  0  0  0
 44 45  1  0  0  0  0
 44 42  1  0  0  0  0
 45 37  1  0  0  0  0
M  END
>  <minimizedAffinity>
-5.89509773

>  <minimizedRMSD>
0.111465417

$$$$
