
 OpenBabel03242523563D

 45 48  0  0  1  0  0  0  0  0999 V2000
   37.2390   30.7520   41.4500 C   0  0  1  0  0  0  0  0  0  0  0  0
   37.2780   29.2330   41.3490 C   0  0  1  0  0  0  0  0  0  0  0  0
   37.5830   28.8860   40.0220 O   0  0  0  0  0  0  0  0  0  0  0  0
   36.9990   29.7550   39.0960 C   0  0  0  0  0  0  0  0  0  0  0  0
   37.6330   31.1290   39.1310 C   0  0  2  0  0  0  0  0  0  0  0  0
   38.3120   31.2610   40.5430 C   0  0  1  0  0  0  0  0  0  0  0  0
   37.4100   31.0670   42.5110 H   0  0  0  0  0  0  0  0  0  0  0  0
   36.3510   28.7490   41.6900 H   0  0  0  0  0  0  0  0  0  0  0  0
   35.9050   29.7890   39.1460 H   0  0  0  0  0  0  0  0  0  0  0  0
   37.2570   29.3280   38.1040 H   0  0  0  0  0  0  0  0  0  0  0  0
   38.4060   31.2730   38.3590 H   0  0  0  0  0  0  0  0  0  0  0  0
   39.1020   30.4670   40.3480 H   0  0  0  0  0  0  0  0  0  0  0  0
   35.9840   31.2430   41.0600 O   0  0  0  0  0  0  0  0  0  0  0  0
   35.4250   31.2730   41.8610 H   0  0  0  0  0  0  0  0  0  0  0  0
   36.6420   32.1000   39.1120 O   0  0  0  0  0  0  0  0  0  0  0  0
   37.0490   32.9860   38.9070 H   0  0  0  0  0  0  0  0  0  0  0  0
   38.4260   28.8510   42.0700 O   0  0  0  0  0  0  0  0  0  0  0  0
   38.7260   27.5940   42.4160 C   0  0  0  0  0  0  0  0  0  0  0  0
   37.9350   26.5150   41.9940 C   0  0  0  0  0  0  0  0  0  0  0  0
   38.3000   25.2370   42.3830 C   0  0  0  0  0  0  0  0  0  0  0  0
   39.4260   25.0620   43.1710 N   0  0  0  0  0  0  0  0  0  0  0  0
   40.1640   26.1270   43.5580 C   0  0  0  0  0  0  0  0  0  0  0  0
   39.8170   27.3870   43.1840 N   0  0  0  0  0  0  0  0  0  0  0  0
   37.0610   26.6730   41.3810 H   0  0  0  0  0  0  0  0  0  0  0  0
   41.0390   25.9710   44.1740 H   0  0  0  0  0  0  0  0  0  0  0  0
   37.5000   24.0380   41.9890 C   0  0  0  0  0  0  0  0  0  0  0  0
   36.5730   24.1960   40.7840 C   0  0  0  0  0  0  0  0  0  0  0  0
   37.8180   23.2850   40.8190 C   0  0  0  0  0  0  0  0  0  0  0  0
   37.0370   23.5480   42.8890 H   0  0  0  0  0  0  0  0  0  0  0  0
   36.6470   25.1370   40.2210 H   0  0  0  0  0  0  0  0  0  0  0  0
   35.5990   23.6800   40.8660 H   0  0  0  0  0  0  0  0  0  0  0  0
   37.6280   22.1940   40.7840 H   0  0  0  0  0  0  0  0  0  0  0  0
   38.6300   23.5890   40.1300 H   0  0  0  0  0  0  0  0  0  0  0  0
   38.6800   32.5440   40.6980 O   0  0  0  0  0  0  0  0  0  0  0  0
   39.7850   33.1750   40.2350 C   0  0  0  0  0  0  0  0  0  0  0  0
   40.1980   34.2860   40.7890 O   0  0  0  0  0  0  0  0  0  0  0  0
   40.8470   33.1570   39.2740 N   0  0  0  0  0  0  0  0  0  0  0  0
   41.2150   34.5350   39.0030 C   0  0  0  0  0  3  0  0  0  0  0  0
   40.4070   35.1640   38.6380 H   0  0  0  0  0  0  0  0  0  0  0  0
   42.4200   34.5280   38.0970 C   0  0  0  0  0  3  0  0  0  0  0  0
   43.3030   34.1740   38.6610 H   0  0  0  0  0  0  0  0  0  0  0  0
   42.2060   33.7620   36.9000 N   0  0  0  0  0  0  0  0  0  0  0  0
   43.1340   33.6690   36.4190 H   0  0  0  0  0  0  0  0  0  0  0  0
   41.5980   32.4840   37.1240 C   0  0  0  0  0  2  0  0  0  0  0  0
   41.5350   32.1040   38.6040 C   0  0  0  0  0  2  0  0  0  0  0  0
  1  7  1  1  0  0  0
  2  1  1  0  0  0  0
  2  8  1  1  0  0  0
  2 17  1  0  0  0  0
  3  2  1  0  0  0  0
  4  5  1  0  0  0  0
  4  9  1  0  0  0  0
  4  3  1  0  0  0  0
  5 11  1  6  0  0  0
  5  6  1  0  0  0  0
  6 12  1  1  0  0  0
  6 34  1  0  0  0  0
  6  1  1  0  0  0  0
 10  4  1  0  0  0  0
 13  1  1  0  0  0  0
 13 14  1  0  0  0  0
 15  5  1  0  0  0  0
 16 15  1  0  0  0  0
 17 18  1  0  0  0  0
 18 23  1  0  0  0  0
 19 20  1  0  0  0  0
 19 18  2  0  0  0  0
 20 21  2  0  0  0  0
 21 22  1  0  0  0  0
 22 25  1  0  0  0  0
 23 22  2  0  0  0  0
 24 19  1  0  0  0  0
 26 20  1  0  0  0  0
 26 29  1  0  0  0  0
 27 28  1  0  0  0  0
 27 31  1  0  0  0  0
 27 26  1  0  0  0  0
 28 26  1  0  0  0  0
 30 27  1  0  0  0  0
 32 28  1  0  0  0  0
 33 28  1  0  0  0  0
 35 34  1  0  0  0  0
 35 36  2  0  0  0  0
 37 35  1  0  0  0  0
 38 37  1  0  0  0  0
 39 38  1  0  0  0  0
 40 41  1  0  0  0  0
 40 38  1  0  0  0  0
 42 44  1  0  0  0  0
 42 40  1  0  0  0  0
 43 42  1  0  0  0  0
 44 45  1  0  0  0  0
 45 37  1  0  0  0  0
M  END
>  <minimizedAffinity>
-6.64880753

$$$$

 OpenBabel03242523563D

 45 48  0  0  1  0  0  0  0  0999 V2000
   38.2990   32.2650   39.3490 C   0  0  1  0  0  0  0  0  0  0  0  0
   37.8060   30.9000   39.8140 C   0  0  1  0  0  0  0  0  0  0  0  0
   38.4710   29.9120   39.0670 O   0  0  0  0  0  0  0  0  0  0  0  0
   38.6840   30.2990   37.7410 C   0  0  0  0  0  0  0  0  0  0  0  0
   39.7100   31.4070   37.6330 C   0  0  2  0  0  0  0  0  0  0  0  0
   39.7530   32.1040   39.0420 C   0  0  1  0  0  0  0  0  0  0  0  0
   38.1280   33.0240   40.1540 H   0  0  0  0  0  0  0  0  0  0  0  0
   36.7140   30.7860   39.7510 H   0  0  0  0  0  0  0  0  0  0  0  0
   37.7630   30.5170   37.1880 H   0  0  0  0  0  0  0  0  0  0  0  0
   39.1440   29.4130   37.2560 H   0  0  0  0  0  0  0  0  0  0  0  0
   40.7230   31.0410   37.3960 H   0  0  0  0  0  0  0  0  0  0  0  0
   40.1950   31.2070   39.5830 H   0  0  0  0  0  0  0  0  0  0  0  0
   37.5940   32.6850   38.2120 O   0  0  0  0  0  0  0  0  0  0  0  0
   36.8130   33.1820   38.5260 H   0  0  0  0  0  0  0  0  0  0  0  0
   39.2530   32.3830   36.7580 O   0  0  0  0  0  0  0  0  0  0  0  0
   40.0070   32.9860   36.5110 H   0  0  0  0  0  0  0  0  0  0  0  0
   38.3280   30.7490   41.1130 O   0  0  0  0  0  0  0  0  0  0  0  0
   38.2090   29.6450   41.8590 C   0  0  0  0  0  0  0  0  0  0  0  0
   39.3320   29.0140   42.4120 C   0  0  0  0  0  0  0  0  0  0  0  0
   39.1410   27.8760   43.1770 C   0  0  0  0  0  0  0  0  0  0  0  0
   37.8570   27.3970   43.3730 N   0  0  0  0  0  0  0  0  0  0  0  0
   36.7970   28.0320   42.8250 C   0  0  0  0  0  0  0  0  0  0  0  0
   36.9700   29.1500   42.0710 N   0  0  0  0  0  0  0  0  0  0  0  0
   40.3250   29.4040   42.2460 H   0  0  0  0  0  0  0  0  0  0  0  0
   35.8010   27.6430   42.9880 H   0  0  0  0  0  0  0  0  0  0  0  0
   40.2900   27.1380   43.7860 C   0  0  0  0  0  0  0  0  0  0  0  0
   40.3090   25.6210   43.5970 C   0  0  0  0  0  0  0  0  0  0  0  0
   41.3350   26.5960   42.9800 C   0  0  0  0  0  0  0  0  0  0  0  0
   40.4870   27.4920   44.8350 H   0  0  0  0  0  0  0  0  0  0  0  0
   39.5480   25.1940   42.9280 H   0  0  0  0  0  0  0  0  0  0  0  0
   40.6640   25.0400   44.4670 H   0  0  0  0  0  0  0  0  0  0  0  0
   42.3700   26.5300   43.3700 H   0  0  0  0  0  0  0  0  0  0  0  0
   41.3100   26.6510   41.8740 H   0  0  0  0  0  0  0  0  0  0  0  0
   40.4750   33.2290   38.9170 O   0  0  0  0  0  0  0  0  0  0  0  0
   41.8150   33.3730   38.7890 C   0  0  0  0  0  0  0  0  0  0  0  0
   42.4220   34.4210   39.2820 O   0  0  0  0  0  0  0  0  0  0  0  0
   43.0270   32.7990   38.2840 N   0  0  0  0  0  0  0  0  0  0  0  0
   43.9260   33.8920   37.9600 C   0  0  0  0  0  3  0  0  0  0  0  0
   43.5380   34.6100   37.2420 H   0  0  0  0  0  0  0  0  0  0  0  0
   45.2530   33.3020   37.5550 C   0  0  0  0  0  3  0  0  0  0  0  0
   45.7490   32.8690   38.4430 H   0  0  0  0  0  0  0  0  0  0  0  0
   45.1300   32.3470   36.4890 N   0  0  0  0  0  0  0  0  0  0  0  0
   46.0590   31.8690   36.3910 H   0  0  0  0  0  0  0  0  0  0  0  0
   44.0670   31.4030   36.6690 C   0  0  0  0  0  2  0  0  0  0  0  0
   43.4520   31.4560   38.0690 C   0  0  0  0  0  2  0  0  0  0  0  0
  1  2  1  0  0  0  0
  1  7  1  1  0  0  0
  2  8  1  6  0  0  0
  2 17  1  0  0  0  0
  3  2  1  0  0  0  0
  4  3  1  0  0  0  0
  5 11  1  6  0  0  0
  5  4  1  0  0  0  0
  5  6  1  0  0  0  0
  6  1  1  0  0  0  0
  6 12  1  1  0  0  0
  9  4  1  0  0  0  0
 10  4  1  0  0  0  0
 13 14  1  0  0  0  0
 13  1  1  0  0  0  0
 15  5  1  0  0  0  0
 16 15  1  0  0  0  0
 17 18  1  0  0  0  0
 18 23  2  0  0  0  0
 18 19  1  0  0  0  0
 19 20  2  0  0  0  0
 20 21  1  0  0  0  0
 20 26  1  0  0  0  0
 22 25  1  0  0  0  0
 22 21  2  0  0  0  0
 23 22  1  0  0  0  0
 24 19  1  0  0  0  0
 26 29  1  0  0  0  0
 27 26  1  0  0  0  0
 27 31  1  0  0  0  0
 28 32  1  0  0  0  0
 28 27  1  0  0  0  0
 28 26  1  0  0  0  0
 30 27  1  0  0  0  0
 33 28  1  0  0  0  0
 34  6  1  0  0  0  0
 35 34  1  0  0  0  0
 35 36  2  0  0  0  0
 37 35  1  0  0  0  0
 38 37  1  0  0  0  0
 39 38  1  0  0  0  0
 40 38  1  0  0  0  0
 40 41  1  0  0  0  0
 42 44  1  0  0  0  0
 42 40  1  0  0  0  0
 43 42  1  0  0  0  0
 44 45  1  0  0  0  0
 45 37  1  0  0  0  0
M  END
>  <minimizedAffinity>
-6.25620747

$$$$

 OpenBabel03242523563D

 45 48  0  0  1  0  0  0  0  0999 V2000
   37.5770   32.1580   38.9530 C   0  0  1  0  0  0  0  0  0  0  0  0
   36.9430   30.7880   39.1600 C   0  0  1  0  0  0  0  0  0  0  0  0
   37.8360   29.8120   38.6840 O   0  0  0  0  0  0  0  0  0  0  0  0
   38.5280   30.2320   37.5450 C   0  0  0  0  0  0  0  0  0  0  0  0
   39.5240   31.3280   37.8600 C   0  0  2  0  0  0  0  0  0  0  0  0
   39.0400   31.9860   39.2040 C   0  0  1  0  0  0  0  0  0  0  0  0
   37.1200   32.8970   39.6600 H   0  0  0  0  0  0  0  0  0  0  0  0
   35.9530   30.6910   38.6920 H   0  0  0  0  0  0  0  0  0  0  0  0
   37.8800   30.4770   36.6960 H   0  0  0  0  0  0  0  0  0  0  0  0
   39.1330   29.3530   37.2400 H   0  0  0  0  0  0  0  0  0  0  0  0
   40.5510   30.9550   38.0060 H   0  0  0  0  0  0  0  0  0  0  0  0
   39.2470   31.0690   39.8440 H   0  0  0  0  0  0  0  0  0  0  0  0
   37.3470   32.6190   37.6490 O   0  0  0  0  0  0  0  0  0  0  0  0
   36.5070   33.1180   37.6650 H   0  0  0  0  0  0  0  0  0  0  0  0
   39.4270   32.3330   36.9090 O   0  0  0  0  0  0  0  0  0  0  0  0
   40.2210   32.9330   36.9780 H   0  0  0  0  0  0  0  0  0  0  0  0
   36.9440   30.5950   40.5550 O   0  0  0  0  0  0  0  0  0  0  0  0
   37.4120   29.5040   41.1730 C   0  0  0  0  0  0  0  0  0  0  0  0
   36.8560   28.2390   40.9370 C   0  0  0  0  0  0  0  0  0  0  0  0
   37.3870   27.1480   41.6060 C   0  0  0  0  0  0  0  0  0  0  0  0
   38.4420   27.3370   42.4820 N   0  0  0  0  0  0  0  0  0  0  0  0
   38.9530   28.5730   42.6840 C   0  0  0  0  0  0  0  0  0  0  0  0
   38.4420   29.6520   42.0340 N   0  0  0  0  0  0  0  0  0  0  0  0
   36.0320   28.1130   40.2510 H   0  0  0  0  0  0  0  0  0  0  0  0
   39.7780   28.7010   43.3720 H   0  0  0  0  0  0  0  0  0  0  0  0
   36.8380   25.7710   41.4210 C   0  0  0  0  0  0  0  0  0  0  0  0
   37.7400   24.7610   40.7110 C   0  0  0  0  0  0  0  0  0  0  0  0
   37.3180   24.6700   42.1930 C   0  0  0  0  0  0  0  0  0  0  0  0
   35.7750   25.8060   41.0540 H   0  0  0  0  0  0  0  0  0  0  0  0
   38.7690   25.0810   40.4940 H   0  0  0  0  0  0  0  0  0  0  0  0
   37.2240   24.0680   40.0220 H   0  0  0  0  0  0  0  0  0  0  0  0
   36.6420   23.8340   42.4600 H   0  0  0  0  0  0  0  0  0  0  0  0
   38.1500   24.7800   42.9160 H   0  0  0  0  0  0  0  0  0  0  0  0
   39.7600   33.1040   39.3910 O   0  0  0  0  0  0  0  0  0  0  0  0
   41.0560   33.2320   39.7590 C   0  0  0  0  0  0  0  0  0  0  0  0
   41.3840   33.3260   41.0210 O   0  0  0  0  0  0  0  0  0  0  0  0
   42.4140   33.3200   39.3090 N   0  0  0  0  0  0  0  0  0  0  0  0
   43.1430   34.1240   40.2740 C   0  0  0  0  0  3  0  0  0  0  0  0
   42.7490   35.1240   40.4310 H   0  0  0  0  0  0  0  0  0  0  0  0
   44.6000   34.1110   39.8870 C   0  0  0  0  0  3  0  0  0  0  0  0
   45.0230   33.1080   40.0770 H   0  0  0  0  0  0  0  0  0  0  0  0
   44.8150   34.5360   38.5310 N   0  0  0  0  0  0  0  0  0  0  0  0
   45.8180   34.3360   38.2970 H   0  0  0  0  0  0  0  0  0  0  0  0
   43.9220   33.9390   37.5820 C   0  0  0  0  0  2  0  0  0  0  0  0
   43.1000   32.7940   38.1760 C   0  0  0  0  0  2  0  0  0  0  0  0
  1  2  1  0  0  0  0
  1  6  1  0  0  0  0
  1  7  1  1  0  0  0
  2  8  1  6  0  0  0
  2 17  1  0  0  0  0
  3  2  1  0  0  0  0
  4  5  1  0  0  0  0
  4  3  1  0  0  0  0
  5 11  1  1  0  0  0
  5  6  1  0  0  0  0
  6 34  1  0  0  0  0
  6 12  1  1  0  0  0
  9  4  1  0  0  0  0
 10  4  1  0  0  0  0
 13 14  1  0  0  0  0
 13  1  1  0  0  0  0
 15 16  1  0  0  0  0
 15  5  1  0  0  0  0
 17 18  1  0  0  0  0
 18 23  1  0  0  0  0
 19 18  2  0  0  0  0
 19 20  1  0  0  0  0
 20 21  2  0  0  0  0
 21 22  1  0  0  0  0
 22 25  1  0  0  0  0
 23 22  2  0  0  0  0
 24 19  1  0  0  0  0
 26 20  1  0  0  0  0
 26 28  1  0  0  0  0
 27 26  1  0  0  0  0
 27 28  1  0  0  0  0
 28 32  1  0  0  0  0
 28 33  1  0  0  0  0
 29 26  1  0  0  0  0
 30 27  1  0  0  0  0
 31 27  1  0  0  0  0
 34 35  1  0  0  0  0
 35 36  2  0  0  0  0
 37 35  1  0  0  0  0
 37 38  1  0  0  0  0
 38 39  1  0  0  0  0
 40 41  1  0  0  0  0
 40 38  1  0  0  0  0
 42 40  1  0  0  0  0
 43 42  1  0  0  0  0
 44 45  1  0  0  0  0
 44 42  1  0  0  0  0
 45 37  1  0  0  0  0
M  END
>  <minimizedAffinity>
-6.08454752

$$$$

 OpenBabel03242523563D

 45 48  0  0  1  0  0  0  0  0999 V2000
   39.1380   32.0340   40.7100 C   0  0  1  0  0  0  0  0  0  0  0  0
   37.6760   32.4250   40.5400 C   0  0  1  0  0  0  0  0  0  0  0  0
   37.6240   33.6950   39.9390 O   0  0  0  0  0  0  0  0  0  0  0  0
   38.6520   34.5340   40.3780 C   0  0  0  0  0  0  0  0  0  0  0  0
   40.0050   34.0870   39.8680 C   0  0  2  0  0  0  0  0  0  0  0  0
   39.8560   32.5630   39.5100 C   0  0  1  0  0  0  0  0  0  0  0  0
   39.2270   30.9200   40.7870 H   0  0  0  0  0  0  0  0  0  0  0  0
   37.1060   32.3990   41.4800 H   0  0  0  0  0  0  0  0  0  0  0  0
   38.6440   34.7190   41.4590 H   0  0  0  0  0  0  0  0  0  0  0  0
   38.4500   35.5090   39.8880 H   0  0  0  0  0  0  0  0  0  0  0  0
   40.3290   34.6260   38.9620 H   0  0  0  0  0  0  0  0  0  0  0  0
   39.1430   32.7340   38.6410 H   0  0  0  0  0  0  0  0  0  0  0  0
   39.6650   32.5840   41.8870 O   0  0  0  0  0  0  0  0  0  0  0  0
   39.5100   31.9360   42.6020 H   0  0  0  0  0  0  0  0  0  0  0  0
   40.9300   34.1290   40.9010 O   0  0  0  0  0  0  0  0  0  0  0  0
   41.8510   34.0590   40.5250 H   0  0  0  0  0  0  0  0  0  0  0  0
   37.1830   31.5600   39.5430 O   0  0  0  0  0  0  0  0  0  0  0  0
   36.8690   30.2740   39.7370 C   0  0  0  0  0  0  0  0  0  0  0  0
   36.8050   29.7270   41.0270 C   0  0  0  0  0  0  0  0  0  0  0  0
   36.4710   28.3890   41.1610 C   0  0  0  0  0  0  0  0  0  0  0  0
   36.2130   27.6370   40.0290 N   0  0  0  0  0  0  0  0  0  0  0  0
   36.2830   28.1980   38.8010 C   0  0  0  0  0  0  0  0  0  0  0  0
   36.6100   29.5100   38.6540 N   0  0  0  0  0  0  0  0  0  0  0  0
   37.0110   30.3310   41.8970 H   0  0  0  0  0  0  0  0  0  0  0  0
   36.0790   27.5950   37.9270 H   0  0  0  0  0  0  0  0  0  0  0  0
   36.4000   27.7290   42.5000 C   0  0  0  0  0  0  0  0  0  0  0  0
   37.5400   26.7770   42.8590 C   0  0  0  0  0  0  0  0  0  0  0  0
   37.2620   28.1200   43.5680 C   0  0  0  0  0  0  0  0  0  0  0  0
   35.3650   27.3350   42.7010 H   0  0  0  0  0  0  0  0  0  0  0  0
   38.3900   26.7350   42.1640 H   0  0  0  0  0  0  0  0  0  0  0  0
   37.2420   25.8700   43.4160 H   0  0  0  0  0  0  0  0  0  0  0  0
   36.9190   28.0570   44.6200 H   0  0  0  0  0  0  0  0  0  0  0  0
   38.0530   28.8830   43.4330 H   0  0  0  0  0  0  0  0  0  0  0  0
   41.0870   32.0780   39.2770 O   0  0  0  0  0  0  0  0  0  0  0  0
   41.6450   31.6980   38.1030 C   0  0  0  0  0  0  0  0  0  0  0  0
   40.8980   31.2550   37.1240 O   0  0  0  0  0  0  0  0  0  0  0  0
   42.8610   31.5490   37.3600 N   0  0  0  0  0  0  0  0  0  0  0  0
   42.6760   30.4460   36.4350 C   0  0  0  0  0  3  0  0  0  0  0  0
   42.4160   29.4970   36.8970 H   0  0  0  0  0  0  0  0  0  0  0  0
   43.8960   30.3650   35.5540 C   0  0  0  0  0  3  0  0  0  0  0  0
   43.9100   31.2280   34.8620 H   0  0  0  0  0  0  0  0  0  0  0  0
   45.1150   30.2620   36.3070 N   0  0  0  0  0  0  0  0  0  0  0  0
   45.9100   30.3830   35.6330 H   0  0  0  0  0  0  0  0  0  0  0  0
   45.2070   31.1850   37.4000 C   0  0  0  0  0  2  0  0  0  0  0  0
   44.1050   32.2450   37.3800 C   0  0  0  0  0  2  0  0  0  0  0  0
  1  7  1  1  0  0  0
  1 13  1  0  0  0  0
  2  1  1  0  0  0  0
  2  8  1  1  0  0  0
  3  4  1  0  0  0  0
  3  2  1  0  0  0  0
  4  9  1  0  0  0  0
  5 11  1  6  0  0  0
  5  4  1  0  0  0  0
  5 15  1  0  0  0  0
  6 12  1  6  0  0  0
  6  5  1  0  0  0  0
  6  1  1  0  0  0  0
 10  4  1  0  0  0  0
 13 14  1  0  0  0  0
 16 15  1  0  0  0  0
 17 18  1  0  0  0  0
 17  2  1  0  0  0  0
 18 19  1  0  0  0  0
 19 20  2  0  0  0  0
 19 24  1  0  0  0  0
 20 26  1  0  0  0  0
 21 20  1  0  0  0  0
 22 21  2  0  0  0  0
 23 22  1  0  0  0  0
 23 18  2  0  0  0  0
 25 22  1  0  0  0  0
 26 29  1  0  0  0  0
 26 27  1  0  0  0  0
 26 28  1  0  0  0  0
 27 31  1  0  0  0  0
 27 28  1  0  0  0  0
 28 32  1  0  0  0  0
 30 27  1  0  0  0  0
 33 28  1  0  0  0  0
 34  6  1  0  0  0  0
 35 34  1  0  0  0  0
 36 35  2  0  0  0  0
 37 45  1  0  0  0  0
 37 35  1  0  0  0  0
 38 39  1  0  0  0  0
 38 37  1  0  0  0  0
 40 42  1  0  0  0  0
 40 38  1  0  0  0  0
 41 40  1  0  0  0  0
 42 44  1  0  0  0  0
 43 42  1  0  0  0  0
 45 44  1  0  0  0  0
M  END
>  <minimizedAffinity>
-6.08169031

$$$$

 OpenBabel03242523563D

 45 48  0  0  1  0  0  0  0  0999 V2000
   37.3030   31.6860   39.9420 C   0  0  1  0  0  0  0  0  0  0  0  0
   37.6020   31.7840   38.4510 C   0  0  1  0  0  0  0  0  0  0  0  0
   38.9410   32.1810   38.2940 O   0  0  0  0  0  0  0  0  0  0  0  0
   39.3450   33.0930   39.2730 C   0  0  0  0  0  0  0  0  0  0  0  0
   39.4500   32.4470   40.6390 C   0  0  2  0  0  0  0  0  0  0  0  0
   38.5460   31.1620   40.5850 C   0  0  1  0  0  0  0  0  0  0  0  0
   36.4310   31.0040   40.1100 H   0  0  0  0  0  0  0  0  0  0  0  0
   36.9170   32.4540   37.9120 H   0  0  0  0  0  0  0  0  0  0  0  0
   38.7630   34.0210   39.2840 H   0  0  0  0  0  0  0  0  0  0  0  0
   40.3820   33.3720   38.9900 H   0  0  0  0  0  0  0  0  0  0  0  0
   40.4760   32.1390   40.8980 H   0  0  0  0  0  0  0  0  0  0  0  0
   39.2000   30.6110   39.8370 H   0  0  0  0  0  0  0  0  0  0  0  0
   36.9650   32.9430   40.4630 O   0  0  0  0  0  0  0  0  0  0  0  0
   35.9970   33.0400   40.3740 H   0  0  0  0  0  0  0  0  0  0  0  0
   38.8590   33.2680   41.5890 O   0  0  0  0  0  0  0  0  0  0  0  0
   39.1230   32.9640   42.5000 H   0  0  0  0  0  0  0  0  0  0  0  0
   37.5880   30.4530   37.9910 O   0  0  0  0  0  0  0  0  0  0  0  0
   36.6810   29.9480   37.1470 C   0  0  0  0  0  0  0  0  0  0  0  0
   35.4370   29.4900   37.6050 C   0  0  0  0  0  0  0  0  0  0  0  0
   34.5400   28.9800   36.6810 C   0  0  0  0  0  0  0  0  0  0  0  0
   34.8940   28.9370   35.3430 N   0  0  0  0  0  0  0  0  0  0  0  0
   36.1020   29.3880   34.9380 C   0  0  0  0  0  0  0  0  0  0  0  0
   36.9930   29.8900   35.8340 N   0  0  0  0  0  0  0  0  0  0  0  0
   35.1810   29.5320   38.6520 H   0  0  0  0  0  0  0  0  0  0  0  0
   36.3620   29.3460   33.8890 H   0  0  0  0  0  0  0  0  0  0  0  0
   33.2010   28.4580   37.0920 C   0  0  0  0  0  0  0  0  0  0  0  0
   32.0360   29.4460   37.0540 C   0  0  0  0  0  0  0  0  0  0  0  0
   32.1730   28.2140   36.1340 C   0  0  0  0  0  0  0  0  0  0  0  0
   33.2790   27.8450   38.0320 H   0  0  0  0  0  0  0  0  0  0  0  0
   32.2370   30.4340   36.6140 H   0  0  0  0  0  0  0  0  0  0  0  0
   31.3070   29.3500   37.8780 H   0  0  0  0  0  0  0  0  0  0  0  0
   31.4370   27.4000   36.2920 H   0  0  0  0  0  0  0  0  0  0  0  0
   32.3030   28.4540   35.0600 H   0  0  0  0  0  0  0  0  0  0  0  0
   38.4290   30.6950   41.8400 O   0  0  0  0  0  0  0  0  0  0  0  0
   37.9690   29.4940   42.2630 C   0  0  0  0  0  0  0  0  0  0  0  0
   38.0830   29.1420   43.5170 O   0  0  0  0  0  0  0  0  0  0  0  0
   37.3200   28.2720   41.8880 N   0  0  0  0  0  0  0  0  0  0  0  0
   37.8080   27.2290   42.7720 C   0  0  0  0  0  3  0  0  0  0  0  0
   38.8860   27.0850   42.7630 H   0  0  0  0  0  0  0  0  0  0  0  0
   37.0350   25.9690   42.4790 C   0  0  0  0  0  3  0  0  0  0  0  0
   35.9940   26.0840   42.8330 H   0  0  0  0  0  0  0  0  0  0  0  0
   37.0920   25.5960   41.0920 N   0  0  0  0  0  0  0  0  0  0  0  0
   36.4000   24.8210   40.9490 H   0  0  0  0  0  0  0  0  0  0  0  0
   36.8640   26.6810   40.1850 C   0  0  0  0  0  2  0  0  0  0  0  0
   36.3640   27.9470   40.8820 C   0  0  0  0  0  2  0  0  0  0  0  0
  1  7  1  1  0  0  0
  1 13  1  0  0  0  0
  1  6  1  0  0  0  0
  2  8  1  6  0  0  0
  2  1  1  0  0  0  0
  3  2  1  0  0  0  0
  3  4  1  0  0  0  0
  4  9  1  0  0  0  0
  4  5  1  0  0  0  0
  5 11  1  1  0  0  0
  5 15  1  0  0  0  0
  6 12  1  6  0  0  0
  6  5  1  0  0  0  0
  6 34  1  0  0  0  0
 10  4  1  0  0  0  0
 14 13  1  0  0  0  0
 15 16  1  0  0  0  0
 17  2  1  0  0  0  0
 18 19  1  0  0  0  0
 18 17  1  0  0  0  0
 19 24  1  0  0  0  0
 20 26  1  0  0  0  0
 20 19  2  0  0  0  0
 21 20  1  0  0  0  0
 22 21  2  0  0  0  0
 22 23  1  0  0  0  0
 23 18  2  0  0  0  0
 25 22  1  0  0  0  0
 26 29  1  0  0  0  0
 27 26  1  0  0  0  0
 27 31  1  0  0  0  0
 28 32  1  0  0  0  0
 28 27  1  0  0  0  0
 28 26  1  0  0  0  0
 30 27  1  0  0  0  0
 33 28  1  0  0  0  0
 34 35  1  0  0  0  0
 35 36  2  0  0  0  0
 37 35  1  0  0  0  0
 37 38  1  0  0  0  0
 39 38  1  0  0  0  0
 40 38  1  0  0  0  0
 40 41  1  0  0  0  0
 42 40  1  0  0  0  0
 43 42  1  0  0  0  0
 44 45  1  0  0  0  0
 44 42  1  0  0  0  0
 45 37  1  0  0  0  0
M  END
>  <minimizedAffinity>
-6.03077269

$$$$

 OpenBabel03242523563D

 45 48  0  0  1  0  0  0  0  0999 V2000
   37.0070   30.7960   40.3600 C   0  0  1  0  0  0  0  0  0  0  0  0
   36.5630   30.4470   38.9450 C   0  0  1  0  0  0  0  0  0  0  0  0
   37.1860   31.3400   38.0540 O   0  0  0  0  0  0  0  0  0  0  0  0
   37.3000   32.6280   38.5830 C   0  0  0  0  0  0  0  0  0  0  0  0
   38.3040   32.6870   39.7150 C   0  0  2  0  0  0  0  0  0  0  0  0
   38.4370   31.2180   40.2590 C   0  0  1  0  0  0  0  0  0  0  0  0
   36.8840   29.9040   41.0260 H   0  0  0  0  0  0  0  0  0  0  0  0
   35.4710   30.4470   38.8180 H   0  0  0  0  0  0  0  0  0  0  0  0
   36.3410   33.0900   38.8410 H   0  0  0  0  0  0  0  0  0  0  0  0
   37.7350   33.2350   37.7620 H   0  0  0  0  0  0  0  0  0  0  0  0
   39.3020   33.0310   39.3960 H   0  0  0  0  0  0  0  0  0  0  0  0
   38.9260   30.8070   39.3190 H   0  0  0  0  0  0  0  0  0  0  0  0
   36.2190   31.8300   40.8850 O   0  0  0  0  0  0  0  0  0  0  0  0
   35.4570   31.4120   41.3320 H   0  0  0  0  0  0  0  0  0  0  0  0
   37.7760   33.4190   40.7690 O   0  0  0  0  0  0  0  0  0  0  0  0
   38.5030   33.6510   41.4100 H   0  0  0  0  0  0  0  0  0  0  0  0
   37.1770   29.2110   38.6670 O   0  0  0  0  0  0  0  0  0  0  0  0
   36.5190   28.0710   38.4220 C   0  0  0  0  0  0  0  0  0  0  0  0
   36.9210   26.8590   39.0020 C   0  0  0  0  0  0  0  0  0  0  0  0
   36.1970   25.7150   38.7110 C   0  0  0  0  0  0  0  0  0  0  0  0
   35.1060   25.8000   37.8630 N   0  0  0  0  0  0  0  0  0  0  0  0
   34.7480   26.9860   37.3220 C   0  0  0  0  0  0  0  0  0  0  0  0
   35.4500   28.1170   37.5990 N   0  0  0  0  0  0  0  0  0  0  0  0
   37.7760   26.8150   39.6600 H   0  0  0  0  0  0  0  0  0  0  0  0
   33.8930   27.0330   36.6610 H   0  0  0  0  0  0  0  0  0  0  0  0
   36.5730   24.3840   39.2760 C   0  0  0  0  0  0  0  0  0  0  0  0
   36.5340   24.2470   40.7980 C   0  0  0  0  0  0  0  0  0  0  0  0
   35.5900   23.5070   39.8260 C   0  0  0  0  0  0  0  0  0  0  0  0
   37.5010   23.9830   38.7820 H   0  0  0  0  0  0  0  0  0  0  0  0
   36.1200   25.0950   41.3620 H   0  0  0  0  0  0  0  0  0  0  0  0
   37.3430   23.6370   41.2390 H   0  0  0  0  0  0  0  0  0  0  0  0
   35.7180   22.4080   39.7610 H   0  0  0  0  0  0  0  0  0  0  0  0
   34.5250   23.7980   39.9080 H   0  0  0  0  0  0  0  0  0  0  0  0
   39.1360   31.2710   41.4050 O   0  0  0  0  0  0  0  0  0  0  0  0
   39.5390   30.2560   42.2050 C   0  0  0  0  0  0  0  0  0  0  0  0
   40.7590   30.2250   42.6770 O   0  0  0  0  0  0  0  0  0  0  0  0
   39.1640   29.0330   42.8530 N   0  0  0  0  0  0  0  0  0  0  0  0
   40.3570   28.2130   42.9630 C   0  0  0  0  0  3  0  0  0  0  0  0
   40.8490   27.9870   42.0210 H   0  0  0  0  0  0  0  0  0  0  0  0
   40.0060   26.9840   43.7620 C   0  0  0  0  0  3  0  0  0  0  0  0
   39.8390   27.2660   44.8180 H   0  0  0  0  0  0  0  0  0  0  0  0
   38.8870   26.2690   43.2140 N   0  0  0  0  0  0  0  0  0  0  0  0
   38.6090   25.5400   43.9140 H   0  0  0  0  0  0  0  0  0  0  0  0
   37.7790   27.1040   42.8540 C   0  0  0  0  0  2  0  0  0  0  0  0
   37.9260   28.5400   43.3590 C   0  0  0  0  0  2  0  0  0  0  0  0
  1 13  1  0  0  0  0
  1  7  1  1  0  0  0
  2  8  1  6  0  0  0
  2  1  1  0  0  0  0
  3  4  1  0  0  0  0
  3  2  1  0  0  0  0
  4  9  1  0  0  0  0
  4  5  1  0  0  0  0
  5 11  1  6  0  0  0
  5  6  1  0  0  0  0
  5 15  1  0  0  0  0
  6 12  1  6  0  0  0
  6  1  1  0  0  0  0
  6 34  1  0  0  0  0
 10  4  1  0  0  0  0
 13 14  1  0  0  0  0
 15 16  1  0  0  0  0
 17  2  1  0  0  0  0
 18 17  1  0  0  0  0
 18 19  1  0  0  0  0
 19 24  1  0  0  0  0
 20 19  2  0  0  0  0
 20 26  1  0  0  0  0
 21 20  1  0  0  0  0
 22 23  1  0  0  0  0
 22 21  2  0  0  0  0
 23 18  2  0  0  0  0
 25 22  1  0  0  0  0
 26 28  1  0  0  0  0
 26 27  1  0  0  0  0
 27 31  1  0  0  0  0
 27 30  1  0  0  0  0
 28 33  1  0  0  0  0
 28 27  1  0  0  0  0
 29 26  1  0  0  0  0
 32 28  1  0  0  0  0
 34 35  1  0  0  0  0
 35 36  2  0  0  0  0
 35 37  1  0  0  0  0
 37 38  1  0  0  0  0
 37 45  1  0  0  0  0
 38 40  1  0  0  0  0
 39 38  1  0  0  0  0
 40 41  1  0  0  0  0
 42 40  1  0  0  0  0
 42 43  1  0  0  0  0
 44 42  1  0  0  0  0
 44 45  1  0  0  0  0
M  END
>  <minimizedAffinity>
-5.88130903

$$$$

 OpenBabel03242523563D

 45 48  0  0  1  0  0  0  0  0999 V2000
   37.7400   29.4490   42.0370 C   0  0  1  0  0  0  0  0  0  0  0  0
   39.1560   29.8580   42.4210 C   0  0  1  0  0  0  0  0  0  0  0  0
   39.8710   28.7000   42.7710 O   0  0  0  0  0  0  0  0  0  0  0  0
   39.0770   27.7660   43.4430 C   0  0  0  0  0  0  0  0  0  0  0  0
   38.0470   27.1380   42.5280 C   0  0  2  0  0  0  0  0  0  0  0  0
   37.8590   28.1380   41.3290 C   0  0  1  0  0  0  0  0  0  0  0  0
   37.2820   30.2330   41.3810 H   0  0  0  0  0  0  0  0  0  0  0  0
   39.1900   30.6120   43.2210 H   0  0  0  0  0  0  0  0  0  0  0  0
   38.6450   28.1400   44.3780 H   0  0  0  0  0  0  0  0  0  0  0  0
   39.7740   26.9480   43.7200 H   0  0  0  0  0  0  0  0  0  0  0  0
   38.3610   26.1630   42.1220 H   0  0  0  0  0  0  0  0  0  0  0  0
   38.9040   27.9860   40.9090 H   0  0  0  0  0  0  0  0  0  0  0  0
   36.9330   29.3270   43.1770 O   0  0  0  0  0  0  0  0  0  0  0  0
   36.5310   30.2020   43.3400 H   0  0  0  0  0  0  0  0  0  0  0  0
   36.8160   27.1030   43.1680 O   0  0  0  0  0  0  0  0  0  0  0  0
   36.2010   26.4950   42.6710 H   0  0  0  0  0  0  0  0  0  0  0  0
   39.7530   30.2710   41.2140 O   0  0  0  0  0  0  0  0  0  0  0  0
   39.7560   31.5290   40.7560 C   0  0  0  0  0  0  0  0  0  0  0  0
   40.8130   32.0160   39.9740 C   0  0  0  0  0  0  0  0  0  0  0  0
   40.7560   33.3260   39.5290 C   0  0  0  0  0  0  0  0  0  0  0  0
   39.6670   34.1110   39.8650 N   0  0  0  0  0  0  0  0  0  0  0  0
   38.6660   33.6070   40.6210 C   0  0  0  0  0  0  0  0  0  0  0  0
   38.7090   32.3220   41.0660 N   0  0  0  0  0  0  0  0  0  0  0  0
   41.6540   31.3870   39.7240 H   0  0  0  0  0  0  0  0  0  0  0  0
   37.8230   34.2350   40.8750 H   0  0  0  0  0  0  0  0  0  0  0  0
   41.8510   33.9230   38.7050 C   0  0  0  0  0  0  0  0  0  0  0  0
   43.1090   33.0760   38.5160 C   0  0  0  0  0  0  0  0  0  0  0  0
   42.1280   33.4550   37.3860 C   0  0  0  0  0  0  0  0  0  0  0  0
   42.0340   34.9950   38.9940 H   0  0  0  0  0  0  0  0  0  0  0  0
   43.0750   32.0440   38.8950 H   0  0  0  0  0  0  0  0  0  0  0  0
   44.0630   33.6340   38.5310 H   0  0  0  0  0  0  0  0  0  0  0  0
   42.5150   34.1480   36.6130 H   0  0  0  0  0  0  0  0  0  0  0  0
   41.5850   32.5980   36.9430 H   0  0  0  0  0  0  0  0  0  0  0  0
   36.7910   27.7300   40.6240 O   0  0  0  0  0  0  0  0  0  0  0  0
   36.3900   28.1110   39.3880 C   0  0  0  0  0  0  0  0  0  0  0  0
   35.6110   27.3400   38.6740 O   0  0  0  0  0  0  0  0  0  0  0  0
   36.4510   29.1290   38.3820 N   0  0  0  0  0  0  0  0  0  0  0  0
   36.3110   28.4780   37.0920 C   0  0  0  0  0  3  0  0  0  0  0  0
   37.0540   27.7140   36.8790 H   0  0  0  0  0  0  0  0  0  0  0  0
   36.2370   29.5490   36.0330 C   0  0  0  0  0  3  0  0  0  0  0  0
   35.2710   30.0800   36.1130 H   0  0  0  0  0  0  0  0  0  0  0  0
   37.3520   30.4520   36.0830 N   0  0  0  0  0  0  0  0  0  0  0  0
   37.1370   31.2500   35.4370 H   0  0  0  0  0  0  0  0  0  0  0  0
   37.6730   30.9130   37.4010 C   0  0  0  0  0  2  0  0  0  0  0  0
   36.6110   30.5440   38.4370 C   0  0  0  0  0  2  0  0  0  0  0  0
  1  7  1  6  0  0  0
  1  2  1  0  0  0  0
  1 13  1  0  0  0  0
  2  3  1  0  0  0  0
  2  8  1  1  0  0  0
  3  4  1  0  0  0  0
  4 10  1  0  0  0  0
  4  9  1  0  0  0  0
  5 11  1  6  0  0  0
  5 15  1  0  0  0  0
  5  4  1  0  0  0  0
  6 12  1  6  0  0  0
  6  1  1  0  0  0  0
  6  5  1  0  0  0  0
 13 14  1  0  0  0  0
 16 15  1  0  0  0  0
 17  2  1  0  0  0  0
 18 23  1  0  0  0  0
 18 17  1  0  0  0  0
 19 18  2  0  0  0  0
 20 21  2  0  0  0  0
 20 19  1  0  0  0  0
 21 22  1  0  0  0  0
 22 25  1  0  0  0  0
 22 23  2  0  0  0  0
 24 19  1  0  0  0  0
 26 29  1  0  0  0  0
 26 20  1  0  0  0  0
 27 31  1  0  0  0  0
 27 26  1  0  0  0  0
 27 30  1  0  0  0  0
 28 27  1  0  0  0  0
 28 26  1  0  0  0  0
 32 28  1  0  0  0  0
 33 28  1  0  0  0  0
 34  6  1  0  0  0  0
 35 34  1  0  0  0  0
 36 35  2  0  0  0  0
 37 45  1  0  0  0  0
 37 35  1  0  0  0  0
 38 37  1  0  0  0  0
 39 38  1  0  0  0  0
 40 42  1  0  0  0  0
 40 41  1  0  0  0  0
 40 38  1  0  0  0  0
 42 44  1  0  0  0  0
 43 42  1  0  0  0  0
 44 45  1  0  0  0  0
M  END
>  <minimizedAffinity>
-5.84031725

$$$$

 OpenBabel03242523563D

 45 48  0  0  1  0  0  0  0  0999 V2000
   37.3150   30.0380   41.0750 C   0  0  1  0  0  0  0  0  0  0  0  0
   38.5350   30.6870   41.7170 C   0  0  1  0  0  0  0  0  0  0  0  0
   39.0770   29.7830   42.6470 O   0  0  0  0  0  0  0  0  0  0  0  0
   38.0920   29.0500   43.3150 C   0  0  0  0  0  0  0  0  0  0  0  0
   37.4060   28.0600   42.3980 C   0  0  2  0  0  0  0  0  0  0  0  0
   37.6370   28.5860   40.9340 C   0  0  1  0  0  0  0  0  0  0  0  0
   37.1100   30.5150   40.0820 H   0  0  0  0  0  0  0  0  0  0  0  0
   38.3190   31.6610   42.1780 H   0  0  0  0  0  0  0  0  0  0  0  0
   37.3850   29.6670   43.8800 H   0  0  0  0  0  0  0  0  0  0  0  0
   38.6460   28.4400   44.0580 H   0  0  0  0  0  0  0  0  0  0  0  0
   37.8190   27.0400   42.4690 H   0  0  0  0  0  0  0  0  0  0  0  0
   38.7590   28.4060   40.9390 H   0  0  0  0  0  0  0  0  0  0  0  0
   36.1790   30.2210   41.8750 O   0  0  0  0  0  0  0  0  0  0  0  0
   35.7600   31.0580   41.5950 H   0  0  0  0  0  0  0  0  0  0  0  0
   36.0330   28.1170   42.5930 O   0  0  0  0  0  0  0  0  0  0  0  0
   35.6040   27.3240   42.1690 H   0  0  0  0  0  0  0  0  0  0  0  0
   39.5000   30.7350   40.6920 O   0  0  0  0  0  0  0  0  0  0  0  0
   39.9710   31.8600   40.1410 C   0  0  0  0  0  0  0  0  0  0  0  0
   40.8450   31.8240   39.0460 C   0  0  0  0  0  0  0  0  0  0  0  0
   41.2950   33.0230   38.5190 C   0  0  0  0  0  0  0  0  0  0  0  0
   40.8720   34.2140   39.0850 N   0  0  0  0  0  0  0  0  0  0  0  0
   40.0280   34.2100   40.1410 C   0  0  0  0  0  0  0  0  0  0  0  0
   39.5790   33.0400   40.6680 N   0  0  0  0  0  0  0  0  0  0  0  0
   41.1640   30.8840   38.6200 H   0  0  0  0  0  0  0  0  0  0  0  0
   39.7090   35.1500   40.5700 H   0  0  0  0  0  0  0  0  0  0  0  0
   42.2420   33.0670   37.3630 C   0  0  0  0  0  0  0  0  0  0  0  0
   43.7330   33.0100   37.6930 C   0  0  0  0  0  0  0  0  0  0  0  0
   42.9570   31.9050   36.9450 C   0  0  0  0  0  0  0  0  0  0  0  0
   41.9440   33.8650   36.6280 H   0  0  0  0  0  0  0  0  0  0  0  0
   44.0030   32.8200   38.7420 H   0  0  0  0  0  0  0  0  0  0  0  0
   44.3810   33.6490   37.0670 H   0  0  0  0  0  0  0  0  0  0  0  0
   43.2180   31.7600   35.8780 H   0  0  0  0  0  0  0  0  0  0  0  0
   42.8840   30.9440   37.4900 H   0  0  0  0  0  0  0  0  0  0  0  0
   36.8510   27.8670   40.1150 O   0  0  0  0  0  0  0  0  0  0  0  0
   36.8910   26.5420   39.8420 C   0  0  0  0  0  0  0  0  0  0  0  0
   36.0080   26.0000   39.0430 O   0  0  0  0  0  0  0  0  0  0  0  0
   37.5710   25.3020   40.0750 N   0  0  0  0  0  0  0  0  0  0  0  0
   36.5900   24.2370   39.9620 C   0  0  0  0  0  3  0  0  0  0  0  0
   35.7440   24.3180   40.6390 H   0  0  0  0  0  0  0  0  0  0  0  0
   37.3160   22.9200   40.0700 C   0  0  0  0  0  3  0  0  0  0  0  0
   37.9190   22.7560   39.1580 H   0  0  0  0  0  0  0  0  0  0  0  0
   38.1090   22.8230   41.2630 N   0  0  0  0  0  0  0  0  0  0  0  0
   38.7030   21.9630   41.1740 H   0  0  0  0  0  0  0  0  0  0  0  0
   38.9030   23.9850   41.5350 C   0  0  0  0  0  2  0  0  0  0  0  0
   38.9270   24.9760   40.3700 C   0  0  0  0  0  2  0  0  0  0  0  0
  1  7  1  6  0  0  0
  1  2  1  0  0  0  0
  1 13  1  0  0  0  0
  2  8  1  1  0  0  0
  2  3  1  0  0  0  0
  3  4  1  0  0  0  0
  4  9  1  0  0  0  0
  4 10  1  0  0  0  0
  5 11  1  1  0  0  0
  5 15  1  0  0  0  0
  5  4  1  0  0  0  0
  6 12  1  6  0  0  0
  6  1  1  0  0  0  0
  6  5  1  0  0  0  0
 14 13  1  0  0  0  0
 16 15  1  0  0  0  0
 17  2  1  0  0  0  0
 18 23  1  0  0  0  0
 18 17  1  0  0  0  0
 19 18  2  0  0  0  0
 20 19  1  0  0  0  0
 20 21  2  0  0  0  0
 21 22  1  0  0  0  0
 22 25  1  0  0  0  0
 22 23  2  0  0  0  0
 24 19  1  0  0  0  0
 26 27  1  0  0  0  0
 26 20  1  0  0  0  0
 27 30  1  0  0  0  0
 28 26  1  0  0  0  0
 28 33  1  0  0  0  0
 28 27  1  0  0  0  0
 29 26  1  0  0  0  0
 31 27  1  0  0  0  0
 32 28  1  0  0  0  0
 34  6  1  0  0  0  0
 35 37  1  0  0  0  0
 35 34  1  0  0  0  0
 36 35  2  0  0  0  0
 37 45  1  0  0  0  0
 38 40  1  0  0  0  0
 38 37  1  0  0  0  0
 38 39  1  0  0  0  0
 40 42  1  0  0  0  0
 41 40  1  0  0  0  0
 42 44  1  0  0  0  0
 43 42  1  0  0  0  0
 45 44  1  0  0  0  0
M  END
>  <minimizedAffinity>
-5.81200981

$$$$

 OpenBabel03242523563D

 45 48  0  0  1  0  0  0  0  0999 V2000
   37.3770   31.9400   40.3320 C   0  0  1  0  0  0  0  0  0  0  0  0
   37.2590   31.7890   38.8210 C   0  0  1  0  0  0  0  0  0  0  0  0
   38.5440   31.9020   38.2630 O   0  0  0  0  0  0  0  0  0  0  0  0
   39.3350   32.8390   38.9340 C   0  0  0  0  0  0  0  0  0  0  0  0
   39.7200   32.3650   40.3200 C   0  0  2  0  0  0  0  0  0  0  0  0
   38.6580   31.2770   40.7210 C   0  0  1  0  0  0  0  0  0  0  0  0
   36.4950   31.4620   40.8310 H   0  0  0  0  0  0  0  0  0  0  0  0
   36.5570   32.5010   38.3650 H   0  0  0  0  0  0  0  0  0  0  0  0
   38.9220   33.8540   38.9310 H   0  0  0  0  0  0  0  0  0  0  0  0
   40.2810   32.8790   38.3540 H   0  0  0  0  0  0  0  0  0  0  0  0
   40.7220   31.9040   40.3600 H   0  0  0  0  0  0  0  0  0  0  0  0
   38.9900   30.5210   39.9390 H   0  0  0  0  0  0  0  0  0  0  0  0
   37.3870   33.2940   40.6950 O   0  0  0  0  0  0  0  0  0  0  0  0
   36.4580   33.5600   40.8390 H   0  0  0  0  0  0  0  0  0  0  0  0
   39.5460   33.3970   41.2310 O   0  0  0  0  0  0  0  0  0  0  0  0
   40.0060   33.1670   42.0840 H   0  0  0  0  0  0  0  0  0  0  0  0
   36.9210   30.4370   38.6170 O   0  0  0  0  0  0  0  0  0  0  0  0
   37.0750   29.7780   37.4620 C   0  0  0  0  0  0  0  0  0  0  0  0
   36.4320   30.2020   36.2910 C   0  0  0  0  0  0  0  0  0  0  0  0
   36.6350   29.4790   35.1270 C   0  0  0  0  0  0  0  0  0  0  0  0
   37.4600   28.3670   35.1530 N   0  0  0  0  0  0  0  0  0  0  0  0
   38.0640   27.9880   36.3020 C   0  0  0  0  0  0  0  0  0  0  0  0
   37.8740   28.6890   37.4520 N   0  0  0  0  0  0  0  0  0  0  0  0
   35.7920   31.0710   36.2920 H   0  0  0  0  0  0  0  0  0  0  0  0
   38.7040   27.1170   36.3040 H   0  0  0  0  0  0  0  0  0  0  0  0
   35.9710   29.8570   33.8430 C   0  0  0  0  0  0  0  0  0  0  0  0
   36.3870   31.1900   33.2210 C   0  0  0  0  0  0  0  0  0  0  0  0
   36.6730   29.8050   32.6010 C   0  0  0  0  0  0  0  0  0  0  0  0
   34.8620   29.6770   33.8930 H   0  0  0  0  0  0  0  0  0  0  0  0
   37.2260   31.7190   33.6940 H   0  0  0  0  0  0  0  0  0  0  0  0
   35.5710   31.7670   32.7490 H   0  0  0  0  0  0  0  0  0  0  0  0
   36.1360   29.5690   31.6610 H   0  0  0  0  0  0  0  0  0  0  0  0
   37.7460   29.5390   32.5460 H   0  0  0  0  0  0  0  0  0  0  0  0
   38.8290   31.0050   42.0250 O   0  0  0  0  0  0  0  0  0  0  0  0
   39.3460   29.8950   42.6040 C   0  0  0  0  0  0  0  0  0  0  0  0
   40.6050   29.8530   42.9560 O   0  0  0  0  0  0  0  0  0  0  0  0
   39.0820   28.5640   43.0650 N   0  0  0  0  0  0  0  0  0  0  0  0
   40.3110   27.8030   42.9310 C   0  0  0  0  0  3  0  0  0  0  0  0
   40.7200   27.7630   41.9250 H   0  0  0  0  0  0  0  0  0  0  0  0
   40.0860   26.4420   43.5380 C   0  0  0  0  0  3  0  0  0  0  0  0
   40.0080   26.5360   44.6370 H   0  0  0  0  0  0  0  0  0  0  0  0
   38.9500   25.7670   42.9760 N   0  0  0  0  0  0  0  0  0  0  0  0
   38.7680   24.9180   43.5640 H   0  0  0  0  0  0  0  0  0  0  0  0
   37.7810   26.5890   42.8590 C   0  0  0  0  0  2  0  0  0  0  0  0
   37.9180   27.9280   43.5850 C   0  0  0  0  0  2  0  0  0  0  0  0
  1 13  1  0  0  0  0
  1  6  1  0  0  0  0
  1  7  1  1  0  0  0
  2  8  1  6  0  0  0
  2  1  1  0  0  0  0
  3  2  1  0  0  0  0
  3  4  1  0  0  0  0
  4  5  1  0  0  0  0
  5 11  1  1  0  0  0
  5  6  1  0  0  0  0
  5 15  1  0  0  0  0
  6 12  1  6  0  0  0
  6 34  1  0  0  0  0
  9  4  1  0  0  0  0
 10  4  1  0  0  0  0
 13 14  1  0  0  0  0
 15 16  1  0  0  0  0
 17  2  1  0  0  0  0
 18 17  1  0  0  0  0
 19 24  1  0  0  0  0
 19 18  2  0  0  0  0
 20 21  2  0  0  0  0
 20 19  1  0  0  0  0
 21 22  1  0  0  0  0
 22 25  1  0  0  0  0
 22 23  2  0  0  0  0
 23 18  1  0  0  0  0
 26 29  1  0  0  0  0
 26 20  1  0  0  0  0
 27 30  1  0  0  0  0
 27 26  1  0  0  0  0
 28 27  1  0  0  0  0
 28 26  1  0  0  0  0
 31 27  1  0  0  0  0
 32 28  1  0  0  0  0
 33 28  1  0  0  0  0
 34 35  1  0  0  0  0
 35 36  2  0  0  0  0
 35 37  1  0  0  0  0
 37 45  1  0  0  0  0
 38 37  1  0  0  0  0
 38 40  1  0  0  0  0
 39 38  1  0  0  0  0
 40 41  1  0  0  0  0
 42 40  1  0  0  0  0
 42 43  1  0  0  0  0
 44 42  1  0  0  0  0
 44 45  1  0  0  0  0
M  END
>  <minimizedAffinity>
-5.80114698

$$$$
