
 OpenBabel03242523553D

 45 48  0  0  1  0  0  0  0  0999 V2000
   42.8120   34.5040   38.7430 C   0  0  1  0  0  0  0  0  0  0  0  0
   42.9630   35.1840   40.0980 C   0  0  1  0  0  0  0  0  0  0  0  0
   41.6790   35.4160   40.6210 O   0  0  0  0  0  0  0  0  0  0  0  0
   40.7530   35.7560   39.6310 C   0  0  0  0  0  0  0  0  0  0  0  0
   40.4320   34.5830   38.7300 C   0  0  2  0  0  0  0  0  0  0  0  0
   41.6390   33.5850   38.8630 C   0  0  1  0  0  0  0  0  0  0  0  0
   43.7510   33.9460   38.4920 H   0  0  0  0  0  0  0  0  0  0  0  0
   43.5560   36.1090   40.0580 H   0  0  0  0  0  0  0  0  0  0  0  0
   41.0120   36.6630   39.0730 H   0  0  0  0  0  0  0  0  0  0  0  0
   39.8170   35.9800   40.1830 H   0  0  0  0  0  0  0  0  0  0  0  0
   39.5090   34.0520   39.0180 H   0  0  0  0  0  0  0  0  0  0  0  0
   41.4290   33.3180   39.9480 H   0  0  0  0  0  0  0  0  0  0  0  0
   42.6000   35.4520   37.7330 O   0  0  0  0  0  0  0  0  0  0  0  0
   43.4790   35.7140   37.3950 H   0  0  0  0  0  0  0  0  0  0  0  0
   40.4450   34.9960   37.4050 O   0  0  0  0  0  0  0  0  0  0  0  0
   40.0170   34.2980   36.8360 H   0  0  0  0  0  0  0  0  0  0  0  0
   43.4980   34.1920   40.9440 O   0  0  0  0  0  0  0  0  0  0  0  0
   44.6050   34.3360   41.6810 C   0  0  0  0  0  0  0  0  0  0  0  0
   45.8700   34.4350   41.0840 C   0  0  0  0  0  0  0  0  0  0  0  0
   46.9770   34.5850   41.9030 C   0  0  0  0  0  0  0  0  0  0  0  0
   46.8050   34.6330   43.2760 N   0  0  0  0  0  0  0  0  0  0  0  0
   45.5690   34.5350   43.8160 C   0  0  0  0  0  0  0  0  0  0  0  0
   44.4740   34.3870   43.0250 N   0  0  0  0  0  0  0  0  0  0  0  0
   45.9820   34.3950   40.0120 H   0  0  0  0  0  0  0  0  0  0  0  0
   45.4540   34.5730   44.8910 H   0  0  0  0  0  0  0  0  0  0  0  0
   48.3590   34.6800   41.3430 C   0  0  0  0  0  0  0  0  0  0  0  0
   49.0760   36.0210   41.5060 C   0  0  0  0  0  0  0  0  0  0  0  0
   49.5050   34.7070   42.1940 C   0  0  0  0  0  0  0  0  0  0  0  0
   48.4090   34.2320   40.3130 H   0  0  0  0  0  0  0  0  0  0  0  0
   48.5760   36.7800   42.1250 H   0  0  0  0  0  0  0  0  0  0  0  0
   49.6940   36.3350   40.6450 H   0  0  0  0  0  0  0  0  0  0  0  0
   50.4650   34.2690   41.8590 H   0  0  0  0  0  0  0  0  0  0  0  0
   49.4140   34.7160   43.2980 H   0  0  0  0  0  0  0  0  0  0  0  0
   41.5010   32.6500   37.9080 O   0  0  0  0  0  0  0  0  0  0  0  0
   40.8060   31.4890   37.9470 C   0  0  0  0  0  0  0  0  0  0  0  0
   39.5880   31.4260   37.4740 O   0  0  0  0  0  0  0  0  0  0  0  0
   40.8230   30.1080   38.3290 N   0  0  0  0  0  0  0  0  0  0  0  0
   42.1970   29.6460   38.2400 C   0  0  0  0  0  3  0  0  0  0  0  0
   42.6570   29.7570   37.2600 H   0  0  0  0  0  0  0  0  0  0  0  0
   42.2500   28.2350   38.7670 C   0  0  0  0  0  3  0  0  0  0  0  0
   42.0960   28.2440   39.8620 H   0  0  0  0  0  0  0  0  0  0  0  0
   41.3240   27.3610   38.1010 N   0  0  0  0  0  0  0  0  0  0  0  0
   41.3070   26.4600   38.6380 H   0  0  0  0  0  0  0  0  0  0  0  0
   40.0100   27.9100   37.9490 C   0  0  0  0  0  2  0  0  0  0  0  0
   39.8060   29.2000   38.7430 C   0  0  0  0  0  2  0  0  0  0  0  0
  1  7  1  6  0  0  0
  1  6  1  0  0  0  0
  1  2  1  0  0  0  0
  2  8  1  6  0  0  0
  2  3  1  0  0  0  0
  2 17  1  0  0  0  0
  4 10  1  0  0  0  0
  4  3  1  0  0  0  0
  5  6  1  0  0  0  0
  5 11  1  1  0  0  0
  5  4  1  0  0  0  0
  6 12  1  1  0  0  0
  9  4  1  0  0  0  0
 13  1  1  0  0  0  0
 14 13  1  0  0  0  0
 15  5  1  0  0  0  0
 16 15  1  0  0  0  0
 17 18  1  0  0  0  0
 18 23  1  0  0  0  0
 19 18  2  0  0  0  0
 19 20  1  0  0  0  0
 20 21  2  0  0  0  0
 21 22  1  0  0  0  0
 22 25  1  0  0  0  0
 23 22  2  0  0  0  0
 24 19  1  0  0  0  0
 26 27  1  0  0  0  0
 26 20  1  0  0  0  0
 26 28  1  0  0  0  0
 27 30  1  0  0  0  0
 27 28  1  0  0  0  0
 28 33  1  0  0  0  0
 29 26  1  0  0  0  0
 31 27  1  0  0  0  0
 32 28  1  0  0  0  0
 34 35  1  0  0  0  0
 34  6  1  0  0  0  0
 35 37  1  0  0  0  0
 36 35  2  0  0  0  0
 37 45  1  0  0  0  0
 38 37  1  0  0  0  0
 38 40  1  0  0  0  0
 39 38  1  0  0  0  0
 40 41  1  0  0  0  0
 42 43  1  0  0  0  0
 42 40  1  0  0  0  0
 44 42  1  0  0  0  0
 44 45  1  0  0  0  0
M  END
>  <minimizedAffinity>
-5.89951849

>  <minimizedRMSD>
0.131823197

$$$$
