
 OpenBabel03242523553D

 45 48  0  0  1  0  0  0  0  0999 V2000
   42.8180   34.3500   38.9600 C   0  0  1  0  0  0  0  0  0  0  0  0
   43.0330   35.1920   40.2120 C   0  0  1  0  0  0  0  0  0  0  0  0
   41.7780   35.6240   40.6740 O   0  0  0  0  0  0  0  0  0  0  0  0
   40.8970   35.9180   39.6300 C   0  0  0  0  0  0  0  0  0  0  0  0
   40.4590   34.6710   38.8920 C   0  0  2  0  0  0  0  0  0  0  0  0
   41.5560   33.5820   39.1830 C   0  0  1  0  0  0  0  0  0  0  0  0
   43.6950   33.6700   38.8060 H   0  0  0  0  0  0  0  0  0  0  0  0
   43.7190   36.0370   40.0560 H   0  0  0  0  0  0  0  0  0  0  0  0
   41.2510   36.7080   38.9580 H   0  0  0  0  0  0  0  0  0  0  0  0
   39.9860   36.3100   40.1290 H   0  0  0  0  0  0  0  0  0  0  0  0
   39.4850   34.2820   39.2330 H   0  0  0  0  0  0  0  0  0  0  0  0
   41.3150   33.4910   40.2900 H   0  0  0  0  0  0  0  0  0  0  0  0
   42.7100   35.1680   37.8260 O   0  0  0  0  0  0  0  0  0  0  0  0
   43.6130   35.2890   37.4720 H   0  0  0  0  0  0  0  0  0  0  0  0
   40.5210   34.8930   37.5240 O   0  0  0  0  0  0  0  0  0  0  0  0
   40.0250   34.1710   37.0480 H   0  0  0  0  0  0  0  0  0  0  0  0
   43.4580   34.2780   41.1950 O   0  0  0  0  0  0  0  0  0  0  0  0
   44.6080   34.3690   41.8750 C   0  0  0  0  0  0  0  0  0  0  0  0
   45.8370   34.4950   41.2120 C   0  0  0  0  0  0  0  0  0  0  0  0
   46.9910   34.5880   41.9730 C   0  0  0  0  0  0  0  0  0  0  0  0
   46.8980   34.5540   43.3540 N   0  0  0  0  0  0  0  0  0  0  0  0
   45.6950   34.4310   43.9580 C   0  0  0  0  0  0  0  0  0  0  0  0
   44.5540   34.3390   43.2240 N   0  0  0  0  0  0  0  0  0  0  0  0
   45.8870   34.5190   40.1350 H   0  0  0  0  0  0  0  0  0  0  0  0
   45.6420   34.4050   45.0380 H   0  0  0  0  0  0  0  0  0  0  0  0
   48.3400   34.7080   41.3420 C   0  0  0  0  0  0  0  0  0  0  0  0
   49.0690   36.0380   41.5250 C   0  0  0  0  0  0  0  0  0  0  0  0
   49.5310   34.6940   42.1270 C   0  0  0  0  0  0  0  0  0  0  0  0
   48.3300   34.3070   40.2900 H   0  0  0  0  0  0  0  0  0  0  0  0
   48.6070   36.7680   42.2050 H   0  0  0  0  0  0  0  0  0  0  0  0
   49.6380   36.3910   40.6460 H   0  0  0  0  0  0  0  0  0  0  0  0
   50.4700   34.2710   41.7170 H   0  0  0  0  0  0  0  0  0  0  0  0
   49.5030   34.6520   43.2330 H   0  0  0  0  0  0  0  0  0  0  0  0
   41.3250   32.5440   38.3630 O   0  0  0  0  0  0  0  0  0  0  0  0
   40.3520   31.6050   38.4300 C   0  0  0  0  0  0  0  0  0  0  0  0
   39.8970   31.0390   37.3420 O   0  0  0  0  0  0  0  0  0  0  0  0
   39.4850   30.8530   39.2880 N   0  0  0  0  0  0  0  0  0  0  0  0
   40.2780   30.3830   40.4090 C   0  0  0  0  0  3  0  0  0  0  0  0
   41.1390   29.7750   40.1410 H   0  0  0  0  0  0  0  0  0  0  0  0
   39.3500   29.7080   41.3870 C   0  0  0  0  0  3  0  0  0  0  0  0
   38.7130   30.4670   41.8760 H   0  0  0  0  0  0  0  0  0  0  0  0
   38.5730   28.6640   40.7800 N   0  0  0  0  0  0  0  0  0  0  0  0
   37.8470   28.3710   41.4780 H   0  0  0  0  0  0  0  0  0  0  0  0
   37.9830   29.0300   39.5260 C   0  0  0  0  0  2  0  0  0  0  0  0
   38.0990   30.5240   39.2250 C   0  0  0  0  0  2  0  0  0  0  0  0
  1  7  1  6  0  0  0
  1  6  1  0  0  0  0
  1  2  1  0  0  0  0
  2  8  1  6  0  0  0
  2  3  1  0  0  0  0
  2 17  1  0  0  0  0
  4 10  1  0  0  0  0
  4  3  1  0  0  0  0
  5  6  1  0  0  0  0
  5 11  1  1  0  0  0
  5  4  1  0  0  0  0
  6 12  1  1  0  0  0
  9  4  1  0  0  0  0
 13  1  1  0  0  0  0
 14 13  1  0  0  0  0
 15  5  1  0  0  0  0
 16 15  1  0  0  0  0
 17 18  1  0  0  0  0
 18 23  1  0  0  0  0
 19 18  2  0  0  0  0
 19 20  1  0  0  0  0
 20 21  2  0  0  0  0
 21 22  1  0  0  0  0
 22 25  1  0  0  0  0
 23 22  2  0  0  0  0
 24 19  1  0  0  0  0
 26 27  1  0  0  0  0
 26 20  1  0  0  0  0
 26 28  1  0  0  0  0
 27 28  1  0  0  0  0
 27 30  1  0  0  0  0
 28 33  1  0  0  0  0
 29 26  1  0  0  0  0
 31 27  1  0  0  0  0
 32 28  1  0  0  0  0
 34 35  1  0  0  0  0
 34  6  1  0  0  0  0
 35 37  1  0  0  0  0
 36 35  2  0  0  0  0
 37 38  1  0  0  0  0
 38 40  1  0  0  0  0
 39 38  1  0  0  0  0
 40 41  1  0  0  0  0
 42 40  1  0  0  0  0
 42 43  1  0  0  0  0
 44 42  1  0  0  0  0
 45 37  1  0  0  0  0
 45 44  1  0  0  0  0
M  END
>  <minimizedAffinity>
-6.31902313

>  <minimizedRMSD>
1.57948053

$$$$
