
     RDKit          3D

 26 27  0  0  0  0  0  0  0  0999 V2000
   44.5795   35.9960   44.4796 C   0  0  0  0  0  0  0  0  0  0  0  0
   45.3240   35.9115   43.2964 C   0  0  0  0  0  0  0  0  0  0  0  0
   46.2159   34.8506   43.1726 C   0  0  0  0  0  0  0  0  0  0  0  0
   46.3191   33.9570   44.1971 N   0  0  0  0  0  0  0  0  0  0  0  0
   45.5772   34.0807   45.3228 C   0  0  0  0  0  0  0  0  0  0  0  0
   44.6999   35.1072   45.4677 N   0  0  0  0  0  0  0  0  0  0  0  0
   46.9692   34.7875   41.9452 C   0  0  0  0  0  0  0  0  0  0  0  0
   48.0461   35.3935   41.7365 O   0  0  0  0  0  0  0  0  0  0  0  0
   43.8687   36.8065   44.6255 H   0  0  0  0  0  0  0  0  0  0  0  0
   45.1494   36.6776   42.5682 H   0  0  0  0  0  0  0  0  0  0  0  0
   45.8302   33.2602   45.9878 H   0  0  0  0  0  0  0  0  0  0  0  0
   46.4721   33.9837   40.8778 N   0  0  0  0  0  0  0  0  0  0  0  0
   45.8572   34.5732   39.7218 C   0  0  1  0  0  0  0  0  0  0  0  0
   44.8096   34.8626   39.9118 H   0  0  0  0  0  0  0  0  0  0  0  0
   46.0149   33.7201   38.4938 C   0  0  2  0  0  0  0  0  0  0  0  0
   47.0752   33.7416   38.1677 H   0  0  0  0  0  0  0  0  0  0  0  0
   45.5361   32.3809   38.6544 N   0  0  0  0  0  0  0  0  0  0  0  0
   44.6045   32.2512   38.2268 H   0  0  0  0  0  0  0  0  0  0  0  0
   45.4964   31.9195   40.0133 C   0  0  0  0  0  0  0  0  0  0  0  0
   46.5519   32.5516   40.8876 C   0  0  0  0  0  0  0  0  0  0  0  0
   46.4161   35.5230   39.5261 H   0  0  0  0  0  0  0  0  0  0  0  0
   45.4278   34.2029   37.6828 H   0  0  0  0  0  0  0  0  0  0  0  0
   44.5001   32.0409   40.4852 H   0  0  0  0  0  0  0  0  0  0  0  0
   45.7024   30.8264   39.9989 H   0  0  0  0  0  0  0  0  0  0  0  0
   47.5514   32.1404   40.6860 H   0  0  0  0  0  0  0  0  0  0  0  0
   46.2927   32.2367   41.9342 H   0  0  0  0  0  0  0  0  0  0  0  0
  1  6  2  0
  2  1  1  0
  3  2  2  0
  3  4  1  0
  4  5  2  0
  5  6  1  0
  7  3  1  0
  8  7  2  0
  1  9  1  0
  2 10  1  0
  5 11  1  0
 12 13  1  0
 13 14  1  1
 13 15  1  0
 15 16  1  6
 15 17  1  0
 17 18  1  0
 17 19  1  0
 19 20  1  0
 20 12  1  0
 13 21  1  0
 15 22  1  0
 19 23  1  0
 19 24  1  0
 20 25  1  0
 20 26  1  0
  7 12  1  0
M  ISO  6   9  14  10  14  11  14  14   8  16   8  18   5
M  END
>  <DihAtoms>  (1) 
2,6,11,12

>  <DihDeg>  (1) 
179.99973753346504

$$$$
