
     RDKit          3D

 26 27  0  0  0  0  0  0  0  0999 V2000
   44.5795   35.9960   44.4796 C   0  0  0  0  0  0  0  0  0  0  0  0
   45.3240   35.9115   43.2964 C   0  0  0  0  0  0  0  0  0  0  0  0
   46.2159   34.8506   43.1726 C   0  0  0  0  0  0  0  0  0  0  0  0
   46.3191   33.9570   44.1971 N   0  0  0  0  0  0  0  0  0  0  0  0
   45.5772   34.0807   45.3228 C   0  0  0  0  0  0  0  0  0  0  0  0
   44.6999   35.1072   45.4677 N   0  0  0  0  0  0  0  0  0  0  0  0
   46.9692   34.7875   41.9452 C   0  0  0  0  0  0  0  0  0  0  0  0
   48.0461   35.3935   41.7365 O   0  0  0  0  0  0  0  0  0  0  0  0
   43.8687   36.8065   44.6255 H   0  0  0  0  0  0  0  0  0  0  0  0
   45.1494   36.6776   42.5682 H   0  0  0  0  0  0  0  0  0  0  0  0
   45.8302   33.2602   45.9878 H   0  0  0  0  0  0  0  0  0  0  0  0
   46.4721   33.9837   40.8778 N   0  0  0  0  0  0  0  0  0  0  0  0
   46.8366   32.6005   40.7512 C   0  0  1  0  0  0  0  0  0  0  0  0
   47.8358   32.4748   40.3005 H   0  0  0  0  0  0  0  0  0  0  0  0
   45.7759   31.7920   40.0570 C   0  0  2  0  0  0  0  0  0  0  0  0
   44.8979   31.6889   40.7275 H   0  0  0  0  0  0  0  0  0  0  0  0
   45.4058   32.3042   38.7729 N   0  0  0  0  0  0  0  0  0  0  0  0
   45.8507   31.7755   38.0047 H   0  0  0  0  0  0  0  0  0  0  0  0
   45.6661   33.7042   38.5903 C   0  0  0  0  0  0  0  0  0  0  0  0
   45.5867   34.4964   39.8725 C   0  0  0  0  0  0  0  0  0  0  0  0
   46.9095   32.2043   41.7954 H   0  0  0  0  0  0  0  0  0  0  0  0
   46.1849   30.7680   39.9168 H   0  0  0  0  0  0  0  0  0  0  0  0
   46.6341   33.9049   38.0876 H   0  0  0  0  0  0  0  0  0  0  0  0
   44.8767   34.1034   37.9157 H   0  0  0  0  0  0  0  0  0  0  0  0
   44.5475   34.6438   40.1998 H   0  0  0  0  0  0  0  0  0  0  0  0
   45.9768   35.5168   39.6112 H   0  0  0  0  0  0  0  0  0  0  0  0
  1  6  2  0
  2  1  1  0
  3  2  2  0
  3  4  1  0
  4  5  2  0
  5  6  1  0
  7  3  1  0
  8  7  2  0
  1  9  1  0
  2 10  1  0
  5 11  1  0
 12 13  1  0
 13 14  1  6
 13 15  1  0
 15 16  1  1
 15 17  1  0
 17 18  1  0
 17 19  1  0
 19 20  1  0
 20 12  1  0
 13 21  1  0
 15 22  1  0
 19 23  1  0
 19 24  1  0
 20 25  1  0
 20 26  1  0
  7 12  1  0
M  ISO  6   9  14  10  14  11  14  14   8  16   8  18   5
M  END
>  <DihAtoms>  (1) 
2,6,11,12

>  <DihDeg>  (1) 
179.99973753346504

$$$$
