
 OpenBabel03252501113D

 20 21  0  0  0  0  0  0  0  0999 V2000
   47.0020   34.7390   42.0320 C   0  0  0  0  0  0  0  0  0  0  0  0
   47.9420   35.5120   41.7320 O   0  0  0  0  0  0  0  0  0  0  0  0
   46.6970   33.7110   41.0930 N   0  0  0  0  0  0  0  0  0  0  0  0
   45.5390   33.7900   40.2480 C   0  0  0  0  0  3  0  0  0  0  0  0
   44.6170   33.4950   40.7790 H   0  0  0  0  0  0  0  0  0  0  0  0
   45.7270   33.0550   38.9500 C   0  0  0  0  0  3  0  0  0  0  0  0
   46.4520   33.6080   38.3180 H   0  0  0  0  0  0  0  0  0  0  0  0
   46.1020   31.6820   39.1120 N   0  0  0  0  0  0  0  0  0  0  0  0
   45.3000   31.0450   38.9810 H   0  0  0  0  0  0  0  0  0  0  0  0
   46.7400   31.3820   40.3640 C   0  0  0  0  0  2  0  0  0  0  0  0
   47.5160   32.5440   40.9310 C   0  0  0  0  0  2  0  0  0  0  0  0
   44.5800   36.0010   44.5080 C   0  0  0  0  0  0  0  0  0  0  0  0
   45.3460   35.8960   43.3410 C   0  0  0  0  0  0  0  0  0  0  0  0
   46.2250   34.8230   43.2440 C   0  0  0  0  0  0  0  0  0  0  0  0
   46.2940   33.9350   44.2760 N   0  0  0  0  0  0  0  0  0  0  0  0
   45.5310   34.0790   45.3860 C   0  0  0  0  0  0  0  0  0  0  0  0
   44.6660   35.1180   45.5050 N   0  0  0  0  0  0  0  0  0  0  0  0
   43.8780   36.8220   44.6340 H   0  0  0  0  0  0  0  0  0  0  0  0
   45.1970   36.6600   42.6030 H   0  0  0  0  0  0  0  0  0  0  0  0
   45.7590   33.2590   46.0620 H   0  0  0  0  0  0  0  0  0  0  0  0
  1 14  1  0  0  0  0
  2  1  2  0  0  0  0
  3  1  1  0  0  0  0
  4  5  1  0  0  0  0
  4  3  1  0  0  0  0
  6  8  1  0  0  0  0
  6  4  1  0  0  0  0
  7  6  1  0  0  0  0
  8 10  1  0  0  0  0
  9  8  1  0  0  0  0
 10 11  1  0  0  0  0
 11  3  1  0  0  0  0
 12 18  1  0  0  0  0
 12 17  1  0  0  0  0
 13 12  2  0  0  0  0
 14 13  1  0  0  0  0
 14 15  2  0  0  0  0
 15 16  1  0  0  0  0
 16 17  2  0  0  0  0
 16 20  1  0  0  0  0
 19 13  1  0  0  0  0
M  END
>  <minimizedAffinity>
-4.00469494

>  <minimizedRMSD>
0.530465007

$$$$
