
     RDKit          3D

 40 43  0  0  0  0  0  0  0  0999 V2000
   46.0520   31.6937   45.1449 C   0  0  0  0  0  0  0  0  0  0  0  0
   45.8002   32.9951   45.5195 C   0  0  0  0  0  0  0  0  0  0  0  0
   45.5190   33.2621   46.8350 C   0  0  0  0  0  0  0  0  0  0  0  0
   45.4845   32.2607   47.7784 C   0  0  0  0  0  0  0  0  0  0  0  0
   45.2467   32.2205   49.0924 N   0  0  0  0  0  0  0  0  0  0  0  0
   45.3415   30.9467   49.5447 C   0  0  0  0  0  0  0  0  0  0  0  0
   45.6552   30.1118   48.4829 C   0  0  0  0  0  0  0  0  0  0  0  0
   45.7424   30.9355   47.3891 C   0  0  0  0  0  0  0  0  0  0  0  0
   46.0257   30.6664   46.0637 C   0  0  0  0  0  0  0  0  0  0  0  0
   46.8962   34.9181   42.6275 C   0  0  0  0  0  0  0  0  0  0  0  0
   45.9795   35.9727   42.5503 C   0  0  0  0  0  0  0  0  0  0  0  0
   44.9720   36.0146   43.5126 C   0  0  0  0  0  0  0  0  0  0  0  0
   44.9321   35.0397   44.4661 N   0  0  0  0  0  0  0  0  0  0  0  0
   45.8433   34.0426   44.4949 C   0  0  0  0  0  0  0  0  0  0  0  0
   46.8235   33.9801   43.5789 N   0  0  0  0  0  0  0  0  0  0  0  0
   47.9048   34.9386   41.6056 C   0  0  0  0  0  0  0  0  0  0  0  0
   48.8245   35.8232   41.4882 O   0  0  0  0  0  0  0  0  0  0  0  0
   46.2792   31.4325   44.1162 H   0  0  0  0  0  0  0  0  0  0  0  0
   45.3217   34.2987   47.1156 H   0  0  0  0  0  0  0  0  0  0  0  0
   45.0222   33.0948   49.6430 H   0  0  0  0  0  0  0  0  0  0  0  0
   45.1855   30.6770   50.5904 H   0  0  0  0  0  0  0  0  0  0  0  0
   45.7984   29.0298   48.5283 H   0  0  0  0  0  0  0  0  0  0  0  0
   46.2237   29.6271   45.7814 H   0  0  0  0  0  0  0  0  0  0  0  0
   45.9710   36.7595   41.8213 H   0  0  0  0  0  0  0  0  0  0  0  0
   44.2221   36.8066   43.5158 H   0  0  0  0  0  0  0  0  0  0  0  0
   47.8199   33.8530   40.6722 N   0  0  0  0  0  0  0  0  0  0  0  0
   48.9190   33.2333   39.9522 C   0  0  1  0  0  0  0  0  0  0  0  0
   49.8929   33.6852   40.2262 H   0  0  0  0  0  0  0  0  0  0  0  0
   48.6919   33.3507   38.4893 C   0  0  2  0  0  0  0  0  0  0  0  0
   48.9753   32.3764   37.9995 H   0  0  0  0  0  0  0  0  0  0  0  0
   47.3573   33.7467   38.1211 N   0  0  0  0  0  0  0  0  0  0  0  0
   47.2190   33.4480   37.1296 H   0  0  0  0  0  0  0  0  0  0  0  0
   46.3286   33.1080   38.9043 C   0  0  0  0  0  0  0  0  0  0  0  0
   46.5217   33.2776   40.3818 C   0  0  0  0  0  0  0  0  0  0  0  0
   48.9384   32.1679   40.2622 H   0  0  0  0  0  0  0  0  0  0  0  0
   49.3691   34.1279   38.0784 H   0  0  0  0  0  0  0  0  0  0  0  0
   45.3712   33.6037   38.6293 H   0  0  0  0  0  0  0  0  0  0  0  0
   46.2181   32.0437   38.5962 H   0  0  0  0  0  0  0  0  0  0  0  0
   46.5215   32.2568   40.8243 H   0  0  0  0  0  0  0  0  0  0  0  0
   45.7032   33.8311   40.8717 H   0  0  0  0  0  0  0  0  0  0  0  0
  1  2  2  0
  1  9  1  0
  2  3  1  0
  3  4  2  0
  4  5  1  0
  5  6  1  0
  7  6  2  0
  8  4  1  0
  8  7  1  0
  9  8  2  0
 10 15  1  0
 11 10  2  0
 11 12  1  0
 12 13  2  0
 13 14  1  0
 14  2  1  0
 15 14  2  0
 16 10  1  0
 17 16  2  0
  1 18  1  0
  3 19  1  0
  5 20  1  0
  6 21  1  0
  7 22  1  0
  9 23  1  0
 11 24  1  0
 12 25  1  0
 26 27  1  0
 27 28  1  6
 27 29  1  0
 29 30  1  6
 29 31  1  0
 31 32  1  0
 31 33  1  0
 33 34  1  0
 34 26  1  0
 27 35  1  0
 29 36  1  0
 33 37  1  0
 33 38  1  0
 34 39  1  0
 34 40  1  0
 16 26  1  0
M  ISO  8  18  14  19  14  20   9  21  14  22  14  23  14  24  14  25  14
M  ISO  3  28   8  30   8  32   5
M  END
>  <DihAtoms>  (1) 
9,15,25,26

>  <DihDeg>  (1) 
9.012414389553894e-05

$$$$
