REMARK  Name = 
REMARK  5 active torsions:
REMARK  status: ('A' for Active; 'I' for Inactive)
REMARK    1  A    between atoms: C_3  and  O_7
REMARK    2  A    between atoms: O_7  and  P_9
REMARK    3  A    between atoms: P_9  and  O_10
REMARK    4  A    between atoms: P_9  and  O_11
REMARK    5  A    between atoms: O_11  and  C_12
REMARK                            x       y       z     vdW  Elec       q    Type
REMARK                         _______ _______ _______ _____ _____    ______ ____
ROOT
ATOM      1  O   UNL     1      45.333  30.858  47.469  0.00  0.00    +0.000 OA
ATOM      2  P   UNL     1      45.810  32.090  48.267  0.00  0.00    +0.000 P 
ENDROOT
BRANCH   2   3
ATOM      3  O   UNL     1      45.318  31.822  49.854  0.00  0.00    +0.000 OA
ATOM      4  H   UNL     1      44.471  32.282  50.082  0.00  0.00    +0.000 HD
ENDBRANCH   2   3
BRANCH   2   5
ATOM      5  O   UNL     1      45.031  33.454  47.639  0.00  0.00    +0.000 OA
BRANCH   5   8
ATOM      6  C   UNL     1      46.538  33.614  44.333  0.00  0.00    +0.000 A 
ATOM      7  C   UNL     1      46.230  33.200  45.647  0.00  0.00    +0.000 A 
ATOM      8  C   UNL     1      45.288  33.903  46.361  0.00  0.00    +0.000 A 
ATOM      9  N   UNL     1      44.685  34.974  45.776  0.00  0.00    +0.000 NA
ATOM     10  C   UNL     1      44.995  35.351  44.520  0.00  0.00    +0.000 A 
ATOM     11  N   UNL     1      45.907  34.688  43.799  0.00  0.00    +0.000 NA
ATOM     12  H   UNL     1      47.266  33.118  43.703  0.00  0.00    +0.000 HD
ATOM     13  H   UNL     1      46.805  32.340  45.927  0.00  0.00    +0.000 HD
ATOM     14  H   UNL     1      44.452  36.230  44.140  0.00  0.00    +0.000 HD
ENDBRANCH   5   8
ENDBRANCH   2   5
BRANCH   2  15
ATOM     15  O   UNL     1      47.448  32.263  48.151  0.00  0.00    +0.000 OA
BRANCH  15  16
ATOM     16  C   UNL     1      48.461  31.448  48.542  0.00  0.00    +0.000 C 
ATOM     17  O   UNL     1      49.245  31.977  49.406  0.00  0.00    +0.000 OA
ATOM     18  N   UNL     1      49.247  30.265  48.577  0.00  0.00    +0.000 N 
ATOM     19  C   UNL     1      48.374  29.128  48.292  0.00  0.00    +0.000 C 
ATOM     20  H   UNL     1      47.922  29.165  47.288  0.00  0.00    +0.000 HD
ATOM     21  C   UNL     1      49.242  27.893  48.426  0.00  0.00    +0.000 C 
ATOM     22  H   UNL     1      49.944  27.772  47.576  0.00  0.00    +0.000 HD
ATOM     23  N   UNL     1      50.082  28.009  49.630  0.00  0.00    +0.000 NA
ATOM     24  H   UNL     1      49.495  28.561  50.316  0.00  0.00    +0.000 HD
ATOM     25  C   UNL     1      51.174  28.862  49.247  0.00  0.00    +0.000 C 
ATOM     26  C   UNL     1      50.668  30.194  48.850  0.00  0.00    +0.000 C 
ENDBRANCH  15  16
ENDBRANCH   2  15
TORSDOF 5
