
     RDKit          3D

 32 33  0  0  0  0  0  0  0  0999 V2000
   46.5382   33.6142   44.3326 C   0  0  0  0  0  0  0  0  0  0  0  0
   46.2301   33.1999   45.6466 C   0  0  0  0  0  0  0  0  0  0  0  0
   45.2885   33.9029   46.3611 C   0  0  0  0  0  0  0  0  0  0  0  0
   44.6853   34.9738   45.7763 N   0  0  0  0  0  0  0  0  0  0  0  0
   44.9955   35.3512   44.5201 C   0  0  0  0  0  0  0  0  0  0  0  0
   45.9075   34.6883   43.7992 N   0  0  0  0  0  0  0  0  0  0  0  0
   45.0307   33.4537   47.6388 O   0  0  0  0  0  0  0  0  0  0  0  0
   45.3325   30.8585   47.4695 O   0  0  0  0  0  0  0  0  0  0  0  0
   45.8097   32.0896   48.2666 P   0  0  2  0  0  0  0  0  0  0  0  0
   45.3181   31.8219   49.8538 O   0  0  0  0  0  0  0  0  0  0  0  0
   47.4479   32.2625   48.1505 O   0  0  0  0  0  0  0  0  0  0  0  0
   48.4612   31.4482   48.5422 C   0  0  0  0  0  0  0  0  0  0  0  0
   49.2447   31.9772   49.4058 O   0  0  0  0  0  0  0  0  0  0  0  0
   47.2658   33.1177   43.7027 H   0  0  0  0  0  0  0  0  0  0  0  0
   46.8051   32.3400   45.9266 H   0  0  0  0  0  0  0  0  0  0  0  0
   44.4518   36.2295   44.1400 H   0  0  0  0  0  0  0  0  0  0  0  0
   44.4708   32.2823   50.0816 H   0  0  0  0  0  0  0  0  0  0  0  0
   49.2468   30.2646   48.5769 N   0  0  0  0  0  0  0  0  0  0  0  0
   48.4812   29.1894   47.9514 C   0  0  2  0  0  0  0  0  0  0  0  0
   48.2550   29.3741   46.8887 H   0  0  0  0  0  0  0  0  0  0  0  0
   49.3269   27.9398   48.0930 C   0  0  2  0  0  0  0  0  0  0  0  0
   50.1980   27.9358   47.4059 H   0  0  0  0  0  0  0  0  0  0  0  0
   49.8856   27.8736   49.4534 N   0  0  0  0  0  0  0  0  0  0  0  0
   49.1529   28.3261   50.0674 H   0  0  0  0  0  0  0  0  0  0  0  0
   51.0151   28.7622   49.4408 C   0  0  0  0  0  0  0  0  0  0  0  0
   50.5777   30.1426   49.1375 C   0  0  0  0  0  0  0  0  0  0  0  0
   47.5381   28.9749   48.4724 H   0  0  0  0  0  0  0  0  0  0  0  0
   48.7554   27.0215   47.9358 H   0  0  0  0  0  0  0  0  0  0  0  0
   51.7582   28.4597   48.6678 H   0  0  0  0  0  0  0  0  0  0  0  0
   51.5842   28.7579   50.3959 H   0  0  0  0  0  0  0  0  0  0  0  0
   50.5858   30.8037   50.0497 H   0  0  0  0  0  0  0  0  0  0  0  0
   51.2495   30.6363   48.3753 H   0  0  0  0  0  0  0  0  0  0  0  0
  1  2  2  0
  2  3  1  0
  3  7  1  0
  4  3  2  0
  5  4  1  0
  6  1  1  0
  6  5  2  0
  9  7  1  6
  9  8  2  0
  9 10  1  0
 11  9  1  0
 11 12  1  0
 12 13  2  0
  1 14  1  0
  2 15  1  0
  5 16  1  0
 10 17  1  0
 18 19  1  0
 19 20  1  6
 19 21  1  0
 21 22  1  6
 21 23  1  0
 23 24  1  0
 23 25  1  0
 25 26  1  0
 26 18  1  0
 19 27  1  0
 21 28  1  0
 25 29  1  0
 25 30  1  0
 26 31  1  0
 26 32  1  0
 12 18  1  0
M  ISO  7  14  14  15  14  16  14  17   3  20   8  22   8  24   5
M  END
>  <DihAtoms>  (1) 
10,11,17,18

>  <DihDeg>  (1) 
179.79983724700978

$$$$
