
 OpenBabel03242522513D

 26 27  0  0  0  0  0  0  0  0999 V2000
   45.1700   30.8550   47.5170 O   0  0  0  0  0  0  0  0  0  0  0  0
   45.7470   32.0720   48.2710 P   0  0  2  0  0  0  0  0  0  0  0  0
   45.2620   31.8870   49.8720 O   0  0  0  0  0  0  0  0  0  0  0  0
   44.4540   32.4130   50.0970 H   0  0  0  0  0  0  0  0  0  0  0  0
   45.0590   33.4700   47.6130 O   0  0  0  0  0  0  0  0  0  0  0  0
   46.6720   33.5420   44.3540 C   0  0  0  0  0  0  0  0  0  0  0  0
   46.3320   33.1730   45.6730 C   0  0  0  0  0  0  0  0  0  0  0  0
   45.3450   33.8740   46.3260 C   0  0  0  0  0  0  0  0  0  0  0  0
   44.7300   34.9000   45.6770 N   0  0  0  0  0  0  0  0  0  0  0  0
   45.0720   35.2350   44.4170 C   0  0  0  0  0  0  0  0  0  0  0  0
   46.0270   34.5730   43.7550 N   0  0  0  0  0  0  0  0  0  0  0  0
   47.4360   33.0440   43.7700 H   0  0  0  0  0  0  0  0  0  0  0  0
   46.9230   32.3440   46.0080 H   0  0  0  0  0  0  0  0  0  0  0  0
   44.5150   36.0800   43.9830 H   0  0  0  0  0  0  0  0  0  0  0  0
   47.3910   32.1220   48.1270 O   0  0  0  0  0  0  0  0  0  0  0  0
   48.3490   31.2450   48.5230 C   0  0  0  0  0  0  0  0  0  0  0  0
   49.0360   31.6470   49.5260 O   0  0  0  0  0  0  0  0  0  0  0  0
   49.1170   30.0500   48.4970 N   0  0  0  0  0  0  0  0  0  0  0  0
   48.2730   28.9750   47.9790 C   0  0  0  0  0  3  0  0  0  0  0  0
   47.9360   29.1440   46.9440 H   0  0  0  0  0  0  0  0  0  0  0  0
   49.1120   27.7150   48.0530 C   0  0  0  0  0  3  0  0  0  0  0  0
   49.9030   27.6840   47.2770 H   0  0  0  0  0  0  0  0  0  0  0  0
   49.8140   27.6650   49.3470 N   0  0  0  0  0  0  0  0  0  0  0  0
   49.1580   28.1410   50.0280 H   0  0  0  0  0  0  0  0  0  0  0  0
   50.9480   28.5360   49.1950 C   0  0  0  0  0  2  0  0  0  0  0  0
   50.4990   29.9160   48.9130 C   0  0  0  0  0  2  0  0  0  0  0  0
  2  1  2  6  0  0  0
  2  3  1  0  0  0  0
  3  4  1  0  0  0  0
  5  2  1  0  0  0  0
  6  7  1  0  0  0  0
  7 13  1  0  0  0  0
  7  8  2  0  0  0  0
  8  5  1  0  0  0  0
  9  8  1  0  0  0  0
 10  9  2  0  0  0  0
 11  6  2  0  0  0  0
 11 10  1  0  0  0  0
 12  6  1  0  0  0  0
 14 10  1  0  0  0  0
 15  2  1  0  0  0  0
 15 16  1  0  0  0  0
 16 17  2  0  0  0  0
 18 16  1  0  0  0  0
 18 26  1  0  0  0  0
 19 21  1  0  0  0  0
 19 18  1  0  0  0  0
 20 19  1  0  0  0  0
 21 23  1  0  0  0  0
 22 21  1  0  0  0  0
 23 24  1  0  0  0  0
 25 23  1  0  0  0  0
 26 25  1  0  0  0  0
M  END
>  <minimizedAffinity>
-4.92863083

>  <minimizedRMSD>
0.264908612

$$$$
