
 OpenBabel03252504003D

 34 37  0  0  0  0  0  0  0  0999 V2000
   46.7680   34.9640   42.6420 C   0  0  0  0  0  0  0  0  0  0  0  0
   45.8630   36.0310   42.6120 C   0  0  0  0  0  0  0  0  0  0  0  0
   44.8940   36.0740   43.6140 C   0  0  0  0  0  0  0  0  0  0  0  0
   44.8780   35.0880   44.5570 N   0  0  0  0  0  0  0  0  0  0  0  0
   45.7780   34.0810   44.5400 C   0  0  0  0  0  0  0  0  0  0  0  0
   46.7220   34.0160   43.5860 N   0  0  0  0  0  0  0  0  0  0  0  0
   45.8360   36.8260   41.8930 H   0  0  0  0  0  0  0  0  0  0  0  0
   44.1540   36.8740   43.6540 H   0  0  0  0  0  0  0  0  0  0  0  0
   46.0340   31.7290   45.1640 C   0  0  0  0  0  0  0  0  0  0  0  0
   45.7610   33.0220   45.5540 C   0  0  0  0  0  0  0  0  0  0  0  0
   45.4860   33.2700   46.8740 C   0  0  0  0  0  0  0  0  0  0  0  0
   45.4760   32.2590   47.8070 C   0  0  0  0  0  0  0  0  0  0  0  0
   45.2500   32.2010   49.1220 N   0  0  0  0  0  0  0  0  0  0  0  0
   45.3710   30.9250   49.5610 C   0  0  0  0  0  0  0  0  0  0  0  0
   45.6910   30.1060   48.4890 C   0  0  0  0  0  0  0  0  0  0  0  0
   45.7550   30.9430   47.4020 C   0  0  0  0  0  0  0  0  0  0  0  0
   46.0340   30.6920   46.0730 C   0  0  0  0  0  0  0  0  0  0  0  0
   46.2580   31.4830   44.1310 H   0  0  0  0  0  0  0  0  0  0  0  0
   45.2720   34.3000   47.1670 H   0  0  0  0  0  0  0  0  0  0  0  0
   45.0130   33.0660   49.6840 H   0  0  0  0  0  0  0  0  0  0  0  0
   45.2270   30.6410   50.6050 H   0  0  0  0  0  0  0  0  0  0  0  0
   45.8540   29.0270   48.5210 H   0  0  0  0  0  0  0  0  0  0  0  0
   46.2480   29.6590   45.7780 H   0  0  0  0  0  0  0  0  0  0  0  0
   47.7380   34.9850   41.5830 C   0  0  0  0  0  0  0  0  0  0  0  0
   48.8280   35.6590   41.5860 O   0  0  0  0  0  0  0  0  0  0  0  0
   47.3970   34.1630   40.4580 N   0  0  0  0  0  0  0  0  0  0  0  0
   46.3840   33.1230   40.4120 C   0  0  0  0  0  3  0  0  0  0  0  0
   45.8450   33.0340   41.3760 H   0  0  0  0  0  0  0  0  0  0  0  0
   47.0100   31.8250   40.0530 C   0  0  0  0  0  3  0  0  0  0  0  0
   46.3410   31.2900   39.3210 H   0  0  0  0  0  0  0  0  0  0  0  0
   48.3540   31.9300   39.5470 N   0  0  0  0  0  0  0  0  0  0  0  0
   48.5400   31.0530   39.0090 H   0  0  0  0  0  0  0  0  0  0  0  0
   48.5450   33.0330   38.6380 C   0  0  0  0  0  2  0  0  0  0  0  0
   48.1120   34.3500   39.2110 C   0  0  0  0  0  2  0  0  0  0  0  0
  1  6  1  0  0  0  0
  2  1  2  0  0  0  0
  2  3  1  0  0  0  0
  3  8  1  0  0  0  0
  3  4  2  0  0  0  0
  5  4  1  0  0  0  0
  5 10  1  0  0  0  0
  6  5  2  0  0  0  0
  7  2  1  0  0  0  0
  9 10  2  0  0  0  0
  9 17  1  0  0  0  0
 10 11  1  0  0  0  0
 11 19  1  0  0  0  0
 11 12  2  0  0  0  0
 12 13  1  0  0  0  0
 13 14  1  0  0  0  0
 13 20  1  0  0  0  0
 14 21  1  0  0  0  0
 15 22  1  0  0  0  0
 15 14  2  0  0  0  0
 16 12  1  0  0  0  0
 16 15  1  0  0  0  0
 17 16  2  0  0  0  0
 18  9  1  0  0  0  0
 23 17  1  0  0  0  0
 24 25  2  0  0  0  0
 24  1  1  0  0  0  0
 26 24  1  0  0  0  0
 27 26  1  0  0  0  0
 27 28  1  0  0  0  0
 29 27  1  0  0  0  0
 30 29  1  0  0  0  0
 31 29  1  0  0  0  0
 32 31  1  0  0  0  0
 33 34  1  0  0  0  0
 33 31  1  0  0  0  0
 34 26  1  0  0  0  0
M  END
>  <minimizedAffinity>
-6.24802256

>  <minimizedRMSD>
0.498270273

$$$$
