
 OpenBabel03252508513D

 28 30  0  0  0  0  0  0  0  0999 V2000
   45.9390   34.1550   41.0390 C   0  0  0  0  0  0  0  0  0  0  0  0
   46.5270   34.8050   42.1290 C   0  0  0  0  0  0  0  0  0  0  0  0
   47.8690   35.1970   41.9970 C   0  0  0  0  0  0  0  0  0  0  0  0
   48.4940   34.9120   40.8120 N   0  0  0  0  0  0  0  0  0  0  0  0
   47.8910   34.2900   39.8050 C   0  0  0  0  0  0  0  0  0  0  0  0
   46.6060   33.9000   39.8980 N   0  0  0  0  0  0  0  0  0  0  0  0
   48.3480   35.7030   42.8270 H   0  0  0  0  0  0  0  0  0  0  0  0
   48.4700   34.1150   38.9230 H   0  0  0  0  0  0  0  0  0  0  0  0
   45.7540   35.0480   43.3330 C   0  0  0  0  0  0  0  0  0  0  0  0
   45.0800   36.2290   43.5680 C   0  0  0  0  0  0  0  0  0  0  0  0
   44.5000   36.0170   44.8070 C   0  0  0  0  0  0  0  0  0  0  0  0
   44.8050   34.7810   45.2930 N   0  0  0  0  0  0  0  0  0  0  0  0
   45.5600   34.2290   44.3830 N   0  0  0  0  0  0  0  0  0  0  0  0
   44.9900   37.1290   42.9700 H   0  0  0  0  0  0  0  0  0  0  0  0
   43.8740   36.7530   45.3250 H   0  0  0  0  0  0  0  0  0  0  0  0
   44.4520   34.4510   46.2190 H   0  0  0  0  0  0  0  0  0  0  0  0
   44.6160   33.7650   41.1600 O   0  0  0  0  0  0  0  0  0  0  0  0
   43.5330   34.4420   40.6650 C   0  0  0  0  0  0  0  0  0  0  0  0
   43.3240   35.6980   40.6560 O   0  0  0  0  0  0  0  0  0  0  0  0
   42.3190   33.9840   40.0190 N   0  0  0  0  0  0  0  0  0  0  0  0
   41.2020   33.6900   40.8930 C   0  0  0  0  0  3  0  0  0  0  0  0
   40.5190   34.5830   40.7800 H   0  0  0  0  0  0  0  0  0  0  0  0
   40.4870   32.5010   40.2900 C   0  0  0  0  0  3  0  0  0  0  0  0
   40.1620   31.8560   41.1360 H   0  0  0  0  0  0  0  0  0  0  0  0
   41.3530   31.6730   39.4820 N   0  0  0  0  0  0  0  0  0  0  0  0
   40.7860   30.8680   39.1570 H   0  0  0  0  0  0  0  0  0  0  0  0
   41.8460   32.3670   38.3110 C   0  0  0  0  0  2  0  0  0  0  0  0
   42.1640   33.8080   38.5880 C   0  0  0  0  0  2  0  0  0  0  0  0
  1 17  1  0  0  0  0
  1  2  1  0  0  0  0
  2  9  1  0  0  0  0
  3  2  2  0  0  0  0
  3  7  1  0  0  0  0
  4  3  1  0  0  0  0
  5  6  1  0  0  0  0
  5  4  2  0  0  0  0
  6  1  2  0  0  0  0
  8  5  1  0  0  0  0
  9 10  1  0  0  0  0
  9 13  2  0  0  0  0
 10 11  2  0  0  0  0
 11 12  1  0  0  0  0
 11 15  1  0  0  0  0
 12 16  1  0  0  0  0
 13 12  1  0  0  0  0
 14 10  1  0  0  0  0
 18 17  1  0  0  0  0
 19 18  2  0  0  0  0
 20 18  1  0  0  0  0
 20 21  1  0  0  0  0
 22 21  1  0  0  0  0
 23 21  1  0  0  0  0
 23 24  1  0  0  0  0
 25 23  1  0  0  0  0
 26 25  1  0  0  0  0
 27 28  1  0  0  0  0
 27 25  1  0  0  0  0
 28 20  1  0  0  0  0
M  END
>  <minimizedAffinity>
-5.41026974

>  <minimizedRMSD>
0.670475662

$$$$
