
 OpenBabel03252508513D

 28 30  0  0  0  0  0  0  0  0999 V2000
   45.9250   34.1990   41.0390 C   0  0  0  0  0  0  0  0  0  0  0  0
   46.5250   34.8090   42.1460 C   0  0  0  0  0  0  0  0  0  0  0  0
   47.8820   35.1540   42.0340 C   0  0  0  0  0  0  0  0  0  0  0  0
   48.5080   34.8670   40.8500 N   0  0  0  0  0  0  0  0  0  0  0  0
   47.8940   34.2850   39.8260 C   0  0  0  0  0  0  0  0  0  0  0  0
   46.5940   33.9400   39.9000 N   0  0  0  0  0  0  0  0  0  0  0  0
   48.3690   35.6290   42.8780 H   0  0  0  0  0  0  0  0  0  0  0  0
   48.4750   34.1050   38.9470 H   0  0  0  0  0  0  0  0  0  0  0  0
   45.7490   35.0590   43.3470 C   0  0  0  0  0  0  0  0  0  0  0  0
   45.0840   36.2460   43.5780 C   0  0  0  0  0  0  0  0  0  0  0  0
   44.4960   36.0390   44.8150 C   0  0  0  0  0  0  0  0  0  0  0  0
   44.7880   34.8010   45.3020 N   0  0  0  0  0  0  0  0  0  0  0  0
   45.5420   34.2420   44.3960 N   0  0  0  0  0  0  0  0  0  0  0  0
   45.0050   37.1470   42.9810 H   0  0  0  0  0  0  0  0  0  0  0  0
   43.8750   36.7810   45.3300 H   0  0  0  0  0  0  0  0  0  0  0  0
   44.4280   34.4730   46.2270 H   0  0  0  0  0  0  0  0  0  0  0  0
   44.5880   33.8550   41.1400 O   0  0  0  0  0  0  0  0  0  0  0  0
   43.5390   34.5530   40.6010 C   0  0  0  0  0  0  0  0  0  0  0  0
   43.2980   35.8000   40.6770 O   0  0  0  0  0  0  0  0  0  0  0  0
   42.4040   34.1290   39.8060 N   0  0  0  0  0  0  0  0  0  0  0  0
   42.2840   34.7290   38.4930 C   0  0  0  0  0  3  0  0  0  0  0  0
   42.6460   33.9260   37.7850 H   0  0  0  0  0  0  0  0  0  0  0  0
   40.8040   34.9150   38.2400 C   0  0  0  0  0  3  0  0  0  0  0  0
   40.6860   35.8870   37.7120 H   0  0  0  0  0  0  0  0  0  0  0  0
   40.0360   35.0400   39.4580 N   0  0  0  0  0  0  0  0  0  0  0  0
   39.0520   35.2090   39.1790 H   0  0  0  0  0  0  0  0  0  0  0  0
   40.0660   33.8330   40.2570 C   0  0  0  0  0  2  0  0  0  0  0  0
   41.4100   33.1640   40.2360 C   0  0  0  0  0  2  0  0  0  0  0  0
  1 17  1  0  0  0  0
  1  2  1  0  0  0  0
  2  9  1  0  0  0  0
  3  2  2  0  0  0  0
  3  7  1  0  0  0  0
  4  3  1  0  0  0  0
  5  6  1  0  0  0  0
  5  4  2  0  0  0  0
  6  1  2  0  0  0  0
  8  5  1  0  0  0  0
  9 10  1  0  0  0  0
  9 13  2  0  0  0  0
 10 11  2  0  0  0  0
 11 12  1  0  0  0  0
 11 15  1  0  0  0  0
 12 16  1  0  0  0  0
 13 12  1  0  0  0  0
 14 10  1  0  0  0  0
 18 19  2  0  0  0  0
 18 17  1  0  0  0  0
 20 28  1  0  0  0  0
 20 18  1  0  0  0  0
 21 20  1  0  0  0  0
 22 21  1  0  0  0  0
 23 21  1  0  0  0  0
 23 25  1  0  0  0  0
 24 23  1  0  0  0  0
 25 27  1  0  0  0  0
 26 25  1  0  0  0  0
 28 27  1  0  0  0  0
M  END
>  <minimizedAffinity>
-5.69962263

>  <minimizedRMSD>
0.571800828

$$$$
