
 OpenBabel03252501113D

 20 21  0  0  0  0  0  0  0  0999 V2000
   46.9390   34.8220   41.9550 C   0  0  0  0  0  0  0  0  0  0  0  0
   47.9680   35.4970   41.7160 O   0  0  0  0  0  0  0  0  0  0  0  0
   46.4960   33.9480   40.9200 N   0  0  0  0  0  0  0  0  0  0  0  0
   45.1060   33.6250   40.7580 C   0  0  0  0  0  3  0  0  0  0  0  0
   44.7750   32.8510   41.4720 H   0  0  0  0  0  0  0  0  0  0  0  0
   44.7580   33.2940   39.3340 C   0  0  0  0  0  3  0  0  0  0  0  0
   44.8040   34.2190   38.7220 H   0  0  0  0  0  0  0  0  0  0  0  0
   45.5570   32.2470   38.7720 N   0  0  0  0  0  0  0  0  0  0  0  0
   45.0540   31.3440   38.7600 H   0  0  0  0  0  0  0  0  0  0  0  0
   46.8340   32.0660   39.4020 C   0  0  0  0  0  2  0  0  0  0  0  0
   47.3960   33.3400   39.9840 C   0  0  0  0  0  2  0  0  0  0  0  0
   44.5950   36.0320   44.5310 C   0  0  0  0  0  0  0  0  0  0  0  0
   45.3340   35.9580   43.3430 C   0  0  0  0  0  0  0  0  0  0  0  0
   46.1910   34.8730   43.1860 C   0  0  0  0  0  0  0  0  0  0  0  0
   46.2660   33.9460   44.1830 N   0  0  0  0  0  0  0  0  0  0  0  0
   45.5300   34.0610   45.3140 C   0  0  0  0  0  0  0  0  0  0  0  0
   44.6880   35.1100   45.4920 N   0  0  0  0  0  0  0  0  0  0  0  0
   43.9120   36.8600   44.7030 H   0  0  0  0  0  0  0  0  0  0  0  0
   45.1830   36.7510   42.6390 H   0  0  0  0  0  0  0  0  0  0  0  0
   45.7570   33.2130   45.9540 H   0  0  0  0  0  0  0  0  0  0  0  0
  1 14  1  0  0  0  0
  2  1  2  0  0  0  0
  3  1  1  0  0  0  0
  4  3  1  0  0  0  0
  4  5  1  0  0  0  0
  6  4  1  0  0  0  0
  7  6  1  0  0  0  0
  8  6  1  0  0  0  0
  8 10  1  0  0  0  0
  9  8  1  0  0  0  0
 10 11  1  0  0  0  0
 11  3  1  0  0  0  0
 12 18  1  0  0  0  0
 12 17  1  0  0  0  0
 13 12  2  0  0  0  0
 14 13  1  0  0  0  0
 14 15  2  0  0  0  0
 15 16  1  0  0  0  0
 16 17  2  0  0  0  0
 16 20  1  0  0  0  0
 19 13  1  0  0  0  0
M  END
>  <minimizedAffinity>
-4.07779408

>  <minimizedRMSD>
0.127633303

$$$$
