
 OpenBabel03252508523D

 28 30  0  0  0  0  0  0  0  0999 V2000
   36.5780   30.4510   39.0980 C   0  0  0  0  0  0  0  0  0  0  0  0
   37.4180   31.4090   38.5200 C   0  0  0  0  0  0  0  0  0  0  0  0
   37.6040   31.3470   37.1290 C   0  0  0  0  0  0  0  0  0  0  0  0
   36.9480   30.3540   36.4510 N   0  0  0  0  0  0  0  0  0  0  0  0
   36.1600   29.4660   37.0460 C   0  0  0  0  0  0  0  0  0  0  0  0
   35.9600   29.4970   38.3770 N   0  0  0  0  0  0  0  0  0  0  0  0
   38.2500   32.0780   36.6580 H   0  0  0  0  0  0  0  0  0  0  0  0
   35.6950   28.7320   36.4230 H   0  0  0  0  0  0  0  0  0  0  0  0
   38.0560   32.4120   39.3530 C   0  0  0  0  0  0  0  0  0  0  0  0
   39.4070   32.4050   39.6360 C   0  0  0  0  0  0  0  0  0  0  0  0
   39.5620   33.5180   40.4440 C   0  0  0  0  0  0  0  0  0  0  0  0
   38.3770   34.1600   40.6390 N   0  0  0  0  0  0  0  0  0  0  0  0
   37.4960   33.4680   39.9700 N   0  0  0  0  0  0  0  0  0  0  0  0
   40.1960   31.7270   39.3300 H   0  0  0  0  0  0  0  0  0  0  0  0
   40.5210   33.8380   40.8700 H   0  0  0  0  0  0  0  0  0  0  0  0
   38.3060   35.0220   41.2250 H   0  0  0  0  0  0  0  0  0  0  0  0
   36.3870   30.5050   40.4680 O   0  0  0  0  0  0  0  0  0  0  0  0
   36.6000   29.4760   41.3470 C   0  0  0  0  0  0  0  0  0  0  0  0
   35.9440   28.3930   41.4690 O   0  0  0  0  0  0  0  0  0  0  0  0
   37.5940   29.2830   42.3850 N   0  0  0  0  0  0  0  0  0  0  0  0
   38.8810   29.9080   42.1610 C   0  0  0  0  0  3  0  0  0  0  0  0
   38.8650   30.8230   42.8230 H   0  0  0  0  0  0  0  0  0  0  0  0
   39.9200   28.9640   42.7290 C   0  0  0  0  0  3  0  0  0  0  0  0
   40.7910   28.9900   42.0370 H   0  0  0  0  0  0  0  0  0  0  0  0
   39.4790   27.5900   42.7490 N   0  0  0  0  0  0  0  0  0  0  0  0
   40.2710   27.0220   43.1070 H   0  0  0  0  0  0  0  0  0  0  0  0
   38.3530   27.3820   43.6340 C   0  0  0  0  0  2  0  0  0  0  0  0
   37.3780   28.5230   43.6000 C   0  0  0  0  0  2  0  0  0  0  0  0
  1 17  1  0  0  0  0
  2  1  1  0  0  0  0
  2  9  1  0  0  0  0
  3  2  2  0  0  0  0
  4  5  2  0  0  0  0
  4  3  1  0  0  0  0
  5  6  1  0  0  0  0
  6  1  2  0  0  0  0
  7  3  1  0  0  0  0
  8  5  1  0  0  0  0
  9 10  1  0  0  0  0
  9 13  2  0  0  0  0
 10 11  2  0  0  0  0
 11 12  1  0  0  0  0
 11 15  1  0  0  0  0
 12 16  1  0  0  0  0
 13 12  1  0  0  0  0
 14 10  1  0  0  0  0
 17 18  1  0  0  0  0
 18 19  2  0  0  0  0
 18 20  1  0  0  0  0
 20 28  1  0  0  0  0
 21 20  1  0  0  0  0
 21 23  1  0  0  0  0
 21 22  1  0  0  0  0
 23 25  1  0  0  0  0
 24 23  1  0  0  0  0
 25 26  1  0  0  0  0
 25 27  1  0  0  0  0
 28 27  1  0  0  0  0
M  END
>  <minimizedAffinity>
-5.30526829

$$$$

 OpenBabel03252508523D

 28 30  0  0  0  0  0  0  0  0999 V2000
   39.4350   27.8080   41.2270 C   0  0  0  0  0  0  0  0  0  0  0  0
   38.3400   28.0200   42.0700 C   0  0  0  0  0  0  0  0  0  0  0  0
   38.3990   27.4570   43.3550 C   0  0  0  0  0  0  0  0  0  0  0  0
   39.5240   26.7460   43.6790 N   0  0  0  0  0  0  0  0  0  0  0  0
   40.5390   26.5710   42.8410 C   0  0  0  0  0  0  0  0  0  0  0  0
   40.5150   27.0970   41.6020 N   0  0  0  0  0  0  0  0  0  0  0  0
   37.5630   27.6070   44.0280 H   0  0  0  0  0  0  0  0  0  0  0  0
   41.3700   25.9990   43.1940 H   0  0  0  0  0  0  0  0  0  0  0  0
   37.2040   28.7950   41.6050 C   0  0  0  0  0  0  0  0  0  0  0  0
   36.1850   28.2540   40.8470 C   0  0  0  0  0  0  0  0  0  0  0  0
   35.3440   29.3340   40.6390 C   0  0  0  0  0  0  0  0  0  0  0  0
   35.8250   30.4600   41.2360 N   0  0  0  0  0  0  0  0  0  0  0  0
   36.9420   30.0990   41.8040 N   0  0  0  0  0  0  0  0  0  0  0  0
   36.0290   27.2470   40.4780 H   0  0  0  0  0  0  0  0  0  0  0  0
   34.4100   29.2810   40.0670 H   0  0  0  0  0  0  0  0  0  0  0  0
   35.3180   31.3720   41.1810 H   0  0  0  0  0  0  0  0  0  0  0  0
   39.3870   28.3600   39.9580 O   0  0  0  0  0  0  0  0  0  0  0  0
   40.0280   29.5020   39.5560 C   0  0  0  0  0  0  0  0  0  0  0  0
   41.2790   29.7160   39.4660 O   0  0  0  0  0  0  0  0  0  0  0  0
   39.5240   30.7910   39.1240 N   0  0  0  0  0  0  0  0  0  0  0  0
   38.2390   30.7820   38.4550 C   0  0  0  0  0  3  0  0  0  0  0  0
   37.5140   31.1470   39.2410 H   0  0  0  0  0  0  0  0  0  0  0  0
   38.3080   31.8480   37.3820 C   0  0  0  0  0  3  0  0  0  0  0  0
   37.7650   31.4480   36.4960 H   0  0  0  0  0  0  0  0  0  0  0  0
   39.6540   32.1050   36.9300 N   0  0  0  0  0  0  0  0  0  0  0  0
   39.5900   32.8080   36.1700 H   0  0  0  0  0  0  0  0  0  0  0  0
   40.4920   32.6590   37.9720 C   0  0  0  0  0  2  0  0  0  0  0  0
   40.2130   32.0520   39.3170 C   0  0  0  0  0  2  0  0  0  0  0  0
  1  6  2  0  0  0  0
  1  2  1  0  0  0  0
  2  3  2  0  0  0  0
  3  4  1  0  0  0  0
  3  7  1  0  0  0  0
  5  8  1  0  0  0  0
  5  4  2  0  0  0  0
  6  5  1  0  0  0  0
  9 13  2  0  0  0  0
  9  2  1  0  0  0  0
 10  9  1  0  0  0  0
 11 10  2  0  0  0  0
 11 12  1  0  0  0  0
 12 13  1  0  0  0  0
 14 10  1  0  0  0  0
 15 11  1  0  0  0  0
 16 12  1  0  0  0  0
 17  1  1  0  0  0  0
 18 17  1  0  0  0  0
 19 18  2  0  0  0  0
 20 28  1  0  0  0  0
 20 18  1  0  0  0  0
 21 20  1  0  0  0  0
 21 22  1  0  0  0  0
 23 21  1  0  0  0  0
 24 23  1  0  0  0  0
 25 23  1  0  0  0  0
 25 27  1  0  0  0  0
 26 25  1  0  0  0  0
 27 28  1  0  0  0  0
M  END
>  <minimizedAffinity>
-5.15085459

$$$$

 OpenBabel03252508523D

 28 30  0  0  0  0  0  0  0  0999 V2000
   37.4060   29.3310   39.2510 C   0  0  0  0  0  0  0  0  0  0  0  0
   36.4050   28.9820   40.1640 C   0  0  0  0  0  0  0  0  0  0  0  0
   35.0920   28.8890   39.6750 C   0  0  0  0  0  0  0  0  0  0  0  0
   34.8970   29.1470   38.3450 N   0  0  0  0  0  0  0  0  0  0  0  0
   35.8810   29.4760   37.5170 C   0  0  0  0  0  0  0  0  0  0  0  0
   37.1520   29.5740   37.9520 N   0  0  0  0  0  0  0  0  0  0  0  0
   34.2990   28.6200   40.3640 H   0  0  0  0  0  0  0  0  0  0  0  0
   35.6200   29.6560   36.4960 H   0  0  0  0  0  0  0  0  0  0  0  0
   36.7450   28.7340   41.5540 C   0  0  0  0  0  0  0  0  0  0  0  0
   36.7810   27.4700   42.1040 C   0  0  0  0  0  0  0  0  0  0  0  0
   37.1410   27.7120   43.4190 C   0  0  0  0  0  0  0  0  0  0  0  0
   37.3130   29.0430   43.6500 N   0  0  0  0  0  0  0  0  0  0  0  0
   37.0660   29.6260   42.5090 N   0  0  0  0  0  0  0  0  0  0  0  0
   36.5870   26.4960   41.6680 H   0  0  0  0  0  0  0  0  0  0  0  0
   37.2710   26.9260   44.1740 H   0  0  0  0  0  0  0  0  0  0  0  0
   37.5860   29.4090   44.5900 H   0  0  0  0  0  0  0  0  0  0  0  0
   38.7040   29.4250   39.7230 O   0  0  0  0  0  0  0  0  0  0  0  0
   39.5800   30.4440   39.4600 C   0  0  0  0  0  0  0  0  0  0  0  0
   40.4450   30.5220   38.5290 O   0  0  0  0  0  0  0  0  0  0  0  0
   39.8110   31.7140   40.1200 N   0  0  0  0  0  0  0  0  0  0  0  0
   38.6620   32.3140   40.7680 C   0  0  0  0  0  3  0  0  0  0  0  0
   38.8230   32.1040   41.8660 H   0  0  0  0  0  0  0  0  0  0  0  0
   38.7950   33.8100   40.5760 C   0  0  0  0  0  3  0  0  0  0  0  0
   37.7700   34.2030   40.3910 H   0  0  0  0  0  0  0  0  0  0  0  0
   39.5620   34.1600   39.4040 N   0  0  0  0  0  0  0  0  0  0  0  0
   39.5550   35.1960   39.3350 H   0  0  0  0  0  0  0  0  0  0  0  0
   40.9430   33.7360   39.4990 C   0  0  0  0  0  2  0  0  0  0  0  0
   41.0880   32.3990   40.1660 C   0  0  0  0  0  2  0  0  0  0  0  0
  1 17  1  0  0  0  0
  1  2  1  0  0  0  0
  2  9  1  0  0  0  0
  3  2  2  0  0  0  0
  3  7  1  0  0  0  0
  4  3  1  0  0  0  0
  5  6  1  0  0  0  0
  5  4  2  0  0  0  0
  6  1  2  0  0  0  0
  8  5  1  0  0  0  0
  9 10  1  0  0  0  0
  9 13  2  0  0  0  0
 10 11  2  0  0  0  0
 11 12  1  0  0  0  0
 11 15  1  0  0  0  0
 12 16  1  0  0  0  0
 13 12  1  0  0  0  0
 14 10  1  0  0  0  0
 18 17  1  0  0  0  0
 18 20  1  0  0  0  0
 19 18  2  0  0  0  0
 20 28  1  0  0  0  0
 20 21  1  0  0  0  0
 21 22  1  0  0  0  0
 23 21  1  0  0  0  0
 24 23  1  0  0  0  0
 25 27  1  0  0  0  0
 25 23  1  0  0  0  0
 26 25  1  0  0  0  0
 27 28  1  0  0  0  0
M  END
>  <minimizedAffinity>
-5.08633327

$$$$

 OpenBabel03252508523D

 28 30  0  0  0  0  0  0  0  0999 V2000
   36.2960   29.4130   37.9070 C   0  0  0  0  0  0  0  0  0  0  0  0
   35.4610   29.1170   38.9890 C   0  0  0  0  0  0  0  0  0  0  0  0
   34.1250   28.7930   38.7020 C   0  0  0  0  0  0  0  0  0  0  0  0
   33.7470   28.7930   37.3860 N   0  0  0  0  0  0  0  0  0  0  0  0
   34.5790   29.0840   36.3920 C   0  0  0  0  0  0  0  0  0  0  0  0
   35.8660   29.3980   36.6320 N   0  0  0  0  0  0  0  0  0  0  0  0
   33.4580   28.5590   39.5240 H   0  0  0  0  0  0  0  0  0  0  0  0
   34.1820   29.0540   35.3990 H   0  0  0  0  0  0  0  0  0  0  0  0
   35.9860   29.1520   40.3430 C   0  0  0  0  0  0  0  0  0  0  0  0
   36.5040   28.0420   40.9770 C   0  0  0  0  0  0  0  0  0  0  0  0
   36.8730   28.5350   42.2180 C   0  0  0  0  0  0  0  0  0  0  0  0
   36.5940   29.8640   42.3270 N   0  0  0  0  0  0  0  0  0  0  0  0
   36.0630   30.2000   41.1840 N   0  0  0  0  0  0  0  0  0  0  0  0
   36.6200   27.0180   40.6410 H   0  0  0  0  0  0  0  0  0  0  0  0
   37.3310   27.9270   43.0070 H   0  0  0  0  0  0  0  0  0  0  0  0
   36.8060   30.4020   43.1970 H   0  0  0  0  0  0  0  0  0  0  0  0
   37.6160   29.7330   38.1800 O   0  0  0  0  0  0  0  0  0  0  0  0
   38.1060   30.9930   38.3980 C   0  0  0  0  0  0  0  0  0  0  0  0
   37.6940   32.0950   37.9120 O   0  0  0  0  0  0  0  0  0  0  0  0
   39.2050   31.4750   39.2110 N   0  0  0  0  0  0  0  0  0  0  0  0
   39.5030   30.7050   40.4020 C   0  0  0  0  0  3  0  0  0  0  0  0
   40.4210   30.1080   40.1230 H   0  0  0  0  0  0  0  0  0  0  0  0
   39.9230   31.7020   41.4620 C   0  0  0  0  0  3  0  0  0  0  0  0
   39.4940   31.3460   42.4260 H   0  0  0  0  0  0  0  0  0  0  0  0
   39.3640   33.0160   41.2500 N   0  0  0  0  0  0  0  0  0  0  0  0
   39.6690   33.6070   42.0470 H   0  0  0  0  0  0  0  0  0  0  0  0
   39.8490   33.6340   40.0340 C   0  0  0  0  0  2  0  0  0  0  0  0
   39.9990   32.6500   38.9100 C   0  0  0  0  0  2  0  0  0  0  0  0
  1 17  1  0  0  0  0
  1  2  1  0  0  0  0
  2  9  1  0  0  0  0
  3  2  2  0  0  0  0
  3  7  1  0  0  0  0
  4  3  1  0  0  0  0
  5  6  1  0  0  0  0
  5  4  2  0  0  0  0
  6  1  2  0  0  0  0
  8  5  1  0  0  0  0
  9 10  1  0  0  0  0
  9 13  2  0  0  0  0
 10 11  2  0  0  0  0
 11 12  1  0  0  0  0
 11 15  1  0  0  0  0
 12 16  1  0  0  0  0
 13 12  1  0  0  0  0
 14 10  1  0  0  0  0
 17 18  1  0  0  0  0
 18 20  1  0  0  0  0
 19 18  2  0  0  0  0
 20 21  1  0  0  0  0
 21 23  1  0  0  0  0
 22 21  1  0  0  0  0
 23 24  1  0  0  0  0
 25 23  1  0  0  0  0
 25 26  1  0  0  0  0
 27 25  1  0  0  0  0
 28 20  1  0  0  0  0
 28 27  1  0  0  0  0
M  END
>  <minimizedAffinity>
-4.86192131

$$$$

 OpenBabel03252508523D

 28 30  0  0  0  0  0  0  0  0999 V2000
   36.9090   25.9610   40.3660 C   0  0  0  0  0  0  0  0  0  0  0  0
   37.4200   25.9520   41.6680 C   0  0  0  0  0  0  0  0  0  0  0  0
   37.8250   24.7140   42.1920 C   0  0  0  0  0  0  0  0  0  0  0  0
   37.6870   23.6150   41.3870 N   0  0  0  0  0  0  0  0  0  0  0  0
   37.1930   23.6740   40.1550 C   0  0  0  0  0  0  0  0  0  0  0  0
   36.7960   24.8450   39.6220 N   0  0  0  0  0  0  0  0  0  0  0  0
   38.2260   24.6810   43.1990 H   0  0  0  0  0  0  0  0  0  0  0  0
   37.1290   22.7560   39.6110 H   0  0  0  0  0  0  0  0  0  0  0  0
   37.5140   27.1900   42.4190 C   0  0  0  0  0  0  0  0  0  0  0  0
   38.6750   27.9320   42.5040 C   0  0  0  0  0  0  0  0  0  0  0  0
   38.3050   29.0000   43.3040 C   0  0  0  0  0  0  0  0  0  0  0  0
   36.9990   28.9110   43.6800 N   0  0  0  0  0  0  0  0  0  0  0  0
   36.5570   27.8120   43.1320 N   0  0  0  0  0  0  0  0  0  0  0  0
   39.6570   27.7700   42.0750 H   0  0  0  0  0  0  0  0  0  0  0  0
   38.9830   29.8130   43.5920 H   0  0  0  0  0  0  0  0  0  0  0  0
   36.5490   29.6320   44.2870 H   0  0  0  0  0  0  0  0  0  0  0  0
   36.5070   27.1770   39.8400 O   0  0  0  0  0  0  0  0  0  0  0  0
   37.2800   28.0140   39.0790 C   0  0  0  0  0  0  0  0  0  0  0  0
   37.8160   27.7840   37.9480 O   0  0  0  0  0  0  0  0  0  0  0  0
   37.7290   29.3760   39.2950 N   0  0  0  0  0  0  0  0  0  0  0  0
   36.8500   30.2220   40.0760 C   0  0  0  0  0  3  0  0  0  0  0  0
   37.3370   30.2630   41.0940 H   0  0  0  0  0  0  0  0  0  0  0  0
   36.9470   31.6090   39.4780 C   0  0  0  0  0  3  0  0  0  0  0  0
   35.9230   32.0450   39.5090 H   0  0  0  0  0  0  0  0  0  0  0  0
   37.3210   31.5940   38.0830 N   0  0  0  0  0  0  0  0  0  0  0  0
   37.3140   32.5800   37.7570 H   0  0  0  0  0  0  0  0  0  0  0  0
   38.6540   31.0720   37.8730 C   0  0  0  0  0  2  0  0  0  0  0  0
   38.9710   29.9230   38.7870 C   0  0  0  0  0  2  0  0  0  0  0  0
  1  2  1  0  0  0  0
  2  3  2  0  0  0  0
  2  9  1  0  0  0  0
  3  7  1  0  0  0  0
  4  3  1  0  0  0  0
  5  4  2  0  0  0  0
  6  5  1  0  0  0  0
  6  1  2  0  0  0  0
  8  5  1  0  0  0  0
  9 10  1  0  0  0  0
  9 13  2  0  0  0  0
 10 11  2  0  0  0  0
 11 15  1  0  0  0  0
 11 12  1  0  0  0  0
 12 16  1  0  0  0  0
 13 12  1  0  0  0  0
 14 10  1  0  0  0  0
 17  1  1  0  0  0  0
 18 20  1  0  0  0  0
 18 17  1  0  0  0  0
 19 18  2  0  0  0  0
 20 21  1  0  0  0  0
 21 22  1  0  0  0  0
 23 24  1  0  0  0  0
 23 21  1  0  0  0  0
 25 23  1  0  0  0  0
 26 25  1  0  0  0  0
 27 25  1  0  0  0  0
 27 28  1  0  0  0  0
 28 20  1  0  0  0  0
M  END
>  <minimizedAffinity>
-4.84751081

$$$$

 OpenBabel03252508523D

 28 30  0  0  0  0  0  0  0  0999 V2000
   38.3680   28.6930   41.9820 C   0  0  0  0  0  0  0  0  0  0  0  0
   37.3440   27.8280   41.5840 C   0  0  0  0  0  0  0  0  0  0  0  0
   37.3670   26.5220   42.0990 C   0  0  0  0  0  0  0  0  0  0  0  0
   38.3890   26.2000   42.9500 N   0  0  0  0  0  0  0  0  0  0  0  0
   39.3420   27.0580   43.2990 C   0  0  0  0  0  0  0  0  0  0  0  0
   39.3500   28.3170   42.8230 N   0  0  0  0  0  0  0  0  0  0  0  0
   36.5830   25.8330   41.8050 H   0  0  0  0  0  0  0  0  0  0  0  0
   40.0950   26.7040   43.9700 H   0  0  0  0  0  0  0  0  0  0  0  0
   36.3140   28.2940   40.6720 C   0  0  0  0  0  0  0  0  0  0  0  0
   36.3140   27.9980   39.3240 C   0  0  0  0  0  0  0  0  0  0  0  0
   35.1740   28.6360   38.8640 C   0  0  0  0  0  0  0  0  0  0  0  0
   34.5250   29.2800   39.8740 N   0  0  0  0  0  0  0  0  0  0  0  0
   35.2370   29.0540   40.9430 N   0  0  0  0  0  0  0  0  0  0  0  0
   37.0040   27.4170   38.7220 H   0  0  0  0  0  0  0  0  0  0  0  0
   34.8430   28.6200   37.8190 H   0  0  0  0  0  0  0  0  0  0  0  0
   33.6440   29.8160   39.7080 H   0  0  0  0  0  0  0  0  0  0  0  0
   38.3540   29.9830   41.4810 O   0  0  0  0  0  0  0  0  0  0  0  0
   39.3850   30.5960   40.8180 C   0  0  0  0  0  0  0  0  0  0  0  0
   40.2280   30.0780   40.0170 O   0  0  0  0  0  0  0  0  0  0  0  0
   39.8440   31.9710   40.8060 N   0  0  0  0  0  0  0  0  0  0  0  0
   38.8300   32.9840   41.0190 C   0  0  0  0  0  3  0  0  0  0  0  0
   38.9780   33.3030   42.0920 H   0  0  0  0  0  0  0  0  0  0  0  0
   39.2110   34.1610   40.1460 C   0  0  0  0  0  3  0  0  0  0  0  0
   38.2640   34.5760   39.7340 H   0  0  0  0  0  0  0  0  0  0  0  0
   39.9980   33.7770   38.9980 N   0  0  0  0  0  0  0  0  0  0  0  0
   40.1660   34.6390   38.4440 H   0  0  0  0  0  0  0  0  0  0  0  0
   41.2890   33.2350   39.3680 C   0  0  0  0  0  2  0  0  0  0  0  0
   41.2200   32.3780   40.5990 C   0  0  0  0  0  2  0  0  0  0  0  0
  1  6  1  0  0  0  0
  2  1  2  0  0  0  0
  2  3  1  0  0  0  0
  3  4  2  0  0  0  0
  4  5  1  0  0  0  0
  5  8  1  0  0  0  0
  6  5  2  0  0  0  0
  7  3  1  0  0  0  0
  9 13  2  0  0  0  0
  9  2  1  0  0  0  0
 10  9  1  0  0  0  0
 11 10  2  0  0  0  0
 11 12  1  0  0  0  0
 12 13  1  0  0  0  0
 14 10  1  0  0  0  0
 15 11  1  0  0  0  0
 16 12  1  0  0  0  0
 17  1  1  0  0  0  0
 18 17  1  0  0  0  0
 19 18  2  0  0  0  0
 20 18  1  0  0  0  0
 20 21  1  0  0  0  0
 21 22  1  0  0  0  0
 23 21  1  0  0  0  0
 24 23  1  0  0  0  0
 25 27  1  0  0  0  0
 25 23  1  0  0  0  0
 26 25  1  0  0  0  0
 27 28  1  0  0  0  0
 28 20  1  0  0  0  0
M  END
>  <minimizedAffinity>
-4.84251547

$$$$

 OpenBabel03252508523D

 28 30  0  0  0  0  0  0  0  0999 V2000
   39.8140   31.2310   41.9740 C   0  0  0  0  0  0  0  0  0  0  0  0
   39.9550   32.1820   40.9580 C   0  0  0  0  0  0  0  0  0  0  0  0
   41.2230   32.7630   40.7920 C   0  0  0  0  0  0  0  0  0  0  0  0
   42.2180   32.3530   41.6380 N   0  0  0  0  0  0  0  0  0  0  0  0
   42.0340   31.4450   42.5900 C   0  0  0  0  0  0  0  0  0  0  0  0
   40.8310   30.8680   42.7760 N   0  0  0  0  0  0  0  0  0  0  0  0
   41.3580   33.5030   40.0110 H   0  0  0  0  0  0  0  0  0  0  0  0
   42.8780   31.1950   43.1960 H   0  0  0  0  0  0  0  0  0  0  0  0
   38.8170   32.5320   40.1270 C   0  0  0  0  0  0  0  0  0  0  0  0
   38.4050   31.7650   39.0560 C   0  0  0  0  0  0  0  0  0  0  0  0
   37.3130   32.4660   38.5720 C   0  0  0  0  0  0  0  0  0  0  0  0
   37.0790   33.5900   39.3060 N   0  0  0  0  0  0  0  0  0  0  0  0
   38.0010   33.5970   40.2290 N   0  0  0  0  0  0  0  0  0  0  0  0
   38.7960   30.8390   38.6500 H   0  0  0  0  0  0  0  0  0  0  0  0
   36.7160   32.1510   37.7080 H   0  0  0  0  0  0  0  0  0  0  0  0
   36.2930   34.2410   39.0830 H   0  0  0  0  0  0  0  0  0  0  0  0
   38.5680   30.6510   42.1450 O   0  0  0  0  0  0  0  0  0  0  0  0
   38.3330   29.3610   42.5410 C   0  0  0  0  0  0  0  0  0  0  0  0
   37.8310   28.9510   43.6370 O   0  0  0  0  0  0  0  0  0  0  0  0
   38.5650   28.0910   41.8830 N   0  0  0  0  0  0  0  0  0  0  0  0
   38.4890   28.0980   40.4360 C   0  0  0  0  0  3  0  0  0  0  0  0
   39.5670   28.0790   40.1010 H   0  0  0  0  0  0  0  0  0  0  0  0
   37.8730   26.7740   40.0340 C   0  0  0  0  0  3  0  0  0  0  0  0
   37.1940   26.9830   39.1770 H   0  0  0  0  0  0  0  0  0  0  0  0
   37.0360   26.2080   41.0640 N   0  0  0  0  0  0  0  0  0  0  0  0
   36.6280   25.3350   40.6780 H   0  0  0  0  0  0  0  0  0  0  0  0
   37.7830   25.8530   42.2530 C   0  0  0  0  0  2  0  0  0  0  0  0
   38.8610   26.8490   42.5710 C   0  0  0  0  0  2  0  0  0  0  0  0
  1 17  1  0  0  0  0
  1  6  1  0  0  0  0
  2  1  2  0  0  0  0
  3  2  1  0  0  0  0
  3  4  2  0  0  0  0
  4  5  1  0  0  0  0
  5  6  2  0  0  0  0
  5  8  1  0  0  0  0
  7  3  1  0  0  0  0
  9 13  2  0  0  0  0
  9  2  1  0  0  0  0
 10  9  1  0  0  0  0
 11 10  2  0  0  0  0
 11 12  1  0  0  0  0
 12 13  1  0  0  0  0
 14 10  1  0  0  0  0
 15 11  1  0  0  0  0
 16 12  1  0  0  0  0
 17 18  1  0  0  0  0
 18 19  2  0  0  0  0
 20 18  1  0  0  0  0
 20 28  1  0  0  0  0
 21 20  1  0  0  0  0
 22 21  1  0  0  0  0
 23 21  1  0  0  0  0
 23 25  1  0  0  0  0
 24 23  1  0  0  0  0
 25 27  1  0  0  0  0
 26 25  1  0  0  0  0
 27 28  1  0  0  0  0
M  END
>  <minimizedAffinity>
-4.76339197

$$$$

 OpenBabel03252508523D

 28 30  0  0  0  0  0  0  0  0999 V2000
   36.3600   27.6460   38.2470 C   0  0  0  0  0  0  0  0  0  0  0  0
   36.4340   29.0400   38.1600 C   0  0  0  0  0  0  0  0  0  0  0  0
   36.5320   29.6000   36.8760 C   0  0  0  0  0  0  0  0  0  0  0  0
   36.5490   28.7380   35.8130 N   0  0  0  0  0  0  0  0  0  0  0  0
   36.4780   27.4180   35.9480 C   0  0  0  0  0  0  0  0  0  0  0  0
   36.3820   26.8480   37.1630 N   0  0  0  0  0  0  0  0  0  0  0  0
   36.5900   30.6790   36.7820 H   0  0  0  0  0  0  0  0  0  0  0  0
   36.4980   26.8350   35.0520 H   0  0  0  0  0  0  0  0  0  0  0  0
   36.4070   29.8450   39.3680 C   0  0  0  0  0  0  0  0  0  0  0  0
   37.5210   30.4900   39.8650 C   0  0  0  0  0  0  0  0  0  0  0  0
   37.0370   31.1180   41.0010 C   0  0  0  0  0  0  0  0  0  0  0  0
   35.7100   30.8670   41.1790 N   0  0  0  0  0  0  0  0  0  0  0  0
   35.3670   30.1000   40.1820 N   0  0  0  0  0  0  0  0  0  0  0  0
   38.5420   30.5330   39.5020 H   0  0  0  0  0  0  0  0  0  0  0  0
   37.6500   31.7370   41.6670 H   0  0  0  0  0  0  0  0  0  0  0  0
   35.1790   31.2610   41.9880 H   0  0  0  0  0  0  0  0  0  0  0  0
   36.2620   27.0830   39.5080 O   0  0  0  0  0  0  0  0  0  0  0  0
   37.3140   26.7260   40.3100 C   0  0  0  0  0  0  0  0  0  0  0  0
   38.4670   26.3160   39.9630 O   0  0  0  0  0  0  0  0  0  0  0  0
   37.4610   26.6910   41.7520 N   0  0  0  0  0  0  0  0  0  0  0  0
   36.6870   27.6640   42.4960 C   0  0  0  0  0  3  0  0  0  0  0  0
   35.8220   27.0710   42.9130 H   0  0  0  0  0  0  0  0  0  0  0  0
   37.5470   28.0870   43.6690 C   0  0  0  0  0  3  0  0  0  0  0  0
   37.3840   29.1790   43.8100 H   0  0  0  0  0  0  0  0  0  0  0  0
   38.9590   27.9340   43.4150 N   0  0  0  0  0  0  0  0  0  0  0  0
   39.4580   28.2920   44.2520 H   0  0  0  0  0  0  0  0  0  0  0  0
   39.3420   26.5500   43.2330 C   0  0  0  0  0  2  0  0  0  0  0  0
   38.3140   25.7650   42.4710 C   0  0  0  0  0  2  0  0  0  0  0  0
  1 17  1  0  0  0  0
  2  1  1  0  0  0  0
  2  9  1  0  0  0  0
  3  2  2  0  0  0  0
  4  5  2  0  0  0  0
  4  3  1  0  0  0  0
  5  6  1  0  0  0  0
  6  1  2  0  0  0  0
  7  3  1  0  0  0  0
  8  5  1  0  0  0  0
  9 10  1  0  0  0  0
  9 13  2  0  0  0  0
 10 11  2  0  0  0  0
 11 12  1  0  0  0  0
 11 15  1  0  0  0  0
 12 16  1  0  0  0  0
 13 12  1  0  0  0  0
 14 10  1  0  0  0  0
 17 18  1  0  0  0  0
 18 20  1  0  0  0  0
 19 18  2  0  0  0  0
 20 28  1  0  0  0  0
 20 21  1  0  0  0  0
 21 22  1  0  0  0  0
 21 23  1  0  0  0  0
 23 24  1  0  0  0  0
 25 23  1  0  0  0  0
 25 26  1  0  0  0  0
 27 25  1  0  0  0  0
 28 27  1  0  0  0  0
M  END
>  <minimizedAffinity>
-4.74483538

$$$$

 OpenBabel03252508523D

 28 30  0  0  0  0  0  0  0  0999 V2000
   41.5900   29.9380   38.1180 C   0  0  0  0  0  0  0  0  0  0  0  0
   42.3490   30.5590   37.1210 C   0  0  0  0  0  0  0  0  0  0  0  0
   42.8110   29.7530   36.0670 C   0  0  0  0  0  0  0  0  0  0  0  0
   42.4810   28.4250   36.1000 N   0  0  0  0  0  0  0  0  0  0  0  0
   41.7570   27.8800   37.0720 C   0  0  0  0  0  0  0  0  0  0  0  0
   41.2990   28.6240   38.0970 N   0  0  0  0  0  0  0  0  0  0  0  0
   43.4010   30.2120   35.2820 H   0  0  0  0  0  0  0  0  0  0  0  0
   41.5560   26.8330   37.0020 H   0  0  0  0  0  0  0  0  0  0  0  0
   42.6310   31.9810   37.2030 C   0  0  0  0  0  0  0  0  0  0  0  0
   43.8370   32.4840   37.6440 C   0  0  0  0  0  0  0  0  0  0  0  0
   43.6550   33.8540   37.5560 C   0  0  0  0  0  0  0  0  0  0  0  0
   42.4130   34.1610   37.0890 N   0  0  0  0  0  0  0  0  0  0  0  0
   41.8260   33.0130   36.8890 N   0  0  0  0  0  0  0  0  0  0  0  0
   44.7360   31.9830   37.9860 H   0  0  0  0  0  0  0  0  0  0  0  0
   44.4190   34.5920   37.8280 H   0  0  0  0  0  0  0  0  0  0  0  0
   42.1020   35.1500   36.9590 H   0  0  0  0  0  0  0  0  0  0  0  0
   41.1290   30.7230   39.1610 O   0  0  0  0  0  0  0  0  0  0  0  0
   39.9410   30.5600   39.8220 C   0  0  0  0  0  0  0  0  0  0  0  0
   39.7370   30.0230   40.9580 O   0  0  0  0  0  0  0  0  0  0  0  0
   38.5820   30.9210   39.4710 N   0  0  0  0  0  0  0  0  0  0  0  0
   38.4290   32.0930   38.6320 C   0  0  0  0  0  3  0  0  0  0  0  0
   38.2200   31.6740   37.6050 H   0  0  0  0  0  0  0  0  0  0  0  0
   37.1680   32.7900   39.0960 C   0  0  0  0  0  3  0  0  0  0  0  0
   37.3670   33.8840   39.0470 H   0  0  0  0  0  0  0  0  0  0  0  0
   36.8490   32.5150   40.4770 N   0  0  0  0  0  0  0  0  0  0  0  0
   36.0040   33.0700   40.7100 H   0  0  0  0  0  0  0  0  0  0  0  0
   36.5360   31.1200   40.7060 C   0  0  0  0  0  2  0  0  0  0  0  0
   37.4010   30.1970   39.8970 C   0  0  0  0  0  2  0  0  0  0  0  0
  1 17  1  0  0  0  0
  2  9  1  0  0  0  0
  2  1  2  0  0  0  0
  3  4  2  0  0  0  0
  3  2  1  0  0  0  0
  4  5  1  0  0  0  0
  5  6  2  0  0  0  0
  6  1  1  0  0  0  0
  7  3  1  0  0  0  0
  8  5  1  0  0  0  0
  9 10  1  0  0  0  0
 10 14  1  0  0  0  0
 11 10  2  0  0  0  0
 11 15  1  0  0  0  0
 12 11  1  0  0  0  0
 13 12  1  0  0  0  0
 13  9  2  0  0  0  0
 16 12  1  0  0  0  0
 17 18  1  0  0  0  0
 18 19  2  0  0  0  0
 20 18  1  0  0  0  0
 20 28  1  0  0  0  0
 21 23  1  0  0  0  0
 21 20  1  0  0  0  0
 22 21  1  0  0  0  0
 23 25  1  0  0  0  0
 24 23  1  0  0  0  0
 25 27  1  0  0  0  0
 25 26  1  0  0  0  0
 28 27  1  0  0  0  0
M  END
>  <minimizedAffinity>
-4.68667078

$$$$
