REMARK  Name = 
REMARK  2 active torsions:
REMARK  status: ('A' for Active; 'I' for Inactive)
REMARK    1  A    between atoms: C_2  and  C_14
REMARK    2  A    between atoms: C_10  and  C_16
REMARK                            x       y       z     vdW  Elec       q    Type
REMARK                         _______ _______ _______ _____ _____    ______ ____
ROOT
ATOM      1  C   UNL     1      46.896  34.918  42.627  0.00  0.00    +0.000 A 
ATOM      2  C   UNL     1      45.980  35.973  42.550  0.00  0.00    +0.000 A 
ATOM      3  C   UNL     1      44.972  36.015  43.513  0.00  0.00    +0.000 A 
ATOM      4  N   UNL     1      44.932  35.040  44.466  0.00  0.00    +0.000 NA
ATOM      5  C   UNL     1      45.843  34.043  44.495  0.00  0.00    +0.000 A 
ATOM      6  N   UNL     1      46.824  33.980  43.579  0.00  0.00    +0.000 NA
ATOM      7  H   UNL     1      45.971  36.760  41.821  0.00  0.00    +0.000 HD
ATOM      8  H   UNL     1      44.222  36.807  43.516  0.00  0.00    +0.000 HD
ENDROOT
BRANCH   5  10
ATOM      9  C   UNL     1      46.052  31.694  45.145  0.00  0.00    +0.000 A 
ATOM     10  C   UNL     1      45.800  32.995  45.520  0.00  0.00    +0.000 A 
ATOM     11  C   UNL     1      45.519  33.262  46.835  0.00  0.00    +0.000 A 
ATOM     12  C   UNL     1      45.484  32.261  47.778  0.00  0.00    +0.000 A 
ATOM     13  N   UNL     1      45.247  32.221  49.092  0.00  0.00    +0.000 N 
ATOM     14  C   UNL     1      45.342  30.947  49.545  0.00  0.00    +0.000 A 
ATOM     15  C   UNL     1      45.655  30.112  48.483  0.00  0.00    +0.000 A 
ATOM     16  C   UNL     1      45.742  30.936  47.389  0.00  0.00    +0.000 A 
ATOM     17  C   UNL     1      46.026  30.666  46.064  0.00  0.00    +0.000 A 
ATOM     18  H   UNL     1      46.279  31.433  44.116  0.00  0.00    +0.000 HD
ATOM     19  H   UNL     1      45.322  34.299  47.116  0.00  0.00    +0.000 HD
ATOM     20  H   UNL     1      45.022  33.095  49.643  0.00  0.00    +0.000 HD
ATOM     21  H   UNL     1      45.185  30.677  50.590  0.00  0.00    +0.000 HD
ATOM     22  H   UNL     1      45.798  29.030  48.528  0.00  0.00    +0.000 HD
ATOM     23  H   UNL     1      46.224  29.627  45.781  0.00  0.00    +0.000 HD
ENDBRANCH   5  10
BRANCH   1  24
ATOM     24  C   UNL     1      47.905  34.939  41.606  0.00  0.00    +0.000 C 
ATOM     25  O   UNL     1      48.825  35.823  41.488  0.00  0.00    +0.000 OA
ATOM     26  N   UNL     1      47.820  33.853  40.672  0.00  0.00    +0.000 N 
ATOM     27  C   UNL     1      46.701  33.536  39.802  0.00  0.00    +0.000 C 
ATOM     28  H   UNL     1      45.878  34.270  39.911  0.00  0.00    +0.000 HD
ATOM     29  C   UNL     1      46.209  32.166  40.093  0.00  0.00    +0.000 C 
ATOM     30  H   UNL     1      45.980  31.648  39.119  0.00  0.00    +0.000 HD
ATOM     31  N   UNL     1      47.094  31.373  40.906  0.00  0.00    +0.000 NA
ATOM     32  H   UNL     1      46.839  30.373  40.740  0.00  0.00    +0.000 HD
ATOM     33  C   UNL     1      48.486  31.519  40.556  0.00  0.00    +0.000 C 
ATOM     34  C   UNL     1      48.944  32.947  40.546  0.00  0.00    +0.000 C 
ENDBRANCH   1  24
TORSDOF 2
