
 OpenBabel03252501113D

 20 21  0  0  0  0  0  0  0  0999 V2000
   46.9770   34.7320   42.0380 C   0  0  0  0  0  0  0  0  0  0  0  0
   47.9270   35.4930   41.7370 O   0  0  0  0  0  0  0  0  0  0  0  0
   46.6510   33.7140   41.0950 N   0  0  0  0  0  0  0  0  0  0  0  0
   47.4720   32.5450   40.9420 C   0  0  0  0  0  3  0  0  0  0  0  0
   48.3670   32.7440   40.3280 H   0  0  0  0  0  0  0  0  0  0  0  0
   46.6870   31.3560   40.4640 C   0  0  0  0  0  3  0  0  0  0  0  0
   46.0200   31.0060   41.2790 H   0  0  0  0  0  0  0  0  0  0  0  0
   45.9640   31.5880   39.2520 N   0  0  0  0  0  0  0  0  0  0  0  0
   46.4490   31.1870   38.4320 H   0  0  0  0  0  0  0  0  0  0  0  0
   45.6640   32.9680   38.9900 C   0  0  0  0  0  2  0  0  0  0  0  0
   45.4980   33.7890   40.2460 C   0  0  0  0  0  2  0  0  0  0  0  0
   44.5720   36.0040   44.5260 C   0  0  0  0  0  0  0  0  0  0  0  0
   45.3310   35.8950   43.3540 C   0  0  0  0  0  0  0  0  0  0  0  0
   46.2080   34.8200   43.2550 C   0  0  0  0  0  0  0  0  0  0  0  0
   46.2830   33.9360   44.2900 N   0  0  0  0  0  0  0  0  0  0  0  0
   45.5280   34.0840   45.4040 C   0  0  0  0  0  0  0  0  0  0  0  0
   44.6650   35.1250   45.5250 N   0  0  0  0  0  0  0  0  0  0  0  0
   43.8710   36.8260   44.6530 H   0  0  0  0  0  0  0  0  0  0  0  0
   45.1770   36.6560   42.6150 H   0  0  0  0  0  0  0  0  0  0  0  0
   45.7590   33.2670   46.0810 H   0  0  0  0  0  0  0  0  0  0  0  0
  1 14  1  0  0  0  0
  2  1  2  0  0  0  0
  3  1  1  0  0  0  0
  4  3  1  0  0  0  0
  5  4  1  0  0  0  0
  6  4  1  0  0  0  0
  6  7  1  0  0  0  0
  8  6  1  0  0  0  0
  9  8  1  0  0  0  0
 10  8  1  0  0  0  0
 10 11  1  0  0  0  0
 11  3  1  0  0  0  0
 12 18  1  0  0  0  0
 12 17  1  0  0  0  0
 13 12  2  0  0  0  0
 14 13  1  0  0  0  0
 14 15  2  0  0  0  0
 15 16  1  0  0  0  0
 16 17  2  0  0  0  0
 16 20  1  0  0  0  0
 19 13  1  0  0  0  0
M  END
>  <minimizedAffinity>
-3.98428702

>  <minimizedRMSD>
0.50169158

$$$$
