
     RDKit          3D

 26 27  0  0  0  0  0  0  0  0999 V2000
   44.5795   35.9960   44.4796 C   0  0  0  0  0  0  0  0  0  0  0  0
   45.3240   35.9115   43.2964 C   0  0  0  0  0  0  0  0  0  0  0  0
   46.2159   34.8506   43.1726 C   0  0  0  0  0  0  0  0  0  0  0  0
   46.3191   33.9570   44.1971 N   0  0  0  0  0  0  0  0  0  0  0  0
   45.5772   34.0807   45.3228 C   0  0  0  0  0  0  0  0  0  0  0  0
   44.6999   35.1072   45.4677 N   0  0  0  0  0  0  0  0  0  0  0  0
   46.9692   34.7875   41.9452 C   0  0  0  0  0  0  0  0  0  0  0  0
   48.0461   35.3935   41.7365 O   0  0  0  0  0  0  0  0  0  0  0  0
   43.8687   36.8065   44.6255 H   0  0  0  0  0  0  0  0  0  0  0  0
   45.1494   36.6776   42.5682 H   0  0  0  0  0  0  0  0  0  0  0  0
   45.8302   33.2602   45.9878 H   0  0  0  0  0  0  0  0  0  0  0  0
   46.4721   33.9837   40.8778 N   0  0  0  0  0  0  0  0  0  0  0  0
   45.5863   34.5239   39.8850 C   0  0  1  0  0  0  0  0  0  0  0  0
   44.5454   34.5821   40.2460 H   0  0  0  0  0  0  0  0  0  0  0  0
   45.7088   33.8154   38.5646 C   0  0  2  0  0  0  0  0  0  0  0  0
   46.6828   34.0738   38.1003 H   0  0  0  0  0  0  0  0  0  0  0  0
   45.5198   32.3992   38.6482 N   0  0  0  0  0  0  0  0  0  0  0  0
   44.5741   32.1182   38.3412 H   0  0  0  0  0  0  0  0  0  0  0  0
   45.7779   31.8375   39.9440 C   0  0  0  0  0  0  0  0  0  0  0  0
   46.8190   32.6001   40.7266 C   0  0  0  0  0  0  0  0  0  0  0  0
   45.9205   35.5785   39.7151 H   0  0  0  0  0  0  0  0  0  0  0  0
   44.9234   34.2308   37.8966 H   0  0  0  0  0  0  0  0  0  0  0  0
   44.8617   31.7205   40.5580 H   0  0  0  0  0  0  0  0  0  0  0  0
   46.1801   30.8121   39.7872 H   0  0  0  0  0  0  0  0  0  0  0  0
   47.8342   32.4141   40.3482 H   0  0  0  0  0  0  0  0  0  0  0  0
   46.7885   32.1612   41.7602 H   0  0  0  0  0  0  0  0  0  0  0  0
  1  6  2  0
  2  1  1  0
  3  2  2  0
  3  4  1  0
  4  5  2  0
  5  6  1  0
  7  3  1  0
  8  7  2  0
  1  9  1  0
  2 10  1  0
  5 11  1  0
 12 13  1  0
 13 14  1  1
 13 15  1  0
 15 16  1  6
 15 17  1  0
 17 18  1  0
 17 19  1  0
 19 20  1  0
 20 12  1  0
 13 21  1  0
 15 22  1  0
 19 23  1  0
 19 24  1  0
 20 25  1  0
 20 26  1  0
  7 12  1  0
M  ISO  6   9  14  10  14  11  14  14   8  16   8  18   5
M  END
>  <DihAtoms>  (1) 
2,6,11,12

>  <DihDeg>  (1) 
179.99973753346504

$$$$
