
 OpenBabel03252508513D

 28 30  0  0  0  0  0  0  0  0999 V2000
   45.9100   34.2380   41.0550 C   0  0  0  0  0  0  0  0  0  0  0  0
   46.5200   34.8180   42.1720 C   0  0  0  0  0  0  0  0  0  0  0  0
   47.8860   35.1280   42.0720 C   0  0  0  0  0  0  0  0  0  0  0  0
   48.5110   34.8390   40.8890 N   0  0  0  0  0  0  0  0  0  0  0  0
   47.8880   34.2850   39.8540 C   0  0  0  0  0  0  0  0  0  0  0  0
   46.5790   33.9750   39.9170 N   0  0  0  0  0  0  0  0  0  0  0  0
   48.3810   35.5790   42.9240 H   0  0  0  0  0  0  0  0  0  0  0  0
   48.4690   34.1010   38.9760 H   0  0  0  0  0  0  0  0  0  0  0  0
   45.7430   35.0740   43.3720 C   0  0  0  0  0  0  0  0  0  0  0  0
   45.1040   36.2730   43.6110 C   0  0  0  0  0  0  0  0  0  0  0  0
   44.5050   36.0670   44.8430 C   0  0  0  0  0  0  0  0  0  0  0  0
   44.7670   34.8190   45.3200 N   0  0  0  0  0  0  0  0  0  0  0  0
   45.5130   34.2520   44.4120 N   0  0  0  0  0  0  0  0  0  0  0  0
   45.0470   37.1810   43.0210 H   0  0  0  0  0  0  0  0  0  0  0  0
   43.8980   36.8190   45.3620 H   0  0  0  0  0  0  0  0  0  0  0  0
   44.3950   34.4910   46.2390 H   0  0  0  0  0  0  0  0  0  0  0  0
   44.5640   33.9280   41.1430 O   0  0  0  0  0  0  0  0  0  0  0  0
   43.5370   34.6590   40.6060 C   0  0  0  0  0  0  0  0  0  0  0  0
   43.1590   35.8350   40.9140 O   0  0  0  0  0  0  0  0  0  0  0  0
   42.5800   34.3560   39.5600 N   0  0  0  0  0  0  0  0  0  0  0  0
   41.2830   34.9890   39.6780 C   0  0  0  0  0  3  0  0  0  0  0  0
   41.3170   35.8360   38.9310 H   0  0  0  0  0  0  0  0  0  0  0  0
   40.2690   33.9860   39.1730 C   0  0  0  0  0  3  0  0  0  0  0  0
   39.3750   34.0710   39.8290 H   0  0  0  0  0  0  0  0  0  0  0  0
   40.7170   32.6190   39.3030 N   0  0  0  0  0  0  0  0  0  0  0  0
   39.9400   32.0140   38.9760 H   0  0  0  0  0  0  0  0  0  0  0  0
   41.8730   32.3350   38.4780 C   0  0  0  0  0  2  0  0  0  0  0  0
   42.8410   33.4810   38.4330 C   0  0  0  0  0  2  0  0  0  0  0  0
  1 17  1  0  0  0  0
  1  2  1  0  0  0  0
  2  9  1  0  0  0  0
  3  2  2  0  0  0  0
  3  7  1  0  0  0  0
  4  3  1  0  0  0  0
  5  6  1  0  0  0  0
  5  4  2  0  0  0  0
  6  1  2  0  0  0  0
  8  5  1  0  0  0  0
  9 10  1  0  0  0  0
  9 13  2  0  0  0  0
 10 11  2  0  0  0  0
 11 12  1  0  0  0  0
 11 15  1  0  0  0  0
 12 16  1  0  0  0  0
 13 12  1  0  0  0  0
 14 10  1  0  0  0  0
 18 19  2  0  0  0  0
 18 17  1  0  0  0  0
 20 21  1  0  0  0  0
 20 18  1  0  0  0  0
 22 21  1  0  0  0  0
 23 25  1  0  0  0  0
 23 21  1  0  0  0  0
 23 24  1  0  0  0  0
 26 25  1  0  0  0  0
 27 25  1  0  0  0  0
 28 27  1  0  0  0  0
 28 20  1  0  0  0  0
M  END
>  <minimizedAffinity>
-5.42187595

>  <minimizedRMSD>
0.5998891

$$$$
