
 OpenBabel03252504013D

 34 37  0  0  0  0  0  0  0  0999 V2000
   37.2330   27.0520   41.2350 C   0  0  0  0  0  0  0  0  0  0  0  0
   37.0290   26.7250   42.5800 C   0  0  0  0  0  0  0  0  0  0  0  0
   37.1380   27.7570   43.5110 C   0  0  0  0  0  0  0  0  0  0  0  0
   37.4330   29.0130   43.0690 N   0  0  0  0  0  0  0  0  0  0  0  0
   37.6200   29.2740   41.7570 C   0  0  0  0  0  0  0  0  0  0  0  0
   37.5200   28.2980   40.8400 N   0  0  0  0  0  0  0  0  0  0  0  0
   36.7950   25.7550   42.9740 H   0  0  0  0  0  0  0  0  0  0  0  0
   36.9930   27.5780   44.5770 H   0  0  0  0  0  0  0  0  0  0  0  0
   36.9760   31.3230   40.5850 C   0  0  0  0  0  0  0  0  0  0  0  0
   37.9370   30.6250   41.2820 C   0  0  0  0  0  0  0  0  0  0  0  0
   39.1530   31.2180   41.5050 C   0  0  0  0  0  0  0  0  0  0  0  0
   39.4270   32.4860   41.0480 C   0  0  0  0  0  0  0  0  0  0  0  0
   40.4880   33.2950   41.1130 N   0  0  0  0  0  0  0  0  0  0  0  0
   40.2210   34.4660   40.4840 C   0  0  0  0  0  0  0  0  0  0  0  0
   38.9280   34.4260   39.9830 C   0  0  0  0  0  0  0  0  0  0  0  0
   38.4420   33.1920   40.3380 C   0  0  0  0  0  0  0  0  0  0  0  0
   37.2160   32.5960   40.1130 C   0  0  0  0  0  0  0  0  0  0  0  0
   35.9980   30.8960   40.3840 H   0  0  0  0  0  0  0  0  0  0  0  0
   39.9050   30.6510   42.0590 H   0  0  0  0  0  0  0  0  0  0  0  0
   41.3800   33.0040   41.6000 H   0  0  0  0  0  0  0  0  0  0  0  0
   40.9460   35.2780   40.4110 H   0  0  0  0  0  0  0  0  0  0  0  0
   38.4220   35.2180   39.4270 H   0  0  0  0  0  0  0  0  0  0  0  0
   36.4610   33.1630   39.5580 H   0  0  0  0  0  0  0  0  0  0  0  0
   37.1040   25.9410   40.3340 C   0  0  0  0  0  0  0  0  0  0  0  0
   36.2050   25.8190   39.4290 O   0  0  0  0  0  0  0  0  0  0  0  0
   38.0940   24.9190   40.5140 N   0  0  0  0  0  0  0  0  0  0  0  0
   39.4890   24.9750   40.1120 C   0  0  0  0  0  3  0  0  0  0  0  0
   39.7410   25.9490   39.6490 H   0  0  0  0  0  0  0  0  0  0  0  0
   39.7850   23.8660   39.1700 C   0  0  0  0  0  3  0  0  0  0  0  0
   40.7880   23.4250   39.4340 H   0  0  0  0  0  0  0  0  0  0  0  0
   38.7710   22.8460   39.1080 N   0  0  0  0  0  0  0  0  0  0  0  0
   39.2300   21.9890   38.7250 H   0  0  0  0  0  0  0  0  0  0  0  0
   38.2250   22.4950   40.3960 C   0  0  0  0  0  2  0  0  0  0  0  0
   37.7130   23.6790   41.1610 C   0  0  0  0  0  2  0  0  0  0  0  0
  1  2  1  0  0  0  0
  2  7  1  0  0  0  0
  2  3  2  0  0  0  0
  3  8  1  0  0  0  0
  4  3  1  0  0  0  0
  5  4  2  0  0  0  0
  6  1  2  0  0  0  0
  6  5  1  0  0  0  0
  9 10  1  0  0  0  0
 10 11  2  0  0  0  0
 10  5  1  0  0  0  0
 11 19  1  0  0  0  0
 12 13  1  0  0  0  0
 12 11  1  0  0  0  0
 13 20  1  0  0  0  0
 14 13  1  0  0  0  0
 15 16  1  0  0  0  0
 15 14  2  0  0  0  0
 16 12  2  0  0  0  0
 17 16  1  0  0  0  0
 17  9  2  0  0  0  0
 18  9  1  0  0  0  0
 21 14  1  0  0  0  0
 22 15  1  0  0  0  0
 23 17  1  0  0  0  0
 24 26  1  0  0  0  0
 24  1  1  0  0  0  0
 25 24  2  0  0  0  0
 26 34  1  0  0  0  0
 27 26  1  0  0  0  0
 28 27  1  0  0  0  0
 29 30  1  0  0  0  0
 29 27  1  0  0  0  0
 31 29  1  0  0  0  0
 31 33  1  0  0  0  0
 32 31  1  0  0  0  0
 33 34  1  0  0  0  0
M  END
>  <minimizedAffinity>
-6.20612621

$$$$

 OpenBabel03252504013D

 34 37  0  0  0  0  0  0  0  0999 V2000
   36.8450   28.5840   41.6730 C   0  0  0  0  0  0  0  0  0  0  0  0
   35.6510   28.6130   40.9450 C   0  0  0  0  0  0  0  0  0  0  0  0
   35.4390   29.7100   40.1090 C   0  0  0  0  0  0  0  0  0  0  0  0
   36.3940   30.6820   40.0460 N   0  0  0  0  0  0  0  0  0  0  0  0
   37.5310   30.6040   40.7710 C   0  0  0  0  0  0  0  0  0  0  0  0
   37.7590   29.5580   41.5830 N   0  0  0  0  0  0  0  0  0  0  0  0
   34.8730   27.8750   40.9620 H   0  0  0  0  0  0  0  0  0  0  0  0
   34.5310   29.8010   39.5120 H   0  0  0  0  0  0  0  0  0  0  0  0
   38.2600   32.8240   40.0480 C   0  0  0  0  0  0  0  0  0  0  0  0
   38.5570   31.6490   40.7020 C   0  0  0  0  0  0  0  0  0  0  0  0
   39.7990   31.5010   41.2640 C   0  0  0  0  0  0  0  0  0  0  0  0
   40.7450   32.4960   41.1860 C   0  0  0  0  0  0  0  0  0  0  0  0
   41.9990   32.6320   41.6240 N   0  0  0  0  0  0  0  0  0  0  0  0
   42.4900   33.8440   41.2670 C   0  0  0  0  0  0  0  0  0  0  0  0
   41.5170   34.5360   40.5630 C   0  0  0  0  0  0  0  0  0  0  0  0
   40.4350   33.6920   40.5170 C   0  0  0  0  0  0  0  0  0  0  0  0
   39.1840   33.8430   39.9510 C   0  0  0  0  0  0  0  0  0  0  0  0
   37.2910   32.9890   39.5870 H   0  0  0  0  0  0  0  0  0  0  0  0
   40.0180   30.5630   41.7800 H   0  0  0  0  0  0  0  0  0  0  0  0
   42.4840   31.8650   42.1660 H   0  0  0  0  0  0  0  0  0  0  0  0
   43.5000   34.1710   41.5180 H   0  0  0  0  0  0  0  0  0  0  0  0
   41.6100   35.5400   40.1420 H   0  0  0  0  0  0  0  0  0  0  0  0
   38.9620   34.7830   39.4340 H   0  0  0  0  0  0  0  0  0  0  0  0
   36.9960   27.4270   42.5100 C   0  0  0  0  0  0  0  0  0  0  0  0
   36.3690   27.2170   43.6080 O   0  0  0  0  0  0  0  0  0  0  0  0
   37.9420   26.4660   42.0210 N   0  0  0  0  0  0  0  0  0  0  0  0
   37.7530   25.5390   40.9180 C   0  0  0  0  0  3  0  0  0  0  0  0
   36.7610   25.6680   40.4420 H   0  0  0  0  0  0  0  0  0  0  0  0
   37.9140   24.1440   41.4010 C   0  0  0  0  0  3  0  0  0  0  0  0
   38.5060   23.5630   40.6370 H   0  0  0  0  0  0  0  0  0  0  0  0
   38.5030   24.0280   42.7090 N   0  0  0  0  0  0  0  0  0  0  0  0
   38.8890   23.0600   42.7800 H   0  0  0  0  0  0  0  0  0  0  0  0
   39.5980   24.9390   42.9330 C   0  0  0  0  0  2  0  0  0  0  0  0
   39.2390   26.3690   42.6600 C   0  0  0  0  0  2  0  0  0  0  0  0
  1 24  1  0  0  0  0
  2  7  1  0  0  0  0
  2  1  2  0  0  0  0
  3  2  1  0  0  0  0
  4  3  2  0  0  0  0
  4  5  1  0  0  0  0
  5  6  2  0  0  0  0
  6  1  1  0  0  0  0
  8  3  1  0  0  0  0
  9 10  1  0  0  0  0
 10  5  1  0  0  0  0
 10 11  2  0  0  0  0
 11 19  1  0  0  0  0
 12 11  1  0  0  0  0
 12 13  1  0  0  0  0
 13 20  1  0  0  0  0
 14 21  1  0  0  0  0
 14 13  1  0  0  0  0
 15 14  2  0  0  0  0
 16 15  1  0  0  0  0
 16 12  2  0  0  0  0
 17  9  2  0  0  0  0
 17 16  1  0  0  0  0
 18  9  1  0  0  0  0
 22 15  1  0  0  0  0
 23 17  1  0  0  0  0
 24 25  2  0  0  0  0
 26 24  1  0  0  0  0
 26 34  1  0  0  0  0
 27 29  1  0  0  0  0
 27 26  1  0  0  0  0
 28 27  1  0  0  0  0
 29 31  1  0  0  0  0
 30 29  1  0  0  0  0
 31 32  1  0  0  0  0
 31 33  1  0  0  0  0
 34 33  1  0  0  0  0
M  END
>  <minimizedAffinity>
-6.18090248

$$$$

 OpenBabel03252504013D

 34 37  0  0  0  0  0  0  0  0999 V2000
   36.9690   28.5830   41.4470 C   0  0  0  0  0  0  0  0  0  0  0  0
   35.6660   28.7290   40.9560 C   0  0  0  0  0  0  0  0  0  0  0  0
   35.4260   29.7940   40.0890 C   0  0  0  0  0  0  0  0  0  0  0  0
   36.4580   30.6270   39.7690 N   0  0  0  0  0  0  0  0  0  0  0  0
   37.6980   30.4400   40.2710 C   0  0  0  0  0  0  0  0  0  0  0  0
   37.9560   29.4210   41.1080 N   0  0  0  0  0  0  0  0  0  0  0  0
   34.8250   28.1020   41.1800 H   0  0  0  0  0  0  0  0  0  0  0  0
   34.4360   29.9710   39.6670 H   0  0  0  0  0  0  0  0  0  0  0  0
   39.4680   31.9900   40.9410 C   0  0  0  0  0  0  0  0  0  0  0  0
   38.8070   31.3350   39.9260 C   0  0  0  0  0  0  0  0  0  0  0  0
   39.2100   31.5440   38.6320 C   0  0  0  0  0  0  0  0  0  0  0  0
   40.2540   32.3890   38.3340 C   0  0  0  0  0  0  0  0  0  0  0  0
   40.8510   32.7760   37.2030 N   0  0  0  0  0  0  0  0  0  0  0  0
   41.8550   33.6440   37.4790 C   0  0  0  0  0  0  0  0  0  0  0  0
   41.9210   33.8370   38.8510 C   0  0  0  0  0  0  0  0  0  0  0  0
   40.9240   33.0540   39.3740 C   0  0  0  0  0  0  0  0  0  0  0  0
   40.5190   32.8440   40.6790 C   0  0  0  0  0  0  0  0  0  0  0  0
   39.1860   31.8570   41.9810 H   0  0  0  0  0  0  0  0  0  0  0  0
   38.6760   31.0170   37.8380 H   0  0  0  0  0  0  0  0  0  0  0  0
   40.5370   32.4200   36.2590 H   0  0  0  0  0  0  0  0  0  0  0  0
   42.4800   34.0920   36.7050 H   0  0  0  0  0  0  0  0  0  0  0  0
   42.6260   34.4810   39.3830 H   0  0  0  0  0  0  0  0  0  0  0  0
   41.0530   33.3710   41.4750 H   0  0  0  0  0  0  0  0  0  0  0  0
   37.1430   27.4670   42.3320 C   0  0  0  0  0  0  0  0  0  0  0  0
   36.7710   27.4240   43.5570 O   0  0  0  0  0  0  0  0  0  0  0  0
   37.7950   26.3370   41.7330 N   0  0  0  0  0  0  0  0  0  0  0  0
   37.2160   25.3930   40.7930 C   0  0  0  0  0  3  0  0  0  0  0  0
   36.1690   25.6560   40.5430 H   0  0  0  0  0  0  0  0  0  0  0  0
   37.2810   24.0200   41.3540 C   0  0  0  0  0  3  0  0  0  0  0  0
   37.5830   23.3090   40.5340 H   0  0  0  0  0  0  0  0  0  0  0  0
   38.1390   23.8830   42.5010 N   0  0  0  0  0  0  0  0  0  0  0  0
   38.3860   22.8700   42.5720 H   0  0  0  0  0  0  0  0  0  0  0  0
   39.3780   24.6130   42.3870 C   0  0  0  0  0  2  0  0  0  0  0  0
   39.1780   26.0650   42.0700 C   0  0  0  0  0  2  0  0  0  0  0  0
  1 24  1  0  0  0  0
  2  7  1  0  0  0  0
  2  1  2  0  0  0  0
  3  2  1  0  0  0  0
  4  3  2  0  0  0  0
  4  5  1  0  0  0  0
  5  6  2  0  0  0  0
  6  1  1  0  0  0  0
  8  3  1  0  0  0  0
  9 18  1  0  0  0  0
 10  5  1  0  0  0  0
 10  9  2  0  0  0  0
 11 10  1  0  0  0  0
 12 11  2  0  0  0  0
 12 16  1  0  0  0  0
 13 14  1  0  0  0  0
 13 12  1  0  0  0  0
 14 15  2  0  0  0  0
 15 16  1  0  0  0  0
 15 22  1  0  0  0  0
 16 17  2  0  0  0  0
 17  9  1  0  0  0  0
 17 23  1  0  0  0  0
 19 11  1  0  0  0  0
 20 13  1  0  0  0  0
 21 14  1  0  0  0  0
 24 25  2  0  0  0  0
 26 34  1  0  0  0  0
 26 24  1  0  0  0  0
 27 29  1  0  0  0  0
 27 26  1  0  0  0  0
 28 27  1  0  0  0  0
 29 31  1  0  0  0  0
 30 29  1  0  0  0  0
 31 32  1  0  0  0  0
 33 31  1  0  0  0  0
 34 33  1  0  0  0  0
M  END
>  <minimizedAffinity>
-6.17047977

$$$$

 OpenBabel03252504013D

 34 37  0  0  0  0  0  0  0  0999 V2000
   40.8210   33.1260   39.2110 C   0  0  0  0  0  0  0  0  0  0  0  0
   40.2700   34.3780   39.5070 C   0  0  0  0  0  0  0  0  0  0  0  0
   39.3100   34.4300   40.5170 C   0  0  0  0  0  0  0  0  0  0  0  0
   38.9630   33.2760   41.1560 N   0  0  0  0  0  0  0  0  0  0  0  0
   39.5270   32.0920   40.8310 C   0  0  0  0  0  0  0  0  0  0  0  0
   40.4540   32.0150   39.8620 N   0  0  0  0  0  0  0  0  0  0  0  0
   40.5110   35.3100   39.0340 H   0  0  0  0  0  0  0  0  0  0  0  0
   38.8370   35.3710   40.8020 H   0  0  0  0  0  0  0  0  0  0  0  0
   40.1410   30.1150   42.1340 C   0  0  0  0  0  0  0  0  0  0  0  0
   39.1540   30.8510   41.5170 C   0  0  0  0  0  0  0  0  0  0  0  0
   37.8610   30.3980   41.5680 C   0  0  0  0  0  0  0  0  0  0  0  0
   37.5360   29.2300   42.2180 C   0  0  0  0  0  0  0  0  0  0  0  0
   36.3990   28.5600   42.4280 N   0  0  0  0  0  0  0  0  0  0  0  0
   36.6440   27.4390   43.1490 C   0  0  0  0  0  0  0  0  0  0  0  0
   38.0010   27.3670   43.4260 C   0  0  0  0  0  0  0  0  0  0  0  0
   38.5480   28.4840   42.8450 C   0  0  0  0  0  0  0  0  0  0  0  0
   39.8510   28.9400   42.7950 C   0  0  0  0  0  0  0  0  0  0  0  0
   41.1790   30.4330   42.1210 H   0  0  0  0  0  0  0  0  0  0  0  0
   37.0900   30.9940   41.0750 H   0  0  0  0  0  0  0  0  0  0  0  0
   35.4730   28.9090   42.0560 H   0  0  0  0  0  0  0  0  0  0  0  0
   35.8600   26.7380   43.4370 H   0  0  0  0  0  0  0  0  0  0  0  0
   38.5070   26.5810   43.9900 H   0  0  0  0  0  0  0  0  0  0  0  0
   40.6250   28.3440   43.2900 H   0  0  0  0  0  0  0  0  0  0  0  0
   41.8020   33.1470   38.1640 C   0  0  0  0  0  0  0  0  0  0  0  0
   42.0770   34.1550   37.4230 O   0  0  0  0  0  0  0  0  0  0  0  0
   42.4960   31.9040   37.9820 N   0  0  0  0  0  0  0  0  0  0  0  0
   43.5390   31.3550   38.8320 C   0  0  0  0  0  3  0  0  0  0  0  0
   43.7430   32.0100   39.7010 H   0  0  0  0  0  0  0  0  0  0  0  0
   44.7770   31.1510   38.0390 C   0  0  0  0  0  3  0  0  0  0  0  0
   45.2350   30.1640   38.3320 H   0  0  0  0  0  0  0  0  0  0  0  0
   44.5970   31.2360   36.6130 N   0  0  0  0  0  0  0  0  0  0  0  0
   45.4030   30.7350   36.1780 H   0  0  0  0  0  0  0  0  0  0  0  0
   43.3940   30.5920   36.1440 C   0  0  0  0  0  2  0  0  0  0  0  0
   42.1580   31.0710   36.8450 C   0  0  0  0  0  2  0  0  0  0  0  0
  1  2  2  0  0  0  0
  1  6  1  0  0  0  0
  2  3  1  0  0  0  0
  3  8  1  0  0  0  0
  3  4  2  0  0  0  0
  5  4  1  0  0  0  0
  5 10  1  0  0  0  0
  6  5  2  0  0  0  0
  7  2  1  0  0  0  0
  9 17  1  0  0  0  0
 10 11  1  0  0  0  0
 10  9  2  0  0  0  0
 11 12  2  0  0  0  0
 12 13  1  0  0  0  0
 12 16  1  0  0  0  0
 13 14  1  0  0  0  0
 14 15  2  0  0  0  0
 14 21  1  0  0  0  0
 15 22  1  0  0  0  0
 16 15  1  0  0  0  0
 17 16  2  0  0  0  0
 17 23  1  0  0  0  0
 18  9  1  0  0  0  0
 19 11  1  0  0  0  0
 20 13  1  0  0  0  0
 24  1  1  0  0  0  0
 25 24  2  0  0  0  0
 26 24  1  0  0  0  0
 26 27  1  0  0  0  0
 27 28  1  0  0  0  0
 29 30  1  0  0  0  0
 29 27  1  0  0  0  0
 31 29  1  0  0  0  0
 32 31  1  0  0  0  0
 33 31  1  0  0  0  0
 33 34  1  0  0  0  0
 34 26  1  0  0  0  0
M  END
>  <minimizedAffinity>
-6.11702061

$$$$

 OpenBabel03252504013D

 34 37  0  0  0  0  0  0  0  0999 V2000
   36.7250   28.3190   41.6130 C   0  0  0  0  0  0  0  0  0  0  0  0
   37.2730   29.5260   42.0610 C   0  0  0  0  0  0  0  0  0  0  0  0
   37.0940   30.6480   41.2530 C   0  0  0  0  0  0  0  0  0  0  0  0
   36.4040   30.5140   40.0840 N   0  0  0  0  0  0  0  0  0  0  0  0
   35.8940   29.3240   39.6980 C   0  0  0  0  0  0  0  0  0  0  0  0
   36.0520   28.2280   40.4590 N   0  0  0  0  0  0  0  0  0  0  0  0
   37.8230   29.6800   42.9700 H   0  0  0  0  0  0  0  0  0  0  0  0
   37.4940   31.6220   41.5370 H   0  0  0  0  0  0  0  0  0  0  0  0
   35.8350   29.3070   37.2530 C   0  0  0  0  0  0  0  0  0  0  0  0
   35.1520   29.1790   38.4420 C   0  0  0  0  0  0  0  0  0  0  0  0
   33.8050   28.9230   38.4070 C   0  0  0  0  0  0  0  0  0  0  0  0
   33.1310   28.7920   37.2150 C   0  0  0  0  0  0  0  0  0  0  0  0
   31.8610   28.5480   36.8800 N   0  0  0  0  0  0  0  0  0  0  0  0
   31.7310   28.5200   35.5310 C   0  0  0  0  0  0  0  0  0  0  0  0
   32.9700   28.7560   34.9530 C   0  0  0  0  0  0  0  0  0  0  0  0
   33.8340   28.9230   36.0060 C   0  0  0  0  0  0  0  0  0  0  0  0
   35.1910   29.1810   36.0400 C   0  0  0  0  0  0  0  0  0  0  0  0
   36.9010   29.5100   37.2290 H   0  0  0  0  0  0  0  0  0  0  0  0
   33.2780   28.8240   39.3590 H   0  0  0  0  0  0  0  0  0  0  0  0
   31.1110   28.4070   37.6120 H   0  0  0  0  0  0  0  0  0  0  0  0
   30.7790   28.3390   35.0320 H   0  0  0  0  0  0  0  0  0  0  0  0
   33.1900   28.7960   33.8840 H   0  0  0  0  0  0  0  0  0  0  0  0
   35.7200   29.2800   35.0870 H   0  0  0  0  0  0  0  0  0  0  0  0
   36.9460   27.2080   42.4950 C   0  0  0  0  0  0  0  0  0  0  0  0
   36.3000   26.9770   43.5770 O   0  0  0  0  0  0  0  0  0  0  0  0
   37.9920   26.3210   42.0720 N   0  0  0  0  0  0  0  0  0  0  0  0
   37.9270   25.3460   40.9970 C   0  0  0  0  0  3  0  0  0  0  0  0
   36.9460   25.3700   40.4830 H   0  0  0  0  0  0  0  0  0  0  0  0
   38.1940   23.9880   41.5340 C   0  0  0  0  0  3  0  0  0  0  0  0
   38.8630   23.4380   40.8120 H   0  0  0  0  0  0  0  0  0  0  0  0
   38.7400   23.9660   42.8650 N   0  0  0  0  0  0  0  0  0  0  0  0
   39.2080   23.0400   42.9830 H   0  0  0  0  0  0  0  0  0  0  0  0
   39.7410   24.9800   43.0950 C   0  0  0  0  0  2  0  0  0  0  0  0
   39.2670   26.3620   42.7600 C   0  0  0  0  0  2  0  0  0  0  0  0
  1  2  1  0  0  0  0
  1 24  1  0  0  0  0
  2  7  1  0  0  0  0
  3  8  1  0  0  0  0
  3  2  2  0  0  0  0
  4  3  1  0  0  0  0
  5  4  2  0  0  0  0
  5  6  1  0  0  0  0
  6  1  2  0  0  0  0
  9 10  1  0  0  0  0
 10  5  1  0  0  0  0
 11 10  2  0  0  0  0
 11 19  1  0  0  0  0
 12 11  1  0  0  0  0
 13 12  1  0  0  0  0
 13 20  1  0  0  0  0
 14 13  1  0  0  0  0
 15 14  2  0  0  0  0
 15 16  1  0  0  0  0
 16 17  1  0  0  0  0
 16 12  2  0  0  0  0
 17  9  2  0  0  0  0
 18  9  1  0  0  0  0
 21 14  1  0  0  0  0
 22 15  1  0  0  0  0
 23 17  1  0  0  0  0
 24 25  2  0  0  0  0
 26 24  1  0  0  0  0
 26 34  1  0  0  0  0
 27 29  1  0  0  0  0
 27 26  1  0  0  0  0
 28 27  1  0  0  0  0
 29 31  1  0  0  0  0
 30 29  1  0  0  0  0
 31 32  1  0  0  0  0
 31 33  1  0  0  0  0
 34 33  1  0  0  0  0
M  END
>  <minimizedAffinity>
-6.01090431

$$$$

 OpenBabel03252504013D

 34 37  0  0  0  0  0  0  0  0999 V2000
   38.0210   29.2920   42.2200 C   0  0  0  0  0  0  0  0  0  0  0  0
   37.0060   28.6120   42.9020 C   0  0  0  0  0  0  0  0  0  0  0  0
   37.3890   27.5530   43.7260 C   0  0  0  0  0  0  0  0  0  0  0  0
   38.7130   27.2400   43.8220 N   0  0  0  0  0  0  0  0  0  0  0  0
   39.6530   27.9310   43.1410 C   0  0  0  0  0  0  0  0  0  0  0  0
   39.3100   28.9550   42.3420 N   0  0  0  0  0  0  0  0  0  0  0  0
   35.9540   28.8200   42.8580 H   0  0  0  0  0  0  0  0  0  0  0  0
   36.6530   26.9760   44.2880 H   0  0  0  0  0  0  0  0  0  0  0  0
   42.0010   28.6150   43.2000 C   0  0  0  0  0  0  0  0  0  0  0  0
   41.0770   27.5950   43.2450 C   0  0  0  0  0  0  0  0  0  0  0  0
   41.5210   26.3050   43.3840 C   0  0  0  0  0  0  0  0  0  0  0  0
   42.8620   26.0160   43.4790 C   0  0  0  0  0  0  0  0  0  0  0  0
   43.5690   24.8910   43.6180 N   0  0  0  0  0  0  0  0  0  0  0  0
   44.8940   25.1740   43.6610 C   0  0  0  0  0  0  0  0  0  0  0  0
   45.0670   26.5450   43.5450 C   0  0  0  0  0  0  0  0  0  0  0  0
   43.8000   27.0610   43.4330 C   0  0  0  0  0  0  0  0  0  0  0  0
   43.3530   28.3610   43.2930 C   0  0  0  0  0  0  0  0  0  0  0  0
   41.6980   29.6520   43.0910 H   0  0  0  0  0  0  0  0  0  0  0  0
   40.7750   25.5080   43.4180 H   0  0  0  0  0  0  0  0  0  0  0  0
   43.1010   23.9440   43.6790 H   0  0  0  0  0  0  0  0  0  0  0  0
   45.6600   24.4060   43.7690 H   0  0  0  0  0  0  0  0  0  0  0  0
   46.0180   27.0820   43.5450 H   0  0  0  0  0  0  0  0  0  0  0  0
   44.1000   29.1610   43.2590 H   0  0  0  0  0  0  0  0  0  0  0  0
   37.5540   30.3690   41.3940 C   0  0  0  0  0  0  0  0  0  0  0  0
   36.3300   30.7150   41.2440 O   0  0  0  0  0  0  0  0  0  0  0  0
   38.5960   31.0760   40.7050 N   0  0  0  0  0  0  0  0  0  0  0  0
   39.5280   32.0320   41.2790 C   0  0  0  0  0  3  0  0  0  0  0  0
   39.3700   32.1530   42.3690 H   0  0  0  0  0  0  0  0  0  0  0  0
   39.3920   33.3410   40.5920 C   0  0  0  0  0  3  0  0  0  0  0  0
   40.4210   33.7680   40.4200 H   0  0  0  0  0  0  0  0  0  0  0  0
   38.6380   33.2980   39.3660 N   0  0  0  0  0  0  0  0  0  0  0  0
   38.9120   34.1430   38.8150 H   0  0  0  0  0  0  0  0  0  0  0  0
   38.9280   32.1460   38.5490 C   0  0  0  0  0  2  0  0  0  0  0  0
   38.7790   30.8480   39.2850 C   0  0  0  0  0  2  0  0  0  0  0  0
  1  6  2  0  0  0  0
  1  2  1  0  0  0  0
  2  3  2  0  0  0  0
  3  4  1  0  0  0  0
  3  8  1  0  0  0  0
  5 10  1  0  0  0  0
  5  4  2  0  0  0  0
  6  5  1  0  0  0  0
  7  2  1  0  0  0  0
  9 10  2  0  0  0  0
  9 17  1  0  0  0  0
 10 11  1  0  0  0  0
 11 19  1  0  0  0  0
 11 12  2  0  0  0  0
 12 13  1  0  0  0  0
 13 14  1  0  0  0  0
 13 20  1  0  0  0  0
 14 21  1  0  0  0  0
 15 14  2  0  0  0  0
 16 12  1  0  0  0  0
 16 15  1  0  0  0  0
 17 16  2  0  0  0  0
 18  9  1  0  0  0  0
 22 15  1  0  0  0  0
 23 17  1  0  0  0  0
 24  1  1  0  0  0  0
 25 24  2  0  0  0  0
 26 27  1  0  0  0  0
 26 24  1  0  0  0  0
 27 28  1  0  0  0  0
 29 27  1  0  0  0  0
 30 29  1  0  0  0  0
 31 29  1  0  0  0  0
 32 31  1  0  0  0  0
 33 34  1  0  0  0  0
 33 31  1  0  0  0  0
 34 26  1  0  0  0  0
M  END
>  <minimizedAffinity>
-5.99814892

$$$$

 OpenBabel03252504013D

 34 37  0  0  0  0  0  0  0  0999 V2000
   37.9150   30.9490   39.1750 C   0  0  0  0  0  0  0  0  0  0  0  0
   36.9720   31.7790   39.7910 C   0  0  0  0  0  0  0  0  0  0  0  0
   36.2680   31.2530   40.8740 C   0  0  0  0  0  0  0  0  0  0  0  0
   36.5320   29.9750   41.2710 N   0  0  0  0  0  0  0  0  0  0  0  0
   37.4550   29.2160   40.6400 C   0  0  0  0  0  0  0  0  0  0  0  0
   38.1460   29.7000   39.5950 N   0  0  0  0  0  0  0  0  0  0  0  0
   36.7300   32.7880   39.5150 H   0  0  0  0  0  0  0  0  0  0  0  0
   35.5170   31.8400   41.4030 H   0  0  0  0  0  0  0  0  0  0  0  0
   36.9390   26.8250   40.5950 C   0  0  0  0  0  0  0  0  0  0  0  0
   37.7390   27.8420   41.0670 C   0  0  0  0  0  0  0  0  0  0  0  0
   38.7690   27.5330   41.9180 C   0  0  0  0  0  0  0  0  0  0  0  0
   39.0140   26.2350   42.3040 C   0  0  0  0  0  0  0  0  0  0  0  0
   39.9170   25.6490   43.0950 N   0  0  0  0  0  0  0  0  0  0  0  0
   39.7080   24.3110   43.1310 C   0  0  0  0  0  0  0  0  0  0  0  0
   38.6200   24.0020   42.3290 C   0  0  0  0  0  0  0  0  0  0  0  0
   38.1950   25.2030   41.8180 C   0  0  0  0  0  0  0  0  0  0  0  0
   37.1570   25.5130   40.9610 C   0  0  0  0  0  0  0  0  0  0  0  0
   36.1110   27.0200   39.9200 H   0  0  0  0  0  0  0  0  0  0  0  0
   39.3940   28.3500   42.2830 H   0  0  0  0  0  0  0  0  0  0  0  0
   40.6630   26.2070   43.5950 H   0  0  0  0  0  0  0  0  0  0  0  0
   40.3260   23.6300   43.7180 H   0  0  0  0  0  0  0  0  0  0  0  0
   38.2040   23.0070   42.1540 H   0  0  0  0  0  0  0  0  0  0  0  0
   36.5300   24.6940   40.5940 H   0  0  0  0  0  0  0  0  0  0  0  0
   38.6010   31.5570   38.0700 C   0  0  0  0  0  0  0  0  0  0  0  0
   38.0730   31.8590   36.9430 O   0  0  0  0  0  0  0  0  0  0  0  0
   39.9900   31.8210   38.3130 N   0  0  0  0  0  0  0  0  0  0  0  0
   40.5460   32.8840   39.1330 C   0  0  0  0  0  3  0  0  0  0  0  0
   39.7500   33.4940   39.6050 H   0  0  0  0  0  0  0  0  0  0  0  0
   41.4320   33.7440   38.3090 C   0  0  0  0  0  3  0  0  0  0  0  0
   42.3530   33.9940   38.9080 H   0  0  0  0  0  0  0  0  0  0  0  0
   41.7820   33.1890   37.0280 N   0  0  0  0  0  0  0  0  0  0  0  0
   42.6520   33.6770   36.7170 H   0  0  0  0  0  0  0  0  0  0  0  0
   42.0780   31.7780   37.0710 C   0  0  0  0  0  2  0  0  0  0  0  0
   40.9860   30.9650   37.6980 C   0  0  0  0  0  2  0  0  0  0  0  0
  1  6  2  0  0  0  0
  1  2  1  0  0  0  0
  2  3  2  0  0  0  0
  3  4  1  0  0  0  0
  3  8  1  0  0  0  0
  5 10  1  0  0  0  0
  5  4  2  0  0  0  0
  6  5  1  0  0  0  0
  7  2  1  0  0  0  0
  9 17  2  0  0  0  0
  9 10  1  0  0  0  0
 10 11  2  0  0  0  0
 11 19  1  0  0  0  0
 11 12  1  0  0  0  0
 12 13  1  0  0  0  0
 13 14  1  0  0  0  0
 13 20  1  0  0  0  0
 14 21  1  0  0  0  0
 15 14  2  0  0  0  0
 16 12  2  0  0  0  0
 16 15  1  0  0  0  0
 17 16  1  0  0  0  0
 18  9  1  0  0  0  0
 22 15  1  0  0  0  0
 23 17  1  0  0  0  0
 24 26  1  0  0  0  0
 24  1  1  0  0  0  0
 25 24  2  0  0  0  0
 26 27  1  0  0  0  0
 27 28  1  0  0  0  0
 29 30  1  0  0  0  0
 29 27  1  0  0  0  0
 31 33  1  0  0  0  0
 31 29  1  0  0  0  0
 32 31  1  0  0  0  0
 33 34  1  0  0  0  0
 34 26  1  0  0  0  0
M  END
>  <minimizedAffinity>
-5.96019697

$$$$

 OpenBabel03252504013D

 34 37  0  0  0  0  0  0  0  0999 V2000
   39.7460   31.6270   40.2840 C   0  0  0  0  0  0  0  0  0  0  0  0
   38.8140   32.6650   40.1700 C   0  0  0  0  0  0  0  0  0  0  0  0
   37.4820   32.3600   40.4500 C   0  0  0  0  0  0  0  0  0  0  0  0
   37.1620   31.0860   40.8160 N   0  0  0  0  0  0  0  0  0  0  0  0
   38.1030   30.1210   40.9130 C   0  0  0  0  0  0  0  0  0  0  0  0
   39.3930   30.3890   40.6480 N   0  0  0  0  0  0  0  0  0  0  0  0
   39.0180   33.6790   39.8860 H   0  0  0  0  0  0  0  0  0  0  0  0
   36.7000   33.1170   40.3810 H   0  0  0  0  0  0  0  0  0  0  0  0
   37.5690   28.4770   42.6430 C   0  0  0  0  0  0  0  0  0  0  0  0
   37.7580   28.7510   41.3070 C   0  0  0  0  0  0  0  0  0  0  0  0
   37.6180   27.7360   40.3960 C   0  0  0  0  0  0  0  0  0  0  0  0
   37.2950   26.4590   40.7910 C   0  0  0  0  0  0  0  0  0  0  0  0
   37.0960   25.3030   40.1510 N   0  0  0  0  0  0  0  0  0  0  0  0
   36.7920   24.3240   41.0380 C   0  0  0  0  0  0  0  0  0  0  0  0
   36.7900   24.8590   42.3180 C   0  0  0  0  0  0  0  0  0  0  0  0
   37.1030   26.1850   42.1560 C   0  0  0  0  0  0  0  0  0  0  0  0
   37.2430   27.2080   43.0740 C   0  0  0  0  0  0  0  0  0  0  0  0
   37.6690   29.2470   43.4010 H   0  0  0  0  0  0  0  0  0  0  0  0
   37.7710   27.9710   39.3410 H   0  0  0  0  0  0  0  0  0  0  0  0
   37.1810   25.2290   39.1000 H   0  0  0  0  0  0  0  0  0  0  0  0
   36.5910   23.2950   40.7380 H   0  0  0  0  0  0  0  0  0  0  0  0
   36.5810   24.3210   43.2460 H   0  0  0  0  0  0  0  0  0  0  0  0
   37.0900   26.9740   44.1330 H   0  0  0  0  0  0  0  0  0  0  0  0
   41.0960   32.0130   39.9820 C   0  0  0  0  0  0  0  0  0  0  0  0
   42.0640   32.0490   40.8210 O   0  0  0  0  0  0  0  0  0  0  0  0
   41.3110   32.3770   38.6110 N   0  0  0  0  0  0  0  0  0  0  0  0
   41.4030   31.4780   37.4740 C   0  0  0  0  0  3  0  0  0  0  0  0
   41.2560   30.4220   37.7760 H   0  0  0  0  0  0  0  0  0  0  0  0
   42.7190   31.6420   36.8080 C   0  0  0  0  0  3  0  0  0  0  0  0
   42.5640   31.6280   35.6910 H   0  0  0  0  0  0  0  0  0  0  0  0
   43.4530   32.8130   37.2130 N   0  0  0  0  0  0  0  0  0  0  0  0
   44.1420   33.0130   36.4540 H   0  0  0  0  0  0  0  0  0  0  0  0
   42.6300   33.9890   37.3590 C   0  0  0  0  0  2  0  0  0  0  0  0
   41.4590   33.7780   38.2720 C   0  0  0  0  0  2  0  0  0  0  0  0
  1  6  1  0  0  0  0
  2  1  2  0  0  0  0
  2  3  1  0  0  0  0
  3  4  2  0  0  0  0
  4  5  1  0  0  0  0
  5 10  1  0  0  0  0
  6  5  2  0  0  0  0
  7  2  1  0  0  0  0
  8  3  1  0  0  0  0
  9 17  1  0  0  0  0
  9 18  1  0  0  0  0
 10  9  2  0  0  0  0
 11 12  2  0  0  0  0
 11 10  1  0  0  0  0
 12 16  1  0  0  0  0
 13 12  1  0  0  0  0
 13 14  1  0  0  0  0
 14 15  2  0  0  0  0
 15 22  1  0  0  0  0
 16 15  1  0  0  0  0
 16 17  2  0  0  0  0
 17 23  1  0  0  0  0
 19 11  1  0  0  0  0
 20 13  1  0  0  0  0
 21 14  1  0  0  0  0
 24  1  1  0  0  0  0
 24 25  2  0  0  0  0
 26 24  1  0  0  0  0
 27 28  1  0  0  0  0
 27 26  1  0  0  0  0
 29 31  1  0  0  0  0
 29 27  1  0  0  0  0
 30 29  1  0  0  0  0
 31 33  1  0  0  0  0
 32 31  1  0  0  0  0
 33 34  1  0  0  0  0
 34 26  1  0  0  0  0
M  END
>  <minimizedAffinity>
-5.91333294

$$$$

 OpenBabel03252504013D

 34 37  0  0  0  0  0  0  0  0999 V2000
   37.3170   29.3530   41.6280 C   0  0  0  0  0  0  0  0  0  0  0  0
   37.4690   29.4300   43.0160 C   0  0  0  0  0  0  0  0  0  0  0  0
   37.5290   28.2280   43.7200 C   0  0  0  0  0  0  0  0  0  0  0  0
   37.4390   27.0560   43.0290 N   0  0  0  0  0  0  0  0  0  0  0  0
   37.2930   27.0370   41.6860 C   0  0  0  0  0  0  0  0  0  0  0  0
   37.2330   28.1820   40.9840 N   0  0  0  0  0  0  0  0  0  0  0  0
   37.5440   30.3260   43.6020 H   0  0  0  0  0  0  0  0  0  0  0  0
   37.6460   28.2100   44.8050 H   0  0  0  0  0  0  0  0  0  0  0  0
   36.4980   25.7630   39.7550 C   0  0  0  0  0  0  0  0  0  0  0  0
   37.1960   25.7770   40.9430 C   0  0  0  0  0  0  0  0  0  0  0  0
   37.7730   24.6150   41.3850 C   0  0  0  0  0  0  0  0  0  0  0  0
   37.6670   23.4450   40.6690 C   0  0  0  0  0  0  0  0  0  0  0  0
   38.1110   22.1970   40.8450 N   0  0  0  0  0  0  0  0  0  0  0  0
   37.7150   21.4110   39.8140 C   0  0  0  0  0  0  0  0  0  0  0  0
   36.9790   22.1750   38.9200 C   0  0  0  0  0  0  0  0  0  0  0  0
   36.9540   23.4370   39.4590 C   0  0  0  0  0  0  0  0  0  0  0  0
   36.3730   24.6080   39.0120 C   0  0  0  0  0  0  0  0  0  0  0  0
   36.0240   26.6580   39.3640 H   0  0  0  0  0  0  0  0  0  0  0  0
   38.3240   24.6430   42.3280 H   0  0  0  0  0  0  0  0  0  0  0  0
   38.6850   21.9250   41.6900 H   0  0  0  0  0  0  0  0  0  0  0  0
   37.9630   20.3510   39.7480 H   0  0  0  0  0  0  0  0  0  0  0  0
   36.5230   21.8270   37.9910 H   0  0  0  0  0  0  0  0  0  0  0  0
   35.8210   24.5810   38.0670 H   0  0  0  0  0  0  0  0  0  0  0  0
   37.2640   30.6270   40.9690 C   0  0  0  0  0  0  0  0  0  0  0  0
   36.2410   31.3960   40.9200 O   0  0  0  0  0  0  0  0  0  0  0  0
   38.4910   31.0130   40.3330 N   0  0  0  0  0  0  0  0  0  0  0  0
   39.6980   31.4940   40.9840 C   0  0  0  0  0  3  0  0  0  0  0  0
   39.5870   31.5120   42.0860 H   0  0  0  0  0  0  0  0  0  0  0  0
   40.0350   32.8490   40.4790 C   0  0  0  0  0  3  0  0  0  0  0  0
   41.1490   32.9080   40.3190 H   0  0  0  0  0  0  0  0  0  0  0  0
   39.3200   33.2410   39.2930 N   0  0  0  0  0  0  0  0  0  0  0  0
   39.8770   34.0030   38.8450 H   0  0  0  0  0  0  0  0  0  0  0  0
   39.1890   32.1830   38.3210 C   0  0  0  0  0  2  0  0  0  0  0  0
   38.5890   30.9320   38.8890 C   0  0  0  0  0  2  0  0  0  0  0  0
  1  2  1  0  0  0  0
  2  7  1  0  0  0  0
  2  3  2  0  0  0  0
  3  8  1  0  0  0  0
  4  3  1  0  0  0  0
  5  4  2  0  0  0  0
  6  1  2  0  0  0  0
  6  5  1  0  0  0  0
  9 10  1  0  0  0  0
 10 11  2  0  0  0  0
 10  5  1  0  0  0  0
 11 19  1  0  0  0  0
 12 13  1  0  0  0  0
 12 11  1  0  0  0  0
 13 20  1  0  0  0  0
 14 13  1  0  0  0  0
 15 16  1  0  0  0  0
 15 14  2  0  0  0  0
 16 12  2  0  0  0  0
 17 16  1  0  0  0  0
 17  9  2  0  0  0  0
 18  9  1  0  0  0  0
 21 14  1  0  0  0  0
 22 15  1  0  0  0  0
 23 17  1  0  0  0  0
 24  1  1  0  0  0  0
 25 24  2  0  0  0  0
 26 24  1  0  0  0  0
 26 27  1  0  0  0  0
 27 28  1  0  0  0  0
 29 27  1  0  0  0  0
 30 29  1  0  0  0  0
 31 29  1  0  0  0  0
 32 31  1  0  0  0  0
 33 34  1  0  0  0  0
 33 31  1  0  0  0  0
 34 26  1  0  0  0  0
M  END
>  <minimizedAffinity>
-5.85754633

$$$$
