
 OpenBabel03252508513D

 28 30  0  0  0  0  0  0  0  0999 V2000
   45.8160   34.1630   41.0440 C   0  0  0  0  0  0  0  0  0  0  0  0
   46.4480   34.7790   42.1290 C   0  0  0  0  0  0  0  0  0  0  0  0
   47.8030   35.1150   41.9790 C   0  0  0  0  0  0  0  0  0  0  0  0
   48.3970   34.8130   40.7820 N   0  0  0  0  0  0  0  0  0  0  0  0
   47.7530   34.2250   39.7800 C   0  0  0  0  0  0  0  0  0  0  0  0
   46.4540   33.8890   39.8910 N   0  0  0  0  0  0  0  0  0  0  0  0
   48.3150   35.5940   42.8050 H   0  0  0  0  0  0  0  0  0  0  0  0
   48.3110   34.0330   38.8880 H   0  0  0  0  0  0  0  0  0  0  0  0
   45.7040   35.0460   43.3470 C   0  0  0  0  0  0  0  0  0  0  0  0
   45.0940   36.2560   43.6050 C   0  0  0  0  0  0  0  0  0  0  0  0
   44.5200   36.0570   44.8500 C   0  0  0  0  0  0  0  0  0  0  0  0
   44.7690   34.8020   45.3160 N   0  0  0  0  0  0  0  0  0  0  0  0
   45.4820   34.2240   44.3890 N   0  0  0  0  0  0  0  0  0  0  0  0
   45.0420   37.1670   43.0200 H   0  0  0  0  0  0  0  0  0  0  0  0
   43.9400   36.8180   45.3860 H   0  0  0  0  0  0  0  0  0  0  0  0
   44.4120   34.4770   46.2430 H   0  0  0  0  0  0  0  0  0  0  0  0
   44.4790   33.8290   41.1820 O   0  0  0  0  0  0  0  0  0  0  0  0
   43.4170   34.5880   40.7690 C   0  0  0  0  0  0  0  0  0  0  0  0
   43.2980   35.8550   40.7890 O   0  0  0  0  0  0  0  0  0  0  0  0
   42.1330   34.2270   40.2020 N   0  0  0  0  0  0  0  0  0  0  0  0
   41.7500   32.8350   40.3240 C   0  0  0  0  0  3  0  0  0  0  0  0
   40.9950   32.8280   41.1660 H   0  0  0  0  0  0  0  0  0  0  0  0
   41.0060   32.4830   39.0550 C   0  0  0  0  0  3  0  0  0  0  0  0
   41.3080   31.4470   38.7810 H   0  0  0  0  0  0  0  0  0  0  0  0
   41.3880   33.3070   37.9320 N   0  0  0  0  0  0  0  0  0  0  0  0
   40.8630   32.9580   37.1080 H   0  0  0  0  0  0  0  0  0  0  0  0
   41.0360   34.6980   38.1220 C   0  0  0  0  0  2  0  0  0  0  0  0
   41.2360   35.1530   39.5390 C   0  0  0  0  0  2  0  0  0  0  0  0
  1 17  1  0  0  0  0
  1  2  1  0  0  0  0
  2  9  1  0  0  0  0
  3  2  2  0  0  0  0
  3  7  1  0  0  0  0
  4  3  1  0  0  0  0
  5  6  1  0  0  0  0
  5  4  2  0  0  0  0
  6  1  2  0  0  0  0
  8  5  1  0  0  0  0
  9 10  1  0  0  0  0
  9 13  2  0  0  0  0
 10 11  2  0  0  0  0
 11 12  1  0  0  0  0
 11 15  1  0  0  0  0
 12 16  1  0  0  0  0
 13 12  1  0  0  0  0
 14 10  1  0  0  0  0
 18 19  2  0  0  0  0
 18 17  1  0  0  0  0
 20 21  1  0  0  0  0
 20 18  1  0  0  0  0
 21 22  1  0  0  0  0
 23 21  1  0  0  0  0
 24 23  1  0  0  0  0
 25 27  1  0  0  0  0
 25 23  1  0  0  0  0
 26 25  1  0  0  0  0
 27 28  1  0  0  0  0
 28 20  1  0  0  0  0
M  END
>  <minimizedAffinity>
-5.66183519

>  <minimizedRMSD>
0.906205118

$$$$
