
 OpenBabel03252501113D

 20 21  0  0  0  0  0  0  0  0999 V2000
   47.0050   34.8020   41.9980 C   0  0  0  0  0  0  0  0  0  0  0  0
   47.9960   35.5270   41.7470 O   0  0  0  0  0  0  0  0  0  0  0  0
   46.6400   33.8520   40.9990 N   0  0  0  0  0  0  0  0  0  0  0  0
   47.6270   33.0380   40.3450 C   0  0  0  0  0  3  0  0  0  0  0  0
   48.1530   33.5880   39.5460 H   0  0  0  0  0  0  0  0  0  0  0  0
   47.0650   31.7240   39.8800 C   0  0  0  0  0  3  0  0  0  0  0  0
   46.8560   31.0830   40.7610 H   0  0  0  0  0  0  0  0  0  0  0  0
   45.9180   31.8520   39.0330 N   0  0  0  0  0  0  0  0  0  0  0  0
   46.1610   31.7290   38.0360 H   0  0  0  0  0  0  0  0  0  0  0  0
   45.1930   33.0800   39.1910 C   0  0  0  0  0  2  0  0  0  0  0  0
   45.2820   33.6480   40.5860 C   0  0  0  0  0  2  0  0  0  0  0  0
   44.5960   36.0390   44.5000 C   0  0  0  0  0  0  0  0  0  0  0  0
   45.3650   35.9520   43.3320 C   0  0  0  0  0  0  0  0  0  0  0  0
   46.2250   34.8660   43.2090 C   0  0  0  0  0  0  0  0  0  0  0  0
   46.2760   33.9510   44.2180 N   0  0  0  0  0  0  0  0  0  0  0  0
   45.5120   34.0780   45.3290 C   0  0  0  0  0  0  0  0  0  0  0  0
   44.6650   35.1290   45.4730 N   0  0  0  0  0  0  0  0  0  0  0  0
   43.9080   36.8690   44.6450 H   0  0  0  0  0  0  0  0  0  0  0  0
   45.2310   36.7370   42.6150 H   0  0  0  0  0  0  0  0  0  0  0  0
   45.7230   33.2370   45.9840 H   0  0  0  0  0  0  0  0  0  0  0  0
  1 14  1  0  0  0  0
  2  1  2  0  0  0  0
  3  1  1  0  0  0  0
  4  3  1  0  0  0  0
  5  4  1  0  0  0  0
  6  4  1  0  0  0  0
  6  7  1  0  0  0  0
  8 10  1  0  0  0  0
  8  6  1  0  0  0  0
  9  8  1  0  0  0  0
 10 11  1  0  0  0  0
 11  3  1  0  0  0  0
 12 18  1  0  0  0  0
 12 17  1  0  0  0  0
 13 12  2  0  0  0  0
 14 13  1  0  0  0  0
 14 15  2  0  0  0  0
 15 16  1  0  0  0  0
 16 17  2  0  0  0  0
 16 20  1  0  0  0  0
 19 13  1  0  0  0  0
M  END
>  <minimizedAffinity>
-4.05070829

>  <minimizedRMSD>
0.331443667

$$$$
