
 OpenBabel03242522513D

 26 27  0  0  0  0  0  0  0  0999 V2000
   45.2180   30.8280   47.5320 O   0  0  0  0  0  0  0  0  0  0  0  0
   45.7570   32.0610   48.2880 P   0  0  2  0  0  0  0  0  0  0  0  0
   45.2690   31.8640   49.8860 O   0  0  0  0  0  0  0  0  0  0  0  0
   44.4450   32.3670   50.1070 H   0  0  0  0  0  0  0  0  0  0  0  0
   45.0330   33.4390   47.6240 O   0  0  0  0  0  0  0  0  0  0  0  0
   46.6600   33.5470   44.3740 C   0  0  0  0  0  0  0  0  0  0  0  0
   46.3130   33.1610   45.6870 C   0  0  0  0  0  0  0  0  0  0  0  0
   45.3270   33.8590   46.3450 C   0  0  0  0  0  0  0  0  0  0  0  0
   44.7210   34.8980   45.7080 N   0  0  0  0  0  0  0  0  0  0  0  0
   45.0690   35.2490   44.4540 C   0  0  0  0  0  0  0  0  0  0  0  0
   46.0240   34.5900   43.7870 N   0  0  0  0  0  0  0  0  0  0  0  0
   47.4230   33.0530   43.7860 H   0  0  0  0  0  0  0  0  0  0  0  0
   46.8970   32.3240   46.0120 H   0  0  0  0  0  0  0  0  0  0  0  0
   44.5190   36.1030   44.0300 H   0  0  0  0  0  0  0  0  0  0  0  0
   47.4000   32.1580   48.1530 O   0  0  0  0  0  0  0  0  0  0  0  0
   48.3790   31.3010   48.5420 C   0  0  0  0  0  0  0  0  0  0  0  0
   49.1620   31.7840   49.4340 O   0  0  0  0  0  0  0  0  0  0  0  0
   49.1260   30.0930   48.5630 N   0  0  0  0  0  0  0  0  0  0  0  0
   48.3390   29.0580   47.8960 C   0  0  0  0  0  3  0  0  0  0  0  0
   48.1400   29.2760   46.8350 H   0  0  0  0  0  0  0  0  0  0  0  0
   49.1420   27.7790   48.0230 C   0  0  0  0  0  3  0  0  0  0  0  0
   50.0260   27.7640   47.3530 H   0  0  0  0  0  0  0  0  0  0  0  0
   49.6720   27.6620   49.3910 N   0  0  0  0  0  0  0  0  0  0  0  0
   48.9420   28.1230   50.0020 H   0  0  0  0  0  0  0  0  0  0  0  0
   50.8280   28.5140   49.4230 C   0  0  0  0  0  2  0  0  0  0  0  0
   50.4410   29.9150   49.1460 C   0  0  0  0  0  2  0  0  0  0  0  0
  2  1  2  6  0  0  0
  2  3  1  0  0  0  0
  3  4  1  0  0  0  0
  5  2  1  0  0  0  0
  6  7  1  0  0  0  0
  7 13  1  0  0  0  0
  7  8  2  0  0  0  0
  8  5  1  0  0  0  0
  9  8  1  0  0  0  0
 10  9  2  0  0  0  0
 11  6  2  0  0  0  0
 11 10  1  0  0  0  0
 12  6  1  0  0  0  0
 14 10  1  0  0  0  0
 15  2  1  0  0  0  0
 15 16  1  0  0  0  0
 16 18  1  0  0  0  0
 16 17  2  0  0  0  0
 18 26  1  0  0  0  0
 19 21  1  0  0  0  0
 19 18  1  0  0  0  0
 20 19  1  0  0  0  0
 21 23  1  0  0  0  0
 22 21  1  0  0  0  0
 23 25  1  0  0  0  0
 23 24  1  0  0  0  0
 26 25  1  0  0  0  0
M  END
>  <minimizedAffinity>
-5.04070473

>  <minimizedRMSD>
0.18005842

$$$$
