
 OpenBabel03242513123D

 20 21  0  0  0  0  0  0  0  0999 V2000
   37.3760   27.2930   42.4400 C   0  0  0  0  0  0  0  0  0  0  0  0
   37.4720   27.4540   43.6800 O   0  0  0  0  0  0  0  0  0  0  0  0
   36.8740   28.4630   41.8050 N   0  0  0  0  0  0  0  0  0  0  0  0
   37.5010   29.6700   42.2780 C   0  0  0  0  0  3  0  0  0  0  0  0
   37.2390   29.9140   43.3220 H   0  0  0  0  0  0  0  0  0  0  0  0
   37.1060   30.7680   41.3280 C   0  0  0  0  0  3  0  0  0  0  0  0
   37.7830   30.7630   40.4400 H   0  0  0  0  0  0  0  0  0  0  0  0
   35.7130   30.7810   40.9880 N   0  0  0  0  0  0  0  0  0  0  0  0
   35.5630   31.6170   40.3860 H   0  0  0  0  0  0  0  0  0  0  0  0
   35.2140   29.5940   40.3870 C   0  0  0  0  0  2  0  0  0  0  0  0
   35.8450   28.3200   40.8060 C   0  0  0  0  0  2  0  0  0  0  0  0
   39.2130   24.9620   40.3670 C   0  0  0  0  0  0  0  0  0  0  0  0
   38.5200   23.7500   40.4610 C   0  0  0  0  0  0  0  0  0  0  0  0
   37.3840   23.7700   41.2760 C   0  0  0  0  0  0  0  0  0  0  0  0
   37.0390   24.9220   41.9000 N   0  0  0  0  0  0  0  0  0  0  0  0
   37.7400   26.0560   41.7740 C   0  0  0  0  0  0  0  0  0  0  0  0
   38.8360   26.0800   41.0030 N   0  0  0  0  0  0  0  0  0  0  0  0
   40.1180   25.0330   39.7470 H   0  0  0  0  0  0  0  0  0  0  0  0
   38.8710   22.8860   39.9280 H   0  0  0  0  0  0  0  0  0  0  0  0
   36.8210   22.8490   41.3750 H   0  0  0  0  0  0  0  0  0  0  0  0
  1  2  2  0  0  0  0
  3  4  1  0  0  0  0
  3  1  1  0  0  0  0
  4  5  1  0  0  0  0
  6  4  1  0  0  0  0
  7  6  1  0  0  0  0
  8  6  1  0  0  0  0
  9  8  1  0  0  0  0
 10 11  1  0  0  0  0
 10  8  1  0  0  0  0
 11  3  1  0  0  0  0
 12 13  2  0  0  0  0
 12 17  1  0  0  0  0
 13 14  1  0  0  0  0
 14 20  1  0  0  0  0
 14 15  2  0  0  0  0
 16 15  1  0  0  0  0
 16  1  1  0  0  0  0
 17 16  2  0  0  0  0
 18 12  1  0  0  0  0
 19 13  1  0  0  0  0
M  END
>  <minimizedAffinity>
-4.34419537

$$$$

 OpenBabel03242513123D

 20 21  0  0  0  0  0  0  0  0999 V2000
   38.9890   30.4170   42.1250 C   0  0  0  0  0  0  0  0  0  0  0  0
   39.8590   30.8310   42.9260 O   0  0  0  0  0  0  0  0  0  0  0  0
   38.7890   31.3380   41.0590 N   0  0  0  0  0  0  0  0  0  0  0  0
   40.0230   31.8370   40.5110 C   0  0  0  0  0  3  0  0  0  0  0  0
   40.5710   32.4950   41.2070 H   0  0  0  0  0  0  0  0  0  0  0  0
   39.6760   32.5430   39.2280 C   0  0  0  0  0  3  0  0  0  0  0  0
   39.6060   31.8010   38.3950 H   0  0  0  0  0  0  0  0  0  0  0  0
   38.5400   33.4130   39.3210 N   0  0  0  0  0  0  0  0  0  0  0  0
   38.4500   33.8820   38.3960 H   0  0  0  0  0  0  0  0  0  0  0  0
   37.3250   32.7980   39.7280 C   0  0  0  0  0  2  0  0  0  0  0  0
   37.4390   31.6550   40.6640 C   0  0  0  0  0  2  0  0  0  0  0  0
   37.0460   27.7870   43.6790 C   0  0  0  0  0  0  0  0  0  0  0  0
   36.9490   26.7750   42.7170 C   0  0  0  0  0  0  0  0  0  0  0  0
   37.5860   27.0390   41.5010 C   0  0  0  0  0  0  0  0  0  0  0  0
   38.2350   28.2170   41.3370 N   0  0  0  0  0  0  0  0  0  0  0  0
   38.2960   29.1530   42.2940 C   0  0  0  0  0  0  0  0  0  0  0  0
   37.6990   28.9400   43.4750 N   0  0  0  0  0  0  0  0  0  0  0  0
   36.5730   27.6600   44.6630 H   0  0  0  0  0  0  0  0  0  0  0  0
   36.4110   25.8720   42.9390 H   0  0  0  0  0  0  0  0  0  0  0  0
   37.5320   26.2790   40.7310 H   0  0  0  0  0  0  0  0  0  0  0  0
  1 16  1  0  0  0  0
  1  2  2  0  0  0  0
  3  1  1  0  0  0  0
  4  3  1  0  0  0  0
  4  5  1  0  0  0  0
  6  8  1  0  0  0  0
  6  4  1  0  0  0  0
  7  6  1  0  0  0  0
  8 10  1  0  0  0  0
  9  8  1  0  0  0  0
 10 11  1  0  0  0  0
 11  3  1  0  0  0  0
 12 18  1  0  0  0  0
 13 19  1  0  0  0  0
 13 12  2  0  0  0  0
 14 13  1  0  0  0  0
 15 14  2  0  0  0  0
 15 16  1  0  0  0  0
 16 17  2  0  0  0  0
 17 12  1  0  0  0  0
 20 14  1  0  0  0  0
M  END
>  <minimizedAffinity>
-4.3188405

$$$$

 OpenBabel03242513123D

 20 21  0  0  0  0  0  0  0  0999 V2000
   38.3670   32.6750   40.0230 C   0  0  0  0  0  0  0  0  0  0  0  0
   37.5030   33.5770   40.1380 O   0  0  0  0  0  0  0  0  0  0  0  0
   38.0330   31.5380   40.8100 N   0  0  0  0  0  0  0  0  0  0  0  0
   36.6490   31.1610   40.6910 C   0  0  0  0  0  3  0  0  0  0  0  0
   35.9590   31.8940   41.1450 H   0  0  0  0  0  0  0  0  0  0  0  0
   36.5120   29.8000   41.3170 C   0  0  0  0  0  3  0  0  0  0  0  0
   36.7910   29.0120   40.5760 H   0  0  0  0  0  0  0  0  0  0  0  0
   37.1770   29.6620   42.5800 N   0  0  0  0  0  0  0  0  0  0  0  0
   36.9510   28.7070   42.9310 H   0  0  0  0  0  0  0  0  0  0  0  0
   38.5760   29.9100   42.5710 C   0  0  0  0  0  2  0  0  0  0  0  0
   39.0660   30.9180   41.6020 C   0  0  0  0  0  2  0  0  0  0  0  0
   40.7280   32.0420   37.3520 C   0  0  0  0  0  0  0  0  0  0  0  0
   41.7480   32.9850   37.5230 C   0  0  0  0  0  0  0  0  0  0  0  0
   41.5870   33.8550   38.6050 C   0  0  0  0  0  0  0  0  0  0  0  0
   40.4910   33.7330   39.3930 N   0  0  0  0  0  0  0  0  0  0  0  0
   39.5430   32.8100   39.1830 C   0  0  0  0  0  0  0  0  0  0  0  0
   39.6580   31.9570   38.1560 N   0  0  0  0  0  0  0  0  0  0  0  0
   40.7760   31.3200   36.5240 H   0  0  0  0  0  0  0  0  0  0  0  0
   42.5810   33.0050   36.8450 H   0  0  0  0  0  0  0  0  0  0  0  0
   42.3560   34.5990   38.7700 H   0  0  0  0  0  0  0  0  0  0  0  0
  1  2  2  0  0  0  0
  1  3  1  0  0  0  0
  3 11  1  0  0  0  0
  4  3  1  0  0  0  0
  4  5  1  0  0  0  0
  4  6  1  0  0  0  0
  6  8  1  0  0  0  0
  7  6  1  0  0  0  0
  8  9  1  0  0  0  0
 10  8  1  0  0  0  0
 11 10  1  0  0  0  0
 12 13  2  0  0  0  0
 12 17  1  0  0  0  0
 13 14  1  0  0  0  0
 14 20  1  0  0  0  0
 14 15  2  0  0  0  0
 16 15  1  0  0  0  0
 16  1  1  0  0  0  0
 17 16  2  0  0  0  0
 18 12  1  0  0  0  0
 19 13  1  0  0  0  0
M  END
>  <minimizedAffinity>
-4.24766302

$$$$

 OpenBabel03242513123D

 20 21  0  0  0  0  0  0  0  0999 V2000
   36.8100   27.4280   42.5780 C   0  0  0  0  0  0  0  0  0  0  0  0
   36.2290   27.2710   43.6770 O   0  0  0  0  0  0  0  0  0  0  0  0
   37.5160   26.2530   42.1960 N   0  0  0  0  0  0  0  0  0  0  0  0
   36.7450   25.0520   42.3820 C   0  0  0  0  0  3  0  0  0  0  0  0
   36.5700   24.8090   43.4440 H   0  0  0  0  0  0  0  0  0  0  0  0
   37.4790   23.9480   41.6690 C   0  0  0  0  0  3  0  0  0  0  0  0
   37.2100   23.9540   40.5850 H   0  0  0  0  0  0  0  0  0  0  0  0
   38.8920   23.9270   41.9100 N   0  0  0  0  0  0  0  0  0  0  0  0
   39.2640   23.0870   41.4180 H   0  0  0  0  0  0  0  0  0  0  0  0
   39.5960   25.1090   41.5550 C   0  0  0  0  0  2  0  0  0  0  0  0
   38.8590   26.3870   41.6880 C   0  0  0  0  0  2  0  0  0  0  0  0
   35.6130   29.9390   40.2600 C   0  0  0  0  0  0  0  0  0  0  0  0
   36.5390   30.9860   40.3310 C   0  0  0  0  0  0  0  0  0  0  0  0
   37.6010   30.7890   41.2190 C   0  0  0  0  0  0  0  0  0  0  0  0
   37.6640   29.6360   41.9280 N   0  0  0  0  0  0  0  0  0  0  0  0
   36.7490   28.6640   41.8200 C   0  0  0  0  0  0  0  0  0  0  0  0
   35.7140   28.8130   40.9820 N   0  0  0  0  0  0  0  0  0  0  0  0
   34.7470   30.0130   39.5870 H   0  0  0  0  0  0  0  0  0  0  0  0
   36.4050   31.8650   39.7290 H   0  0  0  0  0  0  0  0  0  0  0  0
   38.3380   31.5790   41.3020 H   0  0  0  0  0  0  0  0  0  0  0  0
  1  2  2  0  0  0  0
  3  4  1  0  0  0  0
  3  1  1  0  0  0  0
  4  5  1  0  0  0  0
  6  8  1  0  0  0  0
  6  4  1  0  0  0  0
  7  6  1  0  0  0  0
  9  8  1  0  0  0  0
 10 11  1  0  0  0  0
 10  8  1  0  0  0  0
 11  3  1  0  0  0  0
 12 13  2  0  0  0  0
 12 17  1  0  0  0  0
 13 14  1  0  0  0  0
 14 20  1  0  0  0  0
 14 15  2  0  0  0  0
 16 15  1  0  0  0  0
 16  1  1  0  0  0  0
 17 16  2  0  0  0  0
 18 12  1  0  0  0  0
 19 13  1  0  0  0  0
M  END
>  <minimizedAffinity>
-4.21731853

$$$$

 OpenBabel03242513123D

 20 21  0  0  0  0  0  0  0  0999 V2000
   37.2490   30.5890   41.1150 C   0  0  0  0  0  0  0  0  0  0  0  0
   36.1260   31.1450   41.1640 O   0  0  0  0  0  0  0  0  0  0  0  0
   38.1350   31.2900   40.2510 N   0  0  0  0  0  0  0  0  0  0  0  0
   38.1010   32.7160   40.4500 C   0  0  0  0  0  3  0  0  0  0  0  0
   37.1490   33.1750   40.1310 H   0  0  0  0  0  0  0  0  0  0  0  0
   39.2770   33.2890   39.7070 C   0  0  0  0  0  3  0  0  0  0  0  0
   40.1940   33.2220   40.3410 H   0  0  0  0  0  0  0  0  0  0  0  0
   39.4520   32.7640   38.3850 N   0  0  0  0  0  0  0  0  0  0  0  0
   40.2490   33.2850   37.9630 H   0  0  0  0  0  0  0  0  0  0  0  0
   39.6290   31.3560   38.2990 C   0  0  0  0  0  2  0  0  0  0  0  0
   38.9320   30.5350   39.3170 C   0  0  0  0  0  2  0  0  0  0  0  0
   36.9260   27.2520   42.4830 C   0  0  0  0  0  0  0  0  0  0  0  0
   38.0810   27.0470   43.2450 C   0  0  0  0  0  0  0  0  0  0  0  0
   38.9830   28.1150   43.2690 C   0  0  0  0  0  0  0  0  0  0  0  0
   38.6910   29.2410   42.5760 N   0  0  0  0  0  0  0  0  0  0  0  0
   37.5670   29.3850   41.8600 C   0  0  0  0  0  0  0  0  0  0  0  0
   36.6760   28.3850   41.8110 N   0  0  0  0  0  0  0  0  0  0  0  0
   36.1640   26.4620   42.4100 H   0  0  0  0  0  0  0  0  0  0  0  0
   38.2260   26.1160   43.7620 H   0  0  0  0  0  0  0  0  0  0  0  0
   39.8900   27.9920   43.8480 H   0  0  0  0  0  0  0  0  0  0  0  0
  1  2  2  0  0  0  0
  1 16  1  0  0  0  0
  3  4  1  0  0  0  0
  3  1  1  0  0  0  0
  5  4  1  0  0  0  0
  6  7  1  0  0  0  0
  6  4  1  0  0  0  0
  8  6  1  0  0  0  0
  9  8  1  0  0  0  0
 10  8  1  0  0  0  0
 10 11  1  0  0  0  0
 11  3  1  0  0  0  0
 12 13  1  0  0  0  0
 13 14  2  0  0  0  0
 13 19  1  0  0  0  0
 14 20  1  0  0  0  0
 15 14  1  0  0  0  0
 16 15  2  0  0  0  0
 17 16  1  0  0  0  0
 17 12  2  0  0  0  0
 18 12  1  0  0  0  0
M  END
>  <minimizedAffinity>
-4.21267128

$$$$

 OpenBabel03242513123D

 20 21  0  0  0  0  0  0  0  0999 V2000
   37.9630   32.6010   39.8800 C   0  0  0  0  0  0  0  0  0  0  0  0
   37.3750   33.7020   39.9930 O   0  0  0  0  0  0  0  0  0  0  0  0
   39.1760   32.7370   39.1480 N   0  0  0  0  0  0  0  0  0  0  0  0
   39.9550   33.8750   39.5620 C   0  0  0  0  0  3  0  0  0  0  0  0
   39.4870   34.8400   39.3010 H   0  0  0  0  0  0  0  0  0  0  0  0
   41.3140   33.7230   38.9350 C   0  0  0  0  0  3  0  0  0  0  0  0
   41.9500   33.0570   39.5670 H   0  0  0  0  0  0  0  0  0  0  0  0
   41.2880   33.3500   37.5510 N   0  0  0  0  0  0  0  0  0  0  0  0
   42.2780   33.3440   37.2270 H   0  0  0  0  0  0  0  0  0  0  0  0
   40.6220   32.1300   37.2540 C   0  0  0  0  0  2  0  0  0  0  0  0
   39.4770   31.7690   38.1230 C   0  0  0  0  0  2  0  0  0  0  0  0
   37.7620   29.6030   41.8980 C   0  0  0  0  0  0  0  0  0  0  0  0
   36.5410   29.0060   41.5630 C   0  0  0  0  0  0  0  0  0  0  0  0
   35.7840   29.6870   40.6040 C   0  0  0  0  0  0  0  0  0  0  0  0
   36.2650   30.8390   40.0790 N   0  0  0  0  0  0  0  0  0  0  0  0
   37.4430   31.3660   40.4380 C   0  0  0  0  0  0  0  0  0  0  0  0
   38.2000   30.7470   41.3540 N   0  0  0  0  0  0  0  0  0  0  0  0
   38.4180   29.1330   42.6450 H   0  0  0  0  0  0  0  0  0  0  0  0
   36.2430   28.0880   42.0340 H   0  0  0  0  0  0  0  0  0  0  0  0
   34.8320   29.2560   40.3180 H   0  0  0  0  0  0  0  0  0  0  0  0
  1  2  2  0  0  0  0
  1 16  1  0  0  0  0
  3  4  1  0  0  0  0
  3  1  1  0  0  0  0
  5  4  1  0  0  0  0
  6  4  1  0  0  0  0
  6  7  1  0  0  0  0
  8  6  1  0  0  0  0
  9  8  1  0  0  0  0
 10  8  1  0  0  0  0
 10 11  1  0  0  0  0
 11  3  1  0  0  0  0
 12 18  1  0  0  0  0
 13 12  1  0  0  0  0
 13 19  1  0  0  0  0
 14 13  2  0  0  0  0
 15 16  2  0  0  0  0
 15 14  1  0  0  0  0
 16 17  1  0  0  0  0
 17 12  2  0  0  0  0
 20 14  1  0  0  0  0
M  END
>  <minimizedAffinity>
-4.13746786

$$$$

 OpenBabel03242513123D

 20 21  0  0  0  0  0  0  0  0999 V2000
   37.9960   30.0270   40.1760 C   0  0  0  0  0  0  0  0  0  0  0  0
   37.6740   29.5810   39.0500 O   0  0  0  0  0  0  0  0  0  0  0  0
   38.2330   31.4300   40.1270 N   0  0  0  0  0  0  0  0  0  0  0  0
   37.2260   32.1420   39.3850 C   0  0  0  0  0  3  0  0  0  0  0  0
   37.2490   31.9250   38.3030 H   0  0  0  0  0  0  0  0  0  0  0  0
   37.4300   33.6060   39.6680 C   0  0  0  0  0  3  0  0  0  0  0  0
   36.9220   33.8810   40.6240 H   0  0  0  0  0  0  0  0  0  0  0  0
   38.7960   34.0360   39.5990 N   0  0  0  0  0  0  0  0  0  0  0  0
   38.7910   35.0660   39.7470 H   0  0  0  0  0  0  0  0  0  0  0  0
   39.6960   33.3740   40.4790 C   0  0  0  0  0  2  0  0  0  0  0  0
   39.3980   31.9570   40.7920 C   0  0  0  0  0  2  0  0  0  0  0  0
   39.0610   27.3360   42.3510 C   0  0  0  0  0  0  0  0  0  0  0  0
   38.3750   27.5340   43.5550 C   0  0  0  0  0  0  0  0  0  0  0  0
   37.5230   28.6420   43.5850 C   0  0  0  0  0  0  0  0  0  0  0  0
   37.4190   29.4270   42.4860 N   0  0  0  0  0  0  0  0  0  0  0  0
   38.1020   29.1900   41.3570 C   0  0  0  0  0  0  0  0  0  0  0  0
   38.9290   28.1390   41.2860 N   0  0  0  0  0  0  0  0  0  0  0  0
   39.7520   26.4880   42.2430 H   0  0  0  0  0  0  0  0  0  0  0  0
   38.5210   26.8570   44.3760 H   0  0  0  0  0  0  0  0  0  0  0  0
   36.9740   28.8280   44.5010 H   0  0  0  0  0  0  0  0  0  0  0  0
  1 16  1  0  0  0  0
  2  1  2  0  0  0  0
  3  1  1  0  0  0  0
  3 11  1  0  0  0  0
  4  6  1  0  0  0  0
  4  3  1  0  0  0  0
  5  4  1  0  0  0  0
  6  7  1  0  0  0  0
  8  6  1  0  0  0  0
  8  9  1  0  0  0  0
  8 10  1  0  0  0  0
 10 11  1  0  0  0  0
 12 13  1  0  0  0  0
 13 14  2  0  0  0  0
 13 19  1  0  0  0  0
 14 20  1  0  0  0  0
 15 14  1  0  0  0  0
 16 15  2  0  0  0  0
 17 16  1  0  0  0  0
 17 12  2  0  0  0  0
 18 12  1  0  0  0  0
M  END
>  <minimizedAffinity>
-4.13403797

$$$$

 OpenBabel03242513123D

 20 21  0  0  0  0  0  0  0  0999 V2000
   36.8940   30.2550   40.7580 C   0  0  0  0  0  0  0  0  0  0  0  0
   36.0800   31.1630   41.0500 O   0  0  0  0  0  0  0  0  0  0  0  0
   37.3080   30.3500   39.4000 N   0  0  0  0  0  0  0  0  0  0  0  0
   37.6360   31.6950   39.0080 C   0  0  0  0  0  3  0  0  0  0  0  0
   36.7570   32.3620   38.9670 H   0  0  0  0  0  0  0  0  0  0  0  0
   38.3320   31.6040   37.6780 C   0  0  0  0  0  3  0  0  0  0  0  0
   39.4160   31.3850   37.8320 H   0  0  0  0  0  0  0  0  0  0  0  0
   37.6970   30.7280   36.7370 N   0  0  0  0  0  0  0  0  0  0  0  0
   38.2350   30.8070   35.8490 H   0  0  0  0  0  0  0  0  0  0  0  0
   37.5500   29.3780   37.1550 C   0  0  0  0  0  2  0  0  0  0  0  0
   37.3530   29.1480   38.6050 C   0  0  0  0  0  2  0  0  0  0  0  0
   39.0310   28.4710   43.0740 C   0  0  0  0  0  0  0  0  0  0  0  0
   38.2670   27.3920   43.5330 C   0  0  0  0  0  0  0  0  0  0  0  0
   36.9750   27.3050   43.0070 C   0  0  0  0  0  0  0  0  0  0  0  0
   36.5590   28.2370   42.1170 N   0  0  0  0  0  0  0  0  0  0  0  0
   37.3340   29.2520   41.7110 C   0  0  0  0  0  0  0  0  0  0  0  0
   38.5790   29.3730   42.1910 N   0  0  0  0  0  0  0  0  0  0  0  0
   40.0580   28.6150   43.4370 H   0  0  0  0  0  0  0  0  0  0  0  0
   38.6840   26.7020   44.2420 H   0  0  0  0  0  0  0  0  0  0  0  0
   36.3530   26.4820   43.3400 H   0  0  0  0  0  0  0  0  0  0  0  0
  1  2  2  0  0  0  0
  1 16  1  0  0  0  0
  3  1  1  0  0  0  0
  4  3  1  0  0  0  0
  5  4  1  0  0  0  0
  6  7  1  0  0  0  0
  6  4  1  0  0  0  0
  8 10  1  0  0  0  0
  8  6  1  0  0  0  0
  9  8  1  0  0  0  0
 10 11  1  0  0  0  0
 11  3  1  0  0  0  0
 12 18  1  0  0  0  0
 12 13  1  0  0  0  0
 13 19  1  0  0  0  0
 14 20  1  0  0  0  0
 14 13  2  0  0  0  0
 15 14  1  0  0  0  0
 16 15  2  0  0  0  0
 16 17  1  0  0  0  0
 17 12  2  0  0  0  0
M  END
>  <minimizedAffinity>
-4.06805563

$$$$

 OpenBabel03242513123D

 20 21  0  0  0  0  0  0  0  0999 V2000
   38.8540   29.5860   40.3710 C   0  0  0  0  0  0  0  0  0  0  0  0
   40.0510   29.3840   40.0600 O   0  0  0  0  0  0  0  0  0  0  0  0
   38.2800   30.6130   39.5720 N   0  0  0  0  0  0  0  0  0  0  0  0
   38.5970   30.4790   38.1740 C   0  0  0  0  0  3  0  0  0  0  0  0
   39.6620   30.6620   37.9510 H   0  0  0  0  0  0  0  0  0  0  0  0
   37.6980   31.4280   37.4290 C   0  0  0  0  0  3  0  0  0  0  0  0
   36.7050   30.9470   37.2510 H   0  0  0  0  0  0  0  0  0  0  0  0
   37.6070   32.7350   38.0110 N   0  0  0  0  0  0  0  0  0  0  0  0
   37.0150   33.3040   37.3710 H   0  0  0  0  0  0  0  0  0  0  0  0
   37.1400   32.7810   39.3530 C   0  0  0  0  0  2  0  0  0  0  0  0
   37.4820   31.6270   40.2160 C   0  0  0  0  0  2  0  0  0  0  0  0
   36.9020   27.0000   41.9860 C   0  0  0  0  0  0  0  0  0  0  0  0
   36.8470   27.3610   43.3370 C   0  0  0  0  0  0  0  0  0  0  0  0
   37.5160   28.5420   43.6710 C   0  0  0  0  0  0  0  0  0  0  0  0
   38.1520   29.2380   42.6980 N   0  0  0  0  0  0  0  0  0  0  0  0
   38.1730   28.8450   41.4170 C   0  0  0  0  0  0  0  0  0  0  0  0
   37.5450   27.7190   41.0550 N   0  0  0  0  0  0  0  0  0  0  0  0
   36.4020   26.0840   41.6390 H   0  0  0  0  0  0  0  0  0  0  0  0
   36.3160   26.7440   44.0380 H   0  0  0  0  0  0  0  0  0  0  0  0
   37.4960   28.8540   44.7080 H   0  0  0  0  0  0  0  0  0  0  0  0
  1 16  1  0  0  0  0
  2  1  2  0  0  0  0
  3 11  1  0  0  0  0
  3  1  1  0  0  0  0
  4  3  1  0  0  0  0
  5  4  1  0  0  0  0
  6  8  1  0  0  0  0
  6  4  1  0  0  0  0
  7  6  1  0  0  0  0
  8 10  1  0  0  0  0
  9  8  1  0  0  0  0
 10 11  1  0  0  0  0
 12 13  1  0  0  0  0
 13 14  2  0  0  0  0
 13 19  1  0  0  0  0
 14 20  1  0  0  0  0
 15 14  1  0  0  0  0
 16 15  2  0  0  0  0
 17 16  1  0  0  0  0
 17 12  2  0  0  0  0
 18 12  1  0  0  0  0
M  END
>  <minimizedAffinity>
-4.06115532

$$$$
