
 OpenBabel03252501123D

 20 21  0  0  0  0  0  0  0  0999 V2000
   38.0090   26.9670   42.4560 C   0  0  0  0  0  0  0  0  0  0  0  0
   38.4710   27.1010   43.6140 O   0  0  0  0  0  0  0  0  0  0  0  0
   37.2800   28.0730   41.9290 N   0  0  0  0  0  0  0  0  0  0  0  0
   36.4430   27.9340   40.7700 C   0  0  0  0  0  3  0  0  0  0  0  0
   37.0270   27.9490   39.8340 H   0  0  0  0  0  0  0  0  0  0  0  0
   35.3060   28.9150   40.7660 C   0  0  0  0  0  3  0  0  0  0  0  0
   34.5760   28.6330   41.5530 H   0  0  0  0  0  0  0  0  0  0  0  0
   35.7170   30.2810   40.8900 N   0  0  0  0  0  0  0  0  0  0  0  0
   35.7130   30.7690   39.9800 H   0  0  0  0  0  0  0  0  0  0  0  0
   36.9980   30.4620   41.5140 C   0  0  0  0  0  2  0  0  0  0  0  0
   37.3330   29.3830   42.5140 C   0  0  0  0  0  2  0  0  0  0  0  0
   37.4350   23.5730   41.1370 C   0  0  0  0  0  0  0  0  0  0  0  0
   37.3040   24.7310   41.9150 C   0  0  0  0  0  0  0  0  0  0  0  0
   38.1640   25.7890   41.6410 C   0  0  0  0  0  0  0  0  0  0  0  0
   39.0790   25.6490   40.6400 N   0  0  0  0  0  0  0  0  0  0  0  0
   39.1670   24.5090   39.9140 C   0  0  0  0  0  0  0  0  0  0  0  0
   38.3390   23.4620   40.1620 N   0  0  0  0  0  0  0  0  0  0  0  0
   36.7870   22.7170   41.3110 H   0  0  0  0  0  0  0  0  0  0  0  0
   36.5450   24.7130   42.6710 H   0  0  0  0  0  0  0  0  0  0  0  0
   39.9600   24.6330   39.1820 H   0  0  0  0  0  0  0  0  0  0  0  0
  1  2  2  0  0  0  0
  3  1  1  0  0  0  0
  3 11  1  0  0  0  0
  4  3  1  0  0  0  0
  5  4  1  0  0  0  0
  6  4  1  0  0  0  0
  6  8  1  0  0  0  0
  6  7  1  0  0  0  0
  8 10  1  0  0  0  0
  9  8  1  0  0  0  0
 10 11  1  0  0  0  0
 12 18  1  0  0  0  0
 12 13  1  0  0  0  0
 13 19  1  0  0  0  0
 14 13  2  0  0  0  0
 14  1  1  0  0  0  0
 15 14  1  0  0  0  0
 16 17  1  0  0  0  0
 16 15  2  0  0  0  0
 17 12  2  0  0  0  0
 20 16  1  0  0  0  0
M  END
>  <minimizedAffinity>
-4.15603065

$$$$

 OpenBabel03252501123D

 20 21  0  0  0  0  0  0  0  0999 V2000
   38.9630   33.0300   40.5400 C   0  0  0  0  0  0  0  0  0  0  0  0
   38.7990   34.1540   41.0690 O   0  0  0  0  0  0  0  0  0  0  0  0
   39.8850   32.9640   39.4550 N   0  0  0  0  0  0  0  0  0  0  0  0
   39.9230   31.8310   38.5740 C   0  0  0  0  0  3  0  0  0  0  0  0
   40.4740   30.9830   39.0140 H   0  0  0  0  0  0  0  0  0  0  0  0
   40.4090   32.1940   37.1990 C   0  0  0  0  0  3  0  0  0  0  0  0
   39.6350   32.7990   36.6840 H   0  0  0  0  0  0  0  0  0  0  0  0
   41.6840   32.8450   37.1880 N   0  0  0  0  0  0  0  0  0  0  0  0
   42.4460   32.1960   36.9320 H   0  0  0  0  0  0  0  0  0  0  0  0
   42.0260   33.5070   38.4150 C   0  0  0  0  0  2  0  0  0  0  0  0
   40.8230   34.0130   39.1740 C   0  0  0  0  0  2  0  0  0  0  0  0
   36.2840   30.5310   40.9580 C   0  0  0  0  0  0  0  0  0  0  0  0
   36.9600   31.6950   40.5700 C   0  0  0  0  0  0  0  0  0  0  0  0
   38.2910   31.8230   40.9520 C   0  0  0  0  0  0  0  0  0  0  0  0
   38.8660   30.8190   41.6750 N   0  0  0  0  0  0  0  0  0  0  0  0
   38.1710   29.7120   42.0260 C   0  0  0  0  0  0  0  0  0  0  0  0
   36.8700   29.5640   41.6660 N   0  0  0  0  0  0  0  0  0  0  0  0
   35.2420   30.3830   40.6840 H   0  0  0  0  0  0  0  0  0  0  0  0
   36.3940   32.4080   40.0030 H   0  0  0  0  0  0  0  0  0  0  0  0
   38.8320   29.0610   42.5920 H   0  0  0  0  0  0  0  0  0  0  0  0
  1 14  1  0  0  0  0
  1  2  2  0  0  0  0
  3  1  1  0  0  0  0
  4  5  1  0  0  0  0
  4  3  1  0  0  0  0
  6  4  1  0  0  0  0
  7  6  1  0  0  0  0
  8  6  1  0  0  0  0
  8 10  1  0  0  0  0
  9  8  1  0  0  0  0
 10 11  1  0  0  0  0
 11  3  1  0  0  0  0
 12 17  1  0  0  0  0
 13 14  1  0  0  0  0
 13 12  2  0  0  0  0
 14 15  2  0  0  0  0
 15 16  1  0  0  0  0
 16 20  1  0  0  0  0
 17 16  2  0  0  0  0
 18 12  1  0  0  0  0
 19 13  1  0  0  0  0
M  END
>  <minimizedAffinity>
-4.08879328

$$$$

 OpenBabel03252501123D

 20 21  0  0  0  0  0  0  0  0999 V2000
   36.8540   30.1760   40.9040 C   0  0  0  0  0  0  0  0  0  0  0  0
   36.0320   31.0530   41.2600 O   0  0  0  0  0  0  0  0  0  0  0  0
   37.2600   30.2000   39.5370 N   0  0  0  0  0  0  0  0  0  0  0  0
   37.9330   29.0820   38.9370 C   0  0  0  0  0  3  0  0  0  0  0  0
   39.0050   29.0580   39.1930 H   0  0  0  0  0  0  0  0  0  0  0  0
   37.6820   28.9930   37.4580 C   0  0  0  0  0  3  0  0  0  0  0  0
   36.6290   28.6880   37.2830 H   0  0  0  0  0  0  0  0  0  0  0  0
   38.0150   30.1860   36.7410 N   0  0  0  0  0  0  0  0  0  0  0  0
   38.9270   30.1050   36.2620 H   0  0  0  0  0  0  0  0  0  0  0  0
   38.0080   31.3810   37.5360 C   0  0  0  0  0  2  0  0  0  0  0  0
   37.0270   31.3280   38.6820 C   0  0  0  0  0  2  0  0  0  0  0  0
   37.0840   27.0900   42.9080 C   0  0  0  0  0  0  0  0  0  0  0  0
   36.5740   28.0870   42.0660 C   0  0  0  0  0  0  0  0  0  0  0  0
   37.4030   29.1640   41.7710 C   0  0  0  0  0  0  0  0  0  0  0  0
   38.6560   29.1940   42.3080 N   0  0  0  0  0  0  0  0  0  0  0  0
   39.1050   28.2050   43.1170 C   0  0  0  0  0  0  0  0  0  0  0  0
   38.3150   27.1430   43.4200 N   0  0  0  0  0  0  0  0  0  0  0  0
   36.4760   26.2270   43.1690 H   0  0  0  0  0  0  0  0  0  0  0  0
   35.5730   27.9440   41.7100 H   0  0  0  0  0  0  0  0  0  0  0  0
   40.1200   28.4470   43.4180 H   0  0  0  0  0  0  0  0  0  0  0  0
  1  2  2  0  0  0  0
  1 14  1  0  0  0  0
  3  1  1  0  0  0  0
  4  5  1  0  0  0  0
  4  3  1  0  0  0  0
  6  4  1  0  0  0  0
  7  6  1  0  0  0  0
  8  6  1  0  0  0  0
  8 10  1  0  0  0  0
  9  8  1  0  0  0  0
 10 11  1  0  0  0  0
 11  3  1  0  0  0  0
 12 18  1  0  0  0  0
 12 17  1  0  0  0  0
 13 12  2  0  0  0  0
 14 13  1  0  0  0  0
 14 15  2  0  0  0  0
 15 16  1  0  0  0  0
 16 20  1  0  0  0  0
 16 17  2  0  0  0  0
 19 13  1  0  0  0  0
M  END
>  <minimizedAffinity>
-4.05356359

$$$$

 OpenBabel03252501123D

 20 21  0  0  0  0  0  0  0  0999 V2000
   37.2350   30.5800   40.9920 C   0  0  0  0  0  0  0  0  0  0  0  0
   36.0210   30.8690   41.1060 O   0  0  0  0  0  0  0  0  0  0  0  0
   38.0690   31.5590   40.3760 N   0  0  0  0  0  0  0  0  0  0  0  0
   39.3850   31.2310   39.9050 C   0  0  0  0  0  3  0  0  0  0  0  0
   40.1230   31.2060   40.7240 H   0  0  0  0  0  0  0  0  0  0  0  0
   39.8140   32.1010   38.7570 C   0  0  0  0  0  3  0  0  0  0  0  0
   39.2250   31.8340   37.8550 H   0  0  0  0  0  0  0  0  0  0  0  0
   39.7470   33.5040   39.0370 N   0  0  0  0  0  0  0  0  0  0  0  0
   40.6760   33.8970   39.2570 H   0  0  0  0  0  0  0  0  0  0  0  0
   38.8270   33.8600   40.0800 C   0  0  0  0  0  2  0  0  0  0  0  0
   37.6520   32.9190   40.1860 C   0  0  0  0  0  2  0  0  0  0  0  0
   38.9010   28.1430   43.2000 C   0  0  0  0  0  0  0  0  0  0  0  0
   38.3160   29.3300   42.7420 C   0  0  0  0  0  0  0  0  0  0  0  0
   37.8320   29.3460   41.4390 C   0  0  0  0  0  0  0  0  0  0  0  0
   37.9460   28.2180   40.6820 N   0  0  0  0  0  0  0  0  0  0  0  0
   38.5190   27.0920   41.1700 C   0  0  0  0  0  0  0  0  0  0  0  0
   39.0010   27.0520   42.4390 N   0  0  0  0  0  0  0  0  0  0  0  0
   39.2960   28.0790   44.2120 H   0  0  0  0  0  0  0  0  0  0  0  0
   38.2880   30.1460   43.4370 H   0  0  0  0  0  0  0  0  0  0  0  0
   38.4960   26.3350   40.3920 H   0  0  0  0  0  0  0  0  0  0  0  0
  1  2  2  0  0  0  0
  1 14  1  0  0  0  0
  3  1  1  0  0  0  0
  4  3  1  0  0  0  0
  4  5  1  0  0  0  0
  6  8  1  0  0  0  0
  6  4  1  0  0  0  0
  7  6  1  0  0  0  0
  8  9  1  0  0  0  0
  8 10  1  0  0  0  0
 10 11  1  0  0  0  0
 11  3  1  0  0  0  0
 12 18  1  0  0  0  0
 13 12  1  0  0  0  0
 13 19  1  0  0  0  0
 14 13  2  0  0  0  0
 15 16  2  0  0  0  0
 15 14  1  0  0  0  0
 16 17  1  0  0  0  0
 17 12  2  0  0  0  0
 20 16  1  0  0  0  0
M  END
>  <minimizedAffinity>
-4.03858948

$$$$

 OpenBabel03252501123D

 20 21  0  0  0  0  0  0  0  0999 V2000
   39.2020   30.4550   42.2200 C   0  0  0  0  0  0  0  0  0  0  0  0
   39.9880   31.0000   43.0300 O   0  0  0  0  0  0  0  0  0  0  0  0
   38.8160   31.2290   41.0870 N   0  0  0  0  0  0  0  0  0  0  0  0
   37.6960   30.8530   40.2710 C   0  0  0  0  0  3  0  0  0  0  0  0
   37.9530   30.0490   39.5600 H   0  0  0  0  0  0  0  0  0  0  0  0
   37.0500   32.0370   39.6080 C   0  0  0  0  0  3  0  0  0  0  0  0
   36.5220   32.6420   40.3740 H   0  0  0  0  0  0  0  0  0  0  0  0
   37.9540   32.8320   38.8340 N   0  0  0  0  0  0  0  0  0  0  0  0
   37.8720   32.6340   37.8230 H   0  0  0  0  0  0  0  0  0  0  0  0
   39.3310   32.7200   39.2240 C   0  0  0  0  0  2  0  0  0  0  0  0
   39.5120   32.4200   40.6920 C   0  0  0  0  0  2  0  0  0  0  0  0
   37.1760   27.6520   43.4980 C   0  0  0  0  0  0  0  0  0  0  0  0
   37.7050   28.9400   43.3420 C   0  0  0  0  0  0  0  0  0  0  0  0
   38.6740   29.1200   42.3600 C   0  0  0  0  0  0  0  0  0  0  0  0
   39.0530   28.0500   41.6070 N   0  0  0  0  0  0  0  0  0  0  0  0
   38.5110   26.8230   41.7950 C   0  0  0  0  0  0  0  0  0  0  0  0
   37.5650   26.6200   42.7470 N   0  0  0  0  0  0  0  0  0  0  0  0
   36.4160   27.4580   44.2520 H   0  0  0  0  0  0  0  0  0  0  0  0
   37.3220   29.6950   43.9980 H   0  0  0  0  0  0  0  0  0  0  0  0
   38.9660   26.1380   41.0850 H   0  0  0  0  0  0  0  0  0  0  0  0
  1 14  1  0  0  0  0
  1  2  2  0  0  0  0
  3  1  1  0  0  0  0
  4  3  1  0  0  0  0
  5  4  1  0  0  0  0
  6  4  1  0  0  0  0
  6  7  1  0  0  0  0
  8 10  1  0  0  0  0
  8  6  1  0  0  0  0
  9  8  1  0  0  0  0
 10 11  1  0  0  0  0
 11  3  1  0  0  0  0
 12 18  1  0  0  0  0
 13 12  1  0  0  0  0
 13 19  1  0  0  0  0
 14 13  2  0  0  0  0
 15 16  2  0  0  0  0
 15 14  1  0  0  0  0
 16 17  1  0  0  0  0
 17 12  2  0  0  0  0
 20 16  1  0  0  0  0
M  END
>  <minimizedAffinity>
-4.0184865

$$$$

 OpenBabel03252501123D

 20 21  0  0  0  0  0  0  0  0999 V2000
   39.0810   31.0630   40.9370 C   0  0  0  0  0  0  0  0  0  0  0  0
   39.5560   31.8660   41.7730 O   0  0  0  0  0  0  0  0  0  0  0  0
   39.2050   31.4240   39.5630 N   0  0  0  0  0  0  0  0  0  0  0  0
   38.4370   30.7650   38.5440 C   0  0  0  0  0  3  0  0  0  0  0  0
   38.8710   29.7900   38.2640 H   0  0  0  0  0  0  0  0  0  0  0  0
   38.1820   31.6540   37.3590 C   0  0  0  0  0  3  0  0  0  0  0  0
   37.4610   32.4480   37.6450 H   0  0  0  0  0  0  0  0  0  0  0  0
   39.3700   32.2010   36.7770 N   0  0  0  0  0  0  0  0  0  0  0  0
   39.6500   31.6910   35.9240 H   0  0  0  0  0  0  0  0  0  0  0  0
   40.4920   32.2720   37.6700 C   0  0  0  0  0  2  0  0  0  0  0  0
   40.0940   32.4580   39.1140 C   0  0  0  0  0  2  0  0  0  0  0  0
   38.6410   27.4790   41.6840 C   0  0  0  0  0  0  0  0  0  0  0  0
   39.2490   28.7000   41.3630 C   0  0  0  0  0  0  0  0  0  0  0  0
   38.4300   29.8200   41.2690 C   0  0  0  0  0  0  0  0  0  0  0  0
   37.0930   29.6760   41.4930 N   0  0  0  0  0  0  0  0  0  0  0  0
   36.5510   28.4740   41.8020 C   0  0  0  0  0  0  0  0  0  0  0  0
   37.3290   27.3660   41.8990 N   0  0  0  0  0  0  0  0  0  0  0  0
   39.2380   26.5740   41.7700 H   0  0  0  0  0  0  0  0  0  0  0  0
   40.3100   28.6780   41.2110 H   0  0  0  0  0  0  0  0  0  0  0  0
   35.4810   28.6080   41.9340 H   0  0  0  0  0  0  0  0  0  0  0  0
  1 14  1  0  0  0  0
  1  2  2  0  0  0  0
  3  1  1  0  0  0  0
  4  3  1  0  0  0  0
  5  4  1  0  0  0  0
  6  7  1  0  0  0  0
  6  4  1  0  0  0  0
  8  6  1  0  0  0  0
  8 10  1  0  0  0  0
  9  8  1  0  0  0  0
 10 11  1  0  0  0  0
 11  3  1  0  0  0  0
 12 18  1  0  0  0  0
 12 17  1  0  0  0  0
 13 12  2  0  0  0  0
 14 13  1  0  0  0  0
 14 15  2  0  0  0  0
 15 16  1  0  0  0  0
 16 17  2  0  0  0  0
 16 20  1  0  0  0  0
 19 13  1  0  0  0  0
M  END
>  <minimizedAffinity>
-4.00738907

$$$$

 OpenBabel03252501123D

 20 21  0  0  0  0  0  0  0  0999 V2000
   36.7470   27.4060   42.4510 C   0  0  0  0  0  0  0  0  0  0  0  0
   36.2520   27.2300   43.5900 O   0  0  0  0  0  0  0  0  0  0  0  0
   37.3140   26.2610   41.8190 N   0  0  0  0  0  0  0  0  0  0  0  0
   38.1800   26.3870   40.6800 C   0  0  0  0  0  3  0  0  0  0  0  0
   37.6150   26.5480   39.7470 H   0  0  0  0  0  0  0  0  0  0  0  0
   39.1620   25.2540   40.5820 C   0  0  0  0  0  3  0  0  0  0  0  0
   39.9130   25.3480   41.3930 H   0  0  0  0  0  0  0  0  0  0  0  0
   38.5530   23.9580   40.5710 N   0  0  0  0  0  0  0  0  0  0  0  0
   38.5000   23.5650   39.6180 H   0  0  0  0  0  0  0  0  0  0  0  0
   37.2500   23.9080   41.1730 C   0  0  0  0  0  2  0  0  0  0  0  0
   37.0610   24.9230   42.2730 C   0  0  0  0  0  2  0  0  0  0  0  0
   35.7260   30.1400   40.1980 C   0  0  0  0  0  0  0  0  0  0  0  0
   35.7200   28.9200   40.8890 C   0  0  0  0  0  0  0  0  0  0  0  0
   36.7780   28.6680   41.7550 C   0  0  0  0  0  0  0  0  0  0  0  0
   37.7560   29.6080   41.8890 N   0  0  0  0  0  0  0  0  0  0  0  0
   37.7180   30.7740   41.2000 C   0  0  0  0  0  0  0  0  0  0  0  0
   36.6960   31.0440   40.3480 N   0  0  0  0  0  0  0  0  0  0  0  0
   34.9220   30.3850   39.5090 H   0  0  0  0  0  0  0  0  0  0  0  0
   34.8930   28.2670   40.6940 H   0  0  0  0  0  0  0  0  0  0  0  0
   38.5940   31.3560   41.4700 H   0  0  0  0  0  0  0  0  0  0  0  0
  1  2  2  0  0  0  0
  3 11  1  0  0  0  0
  3  1  1  0  0  0  0
  4  3  1  0  0  0  0
  5  4  1  0  0  0  0
  6  4  1  0  0  0  0
  6  7  1  0  0  0  0
  8  6  1  0  0  0  0
  8 10  1  0  0  0  0
  9  8  1  0  0  0  0
 10 11  1  0  0  0  0
 12 17  2  0  0  0  0
 12 13  1  0  0  0  0
 13 14  2  0  0  0  0
 14 15  1  0  0  0  0
 14  1  1  0  0  0  0
 16 20  1  0  0  0  0
 16 15  2  0  0  0  0
 17 16  1  0  0  0  0
 18 12  1  0  0  0  0
 19 13  1  0  0  0  0
M  END
>  <minimizedAffinity>
-3.99495888

$$$$

 OpenBabel03252501123D

 20 21  0  0  0  0  0  0  0  0999 V2000
   37.5760   27.8080   42.0940 C   0  0  0  0  0  0  0  0  0  0  0  0
   36.3380   27.9580   42.2220 O   0  0  0  0  0  0  0  0  0  0  0  0
   38.0790   26.4840   42.2560 N   0  0  0  0  0  0  0  0  0  0  0  0
   39.4800   26.2350   42.4500 C   0  0  0  0  0  3  0  0  0  0  0  0
   40.0420   26.2680   41.5010 H   0  0  0  0  0  0  0  0  0  0  0  0
   39.7330   24.9790   43.2360 C   0  0  0  0  0  3  0  0  0  0  0  0
   39.4280   25.1400   44.2910 H   0  0  0  0  0  0  0  0  0  0  0  0
   39.1170   23.8130   42.6790 N   0  0  0  0  0  0  0  0  0  0  0  0
   39.7930   23.2330   42.1560 H   0  0  0  0  0  0  0  0  0  0  0  0
   37.9820   24.0810   41.8410 C   0  0  0  0  0  2  0  0  0  0  0  0
   37.2300   25.3280   42.2370 C   0  0  0  0  0  2  0  0  0  0  0  0
   39.7250   30.7630   42.5930 C   0  0  0  0  0  0  0  0  0  0  0  0
   38.8240   29.7220   42.8530 C   0  0  0  0  0  0  0  0  0  0  0  0
   38.5060   28.8710   41.8000 C   0  0  0  0  0  0  0  0  0  0  0  0
   39.0800   29.0880   40.5830 N   0  0  0  0  0  0  0  0  0  0  0  0
   39.9470   30.1090   40.3810 C   0  0  0  0  0  0  0  0  0  0  0  0
   40.2730   30.9540   41.3920 N   0  0  0  0  0  0  0  0  0  0  0  0
   40.0070   31.4560   43.3820 H   0  0  0  0  0  0  0  0  0  0  0  0
   38.4440   29.6600   43.8530 H   0  0  0  0  0  0  0  0  0  0  0  0
   40.2690   30.0800   39.3430 H   0  0  0  0  0  0  0  0  0  0  0  0
  1  2  2  0  0  0  0
  1  3  1  0  0  0  0
  3  4  1  0  0  0  0
  4  6  1  0  0  0  0
  5  4  1  0  0  0  0
  6  7  1  0  0  0  0
  8  6  1  0  0  0  0
  9  8  1  0  0  0  0
 10 11  1  0  0  0  0
 10  8  1  0  0  0  0
 11  3  1  0  0  0  0
 12 13  1  0  0  0  0
 12 18  1  0  0  0  0
 13 19  1  0  0  0  0
 14  1  1  0  0  0  0
 14 13  2  0  0  0  0
 15 14  1  0  0  0  0
 16 15  2  0  0  0  0
 16 17  1  0  0  0  0
 17 12  2  0  0  0  0
 20 16  1  0  0  0  0
M  END
>  <minimizedAffinity>
-3.9473455

$$$$

 OpenBabel03252501123D

 20 21  0  0  0  0  0  0  0  0999 V2000
   38.8970   28.5930   42.0530 C   0  0  0  0  0  0  0  0  0  0  0  0
   39.8580   28.7890   42.8340 O   0  0  0  0  0  0  0  0  0  0  0  0
   38.2430   29.7530   41.5440 N   0  0  0  0  0  0  0  0  0  0  0  0
   36.9560   29.6680   40.9100 C   0  0  0  0  0  3  0  0  0  0  0  0
   37.0320   29.3250   39.8650 H   0  0  0  0  0  0  0  0  0  0  0  0
   36.1650   30.9370   41.0540 C   0  0  0  0  0  3  0  0  0  0  0  0
   35.8410   31.0490   42.1100 H   0  0  0  0  0  0  0  0  0  0  0  0
   36.8490   32.1030   40.5830 N   0  0  0  0  0  0  0  0  0  0  0  0
   36.5210   32.3890   39.6460 H   0  0  0  0  0  0  0  0  0  0  0  0
   38.2800   31.9880   40.5640 C   0  0  0  0  0  2  0  0  0  0  0  0
   38.8180   31.0650   41.6300 C   0  0  0  0  0  2  0  0  0  0  0  0
   37.1220   25.3640   42.1730 C   0  0  0  0  0  0  0  0  0  0  0  0
   37.5970   26.6290   42.5450 C   0  0  0  0  0  0  0  0  0  0  0  0
   38.4220   27.2950   41.6450 C   0  0  0  0  0  0  0  0  0  0  0  0
   38.7220   26.6930   40.4590 N   0  0  0  0  0  0  0  0  0  0  0  0
   38.2370   25.4680   40.1440 C   0  0  0  0  0  0  0  0  0  0  0  0
   37.4310   24.7970   41.0060 N   0  0  0  0  0  0  0  0  0  0  0  0
   36.4740   24.8020   42.8420 H   0  0  0  0  0  0  0  0  0  0  0  0
   37.2880   26.9900   43.5060 H   0  0  0  0  0  0  0  0  0  0  0  0
   38.6080   25.1990   39.1590 H   0  0  0  0  0  0  0  0  0  0  0  0
  1  2  2  0  0  0  0
  3 11  1  0  0  0  0
  3  1  1  0  0  0  0
  4  6  1  0  0  0  0
  4  3  1  0  0  0  0
  5  4  1  0  0  0  0
  6  7  1  0  0  0  0
  8  6  1  0  0  0  0
  9  8  1  0  0  0  0
 10  8  1  0  0  0  0
 10 11  1  0  0  0  0
 12 13  1  0  0  0  0
 12 18  1  0  0  0  0
 13 19  1  0  0  0  0
 14  1  1  0  0  0  0
 14 13  2  0  0  0  0
 15 14  1  0  0  0  0
 16 15  2  0  0  0  0
 16 17  1  0  0  0  0
 17 12  2  0  0  0  0
 20 16  1  0  0  0  0
M  END
>  <minimizedAffinity>
-3.938416

$$$$
