REMARK  Name = 
REMARK  3 active torsions:
REMARK  status: ('A' for Active; 'I' for Inactive)
REMARK    1  A    between atoms: C_1  and  O_12
REMARK    2  A    between atoms: C_2  and  C_7
REMARK    3  A    between atoms: O_12  and  C_13
REMARK                            x       y       z     vdW  Elec       q    Type
REMARK                         _______ _______ _______ _____ _____    ______ ____
ROOT
ATOM      1  C   UNL     1      46.080  34.151  41.007  0.00  0.00    +0.000 A 
ATOM      2  C   UNL     1      46.615  34.836  42.103  0.00  0.00    +0.000 A 
ATOM      3  C   UNL     1      47.939  35.291  41.994  0.00  0.00    +0.000 A 
ATOM      4  N   UNL     1      48.600  35.028  40.824  0.00  0.00    +0.000 NA
ATOM      5  C   UNL     1      48.048  34.371  39.810  0.00  0.00    +0.000 A 
ATOM      6  N   UNL     1      46.781  33.921  39.881  0.00  0.00    +0.000 NA
ATOM      7  H   UNL     1      48.376  35.825  42.830  0.00  0.00    +0.000 HD
ATOM      8  H   UNL     1      48.652  34.219  38.941  0.00  0.00    +0.000 HD
ENDROOT
BRANCH   2   9
ATOM      9  C   UNL     1      45.807  35.050  43.290  0.00  0.00    +0.000 A 
ATOM     10  C   UNL     1      45.048  36.185  43.488  0.00  0.00    +0.000 A 
ATOM     11  C   UNL     1      44.464  35.959  44.723  0.00  0.00    +0.000 A 
ATOM     12  N   UNL     1      44.847  34.759  45.241  0.00  0.00    +0.000 N 
ATOM     13  N   UNL     1      45.653  34.242  44.355  0.00  0.00    +0.000 NA
ATOM     14  H   UNL     1      44.905  37.064  42.869  0.00  0.00    +0.000 HD
ATOM     15  H   UNL     1      43.780  36.661  45.215  0.00  0.00    +0.000 HD
ATOM     16  H   UNL     1      44.503  34.424  46.169  0.00  0.00    +0.000 HD
ENDBRANCH   2   9
BRANCH   1  17
ATOM     17  O   UNL     1      44.775  33.699  41.104  0.00  0.00    +0.000 OA
BRANCH  17  18
ATOM     18  C   UNL     1      43.700  34.203  40.421  0.00  0.00    +0.000 C 
ATOM     19  O   UNL     1      43.251  35.394  40.423  0.00  0.00    +0.000 OA
ATOM     20  N   UNL     1      42.755  33.583  39.513  0.00  0.00    +0.000 N 
ATOM     21  C   UNL     1      41.946  34.484  38.720  0.00  0.00    +0.000 C 
ATOM     22  H   UNL     1      42.423  34.461  37.696  0.00  0.00    +0.000 HD
ATOM     23  C   UNL     1      40.584  33.838  38.593  0.00  0.00    +0.000 C 
ATOM     24  H   UNL     1      39.831  34.655  38.661  0.00  0.00    +0.000 HD
ATOM     25  N   UNL     1      40.283  32.941  39.684  0.00  0.00    +0.000 NA
ATOM     26  H   UNL     1      39.319  32.590  39.530  0.00  0.00    +0.000 HD
ATOM     27  C   UNL     1      41.168  31.796  39.719  0.00  0.00    +0.000 C 
ATOM     28  C   UNL     1      42.581  32.152  39.357  0.00  0.00    +0.000 C 
ENDBRANCH  17  18
ENDBRANCH   1  17
TORSDOF 3
