
 OpenBabel03252502283D

 35 37  0  0  0  0  0  0  0  0999 V2000
   45.2110   34.3260   40.9390 C   0  0  0  0  0  0  0  0  0  0  0  0
   45.4830   34.9430   42.1510 C   0  0  0  0  0  0  0  0  0  0  0  0
   46.8100   35.1870   42.4960 C   0  0  0  0  0  0  0  0  0  0  0  0
   47.8110   34.8170   41.6360 C   0  0  0  0  0  0  0  0  0  0  0  0
   47.5630   34.2050   40.4280 C   0  0  0  0  0  0  0  0  0  0  0  0
   46.2240   33.9720   40.1090 C   0  0  0  0  0  0  0  0  0  0  0  0
   44.6950   35.2350   42.8300 H   0  0  0  0  0  0  0  0  0  0  0  0
   46.9770   35.6690   43.4500 H   0  0  0  0  0  0  0  0  0  0  0  0
   48.8420   35.0010   41.8920 H   0  0  0  0  0  0  0  0  0  0  0  0
   48.3380   33.9000   39.7270 H   0  0  0  0  0  0  0  0  0  0  0  0
   46.0500   32.0850   38.3060 C   0  0  0  0  0  0  0  0  0  0  0  0
   46.7620   31.1950   38.7560 O   0  0  0  0  0  0  0  0  0  0  0  0
   45.8340   33.3530   38.8990 N   0  0  0  0  0  0  0  0  0  0  0  0
   45.2500   34.0700   38.3810 H   0  0  0  0  0  0  0  0  0  0  0  0
   45.3880   31.7980   37.0770 N   0  0  0  0  0  0  0  0  0  0  0  0
   45.4290   32.8520   36.0820 C   0  0  0  0  0  3  0  0  0  0  0  0
   44.7340   33.6790   36.3290 H   0  0  0  0  0  0  0  0  0  0  0  0
   45.2590   32.2960   34.6910 C   0  0  0  0  0  3  0  0  0  0  0  0
   46.2410   31.8070   34.4230 H   0  0  0  0  0  0  0  0  0  0  0  0
   44.1570   31.4090   34.5210 N   0  0  0  0  0  0  0  0  0  0  0  0
   43.4250   31.8310   33.9050 H   0  0  0  0  0  0  0  0  0  0  0  0
   43.5370   31.0990   35.7880 C   0  0  0  0  0  2  0  0  0  0  0  0
   44.6780   30.5970   36.6840 C   0  0  0  0  0  2  0  0  0  0  0  0
   41.5580   34.7310   40.0890 C   0  0  0  0  0  0  0  0  0  0  0  0
   42.8890   35.0760   40.3590 C   0  0  0  0  0  0  0  0  0  0  0  0
   43.8030   34.1020   40.6420 C   0  0  0  0  0  0  0  0  0  0  0  0
   43.3440   32.8140   40.6460 N   0  0  0  0  0  0  0  0  0  0  0  0
   42.0660   32.4750   40.3880 C   0  0  0  0  0  0  0  0  0  0  0  0
   41.1650   33.4450   40.1070 N   0  0  0  0  0  0  0  0  0  0  0  0
   43.2280   36.1060   40.3500 H   0  0  0  0  0  0  0  0  0  0  0  0
   41.7690   31.4310   40.4060 H   0  0  0  0  0  0  0  0  0  0  0  0
   40.5630   35.7770   39.7820 C   0  0  0  0  0  0  0  0  0  0  0  0
   39.3420   35.1330   39.5280 F   0  0  0  0  0  0  0  0  0  0  0  0
   40.9410   36.3450   38.5730 F   0  0  0  0  0  0  0  0  0  0  0  0
   40.4120   36.7010   40.7790 F   0  0  0  0  0  0  0  0  0  0  0  0
  1  2  1  0  0  0  0
  2  3  2  0  0  0  0
  2  7  1  0  0  0  0
  3  8  1  0  0  0  0
  4  9  1  0  0  0  0
  4  3  1  0  0  0  0
  5  4  2  0  0  0  0
  6  5  1  0  0  0  0
  6  1  2  0  0  0  0
 10  5  1  0  0  0  0
 11 12  2  0  0  0  0
 11 13  1  0  0  0  0
 13  6  1  0  0  0  0
 14 13  1  0  0  0  0
 15 11  1  0  0  0  0
 16 17  1  0  0  0  0
 16 15  1  0  0  0  0
 18 16  1  0  0  0  0
 19 18  1  0  0  0  0
 20 18  1  0  0  0  0
 20 22  1  0  0  0  0
 21 20  1  0  0  0  0
 22 23  1  0  0  0  0
 23 15  1  0  0  0  0
 24 29  2  0  0  0  0
 24 25  1  0  0  0  0
 25 26  2  0  0  0  0
 26 27  1  0  0  0  0
 26  1  1  0  0  0  0
 28 31  1  0  0  0  0
 28 27  2  0  0  0  0
 29 28  1  0  0  0  0
 30 25  1  0  0  0  0
 32 24  1  0  0  0  0
 32 35  1  0  0  0  0
 33 32  1  0  0  0  0
 34 32  1  0  0  0  0
M  END
>  <minimizedAffinity>
-6.47150946

>  <minimizedRMSD>
0.603567243

$$$$
