
 OpenBabel03242513123D

 20 21  0  0  0  0  0  0  0  0999 V2000
   45.3470   33.5350   46.8050 C   0  0  0  0  0  0  0  0  0  0  0  0
   44.4100   34.1040   47.4140 O   0  0  0  0  0  0  0  0  0  0  0  0
   45.9290   32.5070   47.5980 N   0  0  0  0  0  0  0  0  0  0  0  0
   44.9490   31.6760   48.2460 C   0  0  0  0  0  0  0  0  0  0  0  0
   44.3860   32.2050   49.0350 H   0  0  0  0  0  0  0  0  0  0  0  0
   45.6810   30.4780   48.7870 C   0  0  0  0  0  0  0  0  0  0  0  0
   45.7990   29.7120   47.9830 H   0  0  0  0  0  0  0  0  0  0  0  0
   46.9040   30.7910   49.4670 N   0  0  0  0  0  0  0  0  0  0  0  0
   47.2710   29.8930   49.8440 H   0  0  0  0  0  0  0  0  0  0  0  0
   47.8770   31.4850   48.6970 C   0  0  0  0  0  0  0  0  0  0  0  0
   47.3660   32.4140   47.6620 C   0  0  0  0  0  0  0  0  0  0  0  0
   45.3900   35.2450   43.6140 C   0  0  0  0  0  0  0  0  0  0  0  0
   46.4550   34.6830   42.9020 C   0  0  0  0  0  0  0  0  0  0  0  0
   47.1640   33.6810   43.5730 C   0  0  0  0  0  0  0  0  0  0  0  0
   46.7860   33.3310   44.8260 N   0  0  0  0  0  0  0  0  0  0  0  0
   45.7550   33.9050   45.4620 C   0  0  0  0  0  0  0  0  0  0  0  0
   45.0500   34.8690   44.8550 N   0  0  0  0  0  0  0  0  0  0  0  0
   44.7810   36.0400   43.1600 H   0  0  0  0  0  0  0  0  0  0  0  0
   46.6800   35.0260   41.9090 H   0  0  0  0  0  0  0  0  0  0  0  0
   47.9960   33.2220   43.0540 H   0  0  0  0  0  0  0  0  0  0  0  0
  1  2  2  0  0  0  0
  1  3  1  0  0  0  0
  3 11  1  0  0  0  0
  3  4  1  0  0  0  0
  4  6  1  0  0  0  0
  4  5  1  0  0  0  0
  6  8  1  0  0  0  0
  7  6  1  0  0  0  0
  8  9  1  0  0  0  0
 10  8  1  0  0  0  0
 11 10  1  0  0  0  0
 12 17  1  0  0  0  0
 13 14  1  0  0  0  0
 13 12  2  0  0  0  0
 14 15  2  0  0  0  0
 15 16  1  0  0  0  0
 16  1  1  0  0  0  0
 17 16  2  0  0  0  0
 18 12  1  0  0  0  0
 19 13  1  0  0  0  0
 20 14  1  0  0  0  0
M  END
>  <minimizedAffinity>
-4.77620316

>  <minimizedRMSD>
1.87070453

$$$$
