
 OpenBabel03252502283D

 35 37  0  0  0  0  0  0  0  0999 V2000
   45.1220   34.4800   41.2900 C   0  0  0  0  0  0  0  0  0  0  0  0
   45.4480   35.1250   42.4730 C   0  0  0  0  0  0  0  0  0  0  0  0
   46.7880   35.3920   42.7450 C   0  0  0  0  0  0  0  0  0  0  0  0
   47.7470   35.0150   41.8430 C   0  0  0  0  0  0  0  0  0  0  0  0
   47.4470   34.3760   40.6620 C   0  0  0  0  0  0  0  0  0  0  0  0
   46.0960   34.1200   40.4160 C   0  0  0  0  0  0  0  0  0  0  0  0
   44.6920   35.4220   43.1860 H   0  0  0  0  0  0  0  0  0  0  0  0
   46.9960   35.8950   43.6800 H   0  0  0  0  0  0  0  0  0  0  0  0
   48.7880   35.2170   42.0420 H   0  0  0  0  0  0  0  0  0  0  0  0
   48.1890   34.0650   39.9280 H   0  0  0  0  0  0  0  0  0  0  0  0
   45.7630   32.1610   38.7160 C   0  0  0  0  0  0  0  0  0  0  0  0
   46.4030   31.2410   39.2130 O   0  0  0  0  0  0  0  0  0  0  0  0
   45.6520   33.4720   39.2400 N   0  0  0  0  0  0  0  0  0  0  0  0
   45.1260   34.2050   38.6850 H   0  0  0  0  0  0  0  0  0  0  0  0
   45.0760   31.8640   37.5030 N   0  0  0  0  0  0  0  0  0  0  0  0
   44.0880   30.8060   37.5850 C   0  0  0  0  0  3  0  0  0  0  0  0
   44.5590   29.8040   37.6290 H   0  0  0  0  0  0  0  0  0  0  0  0
   43.0430   30.9500   36.5080 C   0  0  0  0  0  3  0  0  0  0  0  0
   42.3710   31.7990   36.8290 H   0  0  0  0  0  0  0  0  0  0  0  0
   43.5510   31.1410   35.1890 N   0  0  0  0  0  0  0  0  0  0  0  0
   43.3460   30.3150   34.5840 H   0  0  0  0  0  0  0  0  0  0  0  0
   44.9820   31.3300   35.2050 C   0  0  0  0  0  2  0  0  0  0  0  0
   45.2290   32.4750   36.1960 C   0  0  0  0  0  2  0  0  0  0  0  0
   41.4480   34.8060   40.5020 C   0  0  0  0  0  0  0  0  0  0  0  0
   42.7880   35.1690   40.6800 C   0  0  0  0  0  0  0  0  0  0  0  0
   43.7030   34.2330   41.0700 C   0  0  0  0  0  0  0  0  0  0  0  0
   43.2350   32.9640   41.2680 N   0  0  0  0  0  0  0  0  0  0  0  0
   41.9480   32.6070   41.0990 C   0  0  0  0  0  0  0  0  0  0  0  0
   41.0450   33.5390   40.7120 N   0  0  0  0  0  0  0  0  0  0  0  0
   43.1350   36.1830   40.5170 H   0  0  0  0  0  0  0  0  0  0  0  0
   41.6430   31.5800   41.2730 H   0  0  0  0  0  0  0  0  0  0  0  0
   40.4510   35.8100   40.0810 C   0  0  0  0  0  0  0  0  0  0  0  0
   39.2480   35.1300   39.8350 F   0  0  0  0  0  0  0  0  0  0  0  0
   40.8650   36.2890   38.8460 F   0  0  0  0  0  0  0  0  0  0  0  0
   40.2530   36.8050   40.9980 F   0  0  0  0  0  0  0  0  0  0  0  0
  1  2  1  0  0  0  0
  2  3  2  0  0  0  0
  2  7  1  0  0  0  0
  3  8  1  0  0  0  0
  4  9  1  0  0  0  0
  4  3  1  0  0  0  0
  5  4  2  0  0  0  0
  6  5  1  0  0  0  0
  6  1  2  0  0  0  0
 10  5  1  0  0  0  0
 11 12  2  0  0  0  0
 11 13  1  0  0  0  0
 13  6  1  0  0  0  0
 14 13  1  0  0  0  0
 15 16  1  0  0  0  0
 15 11  1  0  0  0  0
 16 17  1  0  0  0  0
 18 19  1  0  0  0  0
 18 16  1  0  0  0  0
 20 22  1  0  0  0  0
 20 18  1  0  0  0  0
 21 20  1  0  0  0  0
 22 23  1  0  0  0  0
 23 15  1  0  0  0  0
 24 25  2  0  0  0  0
 24 29  1  0  0  0  0
 25 26  1  0  0  0  0
 26 27  2  0  0  0  0
 26  1  1  0  0  0  0
 28 27  1  0  0  0  0
 28 31  1  0  0  0  0
 29 28  2  0  0  0  0
 30 25  1  0  0  0  0
 32 24  1  0  0  0  0
 32 35  1  0  0  0  0
 33 32  1  0  0  0  0
 34 32  1  0  0  0  0
M  END
>  <minimizedAffinity>
-6.36916494

>  <minimizedRMSD>
0.30695042

$$$$
