
 OpenBabel03252508513D

 28 30  0  0  0  0  0  0  0  0999 V2000
   45.9110   34.1820   41.0180 C   0  0  0  0  0  0  0  0  0  0  0  0
   46.5150   34.8020   42.1170 C   0  0  0  0  0  0  0  0  0  0  0  0
   47.8680   35.1560   41.9940 C   0  0  0  0  0  0  0  0  0  0  0  0
   48.4880   34.8670   40.8080 N   0  0  0  0  0  0  0  0  0  0  0  0
   47.8710   34.2740   39.7910 C   0  0  0  0  0  0  0  0  0  0  0  0
   46.5750   33.9210   39.8760 N   0  0  0  0  0  0  0  0  0  0  0  0
   48.3580   35.6380   42.8320 H   0  0  0  0  0  0  0  0  0  0  0  0
   48.4480   34.0940   38.9090 H   0  0  0  0  0  0  0  0  0  0  0  0
   45.7440   35.0530   43.3210 C   0  0  0  0  0  0  0  0  0  0  0  0
   45.0760   36.2380   43.5520 C   0  0  0  0  0  0  0  0  0  0  0  0
   44.4960   36.0330   44.7930 C   0  0  0  0  0  0  0  0  0  0  0  0
   44.7970   34.7990   45.2840 N   0  0  0  0  0  0  0  0  0  0  0  0
   45.5480   34.2400   44.3750 N   0  0  0  0  0  0  0  0  0  0  0  0
   44.9890   37.1370   42.9510 H   0  0  0  0  0  0  0  0  0  0  0  0
   43.8750   36.7750   45.3090 H   0  0  0  0  0  0  0  0  0  0  0  0
   44.4440   34.4730   46.2120 H   0  0  0  0  0  0  0  0  0  0  0  0
   44.5770   33.8290   41.1290 O   0  0  0  0  0  0  0  0  0  0  0  0
   43.5240   34.4890   40.5530 C   0  0  0  0  0  0  0  0  0  0  0  0
   43.1440   35.6890   40.7450 O   0  0  0  0  0  0  0  0  0  0  0  0
   42.5330   34.0670   39.5820 N   0  0  0  0  0  0  0  0  0  0  0  0
   42.2560   34.9970   38.5080 C   0  0  0  0  0  3  0  0  0  0  0  0
   42.8100   34.5710   37.6190 H   0  0  0  0  0  0  0  0  0  0  0  0
   40.7770   34.8800   38.2100 C   0  0  0  0  0  3  0  0  0  0  0  0
   40.4080   35.9070   37.9940 H   0  0  0  0  0  0  0  0  0  0  0  0
   40.0090   34.4250   39.3470 N   0  0  0  0  0  0  0  0  0  0  0  0
   39.0130   34.4230   39.0570 H   0  0  0  0  0  0  0  0  0  0  0  0
   40.3550   33.0760   39.7430 C   0  0  0  0  0  2  0  0  0  0  0  0
   41.8260   32.8020   39.6240 C   0  0  0  0  0  2  0  0  0  0  0  0
  1 17  1  0  0  0  0
  1  2  1  0  0  0  0
  2  9  1  0  0  0  0
  3  2  2  0  0  0  0
  3  7  1  0  0  0  0
  4  3  1  0  0  0  0
  5  6  1  0  0  0  0
  5  4  2  0  0  0  0
  6  1  2  0  0  0  0
  8  5  1  0  0  0  0
  9 10  1  0  0  0  0
  9 13  2  0  0  0  0
 10 11  2  0  0  0  0
 11 12  1  0  0  0  0
 11 15  1  0  0  0  0
 12 16  1  0  0  0  0
 13 12  1  0  0  0  0
 14 10  1  0  0  0  0
 18 19  2  0  0  0  0
 18 17  1  0  0  0  0
 20 28  1  0  0  0  0
 20 18  1  0  0  0  0
 21 20  1  0  0  0  0
 22 21  1  0  0  0  0
 23 21  1  0  0  0  0
 23 25  1  0  0  0  0
 24 23  1  0  0  0  0
 25 27  1  0  0  0  0
 26 25  1  0  0  0  0
 28 27  1  0  0  0  0
M  END
>  <minimizedAffinity>
-5.64785385

>  <minimizedRMSD>
0.414737999

$$$$
