
     RDKit          3D

 34 36  0  0  0  0  0  0  0  0999 V2000
   46.0796   34.1506   41.0071 C   0  0  0  0  0  0  0  0  0  0  0  0
   46.6149   34.8360   42.1027 C   0  0  0  0  0  0  0  0  0  0  0  0
   47.9394   35.2915   41.9944 C   0  0  0  0  0  0  0  0  0  0  0  0
   48.6004   35.0275   40.8239 N   0  0  0  0  0  0  0  0  0  0  0  0
   48.0481   34.3714   39.8098 C   0  0  0  0  0  0  0  0  0  0  0  0
   46.7812   33.9214   39.8811 N   0  0  0  0  0  0  0  0  0  0  0  0
   45.8073   35.0502   43.2903 C   0  0  0  0  0  0  0  0  0  0  0  0
   45.0479   36.1852   43.4879 C   0  0  0  0  0  0  0  0  0  0  0  0
   44.4642   35.9589   44.7227 C   0  0  0  0  0  0  0  0  0  0  0  0
   44.8474   34.7594   45.2408 N   0  0  0  0  0  0  0  0  0  0  0  0
   45.6530   34.2418   44.3545 N   0  0  0  0  0  0  0  0  0  0  0  0
   44.7752   33.6985   41.1038 O   0  0  0  0  0  0  0  0  0  0  0  0
   43.7000   34.2025   40.4211 C   0  0  0  0  0  0  0  0  0  0  0  0
   43.2514   35.3943   40.4228 O   0  0  0  0  0  0  0  0  0  0  0  0
   48.3761   35.8251   42.8300 H   0  0  0  0  0  0  0  0  0  0  0  0
   48.6524   34.2187   38.9411 H   0  0  0  0  0  0  0  0  0  0  0  0
   44.9051   37.0642   42.8693 H   0  0  0  0  0  0  0  0  0  0  0  0
   43.7802   36.6613   45.2153 H   0  0  0  0  0  0  0  0  0  0  0  0
   44.5026   34.4236   46.1694 H   0  0  0  0  0  0  0  0  0  0  0  0
   42.7555   33.5828   39.5128 N   0  0  0  0  0  0  0  0  0  0  0  0
   41.4353   33.3191   40.0461 C   0  0  2  0  0  0  0  0  0  0  0  0
   40.7907   34.1396   39.6129 H   0  0  0  0  0  0  0  0  0  0  0  0
   40.9754   32.0166   39.4280 C   0  0  1  0  0  0  0  0  0  0  0  0
   40.4289   31.4583   40.2205 H   0  0  0  0  0  0  0  0  0  0  0  0
   42.0722   31.1613   39.0377 N   0  0  0  0  0  0  0  0  0  0  0  0
   41.6567   30.2838   38.6728 H   0  0  0  0  0  0  0  0  0  0  0  0
   42.8761   31.7399   37.9816 C   0  0  0  0  0  0  0  0  0  0  0  0
   43.0492   33.2230   38.1391 C   0  0  0  0  0  0  0  0  0  0  0  0
   41.3878   33.2817   41.1370 H   0  0  0  0  0  0  0  0  0  0  0  0
   40.2317   32.1983   38.6171 H   0  0  0  0  0  0  0  0  0  0  0  0
   42.4855   31.4909   36.9540 H   0  0  0  0  0  0  0  0  0  0  0  0
   43.8814   31.2721   38.0413 H   0  0  0  0  0  0  0  0  0  0  0  0
   42.2338   33.7046   37.5305 H   0  0  0  0  0  0  0  0  0  0  0  0
   44.0026   33.6067   37.7817 H   0  0  0  0  0  0  0  0  0  0  0  0
  1 12  1  0
  1  2  1  0
  2  7  1  0
  3  2  2  0
  4  3  1  0
  5  6  1  0
  5  4  2  0
  6  1  2  0
  7  8  1  0
  7 11  2  0
  8  9  2  0
  9 10  1  0
 11 10  1  0
 13 14  2  0
 13 12  1  0
  3 15  1  0
  5 16  1  0
  8 17  1  0
  9 18  1  0
 10 19  1  0
 20 21  1  0
 21 22  1  6
 21 23  1  0
 23 24  1  1
 23 25  1  0
 25 26  1  0
 25 27  1  0
 27 28  1  0
 28 20  1  0
 21 29  1  0
 23 30  1  0
 27 31  1  0
 27 32  1  0
 28 33  1  0
 28 34  1  0
 13 20  1  0
M  ISO  8  15  14  16  14  17  14  18  14  19   9  22   8  24   8  26   5
M  END
>  <DihAtoms>  (1) 
13,12,19,20

>  <DihDeg>  (1) 
-0.13438117919780287

$$$$
