REMARK  Name = 
REMARK  3 active torsions:
REMARK  status: ('A' for Active; 'I' for Inactive)
REMARK    1  A    between atoms: C_1  and  C_9
REMARK    2  A    between atoms: C_6  and  N_19
REMARK    3  A    between atoms: C_7  and  C_13
REMARK                            x       y       z     vdW  Elec       q    Type
REMARK                         _______ _______ _______ _____ _____    ______ ____
ROOT
ATOM      1  C   UNL     1      45.133  34.420  41.189  0.00  0.00    +0.000 A 
ATOM      2  C   UNL     1      45.554  35.020  42.366  0.00  0.00    +0.000 A 
ATOM      3  C   UNL     1      46.916  35.242  42.556  0.00  0.00    +0.000 A 
ATOM      4  C   UNL     1      47.803  34.866  41.582  0.00  0.00    +0.000 A 
ATOM      5  C   UNL     1      47.407  34.270  40.406  0.00  0.00    +0.000 A 
ATOM      6  C   UNL     1      46.036  34.059  40.243  0.00  0.00    +0.000 A 
ATOM      7  H   UNL     1      44.855  35.317  43.135  0.00  0.00    +0.000 HD
ATOM      8  H   UNL     1      47.200  35.712  43.488  0.00  0.00    +0.000 HD
ATOM      9  H   UNL     1      48.860  35.033  41.717  0.00  0.00    +0.000 HD
ATOM     10  H   UNL     1      48.090  33.961  39.616  0.00  0.00    +0.000 HD
ENDROOT
BRANCH   6  13
ATOM     11  C   UNL     1      45.431  32.137  38.576  0.00  0.00    +0.000 C 
ATOM     12  O   UNL     1      45.952  31.149  39.080  0.00  0.00    +0.000 OA
ATOM     13  N   UNL     1      45.498  33.458  39.082  0.00  0.00    +0.000 N 
ATOM     14  H   UNL     1      45.065  34.246  38.521  0.00  0.00    +0.000 HD
ATOM     15  N   UNL     1      44.696  31.916  37.375  0.00  0.00    +0.000 N 
ATOM     16  C   UNL     1      44.661  30.545  36.904  0.00  0.00    +0.000 C 
ATOM     17  H   UNL     1      45.621  30.245  36.439  0.00  0.00    +0.000 HD
ATOM     18  C   UNL     1      43.452  30.294  36.041  0.00  0.00    +0.000 C 
ATOM     19  H   UNL     1      42.569  30.228  36.743  0.00  0.00    +0.000 HD
ATOM     20  N   UNL     1      43.237  31.248  35.003  0.00  0.00    +0.000 NA
ATOM     21  H   UNL     1      43.381  30.819  34.062  0.00  0.00    +0.000 HD
ATOM     22  C   UNL     1      44.149  32.361  35.121  0.00  0.00    +0.000 C 
ATOM     23  C   UNL     1      43.978  32.875  36.558  0.00  0.00    +0.000 C 
ENDBRANCH   6  13
BRANCH   1  26
ATOM     24  C   UNL     1      41.436  34.850  40.575  0.00  0.00    +0.000 A 
ATOM     25  C   UNL     1      42.797  35.168  40.663  0.00  0.00    +0.000 A 
ATOM     26  C   UNL     1      43.696  34.219  41.057  0.00  0.00    +0.000 A 
ATOM     27  N   UNL     1      43.192  32.982  41.350  0.00  0.00    +0.000 NA
ATOM     28  C   UNL     1      41.885  32.669  41.268  0.00  0.00    +0.000 A 
ATOM     29  N   UNL     1      40.998  33.614  40.876  0.00  0.00    +0.000 NA
ATOM     30  H   UNL     1      43.172  36.157  40.425  0.00  0.00    +0.000 HD
ATOM     31  H   UNL     1      41.552  31.666  41.515  0.00  0.00    +0.000 HD
BRANCH  24  32
ATOM     32  C   UNL     1      40.456  35.869  40.150  0.00  0.00    +0.000 C 
ATOM     33  F   UNL     1      39.228  35.217  39.959  0.00  0.00    +0.000 F 
ATOM     34  F   UNL     1      40.848  36.298  38.890  0.00  0.00    +0.000 F 
ATOM     35  F   UNL     1      40.312  36.897  41.041  0.00  0.00    +0.000 F 
ENDBRANCH  24  32
ENDBRANCH   1  26
TORSDOF 3
