
 OpenBabel03242512283D

 22 23  0  0  0  0  0  0  0  0999 V2000
   36.8040   30.4350   41.3610 C   0  0  0  0  0  0  0  0  0  0  0  0
   37.4930   29.5750   42.2260 C   0  0  0  0  0  0  0  0  0  0  0  0
   38.8440   29.8400   42.5380 C   0  0  0  0  0  0  0  0  0  0  0  0
   39.3930   30.9310   41.9680 N   0  0  0  0  0  0  0  0  0  0  0  0
   38.7340   31.7410   41.1500 C   0  0  0  0  0  0  0  0  0  0  0  0
   37.4530   31.4890   40.8540 N   0  0  0  0  0  0  0  0  0  0  0  0
   35.4470   30.1560   41.0570 N   0  0  0  0  0  0  0  0  0  0  0  0
   37.0650   28.7140   42.6780 H   0  0  0  0  0  0  0  0  0  0  0  0
   39.4140   29.2030   43.2010 H   0  0  0  0  0  0  0  0  0  0  0  0
   34.9750   30.7270   41.8010 H   0  0  0  0  0  0  0  0  0  0  0  0
   35.0040   29.5550   40.3100 H   0  0  0  0  0  0  0  0  0  0  0  0
   39.2880   32.9230   40.5170 C   0  0  0  0  0  0  0  0  0  0  0  0
   38.9590   34.1060   40.7790 O   0  0  0  0  0  0  0  0  0  0  0  0
   40.2910   32.8590   39.5040 N   0  0  0  0  0  0  0  0  0  0  0  0
   40.9230   34.1240   39.2760 C   0  0  0  0  0  3  0  0  0  0  0  0
   41.4380   34.3830   40.2430 H   0  0  0  0  0  0  0  0  0  0  0  0
   41.9430   34.1610   38.2020 C   0  0  0  0  0  3  0  0  0  0  0  0
   42.9640   34.0130   38.6150 H   0  0  0  0  0  0  0  0  0  0  0  0
   41.7900   33.2200   37.1440 N   0  0  0  0  0  0  0  0  0  0  0  0
   42.6750   32.6950   36.9130 H   0  0  0  0  0  0  0  0  0  0  0  0
   40.7200   32.2940   37.2720 C   0  0  0  0  0  2  0  0  0  0  0  0
   40.7490   31.7390   38.7010 C   0  0  0  0  0  2  0  0  0  0  0  0
  1  2  1  0  0  0  0
  2  3  2  0  0  0  0
  2  8  1  0  0  0  0
  3  9  1  0  0  0  0
  4  3  1  0  0  0  0
  5  4  2  0  0  0  0
  6  5  1  0  0  0  0
  6  1  2  0  0  0  0
  7  1  1  0  0  0  0
  7 10  1  0  0  0  0
 11  7  1  0  0  0  0
 12 13  2  0  0  0  0
 12  5  1  0  0  0  0
 14 12  1  0  0  0  0
 15 14  1  0  0  0  0
 15 16  1  0  0  0  0
 17 18  1  0  0  0  0
 17 15  1  0  0  0  0
 19 21  1  0  0  0  0
 19 17  1  0  0  0  0
 20 19  1  0  0  0  0
 21 22  1  0  0  0  0
 22 14  1  0  0  0  0
M  END
>  <minimizedAffinity>
-4.92989159

$$$$

 OpenBabel03242512283D

 22 23  0  0  0  0  0  0  0  0999 V2000
   38.2240   29.0070   42.9310 C   0  0  0  0  0  0  0  0  0  0  0  0
   38.8660   27.7610   42.9270 C   0  0  0  0  0  0  0  0  0  0  0  0
   40.0680   27.6020   42.2060 C   0  0  0  0  0  0  0  0  0  0  0  0
   40.5310   28.6870   41.5540 N   0  0  0  0  0  0  0  0  0  0  0  0
   39.9180   29.8640   41.5630 C   0  0  0  0  0  0  0  0  0  0  0  0
   38.7770   30.0150   42.2470 N   0  0  0  0  0  0  0  0  0  0  0  0
   37.0160   29.1520   43.6600 N   0  0  0  0  0  0  0  0  0  0  0  0
   38.5050   26.9030   43.4390 H   0  0  0  0  0  0  0  0  0  0  0  0
   40.5960   26.6590   42.1750 H   0  0  0  0  0  0  0  0  0  0  0  0
   37.4000   29.4850   44.5790 H   0  0  0  0  0  0  0  0  0  0  0  0
   36.0090   28.9830   43.3910 H   0  0  0  0  0  0  0  0  0  0  0  0
   40.3810   31.0540   40.8750 C   0  0  0  0  0  0  0  0  0  0  0  0
   40.9210   32.0450   41.4270 O   0  0  0  0  0  0  0  0  0  0  0  0
   40.2700   31.2240   39.4630 N   0  0  0  0  0  0  0  0  0  0  0  0
   41.0860   32.2940   38.9720 C   0  0  0  0  0  3  0  0  0  0  0  0
   42.1470   31.9890   39.1910 H   0  0  0  0  0  0  0  0  0  0  0  0
   40.9910   32.5750   37.5210 C   0  0  0  0  0  3  0  0  0  0  0  0
   41.7900   32.0470   36.9580 H   0  0  0  0  0  0  0  0  0  0  0  0
   39.7590   32.2460   36.8850 N   0  0  0  0  0  0  0  0  0  0  0  0
   39.8760   31.6970   35.9930 H   0  0  0  0  0  0  0  0  0  0  0  0
   38.7810   31.6110   37.6970 C   0  0  0  0  0  2  0  0  0  0  0  0
   39.4790   30.4960   38.4860 C   0  0  0  0  0  2  0  0  0  0  0  0
  1  7  1  0  0  0  0
  2  1  1  0  0  0  0
  2  8  1  0  0  0  0
  3  2  2  0  0  0  0
  4  5  2  0  0  0  0
  4  3  1  0  0  0  0
  5  6  1  0  0  0  0
  6  1  2  0  0  0  0
  7 10  1  0  0  0  0
  9  3  1  0  0  0  0
 11  7  1  0  0  0  0
 12 13  2  0  0  0  0
 12  5  1  0  0  0  0
 14 12  1  0  0  0  0
 15 16  1  0  0  0  0
 15 14  1  0  0  0  0
 17 15  1  0  0  0  0
 18 17  1  0  0  0  0
 19 17  1  0  0  0  0
 19 21  1  0  0  0  0
 20 19  1  0  0  0  0
 21 22  1  0  0  0  0
 22 14  1  0  0  0  0
M  END
>  <minimizedAffinity>
-4.62921906

$$$$

 OpenBabel03242512283D

 22 23  0  0  0  0  0  0  0  0999 V2000
   39.7160   32.3690   38.3240 C   0  0  0  0  0  0  0  0  0  0  0  0
   40.5640   33.2110   39.0570 C   0  0  0  0  0  0  0  0  0  0  0  0
   40.4240   33.2890   40.4590 C   0  0  0  0  0  0  0  0  0  0  0  0
   39.4600   32.5270   41.0140 N   0  0  0  0  0  0  0  0  0  0  0  0
   38.6620   31.7320   40.3140 C   0  0  0  0  0  0  0  0  0  0  0  0
   38.7940   31.6580   38.9840 N   0  0  0  0  0  0  0  0  0  0  0  0
   39.8690   32.3010   36.9160 N   0  0  0  0  0  0  0  0  0  0  0  0
   41.3250   33.8130   38.6240 H   0  0  0  0  0  0  0  0  0  0  0  0
   41.0560   33.9250   41.0620 H   0  0  0  0  0  0  0  0  0  0  0  0
   40.5310   31.4900   36.8460 H   0  0  0  0  0  0  0  0  0  0  0  0
   39.4540   32.8800   36.1370 H   0  0  0  0  0  0  0  0  0  0  0  0
   37.6130   30.8980   40.8720 C   0  0  0  0  0  0  0  0  0  0  0  0
   36.4040   31.2220   40.9660 O   0  0  0  0  0  0  0  0  0  0  0  0
   37.8570   29.5880   41.3830 N   0  0  0  0  0  0  0  0  0  0  0  0
   36.6520   28.8340   41.5590 C   0  0  0  0  0  3  0  0  0  0  0  0
   36.2170   28.7160   40.5270 H   0  0  0  0  0  0  0  0  0  0  0  0
   36.8080   27.4780   42.1360 C   0  0  0  0  0  3  0  0  0  0  0  0
   36.8720   26.7090   41.3380 H   0  0  0  0  0  0  0  0  0  0  0  0
   37.9280   27.2740   42.9920 N   0  0  0  0  0  0  0  0  0  0  0  0
   38.4820   26.4060   42.7640 H   0  0  0  0  0  0  0  0  0  0  0  0
   38.8200   28.3710   43.1380 C   0  0  0  0  0  2  0  0  0  0  0  0
   39.1030   28.9330   41.7390 C   0  0  0  0  0  2  0  0  0  0  0  0
  1  6  2  0  0  0  0
  1  2  1  0  0  0  0
  2  3  2  0  0  0  0
  3  4  1  0  0  0  0
  3  9  1  0  0  0  0
  5 12  1  0  0  0  0
  5  4  2  0  0  0  0
  6  5  1  0  0  0  0
  7  1  1  0  0  0  0
  8  2  1  0  0  0  0
 10  7  1  0  0  0  0
 11  7  1  0  0  0  0
 12 13  2  0  0  0  0
 12 14  1  0  0  0  0
 14 15  1  0  0  0  0
 14 22  1  0  0  0  0
 15 17  1  0  0  0  0
 16 15  1  0  0  0  0
 17 19  1  0  0  0  0
 18 17  1  0  0  0  0
 19 21  1  0  0  0  0
 20 19  1  0  0  0  0
 22 21  1  0  0  0  0
M  END
>  <minimizedAffinity>
-4.57979155

$$$$

 OpenBabel03242512283D

 22 23  0  0  0  0  0  0  0  0999 V2000
   40.1470   32.2560   38.3060 C   0  0  0  0  0  0  0  0  0  0  0  0
   40.5650   33.4060   38.9890 C   0  0  0  0  0  0  0  0  0  0  0  0
   40.7570   33.3530   40.3870 C   0  0  0  0  0  0  0  0  0  0  0  0
   40.5190   32.1680   40.9850 N   0  0  0  0  0  0  0  0  0  0  0  0
   40.1240   31.0830   40.3320 C   0  0  0  0  0  0  0  0  0  0  0  0
   39.9420   31.1340   39.0060 N   0  0  0  0  0  0  0  0  0  0  0  0
   39.9590   32.3240   36.9030 N   0  0  0  0  0  0  0  0  0  0  0  0
   40.7530   34.3410   38.5230 H   0  0  0  0  0  0  0  0  0  0  0  0
   41.0780   34.2160   40.9530 H   0  0  0  0  0  0  0  0  0  0  0  0
   40.9100   32.0200   36.5790 H   0  0  0  0  0  0  0  0  0  0  0  0
   39.1220   32.5970   36.3190 H   0  0  0  0  0  0  0  0  0  0  0  0
   39.8580   29.7930   40.9380 C   0  0  0  0  0  0  0  0  0  0  0  0
   40.6600   28.8270   40.9660 O   0  0  0  0  0  0  0  0  0  0  0  0
   38.6230   29.4800   41.5820 N   0  0  0  0  0  0  0  0  0  0  0  0
   38.7080   28.3020   42.3910 C   0  0  0  0  0  3  0  0  0  0  0  0
   39.4570   28.5420   43.1970 H   0  0  0  0  0  0  0  0  0  0  0  0
   37.4560   27.8740   43.0570 C   0  0  0  0  0  3  0  0  0  0  0  0
   37.3970   28.2720   44.0920 H   0  0  0  0  0  0  0  0  0  0  0  0
   36.2360   28.2310   42.4120 N   0  0  0  0  0  0  0  0  0  0  0  0
   35.5280   28.6690   43.0590 H   0  0  0  0  0  0  0  0  0  0  0  0
   36.3510   29.0270   41.2400 C   0  0  0  0  0  2  0  0  0  0  0  0
   37.3400   30.1600   41.5390 C   0  0  0  0  0  2  0  0  0  0  0  0
  1  2  2  0  0  0  0
  1  6  1  0  0  0  0
  2  3  1  0  0  0  0
  3  9  1  0  0  0  0
  3  4  2  0  0  0  0
  5 12  1  0  0  0  0
  5  4  1  0  0  0  0
  6  5  2  0  0  0  0
  7  1  1  0  0  0  0
  8  2  1  0  0  0  0
 10  7  1  0  0  0  0
 11  7  1  0  0  0  0
 12 13  2  0  0  0  0
 12 14  1  0  0  0  0
 14 15  1  0  0  0  0
 15 17  1  0  0  0  0
 15 16  1  0  0  0  0
 17 18  1  0  0  0  0
 19 17  1  0  0  0  0
 19 20  1  0  0  0  0
 21 22  1  0  0  0  0
 21 19  1  0  0  0  0
 22 14  1  0  0  0  0
M  END
>  <minimizedAffinity>
-4.42689276

$$$$

 OpenBabel03242512283D

 22 23  0  0  0  0  0  0  0  0999 V2000
   37.1270   27.0740   41.3880 C   0  0  0  0  0  0  0  0  0  0  0  0
   37.1870   26.9400   42.7820 C   0  0  0  0  0  0  0  0  0  0  0  0
   37.3250   28.0920   43.5860 C   0  0  0  0  0  0  0  0  0  0  0  0
   37.3910   29.2740   42.9420 N   0  0  0  0  0  0  0  0  0  0  0  0
   37.3330   29.3940   41.6220 C   0  0  0  0  0  0  0  0  0  0  0  0
   37.2020   28.3010   40.8590 N   0  0  0  0  0  0  0  0  0  0  0  0
   36.9880   25.9080   40.5940 N   0  0  0  0  0  0  0  0  0  0  0  0
   37.1350   26.0110   43.2940 H   0  0  0  0  0  0  0  0  0  0  0  0
   37.3760   28.0340   44.6640 H   0  0  0  0  0  0  0  0  0  0  0  0
   35.9420   25.8710   40.5120 H   0  0  0  0  0  0  0  0  0  0  0  0
   37.7030   25.2460   40.1870 H   0  0  0  0  0  0  0  0  0  0  0  0
   37.4010   30.6450   40.8920 C   0  0  0  0  0  0  0  0  0  0  0  0
   36.5950   31.0080   40.0010 O   0  0  0  0  0  0  0  0  0  0  0  0
   38.4200   31.6190   41.1180 N   0  0  0  0  0  0  0  0  0  0  0  0
   38.0990   32.8930   40.5480 C   0  0  0  0  0  3  0  0  0  0  0  0
   37.1750   33.2420   41.0880 H   0  0  0  0  0  0  0  0  0  0  0  0
   39.1270   33.9510   40.6910 C   0  0  0  0  0  3  0  0  0  0  0  0
   38.9280   34.5840   41.5820 H   0  0  0  0  0  0  0  0  0  0  0  0
   40.4800   33.5160   40.7940 N   0  0  0  0  0  0  0  0  0  0  0  0
   41.0090   33.9630   41.5890 H   0  0  0  0  0  0  0  0  0  0  0  0
   40.6910   32.1110   40.8260 C   0  0  0  0  0  2  0  0  0  0  0  0
   39.6880   31.5100   41.8180 C   0  0  0  0  0  2  0  0  0  0  0  0
  1  2  1  0  0  0  0
  2  8  1  0  0  0  0
  2  3  2  0  0  0  0
  3  9  1  0  0  0  0
  4  3  1  0  0  0  0
  5  4  2  0  0  0  0
  6  1  2  0  0  0  0
  6  5  1  0  0  0  0
  7  1  1  0  0  0  0
 10  7  1  0  0  0  0
 11  7  1  0  0  0  0
 12 14  1  0  0  0  0
 12  5  1  0  0  0  0
 13 12  2  0  0  0  0
 14 22  1  0  0  0  0
 15 17  1  0  0  0  0
 15 16  1  0  0  0  0
 15 14  1  0  0  0  0
 17 19  1  0  0  0  0
 17 18  1  0  0  0  0
 19 21  1  0  0  0  0
 19 20  1  0  0  0  0
 21 22  1  0  0  0  0
M  END
>  <minimizedAffinity>
-4.42159557

$$$$

 OpenBabel03242512283D

 22 23  0  0  0  0  0  0  0  0999 V2000
   39.8150   24.9970   42.6630 C   0  0  0  0  0  0  0  0  0  0  0  0
   41.0330   25.6440   42.9160 C   0  0  0  0  0  0  0  0  0  0  0  0
   41.2940   26.8920   42.3100 C   0  0  0  0  0  0  0  0  0  0  0  0
   40.3300   27.3900   41.5100 N   0  0  0  0  0  0  0  0  0  0  0  0
   39.1800   26.7720   41.2770 C   0  0  0  0  0  0  0  0  0  0  0  0
   38.9320   25.5880   41.8510 N   0  0  0  0  0  0  0  0  0  0  0  0
   39.5660   23.7440   43.2780 N   0  0  0  0  0  0  0  0  0  0  0  0
   41.7940   25.2560   43.5450 H   0  0  0  0  0  0  0  0  0  0  0  0
   42.2190   27.4250   42.4770 H   0  0  0  0  0  0  0  0  0  0  0  0
   39.0730   24.0650   44.1480 H   0  0  0  0  0  0  0  0  0  0  0  0
   39.7950   22.7570   42.9800 H   0  0  0  0  0  0  0  0  0  0  0  0
   38.1190   27.2730   40.4240 C   0  0  0  0  0  0  0  0  0  0  0  0
   37.9080   26.9090   39.2410 O   0  0  0  0  0  0  0  0  0  0  0  0
   37.1790   28.2580   40.8550 N   0  0  0  0  0  0  0  0  0  0  0  0
   36.0400   28.3450   39.9920 C   0  0  0  0  0  3  0  0  0  0  0  0
   35.5310   27.3430   40.0600 H   0  0  0  0  0  0  0  0  0  0  0  0
   35.0380   29.3800   40.3360 C   0  0  0  0  0  3  0  0  0  0  0  0
   34.2190   28.9540   40.9530 H   0  0  0  0  0  0  0  0  0  0  0  0
   35.5180   30.5280   41.0300 N   0  0  0  0  0  0  0  0  0  0  0  0
   34.9420   30.7820   41.8770 H   0  0  0  0  0  0  0  0  0  0  0  0
   36.8930   30.5200   41.3880 C   0  0  0  0  0  2  0  0  0  0  0  0
   37.2100   29.1500   42.0000 C   0  0  0  0  0  2  0  0  0  0  0  0
  1  2  1  0  0  0  0
  1  7  1  0  0  0  0
  2  8  1  0  0  0  0
  3  9  1  0  0  0  0
  3  2  2  0  0  0  0
  4  3  1  0  0  0  0
  5  4  2  0  0  0  0
  5  6  1  0  0  0  0
  6  1  2  0  0  0  0
  7 10  1  0  0  0  0
 11  7  1  0  0  0  0
 12 14  1  0  0  0  0
 12  5  1  0  0  0  0
 13 12  2  0  0  0  0
 14 22  1  0  0  0  0
 15 16  1  0  0  0  0
 15 17  1  0  0  0  0
 15 14  1  0  0  0  0
 17 18  1  0  0  0  0
 17 19  1  0  0  0  0
 19 21  1  0  0  0  0
 19 20  1  0  0  0  0
 21 22  1  0  0  0  0
M  END
>  <minimizedAffinity>
-4.42018318

$$$$

 OpenBabel03242512283D

 22 23  0  0  0  0  0  0  0  0999 V2000
   38.3590   27.0300   41.7580 C   0  0  0  0  0  0  0  0  0  0  0  0
   37.3930   26.8180   42.7510 C   0  0  0  0  0  0  0  0  0  0  0  0
   37.0220   27.8850   43.5970 C   0  0  0  0  0  0  0  0  0  0  0  0
   37.6370   29.0670   43.3870 N   0  0  0  0  0  0  0  0  0  0  0  0
   38.5500   29.2590   42.4440 C   0  0  0  0  0  0  0  0  0  0  0  0
   38.9030   28.2470   41.6420 N   0  0  0  0  0  0  0  0  0  0  0  0
   38.7220   25.9490   40.9150 N   0  0  0  0  0  0  0  0  0  0  0  0
   36.9060   25.8900   42.9200 H   0  0  0  0  0  0  0  0  0  0  0  0
   36.2820   27.7660   44.3760 H   0  0  0  0  0  0  0  0  0  0  0  0
   38.0520   26.1070   40.1230 H   0  0  0  0  0  0  0  0  0  0  0  0
   39.4480   25.1900   41.0210 H   0  0  0  0  0  0  0  0  0  0  0  0
   39.2340   30.5120   42.1870 C   0  0  0  0  0  0  0  0  0  0  0  0
   40.1110   31.0230   42.9250 O   0  0  0  0  0  0  0  0  0  0  0  0
   38.9740   31.3130   41.0340 N   0  0  0  0  0  0  0  0  0  0  0  0
   39.9850   32.3030   40.8130 C   0  0  0  0  0  3  0  0  0  0  0  0
   40.9330   31.7280   40.6150 H   0  0  0  0  0  0  0  0  0  0  0  0
   39.7670   33.2150   39.6660 C   0  0  0  0  0  3  0  0  0  0  0  0
   40.2880   32.8460   38.7570 H   0  0  0  0  0  0  0  0  0  0  0  0
   38.4140   33.4560   39.2900 N   0  0  0  0  0  0  0  0  0  0  0  0
   38.2370   33.3520   38.2560 H   0  0  0  0  0  0  0  0  0  0  0  0
   37.4220   32.7350   40.0070 C   0  0  0  0  0  2  0  0  0  0  0  0
   37.8730   31.2710   40.0880 C   0  0  0  0  0  2  0  0  0  0  0  0
  1  2  1  0  0  0  0
  2  8  1  0  0  0  0
  2  3  2  0  0  0  0
  3  9  1  0  0  0  0
  4  3  1  0  0  0  0
  5  4  2  0  0  0  0
  6  1  2  0  0  0  0
  6  5  1  0  0  0  0
  7 11  1  0  0  0  0
  7  1  1  0  0  0  0
 10  7  1  0  0  0  0
 12  5  1  0  0  0  0
 12 13  2  0  0  0  0
 14 12  1  0  0  0  0
 15 14  1  0  0  0  0
 16 15  1  0  0  0  0
 17 15  1  0  0  0  0
 18 17  1  0  0  0  0
 19 17  1  0  0  0  0
 19 21  1  0  0  0  0
 20 19  1  0  0  0  0
 21 22  1  0  0  0  0
 22 14  1  0  0  0  0
M  END
>  <minimizedAffinity>
-4.39317942

$$$$

 OpenBabel03242512283D

 22 23  0  0  0  0  0  0  0  0999 V2000
   38.7260   24.3600   42.1520 C   0  0  0  0  0  0  0  0  0  0  0  0
   39.8560   24.4120   42.9800 C   0  0  0  0  0  0  0  0  0  0  0  0
   40.1520   25.6020   43.6770 C   0  0  0  0  0  0  0  0  0  0  0  0
   39.3050   26.6360   43.4960 N   0  0  0  0  0  0  0  0  0  0  0  0
   38.2370   26.5790   42.7110 C   0  0  0  0  0  0  0  0  0  0  0  0
   37.9560   25.4500   42.0490 N   0  0  0  0  0  0  0  0  0  0  0  0
   38.4410   23.1570   41.4570 N   0  0  0  0  0  0  0  0  0  0  0  0
   40.5250   23.6000   43.1250 H   0  0  0  0  0  0  0  0  0  0  0  0
   41.0120   25.6860   44.3260 H   0  0  0  0  0  0  0  0  0  0  0  0
   37.8010   22.6970   42.1510 H   0  0  0  0  0  0  0  0  0  0  0  0
   38.7610   22.7960   40.5180 H   0  0  0  0  0  0  0  0  0  0  0  0
   37.3040   27.6670   42.4890 C   0  0  0  0  0  0  0  0  0  0  0  0
   36.2250   27.8330   43.1090 O   0  0  0  0  0  0  0  0  0  0  0  0
   37.5240   28.6900   41.5180 N   0  0  0  0  0  0  0  0  0  0  0  0
   36.6670   29.8220   41.7070 C   0  0  0  0  0  3  0  0  0  0  0  0
   36.9470   30.2470   42.7110 H   0  0  0  0  0  0  0  0  0  0  0  0
   36.7920   30.9100   40.7100 C   0  0  0  0  0  3  0  0  0  0  0  0
   37.4890   31.6990   41.0640 H   0  0  0  0  0  0  0  0  0  0  0  0
   37.2280   30.5350   39.4060 N   0  0  0  0  0  0  0  0  0  0  0  0
   38.0060   31.1390   39.0300 H   0  0  0  0  0  0  0  0  0  0  0  0
   37.5720   29.1680   39.2250 C   0  0  0  0  0  2  0  0  0  0  0  0
   38.4560   28.7470   40.4060 C   0  0  0  0  0  2  0  0  0  0  0  0
  1  2  1  0  0  0  0
  2  8  1  0  0  0  0
  2  3  2  0  0  0  0
  3  9  1  0  0  0  0
  4  3  1  0  0  0  0
  5  4  2  0  0  0  0
  6  1  2  0  0  0  0
  6  5  1  0  0  0  0
  7 10  1  0  0  0  0
  7  1  1  0  0  0  0
 11  7  1  0  0  0  0
 12  5  1  0  0  0  0
 12 13  2  0  0  0  0
 14 15  1  0  0  0  0
 14 12  1  0  0  0  0
 15 16  1  0  0  0  0
 17 18  1  0  0  0  0
 17 15  1  0  0  0  0
 19 17  1  0  0  0  0
 20 19  1  0  0  0  0
 21 19  1  0  0  0  0
 21 22  1  0  0  0  0
 22 14  1  0  0  0  0
M  END
>  <minimizedAffinity>
-4.35366249

$$$$

 OpenBabel03242512283D

 22 23  0  0  0  0  0  0  0  0999 V2000
   41.7890   32.6940   37.2100 C   0  0  0  0  0  0  0  0  0  0  0  0
   42.4490   31.5410   36.7620 C   0  0  0  0  0  0  0  0  0  0  0  0
   41.9290   30.2710   37.0890 C   0  0  0  0  0  0  0  0  0  0  0  0
   40.8020   30.2510   37.8290 N   0  0  0  0  0  0  0  0  0  0  0  0
   40.1820   31.3470   38.2490 C   0  0  0  0  0  0  0  0  0  0  0  0
   40.6760   32.5520   37.9390 N   0  0  0  0  0  0  0  0  0  0  0  0
   42.3240   33.9630   36.8740 N   0  0  0  0  0  0  0  0  0  0  0  0
   43.3370   31.5520   36.1790 H   0  0  0  0  0  0  0  0  0  0  0  0
   42.4050   29.3570   36.7650 H   0  0  0  0  0  0  0  0  0  0  0  0
   41.7920   34.1530   35.9880 H   0  0  0  0  0  0  0  0  0  0  0  0
   43.0460   34.5690   37.3500 H   0  0  0  0  0  0  0  0  0  0  0  0
   38.9700   31.3690   39.0460 C   0  0  0  0  0  0  0  0  0  0  0  0
   37.9380   32.0290   38.7760 O   0  0  0  0  0  0  0  0  0  0  0  0
   38.8240   30.6190   40.2520 N   0  0  0  0  0  0  0  0  0  0  0  0
   37.4590   30.5210   40.6760 C   0  0  0  0  0  3  0  0  0  0  0  0
   36.9300   29.9520   39.8610 H   0  0  0  0  0  0  0  0  0  0  0  0
   37.2200   29.8030   41.9490 C   0  0  0  0  0  3  0  0  0  0  0  0
   36.9750   28.7350   41.7670 H   0  0  0  0  0  0  0  0  0  0  0  0
   38.2810   29.8210   42.9010 N   0  0  0  0  0  0  0  0  0  0  0  0
   38.5110   28.8710   43.2960 H   0  0  0  0  0  0  0  0  0  0  0  0
   39.4830   30.4590   42.4940 C   0  0  0  0  0  2  0  0  0  0  0  0
   39.8200   29.9660   41.0820 C   0  0  0  0  0  2  0  0  0  0  0  0
  1  6  1  0  0  0  0
  2  3  1  0  0  0  0
  2  1  2  0  0  0  0
  3  4  2  0  0  0  0
  4  5  1  0  0  0  0
  5 12  1  0  0  0  0
  6  5  2  0  0  0  0
  7  1  1  0  0  0  0
  7 11  1  0  0  0  0
  8  2  1  0  0  0  0
  9  3  1  0  0  0  0
 10  7  1  0  0  0  0
 12 14  1  0  0  0  0
 13 12  2  0  0  0  0
 14 15  1  0  0  0  0
 14 22  1  0  0  0  0
 15 17  1  0  0  0  0
 16 15  1  0  0  0  0
 17 19  1  0  0  0  0
 18 17  1  0  0  0  0
 19 20  1  0  0  0  0
 21 19  1  0  0  0  0
 22 21  1  0  0  0  0
M  END
>  <minimizedAffinity>
-4.31495333

$$$$
