
 OpenBabel03252502283D

 35 37  0  0  0  0  0  0  0  0999 V2000
   45.2410   34.3550   40.9660 C   0  0  0  0  0  0  0  0  0  0  0  0
   45.4930   34.9780   42.1790 C   0  0  0  0  0  0  0  0  0  0  0  0
   46.8140   35.2310   42.5410 C   0  0  0  0  0  0  0  0  0  0  0  0
   47.8280   34.8630   41.6960 C   0  0  0  0  0  0  0  0  0  0  0  0
   47.6000   34.2450   40.4880 C   0  0  0  0  0  0  0  0  0  0  0  0
   46.2660   34.0030   40.1510 C   0  0  0  0  0  0  0  0  0  0  0  0
   44.6940   35.2690   42.8460 H   0  0  0  0  0  0  0  0  0  0  0  0
   46.9650   35.7180   43.4950 H   0  0  0  0  0  0  0  0  0  0  0  0
   48.8550   35.0540   41.9650 H   0  0  0  0  0  0  0  0  0  0  0  0
   48.3860   33.9410   39.7980 H   0  0  0  0  0  0  0  0  0  0  0  0
   45.9660   32.0570   38.4290 C   0  0  0  0  0  0  0  0  0  0  0  0
   46.4900   31.1000   38.9880 O   0  0  0  0  0  0  0  0  0  0  0  0
   45.8960   33.3770   38.9390 N   0  0  0  0  0  0  0  0  0  0  0  0
   45.4790   34.1400   38.3330 H   0  0  0  0  0  0  0  0  0  0  0  0
   45.3820   31.7990   37.1560 N   0  0  0  0  0  0  0  0  0  0  0  0
   45.3810   32.9120   36.2280 C   0  0  0  0  0  3  0  0  0  0  0  0
   44.6140   33.6670   36.4890 H   0  0  0  0  0  0  0  0  0  0  0  0
   45.3150   32.4340   34.8000 C   0  0  0  0  0  3  0  0  0  0  0  0
   46.3430   32.0380   34.5500 H   0  0  0  0  0  0  0  0  0  0  0  0
   44.2930   31.4780   34.5270 N   0  0  0  0  0  0  0  0  0  0  0  0
   43.5590   31.8790   33.9020 H   0  0  0  0  0  0  0  0  0  0  0  0
   43.6470   31.0430   35.7420 C   0  0  0  0  0  2  0  0  0  0  0  0
   44.7850   30.5730   36.6590 C   0  0  0  0  0  2  0  0  0  0  0  0
   41.5940   34.7380   40.0810 C   0  0  0  0  0  0  0  0  0  0  0  0
   42.9180   35.0910   40.3690 C   0  0  0  0  0  0  0  0  0  0  0  0
   43.8380   34.1220   40.6520 C   0  0  0  0  0  0  0  0  0  0  0  0
   43.3900   32.8300   40.6350 N   0  0  0  0  0  0  0  0  0  0  0  0
   42.1190   32.4830   40.3600 C   0  0  0  0  0  0  0  0  0  0  0  0
   41.2120   33.4480   40.0800 N   0  0  0  0  0  0  0  0  0  0  0  0
   43.2480   36.1240   40.3760 H   0  0  0  0  0  0  0  0  0  0  0  0
   41.8310   31.4360   40.3640 H   0  0  0  0  0  0  0  0  0  0  0  0
   40.5920   35.7780   39.7750 C   0  0  0  0  0  0  0  0  0  0  0  0
   39.3750   35.1270   39.5200 F   0  0  0  0  0  0  0  0  0  0  0  0
   40.9670   36.3480   38.5670 F   0  0  0  0  0  0  0  0  0  0  0  0
   40.4360   36.7000   40.7730 F   0  0  0  0  0  0  0  0  0  0  0  0
  1  2  1  0  0  0  0
  2  3  2  0  0  0  0
  2  7  1  0  0  0  0
  3  8  1  0  0  0  0
  4  9  1  0  0  0  0
  4  3  1  0  0  0  0
  5  4  2  0  0  0  0
  6  5  1  0  0  0  0
  6  1  2  0  0  0  0
 10  5  1  0  0  0  0
 11 13  1  0  0  0  0
 11 12  2  0  0  0  0
 13  6  1  0  0  0  0
 14 13  1  0  0  0  0
 15 11  1  0  0  0  0
 16 17  1  0  0  0  0
 16 15  1  0  0  0  0
 18 16  1  0  0  0  0
 19 18  1  0  0  0  0
 20 18  1  0  0  0  0
 20 22  1  0  0  0  0
 21 20  1  0  0  0  0
 22 23  1  0  0  0  0
 23 15  1  0  0  0  0
 24 25  1  0  0  0  0
 25 30  1  0  0  0  0
 25 26  2  0  0  0  0
 26  1  1  0  0  0  0
 27 26  1  0  0  0  0
 28 31  1  0  0  0  0
 28 27  2  0  0  0  0
 29 24  2  0  0  0  0
 29 28  1  0  0  0  0
 32 24  1  0  0  0  0
 32 35  1  0  0  0  0
 33 32  1  0  0  0  0
 34 32  1  0  0  0  0
M  END
>  <minimizedAffinity>
-6.4382143

>  <minimizedRMSD>
0.611040354

$$$$
