
 OpenBabel03252502293D

 35 37  0  0  0  0  0  0  0  0999 V2000
   45.1170   34.4780   41.3120 C   0  0  0  0  0  0  0  0  0  0  0  0
   45.4670   35.0850   42.5080 C   0  0  0  0  0  0  0  0  0  0  0  0
   46.8130   35.3350   42.7650 C   0  0  0  0  0  0  0  0  0  0  0  0
   47.7550   34.9800   41.8350 C   0  0  0  0  0  0  0  0  0  0  0  0
   47.4290   34.3780   40.6400 C   0  0  0  0  0  0  0  0  0  0  0  0
   46.0720   34.1390   40.4100 C   0  0  0  0  0  0  0  0  0  0  0  0
   44.7260   35.3650   43.2430 H   0  0  0  0  0  0  0  0  0  0  0  0
   47.0420   35.8090   43.7100 H   0  0  0  0  0  0  0  0  0  0  0  0
   48.8000   35.1690   42.0210 H   0  0  0  0  0  0  0  0  0  0  0  0
   48.1560   34.0860   39.8840 H   0  0  0  0  0  0  0  0  0  0  0  0
   46.2130   33.0180   38.0520 C   0  0  0  0  0  0  0  0  0  0  0  0
   47.4060   33.0770   37.7800 O   0  0  0  0  0  0  0  0  0  0  0  0
   45.6040   33.5290   39.2240 N   0  0  0  0  0  0  0  0  0  0  0  0
   44.5500   33.4820   39.3180 H   0  0  0  0  0  0  0  0  0  0  0  0
   45.3800   32.3740   37.0900 N   0  0  0  0  0  0  0  0  0  0  0  0
   44.4130   31.4360   37.6260 C   0  0  0  0  0  3  0  0  0  0  0  0
   44.8890   30.4850   37.9350 H   0  0  0  0  0  0  0  0  0  0  0  0
   43.2420   31.2680   36.6930 C   0  0  0  0  0  3  0  0  0  0  0  0
   42.6140   32.1990   36.8000 H   0  0  0  0  0  0  0  0  0  0  0  0
   43.5800   31.0050   35.3330 N   0  0  0  0  0  0  0  0  0  0  0  0
   43.3050   30.0370   35.0560 H   0  0  0  0  0  0  0  0  0  0  0  0
   45.0020   31.1350   35.1160 C   0  0  0  0  0  2  0  0  0  0  0  0
   45.3680   32.5280   35.6480 C   0  0  0  0  0  2  0  0  0  0  0  0
   41.4390   34.8420   40.5580 C   0  0  0  0  0  0  0  0  0  0  0  0
   42.7860   35.1900   40.7180 C   0  0  0  0  0  0  0  0  0  0  0  0
   43.6930   34.2470   41.1100 C   0  0  0  0  0  0  0  0  0  0  0  0
   43.2100   32.9870   41.3290 N   0  0  0  0  0  0  0  0  0  0  0  0
   41.9170   32.6450   41.1780 C   0  0  0  0  0  0  0  0  0  0  0  0
   41.0220   33.5830   40.7880 N   0  0  0  0  0  0  0  0  0  0  0  0
   43.1440   36.1970   40.5380 H   0  0  0  0  0  0  0  0  0  0  0  0
   41.6010   31.6240   41.3680 H   0  0  0  0  0  0  0  0  0  0  0  0
   40.4500   35.8530   40.1340 C   0  0  0  0  0  0  0  0  0  0  0  0
   39.2320   35.1890   39.9270 F   0  0  0  0  0  0  0  0  0  0  0  0
   40.8470   36.2980   38.8810 F   0  0  0  0  0  0  0  0  0  0  0  0
   40.2870   36.8710   41.0330 F   0  0  0  0  0  0  0  0  0  0  0  0
  1  2  1  0  0  0  0
  2  3  2  0  0  0  0
  2  7  1  0  0  0  0
  3  8  1  0  0  0  0
  4  9  1  0  0  0  0
  4  3  1  0  0  0  0
  5  4  2  0  0  0  0
  6  5  1  0  0  0  0
  6  1  2  0  0  0  0
 10  5  1  0  0  0  0
 11 13  1  0  0  0  0
 12 11  2  0  0  0  0
 13 14  1  0  0  0  0
 13  6  1  0  0  0  0
 15 16  1  0  0  0  0
 15 11  1  0  0  0  0
 16 17  1  0  0  0  0
 18 19  1  0  0  0  0
 18 16  1  0  0  0  0
 20 18  1  0  0  0  0
 21 20  1  0  0  0  0
 22 20  1  0  0  0  0
 22 23  1  0  0  0  0
 23 15  1  0  0  0  0
 24 25  2  0  0  0  0
 24 29  1  0  0  0  0
 25 26  1  0  0  0  0
 26  1  1  0  0  0  0
 26 27  2  0  0  0  0
 28 27  1  0  0  0  0
 28 31  1  0  0  0  0
 29 28  2  0  0  0  0
 30 25  1  0  0  0  0
 32 24  1  0  0  0  0
 32 35  1  0  0  0  0
 33 32  1  0  0  0  0
 34 32  1  0  0  0  0
M  END
>  <minimizedAffinity>
-6.48140812

>  <minimizedRMSD>
0.92045933

$$$$
