REMARK  Name = 
REMARK  3 active torsions:
REMARK  status: ('A' for Active; 'I' for Inactive)
REMARK    1  A    between atoms: C_2  and  N_7
REMARK    2  A    between atoms: C_5  and  C_14
REMARK    3  A    between atoms: C_20  and  N_37
REMARK                            x       y       z     vdW  Elec       q    Type
REMARK                         _______ _______ _______ _____ _____    ______ ____
ROOT
ATOM      1  C   UNL     1      44.147  34.846  42.598  0.00  0.00    +0.000 A 
ATOM      2  C   UNL     1      43.389  34.081  41.731  0.00  0.00    +0.000 A 
ATOM      3  C   UNL     1      43.472  32.704  41.852  0.00  0.00    +0.000 A 
ATOM      4  N   UNL     1      44.274  32.152  42.795  0.00  0.00    +0.000 NA
ATOM      5  C   UNL     1      44.999  32.922  43.625  0.00  0.00    +0.000 A 
ATOM      6  N   UNL     1      44.935  34.258  43.527  0.00  0.00    +0.000 NA
ATOM      7  H   UNL     1      44.162  35.924  42.597  0.00  0.00    +0.000 HD
ATOM      8  H   UNL     1      42.875  32.124  41.167  0.00  0.00    +0.000 HD
ENDROOT
BRANCH   2   9
ATOM      9  N   UNL     1      42.595  34.791  40.794  0.00  0.00    +0.000 N 
ATOM     10  C   UNL     1      42.842  34.543  39.400  0.00  0.00    +0.000 C 
ATOM     11  C   UNL     1      42.043  35.400  38.487  0.00  0.00    +0.000 C 
ATOM     12  N   UNL     1      40.656  35.437  38.845  0.00  0.00    +0.000 NA
ATOM     13  C   UNL     1      40.333  35.470  40.224  0.00  0.00    +0.000 C 
ATOM     14  C   UNL     1      41.556  35.743  41.066  0.00  0.00    +0.000 C 
ATOM     15  H   UNL     1      43.916  34.739  39.206  0.00  0.00    +0.000 HD
ATOM     16  H   UNL     1      42.679  33.455  39.220  0.00  0.00    +0.000 HD
ATOM     17  H   UNL     1      42.488  36.420  38.490  0.00  0.00    +0.000 HD
ATOM     18  H   UNL     1      42.132  35.011  37.453  0.00  0.00    +0.000 HD
ATOM     19  H   UNL     1      40.050  34.818  38.265  0.00  0.00    +0.000 HD
ATOM     20  H   UNL     1      39.521  36.158  40.480  0.00  0.00    +0.000 HD
ATOM     21  H   UNL     1      39.964  34.451  40.508  0.00  0.00    +0.000 HD
ATOM     22  H   UNL     1      41.967  36.751  40.835  0.00  0.00    +0.000 HD
ATOM     23  H   UNL     1      41.302  35.775  42.146  0.00  0.00    +0.000 HD
ENDBRANCH   2   9
BRANCH   5  25
ATOM     24  C   UNL     1      46.369  31.048  44.427  0.00  0.00    +0.000 A 
ATOM     25  C   UNL     1      45.859  32.293  44.636  0.00  0.00    +0.000 A 
ATOM     26  C   UNL     1      46.171  32.934  45.811  0.00  0.00    +0.000 A 
ATOM     27  C   UNL     1      46.976  32.333  46.749  0.00  0.00    +0.000 A 
ATOM     28  C   UNL     1      47.493  31.054  46.520  0.00  0.00    +0.000 A 
ATOM     29  C   UNL     1      47.187  30.394  45.337  0.00  0.00    +0.000 A 
ATOM     30  O   UNL     1      48.267  30.696  47.624  0.00  0.00    +0.000 OA
ATOM     31  C   UNL     1      47.984  31.618  48.673  0.00  0.00    +0.000 C 
ATOM     32  O   UNL     1      47.447  32.735  47.996  0.00  0.00    +0.000 OA
ATOM     33  H   UNL     1      46.144  30.513  43.511  0.00  0.00    +0.000 HD
ATOM     34  H   UNL     1      45.756  33.927  45.965  0.00  0.00    +0.000 HD
ATOM     35  H   UNL     1      47.558  29.412  45.114  0.00  0.00    +0.000 HD
ATOM     36  H   UNL     1      48.938  31.944  49.140  0.00  0.00    +0.000 HD
BRANCH  31  37
ATOM     37  N   UNL     1      47.111  31.076  49.659  0.00  0.00    +0.000 NA
ATOM     38  C   UNL     1      46.176  30.105  49.225  0.00  0.00    +0.000 C 
ATOM     39  H   UNL     1      46.318  29.931  48.133  0.00  0.00    +0.000 HD
ATOM     40  C   UNL     1      44.734  30.486  49.408  0.00  0.00    +0.000 C 
ATOM     41  H   UNL     1      44.132  29.549  49.391  0.00  0.00    +0.000 HD
ATOM     42  N   UNL     1      44.485  31.145  50.672  0.00  0.00    +0.000 NA
ATOM     43  H   UNL     1      44.852  30.561  51.457  0.00  0.00    +0.000 HD
ATOM     44  C   UNL     1      45.280  32.368  50.666  0.00  0.00    +0.000 C 
ATOM     45  C   UNL     1      46.727  31.933  50.720  0.00  0.00    +0.000 C 
ENDBRANCH  31  37
ENDBRANCH   5  25
TORSDOF 3
