REMARK  Name = 
REMARK  4 active torsions:
REMARK  status: ('A' for Active; 'I' for Inactive)
REMARK    1  A    between atoms: C_1  and  C_11
REMARK    2  A    between atoms: C_5  and  C_14
REMARK    3  A    between atoms: C_15  and  C_16
REMARK    4  A    between atoms: C_16  and  N_28
REMARK                            x       y       z     vdW  Elec       q    Type
REMARK                         _______ _______ _______ _____ _____    ______ ____
ROOT
ATOM      1  C   UNL     1      46.163  32.553  47.014  0.00  0.00    +0.000 A 
ATOM      2  C   UNL     1      45.242  32.572  48.000  0.00  0.00    +0.000 A 
ATOM      3  C   UNL     1      45.428  31.766  49.108  0.00  0.00    +0.000 A 
ATOM      4  C   UNL     1      46.557  30.951  49.188  0.00  0.00    +0.000 A 
ATOM      5  C   UNL     1      47.499  30.959  48.135  0.00  0.00    +0.000 A 
ATOM      6  N   UNL     1      47.260  31.742  47.123  0.00  0.00    +0.000 NA
ATOM      7  H   UNL     1      44.389  33.227  47.873  0.00  0.00    +0.000 HD
ATOM      8  H   UNL     1      44.679  31.808  49.867  0.00  0.00    +0.000 HD
ATOM      9  H   UNL     1      46.707  30.314  50.066  0.00  0.00    +0.000 HD
ENDROOT
BRANCH   1  14
ATOM     10  C   UNL     1      44.974  34.986  44.553  0.00  0.00    +0.000 A 
ATOM     11  C   UNL     1      45.940  34.847  43.532  0.00  0.00    +0.000 A 
ATOM     12  C   UNL     1      46.986  33.931  43.681  0.00  0.00    +0.000 A 
ATOM     13  N   UNL     1      46.969  33.247  44.826  0.00  0.00    +0.000 NA
ATOM     14  C   UNL     1      46.074  33.367  45.788  0.00  0.00    +0.000 A 
ATOM     15  N   UNL     1      45.060  34.245  45.658  0.00  0.00    +0.000 NA
ATOM     16  N   UNL     1      43.908  35.929  44.379  0.00  0.00    +0.000 N 
ATOM     17  H   UNL     1      45.837  35.467  42.650  0.00  0.00    +0.000 HD
ATOM     18  H   UNL     1      47.688  33.855  42.895  0.00  0.00    +0.000 HD
ATOM     19  H   UNL     1      43.699  36.877  44.733  0.00  0.00    +0.000 HD
ATOM     20  H   UNL     1      43.313  35.373  43.727  0.00  0.00    +0.000 HD
ENDBRANCH   1  14
BRANCH   5  21
ATOM     21  C   UNL     1      48.682  30.125  48.188  0.00  0.00    +0.000 C 
ATOM     22  C   UNL     1      49.770  30.485  48.847  0.00  0.00    +0.000 C 
BRANCH  22  23
ATOM     23  C   UNL     1      49.892  31.765  49.592  0.00  0.00    +0.000 C 
ATOM     24  H   UNL     1      50.050  31.550  50.647  0.00  0.00    +0.000 HD
ATOM     25  H   UNL     1      48.920  32.315  49.483  0.00  0.00    +0.000 HD
BRANCH  23  26
ATOM     26  N   UNL     1      51.005  32.482  49.003  0.00  0.00    +0.000 NA
ATOM     27  C   UNL     1      51.666  31.713  47.941  0.00  0.00    +0.000 C 
ATOM     28  H   UNL     1      50.875  31.251  47.347  0.00  0.00    +0.000 HD
ATOM     29  C   UNL     1      52.463  32.772  47.173  0.00  0.00    +0.000 C 
ATOM     30  H   UNL     1      53.238  32.340  46.541  0.00  0.00    +0.000 HD
ATOM     31  N   UNL     1      52.935  33.791  48.103  0.00  0.00    +0.000 NA
ATOM     32  H   UNL     1      52.247  34.562  48.182  0.00  0.00    +0.000 HD
ATOM     33  C   UNL     1      53.216  33.227  49.420  0.00  0.00    +0.000 C 
ATOM     34  C   UNL     1      51.983  32.669  50.090  0.00  0.00    +0.000 C 
ENDBRANCH  23  26
ENDBRANCH  22  23
ENDBRANCH   5  21
TORSDOF 4
