
 OpenBabel03242521093D

 19 20  0  0  1  0  0  0  0  0999 V2000
   46.6190   32.5310   46.3440 S   0  0  0  0  0  0  0  0  0  0  0  0
   44.5420   35.6230   44.8200 C   0  0  0  0  0  0  0  0  0  0  0  0
   45.1180   35.7230   43.5330 C   0  0  0  0  0  0  0  0  0  0  0  0
   46.1280   34.8260   43.1900 C   0  0  0  0  0  0  0  0  0  0  0  0
   46.4910   33.9160   44.1170 N   0  0  0  0  0  0  0  0  0  0  0  0
   45.9330   33.8320   45.3420 C   0  0  0  0  0  0  0  0  0  0  0  0
   44.9630   34.6860   45.6850 N   0  0  0  0  0  0  0  0  0  0  0  0
   43.7750   36.3160   45.0600 H   0  0  0  0  0  0  0  0  0  0  0  0
   44.8480   36.4340   42.7820 H   0  0  0  0  0  0  0  0  0  0  0  0
   46.5950   34.8710   42.2100 H   0  0  0  0  0  0  0  0  0  0  0  0
   44.1710   32.8150   47.5230 H   0  0  0  0  0  0  0  0  0  0  0  0
   44.7250   32.1800   48.1240 N   0  0  0  0  0  0  0  0  0  0  0  0
   46.1080   32.6380   48.0780 C   0  0  1  0  0  0  0  0  0  0  0  0
   46.9060   31.6430   48.9240 C   0  0  0  0  0  0  0  0  0  0  0  0
   47.4320   32.1700   49.7690 H   0  0  0  0  0  0  0  0  0  0  0  0
   46.0620   30.6500   49.5510 N   0  0  0  0  0  0  0  0  0  0  0  0
   45.3800   31.1720   50.1680 H   0  0  0  0  0  0  0  0  0  0  0  0
   45.2790   29.9090   48.5870 C   0  0  0  0  0  0  0  0  0  0  0  0
   44.7200   30.8420   47.5500 C   0  0  0  0  0  0  0  0  0  0  0  0
  2  8  1  0  0  0  0
  2  7  1  0  0  0  0
  3  2  2  0  0  0  0
  4  3  1  0  0  0  0
  4  5  2  0  0  0  0
  5  6  1  0  0  0  0
  6  7  2  0  0  0  0
  6  1  1  0  0  0  0
  9  3  1  0  0  0  0
 10  4  1  0  0  0  0
 11 12  1  0  0  0  0
 13  1  1  6  0  0  0
 13 12  1  0  0  0  0
 13 14  1  0  0  0  0
 14 16  1  0  0  0  0
 14 15  1  0  0  0  0
 16 17  1  0  0  0  0
 18 16  1  0  0  0  0
 19 12  1  0  0  0  0
 19 18  1  0  0  0  0
M  END
>  <minimizedAffinity>
-4.67485619

>  <minimizedRMSD>
2.72253156

$$$$
