
     RDKit          3D

 51 55  0  0  0  0  0  0  0  0999 V2000
   44.1465   34.8458   42.5984 C   0  0  0  0  0  0  0  0  0  0  0  0
   43.3893   34.0806   41.7309 C   0  0  0  0  0  0  0  0  0  0  0  0
   43.4722   32.7041   41.8518 C   0  0  0  0  0  0  0  0  0  0  0  0
   44.2743   32.1519   42.7949 N   0  0  0  0  0  0  0  0  0  0  0  0
   44.9995   32.9221   43.6252 C   0  0  0  0  0  0  0  0  0  0  0  0
   44.9352   34.2583   43.5266 N   0  0  0  0  0  0  0  0  0  0  0  0
   42.5948   34.7906   40.7938 N   0  0  0  0  0  0  0  0  0  0  0  0
   42.8419   34.5428   39.4004 C   0  0  0  0  0  0  0  0  0  0  0  0
   42.0432   35.3997   38.4867 C   0  0  0  0  0  0  0  0  0  0  0  0
   40.6557   35.4370   38.8452 N   0  0  0  0  0  0  0  0  0  0  0  0
   40.3334   35.4698   40.2240 C   0  0  0  0  0  0  0  0  0  0  0  0
   41.5561   35.7427   41.0665 C   0  0  0  0  0  0  0  0  0  0  0  0
   46.3693   31.0482   44.4274 C   0  0  0  0  0  0  0  0  0  0  0  0
   45.8586   32.2932   44.6360 C   0  0  0  0  0  0  0  0  0  0  0  0
   46.1708   32.9337   45.8111 C   0  0  0  0  0  0  0  0  0  0  0  0
   46.9764   32.3330   46.7490 C   0  0  0  0  0  0  0  0  0  0  0  0
   47.4934   31.0542   46.5204 C   0  0  0  0  0  0  0  0  0  0  0  0
   47.1868   30.3936   45.3371 C   0  0  0  0  0  0  0  0  0  0  0  0
   48.2669   30.6962   47.6243 O   0  0  0  0  0  0  0  0  0  0  0  0
   47.9840   31.6184   48.6734 C   0  0  1  0  0  0  0  0  0  0  0  0
   47.4466   32.7353   47.9960 O   0  0  0  0  0  0  0  0  0  0  0  0
   44.1617   35.9239   42.5970 H   0  0  0  0  0  0  0  0  0  0  0  0
   42.8746   32.1236   41.1667 H   0  0  0  0  0  0  0  0  0  0  0  0
   43.9159   34.7389   39.2065 H   0  0  0  0  0  0  0  0  0  0  0  0
   42.6793   33.4545   39.2204 H   0  0  0  0  0  0  0  0  0  0  0  0
   42.4882   36.4196   38.4901 H   0  0  0  0  0  0  0  0  0  0  0  0
   42.1317   35.0111   37.4533 H   0  0  0  0  0  0  0  0  0  0  0  0
   40.0500   34.8183   38.2653 H   0  0  0  0  0  0  0  0  0  0  0  0
   39.5209   36.1584   40.4803 H   0  0  0  0  0  0  0  0  0  0  0  0
   39.9640   34.4507   40.5075 H   0  0  0  0  0  0  0  0  0  0  0  0
   41.9670   36.7510   40.8354 H   0  0  0  0  0  0  0  0  0  0  0  0
   41.3019   35.7751   42.1458 H   0  0  0  0  0  0  0  0  0  0  0  0
   46.1437   30.5126   43.5105 H   0  0  0  0  0  0  0  0  0  0  0  0
   45.7564   33.9268   45.9646 H   0  0  0  0  0  0  0  0  0  0  0  0
   47.5579   29.4117   45.1136 H   0  0  0  0  0  0  0  0  0  0  0  0
   48.9382   31.9435   49.1399 H   0  0  0  0  0  0  0  0  0  0  0  0
   47.1114   31.0755   49.6591 N   0  0  0  0  0  0  0  0  0  0  0  0
   45.8296   30.6594   49.2235 C   0  0  1  0  0  0  0  0  0  0  0  0
   45.7479   30.8340   48.1257 H   0  0  0  0  0  0  0  0  0  0  0  0
   44.6772   31.3877   49.8544 C   0  0  2  0  0  0  0  0  0  0  0  0
   43.7689   30.7535   49.7337 H   0  0  0  0  0  0  0  0  0  0  0  0
   44.8665   31.6173   51.2695 N   0  0  0  0  0  0  0  0  0  0  0  0
   45.0877   30.7162   51.7510 H   0  0  0  0  0  0  0  0  0  0  0  0
   46.0553   32.4523   51.3988 C   0  0  0  0  0  0  0  0  0  0  0  0
   47.2242   31.5930   50.9735 C   0  0  0  0  0  0  0  0  0  0  0  0
   45.6762   29.5588   49.3501 H   0  0  0  0  0  0  0  0  0  0  0  0
   44.4467   32.3655   49.3913 H   0  0  0  0  0  0  0  0  0  0  0  0
   45.9331   33.3377   50.7421 H   0  0  0  0  0  0  0  0  0  0  0  0
   46.2360   32.7371   52.4532 H   0  0  0  0  0  0  0  0  0  0  0  0
   47.2155   30.7069   51.6721 H   0  0  0  0  0  0  0  0  0  0  0  0
   48.1596   32.1368   51.0988 H   0  0  0  0  0  0  0  0  0  0  0  0
  1  6  2  0
  2  3  2  0
  2  1  1  0
  3  4  1  0
  4  5  2  0
  5 14  1  0
  6  5  1  0
  7 12  1  0
  7  2  1  0
  8  7  1  0
  9 10  1  0
  9  8  1  0
 10 11  1  0
 11 12  1  0
 13 14  2  0
 13 18  1  0
 14 15  1  0
 15 16  2  0
 16 21  1  0
 17 16  1  0
 17 19  1  0
 18 17  2  0
 19 20  1  0
 21 20  1  0
  1 22  1  0
  3 23  1  0
  8 24  1  0
  8 25  1  0
  9 26  1  0
  9 27  1  0
 10 28  1  0
 11 29  1  0
 11 30  1  0
 12 31  1  0
 12 32  1  0
 13 33  1  0
 15 34  1  0
 18 35  1  0
 20 36  1  1
 37 38  1  0
 38 39  1  6
 38 40  1  0
 40 41  1  1
 40 42  1  0
 42 43  1  0
 42 44  1  0
 44 45  1  0
 45 37  1  0
 38 46  1  0
 40 47  1  0
 44 48  1  0
 44 49  1  0
 45 50  1  0
 45 51  1  0
 20 37  1  0
M  ISO  8  22  14  23  14  24  13  25  13  26  13  27  13  28   5  29  13
M  ISO  8  30  13  31  13  32  13  33  14  34  14  35  14  36  13  39   8
M  ISO  2  41   8  43   5
M  END
>  <DihAtoms>  (1) 
18,19,36,37

>  <DihDeg>  (1) 
179.99981663273945

$$$$
