
     RDKit          3D

 42 44  0  0  0  0  0  0  0  0999 V2000
   46.1627   32.5528   47.0138 C   0  0  0  0  0  0  0  0  0  0  0  0
   45.2422   32.5716   48.0003 C   0  0  0  0  0  0  0  0  0  0  0  0
   45.4278   31.7659   49.1078 C   0  0  0  0  0  0  0  0  0  0  0  0
   46.5574   30.9510   49.1882 C   0  0  0  0  0  0  0  0  0  0  0  0
   47.4987   30.9591   48.1346 C   0  0  0  0  0  0  0  0  0  0  0  0
   47.2597   31.7419   47.1225 N   0  0  0  0  0  0  0  0  0  0  0  0
   44.9740   34.9862   44.5531 C   0  0  0  0  0  0  0  0  0  0  0  0
   45.9402   34.8473   43.5320 C   0  0  0  0  0  0  0  0  0  0  0  0
   46.9861   33.9314   43.6814 C   0  0  0  0  0  0  0  0  0  0  0  0
   46.9692   33.2470   44.8259 N   0  0  0  0  0  0  0  0  0  0  0  0
   46.0737   33.3671   45.7876 C   0  0  0  0  0  0  0  0  0  0  0  0
   45.0596   34.2452   45.6578 N   0  0  0  0  0  0  0  0  0  0  0  0
   43.9077   35.9293   44.3792 N   0  0  0  0  0  0  0  0  0  0  0  0
   48.6820   30.1248   48.1884 C   0  0  0  0  0  0  0  0  0  0  0  0
   49.7704   30.4846   48.8468 C   0  0  0  0  0  0  0  0  0  0  0  0
   49.8915   31.7648   49.5916 C   0  0  0  0  0  0  0  0  0  0  0  0
   44.3891   33.2270   47.8735 H   0  0  0  0  0  0  0  0  0  0  0  0
   44.6793   31.8080   49.8674 H   0  0  0  0  0  0  0  0  0  0  0  0
   46.7068   30.3138   50.0661 H   0  0  0  0  0  0  0  0  0  0  0  0
   45.8366   35.4670   42.6502 H   0  0  0  0  0  0  0  0  0  0  0  0
   47.6875   33.8547   42.8946 H   0  0  0  0  0  0  0  0  0  0  0  0
   43.6988   36.8765   44.7328 H   0  0  0  0  0  0  0  0  0  0  0  0
   43.3128   35.3728   43.7269 H   0  0  0  0  0  0  0  0  0  0  0  0
   48.8065   29.1417   47.7125 H   0  0  0  0  0  0  0  0  0  0  0  0
   50.6823   29.8938   48.9159 H   0  0  0  0  0  0  0  0  0  0  0  0
   50.0505   31.5504   50.6467 H   0  0  0  0  0  0  0  0  0  0  0  0
   48.9200   32.3147   49.4825 H   0  0  0  0  0  0  0  0  0  0  0  0
   51.0054   32.4822   49.0028 N   0  0  0  0  0  0  0  0  0  0  0  0
   51.6662   31.7132   47.9415 C   0  0  2  0  0  0  0  0  0  0  0  0
   50.8751   31.2507   47.3467 H   0  0  0  0  0  0  0  0  0  0  0  0
   52.4630   32.7721   47.1731 C   0  0  1  0  0  0  0  0  0  0  0  0
   53.2380   32.3405   46.5407 H   0  0  0  0  0  0  0  0  0  0  0  0
   52.9352   33.7909   48.1026 N   0  0  0  0  0  0  0  0  0  0  0  0
   52.2468   34.5617   48.1816 H   0  0  0  0  0  0  0  0  0  0  0  0
   53.2157   33.2271   49.4200 C   0  0  0  0  0  0  0  0  0  0  0  0
   51.9831   32.6692   50.0897 C   0  0  0  0  0  0  0  0  0  0  0  0
   52.3703   30.9559   48.3257 H   0  0  0  0  0  0  0  0  0  0  0  0
   51.7011   33.2841   46.5183 H   0  0  0  0  0  0  0  0  0  0  0  0
   53.9637   32.4035   49.2148 H   0  0  0  0  0  0  0  0  0  0  0  0
   53.6481   34.0091   50.0430 H   0  0  0  0  0  0  0  0  0  0  0  0
   51.5197   33.3169   50.8418 H   0  0  0  0  0  0  0  0  0  0  0  0
   52.1772   31.6524   50.5094 H   0  0  0  0  0  0  0  0  0  0  0  0
  1  6  1  0
  1  2  2  0
  2  3  1  0
  3  4  2  0
  5 14  1  0
  5  4  1  0
  6  5  2  0
  7 12  2  0
  8  9  2  0
  8  7  1  0
  9 10  1  0
 10 11  2  0
 11  1  1  0
 12 11  1  0
 13  7  1  0
 14 15  2  0
 15 16  1  0
  2 17  1  0
  3 18  1  0
  4 19  1  0
  8 20  1  0
  9 21  1  0
 13 22  1  0
 13 23  1  0
 14 24  1  0
 15 25  1  0
 16 26  1  0
 16 27  1  0
 28 29  1  0
 29 30  1  6
 29 31  1  0
 31 32  1  6
 31 33  1  0
 33 34  1  0
 33 35  1  0
 35 36  1  0
 36 28  1  0
 29 37  1  0
 31 38  1  0
 35 39  1  0
 35 40  1  0
 36 41  1  0
 36 42  1  0
 16 28  1  0
M  ISO  8  17  14  18  14  19  14  20  14  21  14  26   8  27   8  30   8
M  ISO  2  32   8  34   5
M  END
>  <DihAtoms>  (1) 
14,15,27,28

>  <DihDeg>  (1) 
-167.51090955352507

$$$$
