
 OpenBabel03242516233D

 29 31  0  0  1  0  0  0  0  0999 V2000
   38.4420   30.8670   41.0060 C   0  0  0  0  0  0  0  0  0  0  0  0
   39.6070   31.4810   40.5510 C   0  0  0  0  0  0  0  0  0  0  0  0
   39.5240   32.5730   39.7010 C   0  0  0  0  0  0  0  0  0  0  0  0
   38.3110   33.0790   39.2830 C   0  0  0  0  0  0  0  0  0  0  0  0
   37.1750   32.4830   39.7240 C   0  0  0  0  0  0  0  0  0  0  0  0
   37.2430   31.3940   40.5730 C   0  0  0  0  0  0  0  0  0  0  0  0
   40.5360   31.0400   40.9130 H   0  0  0  0  0  0  0  0  0  0  0  0
   38.3590   33.9410   38.6130 H   0  0  0  0  0  0  0  0  0  0  0  0
   36.2390   32.9030   39.3800 H   0  0  0  0  0  0  0  0  0  0  0  0
   36.3360   30.9150   40.9280 H   0  0  0  0  0  0  0  0  0  0  0  0
   37.4050   28.3440   43.4340 C   0  0  0  0  0  0  0  0  0  0  0  0
   38.5620   27.5680   43.6220 C   0  0  0  0  0  0  0  0  0  0  0  0
   39.7050   27.9130   42.9090 C   0  0  0  0  0  0  0  0  0  0  0  0
   39.6450   28.9810   42.0720 N   0  0  0  0  0  0  0  0  0  0  0  0
   38.5190   29.7170   41.9050 C   0  0  0  0  0  0  0  0  0  0  0  0
   37.3980   29.3950   42.5900 N   0  0  0  0  0  0  0  0  0  0  0  0
   36.5590   28.0150   44.0200 H   0  0  0  0  0  0  0  0  0  0  0  0
   38.6570   26.7180   44.2700 H   0  0  0  0  0  0  0  0  0  0  0  0
   40.6720   27.4320   42.9290 H   0  0  0  0  0  0  0  0  0  0  0  0
   41.0530   33.3060   39.1540 S   0  0  0  0  0  0  0  0  0  0  0  0
   42.5290   33.7810   35.9260 H   0  0  0  0  0  0  0  0  0  0  0  0
   42.2770   33.9260   36.9220 N   0  0  0  0  0  0  0  0  0  0  0  0
   41.3530   32.9160   37.3860 C   0  0  1  0  0  3  0  0  0  0  0  0
   41.8320   31.5270   37.2210 C   0  0  0  0  0  3  0  0  0  0  0  0
   41.5030   30.9150   38.0850 H   0  0  0  0  0  0  0  0  0  0  0  0
   43.2290   31.3480   37.0340 N   0  0  0  0  0  0  0  0  0  0  0  0
   43.6350   30.5000   37.4920 H   0  0  0  0  0  0  0  0  0  0  0  0
   44.0930   32.4470   37.2110 C   0  0  0  0  0  2  0  0  0  0  0  0
   43.4920   33.7120   37.7290 C   0  0  0  0  0  2  0  0  0  0  0  0
  1 15  1  0  0  0  0
  2  7  1  0  0  0  0
  2  1  2  0  0  0  0
  3  2  1  0  0  0  0
  4  3  2  0  0  0  0
  4  5  1  0  0  0  0
  5  6  2  0  0  0  0
  6 10  1  0  0  0  0
  6  1  1  0  0  0  0
  8  4  1  0  0  0  0
  9  5  1  0  0  0  0
 11 12  1  0  0  0  0
 11 17  1  0  0  0  0
 12 18  1  0  0  0  0
 13 19  1  0  0  0  0
 13 12  2  0  0  0  0
 14 13  1  0  0  0  0
 15 14  2  0  0  0  0
 15 16  1  0  0  0  0
 16 11  2  0  0  0  0
 20  3  1  0  0  0  0
 21 22  1  0  0  0  0
 22 23  1  0  0  0  0
 22 29  1  0  0  0  0
 23 20  1  1  0  0  0
 24 23  1  0  0  0  0
 24 25  1  0  0  0  0
 26 28  1  0  0  0  0
 26 24  1  0  0  0  0
 26 27  1  0  0  0  0
 28 29  1  0  0  0  0
M  END
>  <minimizedAffinity>
-5.32660675

$$$$

 OpenBabel03242516233D

 29 31  0  0  1  0  0  0  0  0999 V2000
   37.2470   26.6540   41.6480 C   0  0  0  0  0  0  0  0  0  0  0  0
   36.8210   27.8530   41.0810 C   0  0  0  0  0  0  0  0  0  0  0  0
   36.9700   29.0390   41.7820 C   0  0  0  0  0  0  0  0  0  0  0  0
   37.5320   29.0750   43.0410 C   0  0  0  0  0  0  0  0  0  0  0  0
   37.9470   27.9090   43.5970 C   0  0  0  0  0  0  0  0  0  0  0  0
   37.8060   26.7190   42.9090 C   0  0  0  0  0  0  0  0  0  0  0  0
   36.3850   27.7650   40.0850 H   0  0  0  0  0  0  0  0  0  0  0  0
   37.6010   30.0620   43.5050 H   0  0  0  0  0  0  0  0  0  0  0  0
   38.3840   27.9700   44.5850 H   0  0  0  0  0  0  0  0  0  0  0  0
   38.1370   25.7850   43.3500 H   0  0  0  0  0  0  0  0  0  0  0  0
   36.2150   24.3130   39.0440 C   0  0  0  0  0  0  0  0  0  0  0  0
   36.7580   23.0870   39.4640 C   0  0  0  0  0  0  0  0  0  0  0  0
   37.4840   23.0650   40.6500 C   0  0  0  0  0  0  0  0  0  0  0  0
   37.6290   24.2260   41.3390 N   0  0  0  0  0  0  0  0  0  0  0  0
   37.0970   25.3980   40.9160 C   0  0  0  0  0  0  0  0  0  0  0  0
   36.3880   25.4380   39.7650 N   0  0  0  0  0  0  0  0  0  0  0  0
   35.6650   24.2510   38.1140 H   0  0  0  0  0  0  0  0  0  0  0  0
   36.6710   22.1470   38.9550 H   0  0  0  0  0  0  0  0  0  0  0  0
   37.9680   22.2190   41.1180 H   0  0  0  0  0  0  0  0  0  0  0  0
   36.3990   30.5340   40.9980 S   0  0  0  0  0  0  0  0  0  0  0  0
   39.4620   31.2640   39.2920 H   0  0  0  0  0  0  0  0  0  0  0  0
   38.6310   30.7510   39.6440 N   0  0  0  0  0  0  0  0  0  0  0  0
   37.8230   31.5830   40.5070 C   0  0  1  0  0  3  0  0  0  0  0  0
   37.3660   32.8450   39.8870 C   0  0  0  0  0  3  0  0  0  0  0  0
   36.3400   33.0790   40.2330 H   0  0  0  0  0  0  0  0  0  0  0  0
   37.4030   32.9130   38.4690 N   0  0  0  0  0  0  0  0  0  0  0  0
   36.6140   33.4380   38.0280 H   0  0  0  0  0  0  0  0  0  0  0  0
   37.6710   31.7420   37.7300 C   0  0  0  0  0  2  0  0  0  0  0  0
   37.7600   30.4610   38.4910 C   0  0  0  0  0  2  0  0  0  0  0  0
  1  6  1  0  0  0  0
  2  1  2  0  0  0  0
  2  3  1  0  0  0  0
  3  4  2  0  0  0  0
  4  8  1  0  0  0  0
  4  5  1  0  0  0  0
  5  9  1  0  0  0  0
  6 10  1  0  0  0  0
  6  5  2  0  0  0  0
  7  2  1  0  0  0  0
 11 12  2  0  0  0  0
 11 16  1  0  0  0  0
 12 13  1  0  0  0  0
 13 19  1  0  0  0  0
 13 14  2  0  0  0  0
 15 14  1  0  0  0  0
 15  1  1  0  0  0  0
 16 15  2  0  0  0  0
 17 11  1  0  0  0  0
 18 12  1  0  0  0  0
 20  3  1  0  0  0  0
 21 22  1  0  0  0  0
 22 23  1  0  0  0  0
 23 20  1  6  0  0  0
 24 25  1  0  0  0  0
 24 23  1  0  0  0  0
 26 24  1  0  0  0  0
 27 26  1  0  0  0  0
 28 26  1  0  0  0  0
 28 29  1  0  0  0  0
 29 22  1  0  0  0  0
M  END
>  <minimizedAffinity>
-5.19542217

$$$$

 OpenBabel03242516233D

 29 31  0  0  1  0  0  0  0  0999 V2000
   37.4010   28.0960   41.2660 C   0  0  0  0  0  0  0  0  0  0  0  0
   38.3830   29.0570   41.0400 C   0  0  0  0  0  0  0  0  0  0  0  0
   38.0190   30.3440   40.6760 C   0  0  0  0  0  0  0  0  0  0  0  0
   36.6980   30.7110   40.5250 C   0  0  0  0  0  0  0  0  0  0  0  0
   35.7390   29.7770   40.7440 C   0  0  0  0  0  0  0  0  0  0  0  0
   36.0870   28.4900   41.1090 C   0  0  0  0  0  0  0  0  0  0  0  0
   39.4090   28.7120   41.1740 H   0  0  0  0  0  0  0  0  0  0  0  0
   36.5220   31.7490   40.2350 H   0  0  0  0  0  0  0  0  0  0  0  0
   34.7120   30.0950   40.6190 H   0  0  0  0  0  0  0  0  0  0  0  0
   35.3220   27.7410   41.2850 H   0  0  0  0  0  0  0  0  0  0  0  0
   39.3850   25.3460   42.6220 C   0  0  0  0  0  0  0  0  0  0  0  0
   38.5710   24.2180   42.4210 C   0  0  0  0  0  0  0  0  0  0  0  0
   37.3320   24.4040   41.8160 C   0  0  0  0  0  0  0  0  0  0  0  0
   36.9750   25.6620   41.4510 N   0  0  0  0  0  0  0  0  0  0  0  0
   37.7750   26.7370   41.6540 C   0  0  0  0  0  0  0  0  0  0  0  0
   38.9830   26.5750   42.2410 N   0  0  0  0  0  0  0  0  0  0  0  0
   40.3300   25.1230   43.0970 H   0  0  0  0  0  0  0  0  0  0  0  0
   38.8100   23.2080   42.6910 H   0  0  0  0  0  0  0  0  0  0  0  0
   36.5860   23.6570   41.5870 H   0  0  0  0  0  0  0  0  0  0  0  0
   39.3280   31.5210   40.3980 S   0  0  0  0  0  0  0  0  0  0  0  0
   39.5920   34.4920   38.4170 H   0  0  0  0  0  0  0  0  0  0  0  0
   39.7470   33.7980   39.1730 N   0  0  0  0  0  0  0  0  0  0  0  0
   38.8960   32.6410   39.0100 C   0  0  1  0  0  3  0  0  0  0  0  0
   39.0400   31.9550   37.7080 C   0  0  0  0  0  3  0  0  0  0  0  0
   38.9470   30.8600   37.8530 H   0  0  0  0  0  0  0  0  0  0  0  0
   40.2220   32.2250   36.9680 N   0  0  0  0  0  0  0  0  0  0  0  0
   40.6160   31.4100   36.4450 H   0  0  0  0  0  0  0  0  0  0  0  0
   41.2650   32.9520   37.5780 C   0  0  0  0  0  2  0  0  0  0  0  0
   41.1160   33.2730   39.0290 C   0  0  0  0  0  2  0  0  0  0  0  0
  1 15  1  0  0  0  0
  2  7  1  0  0  0  0
  2  1  2  0  0  0  0
  3  2  1  0  0  0  0
  4  3  2  0  0  0  0
  4  5  1  0  0  0  0
  5  6  2  0  0  0  0
  6  1  1  0  0  0  0
  6 10  1  0  0  0  0
  8  4  1  0  0  0  0
  9  5  1  0  0  0  0
 11 17  1  0  0  0  0
 12 11  1  0  0  0  0
 12 18  1  0  0  0  0
 13 12  2  0  0  0  0
 14 15  2  0  0  0  0
 14 13  1  0  0  0  0
 15 16  1  0  0  0  0
 16 11  2  0  0  0  0
 19 13  1  0  0  0  0
 20  3  1  0  0  0  0
 21 22  1  0  0  0  0
 23 22  1  0  0  0  0
 23 20  1  1  0  0  0
 24 25  1  0  0  0  0
 24 23  1  0  0  0  0
 26 28  1  0  0  0  0
 26 24  1  0  0  0  0
 27 26  1  0  0  0  0
 28 29  1  0  0  0  0
 29 22  1  0  0  0  0
M  END
>  <minimizedAffinity>
-5.1859231

$$$$

 OpenBabel03242516233D

 29 31  0  0  1  0  0  0  0  0999 V2000
   37.3520   27.1190   41.5770 C   0  0  0  0  0  0  0  0  0  0  0  0
   38.1940   28.1040   41.0660 C   0  0  0  0  0  0  0  0  0  0  0  0
   38.5850   29.1630   41.8700 C   0  0  0  0  0  0  0  0  0  0  0  0
   38.1640   29.2770   43.1780 C   0  0  0  0  0  0  0  0  0  0  0  0
   37.3440   28.3200   43.6790 C   0  0  0  0  0  0  0  0  0  0  0  0
   36.9460   27.2580   42.8890 C   0  0  0  0  0  0  0  0  0  0  0  0
   38.4960   27.9620   40.0270 H   0  0  0  0  0  0  0  0  0  0  0  0
   38.5310   30.1510   43.7220 H   0  0  0  0  0  0  0  0  0  0  0  0
   37.0310   28.4370   44.7080 H   0  0  0  0  0  0  0  0  0  0  0  0
   36.2910   26.4900   43.2870 H   0  0  0  0  0  0  0  0  0  0  0  0
   36.5550   23.6960   40.5860 C   0  0  0  0  0  0  0  0  0  0  0  0
   36.1670   23.8210   39.2420 C   0  0  0  0  0  0  0  0  0  0  0  0
   36.1780   25.0890   38.6720 C   0  0  0  0  0  0  0  0  0  0  0  0
   36.5650   26.1390   39.4420 N   0  0  0  0  0  0  0  0  0  0  0  0
   36.9360   25.9970   40.7380 C   0  0  0  0  0  0  0  0  0  0  0  0
   36.9300   24.7700   41.3080 N   0  0  0  0  0  0  0  0  0  0  0  0
   36.5200   22.6810   40.9590 H   0  0  0  0  0  0  0  0  0  0  0  0
   35.8550   23.0240   38.5950 H   0  0  0  0  0  0  0  0  0  0  0  0
   35.9130   25.3670   37.6620 H   0  0  0  0  0  0  0  0  0  0  0  0
   39.6590   30.3890   41.1490 S   0  0  0  0  0  0  0  0  0  0  0  0
   39.1200   33.9260   41.2900 H   0  0  0  0  0  0  0  0  0  0  0  0
   39.5490   32.9910   41.4270 N   0  0  0  0  0  0  0  0  0  0  0  0
   38.7370   31.9460   40.8460 C   0  0  1  0  0  3  0  0  0  0  0  0
   38.4520   32.1240   39.4050 C   0  0  0  0  0  3  0  0  0  0  0  0
   38.4550   31.1370   38.9010 H   0  0  0  0  0  0  0  0  0  0  0  0
   39.2990   33.0120   38.6890 N   0  0  0  0  0  0  0  0  0  0  0  0
   39.5200   32.7220   37.7080 H   0  0  0  0  0  0  0  0  0  0  0  0
   40.4600   33.5100   39.3140 C   0  0  0  0  0  2  0  0  0  0  0  0
   40.8040   32.9550   40.6560 C   0  0  0  0  0  2  0  0  0  0  0  0
  1  6  1  0  0  0  0
  2  1  2  0  0  0  0
  2  3  1  0  0  0  0
  3  4  2  0  0  0  0
  4  5  1  0  0  0  0
  4  8  1  0  0  0  0
  5  9  1  0  0  0  0
  6 10  1  0  0  0  0
  6  5  2  0  0  0  0
  7  2  1  0  0  0  0
 11 17  1  0  0  0  0
 11 16  1  0  0  0  0
 12 11  2  0  0  0  0
 13 12  1  0  0  0  0
 13 14  2  0  0  0  0
 14 15  1  0  0  0  0
 15 16  2  0  0  0  0
 15  1  1  0  0  0  0
 18 12  1  0  0  0  0
 19 13  1  0  0  0  0
 20  3  1  0  0  0  0
 21 22  1  0  0  0  0
 23 20  1  6  0  0  0
 23 22  1  0  0  0  0
 24 23  1  0  0  0  0
 25 24  1  0  0  0  0
 26 28  1  0  0  0  0
 26 24  1  0  0  0  0
 27 26  1  0  0  0  0
 28 29  1  0  0  0  0
 29 22  1  0  0  0  0
M  END
>  <minimizedAffinity>
-5.17102671

$$$$

 OpenBabel03242516233D

 29 31  0  0  1  0  0  0  0  0999 V2000
   37.4620   27.5030   40.9530 C   0  0  0  0  0  0  0  0  0  0  0  0
   37.4980   28.8850   41.1280 C   0  0  0  0  0  0  0  0  0  0  0  0
   36.7130   29.7020   40.3300 C   0  0  0  0  0  0  0  0  0  0  0  0
   35.8840   29.1880   39.3550 C   0  0  0  0  0  0  0  0  0  0  0  0
   35.8460   27.8430   39.1830 C   0  0  0  0  0  0  0  0  0  0  0  0
   36.6240   27.0150   39.9710 C   0  0  0  0  0  0  0  0  0  0  0  0
   38.1700   29.2350   41.9120 H   0  0  0  0  0  0  0  0  0  0  0  0
   35.3090   29.9200   38.7840 H   0  0  0  0  0  0  0  0  0  0  0  0
   35.1860   27.4690   38.4100 H   0  0  0  0  0  0  0  0  0  0  0  0
   36.5950   25.9390   39.8360 H   0  0  0  0  0  0  0  0  0  0  0  0
   39.1400   24.4860   42.1440 C   0  0  0  0  0  0  0  0  0  0  0  0
   39.8130   24.9150   43.3010 C   0  0  0  0  0  0  0  0  0  0  0  0
   39.6890   26.2480   43.6740 C   0  0  0  0  0  0  0  0  0  0  0  0
   38.9260   27.0660   42.9040 N   0  0  0  0  0  0  0  0  0  0  0  0
   38.2850   26.6330   41.7910 C   0  0  0  0  0  0  0  0  0  0  0  0
   38.3940   25.3390   41.4130 N   0  0  0  0  0  0  0  0  0  0  0  0
   39.2830   23.4390   41.9170 H   0  0  0  0  0  0  0  0  0  0  0  0
   40.4250   24.3080   43.9390 H   0  0  0  0  0  0  0  0  0  0  0  0
   40.1330   26.7450   44.5250 H   0  0  0  0  0  0  0  0  0  0  0  0
   36.8130   31.4600   40.6050 S   0  0  0  0  0  0  0  0  0  0  0  0
   37.3870   34.3250   38.5350 H   0  0  0  0  0  0  0  0  0  0  0  0
   37.1620   33.7390   39.3620 N   0  0  0  0  0  0  0  0  0  0  0  0
   37.1940   32.3310   39.0360 C   0  0  1  0  0  3  0  0  0  0  0  0
   38.4770   31.8650   38.4670 C   0  0  0  0  0  3  0  0  0  0  0  0
   38.7000   30.8450   38.8380 H   0  0  0  0  0  0  0  0  0  0  0  0
   39.6120   32.6930   38.6800 N   0  0  0  0  0  0  0  0  0  0  0  0
   40.5110   32.1830   38.8430 H   0  0  0  0  0  0  0  0  0  0  0  0
   39.5120   33.7830   39.5680 C   0  0  0  0  0  2  0  0  0  0  0  0
   38.2440   33.9150   40.3460 C   0  0  0  0  0  2  0  0  0  0  0  0
  1  2  1  0  0  0  0
  1 15  1  0  0  0  0
  2  7  1  0  0  0  0
  3 20  1  0  0  0  0
  3  2  2  0  0  0  0
  4  3  1  0  0  0  0
  5  4  2  0  0  0  0
  5  6  1  0  0  0  0
  6  1  2  0  0  0  0
  8  4  1  0  0  0  0
  9  5  1  0  0  0  0
 10  6  1  0  0  0  0
 11 12  1  0  0  0  0
 12 13  2  0  0  0  0
 12 18  1  0  0  0  0
 13 19  1  0  0  0  0
 14 13  1  0  0  0  0
 15 14  2  0  0  0  0
 16 15  1  0  0  0  0
 16 11  2  0  0  0  0
 17 11  1  0  0  0  0
 21 22  1  0  0  0  0
 22 29  1  0  0  0  0
 23 22  1  0  0  0  0
 23 20  1  1  0  0  0
 24 26  1  0  0  0  0
 24 25  1  0  0  0  0
 24 23  1  0  0  0  0
 26 27  1  0  0  0  0
 26 28  1  0  0  0  0
 28 29  1  0  0  0  0
M  END
>  <minimizedAffinity>
-5.14184046

$$$$

 OpenBabel03242516233D

 29 31  0  0  1  0  0  0  0  0999 V2000
   37.5370   30.7360   40.8050 C   0  0  0  0  0  0  0  0  0  0  0  0
   37.8500   29.6030   41.5530 C   0  0  0  0  0  0  0  0  0  0  0  0
   36.9350   28.5670   41.6510 C   0  0  0  0  0  0  0  0  0  0  0  0
   35.7070   28.6190   41.0250 C   0  0  0  0  0  0  0  0  0  0  0  0
   35.3990   29.7210   40.2960 C   0  0  0  0  0  0  0  0  0  0  0  0
   36.3020   30.7620   40.1890 C   0  0  0  0  0  0  0  0  0  0  0  0
   38.8330   29.6160   42.0250 H   0  0  0  0  0  0  0  0  0  0  0  0
   35.0620   27.7490   41.1670 H   0  0  0  0  0  0  0  0  0  0  0  0
   34.4290   29.7320   39.8170 H   0  0  0  0  0  0  0  0  0  0  0  0
   36.0590   31.6440   39.6060 H   0  0  0  0  0  0  0  0  0  0  0  0
   40.7380   32.4930   40.7550 C   0  0  0  0  0  0  0  0  0  0  0  0
   40.3810   33.8280   40.5010 C   0  0  0  0  0  0  0  0  0  0  0  0
   39.0310   34.1260   40.3460 C   0  0  0  0  0  0  0  0  0  0  0  0
   38.1310   33.1150   40.4490 N   0  0  0  0  0  0  0  0  0  0  0  0
   38.4970   31.8330   40.6940 C   0  0  0  0  0  0  0  0  0  0  0  0
   39.8050   31.5250   40.8470 N   0  0  0  0  0  0  0  0  0  0  0  0
   41.8030   32.3390   40.8620 H   0  0  0  0  0  0  0  0  0  0  0  0
   41.0540   34.6580   40.4120 H   0  0  0  0  0  0  0  0  0  0  0  0
   38.5820   35.0890   40.1490 H   0  0  0  0  0  0  0  0  0  0  0  0
   37.3990   27.1500   42.6270 S   0  0  0  0  0  0  0  0  0  0  0  0
   39.8290   25.3580   40.7030 H   0  0  0  0  0  0  0  0  0  0  0  0
   39.3890   26.0860   41.2980 N   0  0  0  0  0  0  0  0  0  0  0  0
   37.9950   25.7940   41.5440 C   0  0  1  0  0  3  0  0  0  0  0  0
   37.7460   24.4730   42.1600 C   0  0  0  0  0  3  0  0  0  0  0  0
   36.9090   24.5510   42.8820 H   0  0  0  0  0  0  0  0  0  0  0  0
   38.8500   23.8440   42.7970 N   0  0  0  0  0  0  0  0  0  0  0  0
   38.6170   23.3110   43.6660 H   0  0  0  0  0  0  0  0  0  0  0  0
   40.0420   24.5730   42.9860 C   0  0  0  0  0  2  0  0  0  0  0  0
   40.0200   26.0220   42.6280 C   0  0  0  0  0  2  0  0  0  0  0  0
  1  2  1  0  0  0  0
  2  3  2  0  0  0  0
  2  7  1  0  0  0  0
  3 20  1  0  0  0  0
  4  8  1  0  0  0  0
  4  3  1  0  0  0  0
  5  4  2  0  0  0  0
  6  5  1  0  0  0  0
  6  1  2  0  0  0  0
  9  5  1  0  0  0  0
 10  6  1  0  0  0  0
 11 16  1  0  0  0  0
 11 17  1  0  0  0  0
 12 11  2  0  0  0  0
 13 14  2  0  0  0  0
 13 12  1  0  0  0  0
 14 15  1  0  0  0  0
 15  1  1  0  0  0  0
 15 16  2  0  0  0  0
 18 12  1  0  0  0  0
 19 13  1  0  0  0  0
 21 22  1  0  0  0  0
 22 23  1  0  0  0  0
 22 29  1  0  0  0  0
 23 24  1  0  0  0  0
 23 20  1  1  0  0  0
 24 26  1  0  0  0  0
 24 25  1  0  0  0  0
 26 28  1  0  0  0  0
 26 27  1  0  0  0  0
 29 28  1  0  0  0  0
M  END
>  <minimizedAffinity>
-5.09894705

$$$$

 OpenBabel03242516233D

 29 31  0  0  1  0  0  0  0  0999 V2000
   37.7470   29.5340   41.7250 C   0  0  0  0  0  0  0  0  0  0  0  0
   37.5260   28.4590   40.8670 C   0  0  0  0  0  0  0  0  0  0  0  0
   37.2810   27.1980   41.3880 C   0  0  0  0  0  0  0  0  0  0  0  0
   37.2490   26.9670   42.7470 C   0  0  0  0  0  0  0  0  0  0  0  0
   37.4640   28.0110   43.5860 C   0  0  0  0  0  0  0  0  0  0  0  0
   37.7090   29.2740   43.0800 C   0  0  0  0  0  0  0  0  0  0  0  0
   37.5620   28.7000   39.8040 H   0  0  0  0  0  0  0  0  0  0  0  0
   37.0490   25.9370   43.0510 H   0  0  0  0  0  0  0  0  0  0  0  0
   37.4330   27.7980   44.6470 H   0  0  0  0  0  0  0  0  0  0  0  0
   37.8810   30.1110   43.7490 H   0  0  0  0  0  0  0  0  0  0  0  0
   37.2080   32.6490   39.8990 C   0  0  0  0  0  0  0  0  0  0  0  0
   38.3900   33.3750   40.1230 C   0  0  0  0  0  0  0  0  0  0  0  0
   39.3780   32.7910   40.9070 C   0  0  0  0  0  0  0  0  0  0  0  0
   39.1510   31.5510   41.4130 N   0  0  0  0  0  0  0  0  0  0  0  0
   38.0030   30.8670   41.1850 C   0  0  0  0  0  0  0  0  0  0  0  0
   37.0310   31.4210   40.4250 N   0  0  0  0  0  0  0  0  0  0  0  0
   36.4870   33.1680   39.2820 H   0  0  0  0  0  0  0  0  0  0  0  0
   38.6140   34.3540   39.7450 H   0  0  0  0  0  0  0  0  0  0  0  0
   40.3400   33.2010   41.1800 H   0  0  0  0  0  0  0  0  0  0  0  0
   37.0110   25.8690   40.2320 S   0  0  0  0  0  0  0  0  0  0  0  0
   35.5020   22.6460   40.6320 H   0  0  0  0  0  0  0  0  0  0  0  0
   35.7710   23.5620   40.2240 N   0  0  0  0  0  0  0  0  0  0  0  0
   36.6110   24.3170   41.1250 C   0  0  1  0  0  3  0  0  0  0  0  0
   37.8420   23.6140   41.5470 C   0  0  0  0  0  3  0  0  0  0  0  0
   38.6750   24.3390   41.6290 H   0  0  0  0  0  0  0  0  0  0  0  0
   38.2600   22.5170   40.7470 N   0  0  0  0  0  0  0  0  0  0  0  0
   39.2950   22.4160   40.6360 H   0  0  0  0  0  0  0  0  0  0  0  0
   37.6210   22.2830   39.5120 C   0  0  0  0  0  2  0  0  0  0  0  0
   36.6280   23.2990   39.0540 C   0  0  0  0  0  2  0  0  0  0  0  0
  1  6  1  0  0  0  0
  2  3  1  0  0  0  0
  2  1  2  0  0  0  0
  3  4  2  0  0  0  0
  4  8  1  0  0  0  0
  4  5  1  0  0  0  0
  5  9  1  0  0  0  0
  6  5  2  0  0  0  0
  6 10  1  0  0  0  0
  7  2  1  0  0  0  0
 11 12  2  0  0  0  0
 11 16  1  0  0  0  0
 12 13  1  0  0  0  0
 13 19  1  0  0  0  0
 13 14  2  0  0  0  0
 15 14  1  0  0  0  0
 15  1  1  0  0  0  0
 16 15  2  0  0  0  0
 17 11  1  0  0  0  0
 18 12  1  0  0  0  0
 20  3  1  0  0  0  0
 22 21  1  0  0  0  0
 22 23  1  0  0  0  0
 23 20  1  6  0  0  0
 23 24  1  0  0  0  0
 24 25  1  0  0  0  0
 26 24  1  0  0  0  0
 27 26  1  0  0  0  0
 28 26  1  0  0  0  0
 29 28  1  0  0  0  0
 29 22  1  0  0  0  0
M  END
>  <minimizedAffinity>
-5.0505867

$$$$

 OpenBabel03242516233D

 29 31  0  0  1  0  0  0  0  0999 V2000
   37.6470   28.7860   41.4500 C   0  0  0  0  0  0  0  0  0  0  0  0
   37.9200   29.9210   40.6890 C   0  0  0  0  0  0  0  0  0  0  0  0
   36.9100   30.5160   39.9510 C   0  0  0  0  0  0  0  0  0  0  0  0
   35.6250   30.0170   39.9410 C   0  0  0  0  0  0  0  0  0  0  0  0
   35.3550   28.9130   40.6810 C   0  0  0  0  0  0  0  0  0  0  0  0
   36.3520   28.3080   41.4230 C   0  0  0  0  0  0  0  0  0  0  0  0
   38.9530   30.2710   40.7340 H   0  0  0  0  0  0  0  0  0  0  0  0
   34.9060   30.5630   39.3250 H   0  0  0  0  0  0  0  0  0  0  0  0
   34.3370   28.5450   40.6530 H   0  0  0  0  0  0  0  0  0  0  0  0
   36.1390   27.4240   42.0150 H   0  0  0  0  0  0  0  0  0  0  0  0
   40.9360   28.2100   42.9260 C   0  0  0  0  0  0  0  0  0  0  0  0
   40.7620   27.0360   43.6790 C   0  0  0  0  0  0  0  0  0  0  0  0
   39.5060   26.4390   43.6800 C   0  0  0  0  0  0  0  0  0  0  0  0
   38.5160   27.0190   42.9530 N   0  0  0  0  0  0  0  0  0  0  0  0
   38.7050   28.1520   42.2340 C   0  0  0  0  0  0  0  0  0  0  0  0
   39.9200   28.7460   42.2220 N   0  0  0  0  0  0  0  0  0  0  0  0
   41.9370   28.6160   42.9760 H   0  0  0  0  0  0  0  0  0  0  0  0
   41.5120   26.5420   44.2660 H   0  0  0  0  0  0  0  0  0  0  0  0
   39.1960   25.5420   44.1970 H   0  0  0  0  0  0  0  0  0  0  0  0
   37.3320   31.9620   38.9970 S   0  0  0  0  0  0  0  0  0  0  0  0
   39.4600   32.0510   36.1190 H   0  0  0  0  0  0  0  0  0  0  0  0
   39.0590   32.2660   37.0510 N   0  0  0  0  0  0  0  0  0  0  0  0
   37.8750   31.4800   37.3120 C   0  0  1  0  0  3  0  0  0  0  0  0
   38.0790   30.0180   37.2170 C   0  0  0  0  0  3  0  0  0  0  0  0
   37.4730   29.5070   37.9900 H   0  0  0  0  0  0  0  0  0  0  0  0
   39.4190   29.5510   37.2950 N   0  0  0  0  0  0  0  0  0  0  0  0
   39.5460   28.6470   37.8070 H   0  0  0  0  0  0  0  0  0  0  0  0
   40.4420   30.4520   37.6530 C   0  0  0  0  0  2  0  0  0  0  0  0
   40.0270   31.8240   38.0700 C   0  0  0  0  0  2  0  0  0  0  0  0
  1 15  1  0  0  0  0
  2  7  1  0  0  0  0
  2  1  2  0  0  0  0
  3  2  1  0  0  0  0
  4  3  2  0  0  0  0
  4  5  1  0  0  0  0
  5  6  2  0  0  0  0
  6  1  1  0  0  0  0
  6 10  1  0  0  0  0
  8  4  1  0  0  0  0
  9  5  1  0  0  0  0
 11 17  1  0  0  0  0
 11 12  1  0  0  0  0
 12 13  2  0  0  0  0
 12 18  1  0  0  0  0
 13 19  1  0  0  0  0
 14 13  1  0  0  0  0
 15 14  2  0  0  0  0
 16 15  1  0  0  0  0
 16 11  2  0  0  0  0
 20  3  1  0  0  0  0
 21 22  1  0  0  0  0
 22 23  1  0  0  0  0
 22 29  1  0  0  0  0
 23 20  1  1  0  0  0
 24 26  1  0  0  0  0
 24 23  1  0  0  0  0
 24 25  1  0  0  0  0
 26 28  1  0  0  0  0
 26 27  1  0  0  0  0
 28 29  1  0  0  0  0
M  END
>  <minimizedAffinity>
-5.02430391

$$$$

 OpenBabel03242516233D

 29 31  0  0  1  0  0  0  0  0999 V2000
   37.5630   28.2830   41.5680 C   0  0  0  0  0  0  0  0  0  0  0  0
   38.2180   29.5000   41.3910 C   0  0  0  0  0  0  0  0  0  0  0  0
   37.5310   30.5830   40.8670 C   0  0  0  0  0  0  0  0  0  0  0  0
   36.2020   30.4980   40.5090 C   0  0  0  0  0  0  0  0  0  0  0  0
   35.5610   29.3150   40.6810 C   0  0  0  0  0  0  0  0  0  0  0  0
   36.2330   28.2260   41.2020 C   0  0  0  0  0  0  0  0  0  0  0  0
   39.2670   29.5090   41.6910 H   0  0  0  0  0  0  0  0  0  0  0  0
   35.7570   31.4110   40.1060 H   0  0  0  0  0  0  0  0  0  0  0  0
   34.5190   29.2800   40.3910 H   0  0  0  0  0  0  0  0  0  0  0  0
   35.7230   27.2780   41.3410 H   0  0  0  0  0  0  0  0  0  0  0  0
   38.6900   24.8370   42.0040 C   0  0  0  0  0  0  0  0  0  0  0  0
   39.5780   24.9130   43.0910 C   0  0  0  0  0  0  0  0  0  0  0  0
   39.7910   26.1560   43.6770 C   0  0  0  0  0  0  0  0  0  0  0  0
   39.1310   27.2290   43.1710 N   0  0  0  0  0  0  0  0  0  0  0  0
   38.2780   27.1350   42.1220 C   0  0  0  0  0  0  0  0  0  0  0  0
   38.0590   25.9340   41.5400 N   0  0  0  0  0  0  0  0  0  0  0  0
   38.5760   23.8400   41.6020 H   0  0  0  0  0  0  0  0  0  0  0  0
   40.1210   24.0950   43.5240 H   0  0  0  0  0  0  0  0  0  0  0  0
   40.4340   26.3960   44.5120 H   0  0  0  0  0  0  0  0  0  0  0  0
   38.4330   32.1070   40.6630 S   0  0  0  0  0  0  0  0  0  0  0  0
   41.4300   32.5820   38.7620 H   0  0  0  0  0  0  0  0  0  0  0  0
   40.4540   32.6830   39.0990 N   0  0  0  0  0  0  0  0  0  0  0  0
   40.1680   31.7620   40.1760 C   0  0  1  0  0  3  0  0  0  0  0  0
   41.0790   31.8760   41.3350 C   0  0  0  0  0  3  0  0  0  0  0  0
   40.5100   31.7120   42.2720 H   0  0  0  0  0  0  0  0  0  0  0  0
   41.8230   33.0810   41.4510 N   0  0  0  0  0  0  0  0  0  0  0  0
   41.9600   33.4270   42.4280 H   0  0  0  0  0  0  0  0  0  0  0  0
   41.5200   34.1610   40.5980 C   0  0  0  0  0  2  0  0  0  0  0  0
   40.3270   34.0170   39.7120 C   0  0  0  0  0  2  0  0  0  0  0  0
  1 15  1  0  0  0  0
  2  1  1  0  0  0  0
  2  7  1  0  0  0  0
  3  2  2  0  0  0  0
  4  5  2  0  0  0  0
  4  3  1  0  0  0  0
  5  6  1  0  0  0  0
  6 10  1  0  0  0  0
  6  1  2  0  0  0  0
  8  4  1  0  0  0  0
  9  5  1  0  0  0  0
 11 12  1  0  0  0  0
 12 18  1  0  0  0  0
 12 13  2  0  0  0  0
 13 19  1  0  0  0  0
 14 13  1  0  0  0  0
 15 14  2  0  0  0  0
 16 11  2  0  0  0  0
 16 15  1  0  0  0  0
 17 11  1  0  0  0  0
 20  3  1  0  0  0  0
 21 22  1  0  0  0  0
 22 29  1  0  0  0  0
 22 23  1  0  0  0  0
 23 20  1  1  0  0  0
 23 24  1  0  0  0  0
 24 26  1  0  0  0  0
 24 25  1  0  0  0  0
 26 27  1  0  0  0  0
 28 26  1  0  0  0  0
 29 28  1  0  0  0  0
M  END
>  <minimizedAffinity>
-4.93141079

$$$$
