
 OpenBabel03242516213D

 29 31  0  0  1  0  0  0  0  0999 V2000
   46.0020   32.7410   47.0580 C   0  0  0  0  0  0  0  0  0  0  0  0
   47.2710   32.4250   47.5370 C   0  0  0  0  0  0  0  0  0  0  0  0
   47.4050   31.6280   48.6630 C   0  0  0  0  0  0  0  0  0  0  0  0
   46.3100   31.1290   49.3360 C   0  0  0  0  0  0  0  0  0  0  0  0
   45.0720   31.4340   48.8720 C   0  0  0  0  0  0  0  0  0  0  0  0
   44.9230   32.2280   47.7510 C   0  0  0  0  0  0  0  0  0  0  0  0
   48.1000   32.8460   46.9660 H   0  0  0  0  0  0  0  0  0  0  0  0
   46.5290   30.5120   50.2100 H   0  0  0  0  0  0  0  0  0  0  0  0
   44.2330   31.0280   49.4210 H   0  0  0  0  0  0  0  0  0  0  0  0
   43.9340   32.4740   47.3770 H   0  0  0  0  0  0  0  0  0  0  0  0
   44.7230   35.3580   44.8570 C   0  0  0  0  0  0  0  0  0  0  0  0
   45.4870   35.2110   43.6860 C   0  0  0  0  0  0  0  0  0  0  0  0
   46.4470   34.2060   43.6540 C   0  0  0  0  0  0  0  0  0  0  0  0
   46.5960   33.4200   44.7510 N   0  0  0  0  0  0  0  0  0  0  0  0
   45.8490   33.5790   45.8710 C   0  0  0  0  0  0  0  0  0  0  0  0
   44.9110   34.5520   45.9200 N   0  0  0  0  0  0  0  0  0  0  0  0
   43.9980   36.1600   44.8080 H   0  0  0  0  0  0  0  0  0  0  0  0
   45.4050   35.8060   42.7970 H   0  0  0  0  0  0  0  0  0  0  0  0
   47.1180   33.9530   42.8450 H   0  0  0  0  0  0  0  0  0  0  0  0
   49.0590   31.2680   49.2220 S   0  0  0  0  0  0  0  0  0  0  0  0
   51.6420   28.9980   48.2240 H   0  0  0  0  0  0  0  0  0  0  0  0
   51.1360   29.7500   48.7290 N   0  0  0  0  0  0  0  0  0  0  0  0
   49.8040   29.9390   48.2000 C   0  0  1  0  0  3  0  0  0  0  0  0
   48.9640   28.7210   48.2160 C   0  0  0  0  0  3  0  0  0  0  0  0
   47.9170   28.9960   48.4510 H   0  0  0  0  0  0  0  0  0  0  0  0
   49.3720   27.6710   49.0780 N   0  0  0  0  0  0  0  0  0  0  0  0
   48.5950   27.1480   49.5420 H   0  0  0  0  0  0  0  0  0  0  0  0
   50.4100   27.9040   50.0040 C   0  0  0  0  0  2  0  0  0  0  0  0
   50.9230   29.3030   50.1160 C   0  0  0  0  0  2  0  0  0  0  0  0
  1  2  2  0  0  0  0
  1  6  1  0  0  0  0
  2  3  1  0  0  0  0
  3 20  1  0  0  0  0
  3  4  2  0  0  0  0
  4  8  1  0  0  0  0
  5  4  1  0  0  0  0
  5  9  1  0  0  0  0
  6  5  2  0  0  0  0
  7  2  1  0  0  0  0
 10  6  1  0  0  0  0
 11 16  1  0  0  0  0
 12 11  2  0  0  0  0
 13 12  1  0  0  0  0
 13 14  2  0  0  0  0
 14 15  1  0  0  0  0
 15 16  2  0  0  0  0
 15  1  1  0  0  0  0
 17 11  1  0  0  0  0
 18 12  1  0  0  0  0
 19 13  1  0  0  0  0
 21 22  1  0  0  0  0
 22 29  1  0  0  0  0
 23 24  1  0  0  0  0
 23 22  1  0  0  0  0
 23 20  1  1  0  0  0
 24 25  1  0  0  0  0
 24 26  1  0  0  0  0
 26 27  1  0  0  0  0
 26 28  1  0  0  0  0
 28 29  1  0  0  0  0
M  END
>  <minimizedAffinity>
-5.45207977

>  <minimizedRMSD>
0.264468372

$$$$
