
     RDKit          3D

 25 26  0  0  0  0  0  0  0  0999 V2000
   44.5133   35.9782   44.5346 C   0  0  0  0  0  0  0  0  0  0  0  0
   45.1902   35.9089   43.2960 C   0  0  0  0  0  0  0  0  0  0  0  0
   46.1124   34.8810   43.1028 C   0  0  0  0  0  0  0  0  0  0  0  0
   46.2973   34.0153   44.1200 N   0  0  0  0  0  0  0  0  0  0  0  0
   45.6443   34.0930   45.2978 C   0  0  0  0  0  0  0  0  0  0  0  0
   44.7577   35.0726   45.4972 N   0  0  0  0  0  0  0  0  0  0  0  0
   46.0988   32.8100   46.4445 S   0  0  0  0  0  0  0  0  0  0  0  0
   43.8156   36.7680   44.6599 H   0  0  0  0  0  0  0  0  0  0  0  0
   45.0614   36.5820   42.4759 H   0  0  0  0  0  0  0  0  0  0  0  0
   46.6524   34.7952   42.1642 H   0  0  0  0  0  0  0  0  0  0  0  0
   43.5634   32.4269   45.5023 H   0  0  0  0  0  0  0  0  0  0  0  0
   44.1217   31.6060   45.2101 N   0  0  0  0  0  0  0  0  0  0  0  0
   45.0722   31.3273   46.2798 C   0  0  1  0  0  0  0  0  0  0  0  0
   45.9189   30.1513   45.7887 C   0  0  2  0  0  0  0  0  0  0  0  0
   45.8425   29.2812   46.4987 H   0  0  0  0  0  0  0  0  0  0  0  0
   45.4760   29.6482   44.5080 N   0  0  0  0  0  0  0  0  0  0  0  0
   44.4737   29.3340   44.6311 H   0  0  0  0  0  0  0  0  0  0  0  0
   45.4758   30.6722   43.4860 C   0  0  0  0  0  0  0  0  0  0  0  0
   44.9155   31.9522   44.0397 C   0  0  0  0  0  0  0  0  0  0  0  0
   44.5883   31.0201   47.2150 H   0  0  0  0  0  0  0  0  0  0  0  0
   46.9890   30.4289   45.7754 H   0  0  0  0  0  0  0  0  0  0  0  0
   46.4845   30.8101   43.0415 H   0  0  0  0  0  0  0  0  0  0  0  0
   44.7439   30.3058   42.7097 H   0  0  0  0  0  0  0  0  0  0  0  0
   44.2754   32.4943   43.3115 H   0  0  0  0  0  0  0  0  0  0  0  0
   45.7383   32.6238   44.3678 H   0  0  0  0  0  0  0  0  0  0  0  0
  1  6  2  0
  2  1  1  0
  3  2  2  0
  3  4  1  0
  4  5  2  0
  5  6  1  0
  5  7  1  0
  1  8  1  0
  2  9  1  0
  3 10  1  0
 11 12  1  0
 12 13  1  0
 13 14  1  0
 14 15  1  1
 14 16  1  0
 16 17  1  0
 16 18  1  0
 18 19  1  0
 19 12  1  0
 13 20  1  1
 14 21  1  0
 18 22  1  0
 18 23  1  0
 19 24  1  0
 19 25  1  0
  7 13  1  0
M  ISO  6   8  14   9  14  10  14  11   5  15   8  17   5
M  END
>  <DihAtoms>  (1) 
4,6,12,11

>  <DihDeg>  (1) 
-179.92071705024233

$$$$
