
 OpenBabel03242518253D

 45 49  0  0  1  0  0  0  0  0999 V2000
   43.2710   34.1690   41.3050 C   0  0  0  0  0  0  0  0  0  0  0  0
   42.1510   33.4170   40.9990 C   0  0  0  0  0  0  0  0  0  0  0  0
   42.0900   32.1270   41.4970 C   0  0  0  0  0  0  0  0  0  0  0  0
   43.1040   31.6430   42.2560 N   0  0  0  0  0  0  0  0  0  0  0  0
   44.1800   32.3980   42.5380 C   0  0  0  0  0  0  0  0  0  0  0  0
   44.2610   33.6510   42.0670 N   0  0  0  0  0  0  0  0  0  0  0  0
   43.4260   35.1830   40.9740 H   0  0  0  0  0  0  0  0  0  0  0  0
   41.2110   31.5560   41.2470 H   0  0  0  0  0  0  0  0  0  0  0  0
   41.1680   34.0500   40.1960 N   0  0  0  0  0  0  0  0  0  0  0  0
   41.3920   34.0710   38.7760 C   0  0  0  0  0  0  0  0  0  0  0  0
   40.3710   34.8400   38.0190 C   0  0  0  0  0  0  0  0  0  0  0  0
   39.0330   34.5000   38.4020 N   0  0  0  0  0  0  0  0  0  0  0  0
   38.7840   34.2570   39.7760 C   0  0  0  0  0  0  0  0  0  0  0  0
   39.9550   34.6840   40.6280 C   0  0  0  0  0  0  0  0  0  0  0  0
   42.3810   34.5380   38.5950 H   0  0  0  0  0  0  0  0  0  0  0  0
   41.4720   33.0120   38.4350 H   0  0  0  0  0  0  0  0  0  0  0  0
   40.5710   35.9240   38.1700 H   0  0  0  0  0  0  0  0  0  0  0  0
   40.4920   34.6360   36.9360 H   0  0  0  0  0  0  0  0  0  0  0  0
   38.5550   33.8470   37.7450 H   0  0  0  0  0  0  0  0  0  0  0  0
   37.8510   34.6920   40.1480 H   0  0  0  0  0  0  0  0  0  0  0  0
   38.6730   33.1500   39.9070 H   0  0  0  0  0  0  0  0  0  0  0  0
   40.1120   35.7820   40.5460 H   0  0  0  0  0  0  0  0  0  0  0  0
   39.7580   34.4990   41.7040 H   0  0  0  0  0  0  0  0  0  0  0  0
   45.9510   30.7460   42.9460 C   0  0  0  0  0  0  0  0  0  0  0  0
   45.2620   31.8440   43.3630 C   0  0  0  0  0  0  0  0  0  0  0  0
   45.6080   32.4100   44.5660 C   0  0  0  0  0  0  0  0  0  0  0  0
   46.6210   31.8810   45.3290 C   0  0  0  0  0  0  0  0  0  0  0  0
   47.3210   30.7530   44.8880 C   0  0  0  0  0  0  0  0  0  0  0  0
   46.9830   30.1700   43.6730 C   0  0  0  0  0  0  0  0  0  0  0  0
   48.2830   30.4380   45.8470 O   0  0  0  0  0  0  0  0  0  0  0  0
   47.9830   31.1780   47.0260 C   0  0  1  0  0  0  0  0  0  0  0  0
   47.1740   32.2360   46.5560 O   0  0  0  0  0  0  0  0  0  0  0  0
   45.7050   30.2740   42.0020 H   0  0  0  0  0  0  0  0  0  0  0  0
   45.0490   33.2860   44.8870 H   0  0  0  0  0  0  0  0  0  0  0  0
   47.4880   29.3040   43.2910 H   0  0  0  0  0  0  0  0  0  0  0  0
   48.9170   31.6300   47.4220 H   0  0  0  0  0  0  0  0  0  0  0  0
   47.3550   30.3840   48.0280 N   0  0  2  0  0  0  0  0  0  0  0  0
   46.9200   29.0920   47.6440 C   0  0  0  0  0  3  0  0  0  0  0  0
   47.1770   28.9300   46.5710 H   0  0  0  0  0  0  0  0  0  0  0  0
   45.4400   28.8600   47.7630 C   0  0  0  0  0  3  0  0  0  0  0  0
   45.2720   27.7590   47.8000 H   0  0  0  0  0  0  0  0  0  0  0  0
   44.8790   29.4300   48.9690 N   0  0  0  0  0  0  0  0  0  0  0  0
   45.4100   29.0930   49.8030 H   0  0  0  0  0  0  0  0  0  0  0  0
   45.1070   30.8690   48.8930 C   0  0  0  0  0  2  0  0  0  0  0  0
   46.6010   31.0680   49.0140 C   0  0  0  0  0  2  0  0  0  0  0  0
  1  6  1  0  0  0  0
  2  1  2  0  0  0  0
  2  3  1  0  0  0  0
  3  4  2  0  0  0  0
  4  5  1  0  0  0  0
  5 25  1  0  0  0  0
  6  5  2  0  0  0  0
  7  1  1  0  0  0  0
  8  3  1  0  0  0  0
  9 14  1  0  0  0  0
  9  2  1  0  0  0  0
 10  9  1  0  0  0  0
 11 17  1  0  0  0  0
 11 12  1  0  0  0  0
 11 10  1  0  0  0  0
 12 13  1  0  0  0  0
 13 21  1  0  0  0  0
 13 20  1  0  0  0  0
 13 14  1  0  0  0  0
 14 23  1  0  0  0  0
 15 10  1  0  0  0  0
 16 10  1  0  0  0  0
 18 11  1  0  0  0  0
 19 12  1  0  0  0  0
 22 14  1  0  0  0  0
 24 25  2  0  0  0  0
 24 29  1  0  0  0  0
 25 26  1  0  0  0  0
 26 34  1  0  0  0  0
 26 27  2  0  0  0  0
 27 32  1  0  0  0  0
 28 27  1  0  0  0  0
 28 30  1  0  0  0  0
 29 28  2  0  0  0  0
 30 31  1  0  0  0  0
 31 36  1  1  0  0  0
 31 37  1  0  0  0  0
 32 31  1  0  0  0  0
 33 24  1  0  0  0  0
 35 29  1  0  0  0  0
 37 45  1  6  0  0  0
 38 40  1  0  0  0  0
 38 37  1  0  0  0  0
 39 38  1  0  0  0  0
 40 41  1  0  0  0  0
 40 42  1  0  0  0  0
 42 43  1  0  0  0  0
 44 42  1  0  0  0  0
 44 45  1  0  0  0  0
M  END
>  <minimizedAffinity>
-5.47070885

>  <minimizedRMSD>
1.79437423

$$$$
