REMARK  Name = 
REMARK  2 active torsions:
REMARK  status: ('A' for Active; 'I' for Inactive)
REMARK    1  A    between atoms: C_5  and  S_7
REMARK    2  A    between atoms: S_7  and  C_13
REMARK                            x       y       z     vdW  Elec       q    Type
REMARK                         _______ _______ _______ _____ _____    ______ ____
ROOT
ATOM      1  S   UNL     1      46.099  32.810  46.444  0.00  0.00    +0.000 S 
ENDROOT
BRANCH   1   6
ATOM      2  C   UNL     1      44.513  35.978  44.535  0.00  0.00    +0.000 A 
ATOM      3  C   UNL     1      45.190  35.909  43.296  0.00  0.00    +0.000 A 
ATOM      4  C   UNL     1      46.112  34.881  43.103  0.00  0.00    +0.000 A 
ATOM      5  N   UNL     1      46.297  34.015  44.120  0.00  0.00    +0.000 NA
ATOM      6  C   UNL     1      45.644  34.093  45.298  0.00  0.00    +0.000 A 
ATOM      7  N   UNL     1      44.758  35.073  45.497  0.00  0.00    +0.000 NA
ATOM      8  H   UNL     1      43.816  36.768  44.660  0.00  0.00    +0.000 HD
ATOM      9  H   UNL     1      45.061  36.582  42.476  0.00  0.00    +0.000 HD
ATOM     10  H   UNL     1      46.652  34.795  42.164  0.00  0.00    +0.000 HD
ENDBRANCH   1   6
BRANCH   1  13
ATOM     11  H   UNL     1      44.132  32.125  44.677  0.00  0.00    +0.000 HD
ATOM     12  N   UNL     1      44.669  31.264  44.880  0.00  0.00    +0.000 NA
ATOM     13  C   UNL     1      45.072  31.327  46.280  0.00  0.00    +0.000 C 
ATOM     14  C   UNL     1      45.913  30.073  46.528  0.00  0.00    +0.000 C 
ATOM     15  H   UNL     1      45.464  29.449  47.350  0.00  0.00    +0.000 HD
ATOM     16  N   UNL     1      45.972  29.209  45.371  0.00  0.00    +0.000 NA
ATOM     17  H   UNL     1      44.977  28.928  45.146  0.00  0.00    +0.000 HD
ATOM     18  C   UNL     1      46.493  29.888  44.204  0.00  0.00    +0.000 C 
ATOM     19  C   UNL     1      45.899  31.265  44.101  0.00  0.00    +0.000 C 
ENDBRANCH   1  13
TORSDOF 2
