
     RDKit          3D

 25 26  0  0  0  0  0  0  0  0999 V2000
   44.5133   35.9782   44.5346 C   0  0  0  0  0  0  0  0  0  0  0  0
   45.1902   35.9089   43.2960 C   0  0  0  0  0  0  0  0  0  0  0  0
   46.1124   34.8810   43.1028 C   0  0  0  0  0  0  0  0  0  0  0  0
   46.2973   34.0153   44.1200 N   0  0  0  0  0  0  0  0  0  0  0  0
   45.6443   34.0930   45.2978 C   0  0  0  0  0  0  0  0  0  0  0  0
   44.7577   35.0726   45.4972 N   0  0  0  0  0  0  0  0  0  0  0  0
   46.0988   32.8100   46.4445 S   0  0  0  0  0  0  0  0  0  0  0  0
   43.8156   36.7680   44.6599 H   0  0  0  0  0  0  0  0  0  0  0  0
   45.0614   36.5820   42.4759 H   0  0  0  0  0  0  0  0  0  0  0  0
   46.6524   34.7952   42.1642 H   0  0  0  0  0  0  0  0  0  0  0  0
   44.9484   31.6036   44.2802 H   0  0  0  0  0  0  0  0  0  0  0  0
   45.2618   30.8493   44.9156 N   0  0  0  0  0  0  0  0  0  0  0  0
   45.0722   31.3273   46.2798 C   0  0  1  0  0  0  0  0  0  0  0  0
   45.6017   30.2156   47.1880 C   0  0  2  0  0  0  0  0  0  0  0  0
   44.7956   29.8521   47.8845 H   0  0  0  0  0  0  0  0  0  0  0  0
   46.0277   29.0511   46.4451 N   0  0  0  0  0  0  0  0  0  0  0  0
   45.1837   28.7000   45.9132 H   0  0  0  0  0  0  0  0  0  0  0  0
   47.0442   29.3664   45.4651 C   0  0  0  0  0  0  0  0  0  0  0  0
   46.6935   30.6420   44.7518 C   0  0  0  0  0  0  0  0  0  0  0  0
   44.0180   31.4905   46.5351 H   0  0  0  0  0  0  0  0  0  0  0  0
   46.4040   30.6044   47.8417 H   0  0  0  0  0  0  0  0  0  0  0  0
   48.0572   29.4015   45.9197 H   0  0  0  0  0  0  0  0  0  0  0  0
   46.9772   28.5382   44.7022 H   0  0  0  0  0  0  0  0  0  0  0  0
   46.9367   30.6120   43.6683 H   0  0  0  0  0  0  0  0  0  0  0  0
   47.2217   31.5024   45.2171 H   0  0  0  0  0  0  0  0  0  0  0  0
  1  6  2  0
  2  1  1  0
  3  2  2  0
  3  4  1  0
  4  5  2  0
  5  6  1  0
  5  7  1  0
  1  8  1  0
  2  9  1  0
  3 10  1  0
 11 12  1  0
 12 13  1  0
 13 14  1  0
 14 15  1  1
 14 16  1  0
 16 17  1  0
 16 18  1  0
 18 19  1  0
 19 12  1  0
 13 20  1  1
 14 21  1  0
 18 22  1  0
 18 23  1  0
 19 24  1  0
 19 25  1  0
  7 13  1  0
M  ISO  6   8  14   9  14  10  14  11   5  15   8  17   5
M  END
>  <DihAtoms>  (1) 
4,6,12,11

>  <DihDeg>  (1) 
-179.92071705024233

$$$$
