
     RDKit          3D

 35 37  0  0  0  0  0  0  0  0999 V2000
   46.0102   32.7519   47.0555 C   0  0  0  0  0  0  0  0  0  0  0  0
   47.2800   32.4078   47.5141 C   0  0  0  0  0  0  0  0  0  0  0  0
   47.4147   31.6135   48.6410 C   0  0  0  0  0  0  0  0  0  0  0  0
   46.3198   31.1443   49.3360 C   0  0  0  0  0  0  0  0  0  0  0  0
   45.0824   31.4772   48.8928 C   0  0  0  0  0  0  0  0  0  0  0  0
   44.9323   32.2687   47.7698 C   0  0  0  0  0  0  0  0  0  0  0  0
   44.7183   35.3540   44.8439 C   0  0  0  0  0  0  0  0  0  0  0  0
   45.4924   35.2154   43.6793 C   0  0  0  0  0  0  0  0  0  0  0  0
   46.4641   34.2210   43.6538 C   0  0  0  0  0  0  0  0  0  0  0  0
   46.6141   33.4372   44.7534 N   0  0  0  0  0  0  0  0  0  0  0  0
   45.8570   33.5879   45.8673 C   0  0  0  0  0  0  0  0  0  0  0  0
   44.9069   34.5503   45.9089 N   0  0  0  0  0  0  0  0  0  0  0  0
   49.0689   31.2157   49.1732 S   0  0  0  0  0  0  0  0  0  0  0  0
   48.1083   32.8055   46.9262 H   0  0  0  0  0  0  0  0  0  0  0  0
   46.5392   30.5258   50.2102 H   0  0  0  0  0  0  0  0  0  0  0  0
   44.2432   31.0939   49.4593 H   0  0  0  0  0  0  0  0  0  0  0  0
   43.9425   32.5366   47.4135 H   0  0  0  0  0  0  0  0  0  0  0  0
   43.9849   36.1465   44.7888 H   0  0  0  0  0  0  0  0  0  0  0  0
   45.4105   35.8081   42.7893 H   0  0  0  0  0  0  0  0  0  0  0  0
   47.1431   33.9751   42.8501 H   0  0  0  0  0  0  0  0  0  0  0  0
   50.0948   29.1899   46.4044 H   0  0  0  0  0  0  0  0  0  0  0  0
   49.7513   29.9992   46.9562 N   0  0  0  0  0  0  0  0  0  0  0  0
   49.6492   29.6761   48.3609 C   0  0  1  0  0  0  0  0  0  0  0  0
   50.9088   29.1954   48.9703 C   0  0  1  0  0  0  0  0  0  0  0  0
   50.9912   29.5807   50.0059 H   0  0  0  0  0  0  0  0  0  0  0  0
   52.1107   29.4850   48.2717 N   0  0  0  0  0  0  0  0  0  0  0  0
   52.9336   29.7093   48.8763 H   0  0  0  0  0  0  0  0  0  0  0  0
   52.0716   30.3651   47.1709 C   0  0  0  0  0  0  0  0  0  0  0  0
   50.7767   31.0547   46.8941 C   0  0  0  0  0  0  0  0  0  0  0  0
   48.8232   28.9480   48.4736 H   0  0  0  0  0  0  0  0  0  0  0  0
   50.8815   28.0704   49.0757 H   0  0  0  0  0  0  0  0  0  0  0  0
   52.3257   29.7720   46.2416 H   0  0  0  0  0  0  0  0  0  0  0  0
   52.8897   31.1444   47.2143 H   0  0  0  0  0  0  0  0  0  0  0  0
   50.8218   31.5038   45.8850 H   0  0  0  0  0  0  0  0  0  0  0  0
   50.5485   31.8153   47.6972 H   0  0  0  0  0  0  0  0  0  0  0  0
  1  2  2  0
  1  6  1  0
  2  3  1  0
  3 13  1  0
  3  4  2  0
  5  4  1  0
  6  5  2  0
  7 12  2  0
  8  7  1  0
  9  8  2  0
  9 10  1  0
 10 11  2  0
 11 12  1  0
 11  1  1  0
  2 14  1  0
  4 15  1  0
  5 16  1  0
  6 17  1  0
  7 18  1  0
  8 19  1  0
  9 20  1  0
 21 22  1  0
 22 23  1  0
 23 24  1  0
 24 25  1  1
 24 26  1  0
 26 27  1  0
 26 28  1  0
 28 29  1  0
 29 22  1  0
 23 30  1  6
 24 31  1  0
 28 32  1  0
 28 33  1  0
 29 34  1  0
 29 35  1  0
 13 23  1  0
M  ISO  8  14  14  15  14  16  14  17  14  18  14  19  14  20  14  21   5
M  ISO  2  25   8  27   5
M  END
>  <DihAtoms>  (1) 
2,12,22,21

>  <DihDeg>  (1) 
66.0452264897691

$$$$
