
 OpenBabel03252502453D

 45 48  0  0  1  0  0  0  0  0999 V2000
   46.6120   35.3020   42.2290 C   0  0  0  0  0  0  0  0  0  0  0  0
   45.9680   36.0420   41.6710 H   0  0  0  0  0  0  0  0  0  0  0  0
   46.9000   35.8350   43.1600 H   0  0  0  0  0  0  0  0  0  0  0  0
   47.8490   34.9140   41.4760 C   0  0  1  0  0  0  0  0  0  0  0  0
   49.0190   35.8320   41.5780 C   0  0  0  0  0  0  0  0  0  0  0  0
   49.0100   34.5140   42.2620 C   0  0  2  0  0  0  0  0  0  0  0  0
   47.6360   34.4820   40.5040 H   0  0  0  0  0  0  0  0  0  0  0  0
   49.6250   36.0240   40.6620 H   0  0  0  0  0  0  0  0  0  0  0  0
   48.9030   36.7780   42.1640 H   0  0  0  0  0  0  0  0  0  0  0  0
   49.0930   34.5780   43.3480 H   0  0  0  0  0  0  0  0  0  0  0  0
   49.8520   33.5340   41.6000 N   0  0  0  0  0  0  0  0  0  0  0  0
   49.1500   32.6290   40.7660 C   0  0  0  0  0  0  0  0  0  0  0  0
   50.2020   31.6910   40.1950 C   0  0  0  0  0  0  0  0  0  0  0  0
   50.8580   30.9390   41.2090 N   0  0  0  0  0  0  0  0  0  0  0  0
   50.8850   31.5790   42.4980 C   0  0  0  0  0  0  0  0  0  0  0  0
   50.9690   33.0900   42.3190 C   0  0  0  0  0  0  0  0  0  0  0  0
   48.4240   32.0080   41.3490 H   0  0  0  0  0  0  0  0  0  0  0  0
   48.6440   33.1660   39.9540 H   0  0  0  0  0  0  0  0  0  0  0  0
   50.9290   32.3430   39.6390 H   0  0  0  0  0  0  0  0  0  0  0  0
   49.7140   31.0120   39.4740 H   0  0  0  0  0  0  0  0  0  0  0  0
   51.8090   30.7060   40.8760 H   0  0  0  0  0  0  0  0  0  0  0  0
   51.7880   31.2630   43.0750 H   0  0  0  0  0  0  0  0  0  0  0  0
   49.9760   31.3440   43.0780 H   0  0  0  0  0  0  0  0  0  0  0  0
   51.0270   33.5300   43.3320 H   0  0  0  0  0  0  0  0  0  0  0  0
   51.8910   33.3170   41.7280 H   0  0  0  0  0  0  0  0  0  0  0  0
   45.8840   34.0240   42.5390 C   0  0  0  0  0  0  0  0  0  0  0  0
   46.3130   33.1120   42.1530 H   0  0  0  0  0  0  0  0  0  0  0  0
   44.8730   34.1050   42.0480 H   0  0  0  0  0  0  0  0  0  0  0  0
   44.6490   35.0670   45.9120 C   0  0  0  0  0  0  0  0  0  0  0  0
   44.9320   35.0890   44.5260 C   0  0  0  0  0  0  0  0  0  0  0  0
   45.5810   34.0070   44.0080 C   0  0  0  0  0  0  0  0  0  0  0  0
   45.9200   32.9800   44.8240 N   0  0  0  0  0  0  0  0  0  0  0  0
   45.6500   32.9750   46.1110 C   0  0  0  0  0  0  0  0  0  0  0  0
   45.0190   34.0050   46.6640 N   0  0  0  0  0  0  0  0  0  0  0  0
   44.1340   35.9520   46.2680 H   0  0  0  0  0  0  0  0  0  0  0  0
   44.6400   35.9340   43.9150 H   0  0  0  0  0  0  0  0  0  0  0  0
   46.0190   31.8810   46.9430 N   0  0  0  0  0  0  0  0  0  0  0  0
   47.4010   31.4740   47.1030 C   0  0  0  0  0  0  0  0  0  0  0  0
   47.4990   30.3850   47.0140 H   0  0  0  0  0  0  0  0  0  0  0  0
   47.8030   31.8940   48.5140 C   0  0  0  0  0  0  0  0  0  0  0  0
   47.9460   32.9950   48.4880 H   0  0  0  0  0  0  0  0  0  0  0  0
   46.7180   31.6470   49.4270 N   0  0  0  0  0  0  0  0  0  0  0  0
   47.1190   31.3000   50.3380 H   0  0  0  0  0  0  0  0  0  0  0  0
   45.7840   30.6490   48.9780 C   0  0  0  0  0  0  0  0  0  0  0  0
   45.0890   31.0770   47.7000 C   0  0  0  0  0  0  0  0  0  0  0  0
  1 26  1  0  0  0  0
  1  3  1  0  0  0  0
  2  1  1  0  0  0  0
  4  7  1  6  0  0  0
  4  5  1  0  0  0  0
  4  1  1  0  0  0  0
  4  6  1  0  0  0  0
  5  9  1  0  0  0  0
  5  6  1  0  0  0  0
  6 10  1  1  0  0  0
  8  5  1  0  0  0  0
 11  6  1  0  0  0  0
 11 16  1  0  0  0  0
 12 17  1  0  0  0  0
 12 11  1  0  0  0  0
 13 12  1  0  0  0  0
 13 14  1  0  0  0  0
 14 15  1  0  0  0  0
 15 22  1  0  0  0  0
 15 23  1  0  0  0  0
 16 15  1  0  0  0  0
 16 24  1  0  0  0  0
 18 12  1  0  0  0  0
 19 13  1  0  0  0  0
 20 13  1  0  0  0  0
 21 14  1  0  0  0  0
 25 16  1  0  0  0  0
 26 31  1  0  0  0  0
 27 26  1  0  0  0  0
 28 26  1  0  0  0  0
 29 35  1  0  0  0  0
 29 34  1  0  0  0  0
 30 29  2  0  0  0  0
 31 30  1  0  0  0  0
 31 32  2  0  0  0  0
 32 33  1  0  0  0  0
 33 34  2  0  0  0  0
 33 37  1  0  0  0  0
 36 30  1  0  0  0  0
 37 38  1  0  0  0  0
 37 45  1  0  0  0  0
 38 40  1  0  0  0  0
 39 38  1  0  0  0  0
 40 42  1  0  0  0  0
 41 40  1  0  0  0  0
 42 43  1  0  0  0  0
 44 42  1  0  0  0  0
 45 44  1  0  0  0  0
M  END
>  <minimizedAffinity>
-6.02103519

>  <minimizedRMSD>
1.35824323

$$$$
