
 OpenBabel03242512533D

 44 48  0  0  1  0  0  0  0  0999 V2000
   37.4910   30.6020   39.1430 N   0  0  0  0  0  0  0  0  0  0  0  0
   37.6900   29.7540   37.9620 C   0  0  0  0  0  0  0  0  0  0  0  0
   36.2360   29.6360   37.5550 C   0  0  0  0  0  0  0  0  0  0  0  0
   35.6170   29.1940   38.8570 C   0  0  0  0  0  0  0  0  0  0  0  0
   36.3360   30.0370   39.8880 C   0  0  1  0  0  0  0  0  0  0  0  0
   38.1080   28.7940   38.3000 H   0  0  0  0  0  0  0  0  0  0  0  0
   38.2860   30.2710   37.2070 H   0  0  0  0  0  0  0  0  0  0  0  0
   35.9020   30.6440   37.2500 H   0  0  0  0  0  0  0  0  0  0  0  0
   36.1400   28.8690   36.7700 H   0  0  0  0  0  0  0  0  0  0  0  0
   34.5300   29.3830   38.8260 H   0  0  0  0  0  0  0  0  0  0  0  0
   35.8530   28.1110   38.9880 H   0  0  0  0  0  0  0  0  0  0  0  0
   35.7480   30.8890   40.0810 H   0  0  0  0  0  0  0  0  0  0  0  0
   38.3610   33.9970   40.3770 C   0  0  0  0  0  0  0  0  0  0  0  0
   37.5770   32.9340   39.9530 C   0  0  0  0  0  0  0  0  0  0  0  0
   38.1850   31.7440   39.5830 C   0  0  0  0  0  0  0  0  0  0  0  0
   39.5400   31.6700   39.6500 N   0  0  0  0  0  0  0  0  0  0  0  0
   40.3050   32.7160   40.0660 C   0  0  0  0  0  0  0  0  0  0  0  0
   39.7090   33.8760   40.4270 N   0  0  0  0  0  0  0  0  0  0  0  0
   37.9150   34.9450   40.6760 H   0  0  0  0  0  0  0  0  0  0  0  0
   36.5360   33.0750   39.9090 H   0  0  0  0  0  0  0  0  0  0  0  0
   41.7220   32.5960   40.1200 N   0  0  0  0  0  0  0  0  0  0  0  0
   42.4550   33.0720   41.2660 C   0  0  0  0  0  3  0  0  0  0  0  0
   41.8240   33.6140   41.9730 H   0  0  0  0  0  0  0  0  0  0  0  0
   43.6280   33.8680   40.7340 C   0  0  0  0  0  3  0  0  0  0  0  0
   44.6070   33.4020   40.9180 H   0  0  0  0  0  0  0  0  0  0  0  0
   43.5270   34.1580   39.3220 N   0  0  0  0  0  0  0  0  0  0  0  0
   42.8280   34.8850   39.1020 H   0  0  0  0  0  0  0  0  0  0  0  0
   43.4140   33.0080   38.4790 C   0  0  0  0  0  2  0  0  0  0  0  0
   42.4270   31.9870   39.0080 C   0  0  0  0  0  2  0  0  0  0  0  0
   36.9220   29.2620   40.9650 C   0  0  0  0  0  0  0  0  0  0  0  0
   37.4580   29.8620   42.0550 N   0  0  0  0  0  0  0  0  0  0  0  0
   38.0250   29.2100   43.0920 C   0  0  0  0  0  0  0  0  0  0  0  0
   38.0680   27.8700   43.0510 N   0  0  0  0  0  0  0  0  0  0  0  0
   37.5580   27.2320   42.0060 C   0  0  0  0  0  0  0  0  0  0  0  0
   37.6290   25.8450   42.0220 C   0  0  0  0  0  0  0  0  0  0  0  0
   37.0920   25.1830   40.9250 C   0  0  0  0  0  0  0  0  0  0  0  0
   36.4970   25.7960   39.8270 C   0  0  0  0  0  0  0  0  0  0  0  0
   36.4720   27.1760   39.8990 C   0  0  0  0  0  0  0  0  0  0  0  0
   36.9710   27.8920   40.9290 C   0  0  0  0  0  0  0  0  0  0  0  0
   38.4330   29.7780   43.9320 H   0  0  0  0  0  0  0  0  0  0  0  0
   38.0730   25.2840   42.8340 H   0  0  0  0  0  0  0  0  0  0  0  0
   37.1590   24.0920   40.9620 H   0  0  0  0  0  0  0  0  0  0  0  0
   36.1140   25.1960   39.0320 H   0  0  0  0  0  0  0  0  0  0  0  0
   36.0270   27.6200   39.0270 H   0  0  0  0  0  0  0  0  0  0  0  0
  1 15  1  0  0  0  0
  1  5  1  0  0  0  0
  2  6  1  0  0  0  0
  2  1  1  0  0  0  0
  3  2  1  0  0  0  0
  3  4  1  0  0  0  0
  4 11  1  0  0  0  0
  4  5  1  0  0  0  0
  5 12  1  1  0  0  0
  5 30  1  0  0  0  0
  7  2  1  0  0  0  0
  8  3  1  0  0  0  0
  9  3  1  0  0  0  0
 10  4  1  0  0  0  0
 13 18  1  0  0  0  0
 13 19  1  0  0  0  0
 14 13  2  0  0  0  0
 15 16  2  0  0  0  0
 15 14  1  0  0  0  0
 16 17  1  0  0  0  0
 17 21  1  0  0  0  0
 17 18  2  0  0  0  0
 20 14  1  0  0  0  0
 21 22  1  0  0  0  0
 22 23  1  0  0  0  0
 24 25  1  0  0  0  0
 24 22  1  0  0  0  0
 26 24  1  0  0  0  0
 27 26  1  0  0  0  0
 28 29  1  0  0  0  0
 28 26  1  0  0  0  0
 29 21  1  0  0  0  0
 30 31  1  0  0  0  0
 31 32  2  0  0  0  0
 32 40  1  0  0  0  0
 33 32  1  0  0  0  0
 34 35  1  0  0  0  0
 34 33  2  0  0  0  0
 35 41  1  0  0  0  0
 36 42  1  0  0  0  0
 36 35  2  0  0  0  0
 37 38  2  0  0  0  0
 37 36  1  0  0  0  0
 38 39  1  0  0  0  0
 39 30  2  0  0  0  0
 39 34  1  0  0  0  0
 43 37  1  0  0  0  0
 44 38  1  0  0  0  0
M  END
>  <minimizedAffinity>
-6.8184948

$$$$

 OpenBabel03242512533D

 44 48  0  0  1  0  0  0  0  0999 V2000
   37.4240   25.6600   41.0430 N   0  0  0  0  0  0  0  0  0  0  0  0
   36.5990   25.2020   39.9190 C   0  0  0  0  0  0  0  0  0  0  0  0
   36.2080   23.8570   40.4940 C   0  0  0  0  0  0  0  0  0  0  0  0
   37.5620   23.3090   40.8670 C   0  0  0  0  0  0  0  0  0  0  0  0
   38.2770   24.5120   41.4450 C   0  0  1  0  0  0  0  0  0  0  0  0
   37.2510   25.1060   39.0370 H   0  0  0  0  0  0  0  0  0  0  0  0
   35.7340   25.8550   39.7790 H   0  0  0  0  0  0  0  0  0  0  0  0
   35.5750   24.0550   41.3780 H   0  0  0  0  0  0  0  0  0  0  0  0
   35.7200   23.2560   39.7110 H   0  0  0  0  0  0  0  0  0  0  0  0
   37.4340   22.4900   41.5960 H   0  0  0  0  0  0  0  0  0  0  0  0
   38.0530   22.9640   39.9260 H   0  0  0  0  0  0  0  0  0  0  0  0
   38.1560   24.4910   42.4910 H   0  0  0  0  0  0  0  0  0  0  0  0
   37.3190   28.3680   43.5850 C   0  0  0  0  0  0  0  0  0  0  0  0
   37.2280   27.0930   43.0450 C   0  0  0  0  0  0  0  0  0  0  0  0
   37.4820   26.9050   41.6940 C   0  0  0  0  0  0  0  0  0  0  0  0
   37.8100   27.9920   40.9480 N   0  0  0  0  0  0  0  0  0  0  0  0
   37.8970   29.2410   41.4810 C   0  0  0  0  0  0  0  0  0  0  0  0
   37.6500   29.4210   42.8000 N   0  0  0  0  0  0  0  0  0  0  0  0
   37.1270   28.5500   44.6410 H   0  0  0  0  0  0  0  0  0  0  0  0
   36.9490   26.3060   43.6830 H   0  0  0  0  0  0  0  0  0  0  0  0
   38.2440   30.3520   40.6630 N   0  0  0  0  0  0  0  0  0  0  0  0
   39.2100   31.3210   41.1130 C   0  0  0  0  0  3  0  0  0  0  0  0
   39.5170   31.1600   42.1490 H   0  0  0  0  0  0  0  0  0  0  0  0
   38.6180   32.6880   40.8390 C   0  0  0  0  0  3  0  0  0  0  0  0
   39.1440   33.2550   40.0570 H   0  0  0  0  0  0  0  0  0  0  0  0
   37.2160   32.6430   40.4950 N   0  0  0  0  0  0  0  0  0  0  0  0
   36.6020   32.4490   41.3030 H   0  0  0  0  0  0  0  0  0  0  0  0
   36.9020   31.8400   39.3550 C   0  0  0  0  0  2  0  0  0  0  0  0
   37.6140   30.5020   39.3650 C   0  0  0  0  0  2  0  0  0  0  0  0
   39.5680   24.7670   40.8360 C   0  0  0  0  0  0  0  0  0  0  0  0
   39.7680   24.5930   39.5080 N   0  0  0  0  0  0  0  0  0  0  0  0
   40.9400   24.8030   38.8700 C   0  0  0  0  0  0  0  0  0  0  0  0
   41.9900   25.2140   39.5960 N   0  0  0  0  0  0  0  0  0  0  0  0
   41.8490   25.4010   40.9020 C   0  0  0  0  0  0  0  0  0  0  0  0
   42.9720   25.8300   41.5990 C   0  0  0  0  0  0  0  0  0  0  0  0
   42.8170   26.0240   42.9650 C   0  0  0  0  0  0  0  0  0  0  0  0
   41.6400   25.8230   43.6790 C   0  0  0  0  0  0  0  0  0  0  0  0
   40.5790   25.3960   42.9030 C   0  0  0  0  0  0  0  0  0  0  0  0
   40.6470   25.1860   41.5720 C   0  0  0  0  0  0  0  0  0  0  0  0
   41.0080   24.6360   37.7930 H   0  0  0  0  0  0  0  0  0  0  0  0
   43.9280   26.0120   41.1260 H   0  0  0  0  0  0  0  0  0  0  0  0
   43.7140   26.3630   43.4910 H   0  0  0  0  0  0  0  0  0  0  0  0
   41.6240   26.0000   44.7310 H   0  0  0  0  0  0  0  0  0  0  0  0
   39.6910   25.2290   43.4870 H   0  0  0  0  0  0  0  0  0  0  0  0
  1  5  1  0  0  0  0
  1 15  1  0  0  0  0
  2  3  1  0  0  0  0
  2  1  1  0  0  0  0
  3  4  1  0  0  0  0
  3  8  1  0  0  0  0
  4  5  1  0  0  0  0
  4 10  1  0  0  0  0
  5 12  1  1  0  0  0
  6  2  1  0  0  0  0
  7  2  1  0  0  0  0
  9  3  1  0  0  0  0
 11  4  1  0  0  0  0
 13 19  1  0  0  0  0
 14 13  1  0  0  0  0
 14 20  1  0  0  0  0
 15 14  2  0  0  0  0
 16 17  2  0  0  0  0
 16 15  1  0  0  0  0
 17 18  1  0  0  0  0
 18 13  2  0  0  0  0
 21 22  1  0  0  0  0
 21 17  1  0  0  0  0
 22 23  1  0  0  0  0
 24 22  1  0  0  0  0
 25 24  1  0  0  0  0
 26 24  1  0  0  0  0
 26 27  1  0  0  0  0
 28 29  1  0  0  0  0
 28 26  1  0  0  0  0
 29 21  1  0  0  0  0
 30  5  1  0  0  0  0
 30 39  1  0  0  0  0
 31 30  2  0  0  0  0
 32 31  1  0  0  0  0
 32 33  2  0  0  0  0
 33 34  1  0  0  0  0
 34 39  2  0  0  0  0
 34 35  1  0  0  0  0
 35 36  2  0  0  0  0
 36 42  1  0  0  0  0
 36 37  1  0  0  0  0
 37 43  1  0  0  0  0
 38 44  1  0  0  0  0
 38 37  2  0  0  0  0
 39 38  1  0  0  0  0
 40 32  1  0  0  0  0
 41 35  1  0  0  0  0
M  END
>  <minimizedAffinity>
-6.60875225

$$$$

 OpenBabel03242512533D

 44 48  0  0  1  0  0  0  0  0999 V2000
   38.6800   29.9640   41.3600 N   0  0  0  0  0  0  0  0  0  0  0  0
   40.0870   30.3720   41.2650 C   0  0  0  0  0  0  0  0  0  0  0  0
   39.9230   31.7770   41.8070 C   0  0  0  0  0  0  0  0  0  0  0  0
   38.8040   32.2840   40.9320 C   0  0  0  0  0  0  0  0  0  0  0  0
   37.8690   31.0960   40.8400 C   0  0  1  0  0  0  0  0  0  0  0  0
   40.3720   30.3640   40.2030 H   0  0  0  0  0  0  0  0  0  0  0  0
   40.7150   29.7540   41.9120 H   0  0  0  0  0  0  0  0  0  0  0  0
   39.6220   31.6820   42.8660 H   0  0  0  0  0  0  0  0  0  0  0  0
   40.8580   32.3370   41.6480 H   0  0  0  0  0  0  0  0  0  0  0  0
   38.3400   33.1630   41.4100 H   0  0  0  0  0  0  0  0  0  0  0  0
   39.2430   32.5270   39.9350 H   0  0  0  0  0  0  0  0  0  0  0  0
   37.1280   31.2060   41.5810 H   0  0  0  0  0  0  0  0  0  0  0  0
   36.9200   27.4200   43.4190 C   0  0  0  0  0  0  0  0  0  0  0  0
   37.4660   28.6440   43.0580 C   0  0  0  0  0  0  0  0  0  0  0  0
   38.0970   28.7730   41.8300 C   0  0  0  0  0  0  0  0  0  0  0  0
   38.1550   27.6820   41.0230 N   0  0  0  0  0  0  0  0  0  0  0  0
   37.6190   26.4830   41.3810 C   0  0  0  0  0  0  0  0  0  0  0  0
   37.0040   26.3610   42.5800 N   0  0  0  0  0  0  0  0  0  0  0  0
   36.4180   27.2850   44.3760 H   0  0  0  0  0  0  0  0  0  0  0  0
   37.3990   29.4360   43.7460 H   0  0  0  0  0  0  0  0  0  0  0  0
   37.7040   25.3650   40.5060 N   0  0  0  0  0  0  0  0  0  0  0  0
   36.5540   24.5290   40.2710 C   0  0  0  0  0  3  0  0  0  0  0  0
   35.7100   24.7830   40.9150 H   0  0  0  0  0  0  0  0  0  0  0  0
   37.0260   23.0950   40.3920 C   0  0  0  0  0  3  0  0  0  0  0  0
   37.0110   22.5370   39.4440 H   0  0  0  0  0  0  0  0  0  0  0  0
   38.3480   22.9750   40.9620 N   0  0  0  0  0  0  0  0  0  0  0  0
   38.3730   23.1550   41.9790 H   0  0  0  0  0  0  0  0  0  0  0  0
   39.3750   23.6710   40.2510 C   0  0  0  0  0  2  0  0  0  0  0  0
   38.9620   25.0720   39.8470 C   0  0  0  0  0  2  0  0  0  0  0  0
   37.5320   30.7280   39.4790 C   0  0  0  0  0  0  0  0  0  0  0  0
   38.3720   30.9890   38.4490 N   0  0  0  0  0  0  0  0  0  0  0  0
   38.1250   30.6830   37.1570 C   0  0  0  0  0  0  0  0  0  0  0  0
   36.9670   30.0760   36.8600 N   0  0  0  0  0  0  0  0  0  0  0  0
   36.1070   29.7960   37.8320 C   0  0  0  0  0  0  0  0  0  0  0  0
   34.9270   29.1640   37.4620 C   0  0  0  0  0  0  0  0  0  0  0  0
   34.0330   28.8730   38.4850 C   0  0  0  0  0  0  0  0  0  0  0  0
   34.2270   29.1640   39.8310 C   0  0  0  0  0  0  0  0  0  0  0  0
   35.4270   29.7930   40.1030 C   0  0  0  0  0  0  0  0  0  0  0  0
   36.3490   30.1070   39.1680 C   0  0  0  0  0  0  0  0  0  0  0  0
   38.8630   30.9330   36.3910 H   0  0  0  0  0  0  0  0  0  0  0  0
   34.6920   28.9000   36.4400 H   0  0  0  0  0  0  0  0  0  0  0  0
   33.1120   28.3750   38.1680 H   0  0  0  0  0  0  0  0  0  0  0  0
   33.4760   28.8990   40.5420 H   0  0  0  0  0  0  0  0  0  0  0  0
   35.5370   30.0240   41.1470 H   0  0  0  0  0  0  0  0  0  0  0  0
  1 15  1  0  0  0  0
  2  1  1  0  0  0  0
  2  3  1  0  0  0  0
  2  7  1  0  0  0  0
  3  8  1  0  0  0  0
  4 10  1  0  0  0  0
  4  3  1  0  0  0  0
  5  4  1  0  0  0  0
  5  1  1  0  0  0  0
  5 12  1  1  0  0  0
  6  2  1  0  0  0  0
  9  3  1  0  0  0  0
 11  4  1  0  0  0  0
 13 19  1  0  0  0  0
 14 13  1  0  0  0  0
 14 20  1  0  0  0  0
 15 14  2  0  0  0  0
 16 17  2  0  0  0  0
 16 15  1  0  0  0  0
 17 18  1  0  0  0  0
 18 13  2  0  0  0  0
 21 17  1  0  0  0  0
 22 24  1  0  0  0  0
 22 21  1  0  0  0  0
 22 23  1  0  0  0  0
 24 26  1  0  0  0  0
 25 24  1  0  0  0  0
 26 27  1  0  0  0  0
 28 26  1  0  0  0  0
 29 28  1  0  0  0  0
 29 21  1  0  0  0  0
 30  5  1  0  0  0  0
 31 30  2  0  0  0  0
 32 31  1  0  0  0  0
 33 32  2  0  0  0  0
 33 34  1  0  0  0  0
 34 39  1  0  0  0  0
 35 34  2  0  0  0  0
 35 36  1  0  0  0  0
 36 37  2  0  0  0  0
 37 38  1  0  0  0  0
 37 43  1  0  0  0  0
 38 44  1  0  0  0  0
 39 30  1  0  0  0  0
 39 38  2  0  0  0  0
 40 32  1  0  0  0  0
 41 35  1  0  0  0  0
 42 36  1  0  0  0  0
M  END
>  <minimizedAffinity>
-6.42984009

$$$$

 OpenBabel03242512533D

 44 48  0  0  1  0  0  0  0  0999 V2000
   36.8700   30.0040   38.4960 N   0  0  0  0  0  0  0  0  0  0  0  0
   36.6370   29.6160   37.1000 C   0  0  0  0  0  0  0  0  0  0  0  0
   35.1710   29.2610   37.2330 C   0  0  0  0  0  0  0  0  0  0  0  0
   35.2190   28.3170   38.4080 C   0  0  0  0  0  0  0  0  0  0  0  0
   36.2120   28.9750   39.3430 C   0  0  1  0  0  0  0  0  0  0  0  0
   37.2620   28.7360   36.8830 H   0  0  0  0  0  0  0  0  0  0  0  0
   36.7940   30.4640   36.4290 H   0  0  0  0  0  0  0  0  0  0  0  0
   34.6320   30.1970   37.4650 H   0  0  0  0  0  0  0  0  0  0  0  0
   34.8350   28.7600   36.3130 H   0  0  0  0  0  0  0  0  0  0  0  0
   34.2090   28.2280   38.8440 H   0  0  0  0  0  0  0  0  0  0  0  0
   35.6060   27.3390   38.0350 H   0  0  0  0  0  0  0  0  0  0  0  0
   35.6730   29.5570   40.0340 H   0  0  0  0  0  0  0  0  0  0  0  0
   37.7320   33.1410   40.2920 C   0  0  0  0  0  0  0  0  0  0  0  0
   36.9570   32.1030   39.7950 C   0  0  0  0  0  0  0  0  0  0  0  0
   37.5560   31.1030   39.0430 C   0  0  0  0  0  0  0  0  0  0  0  0
   38.8930   31.1860   38.8210 N   0  0  0  0  0  0  0  0  0  0  0  0
   39.6500   32.2060   39.3080 C   0  0  0  0  0  0  0  0  0  0  0  0
   39.0630   33.1790   40.0420 N   0  0  0  0  0  0  0  0  0  0  0  0
   37.2940   33.9400   40.8870 H   0  0  0  0  0  0  0  0  0  0  0  0
   35.9250   32.1200   39.9940 H   0  0  0  0  0  0  0  0  0  0  0  0
   41.0480   32.2540   39.0500 N   0  0  0  0  0  0  0  0  0  0  0  0
   41.9790   32.5620   40.1050 C   0  0  0  0  0  3  0  0  0  0  0  0
   41.4820   32.8590   41.0310 H   0  0  0  0  0  0  0  0  0  0  0  0
   42.9410   33.5930   39.5520 C   0  0  0  0  0  3  0  0  0  0  0  0
   43.9690   33.2220   39.4230 H   0  0  0  0  0  0  0  0  0  0  0  0
   42.5080   34.1610   38.2960 N   0  0  0  0  0  0  0  0  0  0  0  0
   41.7250   34.8260   38.3960 H   0  0  0  0  0  0  0  0  0  0  0  0
   42.2980   33.2120   37.2480 C   0  0  0  0  0  2  0  0  0  0  0  0
   41.5330   31.9870   37.7090 C   0  0  0  0  0  2  0  0  0  0  0  0
   37.2820   28.0920   39.7660 C   0  0  0  0  0  0  0  0  0  0  0  0
   37.9770   27.3490   38.8720 N   0  0  0  0  0  0  0  0  0  0  0  0
   38.9800   26.5010   39.1900 C   0  0  0  0  0  0  0  0  0  0  0  0
   39.3210   26.3790   40.4810 N   0  0  0  0  0  0  0  0  0  0  0  0
   38.6710   27.0850   41.3980 C   0  0  0  0  0  0  0  0  0  0  0  0
   39.0710   26.9170   42.7180 C   0  0  0  0  0  0  0  0  0  0  0  0
   38.3880   27.6600   43.6720 C   0  0  0  0  0  0  0  0  0  0  0  0
   37.3470   28.5460   43.4100 C   0  0  0  0  0  0  0  0  0  0  0  0
   37.0190   28.6460   42.0710 C   0  0  0  0  0  0  0  0  0  0  0  0
   37.6350   27.9610   41.0850 C   0  0  0  0  0  0  0  0  0  0  0  0
   39.4860   25.9410   38.4000 H   0  0  0  0  0  0  0  0  0  0  0  0
   39.8700   26.2510   43.0140 H   0  0  0  0  0  0  0  0  0  0  0  0
   38.7220   27.5120   44.7030 H   0  0  0  0  0  0  0  0  0  0  0  0
   36.8850   29.0700   44.2160 H   0  0  0  0  0  0  0  0  0  0  0  0
   36.1980   29.3200   41.9040 H   0  0  0  0  0  0  0  0  0  0  0  0
  1 15  1  0  0  0  0
  1  5  1  0  0  0  0
  2  3  1  0  0  0  0
  2  1  1  0  0  0  0
  3  8  1  0  0  0  0
  3  4  1  0  0  0  0
  4 10  1  0  0  0  0
  4  5  1  0  0  0  0
  5 30  1  0  0  0  0
  5 12  1  1  0  0  0
  6  2  1  0  0  0  0
  7  2  1  0  0  0  0
  9  3  1  0  0  0  0
 11  4  1  0  0  0  0
 13 19  1  0  0  0  0
 14 20  1  0  0  0  0
 14 13  2  0  0  0  0
 15 14  1  0  0  0  0
 16 15  2  0  0  0  0
 16 17  1  0  0  0  0
 17 18  2  0  0  0  0
 18 13  1  0  0  0  0
 21 17  1  0  0  0  0
 21 22  1  0  0  0  0
 22 23  1  0  0  0  0
 24 22  1  0  0  0  0
 25 24  1  0  0  0  0
 26 27  1  0  0  0  0
 26 24  1  0  0  0  0
 28 29  1  0  0  0  0
 28 26  1  0  0  0  0
 29 21  1  0  0  0  0
 30 39  1  0  0  0  0
 31 32  1  0  0  0  0
 31 30  2  0  0  0  0
 32 33  2  0  0  0  0
 33 34  1  0  0  0  0
 34 35  1  0  0  0  0
 35 41  1  0  0  0  0
 35 36  2  0  0  0  0
 36 42  1  0  0  0  0
 37 36  1  0  0  0  0
 37 43  1  0  0  0  0
 38 37  2  0  0  0  0
 39 34  2  0  0  0  0
 39 38  1  0  0  0  0
 40 32  1  0  0  0  0
 44 38  1  0  0  0  0
M  END
>  <minimizedAffinity>
-6.28869247

$$$$

 OpenBabel03242512533D

 44 48  0  0  1  0  0  0  0  0999 V2000
   37.0020   29.6370   39.3000 N   0  0  0  0  0  0  0  0  0  0  0  0
   35.7020   29.7330   38.6260 C   0  0  0  0  0  0  0  0  0  0  0  0
   36.1680   29.3480   37.2380 C   0  0  0  0  0  0  0  0  0  0  0  0
   37.3210   30.3030   37.0570 C   0  0  0  0  0  0  0  0  0  0  0  0
   37.9950   30.2960   38.4130 C   0  0  1  0  0  0  0  0  0  0  0  0
   35.3680   30.7800   38.6800 H   0  0  0  0  0  0  0  0  0  0  0  0
   34.9960   29.0070   39.0380 H   0  0  0  0  0  0  0  0  0  0  0  0
   36.4970   28.2940   37.2880 H   0  0  0  0  0  0  0  0  0  0  0  0
   35.3570   29.5370   36.5180 H   0  0  0  0  0  0  0  0  0  0  0  0
   37.9740   29.9340   36.2470 H   0  0  0  0  0  0  0  0  0  0  0  0
   36.8900   31.3070   36.8280 H   0  0  0  0  0  0  0  0  0  0  0  0
   38.7790   29.5920   38.3830 H   0  0  0  0  0  0  0  0  0  0  0  0
   37.5110   28.9850   42.9230 C   0  0  0  0  0  0  0  0  0  0  0  0
   37.1190   29.6460   41.7680 C   0  0  0  0  0  0  0  0  0  0  0  0
   37.3590   29.0610   40.5330 C   0  0  0  0  0  0  0  0  0  0  0  0
   37.9770   27.8520   40.5080 N   0  0  0  0  0  0  0  0  0  0  0  0
   38.3610   27.2080   41.6430 C   0  0  0  0  0  0  0  0  0  0  0  0
   38.1250   27.7810   42.8460 N   0  0  0  0  0  0  0  0  0  0  0  0
   37.3370   29.4160   43.9080 H   0  0  0  0  0  0  0  0  0  0  0  0
   36.6650   30.5880   41.8680 H   0  0  0  0  0  0  0  0  0  0  0  0
   39.0070   25.9420   41.5710 N   0  0  0  0  0  0  0  0  0  0  0  0
   38.6130   24.8670   42.4460 C   0  0  0  0  0  3  0  0  0  0  0  0
   37.8910   25.1820   43.2010 H   0  0  0  0  0  0  0  0  0  0  0  0
   39.8880   24.2700   43.0060 C   0  0  0  0  0  3  0  0  0  0  0  0
   40.0980   23.2500   42.6530 H   0  0  0  0  0  0  0  0  0  0  0  0
   41.0560   25.0820   42.7530 N   0  0  0  0  0  0  0  0  0  0  0  0
   41.0990   25.9310   43.3390 H   0  0  0  0  0  0  0  0  0  0  0  0
   41.3170   25.3480   41.3730 C   0  0  0  0  0  2  0  0  0  0  0  0
   40.0700   25.7410   40.6050 C   0  0  0  0  0  2  0  0  0  0  0  0
   38.1850   31.6190   38.9720 C   0  0  0  0  0  0  0  0  0  0  0  0
   37.1700   32.5160   39.0230 N   0  0  0  0  0  0  0  0  0  0  0  0
   37.2710   33.7660   39.5230 C   0  0  0  0  0  0  0  0  0  0  0  0
   38.4580   34.1610   40.0070 N   0  0  0  0  0  0  0  0  0  0  0  0
   39.4860   33.3220   39.9810 C   0  0  0  0  0  0  0  0  0  0  0  0
   40.6880   33.7870   40.5000 C   0  0  0  0  0  0  0  0  0  0  0  0
   41.7590   32.9030   40.4710 C   0  0  0  0  0  0  0  0  0  0  0  0
   41.7200   31.6060   39.9690 C   0  0  0  0  0  0  0  0  0  0  0  0
   40.4850   31.2330   39.4760 C   0  0  0  0  0  0  0  0  0  0  0  0
   39.3960   32.0300   39.4680 C   0  0  0  0  0  0  0  0  0  0  0  0
   36.3970   34.4220   39.5220 H   0  0  0  0  0  0  0  0  0  0  0  0
   40.8100   34.7800   40.9110 H   0  0  0  0  0  0  0  0  0  0  0  0
   42.6930   33.2920   40.8860 H   0  0  0  0  0  0  0  0  0  0  0  0
   42.6010   31.0050   39.9930 H   0  0  0  0  0  0  0  0  0  0  0  0
   40.4930   30.2350   39.0750 H   0  0  0  0  0  0  0  0  0  0  0  0
  1 15  1  0  0  0  0
  2  6  1  0  0  0  0
  2  7  1  0  0  0  0
  2  1  1  0  0  0  0
  3  8  1  0  0  0  0
  3  2  1  0  0  0  0
  4  3  1  0  0  0  0
  4  5  1  0  0  0  0
  5 12  1  6  0  0  0
  5 30  1  0  0  0  0
  5  1  1  0  0  0  0
  9  3  1  0  0  0  0
 10  4  1  0  0  0  0
 11  4  1  0  0  0  0
 13 19  1  0  0  0  0
 14 20  1  0  0  0  0
 14 13  2  0  0  0  0
 15 14  1  0  0  0  0
 16 15  2  0  0  0  0
 16 17  1  0  0  0  0
 17 18  2  0  0  0  0
 18 13  1  0  0  0  0
 21 17  1  0  0  0  0
 21 22  1  0  0  0  0
 22 24  1  0  0  0  0
 22 23  1  0  0  0  0
 25 24  1  0  0  0  0
 26 24  1  0  0  0  0
 26 27  1  0  0  0  0
 28 26  1  0  0  0  0
 29 28  1  0  0  0  0
 29 21  1  0  0  0  0
 30 31  2  0  0  0  0
 30 39  1  0  0  0  0
 31 32  1  0  0  0  0
 32 33  2  0  0  0  0
 34 33  1  0  0  0  0
 34 35  1  0  0  0  0
 35 41  1  0  0  0  0
 36 35  2  0  0  0  0
 36 42  1  0  0  0  0
 37 43  1  0  0  0  0
 37 36  1  0  0  0  0
 38 37  2  0  0  0  0
 39 38  1  0  0  0  0
 39 34  2  0  0  0  0
 40 32  1  0  0  0  0
 44 38  1  0  0  0  0
M  END
>  <minimizedAffinity>
-6.25665903

$$$$

 OpenBabel03242512533D

 44 48  0  0  1  0  0  0  0  0999 V2000
   37.0330   28.7020   37.5460 N   0  0  0  0  0  0  0  0  0  0  0  0
   36.2270   28.1150   36.4690 C   0  0  0  0  0  0  0  0  0  0  0  0
   34.9910   28.9710   36.6550 C   0  0  0  0  0  0  0  0  0  0  0  0
   34.7460   28.7880   38.1320 C   0  0  0  0  0  0  0  0  0  0  0  0
   36.1380   28.8400   38.7250 C   0  0  1  0  0  0  0  0  0  0  0  0
   36.0450   27.0590   36.7180 H   0  0  0  0  0  0  0  0  0  0  0  0
   36.6970   28.2810   35.4960 H   0  0  0  0  0  0  0  0  0  0  0  0
   35.2740   30.0080   36.4000 H   0  0  0  0  0  0  0  0  0  0  0  0
   34.1710   28.5600   36.0460 H   0  0  0  0  0  0  0  0  0  0  0  0
   34.0910   29.5990   38.4950 H   0  0  0  0  0  0  0  0  0  0  0  0
   34.2880   27.7800   38.2720 H   0  0  0  0  0  0  0  0  0  0  0  0
   36.3220   29.8280   39.0390 H   0  0  0  0  0  0  0  0  0  0  0  0
   40.7400   28.7720   37.2990 C   0  0  0  0  0  0  0  0  0  0  0  0
   39.4460   28.2740   37.2400 C   0  0  0  0  0  0  0  0  0  0  0  0
   38.3820   29.0990   37.5740 C   0  0  0  0  0  0  0  0  0  0  0  0
   38.6560   30.3740   37.9520 N   0  0  0  0  0  0  0  0  0  0  0  0
   39.9270   30.8580   38.0110 C   0  0  0  0  0  0  0  0  0  0  0  0
   40.9620   30.0510   37.6830 N   0  0  0  0  0  0  0  0  0  0  0  0
   41.5970   28.1510   37.0420 H   0  0  0  0  0  0  0  0  0  0  0  0
   39.3160   27.2700   36.9570 H   0  0  0  0  0  0  0  0  0  0  0  0
   40.1690   32.2010   38.4140 N   0  0  0  0  0  0  0  0  0  0  0  0
   41.0940   33.0300   37.6840 C   0  0  0  0  0  3  0  0  0  0  0  0
   41.6370   32.4770   36.9140 H   0  0  0  0  0  0  0  0  0  0  0  0
   41.9770   33.7070   38.7110 C   0  0  0  0  0  3  0  0  0  0  0  0
   41.8250   34.7950   38.7850 H   0  0  0  0  0  0  0  0  0  0  0  0
   41.8470   33.1440   40.0350 N   0  0  0  0  0  0  0  0  0  0  0  0
   42.3000   32.2220   40.1340 H   0  0  0  0  0  0  0  0  0  0  0  0
   40.5220   33.1710   40.5720 C   0  0  0  0  0  2  0  0  0  0  0  0
   39.4740   32.7320   39.5700 C   0  0  0  0  0  2  0  0  0  0  0  0
   36.4510   27.7050   39.5720 C   0  0  0  0  0  0  0  0  0  0  0  0
   36.3100   26.4330   39.1270 N   0  0  0  0  0  0  0  0  0  0  0  0
   36.5740   25.3280   39.8560 C   0  0  0  0  0  0  0  0  0  0  0  0
   37.0080   25.4890   41.1150 N   0  0  0  0  0  0  0  0  0  0  0  0
   37.1630   26.7130   41.6010 C   0  0  0  0  0  0  0  0  0  0  0  0
   37.6170   26.8160   42.9100 C   0  0  0  0  0  0  0  0  0  0  0  0
   37.7790   28.1000   43.4120 C   0  0  0  0  0  0  0  0  0  0  0  0
   37.5230   29.2760   42.7140 C   0  0  0  0  0  0  0  0  0  0  0  0
   37.0740   29.0760   41.4220 C   0  0  0  0  0  0  0  0  0  0  0  0
   36.8930   27.8610   40.8600 C   0  0  0  0  0  0  0  0  0  0  0  0
   36.4310   24.3390   39.4130 H   0  0  0  0  0  0  0  0  0  0  0  0
   37.8420   25.9560   43.5270 H   0  0  0  0  0  0  0  0  0  0  0  0
   38.1390   28.1540   44.4440 H   0  0  0  0  0  0  0  0  0  0  0  0
   37.6780   30.2180   43.1910 H   0  0  0  0  0  0  0  0  0  0  0  0
   36.8640   30.0010   40.9170 H   0  0  0  0  0  0  0  0  0  0  0  0
  1 15  1  0  0  0  0
  1  5  1  0  0  0  0
  2  3  1  0  0  0  0
  2  6  1  0  0  0  0
  2  1  1  0  0  0  0
  3  4  1  0  0  0  0
  4 11  1  0  0  0  0
  4 10  1  0  0  0  0
  4  5  1  0  0  0  0
  5 12  1  1  0  0  0
  5 30  1  0  0  0  0
  7  2  1  0  0  0  0
  8  3  1  0  0  0  0
  9  3  1  0  0  0  0
 13 18  1  0  0  0  0
 14 13  2  0  0  0  0
 14 15  1  0  0  0  0
 15 16  2  0  0  0  0
 16 17  1  0  0  0  0
 17 21  1  0  0  0  0
 18 17  2  0  0  0  0
 19 13  1  0  0  0  0
 20 14  1  0  0  0  0
 21 29  1  0  0  0  0
 22 21  1  0  0  0  0
 22 24  1  0  0  0  0
 23 22  1  0  0  0  0
 24 25  1  0  0  0  0
 24 26  1  0  0  0  0
 26 27  1  0  0  0  0
 26 28  1  0  0  0  0
 29 28  1  0  0  0  0
 30 39  1  0  0  0  0
 31 30  2  0  0  0  0
 31 32  1  0  0  0  0
 32 33  2  0  0  0  0
 33 34  1  0  0  0  0
 34 35  1  0  0  0  0
 35 36  2  0  0  0  0
 35 41  1  0  0  0  0
 36 42  1  0  0  0  0
 37 43  1  0  0  0  0
 37 36  1  0  0  0  0
 38 37  2  0  0  0  0
 39 38  1  0  0  0  0
 39 34  2  0  0  0  0
 40 32  1  0  0  0  0
 44 38  1  0  0  0  0
M  END
>  <minimizedAffinity>
-6.09137726

$$$$

 OpenBabel03242512533D

 44 48  0  0  1  0  0  0  0  0999 V2000
   39.4080   30.3400   41.5120 N   0  0  0  0  0  0  0  0  0  0  0  0
   40.0110   31.0140   42.6680 C   0  0  0  0  0  0  0  0  0  0  0  0
   41.4050   30.4390   42.5280 C   0  0  0  0  0  0  0  0  0  0  0  0
   41.0920   28.9670   42.4390 C   0  0  0  0  0  0  0  0  0  0  0  0
   39.8640   28.9260   41.5540 C   0  0  1  0  0  0  0  0  0  0  0  0
   39.5000   30.6550   43.5740 H   0  0  0  0  0  0  0  0  0  0  0  0
   39.9990   32.0980   42.5350 H   0  0  0  0  0  0  0  0  0  0  0  0
   41.8270   30.8390   41.5890 H   0  0  0  0  0  0  0  0  0  0  0  0
   41.9890   30.6840   43.4290 H   0  0  0  0  0  0  0  0  0  0  0  0
   41.9570   28.4370   42.0030 H   0  0  0  0  0  0  0  0  0  0  0  0
   40.8550   28.6130   43.4710 H   0  0  0  0  0  0  0  0  0  0  0  0
   40.1810   28.7570   40.5640 H   0  0  0  0  0  0  0  0  0  0  0  0
   37.3100   32.5190   39.3550 C   0  0  0  0  0  0  0  0  0  0  0  0
   38.1460   32.1470   40.3970 C   0  0  0  0  0  0  0  0  0  0  0  0
   38.5590   30.8270   40.5010 C   0  0  0  0  0  0  0  0  0  0  0  0
   38.1200   29.9440   39.5670 N   0  0  0  0  0  0  0  0  0  0  0  0
   37.2990   30.3130   38.5470 C   0  0  0  0  0  0  0  0  0  0  0  0
   36.8980   31.6020   38.4480 N   0  0  0  0  0  0  0  0  0  0  0  0
   36.9670   33.5470   39.2440 H   0  0  0  0  0  0  0  0  0  0  0  0
   38.4260   32.8840   41.0920 H   0  0  0  0  0  0  0  0  0  0  0  0
   36.8620   29.3550   37.5910 N   0  0  0  0  0  0  0  0  0  0  0  0
   36.8800   29.6630   36.1830 C   0  0  0  0  0  3  0  0  0  0  0  0
   37.1370   30.7050   35.9840 H   0  0  0  0  0  0  0  0  0  0  0  0
   35.5420   29.2270   35.6230 C   0  0  0  0  0  3  0  0  0  0  0  0
   35.6020   28.3710   34.9350 H   0  0  0  0  0  0  0  0  0  0  0  0
   34.5710   28.9150   36.6460 N   0  0  0  0  0  0  0  0  0  0  0  0
   34.1930   29.7500   37.1200 H   0  0  0  0  0  0  0  0  0  0  0  0
   34.9690   27.8910   37.5610 C   0  0  0  0  0  2  0  0  0  0  0  0
   36.3960   28.0590   38.0450 C   0  0  0  0  0  2  0  0  0  0  0  0
   38.7580   28.1870   42.1310 C   0  0  0  0  0  0  0  0  0  0  0  0
   37.9720   28.7310   43.0910 N   0  0  0  0  0  0  0  0  0  0  0  0
   36.9300   28.1060   43.6800 C   0  0  0  0  0  0  0  0  0  0  0  0
   36.6430   26.8540   43.2940 N   0  0  0  0  0  0  0  0  0  0  0  0
   37.3810   26.2730   42.3570 C   0  0  0  0  0  0  0  0  0  0  0  0
   37.0330   24.9770   41.9970 C   0  0  0  0  0  0  0  0  0  0  0  0
   37.8090   24.3770   41.0150 C   0  0  0  0  0  0  0  0  0  0  0  0
   38.8950   24.9650   40.3730 C   0  0  0  0  0  0  0  0  0  0  0  0
   39.1660   26.2530   40.7960 C   0  0  0  0  0  0  0  0  0  0  0  0
   38.4590   26.9070   41.7430 C   0  0  0  0  0  0  0  0  0  0  0  0
   36.3500   28.6240   44.4470 H   0  0  0  0  0  0  0  0  0  0  0  0
   36.2050   24.4420   42.4420 H   0  0  0  0  0  0  0  0  0  0  0  0
   37.5150   23.3570   40.7490 H   0  0  0  0  0  0  0  0  0  0  0  0
   39.4290   24.4170   39.6300 H   0  0  0  0  0  0  0  0  0  0  0  0
   40.0220   26.6710   40.2990 H   0  0  0  0  0  0  0  0  0  0  0  0
  1  5  1  0  0  0  0
  1  2  1  0  0  0  0
  2  6  1  0  0  0  0
  3  2  1  0  0  0  0
  3  9  1  0  0  0  0
  4  3  1  0  0  0  0
  4 11  1  0  0  0  0
  5 12  1  6  0  0  0
  5 30  1  0  0  0  0
  5  4  1  0  0  0  0
  7  2  1  0  0  0  0
  8  3  1  0  0  0  0
 10  4  1  0  0  0  0
 13 14  1  0  0  0  0
 14 15  2  0  0  0  0
 14 20  1  0  0  0  0
 15  1  1  0  0  0  0
 16 15  1  0  0  0  0
 17 16  2  0  0  0  0
 18 17  1  0  0  0  0
 18 13  2  0  0  0  0
 19 13  1  0  0  0  0
 21 29  1  0  0  0  0
 21 17  1  0  0  0  0
 22 21  1  0  0  0  0
 23 22  1  0  0  0  0
 24 22  1  0  0  0  0
 24 26  1  0  0  0  0
 25 24  1  0  0  0  0
 26 27  1  0  0  0  0
 26 28  1  0  0  0  0
 28 29  1  0  0  0  0
 30 31  1  0  0  0  0
 31 32  2  0  0  0  0
 32 40  1  0  0  0  0
 33 32  1  0  0  0  0
 34 33  2  0  0  0  0
 35 34  1  0  0  0  0
 35 41  1  0  0  0  0
 36 35  2  0  0  0  0
 37 38  2  0  0  0  0
 37 36  1  0  0  0  0
 38 39  1  0  0  0  0
 39 30  2  0  0  0  0
 39 34  1  0  0  0  0
 42 36  1  0  0  0  0
 43 37  1  0  0  0  0
 44 38  1  0  0  0  0
M  END
>  <minimizedAffinity>
-6.0487566

$$$$

 OpenBabel03242512533D

 44 48  0  0  1  0  0  0  0  0999 V2000
   36.7410   28.2660   41.4360 N   0  0  0  0  0  0  0  0  0  0  0  0
   37.1170   26.9920   42.0580 C   0  0  0  0  0  0  0  0  0  0  0  0
   36.7620   27.3550   43.4850 C   0  0  0  0  0  0  0  0  0  0  0  0
   37.5090   28.6570   43.6350 C   0  0  0  0  0  0  0  0  0  0  0  0
   37.2790   29.3440   42.3060 C   0  0  1  0  0  0  0  0  0  0  0  0
   38.2000   26.8520   41.9200 H   0  0  0  0  0  0  0  0  0  0  0  0
   36.4990   26.1750   41.6780 H   0  0  0  0  0  0  0  0  0  0  0  0
   35.6660   27.4910   43.5220 H   0  0  0  0  0  0  0  0  0  0  0  0
   37.1470   26.5770   44.1630 H   0  0  0  0  0  0  0  0  0  0  0  0
   37.0930   29.2180   44.4900 H   0  0  0  0  0  0  0  0  0  0  0  0
   38.5880   28.4080   43.7770 H   0  0  0  0  0  0  0  0  0  0  0  0
   36.4530   29.9890   42.4100 H   0  0  0  0  0  0  0  0  0  0  0  0
   34.1010   29.2540   39.0150 C   0  0  0  0  0  0  0  0  0  0  0  0
   34.7170   29.0150   40.2350 C   0  0  0  0  0  0  0  0  0  0  0  0
   36.0190   28.5380   40.2600 C   0  0  0  0  0  0  0  0  0  0  0  0
   36.6420   28.3190   39.0730 N   0  0  0  0  0  0  0  0  0  0  0  0
   36.0340   28.5530   37.8780 C   0  0  0  0  0  0  0  0  0  0  0  0
   34.7640   29.0200   37.8570 N   0  0  0  0  0  0  0  0  0  0  0  0
   33.0800   29.6290   38.9600 H   0  0  0  0  0  0  0  0  0  0  0  0
   34.1610   29.1900   41.1100 H   0  0  0  0  0  0  0  0  0  0  0  0
   36.7240   28.3090   36.6580 N   0  0  0  0  0  0  0  0  0  0  0  0
   36.6780   29.2700   35.5850 C   0  0  0  0  0  3  0  0  0  0  0  0
   35.9830   30.0890   35.7830 H   0  0  0  0  0  0  0  0  0  0  0  0
   36.3890   28.4950   34.3170 C   0  0  0  0  0  3  0  0  0  0  0  0
   37.2270   28.4740   33.6040 H   0  0  0  0  0  0  0  0  0  0  0  0
   35.9750   27.1320   34.5630 N   0  0  0  0  0  0  0  0  0  0  0  0
   35.0120   27.0570   34.9260 H   0  0  0  0  0  0  0  0  0  0  0  0
   36.9100   26.3450   35.3040 C   0  0  0  0  0  2  0  0  0  0  0  0
   37.4780   27.0810   36.5010 C   0  0  0  0  0  2  0  0  0  0  0  0
   38.5020   29.7790   41.6590 C   0  0  0  0  0  0  0  0  0  0  0  0
   39.6480   29.0650   41.7660 N   0  0  0  0  0  0  0  0  0  0  0  0
   40.8250   29.4070   41.1990 C   0  0  0  0  0  0  0  0  0  0  0  0
   40.8750   30.5350   40.4750 N   0  0  0  0  0  0  0  0  0  0  0  0
   39.7800   31.2720   40.3370 C   0  0  0  0  0  0  0  0  0  0  0  0
   39.8930   32.4260   39.5730 C   0  0  0  0  0  0  0  0  0  0  0  0
   38.7430   33.1920   39.4320 C   0  0  0  0  0  0  0  0  0  0  0  0
   37.5040   32.8950   39.9920 C   0  0  0  0  0  0  0  0  0  0  0  0
   37.4890   31.7300   40.7340 C   0  0  0  0  0  0  0  0  0  0  0  0
   38.5610   30.9310   40.9170 C   0  0  0  0  0  0  0  0  0  0  0  0
   41.7010   28.7690   41.3400 H   0  0  0  0  0  0  0  0  0  0  0  0
   40.8160   32.7350   39.1010 H   0  0  0  0  0  0  0  0  0  0  0  0
   38.8580   34.0950   38.8260 H   0  0  0  0  0  0  0  0  0  0  0  0
   36.6790   33.5510   39.8240 H   0  0  0  0  0  0  0  0  0  0  0  0
   36.5240   31.5410   41.1710 H   0  0  0  0  0  0  0  0  0  0  0  0
  1  2  1  0  0  0  0
  1  5  1  0  0  0  0
  2  3  1  0  0  0  0
  3  8  1  0  0  0  0
  3  4  1  0  0  0  0
  3  9  1  0  0  0  0
  4 11  1  0  0  0  0
  4 10  1  0  0  0  0
  5 12  1  1  0  0  0
  5  4  1  0  0  0  0
  6  2  1  0  0  0  0
  7  2  1  0  0  0  0
 13 14  1  0  0  0  0
 14 15  2  0  0  0  0
 14 20  1  0  0  0  0
 15  1  1  0  0  0  0
 16 15  1  0  0  0  0
 17 16  2  0  0  0  0
 18 17  1  0  0  0  0
 18 13  2  0  0  0  0
 19 13  1  0  0  0  0
 21 17  1  0  0  0  0
 22 23  1  0  0  0  0
 22 21  1  0  0  0  0
 24 26  1  0  0  0  0
 24 22  1  0  0  0  0
 25 24  1  0  0  0  0
 26 27  1  0  0  0  0
 26 28  1  0  0  0  0
 28 29  1  0  0  0  0
 29 21  1  0  0  0  0
 30 31  1  0  0  0  0
 30  5  1  0  0  0  0
 32 40  1  0  0  0  0
 32 31  2  0  0  0  0
 33 32  1  0  0  0  0
 34 33  2  0  0  0  0
 34 39  1  0  0  0  0
 35 34  1  0  0  0  0
 36 35  2  0  0  0  0
 36 37  1  0  0  0  0
 37 38  2  0  0  0  0
 38 39  1  0  0  0  0
 38 44  1  0  0  0  0
 39 30  2  0  0  0  0
 41 35  1  0  0  0  0
 42 36  1  0  0  0  0
 43 37  1  0  0  0  0
M  END
>  <minimizedAffinity>
-5.97815418

$$$$

 OpenBabel03242512533D

 44 48  0  0  1  0  0  0  0  0999 V2000
   40.7200   29.6260   42.3540 N   0  0  0  0  0  0  0  0  0  0  0  0
   42.1080   29.1970   42.5670 C   0  0  0  0  0  0  0  0  0  0  0  0
   42.5620   30.3920   43.3790 C   0  0  0  0  0  0  0  0  0  0  0  0
   42.1230   31.5220   42.4830 C   0  0  0  0  0  0  0  0  0  0  0  0
   40.7670   31.0650   41.9860 C   0  0  1  0  0  0  0  0  0  0  0  0
   42.6020   29.1470   41.5850 H   0  0  0  0  0  0  0  0  0  0  0  0
   42.1440   28.2710   43.1450 H   0  0  0  0  0  0  0  0  0  0  0  0
   42.0030   30.3670   44.3320 H   0  0  0  0  0  0  0  0  0  0  0  0
   43.6570   30.3560   43.4940 H   0  0  0  0  0  0  0  0  0  0  0  0
   42.0770   32.4550   43.0700 H   0  0  0  0  0  0  0  0  0  0  0  0
   42.8570   31.5870   41.6440 H   0  0  0  0  0  0  0  0  0  0  0  0
   40.0320   31.4860   42.6120 H   0  0  0  0  0  0  0  0  0  0  0  0
   37.3270   28.4670   43.3260 C   0  0  0  0  0  0  0  0  0  0  0  0
   38.4800   29.2380   43.3180 C   0  0  0  0  0  0  0  0  0  0  0  0
   39.5120   28.9130   42.4510 C   0  0  0  0  0  0  0  0  0  0  0  0
   39.3480   27.8370   41.6380 N   0  0  0  0  0  0  0  0  0  0  0  0
   38.2160   27.0820   41.6500 C   0  0  0  0  0  0  0  0  0  0  0  0
   37.2110   27.4030   42.4970 N   0  0  0  0  0  0  0  0  0  0  0  0
   36.4980   28.6950   43.9940 H   0  0  0  0  0  0  0  0  0  0  0  0
   38.5390   30.0430   43.9920 H   0  0  0  0  0  0  0  0  0  0  0  0
   38.0870   25.9620   40.7820 N   0  0  0  0  0  0  0  0  0  0  0  0
   36.8690   25.7440   40.0430 C   0  0  0  0  0  3  0  0  0  0  0  0
   36.0750   26.4380   40.3260 H   0  0  0  0  0  0  0  0  0  0  0  0
   36.5130   24.2810   40.2110 C   0  0  0  0  0  3  0  0  0  0  0  0
   36.6000   23.6900   39.2870 H   0  0  0  0  0  0  0  0  0  0  0  0
   37.2840   23.6210   41.2400 N   0  0  0  0  0  0  0  0  0  0  0  0
   36.9990   23.8850   42.1960 H   0  0  0  0  0  0  0  0  0  0  0  0
   38.7000   23.6650   41.0510 C   0  0  0  0  0  2  0  0  0  0  0  0
   39.1960   25.0380   40.6440 C   0  0  0  0  0  2  0  0  0  0  0  0
   40.6400   31.0920   40.5420 C   0  0  0  0  0  0  0  0  0  0  0  0
   41.6750   30.7570   39.7360 N   0  0  0  0  0  0  0  0  0  0  0  0
   41.6350   30.7630   38.3860 C   0  0  0  0  0  0  0  0  0  0  0  0
   40.4910   31.1270   37.7890 N   0  0  0  0  0  0  0  0  0  0  0  0
   39.4450   31.4660   38.5320 C   0  0  0  0  0  0  0  0  0  0  0  0
   38.2870   31.8310   37.8560 C   0  0  0  0  0  0  0  0  0  0  0  0
   37.1960   32.1820   38.6390 C   0  0  0  0  0  0  0  0  0  0  0  0
   37.1750   32.1980   40.0300 C   0  0  0  0  0  0  0  0  0  0  0  0
   38.3690   31.8220   40.6140 C   0  0  0  0  0  0  0  0  0  0  0  0
   39.4730   31.4650   39.9240 C   0  0  0  0  0  0  0  0  0  0  0  0
   42.5220   30.4770   37.8160 H   0  0  0  0  0  0  0  0  0  0  0  0
   38.2130   31.8470   36.7770 H   0  0  0  0  0  0  0  0  0  0  0  0
   36.2970   32.4640   38.0840 H   0  0  0  0  0  0  0  0  0  0  0  0
   36.2830   32.4860   40.5410 H   0  0  0  0  0  0  0  0  0  0  0  0
   38.3280   31.8650   41.6880 H   0  0  0  0  0  0  0  0  0  0  0  0
  1 15  1  0  0  0  0
  1  2  1  0  0  0  0
  2  7  1  0  0  0  0
  2  3  1  0  0  0  0
  3  9  1  0  0  0  0
  3  8  1  0  0  0  0
  4 10  1  0  0  0  0
  4  3  1  0  0  0  0
  5  1  1  0  0  0  0
  5  4  1  0  0  0  0
  5 12  1  1  0  0  0
  6  2  1  0  0  0  0
 11  4  1  0  0  0  0
 13 19  1  0  0  0  0
 14 13  1  0  0  0  0
 14 20  1  0  0  0  0
 15 14  2  0  0  0  0
 16 17  2  0  0  0  0
 16 15  1  0  0  0  0
 17 18  1  0  0  0  0
 18 13  2  0  0  0  0
 21 17  1  0  0  0  0
 22 24  1  0  0  0  0
 22 23  1  0  0  0  0
 22 21  1  0  0  0  0
 24 26  1  0  0  0  0
 25 24  1  0  0  0  0
 26 27  1  0  0  0  0
 28 26  1  0  0  0  0
 29 21  1  0  0  0  0
 29 28  1  0  0  0  0
 30  5  1  0  0  0  0
 31 30  2  0  0  0  0
 32 31  1  0  0  0  0
 33 32  2  0  0  0  0
 33 34  1  0  0  0  0
 34 39  1  0  0  0  0
 35 34  2  0  0  0  0
 35 36  1  0  0  0  0
 36 37  2  0  0  0  0
 37 43  1  0  0  0  0
 37 38  1  0  0  0  0
 38 44  1  0  0  0  0
 39 30  1  0  0  0  0
 39 38  2  0  0  0  0
 40 32  1  0  0  0  0
 41 35  1  0  0  0  0
 42 36  1  0  0  0  0
M  END
>  <minimizedAffinity>
-5.96618271

$$$$
