
 OpenBabel03252502493D

 45 48  0  0  1  0  0  0  0  0999 V2000
   37.8040   29.5980   42.8580 C   0  0  0  0  0  0  0  0  0  0  0  0
   37.3210   30.0900   43.7500 H   0  0  0  0  0  0  0  0  0  0  0  0
   37.1590   29.8850   42.0010 H   0  0  0  0  0  0  0  0  0  0  0  0
   37.8510   28.1030   42.9640 C   0  0  1  0  0  0  0  0  0  0  0  0
   36.5700   27.4060   43.2750 C   0  0  0  0  0  0  0  0  0  0  0  0
   37.1760   27.3390   41.9220 C   0  0  2  0  0  0  0  0  0  0  0  0
   38.7490   27.7400   43.4540 H   0  0  0  0  0  0  0  0  0  0  0  0
   36.5920   26.5440   43.9820 H   0  0  0  0  0  0  0  0  0  0  0  0
   35.6580   28.0290   43.4590 H   0  0  0  0  0  0  0  0  0  0  0  0
   36.5500   27.7580   41.1330 H   0  0  0  0  0  0  0  0  0  0  0  0
   37.7940   26.0540   41.6480 N   0  0  0  0  0  0  0  0  0  0  0  0
   37.0050   24.9360   42.0180 C   0  0  0  0  0  0  0  0  0  0  0  0
   37.8350   23.7100   41.6670 C   0  0  0  0  0  0  0  0  0  0  0  0
   39.0490   23.6550   42.4050 N   0  0  0  0  0  0  0  0  0  0  0  0
   39.5470   24.9400   42.8230 C   0  0  0  0  0  0  0  0  0  0  0  0
   39.1870   25.9930   41.7840 C   0  0  0  0  0  0  0  0  0  0  0  0
   36.8140   24.9110   43.1200 H   0  0  0  0  0  0  0  0  0  0  0  0
   36.0630   24.9260   41.4540 H   0  0  0  0  0  0  0  0  0  0  0  0
   38.0330   23.7760   40.5630 H   0  0  0  0  0  0  0  0  0  0  0  0
   37.2290   22.8080   41.8640 H   0  0  0  0  0  0  0  0  0  0  0  0
   39.7460   23.1380   41.8430 H   0  0  0  0  0  0  0  0  0  0  0  0
   40.6610   24.9230   42.9050 H   0  0  0  0  0  0  0  0  0  0  0  0
   39.1110   25.2390   43.7920 H   0  0  0  0  0  0  0  0  0  0  0  0
   39.6230   26.9490   42.1310 H   0  0  0  0  0  0  0  0  0  0  0  0
   39.6300   25.6800   40.8060 H   0  0  0  0  0  0  0  0  0  0  0  0
   39.2210   30.0530   42.6460 C   0  0  0  0  0  0  0  0  0  0  0  0
   39.9810   29.2860   42.6120 H   0  0  0  0  0  0  0  0  0  0  0  0
   39.4870   30.6920   43.5360 H   0  0  0  0  0  0  0  0  0  0  0  0
   38.0520   32.3790   39.9610 C   0  0  0  0  0  0  0  0  0  0  0  0
   38.0320   31.4800   41.0530 C   0  0  0  0  0  0  0  0  0  0  0  0
   39.2350   31.0070   41.4880 C   0  0  0  0  0  0  0  0  0  0  0  0
   40.3720   31.4060   40.8700 N   0  0  0  0  0  0  0  0  0  0  0  0
   40.3730   32.2430   39.8550 C   0  0  0  0  0  0  0  0  0  0  0  0
   39.2280   32.7330   39.3940 N   0  0  0  0  0  0  0  0  0  0  0  0
   37.0690   32.7220   39.6590 H   0  0  0  0  0  0  0  0  0  0  0  0
   37.0970   31.1900   41.5150 H   0  0  0  0  0  0  0  0  0  0  0  0
   41.5840   32.6460   39.2260 N   0  0  0  0  0  0  0  0  0  0  0  0
   42.4770   31.6880   38.6010 C   0  0  0  0  0  3  0  0  0  0  0  0
   43.5170   31.8780   38.8930 H   0  0  0  0  0  0  0  0  0  0  0  0
   42.3360   31.9020   37.0970 C   0  0  0  0  0  3  0  0  0  0  0  0
   41.3640   31.4540   36.8030 H   0  0  0  0  0  0  0  0  0  0  0  0
   42.2390   33.3080   36.8070 N   0  0  0  0  0  0  0  0  0  0  0  0
   42.7740   33.5070   35.9220 H   0  0  0  0  0  0  0  0  0  0  0  0
   42.7930   34.1610   37.8260 C   0  0  0  0  0  2  0  0  0  0  0  0
   42.0490   34.0090   39.1390 C   0  0  0  0  0  2  0  0  0  0  0  0
  1  4  1  0  0  0  0
  1  2  1  0  0  0  0
  3  1  1  0  0  0  0
  4  5  1  0  0  0  0
  4  7  1  1  0  0  0
  5  9  1  0  0  0  0
  5  8  1  0  0  0  0
  6 10  1  6  0  0  0
  6  4  1  0  0  0  0
  6  5  1  0  0  0  0
 11 16  1  0  0  0  0
 11  6  1  0  0  0  0
 11 12  1  0  0  0  0
 12 17  1  0  0  0  0
 13 20  1  0  0  0  0
 13 12  1  0  0  0  0
 13 14  1  0  0  0  0
 14 15  1  0  0  0  0
 15 22  1  0  0  0  0
 15 23  1  0  0  0  0
 16 24  1  0  0  0  0
 16 15  1  0  0  0  0
 18 12  1  0  0  0  0
 19 13  1  0  0  0  0
 21 14  1  0  0  0  0
 25 16  1  0  0  0  0
 26  1  1  0  0  0  0
 26 28  1  0  0  0  0
 27 26  1  0  0  0  0
 29 30  1  0  0  0  0
 30 31  2  0  0  0  0
 30 36  1  0  0  0  0
 31 26  1  0  0  0  0
 32 31  1  0  0  0  0
 33 32  2  0  0  0  0
 34 33  1  0  0  0  0
 34 29  2  0  0  0  0
 35 29  1  0  0  0  0
 37 33  1  0  0  0  0
 38 39  1  0  0  0  0
 38 37  1  0  0  0  0
 40 38  1  0  0  0  0
 41 40  1  0  0  0  0
 42 40  1  0  0  0  0
 42 44  1  0  0  0  0
 43 42  1  0  0  0  0
 44 45  1  0  0  0  0
 45 37  1  0  0  0  0
M  END
>  <minimizedAffinity>
-5.80430698

$$$$

 OpenBabel03252502493D

 45 48  0  0  1  0  0  0  0  0999 V2000
   36.4930   27.3580   43.0240 C   0  0  0  0  0  0  0  0  0  0  0  0
   35.6600   27.2260   43.7730 H   0  0  0  0  0  0  0  0  0  0  0  0
   35.9720   27.5160   42.0570 H   0  0  0  0  0  0  0  0  0  0  0  0
   37.3840   26.1570   42.9170 C   0  0  1  0  0  0  0  0  0  0  0  0
   37.0020   25.1180   41.9180 C   0  0  0  0  0  0  0  0  0  0  0  0
   38.1650   26.0130   41.6940 C   0  0  2  0  0  0  0  0  0  0  0  0
   37.7530   25.8140   43.8780 H   0  0  0  0  0  0  0  0  0  0  0  0
   37.1200   24.0450   42.1970 H   0  0  0  0  0  0  0  0  0  0  0  0
   36.0540   25.2610   41.3400 H   0  0  0  0  0  0  0  0  0  0  0  0
   38.0760   26.6420   40.8070 H   0  0  0  0  0  0  0  0  0  0  0  0
   39.4350   25.3390   41.8900 N   0  0  0  0  0  0  0  0  0  0  0  0
   40.2490   25.9090   42.9010 C   0  0  0  0  0  0  0  0  0  0  0  0
   41.5210   25.0750   42.9280 C   0  0  0  0  0  0  0  0  0  0  0  0
   42.2330   25.1430   41.6980 N   0  0  0  0  0  0  0  0  0  0  0  0
   41.4090   25.4190   40.5510 C   0  0  0  0  0  0  0  0  0  0  0  0
   40.0330   24.7960   40.7450 C   0  0  0  0  0  0  0  0  0  0  0  0
   40.5390   26.9610   42.6540 H   0  0  0  0  0  0  0  0  0  0  0  0
   39.7450   25.8580   43.8750 H   0  0  0  0  0  0  0  0  0  0  0  0
   41.1960   24.0230   43.1510 H   0  0  0  0  0  0  0  0  0  0  0  0
   42.1570   25.4320   43.7560 H   0  0  0  0  0  0  0  0  0  0  0  0
   42.7680   24.2660   41.5850 H   0  0  0  0  0  0  0  0  0  0  0  0
   41.8510   24.9640   39.6310 H   0  0  0  0  0  0  0  0  0  0  0  0
   41.2860   26.5050   40.4020 H   0  0  0  0  0  0  0  0  0  0  0  0
   39.4550   25.0010   39.8250 H   0  0  0  0  0  0  0  0  0  0  0  0
   40.1690   23.6970   40.8980 H   0  0  0  0  0  0  0  0  0  0  0  0
   37.3860   28.5210   43.3550 C   0  0  0  0  0  0  0  0  0  0  0  0
   38.3750   28.2890   43.7210 H   0  0  0  0  0  0  0  0  0  0  0  0
   36.8840   29.0800   44.1960 H   0  0  0  0  0  0  0  0  0  0  0  0
   36.2380   30.3230   40.2860 C   0  0  0  0  0  0  0  0  0  0  0  0
   36.2680   29.4170   41.3720 C   0  0  0  0  0  0  0  0  0  0  0  0
   37.3480   29.4790   42.2010 C   0  0  0  0  0  0  0  0  0  0  0  0
   38.3260   30.3840   41.9560 N   0  0  0  0  0  0  0  0  0  0  0  0
   38.2840   31.2190   40.9410 C   0  0  0  0  0  0  0  0  0  0  0  0
   37.2530   31.2000   40.1040 N   0  0  0  0  0  0  0  0  0  0  0  0
   35.3580   30.2290   39.6600 H   0  0  0  0  0  0  0  0  0  0  0  0
   35.4610   28.7120   41.5270 H   0  0  0  0  0  0  0  0  0  0  0  0
   39.3270   32.1600   40.7100 N   0  0  0  0  0  0  0  0  0  0  0  0
   40.6950   31.7420   40.4720 C   0  0  0  0  0  3  0  0  0  0  0  0
   41.3940   32.3400   41.0680 H   0  0  0  0  0  0  0  0  0  0  0  0
   40.9620   31.9980   38.9910 C   0  0  0  0  0  3  0  0  0  0  0  0
   40.4330   31.1980   38.4310 H   0  0  0  0  0  0  0  0  0  0  0  0
   40.3560   33.2410   38.5910 N   0  0  0  0  0  0  0  0  0  0  0  0
   41.0010   33.7260   37.9130 H   0  0  0  0  0  0  0  0  0  0  0  0
   40.1250   34.1610   39.6740 C   0  0  0  0  0  2  0  0  0  0  0  0
   39.1480   33.5920   40.6840 C   0  0  0  0  0  2  0  0  0  0  0  0
  1 26  1  0  0  0  0
  1  2  1  0  0  0  0
  3  1  1  0  0  0  0
  4  1  1  0  0  0  0
  4  7  1  1  0  0  0
  5  8  1  0  0  0  0
  5  4  1  0  0  0  0
  6 10  1  6  0  0  0
  6 11  1  0  0  0  0
  6  5  1  0  0  0  0
  6  4  1  0  0  0  0
  9  5  1  0  0  0  0
 11 12  1  0  0  0  0
 12 13  1  0  0  0  0
 12 18  1  0  0  0  0
 13 19  1  0  0  0  0
 13 20  1  0  0  0  0
 14 13  1  0  0  0  0
 15 16  1  0  0  0  0
 15 14  1  0  0  0  0
 16 25  1  0  0  0  0
 16 11  1  0  0  0  0
 17 12  1  0  0  0  0
 21 14  1  0  0  0  0
 22 15  1  0  0  0  0
 23 15  1  0  0  0  0
 24 16  1  0  0  0  0
 26 27  1  0  0  0  0
 26 28  1  0  0  0  0
 29 30  1  0  0  0  0
 30 36  1  0  0  0  0
 30 31  2  0  0  0  0
 31 26  1  0  0  0  0
 32 31  1  0  0  0  0
 33 32  2  0  0  0  0
 34 29  2  0  0  0  0
 34 33  1  0  0  0  0
 35 29  1  0  0  0  0
 37 33  1  0  0  0  0
 38 37  1  0  0  0  0
 38 39  1  0  0  0  0
 40 38  1  0  0  0  0
 41 40  1  0  0  0  0
 42 40  1  0  0  0  0
 42 44  1  0  0  0  0
 43 42  1  0  0  0  0
 44 45  1  0  0  0  0
 45 37  1  0  0  0  0
M  END
>  <minimizedAffinity>
-5.53302526

$$$$

 OpenBabel03252502493D

 45 48  0  0  1  0  0  0  0  0999 V2000
   36.1990   30.8890   41.0550 C   0  0  0  0  0  0  0  0  0  0  0  0
   35.3920   31.5750   41.4430 H   0  0  0  0  0  0  0  0  0  0  0  0
   36.7820   30.6110   41.9580 H   0  0  0  0  0  0  0  0  0  0  0  0
   37.1070   31.5520   40.0630 C   0  0  1  0  0  0  0  0  0  0  0  0
   37.4530   32.9810   40.3100 C   0  0  0  0  0  0  0  0  0  0  0  0
   38.4480   31.8990   40.5140 C   0  0  2  0  0  0  0  0  0  0  0  0
   36.9040   31.2570   39.0380 H   0  0  0  0  0  0  0  0  0  0  0  0
   37.4970   33.6750   39.4390 H   0  0  0  0  0  0  0  0  0  0  0  0
   36.9850   33.4960   41.1860 H   0  0  0  0  0  0  0  0  0  0  0  0
   38.8130   31.8190   41.5400 H   0  0  0  0  0  0  0  0  0  0  0  0
   39.4480   31.8520   39.4630 N   0  0  0  0  0  0  0  0  0  0  0  0
   40.0880   33.0910   39.2100 C   0  0  0  0  0  0  0  0  0  0  0  0
   41.0700   32.8270   38.0790 C   0  0  0  0  0  0  0  0  0  0  0  0
   40.4140   32.4180   36.8850 N   0  0  0  0  0  0  0  0  0  0  0  0
   39.1500   31.7630   37.0980 C   0  0  0  0  0  0  0  0  0  0  0  0
   39.1920   30.9760   38.4010 C   0  0  0  0  0  0  0  0  0  0  0  0
   39.3630   33.8660   38.8550 H   0  0  0  0  0  0  0  0  0  0  0  0
   40.6270   33.4360   40.1020 H   0  0  0  0  0  0  0  0  0  0  0  0
   41.7670   32.0290   38.4540 H   0  0  0  0  0  0  0  0  0  0  0  0
   41.6520   33.7470   37.8970 H   0  0  0  0  0  0  0  0  0  0  0  0
   41.0670   31.8250   36.3440 H   0  0  0  0  0  0  0  0  0  0  0  0
   38.9410   31.0340   36.2770 H   0  0  0  0  0  0  0  0  0  0  0  0
   38.3270   32.4970   37.1560 H   0  0  0  0  0  0  0  0  0  0  0  0
   38.2170   30.4630   38.4980 H   0  0  0  0  0  0  0  0  0  0  0  0
   40.0300   30.2390   38.3330 H   0  0  0  0  0  0  0  0  0  0  0  0
   35.6400   29.6710   40.3730 C   0  0  0  0  0  0  0  0  0  0  0  0
   35.6040   29.6890   39.2940 H   0  0  0  0  0  0  0  0  0  0  0  0
   34.5660   29.5850   40.7030 H   0  0  0  0  0  0  0  0  0  0  0  0
   37.4460   27.4400   42.7710 C   0  0  0  0  0  0  0  0  0  0  0  0
   36.8190   28.5820   42.2200 C   0  0  0  0  0  0  0  0  0  0  0  0
   36.3060   28.4630   40.9630 C   0  0  0  0  0  0  0  0  0  0  0  0
   36.4160   27.2830   40.3070 N   0  0  0  0  0  0  0  0  0  0  0  0
   37.0020   26.2300   40.8320 C   0  0  0  0  0  0  0  0  0  0  0  0
   37.5180   26.2940   42.0550 N   0  0  0  0  0  0  0  0  0  0  0  0
   37.8350   27.5930   43.7710 H   0  0  0  0  0  0  0  0  0  0  0  0
   36.7560   29.5050   42.7840 H   0  0  0  0  0  0  0  0  0  0  0  0
   37.1010   25.0020   40.1200 N   0  0  0  0  0  0  0  0  0  0  0  0
   37.7930   24.9090   38.8480 C   0  0  0  0  0  3  0  0  0  0  0  0
   37.1970   24.3450   38.1210 H   0  0  0  0  0  0  0  0  0  0  0  0
   39.0870   24.1490   39.1270 C   0  0  0  0  0  3  0  0  0  0  0  0
   39.7650   24.8590   39.6460 H   0  0  0  0  0  0  0  0  0  0  0  0
   38.8360   23.0770   40.0540 N   0  0  0  0  0  0  0  0  0  0  0  0
   39.4130   22.2440   39.7670 H   0  0  0  0  0  0  0  0  0  0  0  0
   37.4650   22.6390   40.0940 C   0  0  0  0  0  2  0  0  0  0  0  0
   36.5440   23.7470   40.5650 C   0  0  0  0  0  2  0  0  0  0  0  0
  1  2  1  0  0  0  0
  1  3  1  0  0  0  0
  4  7  1  6  0  0  0
  4  5  1  0  0  0  0
  4  6  1  0  0  0  0
  4  1  1  0  0  0  0
  5  6  1  0  0  0  0
  5  9  1  0  0  0  0
  6 10  1  1  0  0  0
  8  5  1  0  0  0  0
 11  6  1  0  0  0  0
 12 11  1  0  0  0  0
 12 18  1  0  0  0  0
 13 19  1  0  0  0  0
 13 12  1  0  0  0  0
 14 15  1  0  0  0  0
 14 13  1  0  0  0  0
 15 23  1  0  0  0  0
 15 16  1  0  0  0  0
 16 24  1  0  0  0  0
 16 11  1  0  0  0  0
 17 12  1  0  0  0  0
 20 13  1  0  0  0  0
 21 14  1  0  0  0  0
 22 15  1  0  0  0  0
 25 16  1  0  0  0  0
 26 28  1  0  0  0  0
 26 31  1  0  0  0  0
 26  1  1  0  0  0  0
 27 26  1  0  0  0  0
 29 35  1  0  0  0  0
 30 29  1  0  0  0  0
 30 36  1  0  0  0  0
 31 30  2  0  0  0  0
 32 33  2  0  0  0  0
 32 31  1  0  0  0  0
 33 34  1  0  0  0  0
 34 29  2  0  0  0  0
 37 45  1  0  0  0  0
 37 33  1  0  0  0  0
 38 40  1  0  0  0  0
 38 37  1  0  0  0  0
 39 38  1  0  0  0  0
 40 41  1  0  0  0  0
 40 42  1  0  0  0  0
 42 44  1  0  0  0  0
 43 42  1  0  0  0  0
 44 45  1  0  0  0  0
M  END
>  <minimizedAffinity>
-5.42310762

$$$$

 OpenBabel03252502493D

 45 48  0  0  1  0  0  0  0  0999 V2000
   36.3240   30.4590   39.7970 C   0  0  0  0  0  0  0  0  0  0  0  0
   36.4150   29.4710   39.2610 H   0  0  0  0  0  0  0  0  0  0  0  0
   35.4450   30.9480   39.3270 H   0  0  0  0  0  0  0  0  0  0  0  0
   37.5290   31.3350   39.6240 C   0  0  1  0  0  0  0  0  0  0  0  0
   37.3110   32.6700   38.9970 C   0  0  0  0  0  0  0  0  0  0  0  0
   37.6040   32.5360   40.4460 C   0  0  2  0  0  0  0  0  0  0  0  0
   38.4160   30.7830   39.3290 H   0  0  0  0  0  0  0  0  0  0  0  0
   38.0680   33.0440   38.2680 H   0  0  0  0  0  0  0  0  0  0  0  0
   36.2810   32.9300   38.6470 H   0  0  0  0  0  0  0  0  0  0  0  0
   36.8120   32.9100   41.0960 H   0  0  0  0  0  0  0  0  0  0  0  0
   38.9610   32.9280   40.7820 N   0  0  0  0  0  0  0  0  0  0  0  0
   39.5140   33.9120   39.9240 C   0  0  0  0  0  0  0  0  0  0  0  0
   40.9250   34.1610   40.4350 C   0  0  0  0  0  0  0  0  0  0  0  0
   41.7380   32.9970   40.3530 N   0  0  0  0  0  0  0  0  0  0  0  0
   41.0070   31.7580   40.4130 C   0  0  0  0  0  0  0  0  0  0  0  0
   39.7860   31.9250   41.3070 C   0  0  0  0  0  0  0  0  0  0  0  0
   39.5950   33.5430   38.8710 H   0  0  0  0  0  0  0  0  0  0  0  0
   38.9280   34.8390   39.9720 H   0  0  0  0  0  0  0  0  0  0  0  0
   40.8130   34.5040   41.4990 H   0  0  0  0  0  0  0  0  0  0  0  0
   41.3720   34.9800   39.8450 H   0  0  0  0  0  0  0  0  0  0  0  0
   42.4600   33.0530   41.0910 H   0  0  0  0  0  0  0  0  0  0  0  0
   41.6370   30.9510   40.8600 H   0  0  0  0  0  0  0  0  0  0  0  0
   40.6690   31.4470   39.4090 H   0  0  0  0  0  0  0  0  0  0  0  0
   39.2830   30.9410   41.3510 H   0  0  0  0  0  0  0  0  0  0  0  0
   40.1380   32.2430   42.3190 H   0  0  0  0  0  0  0  0  0  0  0  0
   36.1260   30.2960   41.2780 C   0  0  0  0  0  0  0  0  0  0  0  0
   35.1120   30.3550   41.6450 H   0  0  0  0  0  0  0  0  0  0  0  0
   36.6670   31.1540   41.7690 H   0  0  0  0  0  0  0  0  0  0  0  0
   38.4440   28.0670   43.1880 C   0  0  0  0  0  0  0  0  0  0  0  0
   37.7300   29.2180   42.7790 C   0  0  0  0  0  0  0  0  0  0  0  0
   36.8860   29.0790   41.7170 C   0  0  0  0  0  0  0  0  0  0  0  0
   36.7700   27.8740   41.1100 N   0  0  0  0  0  0  0  0  0  0  0  0
   37.4410   26.8130   41.5020 C   0  0  0  0  0  0  0  0  0  0  0  0
   38.2760   26.8950   42.5330 N   0  0  0  0  0  0  0  0  0  0  0  0
   39.0980   28.2360   44.0350 H   0  0  0  0  0  0  0  0  0  0  0  0
   37.8560   30.1610   43.2960 H   0  0  0  0  0  0  0  0  0  0  0  0
   37.2970   25.5590   40.8460 N   0  0  0  0  0  0  0  0  0  0  0  0
   37.6090   25.3910   39.4390 C   0  0  0  0  0  3  0  0  0  0  0  0
   36.8170   24.8300   38.9290 H   0  0  0  0  0  0  0  0  0  0  0  0
   38.9020   24.5830   39.3870 C   0  0  0  0  0  3  0  0  0  0  0  0
   39.7220   25.2780   39.6670 H   0  0  0  0  0  0  0  0  0  0  0  0
   38.8800   23.5560   40.3950 N   0  0  0  0  0  0  0  0  0  0  0  0
   39.3260   22.6880   39.9990 H   0  0  0  0  0  0  0  0  0  0  0  0
   37.5590   23.1820   40.8280 C   0  0  0  0  0  2  0  0  0  0  0  0
   36.8420   24.3470   41.4830 C   0  0  0  0  0  2  0  0  0  0  0  0
  1 26  1  0  0  0  0
  2  1  1  0  0  0  0
  3  1  1  0  0  0  0
  4  7  1  6  0  0  0
  4  1  1  0  0  0  0
  4  6  1  0  0  0  0
  5  4  1  0  0  0  0
  5  6  1  0  0  0  0
  6 11  1  0  0  0  0
  6 10  1  1  0  0  0
  8  5  1  0  0  0  0
  9  5  1  0  0  0  0
 11 16  1  0  0  0  0
 12 18  1  0  0  0  0
 12 13  1  0  0  0  0
 12 11  1  0  0  0  0
 13 19  1  0  0  0  0
 14 15  1  0  0  0  0
 14 13  1  0  0  0  0
 14 21  1  0  0  0  0
 15 22  1  0  0  0  0
 15 16  1  0  0  0  0
 16 24  1  0  0  0  0
 16 25  1  0  0  0  0
 17 12  1  0  0  0  0
 20 13  1  0  0  0  0
 23 15  1  0  0  0  0
 26 27  1  0  0  0  0
 26 31  1  0  0  0  0
 26 28  1  0  0  0  0
 29 35  1  0  0  0  0
 30 29  1  0  0  0  0
 30 36  1  0  0  0  0
 31 30  2  0  0  0  0
 32 33  2  0  0  0  0
 32 31  1  0  0  0  0
 33 34  1  0  0  0  0
 34 29  2  0  0  0  0
 37 45  1  0  0  0  0
 37 33  1  0  0  0  0
 38 37  1  0  0  0  0
 39 38  1  0  0  0  0
 40 38  1  0  0  0  0
 40 41  1  0  0  0  0
 40 42  1  0  0  0  0
 42 44  1  0  0  0  0
 43 42  1  0  0  0  0
 44 45  1  0  0  0  0
M  END
>  <minimizedAffinity>
-5.3825922

$$$$

 OpenBabel03252502493D

 45 48  0  0  1  0  0  0  0  0999 V2000
   38.2990   27.2700   43.0200 C   0  0  0  0  0  0  0  0  0  0  0  0
   39.1100   28.0360   42.8460 H   0  0  0  0  0  0  0  0  0  0  0  0
   38.5370   26.8400   44.0150 H   0  0  0  0  0  0  0  0  0  0  0  0
   38.2930   26.1770   41.9950 C   0  0  1  0  0  0  0  0  0  0  0  0
   38.7380   24.8260   42.4420 C   0  0  0  0  0  0  0  0  0  0  0  0
   37.3100   25.1130   42.1590 C   0  0  2  0  0  0  0  0  0  0  0  0
   38.6200   26.5110   41.0150 H   0  0  0  0  0  0  0  0  0  0  0  0
   39.3720   24.2200   41.7540 H   0  0  0  0  0  0  0  0  0  0  0  0
   39.0970   24.7080   43.4960 H   0  0  0  0  0  0  0  0  0  0  0  0
   36.6520   24.9860   43.0210 H   0  0  0  0  0  0  0  0  0  0  0  0
   36.8600   24.5360   40.9060 N   0  0  0  0  0  0  0  0  0  0  0  0
   37.4160   23.2650   40.6160 C   0  0  0  0  0  0  0  0  0  0  0  0
   36.8350   22.8560   39.2710 C   0  0  0  0  0  0  0  0  0  0  0  0
   37.2100   23.7500   38.2300 N   0  0  0  0  0  0  0  0  0  0  0  0
   37.4930   25.0900   38.6740 C   0  0  0  0  0  0  0  0  0  0  0  0
   36.6070   25.4350   39.8630 C   0  0  0  0  0  0  0  0  0  0  0  0
   38.5280   23.3170   40.5020 H   0  0  0  0  0  0  0  0  0  0  0  0
   37.1330   22.5350   41.3850 H   0  0  0  0  0  0  0  0  0  0  0  0
   35.7200   22.8380   39.4080 H   0  0  0  0  0  0  0  0  0  0  0  0
   37.1790   21.8340   39.0360 H   0  0  0  0  0  0  0  0  0  0  0  0
   36.4720   23.7330   37.5060 H   0  0  0  0  0  0  0  0  0  0  0  0
   37.2660   25.8280   37.8660 H   0  0  0  0  0  0  0  0  0  0  0  0
   38.5490   25.1930   38.9800 H   0  0  0  0  0  0  0  0  0  0  0  0
   36.8330   26.4820   40.1390 H   0  0  0  0  0  0  0  0  0  0  0  0
   35.5410   25.3250   39.5440 H   0  0  0  0  0  0  0  0  0  0  0  0
   36.9230   27.8750   43.0060 C   0  0  0  0  0  0  0  0  0  0  0  0
   36.5130   28.1780   43.9580 H   0  0  0  0  0  0  0  0  0  0  0  0
   36.2260   27.0740   42.6260 H   0  0  0  0  0  0  0  0  0  0  0  0
   35.7980   29.9240   40.0870 C   0  0  0  0  0  0  0  0  0  0  0  0
   35.8230   28.9280   41.0900 C   0  0  0  0  0  0  0  0  0  0  0  0
   36.8900   28.9290   41.9390 C   0  0  0  0  0  0  0  0  0  0  0  0
   37.8610   29.8630   41.7890 N   0  0  0  0  0  0  0  0  0  0  0  0
   37.8230   30.7820   40.8500 C   0  0  0  0  0  0  0  0  0  0  0  0
   36.8040   30.8250   39.9980 N   0  0  0  0  0  0  0  0  0  0  0  0
   34.9280   29.8750   39.4420 H   0  0  0  0  0  0  0  0  0  0  0  0
   35.0230   28.2030   41.1710 H   0  0  0  0  0  0  0  0  0  0  0  0
   38.8570   31.7510   40.7170 N   0  0  0  0  0  0  0  0  0  0  0  0
   40.2330   31.3710   40.4650 C   0  0  0  0  0  3  0  0  0  0  0  0
   40.9160   31.9220   41.1220 H   0  0  0  0  0  0  0  0  0  0  0  0
   40.5190   31.7580   39.0160 C   0  0  0  0  0  3  0  0  0  0  0  0
   40.0080   31.0040   38.3810 H   0  0  0  0  0  0  0  0  0  0  0  0
   39.9030   33.0240   38.7170 N   0  0  0  0  0  0  0  0  0  0  0  0
   40.5520   33.5730   38.0940 H   0  0  0  0  0  0  0  0  0  0  0  0
   39.6460   33.8440   39.8720 C   0  0  0  0  0  2  0  0  0  0  0  0
   38.6620   33.1780   40.8130 C   0  0  0  0  0  2  0  0  0  0  0  0
  1  3  1  0  0  0  0
  2  1  1  0  0  0  0
  4  7  1  6  0  0  0
  4  6  1  0  0  0  0
  4  5  1  0  0  0  0
  4  1  1  0  0  0  0
  5  9  1  0  0  0  0
  6  5  1  0  0  0  0
  6 10  1  1  0  0  0
  8  5  1  0  0  0  0
 11  6  1  0  0  0  0
 12 11  1  0  0  0  0
 12 18  1  0  0  0  0
 13 19  1  0  0  0  0
 13 12  1  0  0  0  0
 14 15  1  0  0  0  0
 14 13  1  0  0  0  0
 15 23  1  0  0  0  0
 15 16  1  0  0  0  0
 16 24  1  0  0  0  0
 16 11  1  0  0  0  0
 17 12  1  0  0  0  0
 20 13  1  0  0  0  0
 21 14  1  0  0  0  0
 22 15  1  0  0  0  0
 25 16  1  0  0  0  0
 26  1  1  0  0  0  0
 26 27  1  0  0  0  0
 28 26  1  0  0  0  0
 29 30  1  0  0  0  0
 30 36  1  0  0  0  0
 30 31  2  0  0  0  0
 31 26  1  0  0  0  0
 32 31  1  0  0  0  0
 33 32  2  0  0  0  0
 34 29  2  0  0  0  0
 34 33  1  0  0  0  0
 35 29  1  0  0  0  0
 37 45  1  0  0  0  0
 37 33  1  0  0  0  0
 38 37  1  0  0  0  0
 38 39  1  0  0  0  0
 40 38  1  0  0  0  0
 41 40  1  0  0  0  0
 42 40  1  0  0  0  0
 42 44  1  0  0  0  0
 43 42  1  0  0  0  0
 44 45  1  0  0  0  0
M  END
>  <minimizedAffinity>
-5.33805704

$$$$

 OpenBabel03252502493D

 45 48  0  0  1  0  0  0  0  0999 V2000
   38.7050   27.7270   43.2170 C   0  0  0  0  0  0  0  0  0  0  0  0
   39.1540   27.5720   44.2400 H   0  0  0  0  0  0  0  0  0  0  0  0
   39.2980   27.0640   42.5520 H   0  0  0  0  0  0  0  0  0  0  0  0
   38.8190   29.1420   42.7340 C   0  0  1  0  0  0  0  0  0  0  0  0
   40.1940   29.6960   42.5770 C   0  0  0  0  0  0  0  0  0  0  0  0
   39.3620   29.3500   41.3970 C   0  0  2  0  0  0  0  0  0  0  0  0
   38.0620   29.7970   43.1550 H   0  0  0  0  0  0  0  0  0  0  0  0
   40.3800   30.7510   42.8850 H   0  0  0  0  0  0  0  0  0  0  0  0
   41.0620   29.0530   42.8690 H   0  0  0  0  0  0  0  0  0  0  0  0
   39.7940   28.5760   40.7610 H   0  0  0  0  0  0  0  0  0  0  0  0
   38.8270   30.5200   40.7250 N   0  0  0  0  0  0  0  0  0  0  0  0
   39.0910   31.7450   41.3880 C   0  0  0  0  0  0  0  0  0  0  0  0
   38.4370   32.8240   40.5380 C   0  0  0  0  0  0  0  0  0  0  0  0
   37.0260   32.6610   40.4560 N   0  0  0  0  0  0  0  0  0  0  0  0
   36.5760   31.3040   40.6180 C   0  0  0  0  0  0  0  0  0  0  0  0
   37.6140   30.3470   40.0470 C   0  0  0  0  0  0  0  0  0  0  0  0
   38.6150   31.7780   42.4000 H   0  0  0  0  0  0  0  0  0  0  0  0
   40.1710   31.9220   41.4550 H   0  0  0  0  0  0  0  0  0  0  0  0
   38.9140   32.7500   39.5240 H   0  0  0  0  0  0  0  0  0  0  0  0
   38.6820   33.8090   40.9720 H   0  0  0  0  0  0  0  0  0  0  0  0
   36.7050   33.0680   39.5610 H   0  0  0  0  0  0  0  0  0  0  0  0
   35.6250   31.1350   40.0560 H   0  0  0  0  0  0  0  0  0  0  0  0
   36.4220   31.0610   41.6830 H   0  0  0  0  0  0  0  0  0  0  0  0
   37.2060   29.3250   40.1590 H   0  0  0  0  0  0  0  0  0  0  0  0
   37.7660   30.6030   38.9690 H   0  0  0  0  0  0  0  0  0  0  0  0
   37.2440   27.3770   43.1690 C   0  0  0  0  0  0  0  0  0  0  0  0
   36.5430   28.1960   43.2370 H   0  0  0  0  0  0  0  0  0  0  0  0
   37.0390   26.7380   44.0750 H   0  0  0  0  0  0  0  0  0  0  0  0
   36.8300   24.2480   41.1640 C   0  0  0  0  0  0  0  0  0  0  0  0
   37.0360   25.1140   42.2630 C   0  0  0  0  0  0  0  0  0  0  0  0
   37.0260   26.4530   42.0080 C   0  0  0  0  0  0  0  0  0  0  0  0
   36.8240   26.8890   40.7410 N   0  0  0  0  0  0  0  0  0  0  0  0
   36.6340   26.0710   39.7290 C   0  0  0  0  0  0  0  0  0  0  0  0
   36.6340   24.7570   39.9250 N   0  0  0  0  0  0  0  0  0  0  0  0
   36.8480   23.1960   41.4250 H   0  0  0  0  0  0  0  0  0  0  0  0
   37.1930   24.7180   43.2580 H   0  0  0  0  0  0  0  0  0  0  0  0
   36.4240   26.5590   38.4090 N   0  0  0  0  0  0  0  0  0  0  0  0
   37.4120   27.3730   37.7280 C   0  0  0  0  0  3  0  0  0  0  0  0
   36.9390   28.2390   37.2500 H   0  0  0  0  0  0  0  0  0  0  0  0
   38.0200   26.4820   36.6480 C   0  0  0  0  0  3  0  0  0  0  0  0
   38.7020   25.7760   37.1680 H   0  0  0  0  0  0  0  0  0  0  0  0
   36.9930   25.6790   36.0380 N   0  0  0  0  0  0  0  0  0  0  0  0
   37.1930   25.6070   35.0070 H   0  0  0  0  0  0  0  0  0  0  0  0
   35.6660   26.2210   36.1670 C   0  0  0  0  0  2  0  0  0  0  0  0
   35.2420   26.3060   37.6200 C   0  0  0  0  0  2  0  0  0  0  0  0
  1  2  1  0  0  0  0
  3  1  1  0  0  0  0
  4  7  1  1  0  0  0
  4  1  1  0  0  0  0
  5  4  1  0  0  0  0
  5  9  1  0  0  0  0
  5  8  1  0  0  0  0
  6 10  1  6  0  0  0
  6  5  1  0  0  0  0
  6  4  1  0  0  0  0
 11 12  1  0  0  0  0
 11  6  1  0  0  0  0
 12 18  1  0  0  0  0
 12 17  1  0  0  0  0
 13 20  1  0  0  0  0
 13 12  1  0  0  0  0
 14 13  1  0  0  0  0
 14 15  1  0  0  0  0
 15 23  1  0  0  0  0
 16 24  1  0  0  0  0
 16 15  1  0  0  0  0
 16 11  1  0  0  0  0
 19 13  1  0  0  0  0
 21 14  1  0  0  0  0
 22 15  1  0  0  0  0
 25 16  1  0  0  0  0
 26  1  1  0  0  0  0
 26 27  1  0  0  0  0
 26 28  1  0  0  0  0
 29 35  1  0  0  0  0
 29 30  1  0  0  0  0
 30 36  1  0  0  0  0
 31 30  2  0  0  0  0
 31 26  1  0  0  0  0
 32 31  1  0  0  0  0
 33 34  1  0  0  0  0
 33 32  2  0  0  0  0
 34 29  2  0  0  0  0
 37 33  1  0  0  0  0
 38 37  1  0  0  0  0
 39 38  1  0  0  0  0
 40 41  1  0  0  0  0
 40 38  1  0  0  0  0
 42 44  1  0  0  0  0
 42 40  1  0  0  0  0
 43 42  1  0  0  0  0
 44 45  1  0  0  0  0
 45 37  1  0  0  0  0
M  END
>  <minimizedAffinity>
-5.32538176

$$$$

 OpenBabel03252502493D

 45 48  0  0  1  0  0  0  0  0999 V2000
   37.1860   30.1290   38.3490 C   0  0  0  0  0  0  0  0  0  0  0  0
   36.6800   29.6030   37.4890 H   0  0  0  0  0  0  0  0  0  0  0  0
   38.2640   29.9020   38.2140 H   0  0  0  0  0  0  0  0  0  0  0  0
   36.7380   29.6300   39.6890 C   0  0  1  0  0  0  0  0  0  0  0  0
   35.5450   28.7370   39.7160 C   0  0  0  0  0  0  0  0  0  0  0  0
   36.9100   28.2090   39.9640 C   0  0  2  0  0  0  0  0  0  0  0  0
   36.8180   30.3800   40.4700 H   0  0  0  0  0  0  0  0  0  0  0  0
   34.7990   28.8700   40.5340 H   0  0  0  0  0  0  0  0  0  0  0  0
   35.0200   28.5250   38.7510 H   0  0  0  0  0  0  0  0  0  0  0  0
   37.2330   27.4580   39.2420 H   0  0  0  0  0  0  0  0  0  0  0  0
   37.1480   27.9100   41.3640 N   0  0  0  0  0  0  0  0  0  0  0  0
   37.5750   29.0210   42.1340 C   0  0  0  0  0  0  0  0  0  0  0  0
   37.7820   28.4910   43.5460 C   0  0  0  0  0  0  0  0  0  0  0  0
   38.8000   27.4990   43.6020 N   0  0  0  0  0  0  0  0  0  0  0  0
   38.9870   26.7720   42.3740 C   0  0  0  0  0  0  0  0  0  0  0  0
   37.6540   26.6350   41.6490 C   0  0  0  0  0  0  0  0  0  0  0  0
   38.5560   29.4200   41.7760 H   0  0  0  0  0  0  0  0  0  0  0  0
   36.8070   29.8050   42.1370 H   0  0  0  0  0  0  0  0  0  0  0  0
   36.7900   28.0740   43.8680 H   0  0  0  0  0  0  0  0  0  0  0  0
   38.0400   29.3390   44.2040 H   0  0  0  0  0  0  0  0  0  0  0  0
   38.5930   26.8680   44.3940 H   0  0  0  0  0  0  0  0  0  0  0  0
   39.3590   25.7390   42.5810 H   0  0  0  0  0  0  0  0  0  0  0  0
   39.6970   27.2920   41.7080 H   0  0  0  0  0  0  0  0  0  0  0  0
   37.8440   26.0380   40.7380 H   0  0  0  0  0  0  0  0  0  0  0  0
   36.9410   26.1100   42.3330 H   0  0  0  0  0  0  0  0  0  0  0  0
   36.9390   31.6120   38.3420 C   0  0  0  0  0  0  0  0  0  0  0  0
   35.9690   31.9470   38.6790 H   0  0  0  0  0  0  0  0  0  0  0  0
   37.0080   31.9430   37.2670 H   0  0  0  0  0  0  0  0  0  0  0  0
   38.9430   33.7020   40.7090 C   0  0  0  0  0  0  0  0  0  0  0  0
   37.8400   33.0740   40.0850 C   0  0  0  0  0  0  0  0  0  0  0  0
   38.1050   32.2800   39.0090 C   0  0  0  0  0  0  0  0  0  0  0  0
   39.3850   32.1280   38.5920 N   0  0  0  0  0  0  0  0  0  0  0  0
   40.4000   32.7190   39.1820 C   0  0  0  0  0  0  0  0  0  0  0  0
   40.1950   33.5030   40.2360 N   0  0  0  0  0  0  0  0  0  0  0  0
   38.6740   34.3200   41.5570 H   0  0  0  0  0  0  0  0  0  0  0  0
   36.8340   33.2260   40.4560 H   0  0  0  0  0  0  0  0  0  0  0  0
   41.7350   32.5400   38.7220 N   0  0  0  0  0  0  0  0  0  0  0  0
   42.1370   32.9130   37.3790 C   0  0  0  0  0  3  0  0  0  0  0  0
   42.7340   32.1190   36.9170 H   0  0  0  0  0  0  0  0  0  0  0  0
   43.0030   34.1610   37.5300 C   0  0  0  0  0  3  0  0  0  0  0  0
   42.3110   35.0020   37.7470 H   0  0  0  0  0  0  0  0  0  0  0  0
   43.8550   34.0300   38.6830 N   0  0  0  0  0  0  0  0  0  0  0  0
   44.7950   34.4470   38.4530 H   0  0  0  0  0  0  0  0  0  0  0  0
   44.0940   32.6700   39.0890 C   0  0  0  0  0  2  0  0  0  0  0  0
   42.8080   31.9860   39.5120 C   0  0  0  0  0  2  0  0  0  0  0  0
  1  4  1  0  0  0  0
  2  1  1  0  0  0  0
  3  1  1  0  0  0  0
  4  5  1  0  0  0  0
  4  6  1  0  0  0  0
  4  7  1  1  0  0  0
  5  6  1  0  0  0  0
  5  8  1  0  0  0  0
  6 10  1  6  0  0  0
  6 11  1  0  0  0  0
  9  5  1  0  0  0  0
 11 16  1  0  0  0  0
 11 12  1  0  0  0  0
 12 18  1  0  0  0  0
 12 13  1  0  0  0  0
 13 14  1  0  0  0  0
 13 19  1  0  0  0  0
 13 20  1  0  0  0  0
 14 21  1  0  0  0  0
 15 22  1  0  0  0  0
 15 14  1  0  0  0  0
 16 25  1  0  0  0  0
 16 15  1  0  0  0  0
 17 12  1  0  0  0  0
 23 15  1  0  0  0  0
 24 16  1  0  0  0  0
 26  1  1  0  0  0  0
 26 27  1  0  0  0  0
 26 31  1  0  0  0  0
 28 26  1  0  0  0  0
 29 35  1  0  0  0  0
 30 36  1  0  0  0  0
 30 29  2  0  0  0  0
 31 30  1  0  0  0  0
 32 31  2  0  0  0  0
 32 33  1  0  0  0  0
 33 34  2  0  0  0  0
 34 29  1  0  0  0  0
 37 33  1  0  0  0  0
 37 45  1  0  0  0  0
 38 40  1  0  0  0  0
 38 37  1  0  0  0  0
 39 38  1  0  0  0  0
 40 41  1  0  0  0  0
 40 42  1  0  0  0  0
 42 44  1  0  0  0  0
 43 42  1  0  0  0  0
 44 45  1  0  0  0  0
M  END
>  <minimizedAffinity>
-5.14526272

$$$$

 OpenBabel03252502493D

 45 48  0  0  1  0  0  0  0  0999 V2000
   36.9480   31.9610   40.1560 C   0  0  0  0  0  0  0  0  0  0  0  0
   36.2660   31.5330   39.3660 H   0  0  0  0  0  0  0  0  0  0  0  0
   36.3000   32.6510   40.7360 H   0  0  0  0  0  0  0  0  0  0  0  0
   38.1020   32.7270   39.5850 C   0  0  1  0  0  0  0  0  0  0  0  0
   38.5030   33.9770   40.2920 C   0  0  0  0  0  0  0  0  0  0  0  0
   39.3370   32.7510   40.3590 C   0  0  2  0  0  0  0  0  0  0  0  0
   38.1040   32.7460   38.4990 H   0  0  0  0  0  0  0  0  0  0  0  0
   38.7940   34.8630   39.6820 H   0  0  0  0  0  0  0  0  0  0  0  0
   37.8990   34.3030   41.1770 H   0  0  0  0  0  0  0  0  0  0  0  0
   39.4610   32.3530   41.3670 H   0  0  0  0  0  0  0  0  0  0  0  0
   40.5350   32.8430   39.5450 N   0  0  0  0  0  0  0  0  0  0  0  0
   40.8640   34.1610   39.1380 C   0  0  0  0  0  0  0  0  0  0  0  0
   42.1230   34.0310   38.2930 C   0  0  0  0  0  0  0  0  0  0  0  0
   41.9050   33.2500   37.1240 N   0  0  0  0  0  0  0  0  0  0  0  0
   40.8470   32.2810   37.2470 C   0  0  0  0  0  0  0  0  0  0  0  0
   40.7830   31.7700   38.6800 C   0  0  0  0  0  0  0  0  0  0  0  0
   40.0670   34.6050   38.4910 H   0  0  0  0  0  0  0  0  0  0  0  0
   41.0620   34.7950   40.0110 H   0  0  0  0  0  0  0  0  0  0  0  0
   42.8950   33.5590   38.9580 H   0  0  0  0  0  0  0  0  0  0  0  0
   42.4650   35.0430   38.0150 H   0  0  0  0  0  0  0  0  0  0  0  0
   42.8010   32.8080   36.8580 H   0  0  0  0  0  0  0  0  0  0  0  0
   41.0420   31.4000   36.5890 H   0  0  0  0  0  0  0  0  0  0  0  0
   39.8700   32.7250   36.9870 H   0  0  0  0  0  0  0  0  0  0  0  0
   39.9850   31.0040   38.7120 H   0  0  0  0  0  0  0  0  0  0  0  0
   41.7770   31.3260   38.9340 H   0  0  0  0  0  0  0  0  0  0  0  0
   37.5390   30.9000   41.0430 C   0  0  0  0  0  0  0  0  0  0  0  0
   37.4000   31.0200   42.1070 H   0  0  0  0  0  0  0  0  0  0  0  0
   38.6550   30.9380   40.8860 H   0  0  0  0  0  0  0  0  0  0  0  0
   35.6790   28.2600   39.1570 C   0  0  0  0  0  0  0  0  0  0  0  0
   36.0560   29.5250   39.6660 C   0  0  0  0  0  0  0  0  0  0  0  0
   37.1340   29.5620   40.4990 C   0  0  0  0  0  0  0  0  0  0  0  0
   37.7840   28.4120   40.8000 N   0  0  0  0  0  0  0  0  0  0  0  0
   37.4210   27.2430   40.3200 C   0  0  0  0  0  0  0  0  0  0  0  0
   36.3770   27.1540   39.5020 N   0  0  0  0  0  0  0  0  0  0  0  0
   34.8160   28.2910   38.5010 H   0  0  0  0  0  0  0  0  0  0  0  0
   35.5040   30.4170   39.3960 H   0  0  0  0  0  0  0  0  0  0  0  0
   38.1240   26.0520   40.6520 N   0  0  0  0  0  0  0  0  0  0  0  0
   38.2440   25.5920   42.0220 C   0  0  0  0  0  3  0  0  0  0  0  0
   39.2760   25.2960   42.2450 H   0  0  0  0  0  0  0  0  0  0  0  0
   37.3400   24.3670   42.1360 C   0  0  0  0  0  3  0  0  0  0  0  0
   36.2970   24.7450   42.1670 H   0  0  0  0  0  0  0  0  0  0  0  0
   37.4460   23.5670   40.9440 N   0  0  0  0  0  0  0  0  0  0  0  0
   37.4210   22.5510   41.2190 H   0  0  0  0  0  0  0  0  0  0  0  0
   38.6660   23.7670   40.2050 C   0  0  0  0  0  2  0  0  0  0  0  0
   38.7770   25.1910   39.6960 C   0  0  0  0  0  2  0  0  0  0  0  0
  1  3  1  0  0  0  0
  1 26  1  0  0  0  0
  2  1  1  0  0  0  0
  4  7  1  6  0  0  0
  4  1  1  0  0  0  0
  4  5  1  0  0  0  0
  4  6  1  0  0  0  0
  5  6  1  0  0  0  0
  5  9  1  0  0  0  0
  6 10  1  1  0  0  0
  8  5  1  0  0  0  0
 11  6  1  0  0  0  0
 12 11  1  0  0  0  0
 12 18  1  0  0  0  0
 13 19  1  0  0  0  0
 13 12  1  0  0  0  0
 14 15  1  0  0  0  0
 14 13  1  0  0  0  0
 15 16  1  0  0  0  0
 16 24  1  0  0  0  0
 16 25  1  0  0  0  0
 16 11  1  0  0  0  0
 17 12  1  0  0  0  0
 20 13  1  0  0  0  0
 21 14  1  0  0  0  0
 22 15  1  0  0  0  0
 23 15  1  0  0  0  0
 26 27  1  0  0  0  0
 28 26  1  0  0  0  0
 29 34  2  0  0  0  0
 29 30  1  0  0  0  0
 30 31  2  0  0  0  0
 31 32  1  0  0  0  0
 31 26  1  0  0  0  0
 33 37  1  0  0  0  0
 33 32  2  0  0  0  0
 34 33  1  0  0  0  0
 35 29  1  0  0  0  0
 36 30  1  0  0  0  0
 37 38  1  0  0  0  0
 38 40  1  0  0  0  0
 38 39  1  0  0  0  0
 40 41  1  0  0  0  0
 42 43  1  0  0  0  0
 42 40  1  0  0  0  0
 44 42  1  0  0  0  0
 45 44  1  0  0  0  0
 45 37  1  0  0  0  0
M  END
>  <minimizedAffinity>
-5.10784054

$$$$

 OpenBabel03252502493D

 45 48  0  0  1  0  0  0  0  0999 V2000
   35.8870   28.1450   41.7270 C   0  0  0  0  0  0  0  0  0  0  0  0
   35.5470   27.2140   41.1890 H   0  0  0  0  0  0  0  0  0  0  0  0
   34.9480   28.6890   41.9580 H   0  0  0  0  0  0  0  0  0  0  0  0
   36.7720   29.0180   40.8890 C   0  0  1  0  0  0  0  0  0  0  0  0
   36.1070   30.0780   40.0790 C   0  0  0  0  0  0  0  0  0  0  0  0
   36.9020   30.4140   41.2860 C   0  0  2  0  0  0  0  0  0  0  0  0
   37.5890   28.4740   40.4250 H   0  0  0  0  0  0  0  0  0  0  0  0
   36.4810   30.2700   39.0460 H   0  0  0  0  0  0  0  0  0  0  0  0
   34.9890   30.1380   40.0980 H   0  0  0  0  0  0  0  0  0  0  0  0
   36.3270   30.9050   42.0730 H   0  0  0  0  0  0  0  0  0  0  0  0
   38.1920   30.9950   40.9630 N   0  0  0  0  0  0  0  0  0  0  0  0
   39.1590   30.8810   41.9930 C   0  0  0  0  0  0  0  0  0  0  0  0
   40.4120   31.5600   41.4620 C   0  0  0  0  0  0  0  0  0  0  0  0
   40.2040   32.9440   41.2050 N   0  0  0  0  0  0  0  0  0  0  0  0
   38.8410   33.2910   40.8970 C   0  0  0  0  0  0  0  0  0  0  0  0
   38.1730   32.1400   40.1560 C   0  0  0  0  0  0  0  0  0  0  0  0
   38.8440   31.4270   42.9180 H   0  0  0  0  0  0  0  0  0  0  0  0
   39.3670   29.8250   42.2110 H   0  0  0  0  0  0  0  0  0  0  0  0
   40.6880   31.0090   40.5230 H   0  0  0  0  0  0  0  0  0  0  0  0
   41.2220   31.4280   42.2000 H   0  0  0  0  0  0  0  0  0  0  0  0
   40.8530   33.2340   40.4540 H   0  0  0  0  0  0  0  0  0  0  0  0
   38.8040   34.1830   40.2260 H   0  0  0  0  0  0  0  0  0  0  0  0
   38.2660   33.4980   41.8160 H   0  0  0  0  0  0  0  0  0  0  0  0
   37.1470   32.4700   39.9090 H   0  0  0  0  0  0  0  0  0  0  0  0
   38.7640   31.9360   39.2290 H   0  0  0  0  0  0  0  0  0  0  0  0
   36.6580   27.8370   42.9810 C   0  0  0  0  0  0  0  0  0  0  0  0
   36.0820   27.6660   43.8780 H   0  0  0  0  0  0  0  0  0  0  0  0
   37.2840   28.7480   43.2020 H   0  0  0  0  0  0  0  0  0  0  0  0
   38.1420   24.4930   42.2050 C   0  0  0  0  0  0  0  0  0  0  0  0
   37.1920   25.4970   42.5080 C   0  0  0  0  0  0  0  0  0  0  0  0
   37.6600   26.7680   42.6590 C   0  0  0  0  0  0  0  0  0  0  0  0
   38.9850   27.0130   42.5180 N   0  0  0  0  0  0  0  0  0  0  0  0
   39.8560   26.0690   42.2370 C   0  0  0  0  0  0  0  0  0  0  0  0
   39.4510   24.8130   42.0790 N   0  0  0  0  0  0  0  0  0  0  0  0
   37.7150   23.5030   42.0970 H   0  0  0  0  0  0  0  0  0  0  0  0
   36.1420   25.2520   42.6110 H   0  0  0  0  0  0  0  0  0  0  0  0
   41.2420   26.3560   42.0930 N   0  0  0  0  0  0  0  0  0  0  0  0
   42.0210   26.9270   43.1750 C   0  0  0  0  0  3  0  0  0  0  0  0
   42.6440   27.7530   42.8120 H   0  0  0  0  0  0  0  0  0  0  0  0
   42.9280   25.8070   43.6790 C   0  0  0  0  0  3  0  0  0  0  0  0
   42.2840   25.1200   44.2680 H   0  0  0  0  0  0  0  0  0  0  0  0
   43.4250   25.0410   42.5660 N   0  0  0  0  0  0  0  0  0  0  0  0
   44.4270   24.7780   42.7610 H   0  0  0  0  0  0  0  0  0  0  0  0
   43.4190   25.7480   41.3120 C   0  0  0  0  0  2  0  0  0  0  0  0
   42.0090   26.1180   40.8940 C   0  0  0  0  0  2  0  0  0  0  0  0
  1  3  1  0  0  0  0
  1 26  1  0  0  0  0
  2  1  1  0  0  0  0
  4  7  1  6  0  0  0
  4  6  1  0  0  0  0
  4  1  1  0  0  0  0
  5  9  1  0  0  0  0
  5  4  1  0  0  0  0
  5  6  1  0  0  0  0
  6 10  1  1  0  0  0
  8  5  1  0  0  0  0
 11  6  1  0  0  0  0
 11 12  1  0  0  0  0
 12 18  1  0  0  0  0
 12 17  1  0  0  0  0
 13 12  1  0  0  0  0
 13 20  1  0  0  0  0
 14 13  1  0  0  0  0
 15 14  1  0  0  0  0
 15 23  1  0  0  0  0
 16 15  1  0  0  0  0
 16 11  1  0  0  0  0
 19 13  1  0  0  0  0
 21 14  1  0  0  0  0
 22 15  1  0  0  0  0
 24 16  1  0  0  0  0
 25 16  1  0  0  0  0
 26 28  1  0  0  0  0
 26 27  1  0  0  0  0
 29 30  1  0  0  0  0
 30 36  1  0  0  0  0
 30 31  2  0  0  0  0
 31 26  1  0  0  0  0
 32 31  1  0  0  0  0
 33 32  2  0  0  0  0
 34 29  2  0  0  0  0
 34 33  1  0  0  0  0
 35 29  1  0  0  0  0
 37 33  1  0  0  0  0
 37 38  1  0  0  0  0
 38 40  1  0  0  0  0
 39 38  1  0  0  0  0
 40 41  1  0  0  0  0
 42 43  1  0  0  0  0
 42 40  1  0  0  0  0
 44 42  1  0  0  0  0
 45 44  1  0  0  0  0
 45 37  1  0  0  0  0
M  END
>  <minimizedAffinity>
-5.07246447

$$$$
