
 OpenBabel03252508243D

 48 51  0  0  0  0  0  0  0  0999 V2000
   36.3100   27.8450   41.3200 C   0  0  0  0  0  0  0  0  0  0  0  0
   35.4780   28.9120   41.0640 C   0  0  0  0  0  0  0  0  0  0  0  0
   35.0600   29.2860   39.8090 C   0  0  0  0  0  0  0  0  0  0  0  0
   35.5360   28.4990   38.7520 C   0  0  0  0  0  0  0  0  0  0  0  0
   36.3630   27.4310   38.9540 C   0  0  0  0  0  0  0  0  0  0  0  0
   36.7550   27.0930   40.2150 C   0  0  0  0  0  0  0  0  0  0  0  0
   35.0620   29.5550   41.8230 H   0  0  0  0  0  0  0  0  0  0  0  0
   34.4090   30.1180   39.5860 H   0  0  0  0  0  0  0  0  0  0  0  0
   35.2350   28.7530   37.7260 H   0  0  0  0  0  0  0  0  0  0  0  0
   36.6860   26.8740   38.0750 H   0  0  0  0  0  0  0  0  0  0  0  0
   37.6000   25.9730   40.3210 N   0  0  0  0  0  0  0  0  0  0  0  0
   39.0330   26.0370   40.2960 C   0  0  0  0  0  0  0  0  0  0  0  0
   39.6460   24.7890   40.8980 C   0  0  0  0  0  0  0  0  0  0  0  0
   38.9520   24.2690   42.0290 N   0  0  0  0  0  0  0  0  0  0  0  0
   37.5690   24.0360   41.8140 C   0  0  0  0  0  0  0  0  0  0  0  0
   37.1470   24.5810   40.4700 C   0  0  0  0  0  0  0  0  0  0  0  0
   39.4940   26.9730   40.6110 H   0  0  0  0  0  0  0  0  0  0  0  0
   39.2980   25.9560   39.1990 H   0  0  0  0  0  0  0  0  0  0  0  0
   39.7170   23.9480   40.1570 H   0  0  0  0  0  0  0  0  0  0  0  0
   40.6860   25.0090   41.1760 H   0  0  0  0  0  0  0  0  0  0  0  0
   39.0920   24.8550   42.8740 H   0  0  0  0  0  0  0  0  0  0  0  0
   36.9190   24.4930   42.6040 H   0  0  0  0  0  0  0  0  0  0  0  0
   37.3680   22.9620   41.8490 H   0  0  0  0  0  0  0  0  0  0  0  0
   37.6280   23.9440   39.6900 H   0  0  0  0  0  0  0  0  0  0  0  0
   36.0400   24.5220   40.4250 H   0  0  0  0  0  0  0  0  0  0  0  0
   36.7590   27.4540   42.6600 C   0  0  0  0  0  0  0  0  0  0  0  0
   35.8380   27.1130   43.2010 H   0  0  0  0  0  0  0  0  0  0  0  0
   37.4290   26.5860   42.6720 H   0  0  0  0  0  0  0  0  0  0  0  0
   37.3250   28.6340   43.4260 C   0  0  0  0  0  0  0  0  0  0  0  0
   37.6230   28.3250   44.4720 H   0  0  0  0  0  0  0  0  0  0  0  0
   36.6600   29.4750   43.5490 H   0  0  0  0  0  0  0  0  0  0  0  0
   40.9040   28.8640   42.2630 C   0  0  0  0  0  0  0  0  0  0  0  0
   39.7390   28.4000   42.9170 C   0  0  0  0  0  0  0  0  0  0  0  0
   38.5510   29.1090   42.7520 C   0  0  0  0  0  0  0  0  0  0  0  0
   38.5870   30.2220   41.9580 N   0  0  0  0  0  0  0  0  0  0  0  0
   39.6940   30.6430   41.3510 C   0  0  0  0  0  0  0  0  0  0  0  0
   40.8510   29.9750   41.4970 N   0  0  0  0  0  0  0  0  0  0  0  0
   41.8110   28.2760   42.4210 H   0  0  0  0  0  0  0  0  0  0  0  0
   39.7780   27.5120   43.5310 H   0  0  0  0  0  0  0  0  0  0  0  0
   39.6720   31.8120   40.5350 N   0  0  0  0  0  0  0  0  0  0  0  0
   40.5030   32.9620   40.8390 C   0  0  0  0  0  3  0  0  0  0  0  0
   40.7180   33.1110   41.8940 H   0  0  0  0  0  0  0  0  0  0  0  0
   39.7100   34.1610   40.3050 C   0  0  0  0  0  3  0  0  0  0  0  0
   39.7450   34.2010   39.1930 H   0  0  0  0  0  0  0  0  0  0  0  0
   38.3070   33.9030   40.6200 N   0  0  0  0  0  0  0  0  0  0  0  0
   37.7290   34.7680   40.5490 H   0  0  0  0  0  0  0  0  0  0  0  0
   37.7340   32.9070   39.7690 C   0  0  0  0  0  2  0  0  0  0  0  0
   38.8120   31.8910   39.3680 C   0  0  0  0  0  2  0  0  0  0  0  0
  1 26  1  0  0  0  0
  2  1  1  0  0  0  0
  2  7  1  0  0  0  0
  3  2  2  0  0  0  0
  4  5  2  0  0  0  0
  4  3  1  0  0  0  0
  5  6  1  0  0  0  0
  6 11  1  0  0  0  0
  6  1  2  0  0  0  0
  8  3  1  0  0  0  0
  9  4  1  0  0  0  0
 10  5  1  0  0  0  0
 11 16  1  0  0  0  0
 12 11  1  0  0  0  0
 12 17  1  0  0  0  0
 12 13  1  0  0  0  0
 13 20  1  0  0  0  0
 13 14  1  0  0  0  0
 14 21  1  0  0  0  0
 15 23  1  0  0  0  0
 15 14  1  0  0  0  0
 15 22  1  0  0  0  0
 16 15  1  0  0  0  0
 18 12  1  0  0  0  0
 19 13  1  0  0  0  0
 24 16  1  0  0  0  0
 25 16  1  0  0  0  0
 26 28  1  0  0  0  0
 26 27  1  0  0  0  0
 26 29  1  0  0  0  0
 29 31  1  0  0  0  0
 29 30  1  0  0  0  0
 32 38  1  0  0  0  0
 32 33  1  0  0  0  0
 33 39  1  0  0  0  0
 34 33  2  0  0  0  0
 34 29  1  0  0  0  0
 35 34  1  0  0  0  0
 36 37  1  0  0  0  0
 36 35  2  0  0  0  0
 37 32  2  0  0  0  0
 40 41  1  0  0  0  0
 40 36  1  0  0  0  0
 41 42  1  0  0  0  0
 43 45  1  0  0  0  0
 43 41  1  0  0  0  0
 44 43  1  0  0  0  0
 46 45  1  0  0  0  0
 47 45  1  0  0  0  0
 48 47  1  0  0  0  0
 48 40  1  0  0  0  0
M  END
>  <minimizedAffinity>
-6.26893568

$$$$

 OpenBabel03252508243D

 48 51  0  0  0  0  0  0  0  0999 V2000
   36.4880   30.3520   38.9990 C   0  0  0  0  0  0  0  0  0  0  0  0
   35.8460   29.4120   38.2240 C   0  0  0  0  0  0  0  0  0  0  0  0
   36.0250   29.2680   36.8690 C   0  0  0  0  0  0  0  0  0  0  0  0
   36.9330   30.1590   36.2800 C   0  0  0  0  0  0  0  0  0  0  0  0
   37.5960   31.1090   37.0050 C   0  0  0  0  0  0  0  0  0  0  0  0
   37.3890   31.2180   38.3480 C   0  0  0  0  0  0  0  0  0  0  0  0
   35.1450   28.6860   38.6050 H   0  0  0  0  0  0  0  0  0  0  0  0
   35.5320   28.5390   36.2440 H   0  0  0  0  0  0  0  0  0  0  0  0
   37.1150   30.0910   35.1990 H   0  0  0  0  0  0  0  0  0  0  0  0
   38.2840   31.7590   36.4670 H   0  0  0  0  0  0  0  0  0  0  0  0
   38.1240   32.2210   39.0070 N   0  0  0  0  0  0  0  0  0  0  0  0
   37.5990   33.5100   39.3550 C   0  0  0  0  0  0  0  0  0  0  0  0
   38.4280   34.1610   40.4440 C   0  0  0  0  0  0  0  0  0  0  0  0
   38.9080   33.2670   41.4440 N   0  0  0  0  0  0  0  0  0  0  0  0
   39.6210   32.1490   40.9400 C   0  0  0  0  0  0  0  0  0  0  0  0
   39.5270   32.1020   39.4330 C   0  0  0  0  0  0  0  0  0  0  0  0
   36.5200   33.5870   39.4910 H   0  0  0  0  0  0  0  0  0  0  0  0
   37.8080   34.1520   38.4470 H   0  0  0  0  0  0  0  0  0  0  0  0
   39.3300   34.6910   40.0340 H   0  0  0  0  0  0  0  0  0  0  0  0
   37.8270   34.9510   40.9160 H   0  0  0  0  0  0  0  0  0  0  0  0
   38.1510   32.9550   42.0810 H   0  0  0  0  0  0  0  0  0  0  0  0
   39.2530   31.1730   41.3500 H   0  0  0  0  0  0  0  0  0  0  0  0
   40.6710   32.2190   41.2350 H   0  0  0  0  0  0  0  0  0  0  0  0
   40.1140   32.9650   39.0390 H   0  0  0  0  0  0  0  0  0  0  0  0
   39.9540   31.1300   39.1080 H   0  0  0  0  0  0  0  0  0  0  0  0
   36.2880   30.5060   40.4430 C   0  0  0  0  0  0  0  0  0  0  0  0
   37.3150   30.6080   40.8820 H   0  0  0  0  0  0  0  0  0  0  0  0
   35.7690   31.4290   40.7260 H   0  0  0  0  0  0  0  0  0  0  0  0
   35.6540   29.2720   41.0530 C   0  0  0  0  0  0  0  0  0  0  0  0
   35.1670   28.6370   40.2550 H   0  0  0  0  0  0  0  0  0  0  0  0
   34.8840   29.4550   41.7880 H   0  0  0  0  0  0  0  0  0  0  0  0
   38.5100   28.1960   43.2660 C   0  0  0  0  0  0  0  0  0  0  0  0
   37.5120   29.0010   42.6700 C   0  0  0  0  0  0  0  0  0  0  0  0
   36.7040   28.4440   41.6820 C   0  0  0  0  0  0  0  0  0  0  0  0
   36.9280   27.1370   41.3470 N   0  0  0  0  0  0  0  0  0  0  0  0
   37.8730   26.3950   41.9200 C   0  0  0  0  0  0  0  0  0  0  0  0
   38.6650   26.9130   42.8740 N   0  0  0  0  0  0  0  0  0  0  0  0
   39.1200   28.6750   44.0350 H   0  0  0  0  0  0  0  0  0  0  0  0
   37.3860   30.0280   42.9800 H   0  0  0  0  0  0  0  0  0  0  0  0
   38.0620   25.0370   41.5300 N   0  0  0  0  0  0  0  0  0  0  0  0
   39.3230   24.5760   40.9810 C   0  0  0  0  0  3  0  0  0  0  0  0
   39.8860   25.3230   40.4270 H   0  0  0  0  0  0  0  0  0  0  0  0
   38.9380   23.4270   40.0430 C   0  0  0  0  0  3  0  0  0  0  0  0
   38.6490   22.5200   40.6190 H   0  0  0  0  0  0  0  0  0  0  0  0
   37.7110   23.8390   39.3660 N   0  0  0  0  0  0  0  0  0  0  0  0
   37.5220   23.2590   38.5200 H   0  0  0  0  0  0  0  0  0  0  0  0
   36.5680   23.7700   40.2240 C   0  0  0  0  0  2  0  0  0  0  0  0
   36.9920   24.0650   41.6680 C   0  0  0  0  0  2  0  0  0  0  0  0
  1 26  1  0  0  0  0
  2  7  1  0  0  0  0
  2  1  2  0  0  0  0
  3  2  1  0  0  0  0
  4  3  2  0  0  0  0
  4  5  1  0  0  0  0
  5  6  2  0  0  0  0
  6  1  1  0  0  0  0
  6 11  1  0  0  0  0
  8  3  1  0  0  0  0
  9  4  1  0  0  0  0
 10  5  1  0  0  0  0
 11 12  1  0  0  0  0
 11 16  1  0  0  0  0
 12 17  1  0  0  0  0
 12 13  1  0  0  0  0
 13 20  1  0  0  0  0
 13 14  1  0  0  0  0
 14 21  1  0  0  0  0
 15 23  1  0  0  0  0
 15 22  1  0  0  0  0
 15 14  1  0  0  0  0
 16 15  1  0  0  0  0
 18 12  1  0  0  0  0
 19 13  1  0  0  0  0
 24 16  1  0  0  0  0
 25 16  1  0  0  0  0
 26 28  1  0  0  0  0
 26 27  1  0  0  0  0
 26 29  1  0  0  0  0
 29 34  1  0  0  0  0
 29 31  1  0  0  0  0
 30 29  1  0  0  0  0
 32 38  1  0  0  0  0
 33 39  1  0  0  0  0
 33 32  2  0  0  0  0
 34 33  1  0  0  0  0
 35 34  2  0  0  0  0
 35 36  1  0  0  0  0
 36 37  2  0  0  0  0
 37 32  1  0  0  0  0
 40 48  1  0  0  0  0
 40 36  1  0  0  0  0
 41 40  1  0  0  0  0
 42 41  1  0  0  0  0
 43 44  1  0  0  0  0
 43 41  1  0  0  0  0
 45 43  1  0  0  0  0
 45 47  1  0  0  0  0
 46 45  1  0  0  0  0
 47 48  1  0  0  0  0
M  END
>  <minimizedAffinity>
-6.26394796

$$$$

 OpenBabel03252508243D

 48 51  0  0  0  0  0  0  0  0999 V2000
   36.7280   29.1870   40.8970 C   0  0  0  0  0  0  0  0  0  0  0  0
   36.3500   28.2230   41.8050 C   0  0  0  0  0  0  0  0  0  0  0  0
   36.9780   28.0020   43.0080 C   0  0  0  0  0  0  0  0  0  0  0  0
   38.0680   28.8380   43.2860 C   0  0  0  0  0  0  0  0  0  0  0  0
   38.4820   29.8090   42.4180 C   0  0  0  0  0  0  0  0  0  0  0  0
   37.8310   29.9960   41.2340 C   0  0  0  0  0  0  0  0  0  0  0  0
   35.5180   27.5520   41.6690 H   0  0  0  0  0  0  0  0  0  0  0  0
   36.6990   27.2530   43.7340 H   0  0  0  0  0  0  0  0  0  0  0  0
   38.6080   28.7060   44.2330 H   0  0  0  0  0  0  0  0  0  0  0  0
   39.3370   30.4140   42.7130 H   0  0  0  0  0  0  0  0  0  0  0  0
   38.3270   31.0250   40.4120 N   0  0  0  0  0  0  0  0  0  0  0  0
   39.2730   30.8270   39.3520 C   0  0  0  0  0  0  0  0  0  0  0  0
   39.2440   31.9820   38.3710 C   0  0  0  0  0  0  0  0  0  0  0  0
   37.9470   32.5110   38.1110 N   0  0  0  0  0  0  0  0  0  0  0  0
   37.2200   32.8830   39.2710 C   0  0  0  0  0  0  0  0  0  0  0  0
   37.9560   32.4440   40.5150 C   0  0  0  0  0  0  0  0  0  0  0  0
   39.3080   29.8380   38.8960 H   0  0  0  0  0  0  0  0  0  0  0  0
   40.2820   30.9340   39.8530 H   0  0  0  0  0  0  0  0  0  0  0  0
   39.8750   32.8460   38.7110 H   0  0  0  0  0  0  0  0  0  0  0  0
   39.7000   31.6510   37.4280 H   0  0  0  0  0  0  0  0  0  0  0  0
   37.3790   31.8750   37.5190 H   0  0  0  0  0  0  0  0  0  0  0  0
   36.1860   32.4530   39.2980 H   0  0  0  0  0  0  0  0  0  0  0  0
   37.0910   33.9690   39.2910 H   0  0  0  0  0  0  0  0  0  0  0  0
   38.8770   33.0690   40.5920 H   0  0  0  0  0  0  0  0  0  0  0  0
   37.2730   32.6100   41.3760 H   0  0  0  0  0  0  0  0  0  0  0  0
   36.0600   29.4150   39.6110 C   0  0  0  0  0  0  0  0  0  0  0  0
   35.6540   30.4580   39.6620 H   0  0  0  0  0  0  0  0  0  0  0  0
   36.7380   29.4190   38.7500 H   0  0  0  0  0  0  0  0  0  0  0  0
   34.8840   28.4780   39.4200 C   0  0  0  0  0  0  0  0  0  0  0  0
   34.1040   28.6470   40.2210 H   0  0  0  0  0  0  0  0  0  0  0  0
   35.1130   27.4240   39.4550 H   0  0  0  0  0  0  0  0  0  0  0  0
   34.2890   28.7680   35.7080 C   0  0  0  0  0  0  0  0  0  0  0  0
   34.9220   28.4910   36.9420 C   0  0  0  0  0  0  0  0  0  0  0  0
   34.2360   28.7670   38.1230 C   0  0  0  0  0  0  0  0  0  0  0  0
   32.9790   29.2930   38.0140 N   0  0  0  0  0  0  0  0  0  0  0  0
   32.4000   29.5470   36.8420 C   0  0  0  0  0  0  0  0  0  0  0  0
   33.0440   29.2900   35.6910 N   0  0  0  0  0  0  0  0  0  0  0  0
   34.8650   28.5350   34.8090 H   0  0  0  0  0  0  0  0  0  0  0  0
   35.9190   28.0740   36.9600 H   0  0  0  0  0  0  0  0  0  0  0  0
   31.0860   30.0980   36.7890 N   0  0  0  0  0  0  0  0  0  0  0  0
   30.8270   31.3750   36.1520 C   0  0  0  0  0  3  0  0  0  0  0  0
   31.6490   32.0860   36.1900 H   0  0  0  0  0  0  0  0  0  0  0  0
   29.6240   31.9470   36.9120 C   0  0  0  0  0  3  0  0  0  0  0  0
   28.6870   31.4140   36.6360 H   0  0  0  0  0  0  0  0  0  0  0  0
   29.8320   31.6210   38.3210 N   0  0  0  0  0  0  0  0  0  0  0  0
   29.2230   32.1940   38.9440 H   0  0  0  0  0  0  0  0  0  0  0  0
   29.5900   30.2390   38.6000 C   0  0  0  0  0  2  0  0  0  0  0  0
   29.9590   29.3950   37.3740 C   0  0  0  0  0  2  0  0  0  0  0  0
  1  6  2  0  0  0  0
  1  2  1  0  0  0  0
  2  3  2  0  0  0  0
  3  4  1  0  0  0  0
  3  8  1  0  0  0  0
  4  9  1  0  0  0  0
  5 10  1  0  0  0  0
  5  4  2  0  0  0  0
  6  5  1  0  0  0  0
  7  2  1  0  0  0  0
 11 16  1  0  0  0  0
 11  6  1  0  0  0  0
 12 18  1  0  0  0  0
 12 11  1  0  0  0  0
 13 19  1  0  0  0  0
 13 12  1  0  0  0  0
 14 13  1  0  0  0  0
 14 15  1  0  0  0  0
 15 23  1  0  0  0  0
 15 22  1  0  0  0  0
 15 16  1  0  0  0  0
 16 24  1  0  0  0  0
 16 25  1  0  0  0  0
 17 12  1  0  0  0  0
 20 13  1  0  0  0  0
 21 14  1  0  0  0  0
 26 27  1  0  0  0  0
 26  1  1  0  0  0  0
 28 26  1  0  0  0  0
 29 31  1  0  0  0  0
 29 26  1  0  0  0  0
 29 30  1  0  0  0  0
 32 33  1  0  0  0  0
 33 39  1  0  0  0  0
 33 34  2  0  0  0  0
 34 29  1  0  0  0  0
 35 34  1  0  0  0  0
 36 35  2  0  0  0  0
 37 32  2  0  0  0  0
 37 36  1  0  0  0  0
 38 32  1  0  0  0  0
 40 36  1  0  0  0  0
 40 48  1  0  0  0  0
 41 42  1  0  0  0  0
 41 40  1  0  0  0  0
 41 43  1  0  0  0  0
 43 45  1  0  0  0  0
 44 43  1  0  0  0  0
 45 47  1  0  0  0  0
 45 46  1  0  0  0  0
 48 47  1  0  0  0  0
M  END
>  <minimizedAffinity>
-6.23655987

$$$$

 OpenBabel03252508243D

 48 51  0  0  0  0  0  0  0  0999 V2000
   36.0530   27.9290   39.3980 C   0  0  0  0  0  0  0  0  0  0  0  0
   35.4790   27.3930   38.2670 C   0  0  0  0  0  0  0  0  0  0  0  0
   35.5920   26.0770   37.8890 C   0  0  0  0  0  0  0  0  0  0  0  0
   36.3500   25.2640   38.7420 C   0  0  0  0  0  0  0  0  0  0  0  0
   36.9390   25.7470   39.8760 C   0  0  0  0  0  0  0  0  0  0  0  0
   36.8020   27.0600   40.2160 C   0  0  0  0  0  0  0  0  0  0  0  0
   34.8740   27.9500   37.5700 H   0  0  0  0  0  0  0  0  0  0  0  0
   35.1510   25.6360   37.0070 H   0  0  0  0  0  0  0  0  0  0  0  0
   36.4740   24.2020   38.4890 H   0  0  0  0  0  0  0  0  0  0  0  0
   37.5100   25.0460   40.4830 H   0  0  0  0  0  0  0  0  0  0  0  0
   37.4400   27.4610   41.4050 N   0  0  0  0  0  0  0  0  0  0  0  0
   38.3630   28.5540   41.4980 C   0  0  0  0  0  0  0  0  0  0  0  0
   38.4980   29.0360   42.9280 C   0  0  0  0  0  0  0  0  0  0  0  0
   37.2860   29.0310   43.6760 N   0  0  0  0  0  0  0  0  0  0  0  0
   36.6010   27.7890   43.6790 C   0  0  0  0  0  0  0  0  0  0  0  0
   37.2580   26.8250   42.7190 C   0  0  0  0  0  0  0  0  0  0  0  0
   38.2730   29.3460   40.7540 H   0  0  0  0  0  0  0  0  0  0  0  0
   39.3720   28.0880   41.2820 H   0  0  0  0  0  0  0  0  0  0  0  0
   39.2350   28.4250   43.5160 H   0  0  0  0  0  0  0  0  0  0  0  0
   38.9190   30.0510   42.9180 H   0  0  0  0  0  0  0  0  0  0  0  0
   36.6470   29.7950   43.3840 H   0  0  0  0  0  0  0  0  0  0  0  0
   35.5190   27.8830   43.4050 H   0  0  0  0  0  0  0  0  0  0  0  0
   36.6160   27.3630   44.6860 H   0  0  0  0  0  0  0  0  0  0  0  0
   38.2530   26.5580   43.1480 H   0  0  0  0  0  0  0  0  0  0  0  0
   36.5930   25.9390   42.6370 H   0  0  0  0  0  0  0  0  0  0  0  0
   35.9360   29.3370   39.7940 C   0  0  0  0  0  0  0  0  0  0  0  0
   34.8670   29.4760   40.1030 H   0  0  0  0  0  0  0  0  0  0  0  0
   36.5220   29.6010   40.6820 H   0  0  0  0  0  0  0  0  0  0  0  0
   36.1960   30.2680   38.6270 C   0  0  0  0  0  0  0  0  0  0  0  0
   35.2840   30.8980   38.4070 H   0  0  0  0  0  0  0  0  0  0  0  0
   36.4510   29.7900   37.6940 H   0  0  0  0  0  0  0  0  0  0  0  0
   38.0500   33.2160   40.0720 C   0  0  0  0  0  0  0  0  0  0  0  0
   36.9960   32.3340   39.7370 C   0  0  0  0  0  0  0  0  0  0  0  0
   37.2870   31.2000   38.9810 C   0  0  0  0  0  0  0  0  0  0  0  0
   38.5880   31.0080   38.6080 N   0  0  0  0  0  0  0  0  0  0  0  0
   39.5670   31.8500   38.9340 C   0  0  0  0  0  0  0  0  0  0  0  0
   39.3080   32.9500   39.6610 N   0  0  0  0  0  0  0  0  0  0  0  0
   37.7750   34.0910   40.6650 H   0  0  0  0  0  0  0  0  0  0  0  0
   35.9880   32.5440   40.0630 H   0  0  0  0  0  0  0  0  0  0  0  0
   40.9060   31.5990   38.5150 N   0  0  0  0  0  0  0  0  0  0  0  0
   41.6240   32.5380   37.6750 C   0  0  0  0  0  3  0  0  0  0  0  0
   41.0050   33.1180   36.9950 H   0  0  0  0  0  0  0  0  0  0  0  0
   42.5930   31.6680   36.8660 C   0  0  0  0  0  3  0  0  0  0  0  0
   43.4350   31.3110   37.5000 H   0  0  0  0  0  0  0  0  0  0  0  0
   41.8610   30.4550   36.5100 N   0  0  0  0  0  0  0  0  0  0  0  0
   42.3300   29.9310   35.7400 H   0  0  0  0  0  0  0  0  0  0  0  0
   41.7020   29.5710   37.6240 C   0  0  0  0  0  2  0  0  0  0  0  0
   41.5990   30.3880   38.9180 C   0  0  0  0  0  2  0  0  0  0  0  0
  1 26  1  0  0  0  0
  1  6  1  0  0  0  0
  2  1  2  0  0  0  0
  3  2  1  0  0  0  0
  3  4  2  0  0  0  0
  4  5  1  0  0  0  0
  5  6  2  0  0  0  0
  5 10  1  0  0  0  0
  6 11  1  0  0  0  0
  7  2  1  0  0  0  0
  8  3  1  0  0  0  0
  9  4  1  0  0  0  0
 11 12  1  0  0  0  0
 11 16  1  0  0  0  0
 12 13  1  0  0  0  0
 13 19  1  0  0  0  0
 13 14  1  0  0  0  0
 14 15  1  0  0  0  0
 15 23  1  0  0  0  0
 16 24  1  0  0  0  0
 16 15  1  0  0  0  0
 17 12  1  0  0  0  0
 18 12  1  0  0  0  0
 20 13  1  0  0  0  0
 21 14  1  0  0  0  0
 22 15  1  0  0  0  0
 25 16  1  0  0  0  0
 26 27  1  0  0  0  0
 26 28  1  0  0  0  0
 29 34  1  0  0  0  0
 29 26  1  0  0  0  0
 30 29  1  0  0  0  0
 31 29  1  0  0  0  0
 32 38  1  0  0  0  0
 33 39  1  0  0  0  0
 33 32  1  0  0  0  0
 34 33  2  0  0  0  0
 35 36  2  0  0  0  0
 35 34  1  0  0  0  0
 36 37  1  0  0  0  0
 37 32  2  0  0  0  0
 40 48  1  0  0  0  0
 40 36  1  0  0  0  0
 41 40  1  0  0  0  0
 42 41  1  0  0  0  0
 43 44  1  0  0  0  0
 43 41  1  0  0  0  0
 45 43  1  0  0  0  0
 45 47  1  0  0  0  0
 46 45  1  0  0  0  0
 47 48  1  0  0  0  0
M  END
>  <minimizedAffinity>
-6.22712898

$$$$

 OpenBabel03252508243D

 48 51  0  0  0  0  0  0  0  0999 V2000
   36.8540   26.9830   41.9160 C   0  0  0  0  0  0  0  0  0  0  0  0
   37.1080   25.7520   42.4780 C   0  0  0  0  0  0  0  0  0  0  0  0
   37.1120   24.5670   41.7810 C   0  0  0  0  0  0  0  0  0  0  0  0
   36.8370   24.6690   40.4100 C   0  0  0  0  0  0  0  0  0  0  0  0
   36.5780   25.8680   39.8060 C   0  0  0  0  0  0  0  0  0  0  0  0
   36.5840   27.0200   40.5340 C   0  0  0  0  0  0  0  0  0  0  0  0
   37.3400   25.5940   43.5180 H   0  0  0  0  0  0  0  0  0  0  0  0
   37.3090   23.5920   42.2000 H   0  0  0  0  0  0  0  0  0  0  0  0
   36.8260   23.7540   39.8030 H   0  0  0  0  0  0  0  0  0  0  0  0
   36.3740   25.8560   38.7360 H   0  0  0  0  0  0  0  0  0  0  0  0
   36.3150   28.2030   39.8210 N   0  0  0  0  0  0  0  0  0  0  0  0
   37.2560   28.8590   38.9600 C   0  0  0  0  0  0  0  0  0  0  0  0
   36.5540   29.7890   37.9910 C   0  0  0  0  0  0  0  0  0  0  0  0
   35.3130   29.3020   37.4890 N   0  0  0  0  0  0  0  0  0  0  0  0
   34.3880   28.9070   38.4900 C   0  0  0  0  0  0  0  0  0  0  0  0
   35.0410   28.9390   39.8510 C   0  0  0  0  0  0  0  0  0  0  0  0
   38.0400   28.2430   38.5190 H   0  0  0  0  0  0  0  0  0  0  0  0
   37.8150   29.5670   39.6440 H   0  0  0  0  0  0  0  0  0  0  0  0
   36.3380   30.7940   38.4440 H   0  0  0  0  0  0  0  0  0  0  0  0
   37.2320   29.9970   37.1520 H   0  0  0  0  0  0  0  0  0  0  0  0
   35.4460   28.5370   36.8000 H   0  0  0  0  0  0  0  0  0  0  0  0
   33.9680   27.8830   38.3200 H   0  0  0  0  0  0  0  0  0  0  0  0
   33.5300   29.5850   38.4840 H   0  0  0  0  0  0  0  0  0  0  0  0
   35.2320   30.0090   40.1010 H   0  0  0  0  0  0  0  0  0  0  0  0
   34.3340   28.4690   40.5660 H   0  0  0  0  0  0  0  0  0  0  0  0
   36.8430   28.2440   42.6660 C   0  0  0  0  0  0  0  0  0  0  0  0
   36.8250   29.0550   41.8930 H   0  0  0  0  0  0  0  0  0  0  0  0
   35.9360   28.4020   43.2610 H   0  0  0  0  0  0  0  0  0  0  0  0
   38.1090   28.4200   43.4800 C   0  0  0  0  0  0  0  0  0  0  0  0
   38.4540   27.4290   43.9020 H   0  0  0  0  0  0  0  0  0  0  0  0
   38.0340   29.0850   44.3270 H   0  0  0  0  0  0  0  0  0  0  0  0
   41.3530   28.6120   41.5670 C   0  0  0  0  0  0  0  0  0  0  0  0
   40.3280   28.1300   42.4140 C   0  0  0  0  0  0  0  0  0  0  0  0
   39.1900   28.9130   42.6010 C   0  0  0  0  0  0  0  0  0  0  0  0
   39.1350   30.1110   41.9440 N   0  0  0  0  0  0  0  0  0  0  0  0
   40.1110   30.5480   41.1510 C   0  0  0  0  0  0  0  0  0  0  0  0
   41.2170   29.8100   40.9580 N   0  0  0  0  0  0  0  0  0  0  0  0
   42.2250   27.9660   41.4510 H   0  0  0  0  0  0  0  0  0  0  0  0
   40.4330   27.1740   42.9050 H   0  0  0  0  0  0  0  0  0  0  0  0
   39.9980   31.8070   40.4920 N   0  0  0  0  0  0  0  0  0  0  0  0
   40.9600   32.8680   40.7210 C   0  0  0  0  0  3  0  0  0  0  0  0
   41.4120   32.8770   41.7090 H   0  0  0  0  0  0  0  0  0  0  0  0
   40.1630   34.1610   40.5130 C   0  0  0  0  0  3  0  0  0  0  0  0
   39.9560   34.3340   39.4340 H   0  0  0  0  0  0  0  0  0  0  0  0
   38.8480   33.9370   41.1090 N   0  0  0  0  0  0  0  0  0  0  0  0
   38.3360   34.8320   41.2640 H   0  0  0  0  0  0  0  0  0  0  0  0
   38.0280   33.0810   40.3080 C   0  0  0  0  0  2  0  0  0  0  0  0
   38.9110   32.0700   39.5660 C   0  0  0  0  0  2  0  0  0  0  0  0
  1  2  1  0  0  0  0
  1 26  1  0  0  0  0
  2  7  1  0  0  0  0
  3  8  1  0  0  0  0
  3  2  2  0  0  0  0
  4  3  1  0  0  0  0
  5  4  2  0  0  0  0
  5  6  1  0  0  0  0
  6  1  2  0  0  0  0
  9  4  1  0  0  0  0
 10  5  1  0  0  0  0
 11 16  1  0  0  0  0
 11  6  1  0  0  0  0
 12 18  1  0  0  0  0
 12 11  1  0  0  0  0
 13 19  1  0  0  0  0
 13 12  1  0  0  0  0
 14 13  1  0  0  0  0
 14 15  1  0  0  0  0
 15 16  1  0  0  0  0
 16 24  1  0  0  0  0
 16 25  1  0  0  0  0
 17 12  1  0  0  0  0
 20 13  1  0  0  0  0
 21 14  1  0  0  0  0
 22 15  1  0  0  0  0
 23 15  1  0  0  0  0
 26 28  1  0  0  0  0
 26 29  1  0  0  0  0
 27 26  1  0  0  0  0
 29 30  1  0  0  0  0
 29 31  1  0  0  0  0
 32 33  1  0  0  0  0
 33 34  2  0  0  0  0
 33 39  1  0  0  0  0
 34 29  1  0  0  0  0
 35 34  1  0  0  0  0
 36 35  2  0  0  0  0
 37 36  1  0  0  0  0
 37 32  2  0  0  0  0
 38 32  1  0  0  0  0
 40 41  1  0  0  0  0
 40 36  1  0  0  0  0
 41 42  1  0  0  0  0
 43 41  1  0  0  0  0
 43 45  1  0  0  0  0
 44 43  1  0  0  0  0
 45 46  1  0  0  0  0
 47 45  1  0  0  0  0
 48 47  1  0  0  0  0
 48 40  1  0  0  0  0
M  END
>  <minimizedAffinity>
-6.2157135

$$$$

 OpenBabel03252508243D

 48 51  0  0  0  0  0  0  0  0999 V2000
   36.9260   29.9280   39.0870 C   0  0  0  0  0  0  0  0  0  0  0  0
   36.8200   31.1710   38.5050 C   0  0  0  0  0  0  0  0  0  0  0  0
   37.1640   32.3500   39.1230 C   0  0  0  0  0  0  0  0  0  0  0  0
   37.6510   32.2270   40.4310 C   0  0  0  0  0  0  0  0  0  0  0  0
   37.7760   31.0170   41.0530 C   0  0  0  0  0  0  0  0  0  0  0  0
   37.4230   29.8710   40.4040 C   0  0  0  0  0  0  0  0  0  0  0  0
   36.4670   31.3450   37.5010 H   0  0  0  0  0  0  0  0  0  0  0  0
   37.0890   33.3340   38.6860 H   0  0  0  0  0  0  0  0  0  0  0  0
   37.9410   33.1370   40.9750 H   0  0  0  0  0  0  0  0  0  0  0  0
   38.1630   31.0140   42.0710 H   0  0  0  0  0  0  0  0  0  0  0  0
   37.5950   28.6740   41.1240 N   0  0  0  0  0  0  0  0  0  0  0  0
   38.7560   27.8370   41.0350 C   0  0  0  0  0  0  0  0  0  0  0  0
   38.8640   26.9230   42.2380 C   0  0  0  0  0  0  0  0  0  0  0  0
   38.4780   27.5150   43.4750 N   0  0  0  0  0  0  0  0  0  0  0  0
   37.1870   28.1040   43.4670 C   0  0  0  0  0  0  0  0  0  0  0  0
   36.6190   28.1060   42.0670 C   0  0  0  0  0  0  0  0  0  0  0  0
   39.6900   28.3130   40.7340 H   0  0  0  0  0  0  0  0  0  0  0  0
   38.5240   27.1270   40.1850 H   0  0  0  0  0  0  0  0  0  0  0  0
   38.2430   25.9940   42.1250 H   0  0  0  0  0  0  0  0  0  0  0  0
   39.9000   26.5630   42.3120 H   0  0  0  0  0  0  0  0  0  0  0  0
   39.1830   28.1970   43.8160 H   0  0  0  0  0  0  0  0  0  0  0  0
   37.1810   29.1540   43.8560 H   0  0  0  0  0  0  0  0  0  0  0  0
   36.5220   27.5390   44.1260 H   0  0  0  0  0  0  0  0  0  0  0  0
   36.4080   27.0450   41.7950 H   0  0  0  0  0  0  0  0  0  0  0  0
   35.6930   28.7190   42.0900 H   0  0  0  0  0  0  0  0  0  0  0  0
   36.5510   28.6740   38.4250 C   0  0  0  0  0  0  0  0  0  0  0  0
   36.6870   28.8580   37.3280 H   0  0  0  0  0  0  0  0  0  0  0  0
   37.2150   27.8320   38.6530 H   0  0  0  0  0  0  0  0  0  0  0  0
   35.0900   28.3390   38.6520 C   0  0  0  0  0  0  0  0  0  0  0  0
   34.6760   28.9270   39.5240 H   0  0  0  0  0  0  0  0  0  0  0  0
   34.8740   27.3040   38.8720 H   0  0  0  0  0  0  0  0  0  0  0  0
   34.1100   28.9420   35.0610 C   0  0  0  0  0  0  0  0  0  0  0  0
   34.8700   28.5680   36.1940 C   0  0  0  0  0  0  0  0  0  0  0  0
   34.3090   28.7290   37.4590 C   0  0  0  0  0  0  0  0  0  0  0  0
   33.0450   29.2450   37.5270 N   0  0  0  0  0  0  0  0  0  0  0  0
   32.3450   29.5920   36.4490 C   0  0  0  0  0  0  0  0  0  0  0  0
   32.8670   29.4450   35.2190 N   0  0  0  0  0  0  0  0  0  0  0  0
   34.5900   28.7970   34.0910 H   0  0  0  0  0  0  0  0  0  0  0  0
   35.8650   28.1660   36.0720 H   0  0  0  0  0  0  0  0  0  0  0  0
   31.0300   30.1250   36.5810 N   0  0  0  0  0  0  0  0  0  0  0  0
   30.6990   31.4500   36.0900 C   0  0  0  0  0  3  0  0  0  0  0  0
   31.5160   32.1660   36.1040 H   0  0  0  0  0  0  0  0  0  0  0  0
   29.5790   31.9350   37.0170 C   0  0  0  0  0  3  0  0  0  0  0  0
   28.6210   31.4140   36.7940 H   0  0  0  0  0  0  0  0  0  0  0  0
   29.9340   31.4910   38.3630 N   0  0  0  0  0  0  0  0  0  0  0  0
   29.3900   31.9980   39.0940 H   0  0  0  0  0  0  0  0  0  0  0  0
   29.7300   30.0860   38.5420 C   0  0  0  0  0  2  0  0  0  0  0  0
   29.9730   29.3580   37.2150 C   0  0  0  0  0  2  0  0  0  0  0  0
  1  6  1  0  0  0  0
  2  1  2  0  0  0  0
  2  3  1  0  0  0  0
  3  4  2  0  0  0  0
  4  9  1  0  0  0  0
  4  5  1  0  0  0  0
  5 10  1  0  0  0  0
  6  5  2  0  0  0  0
  6 11  1  0  0  0  0
  7  2  1  0  0  0  0
  8  3  1  0  0  0  0
 11 16  1  0  0  0  0
 12 11  1  0  0  0  0
 12 13  1  0  0  0  0
 13 20  1  0  0  0  0
 13 14  1  0  0  0  0
 14 21  1  0  0  0  0
 15 14  1  0  0  0  0
 15 22  1  0  0  0  0
 15 23  1  0  0  0  0
 16 25  1  0  0  0  0
 16 15  1  0  0  0  0
 17 12  1  0  0  0  0
 18 12  1  0  0  0  0
 19 13  1  0  0  0  0
 24 16  1  0  0  0  0
 26 29  1  0  0  0  0
 26 28  1  0  0  0  0
 26  1  1  0  0  0  0
 27 26  1  0  0  0  0
 29 31  1  0  0  0  0
 29 30  1  0  0  0  0
 32 37  2  0  0  0  0
 32 33  1  0  0  0  0
 33 34  2  0  0  0  0
 34 35  1  0  0  0  0
 34 29  1  0  0  0  0
 36 40  1  0  0  0  0
 36 35  2  0  0  0  0
 37 36  1  0  0  0  0
 38 32  1  0  0  0  0
 39 33  1  0  0  0  0
 40 48  1  0  0  0  0
 41 42  1  0  0  0  0
 41 40  1  0  0  0  0
 41 43  1  0  0  0  0
 43 45  1  0  0  0  0
 44 43  1  0  0  0  0
 45 47  1  0  0  0  0
 45 46  1  0  0  0  0
 48 47  1  0  0  0  0
M  END
>  <minimizedAffinity>
-5.94447994

$$$$

 OpenBabel03252508243D

 48 51  0  0  0  0  0  0  0  0999 V2000
   36.3770   27.9150   41.3500 C   0  0  0  0  0  0  0  0  0  0  0  0
   35.7010   29.0770   41.0550 C   0  0  0  0  0  0  0  0  0  0  0  0
   35.4810   29.5460   39.7820 C   0  0  0  0  0  0  0  0  0  0  0  0
   35.9970   28.7530   38.7470 C   0  0  0  0  0  0  0  0  0  0  0  0
   36.6760   27.5910   38.9880 C   0  0  0  0  0  0  0  0  0  0  0  0
   36.8720   27.1620   40.2670 C   0  0  0  0  0  0  0  0  0  0  0  0
   35.2650   29.7320   41.7930 H   0  0  0  0  0  0  0  0  0  0  0  0
   34.9540   30.4530   39.5280 H   0  0  0  0  0  0  0  0  0  0  0  0
   35.8520   29.0790   37.7080 H   0  0  0  0  0  0  0  0  0  0  0  0
   37.0420   27.0370   38.1250 H   0  0  0  0  0  0  0  0  0  0  0  0
   37.5740   25.9510   40.4110 N   0  0  0  0  0  0  0  0  0  0  0  0
   39.0040   25.8480   40.4590 C   0  0  0  0  0  0  0  0  0  0  0  0
   39.4370   24.5380   41.0870 C   0  0  0  0  0  0  0  0  0  0  0  0
   38.6310   24.1070   42.1800 N   0  0  0  0  0  0  0  0  0  0  0  0
   37.2430   24.0360   41.8960 C   0  0  0  0  0  0  0  0  0  0  0  0
   36.9550   24.6230   40.5340 C   0  0  0  0  0  0  0  0  0  0  0  0
   39.5550   26.7250   40.7990 H   0  0  0  0  0  0  0  0  0  0  0  0
   39.3130   25.7330   39.3760 H   0  0  0  0  0  0  0  0  0  0  0  0
   39.4460   23.6930   40.3480 H   0  0  0  0  0  0  0  0  0  0  0  0
   40.4800   24.6370   41.4180 H   0  0  0  0  0  0  0  0  0  0  0  0
   38.7960   24.6750   43.0330 H   0  0  0  0  0  0  0  0  0  0  0  0
   36.6120   24.5680   42.6530 H   0  0  0  0  0  0  0  0  0  0  0  0
   36.9160   22.9930   41.9170 H   0  0  0  0  0  0  0  0  0  0  0  0
   37.3970   23.9320   39.7770 H   0  0  0  0  0  0  0  0  0  0  0  0
   35.8520   24.6930   40.4330 H   0  0  0  0  0  0  0  0  0  0  0  0
   36.6150   27.4230   42.7110 C   0  0  0  0  0  0  0  0  0  0  0  0
   35.5990   27.2600   43.1560 H   0  0  0  0  0  0  0  0  0  0  0  0
   37.1000   26.4410   42.7530 H   0  0  0  0  0  0  0  0  0  0  0  0
   37.3240   28.4570   43.5620 C   0  0  0  0  0  0  0  0  0  0  0  0
   37.2260   28.2060   44.6610 H   0  0  0  0  0  0  0  0  0  0  0  0
   36.9670   29.4710   43.4640 H   0  0  0  0  0  0  0  0  0  0  0  0
   40.9280   27.3690   43.3540 C   0  0  0  0  0  0  0  0  0  0  0  0
   39.5490   27.3710   43.6680 C   0  0  0  0  0  0  0  0  0  0  0  0
   38.7680   28.4440   43.2450 C   0  0  0  0  0  0  0  0  0  0  0  0
   39.3900   29.4390   42.5440 N   0  0  0  0  0  0  0  0  0  0  0  0
   40.6900   29.4200   42.2580 C   0  0  0  0  0  0  0  0  0  0  0  0
   41.4620   28.3950   42.6570 N   0  0  0  0  0  0  0  0  0  0  0  0
   41.5010   26.5090   43.7060 H   0  0  0  0  0  0  0  0  0  0  0  0
   39.1180   26.5530   44.2260 H   0  0  0  0  0  0  0  0  0  0  0  0
   41.2850   30.4870   41.5230 N   0  0  0  0  0  0  0  0  0  0  0  0
   42.3590   31.2840   42.0850 C   0  0  0  0  0  3  0  0  0  0  0  0
   42.3370   31.3930   43.1660 H   0  0  0  0  0  0  0  0  0  0  0  0
   42.1980   32.6610   41.4300 C   0  0  0  0  0  3  0  0  0  0  0  0
   42.5260   32.6390   40.3660 H   0  0  0  0  0  0  0  0  0  0  0  0
   40.7630   32.9250   41.3670 N   0  0  0  0  0  0  0  0  0  0  0  0
   40.5620   33.9340   41.1970 H   0  0  0  0  0  0  0  0  0  0  0  0
   40.1140   32.1570   40.3490 C   0  0  0  0  0  2  0  0  0  0  0  0
   40.8330   30.8130   40.1830 C   0  0  0  0  0  2  0  0  0  0  0  0
  1 26  1  0  0  0  0
  2  1  1  0  0  0  0
  2  7  1  0  0  0  0
  3  2  2  0  0  0  0
  4  5  2  0  0  0  0
  4  3  1  0  0  0  0
  5  6  1  0  0  0  0
  6 11  1  0  0  0  0
  6  1  2  0  0  0  0
  8  3  1  0  0  0  0
  9  4  1  0  0  0  0
 10  5  1  0  0  0  0
 11 12  1  0  0  0  0
 11 16  1  0  0  0  0
 12 17  1  0  0  0  0
 12 13  1  0  0  0  0
 13 20  1  0  0  0  0
 13 14  1  0  0  0  0
 14 21  1  0  0  0  0
 15 23  1  0  0  0  0
 15 14  1  0  0  0  0
 15 22  1  0  0  0  0
 16 15  1  0  0  0  0
 18 12  1  0  0  0  0
 19 13  1  0  0  0  0
 24 16  1  0  0  0  0
 25 16  1  0  0  0  0
 26 28  1  0  0  0  0
 26 27  1  0  0  0  0
 26 29  1  0  0  0  0
 29 30  1  0  0  0  0
 31 29  1  0  0  0  0
 32 33  1  0  0  0  0
 32 38  1  0  0  0  0
 33 39  1  0  0  0  0
 34 29  1  0  0  0  0
 34 33  2  0  0  0  0
 35 34  1  0  0  0  0
 36 35  2  0  0  0  0
 36 37  1  0  0  0  0
 37 32  2  0  0  0  0
 40 41  1  0  0  0  0
 40 36  1  0  0  0  0
 41 42  1  0  0  0  0
 43 41  1  0  0  0  0
 44 43  1  0  0  0  0
 45 43  1  0  0  0  0
 46 45  1  0  0  0  0
 47 45  1  0  0  0  0
 48 47  1  0  0  0  0
 48 40  1  0  0  0  0
M  END
>  <minimizedAffinity>
-5.91349888

$$$$

 OpenBabel03252508243D

 48 51  0  0  0  0  0  0  0  0999 V2000
   36.4110   30.0930   39.7880 C   0  0  0  0  0  0  0  0  0  0  0  0
   36.6030   31.1600   40.6370 C   0  0  0  0  0  0  0  0  0  0  0  0
   37.1740   32.3550   40.2670 C   0  0  0  0  0  0  0  0  0  0  0  0
   37.5690   32.4470   38.9250 C   0  0  0  0  0  0  0  0  0  0  0  0
   37.4000   31.4170   38.0420 C   0  0  0  0  0  0  0  0  0  0  0  0
   36.8300   30.2490   38.4510 C   0  0  0  0  0  0  0  0  0  0  0  0
   36.3160   31.1700   41.6760 H   0  0  0  0  0  0  0  0  0  0  0  0
   37.3340   33.2030   40.9150 H   0  0  0  0  0  0  0  0  0  0  0  0
   38.0310   33.3790   38.5730 H   0  0  0  0  0  0  0  0  0  0  0  0
   37.7350   31.5750   37.0190 H   0  0  0  0  0  0  0  0  0  0  0  0
   36.6920   29.2510   37.4680 N   0  0  0  0  0  0  0  0  0  0  0  0
   35.6950   29.2660   36.4360 C   0  0  0  0  0  0  0  0  0  0  0  0
   36.0870   28.3620   35.2850 C   0  0  0  0  0  0  0  0  0  0  0  0
   37.4750   28.3680   34.9670 N   0  0  0  0  0  0  0  0  0  0  0  0
   38.3320   28.1000   36.0660 C   0  0  0  0  0  0  0  0  0  0  0  0
   37.5390   28.0550   37.3510 C   0  0  0  0  0  0  0  0  0  0  0  0
   35.2990   30.2380   36.1420 H   0  0  0  0  0  0  0  0  0  0  0  0
   34.8080   28.7360   36.8960 H   0  0  0  0  0  0  0  0  0  0  0  0
   35.8100   27.2900   35.4720 H   0  0  0  0  0  0  0  0  0  0  0  0
   35.5060   28.6530   34.3980 H   0  0  0  0  0  0  0  0  0  0  0  0
   37.7610   29.2460   34.4930 H   0  0  0  0  0  0  0  0  0  0  0  0
   39.1510   28.8550   36.1790 H   0  0  0  0  0  0  0  0  0  0  0  0
   38.8320   27.1390   35.9150 H   0  0  0  0  0  0  0  0  0  0  0  0
   36.8970   27.1430   37.3110 H   0  0  0  0  0  0  0  0  0  0  0  0
   38.2690   28.0080   38.1860 H   0  0  0  0  0  0  0  0  0  0  0  0
   35.8090   28.8180   40.1890 C   0  0  0  0  0  0  0  0  0  0  0  0
   34.7140   28.9200   39.9760 H   0  0  0  0  0  0  0  0  0  0  0  0
   36.1340   27.9610   39.5870 H   0  0  0  0  0  0  0  0  0  0  0  0
   35.9620   28.5730   41.6770 C   0  0  0  0  0  0  0  0  0  0  0  0
   35.0620   28.0250   42.0860 H   0  0  0  0  0  0  0  0  0  0  0  0
   36.0660   29.4560   42.2900 H   0  0  0  0  0  0  0  0  0  0  0  0
   39.2070   27.2510   43.0690 C   0  0  0  0  0  0  0  0  0  0  0  0
   38.0900   28.0910   42.8530 C   0  0  0  0  0  0  0  0  0  0  0  0
   37.1360   27.7070   41.9120 C   0  0  0  0  0  0  0  0  0  0  0  0
   37.3420   26.5290   41.2500 N   0  0  0  0  0  0  0  0  0  0  0  0
   38.4010   25.7510   41.4690 C   0  0  0  0  0  0  0  0  0  0  0  0
   39.3330   26.1030   42.3710 N   0  0  0  0  0  0  0  0  0  0  0  0
   39.9280   27.5920   43.8160 H   0  0  0  0  0  0  0  0  0  0  0  0
   37.9850   29.0110   43.4080 H   0  0  0  0  0  0  0  0  0  0  0  0
   38.5640   24.5320   40.7480 N   0  0  0  0  0  0  0  0  0  0  0  0
   39.7210   24.3020   39.9040 C   0  0  0  0  0  3  0  0  0  0  0  0
   40.1480   25.1930   39.4520 H   0  0  0  0  0  0  0  0  0  0  0  0
   39.2140   23.3630   38.8030 C   0  0  0  0  0  3  0  0  0  0  0  0
   39.0660   22.3320   39.1930 H   0  0  0  0  0  0  0  0  0  0  0  0
   37.8710   23.8220   38.4550 N   0  0  0  0  0  0  0  0  0  0  0  0
   37.5530   23.4310   37.5420 H   0  0  0  0  0  0  0  0  0  0  0  0
   36.9050   23.4780   39.4530 C   0  0  0  0  0  2  0  0  0  0  0  0
   37.5720   23.4760   40.8350 C   0  0  0  0  0  2  0  0  0  0  0  0
  1 26  1  0  0  0  0
  1  2  1  0  0  0  0
  2  7  1  0  0  0  0
  3  2  2  0  0  0  0
  3  8  1  0  0  0  0
  4  3  1  0  0  0  0
  5  6  1  0  0  0  0
  5  4  2  0  0  0  0
  6  1  2  0  0  0  0
  9  4  1  0  0  0  0
 10  5  1  0  0  0  0
 11  6  1  0  0  0  0
 12 18  1  0  0  0  0
 12 11  1  0  0  0  0
 13 19  1  0  0  0  0
 13 12  1  0  0  0  0
 14 13  1  0  0  0  0
 14 15  1  0  0  0  0
 15 22  1  0  0  0  0
 15 16  1  0  0  0  0
 16 11  1  0  0  0  0
 16 25  1  0  0  0  0
 17 12  1  0  0  0  0
 20 13  1  0  0  0  0
 21 14  1  0  0  0  0
 23 15  1  0  0  0  0
 24 16  1  0  0  0  0
 26 29  1  0  0  0  0
 27 26  1  0  0  0  0
 28 26  1  0  0  0  0
 29 34  1  0  0  0  0
 29 30  1  0  0  0  0
 29 31  1  0  0  0  0
 32 38  1  0  0  0  0
 33 32  1  0  0  0  0
 33 39  1  0  0  0  0
 34 33  2  0  0  0  0
 35 36  2  0  0  0  0
 35 34  1  0  0  0  0
 36 37  1  0  0  0  0
 37 32  2  0  0  0  0
 40 48  1  0  0  0  0
 40 36  1  0  0  0  0
 41 40  1  0  0  0  0
 42 41  1  0  0  0  0
 43 44  1  0  0  0  0
 43 41  1  0  0  0  0
 45 43  1  0  0  0  0
 45 47  1  0  0  0  0
 46 45  1  0  0  0  0
 47 48  1  0  0  0  0
M  END
>  <minimizedAffinity>
-5.78848314

$$$$

 OpenBabel03252508243D

 48 51  0  0  0  0  0  0  0  0999 V2000
   36.4420   30.1120   39.8420 C   0  0  0  0  0  0  0  0  0  0  0  0
   36.5970   31.2050   40.6660 C   0  0  0  0  0  0  0  0  0  0  0  0
   37.0850   32.4230   40.2570 C   0  0  0  0  0  0  0  0  0  0  0  0
   37.4340   32.5120   38.9020 C   0  0  0  0  0  0  0  0  0  0  0  0
   37.2990   31.4570   38.0440 C   0  0  0  0  0  0  0  0  0  0  0  0
   36.8100   30.2650   38.4910 C   0  0  0  0  0  0  0  0  0  0  0  0
   36.3410   31.2190   41.7130 H   0  0  0  0  0  0  0  0  0  0  0  0
   37.2150   33.2920   40.8850 H   0  0  0  0  0  0  0  0  0  0  0  0
   37.8300   33.4620   38.5190 H   0  0  0  0  0  0  0  0  0  0  0  0
   37.5930   31.6130   37.0070 H   0  0  0  0  0  0  0  0  0  0  0  0
   36.7010   29.2420   37.5300 N   0  0  0  0  0  0  0  0  0  0  0  0
   35.6730   29.1780   36.5320 C   0  0  0  0  0  0  0  0  0  0  0  0
   36.0810   28.2760   35.3850 C   0  0  0  0  0  0  0  0  0  0  0  0
   37.4550   28.3580   35.0210 N   0  0  0  0  0  0  0  0  0  0  0  0
   38.3610   28.1640   36.0950 C   0  0  0  0  0  0  0  0  0  0  0  0
   37.6140   28.0960   37.4070 C   0  0  0  0  0  0  0  0  0  0  0  0
   35.2090   30.1180   36.2340 H   0  0  0  0  0  0  0  0  0  0  0  0
   34.8340   28.6050   37.0310 H   0  0  0  0  0  0  0  0  0  0  0  0
   35.8750   27.1930   35.6000 H   0  0  0  0  0  0  0  0  0  0  0  0
   35.4560   28.5140   34.5130 H   0  0  0  0  0  0  0  0  0  0  0  0
   37.6720   29.2430   34.5220 H   0  0  0  0  0  0  0  0  0  0  0  0
   39.1360   28.9690   36.1680 H   0  0  0  0  0  0  0  0  0  0  0  0
   38.9130   27.2320   35.9450 H   0  0  0  0  0  0  0  0  0  0  0  0
   37.0280   27.1470   37.4040 H   0  0  0  0  0  0  0  0  0  0  0  0
   38.3730   28.1100   38.2170 H   0  0  0  0  0  0  0  0  0  0  0  0
   35.9280   28.8130   40.2860 C   0  0  0  0  0  0  0  0  0  0  0  0
   34.8110   28.9040   40.2580 H   0  0  0  0  0  0  0  0  0  0  0  0
   36.1580   27.9850   39.6050 H   0  0  0  0  0  0  0  0  0  0  0  0
   36.3240   28.5150   41.7180 C   0  0  0  0  0  0  0  0  0  0  0  0
   35.6560   27.7170   42.1600 H   0  0  0  0  0  0  0  0  0  0  0  0
   36.2730   29.3470   42.4020 H   0  0  0  0  0  0  0  0  0  0  0  0
   39.2290   26.1110   41.6760 C   0  0  0  0  0  0  0  0  0  0  0  0
   37.9040   26.6060   41.6560 C   0  0  0  0  0  0  0  0  0  0  0  0
   37.7030   27.9820   41.7420 C   0  0  0  0  0  0  0  0  0  0  0  0
   38.8110   28.7770   41.8390 N   0  0  0  0  0  0  0  0  0  0  0  0
   40.0510   28.2920   41.8570 C   0  0  0  0  0  0  0  0  0  0  0  0
   40.2680   26.9680   41.7760 N   0  0  0  0  0  0  0  0  0  0  0  0
   39.3380   25.0270   41.6070 H   0  0  0  0  0  0  0  0  0  0  0  0
   37.0700   25.9250   41.5770 H   0  0  0  0  0  0  0  0  0  0  0  0
   41.1700   29.1690   41.9610 N   0  0  0  0  0  0  0  0  0  0  0  0
   42.1020   29.0760   43.0680 C   0  0  0  0  0  3  0  0  0  0  0  0
   41.6760   28.7200   44.0030 H   0  0  0  0  0  0  0  0  0  0  0  0
   42.6210   30.5060   43.2550 C   0  0  0  0  0  3  0  0  0  0  0  0
   43.3300   30.7840   42.4440 H   0  0  0  0  0  0  0  0  0  0  0  0
   41.4740   31.3910   43.0610 N   0  0  0  0  0  0  0  0  0  0  0  0
   41.6570   32.3480   43.4330 H   0  0  0  0  0  0  0  0  0  0  0  0
   41.1050   31.5050   41.6840 C   0  0  0  0  0  2  0  0  0  0  0  0
   41.4130   30.1900   40.9580 C   0  0  0  0  0  2  0  0  0  0  0  0
  1 26  1  0  0  0  0
  1  2  1  0  0  0  0
  2  7  1  0  0  0  0
  3  2  2  0  0  0  0
  3  8  1  0  0  0  0
  4  3  1  0  0  0  0
  5  6  1  0  0  0  0
  5  4  2  0  0  0  0
  6  1  2  0  0  0  0
  9  4  1  0  0  0  0
 10  5  1  0  0  0  0
 11  6  1  0  0  0  0
 12 18  1  0  0  0  0
 12 11  1  0  0  0  0
 13 19  1  0  0  0  0
 13 12  1  0  0  0  0
 14 13  1  0  0  0  0
 14 15  1  0  0  0  0
 15 22  1  0  0  0  0
 15 16  1  0  0  0  0
 16 11  1  0  0  0  0
 16 25  1  0  0  0  0
 17 12  1  0  0  0  0
 20 13  1  0  0  0  0
 21 14  1  0  0  0  0
 23 15  1  0  0  0  0
 24 16  1  0  0  0  0
 26 29  1  0  0  0  0
 27 26  1  0  0  0  0
 28 26  1  0  0  0  0
 29 34  1  0  0  0  0
 29 30  1  0  0  0  0
 29 31  1  0  0  0  0
 32 37  1  0  0  0  0
 33 32  2  0  0  0  0
 33 34  1  0  0  0  0
 34 35  2  0  0  0  0
 35 36  1  0  0  0  0
 36 40  1  0  0  0  0
 37 36  2  0  0  0  0
 38 32  1  0  0  0  0
 39 33  1  0  0  0  0
 40 41  1  0  0  0  0
 41 43  1  0  0  0  0
 41 42  1  0  0  0  0
 44 43  1  0  0  0  0
 45 43  1  0  0  0  0
 45 46  1  0  0  0  0
 47 45  1  0  0  0  0
 48 47  1  0  0  0  0
 48 40  1  0  0  0  0
M  END
>  <minimizedAffinity>
-5.71829271

$$$$
