
 OpenBabel03252509073D

 41 44  0  0  1  0  0  0  0  0999 V2000
   47.6220   31.8170   38.9930 C   0  0  0  0  0  0  0  0  0  0  0  0
   47.1560   33.0970   38.9620 C   0  0  0  0  0  0  0  0  0  0  0  0
   47.7870   34.0120   38.1380 C   0  0  0  0  0  0  0  0  0  0  0  0
   48.8580   33.6340   37.3650 C   0  0  0  0  0  0  0  0  0  0  0  0
   49.3460   32.3310   37.3820 C   0  0  0  0  0  0  0  0  0  0  0  0
   48.7070   31.4210   38.2130 C   0  0  0  0  0  0  0  0  0  0  0  0
   47.4400   35.0420   38.0920 H   0  0  0  0  0  0  0  0  0  0  0  0
   49.3130   34.3870   36.7410 H   0  0  0  0  0  0  0  0  0  0  0  0
   50.1750   32.0370   36.7830 H   0  0  0  0  0  0  0  0  0  0  0  0
   49.0920   30.4150   38.2180 H   0  0  0  0  0  0  0  0  0  0  0  0
   45.3600   35.4240   43.1870 Cl  0  0  0  0  0  0  0  0  0  0  0  0
   45.1960   34.6330   41.6450 C   0  0  0  0  0  0  0  0  0  0  0  0
   46.2750   34.2070   40.9590 C   0  0  0  0  0  0  0  0  0  0  0  0
   46.0310   33.5880   39.7380 C   0  0  0  0  0  0  0  0  0  0  0  0
   44.7620   33.4140   39.2440 C   0  0  0  0  0  0  0  0  0  0  0  0
   43.6910   33.8510   39.9560 C   0  0  0  0  0  0  0  0  0  0  0  0
   43.9180   34.4640   41.1650 C   0  0  0  0  0  0  0  0  0  0  0  0
   44.5700   32.9290   38.2860 H   0  0  0  0  0  0  0  0  0  0  0  0
   42.6790   33.7310   39.6010 H   0  0  0  0  0  0  0  0  0  0  0  0
   43.0440   34.8100   41.7240 H   0  0  0  0  0  0  0  0  0  0  0  0
   49.5830   35.7480   41.9200 C   0  0  0  0  0  0  0  0  0  0  0  0
   48.3090   35.5760   41.3720 C   0  0  0  0  0  0  0  0  0  0  0  0
   47.5910   34.4000   41.5150 C   0  0  0  0  0  0  0  0  0  0  0  0
   48.2180   33.4280   42.2290 N   0  0  0  0  0  0  0  0  0  0  0  0
   49.4420   33.5940   42.7550 C   0  0  0  0  0  0  0  0  0  0  0  0
   50.1150   34.7410   42.6020 N   0  0  0  0  0  0  0  0  0  0  0  0
   50.0700   36.7030   41.7560 H   0  0  0  0  0  0  0  0  0  0  0  0
   47.8430   36.3750   40.8110 H   0  0  0  0  0  0  0  0  0  0  0  0
   49.9410   32.8160   43.3240 H   0  0  0  0  0  0  0  0  0  0  0  0
   46.8970   30.6370   39.9510 S   0  0  0  0  0  0  0  0  0  0  0  0
   45.6100   30.1050   39.3610 O   0  0  0  0  0  0  0  0  0  0  0  0
   47.8710   29.4250   39.8590 O   0  0  0  0  0  0  0  0  0  0  0  0
   44.5530   30.3560   41.3990 H   0  0  0  0  0  0  0  0  0  0  0  0
   45.1590   30.9320   41.9890 N   0  0  0  0  0  0  0  0  0  0  0  0
   46.5670   30.6800   41.6050 C   0  0  1  0  0  3  0  0  0  0  0  0
   46.5480   29.1640   42.0290 C   0  0  0  0  0  3  0  0  0  0  0  0
   45.7220   28.6470   41.5340 H   0  0  0  0  0  0  0  0  0  0  0  0
   46.5380   29.0430   43.4510 N   0  0  0  0  0  0  0  0  0  0  0  0
   47.4110   28.6320   43.8380 H   0  0  0  0  0  0  0  0  0  0  0  0
   46.1160   30.2300   44.1380 C   0  0  0  0  0  2  0  0  0  0  0  0
   44.9660   30.8590   43.3970 C   0  0  0  0  0  2  0  0  0  0  0  0
  1 30  1  0  0  0  0
  2  1  1  0  0  0  0
  2 14  1  0  0  0  0
  3  2  2  0  0  0  0
  4  5  2  0  0  0  0
  4  3  1  0  0  0  0
  5  6  1  0  0  0  0
  6 10  1  0  0  0  0
  6  1  2  0  0  0  0
  7  3  1  0  0  0  0
  8  4  1  0  0  0  0
  9  5  1  0  0  0  0
 12 11  1  0  0  0  0
 13 23  1  0  0  0  0
 13 12  2  0  0  0  0
 14 13  1  0  0  0  0
 15 14  2  0  0  0  0
 15 16  1  0  0  0  0
 16 17  2  0  0  0  0
 17 12  1  0  0  0  0
 17 20  1  0  0  0  0
 18 15  1  0  0  0  0
 19 16  1  0  0  0  0
 21 26  1  0  0  0  0
 22 23  1  0  0  0  0
 22 21  2  0  0  0  0
 23 24  2  0  0  0  0
 24 25  1  0  0  0  0
 25 29  1  0  0  0  0
 26 25  2  0  0  0  0
 27 21  1  0  0  0  0
 28 22  1  0  0  0  0
 31 30  2  0  0  0  0
 32 30  2  0  0  0  0
 33 34  1  0  0  0  0
 34 41  1  0  0  0  0
 35 30  1  6  0  0  0
 35 34  1  0  0  0  0
 35 36  1  0  0  0  0
 36 38  1  0  0  0  0
 37 36  1  0  0  0  0
 38 39  1  0  0  0  0
 38 40  1  0  0  0  0
 41 40  1  0  0  0  0
M  END
>  <minimizedAffinity>
-4.68107653

>  <minimizedRMSD>
0.865557492

$$$$
