
 OpenBabel03252509123D

 32 35  0  0  1  0  0  0  0  0999 V2000
   47.6670   32.5150   44.0620 C   0  0  0  0  0  0  0  0  0  0  0  0
   47.0100   33.5480   43.3790 C   0  0  0  0  0  0  0  0  0  0  0  0
   45.9980   34.2830   43.9540 C   0  0  0  0  0  0  0  0  0  0  0  0
   45.5940   34.0070   45.2630 C   0  0  0  0  0  0  0  0  0  0  0  0
   44.6720   34.5000   46.1230 N   0  0  0  0  0  0  0  0  0  0  0  0
   44.7360   33.8210   47.2860 C   0  0  0  0  0  0  0  0  0  0  0  0
   45.7140   32.8990   47.1300 N   0  0  0  0  0  0  0  0  0  0  0  0
   46.2490   32.9950   45.9080 C   0  0  0  0  0  0  0  0  0  0  0  0
   47.2750   32.2300   45.3660 C   0  0  0  0  0  0  0  0  0  0  0  0
   48.4600   31.9420   43.6030 H   0  0  0  0  0  0  0  0  0  0  0  0
   44.0230   35.2910   45.8860 H   0  0  0  0  0  0  0  0  0  0  0  0
   44.1160   34.0050   48.1480 H   0  0  0  0  0  0  0  0  0  0  0  0
   47.7450   31.4420   45.9460 H   0  0  0  0  0  0  0  0  0  0  0  0
   47.3430   33.3680   39.7290 C   0  0  0  0  0  0  0  0  0  0  0  0
   48.1620   34.4430   39.4380 C   0  0  0  0  0  0  0  0  0  0  0  0
   48.6000   35.2310   40.5050 C   0  0  0  0  0  0  0  0  0  0  0  0
   48.2120   34.9210   41.7860 N   0  0  0  0  0  0  0  0  0  0  0  0
   47.4100   33.8600   42.0180 C   0  0  0  0  0  0  0  0  0  0  0  0
   46.9790   33.0890   41.0020 N   0  0  0  0  0  0  0  0  0  0  0  0
   46.9250   32.6730   39.0130 H   0  0  0  0  0  0  0  0  0  0  0  0
   48.4080   34.6030   38.4080 H   0  0  0  0  0  0  0  0  0  0  0  0
   49.2420   36.0750   40.2860 H   0  0  0  0  0  0  0  0  0  0  0  0
   45.1670   35.5950   43.0930 S   0  0  0  0  0  0  0  0  0  0  0  0
   42.1880   36.7420   42.1970 H   0  0  0  0  0  0  0  0  0  0  0  0
   42.8960   36.1340   41.6890 N   0  0  0  0  0  0  0  0  0  0  0  0
   43.4870   35.2040   42.6120 C   0  0  1  0  0  0  0  0  0  0  0  0
   43.5550   33.8550   41.8840 C   0  0  0  0  0  0  0  0  0  0  0  0
   44.3260   33.2580   42.4140 H   0  0  0  0  0  0  0  0  0  0  0  0
   44.0370   34.0720   40.5480 N   0  0  0  0  0  0  0  0  0  0  0  0
   44.3490   33.2080   40.0820 H   0  0  0  0  0  0  0  0  0  0  0  0
   42.9830   34.6530   39.7420 C   0  0  0  0  0  0  0  0  0  0  0  0
   42.0820   35.4010   40.7050 C   0  0  0  0  0  0  0  0  0  0  0  0
  1  9  1  0  0  0  0
  2  3  1  0  0  0  0
  2  1  2  0  0  0  0
  3  4  2  0  0  0  0
  4  8  1  0  0  0  0
  4  5  1  0  0  0  0
  5  6  1  0  0  0  0
  6 12  1  0  0  0  0
  7  6  2  0  0  0  0
  8  7  1  0  0  0  0
  9  8  2  0  0  0  0
  9 13  1  0  0  0  0
 10  1  1  0  0  0  0
 11  5  1  0  0  0  0
 14 19  1  0  0  0  0
 15 14  2  0  0  0  0
 15 16  1  0  0  0  0
 16 17  2  0  0  0  0
 17 18  1  0  0  0  0
 18  2  1  0  0  0  0
 19 18  2  0  0  0  0
 20 14  1  0  0  0  0
 21 15  1  0  0  0  0
 22 16  1  0  0  0  0
 23  3  1  0  0  0  0
 25 24  1  0  0  0  0
 25 26  1  0  0  0  0
 26 23  1  6  0  0  0
 27 28  1  0  0  0  0
 27 26  1  0  0  0  0
 29 27  1  0  0  0  0
 30 29  1  0  0  0  0
 31 29  1  0  0  0  0
 31 32  1  0  0  0  0
 32 25  1  0  0  0  0
M  END
>  <minimizedAffinity>
-5.28234863

>  <minimizedRMSD>
1.67663872

$$$$
