
 OpenBabel03252509073D

 41 44  0  0  1  0  0  0  0  0999 V2000
   47.5260   31.6800   39.1990 C   0  0  0  0  0  0  0  0  0  0  0  0
   47.1050   32.9700   39.0830 C   0  0  0  0  0  0  0  0  0  0  0  0
   47.7790   33.8130   38.2170 C   0  0  0  0  0  0  0  0  0  0  0  0
   48.8490   33.3540   37.4880 C   0  0  0  0  0  0  0  0  0  0  0  0
   49.2920   32.0390   37.5910 C   0  0  0  0  0  0  0  0  0  0  0  0
   48.6090   31.2020   38.4630 C   0  0  0  0  0  0  0  0  0  0  0  0
   47.4680   34.8490   38.1040 H   0  0  0  0  0  0  0  0  0  0  0  0
   49.3380   34.0520   36.8280 H   0  0  0  0  0  0  0  0  0  0  0  0
   50.1200   31.6830   37.0250 H   0  0  0  0  0  0  0  0  0  0  0  0
   48.9600   30.1860   38.5350 H   0  0  0  0  0  0  0  0  0  0  0  0
   45.3250   35.6330   43.1120 Cl  0  0  0  0  0  0  0  0  0  0  0  0
   45.1570   34.7420   41.6270 C   0  0  0  0  0  0  0  0  0  0  0  0
   46.2320   34.2400   40.9870 C   0  0  0  0  0  0  0  0  0  0  0  0
   45.9850   33.5440   39.8080 C   0  0  0  0  0  0  0  0  0  0  0  0
   44.7170   33.3690   39.3110 C   0  0  0  0  0  0  0  0  0  0  0  0
   43.6500   33.8840   39.9760 C   0  0  0  0  0  0  0  0  0  0  0  0
   43.8810   34.5740   41.1430 C   0  0  0  0  0  0  0  0  0  0  0  0
   44.5220   32.8240   38.3860 H   0  0  0  0  0  0  0  0  0  0  0  0
   42.6400   33.7660   39.6170 H   0  0  0  0  0  0  0  0  0  0  0  0
   43.0100   34.9810   41.6650 H   0  0  0  0  0  0  0  0  0  0  0  0
   49.5620   35.7640   41.8970 C   0  0  0  0  0  0  0  0  0  0  0  0
   48.2900   35.5880   41.3460 C   0  0  0  0  0  0  0  0  0  0  0  0
   47.5460   34.4370   41.5450 C   0  0  0  0  0  0  0  0  0  0  0  0
   48.1460   33.4930   42.3170 N   0  0  0  0  0  0  0  0  0  0  0  0
   49.3680   33.6620   42.8460 C   0  0  0  0  0  0  0  0  0  0  0  0
   50.0670   34.7850   42.6380 N   0  0  0  0  0  0  0  0  0  0  0  0
   50.0700   36.6990   41.6870 H   0  0  0  0  0  0  0  0  0  0  0  0
   47.8460   36.3650   40.7370 H   0  0  0  0  0  0  0  0  0  0  0  0
   49.8460   32.9070   43.4620 H   0  0  0  0  0  0  0  0  0  0  0  0
   46.7470   30.5840   40.2120 S   0  0  0  0  0  0  0  0  0  0  0  0
   45.4830   30.0160   39.6070 O   0  0  0  0  0  0  0  0  0  0  0  0
   47.7120   29.3620   40.2610 O   0  0  0  0  0  0  0  0  0  0  0  0
   45.3960   28.9470   41.9940 H   0  0  0  0  0  0  0  0  0  0  0  0
   45.2500   29.8980   42.3460 N   0  0  0  0  0  0  0  0  0  0  0  0
   46.3430   30.7600   41.8410 C   0  0  1  0  0  3  0  0  0  0  0  0
   47.4840   29.9850   42.6020 C   0  0  0  0  0  3  0  0  0  0  0  0
   47.4380   28.9210   42.3590 H   0  0  0  0  0  0  0  0  0  0  0  0
   47.4260   30.2610   44.0020 N   0  0  0  0  0  0  0  0  0  0  0  0
   48.2410   30.8060   44.3490 H   0  0  0  0  0  0  0  0  0  0  0  0
   46.1660   30.7790   44.4470 C   0  0  0  0  0  2  0  0  0  0  0  0
   45.0460   30.0550   43.7460 C   0  0  0  0  0  2  0  0  0  0  0  0
  1 30  1  0  0  0  0
  2  1  1  0  0  0  0
  2 14  1  0  0  0  0
  3  2  2  0  0  0  0
  4  5  2  0  0  0  0
  4  3  1  0  0  0  0
  5  6  1  0  0  0  0
  6 10  1  0  0  0  0
  6  1  2  0  0  0  0
  7  3  1  0  0  0  0
  8  4  1  0  0  0  0
  9  5  1  0  0  0  0
 12 11  1  0  0  0  0
 13 23  1  0  0  0  0
 13 12  2  0  0  0  0
 14 13  1  0  0  0  0
 15 14  2  0  0  0  0
 15 16  1  0  0  0  0
 16 17  2  0  0  0  0
 17 12  1  0  0  0  0
 17 20  1  0  0  0  0
 18 15  1  0  0  0  0
 19 16  1  0  0  0  0
 21 26  1  0  0  0  0
 22 23  1  0  0  0  0
 22 21  2  0  0  0  0
 23 24  2  0  0  0  0
 24 25  1  0  0  0  0
 25 29  1  0  0  0  0
 26 25  2  0  0  0  0
 27 21  1  0  0  0  0
 28 22  1  0  0  0  0
 30 32  2  0  0  0  0
 31 30  2  0  0  0  0
 33 34  1  0  0  0  0
 34 41  1  0  0  0  0
 35 30  1  6  0  0  0
 35 34  1  0  0  0  0
 35 36  1  0  0  0  0
 36 38  1  0  0  0  0
 37 36  1  0  0  0  0
 38 39  1  0  0  0  0
 38 40  1  0  0  0  0
 41 40  1  0  0  0  0
M  END
>  <minimizedAffinity>
-4.69431686

>  <minimizedRMSD>
0.76858747

$$$$
