REMARK  Name = 
REMARK  4 active torsions:
REMARK  status: ('A' for Active; 'I' for Inactive)
REMARK    1  A    between atoms: C_2  and  C_14
REMARK    2  A    between atoms: C_3  and  S_16
REMARK    3  A    between atoms: S_16  and  C_18
REMARK    4  A    between atoms: C_22  and  N_37
REMARK                            x       y       z     vdW  Elec       q    Type
REMARK                         _______ _______ _______ _____ _____    ______ ____
ROOT
ATOM      1  S   UNL     1      44.907  35.591  43.168  0.00  0.00    +0.000 S 
ENDROOT
BRANCH   1   4
ATOM      2  C   UNL     1      47.537  32.675  44.273  0.00  0.00    +0.000 A 
ATOM      3  C   UNL     1      46.844  33.642  43.550  0.00  0.00    +0.000 A 
ATOM      4  C   UNL     1      45.782  34.363  44.095  0.00  0.00    +0.000 A 
ATOM      5  C   UNL     1      45.394  34.111  45.414  0.00  0.00    +0.000 A 
ATOM      6  N   UNL     1      44.449  34.594  46.245  0.00  0.00    +0.000 N 
ATOM      7  C   UNL     1      44.527  33.973  47.438  0.00  0.00    +0.000 A 
ATOM      8  N   UNL     1      45.541  33.098  47.322  0.00  0.00    +0.000 NA
ATOM      9  C   UNL     1      46.089  33.158  46.103  0.00  0.00    +0.000 A 
ATOM     10  C   UNL     1      47.148  32.423  45.593  0.00  0.00    +0.000 A 
ATOM     11  H   UNL     1      48.359  32.122  43.839  0.00  0.00    +0.000 HD
ATOM     12  H   UNL     1      43.800  35.330  45.937  0.00  0.00    +0.000 HD
ATOM     13  H   UNL     1      43.860  34.215  48.238  0.00  0.00    +0.000 HD
ATOM     14  H   UNL     1      47.651  31.679  46.209  0.00  0.00    +0.000 HD
BRANCH   3  19
ATOM     15  C   UNL     1      47.066  33.424  39.903  0.00  0.00    +0.000 A 
ATOM     16  C   UNL     1      47.971  34.446  39.588  0.00  0.00    +0.000 A 
ATOM     17  C   UNL     1      48.498  35.202  40.643  0.00  0.00    +0.000 A 
ATOM     18  N   UNL     1      48.112  34.918  41.929  0.00  0.00    +0.000 NA
ATOM     19  C   UNL     1      47.232  33.918  42.179  0.00  0.00    +0.000 A 
ATOM     20  N   UNL     1      46.688  33.149  41.189  0.00  0.00    +0.000 NA
ATOM     21  H   UNL     1      46.629  32.810  39.143  0.00  0.00    +0.000 HD
ATOM     22  H   UNL     1      48.246  34.633  38.562  0.00  0.00    +0.000 HD
ATOM     23  H   UNL     1      49.191  35.986  40.420  0.00  0.00    +0.000 HD
ENDBRANCH   3  19
ENDBRANCH   1   4
BRANCH   1  25
ATOM     24  N   UNL     1      42.318  35.584  42.702  0.00  0.00    +0.000 NA
ATOM     25  C   UNL     1      43.521  34.928  42.204  0.00  0.00    +0.000 C 
ATOM     26  C   UNL     1      43.805  35.301  40.755  0.00  0.00    +0.000 C 
ATOM     27  O   UNL     1      42.675  35.296  39.960  0.00  0.00    +0.000 OA
ATOM     28  C   UNL     1      41.545  34.782  40.528  0.00  0.00    +0.000 C 
ATOM     29  C   UNL     1      41.234  35.556  41.784  0.00  0.00    +0.000 C 
ATOM     30  H   UNL     1      42.592  36.550  43.002  0.00  0.00    +0.000 HD
ATOM     31  H   UNL     1      43.493  33.836  42.332  0.00  0.00    +0.000 HD
ATOM     32  H   UNL     1      44.441  34.533  40.323  0.00  0.00    +0.000 HD
ATOM     33  H   UNL     1      44.263  36.310  40.717  0.00  0.00    +0.000 HD
ATOM     34  H   UNL     1      40.724  34.885  39.821  0.00  0.00    +0.000 HD
ATOM     35  H   UNL     1      41.747  33.722  40.818  0.00  0.00    +0.000 HD
ATOM     36  H   UNL     1      41.095  36.621  41.431  0.00  0.00    +0.000 HD
BRANCH  29  37
ATOM     37  N   UNL     1      39.950  35.208  42.368  0.00  0.00    +0.000 NA
ATOM     38  C   UNL     1      38.991  36.127  41.740  0.00  0.00    +0.000 C 
ATOM     39  H   UNL     1      39.426  37.127  41.587  0.00  0.00    +0.000 HD
ATOM     40  C   UNL     1      38.448  35.567  40.457  0.00  0.00    +0.000 C 
ATOM     41  H   UNL     1      39.210  35.266  39.725  0.00  0.00    +0.000 HD
ATOM     42  N   UNL     1      37.583  34.458  40.816  0.00  0.00    +0.000 NA
ATOM     43  H   UNL     1      37.314  33.968  39.938  0.00  0.00    +0.000 HD
ATOM     44  C   UNL     1      38.159  33.602  41.822  0.00  0.00    +0.000 C 
ATOM     45  C   UNL     1      39.646  33.865  41.944  0.00  0.00    +0.000 C 
ENDBRANCH  29  37
ENDBRANCH   1  25
TORSDOF 4
