
 OpenBabel03252509133D

 45 49  0  0  1  0  0  0  0  0999 V2000
   44.9060   35.3670   43.1610 S   0  0  0  0  0  0  0  0  0  0  0  0
   47.5770   32.5460   44.4050 C   0  0  0  0  0  0  0  0  0  0  0  0
   46.8710   33.4680   43.6370 C   0  0  0  0  0  0  0  0  0  0  0  0
   45.7970   34.1970   44.1460 C   0  0  0  0  0  0  0  0  0  0  0  0
   45.4090   34.0010   45.4740 C   0  0  0  0  0  0  0  0  0  0  0  0
   44.4550   34.5080   46.2800 N   0  0  0  0  0  0  0  0  0  0  0  0
   44.5400   33.9450   47.5010 C   0  0  0  0  0  0  0  0  0  0  0  0
   45.5670   33.0810   47.4280 N   0  0  0  0  0  0  0  0  0  0  0  0
   46.1170   33.0920   46.2080 C   0  0  0  0  0  0  0  0  0  0  0  0
   47.1880   32.3500   45.7350 C   0  0  0  0  0  0  0  0  0  0  0  0
   48.4080   31.9860   43.9990 H   0  0  0  0  0  0  0  0  0  0  0  0
   43.7960   35.2190   45.9370 H   0  0  0  0  0  0  0  0  0  0  0  0
   43.8670   34.2130   48.2880 H   0  0  0  0  0  0  0  0  0  0  0  0
   47.7010   31.6440   46.3860 H   0  0  0  0  0  0  0  0  0  0  0  0
   47.2730   32.9680   40.0330 C   0  0  0  0  0  0  0  0  0  0  0  0
   47.9940   34.1040   39.6430 C   0  0  0  0  0  0  0  0  0  0  0  0
   48.3360   35.0340   40.6330 C   0  0  0  0  0  0  0  0  0  0  0  0
   47.9550   34.8020   41.9310 N   0  0  0  0  0  0  0  0  0  0  0  0
   47.2580   33.6850   42.2550 C   0  0  0  0  0  0  0  0  0  0  0  0
   46.8990   32.7450   41.3310 N   0  0  0  0  0  0  0  0  0  0  0  0
   46.9830   32.2190   39.3250 H   0  0  0  0  0  0  0  0  0  0  0  0
   48.2720   34.2450   38.6110 H   0  0  0  0  0  0  0  0  0  0  0  0
   48.8860   35.9070   40.3530 H   0  0  0  0  0  0  0  0  0  0  0  0
   42.4340   35.2460   42.2670 N   0  0  0  0  0  0  0  0  0  0  0  0
   43.7210   34.6070   42.0170 C   0  0  1  0  0  0  0  0  0  0  0  0
   44.2370   34.9120   40.6180 C   0  0  0  0  0  0  0  0  0  0  0  0
   43.2600   34.8260   39.6460 O   0  0  0  0  0  0  0  0  0  0  0  0
   42.0630   34.3040   40.0440 C   0  0  0  0  0  0  0  0  0  0  0  0
   41.5230   35.1320   41.1830 C   0  0  1  0  0  0  0  0  0  0  0  0
   42.6290   36.2350   42.5520 H   0  0  0  0  0  0  0  0  0  0  0  0
   43.6990   33.5230   42.2020 H   0  0  0  0  0  0  0  0  0  0  0  0
   44.9570   34.1450   40.3440 H   0  0  0  0  0  0  0  0  0  0  0  0
   44.6700   35.9330   40.5990 H   0  0  0  0  0  0  0  0  0  0  0  0
   41.3720   34.3410   39.2040 H   0  0  0  0  0  0  0  0  0  0  0  0
   42.2390   33.2680   40.4250 H   0  0  0  0  0  0  0  0  0  0  0  0
   41.4200   36.1710   40.7500 H   0  0  0  0  0  0  0  0  0  0  0  0
   40.1680   34.7710   41.5610 N   0  0  1  0  0  0  0  0  0  0  0  0
   39.3120   35.4430   40.5740 C   0  0  0  0  0  3  0  0  0  0  0  0
   39.7060   36.4340   40.2990 H   0  0  0  0  0  0  0  0  0  0  0  0
   39.0940   34.5870   39.3580 C   0  0  0  0  0  3  0  0  0  0  0  0
   40.0130   34.2310   38.8740 H   0  0  0  0  0  0  0  0  0  0  0  0
   38.2440   33.4850   39.7680 N   0  0  0  0  0  0  0  0  0  0  0  0
   38.2010   32.8070   38.9790 H   0  0  0  0  0  0  0  0  0  0  0  0
   38.6400   32.9090   41.0270 C   0  0  0  0  0  2  0  0  0  0  0  0
   40.0470   33.3470   41.3820 C   0  0  0  0  0  2  0  0  0  0  0  0
  1  4  1  0  0  0  0
  2 10  1  0  0  0  0
  3  4  1  0  0  0  0
  3  2  2  0  0  0  0
  4  5  2  0  0  0  0
  5  9  1  0  0  0  0
  5  6  1  0  0  0  0
  6  7  1  0  0  0  0
  7 13  1  0  0  0  0
  8  7  2  0  0  0  0
  9  8  1  0  0  0  0
 10  9  2  0  0  0  0
 10 14  1  0  0  0  0
 11  2  1  0  0  0  0
 12  6  1  0  0  0  0
 15 20  1  0  0  0  0
 16 15  2  0  0  0  0
 16 17  1  0  0  0  0
 17 18  2  0  0  0  0
 18 19  1  0  0  0  0
 19  3  1  0  0  0  0
 20 19  2  0  0  0  0
 21 15  1  0  0  0  0
 22 16  1  0  0  0  0
 23 17  1  0  0  0  0
 24 30  1  0  0  0  0
 25 31  1  1  0  0  0
 25 24  1  0  0  0  0
 25  1  1  0  0  0  0
 26 25  1  0  0  0  0
 27 28  1  0  0  0  0
 27 26  1  0  0  0  0
 28 35  1  0  0  0  0
 28 29  1  0  0  0  0
 29 36  1  6  0  0  0
 29 37  1  0  0  0  0
 29 24  1  0  0  0  0
 32 26  1  0  0  0  0
 33 26  1  0  0  0  0
 34 28  1  0  0  0  0
 37 45  1  6  0  0  0
 38 37  1  0  0  0  0
 39 38  1  0  0  0  0
 40 42  1  0  0  0  0
 40 38  1  0  0  0  0
 41 40  1  0  0  0  0
 42 44  1  0  0  0  0
 43 42  1  0  0  0  0
 44 45  1  0  0  0  0
M  END
>  <minimizedAffinity>
-6.49451017

>  <minimizedRMSD>
0.669015706

$$$$
