REMARK  Name = 
REMARK  4 active torsions:
REMARK  status: ('A' for Active; 'I' for Inactive)
REMARK    1  A    between atoms: C_3  and  C_10
REMARK    2  A    between atoms: C_4  and  C_15
REMARK    3  A    between atoms: C_14  and  S_20
REMARK    4  A    between atoms: S_20  and  C_35
REMARK                            x       y       z     vdW  Elec       q    Type
REMARK                         _______ _______ _______ _____ _____    ______ ____
ROOT
ATOM      1  C   UNL     1      47.800  31.887  38.983  0.00  0.00    +0.000 A 
ATOM      2  C   UNL     1      47.224  33.117  38.877  0.00  0.00    +0.000 A 
ATOM      3  C   UNL     1      47.761  34.025  37.982  0.00  0.00    +0.000 A 
ATOM      4  C   UNL     1      48.851  33.690  37.215  0.00  0.00    +0.000 A 
ATOM      5  C   UNL     1      49.451  32.438  37.308  0.00  0.00    +0.000 A 
ATOM      6  C   UNL     1      48.905  31.534  38.210  0.00  0.00    +0.000 A 
ATOM      7  H   UNL     1      47.325  35.016  37.875  0.00  0.00    +0.000 HD
ATOM      8  H   UNL     1      49.229  34.435  36.534  0.00  0.00    +0.000 HD
ATOM      9  H   UNL     1      50.294  32.177  36.714  0.00  0.00    +0.000 HD
ATOM     10  H   UNL     1      49.377  30.568  38.274  0.00  0.00    +0.000 HD
ENDROOT
BRANCH   2  14
ATOM     11 CL   UNL     1      45.283  35.298  43.115  0.00  0.00    +0.000 Cl
ATOM     12  C   UNL     1      45.171  34.539  41.553  0.00  0.00    +0.000 A 
ATOM     13  C   UNL     1      46.274  34.157  40.880  0.00  0.00    +0.000 A 
ATOM     14  C   UNL     1      46.071  33.560  39.640  0.00  0.00    +0.000 A 
ATOM     15  C   UNL     1      44.817  33.364  39.117  0.00  0.00    +0.000 A 
ATOM     16  C   UNL     1      43.721  33.757  39.816  0.00  0.00    +0.000 A 
ATOM     17  C   UNL     1      43.908  34.348  41.043  0.00  0.00    +0.000 A 
ATOM     18  H   UNL     1      44.657  32.897  38.144  0.00  0.00    +0.000 HD
ATOM     19  H   UNL     1      42.720  33.618  39.438  0.00  0.00    +0.000 HD
ATOM     20  H   UNL     1      43.014  34.658  41.592  0.00  0.00    +0.000 HD
BRANCH  13  23
ATOM     21  C   UNL     1      49.548  35.740  41.890  0.00  0.00    +0.000 A 
ATOM     22  C   UNL     1      48.290  35.547  41.311  0.00  0.00    +0.000 A 
ATOM     23  C   UNL     1      47.573  34.372  41.467  0.00  0.00    +0.000 A 
ATOM     24  N   UNL     1      48.184  33.423  42.225  0.00  0.00    +0.000 NA
ATOM     25  C   UNL     1      49.392  33.609  42.780  0.00  0.00    +0.000 A 
ATOM     26  N   UNL     1      50.065  34.755  42.614  0.00  0.00    +0.000 NA
ATOM     27  H   UNL     1      50.035  36.693  41.713  0.00  0.00    +0.000 HD
ATOM     28  H   UNL     1      47.837  36.328  40.715  0.00  0.00    +0.000 HD
ATOM     29  H   UNL     1      49.878  32.850  43.384  0.00  0.00    +0.000 HD
ENDBRANCH  13  23
ENDBRANCH   2  14
BRANCH   1  30
ATOM     30  S   UNL     1      47.195  30.716  40.031  0.00  0.00    +0.000 S 
ATOM     31  O   UNL     1      46.786  29.444  39.322  0.00  0.00    +0.000 OA
ATOM     32  O   UNL     1      48.433  30.285  40.872  0.00  0.00    +0.000 OA
BRANCH  30  35
ATOM     33  H   UNL     1      44.655  31.821  40.012  0.00  0.00    +0.000 HD
ATOM     34  N   UNL     1      44.970  31.904  40.983  0.00  0.00    +0.000 NA
ATOM     35  C   UNL     1      46.015  30.881  41.226  0.00  0.00    +0.000 C 
ATOM     36  C   UNL     1      45.057  29.655  40.985  0.00  0.00    +0.000 C 
ATOM     37  H   UNL     1      44.566  29.748  40.013  0.00  0.00    +0.000 HD
ATOM     38  N   UNL     1      44.150  29.508  42.078  0.00  0.00    +0.000 NA
ATOM     39  H   UNL     1      44.311  28.645  42.636  0.00  0.00    +0.000 HD
ATOM     40  C   UNL     1      44.007  30.686  42.885  0.00  0.00    +0.000 C 
ATOM     41  C   UNL     1      43.974  31.904  41.999  0.00  0.00    +0.000 C 
ENDBRANCH  30  35
ENDBRANCH   1  30
TORSDOF 4
