REMARK  Name = 
REMARK  4 active torsions:
REMARK  status: ('A' for Active; 'I' for Inactive)
REMARK    1  A    between atoms: C_2  and  N_11
REMARK    2  A    between atoms: C_3  and  C_7
REMARK    3  A    between atoms: C_9  and  C_10
REMARK    4  A    between atoms: C_10  and  N_22
REMARK                            x       y       z     vdW  Elec       q    Type
REMARK                         _______ _______ _______ _____ _____    ______ ____
ROOT
ATOM      1  C   UNL     1      46.579  35.067  41.933  0.00  0.00    +0.000 C 
ATOM      2  C   UNL     1      48.111  35.299  41.916  0.00  0.00    +0.000 C 
ATOM      3  C   UNL     1      47.374  34.084  41.316  0.00  0.00    +0.000 C 
ATOM      4  H   UNL     1      46.073  35.867  41.385  0.00  0.00    +0.000 HD
ATOM      5  H   UNL     1      48.679  35.190  42.841  0.00  0.00    +0.000 HD
ATOM      6  H   UNL     1      48.533  35.958  41.148  0.00  0.00    +0.000 HD
ATOM      7  H   UNL     1      47.721  33.139  41.818  0.00  0.00    +0.000 HD
ENDROOT
BRANCH   1  10
ATOM      8  C   UNL     1      44.675  35.377  45.145  0.00  0.00    +0.000 A 
ATOM      9  C   UNL     1      45.136  35.683  43.837  0.00  0.00    +0.000 A 
ATOM     10  C   UNL     1      46.081  34.843  43.334  0.00  0.00    +0.000 A 
ATOM     11  N   UNL     1      46.548  33.777  44.058  0.00  0.00    +0.000 NA
ATOM     12  C   UNL     1      46.084  33.521  45.299  0.00  0.00    +0.000 A 
ATOM     13  N   UNL     1      45.140  34.331  45.839  0.00  0.00    +0.000 NA
ATOM     14  H   UNL     1      43.918  36.013  45.599  0.00  0.00    +0.000 HD
ATOM     15  H   UNL     1      46.562  32.645  45.716  0.00  0.00    +0.000 HD
BRANCH   9  16
ATOM     16  N   UNL     1      44.659  36.812  43.121  0.00  0.00    +0.000 N 
ATOM     17  H   UNL     1      44.001  36.880  42.319  0.00  0.00    +0.000 HD
ATOM     18  H   UNL     1      45.161  37.589  43.630  0.00  0.00    +0.000 HD
ENDBRANCH   9  16
ENDBRANCH   1  10
BRANCH   3  19
ATOM     19  C   UNL     1      47.370  33.913  39.811  0.00  0.00    +0.000 C 
ATOM     20  H   UNL     1      48.185  33.277  39.452  0.00  0.00    +0.000 HD
ATOM     21  H   UNL     1      47.596  34.938  39.392  0.00  0.00    +0.000 HD
BRANCH  19  22
ATOM     22  N   UNL     1      46.060  33.598  39.350  0.00  0.00    +0.000 NA
ATOM     23  C   UNL     1      45.964  32.438  38.512  0.00  0.00    +0.000 C 
ATOM     24  H   UNL     1      44.861  32.334  38.282  0.00  0.00    +0.000 HD
ATOM     25  C   UNL     1      46.641  32.576  37.183  0.00  0.00    +0.000 C 
ATOM     26  H   UNL     1      45.991  32.243  36.331  0.00  0.00    +0.000 HD
ATOM     27  N   UNL     1      47.146  33.879  36.892  0.00  0.00    +0.000 NA
ATOM     28  H   UNL     1      47.245  33.955  35.844  0.00  0.00    +0.000 HD
ATOM     29  C   UNL     1      46.347  34.973  37.351  0.00  0.00    +0.000 C 
ATOM     30  C   UNL     1      45.529  34.709  38.569  0.00  0.00    +0.000 C 
ENDBRANCH  19  22
ENDBRANCH   3  19
TORSDOF 4
