REMARK  Name = 
REMARK  3 active torsions:
REMARK  status: ('A' for Active; 'I' for Inactive)
REMARK    1  A    between atoms: C_3  and  C_7
REMARK    2  A    between atoms: C_7  and  C_8
REMARK    3  A    between atoms: C_8  and  N_16
REMARK                            x       y       z     vdW  Elec       q    Type
REMARK                         _______ _______ _______ _____ _____    ______ ____
ROOT
ATOM      1  C   UNL     1      46.788  34.743  41.730  0.00  0.00    +0.000 C 
ATOM      2  H   UNL     1      46.843  33.700  41.363  0.00  0.00    +0.000 HD
ATOM      3  H   UNL     1      46.226  35.330  40.977  0.00  0.00    +0.000 HD
ENDROOT
BRANCH   1   6
ATOM      4  C   UNL     1      44.558  36.050  44.489  0.00  0.00    +0.000 A 
ATOM      5  C   UNL     1      45.223  35.950  43.239  0.00  0.00    +0.000 A 
ATOM      6  C   UNL     1      46.081  34.877  43.017  0.00  0.00    +0.000 A 
ATOM      7  N   UNL     1      46.232  33.974  44.035  0.00  0.00    +0.000 NA
ATOM      8  C   UNL     1      45.589  34.092  45.213  0.00  0.00    +0.000 A 
ATOM      9  N   UNL     1      44.767  35.110  45.437  0.00  0.00    +0.000 NA
ATOM     10  H   UNL     1      43.894  36.891  44.644  0.00  0.00    +0.000 HD
ATOM     11  H   UNL     1      45.039  36.708  42.503  0.00  0.00    +0.000 HD
ATOM     12  H   UNL     1      45.826  33.288  45.902  0.00  0.00    +0.000 HD
ENDBRANCH   1   6
BRANCH   1  13
ATOM     13  C   UNL     1      48.180  35.329  41.880  0.00  0.00    +0.000 C 
ATOM     14  H   UNL     1      48.739  34.771  42.652  0.00  0.00    +0.000 HD
ATOM     15  H   UNL     1      48.114  36.419  42.072  0.00  0.00    +0.000 HD
BRANCH  13  16
ATOM     16  N   UNL     1      48.938  35.227  40.630  0.00  0.00    +0.000 NA
ATOM     17  C   UNL     1      48.392  36.235  39.775  0.00  0.00    +0.000 C 
ATOM     18  H   UNL     1      47.278  36.268  39.929  0.00  0.00    +0.000 HD
ATOM     19  C   UNL     1      48.735  36.102  38.323  0.00  0.00    +0.000 C 
ATOM     20  H   UNL     1      49.644  36.707  38.125  0.00  0.00    +0.000 HD
ATOM     21  N   UNL     1      48.881  34.757  37.855  0.00  0.00    +0.000 NA
ATOM     22  H   UNL     1      48.001  34.291  37.611  0.00  0.00    +0.000 HD
ATOM     23  C   UNL     1      49.648  33.947  38.765  0.00  0.00    +0.000 C 
ATOM     24  C   UNL     1      48.882  33.901  40.078  0.00  0.00    +0.000 C 
ENDBRANCH  13  16
ENDBRANCH   1  13
TORSDOF 3
