
 OpenBabel03252506443D

 40 43  0  0  1  0  0  0  0  0999 V2000
   39.7220   31.9840   39.6970 N   0  0  1  0  0  0  0  0  0  0  0  0
   39.6950   33.4460   39.6600 C   0  0  0  0  0  0  0  0  0  0  0  0
   38.5170   34.0130   40.3840 C   0  0  0  0  0  0  0  0  0  0  0  0
   37.2770   33.6950   39.5960 C   0  0  0  0  0  0  0  0  0  0  0  0
   37.3630   32.3020   39.0340 C   0  0  0  0  0  0  0  0  0  0  0  0
   38.3750   31.4820   39.7790 C   0  0  2  0  0  0  0  0  0  0  0  0
   39.7080   33.8300   38.6410 H   0  0  0  0  0  0  0  0  0  0  0  0
   40.6330   33.8010   40.1620 H   0  0  0  0  0  0  0  0  0  0  0  0
   38.6400   35.1270   40.3210 H   0  0  0  0  0  0  0  0  0  0  0  0
   38.4460   33.7890   41.4440 H   0  0  0  0  0  0  0  0  0  0  0  0
   36.4100   33.8160   40.2520 H   0  0  0  0  0  0  0  0  0  0  0  0
   37.1340   34.3940   38.7440 H   0  0  0  0  0  0  0  0  0  0  0  0
   36.3820   31.8390   39.1600 H   0  0  0  0  0  0  0  0  0  0  0  0
   37.6570   32.3150   37.9580 H   0  0  0  0  0  0  0  0  0  0  0  0
   38.4140   30.5400   39.1470 H   0  0  0  0  0  0  0  0  0  0  0  0
   37.9650   31.0530   41.0630 N   0  0  1  0  0  0  0  0  0  0  0  0
   36.6310   30.5530   41.0520 C   0  0  0  0  0  3  0  0  0  0  0  0
   36.3100   30.4330   39.9860 H   0  0  0  0  0  0  0  0  0  0  0  0
   36.6440   29.1320   41.6070 C   0  0  0  0  0  3  0  0  0  0  0  0
   35.6980   28.6120   41.4630 H   0  0  0  0  0  0  0  0  0  0  0  0
   37.0070   29.2960   43.0070 N   0  0  0  0  0  0  0  0  0  0  0  0
   36.8840   28.4070   43.5550 H   0  0  0  0  0  0  0  0  0  0  0  0
   38.4140   29.6080   43.0070 C   0  0  0  0  0  2  0  0  0  0  0  0
   38.9160   30.3510   41.8340 C   0  0  0  0  0  2  0  0  0  0  0  0
   41.8790   31.2910   38.4600 C   0  0  1  0  0  0  0  0  0  0  0  0
   41.3380   32.5420   37.9060 C   0  0  0  0  0  0  0  0  0  0  0  0
   40.4100   31.5610   38.5220 C   0  0  2  0  0  0  0  0  0  0  0  0
   42.4900   31.4190   39.3750 H   0  0  0  0  0  0  0  0  0  0  0  0
   41.5310   33.5150   38.4390 H   0  0  0  0  0  0  0  0  0  0  0  0
   41.3290   32.6910   36.7990 H   0  0  0  0  0  0  0  0  0  0  0  0
   39.8060   30.9190   37.8470 H   0  0  0  0  0  0  0  0  0  0  0  0
   42.7960   30.5550   36.2320 C   0  0  0  0  0  0  0  0  0  0  0  0
   42.3710   30.2380   37.5370 C   0  0  0  0  0  0  0  0  0  0  0  0
   42.4390   28.8940   37.9350 C   0  0  0  0  0  0  0  0  0  0  0  0
   42.9090   27.9750   37.0460 N   0  0  0  0  0  0  0  0  0  0  0  0
   43.3110   28.3250   35.7940 C   0  0  0  0  0  0  0  0  0  0  0  0
   43.2540   29.6200   35.3840 N   0  0  0  0  0  0  0  0  0  0  0  0
   42.7650   31.5710   35.8780 H   0  0  0  0  0  0  0  0  0  0  0  0
   42.1270   28.5970   38.9210 H   0  0  0  0  0  0  0  0  0  0  0  0
   43.6480   27.4440   35.2520 H   0  0  0  0  0  0  0  0  0  0  0  0
  1  2  1  6  0  0  0
  1  6  1  0  0  0  0
  2  8  1  0  0  0  0
  2  3  1  0  0  0  0
  3 10  1  0  0  0  0
  4 11  1  0  0  0  0
  4  3  1  0  0  0  0
  5 13  1  0  0  0  0
  5  4  1  0  0  0  0
  5  6  1  0  0  0  0
  6 15  1  6  0  0  0
  6 16  1  0  0  0  0
  7  2  1  0  0  0  0
  9  3  1  0  0  0  0
 12  4  1  0  0  0  0
 14  5  1  0  0  0  0
 16 24  1  6  0  0  0
 17 16  1  0  0  0  0
 17 19  1  0  0  0  0
 18 17  1  0  0  0  0
 19 21  1  0  0  0  0
 20 19  1  0  0  0  0
 21 22  1  0  0  0  0
 23 21  1  0  0  0  0
 24 23  1  0  0  0  0
 25 27  1  0  0  0  0
 25 28  1  1  0  0  0
 26 29  1  0  0  0  0
 26 25  1  0  0  0  0
 26 27  1  0  0  0  0
 27 31  1  6  0  0  0
 27  1  1  0  0  0  0
 30 26  1  0  0  0  0
 32 33  1  0  0  0  0
 33 34  2  0  0  0  0
 33 25  1  0  0  0  0
 34 39  1  0  0  0  0
 35 34  1  0  0  0  0
 36 35  2  0  0  0  0
 37 36  1  0  0  0  0
 37 32  2  0  0  0  0
 38 32  1  0  0  0  0
 40 36  1  0  0  0  0
M  END
>  <minimizedAffinity>
-5.18437338

$$$$

 OpenBabel03252506443D

 40 43  0  0  1  0  0  0  0  0999 V2000
   36.9730   29.7660   40.6260 N   0  0  1  0  0  0  0  0  0  0  0  0
   37.2380   31.1450   41.0330 C   0  0  0  0  0  0  0  0  0  0  0  0
   37.0040   32.1210   39.9270 C   0  0  0  0  0  0  0  0  0  0  0  0
   38.0730   31.9290   38.8880 C   0  0  0  0  0  0  0  0  0  0  0  0
   38.3620   30.4640   38.7060 C   0  0  0  0  0  0  0  0  0  0  0  0
   37.2290   29.6230   39.2160 C   0  0  2  0  0  0  0  0  0  0  0  0
   38.2520   31.2710   41.4130 H   0  0  0  0  0  0  0  0  0  0  0  0
   36.5350   31.3760   41.8760 H   0  0  0  0  0  0  0  0  0  0  0  0
   37.1950   33.1310   40.3780 H   0  0  0  0  0  0  0  0  0  0  0  0
   35.9940   32.1680   39.5300 H   0  0  0  0  0  0  0  0  0  0  0  0
   37.7380   32.3960   37.9570 H   0  0  0  0  0  0  0  0  0  0  0  0
   39.0240   32.4280   39.1720 H   0  0  0  0  0  0  0  0  0  0  0  0
   38.4710   30.2840   37.6350 H   0  0  0  0  0  0  0  0  0  0  0  0
   39.2870   30.1610   39.2530 H   0  0  0  0  0  0  0  0  0  0  0  0
   37.6670   28.5790   39.1400 H   0  0  0  0  0  0  0  0  0  0  0  0
   36.0810   29.6070   38.3910 N   0  0  1  0  0  0  0  0  0  0  0  0
   36.4120   29.3390   37.0310 C   0  0  0  0  0  3  0  0  0  0  0  0
   37.4790   29.0040   36.9890 H   0  0  0  0  0  0  0  0  0  0  0  0
   35.6130   28.1240   36.5700 C   0  0  0  0  0  3  0  0  0  0  0  0
   35.9420   27.7410   35.6060 H   0  0  0  0  0  0  0  0  0  0  0  0
   34.2310   28.5800   36.5710 N   0  0  0  0  0  0  0  0  0  0  0  0
   33.5860   27.8920   36.1070 H   0  0  0  0  0  0  0  0  0  0  0  0
   33.8500   28.6550   37.9600 C   0  0  0  0  0  2  0  0  0  0  0  0
   34.9270   28.9840   38.9140 C   0  0  0  0  0  2  0  0  0  0  0  0
   37.2880   27.9600   42.4450 C   0  0  1  0  0  0  0  0  0  0  0  0
   37.8440   29.2500   42.8860 C   0  0  0  0  0  0  0  0  0  0  0  0
   37.8040   28.9360   41.4360 C   0  0  2  0  0  0  0  0  0  0  0  0
   36.1940   27.8570   42.5860 H   0  0  0  0  0  0  0  0  0  0  0  0
   37.1540   30.0420   43.2890 H   0  0  0  0  0  0  0  0  0  0  0  0
   38.8240   29.2680   43.4200 H   0  0  0  0  0  0  0  0  0  0  0  0
   38.7470   28.6190   40.9440 H   0  0  0  0  0  0  0  0  0  0  0  0
   37.6660   25.4910   42.1100 C   0  0  0  0  0  0  0  0  0  0  0  0
   38.0580   26.7140   42.6870 C   0  0  0  0  0  0  0  0  0  0  0  0
   39.2090   26.7150   43.4910 C   0  0  0  0  0  0  0  0  0  0  0  0
   39.8800   25.5420   43.6680 N   0  0  0  0  0  0  0  0  0  0  0  0
   39.4650   24.3820   43.0900 C   0  0  0  0  0  0  0  0  0  0  0  0
   38.3530   24.3550   42.3080 N   0  0  0  0  0  0  0  0  0  0  0  0
   36.7900   25.4380   41.4850 H   0  0  0  0  0  0  0  0  0  0  0  0
   39.5540   27.6220   43.9560 H   0  0  0  0  0  0  0  0  0  0  0  0
   40.1390   23.5720   43.3590 H   0  0  0  0  0  0  0  0  0  0  0  0
  1  2  1  1  0  0  0
  1 27  1  0  0  0  0
  2  7  1  0  0  0  0
  2  8  1  0  0  0  0
  3  9  1  0  0  0  0
  3  2  1  0  0  0  0
  4 12  1  0  0  0  0
  4  3  1  0  0  0  0
  5  4  1  0  0  0  0
  5  6  1  0  0  0  0
  5 14  1  0  0  0  0
  6 15  1  6  0  0  0
  6  1  1  0  0  0  0
 10  3  1  0  0  0  0
 11  4  1  0  0  0  0
 13  5  1  0  0  0  0
 16 24  1  1  0  0  0
 16  6  1  0  0  0  0
 17 16  1  0  0  0  0
 18 17  1  0  0  0  0
 19 21  1  0  0  0  0
 19 17  1  0  0  0  0
 20 19  1  0  0  0  0
 21 23  1  0  0  0  0
 22 21  1  0  0  0  0
 23 24  1  0  0  0  0
 25 28  1  1  0  0  0
 25 33  1  0  0  0  0
 25 26  1  0  0  0  0
 26 29  1  0  0  0  0
 26 30  1  0  0  0  0
 27 31  1  6  0  0  0
 27 25  1  0  0  0  0
 27 26  1  0  0  0  0
 32 37  2  0  0  0  0
 32 33  1  0  0  0  0
 33 34  2  0  0  0  0
 34 35  1  0  0  0  0
 34 39  1  0  0  0  0
 36 40  1  0  0  0  0
 36 35  2  0  0  0  0
 37 36  1  0  0  0  0
 38 32  1  0  0  0  0
M  END
>  <minimizedAffinity>
-5.09705544

$$$$

 OpenBabel03252506443D

 40 43  0  0  1  0  0  0  0  0999 V2000
   37.5820   28.1220   40.6940 N   0  0  1  0  0  0  0  0  0  0  0  0
   38.2080   29.1510   41.5230 C   0  0  0  0  0  0  0  0  0  0  0  0
   38.7460   28.6030   42.8050 C   0  0  0  0  0  0  0  0  0  0  0  0
   37.5870   28.2130   43.6780 C   0  0  0  0  0  0  0  0  0  0  0  0
   36.5020   27.5790   42.8490 C   0  0  0  0  0  0  0  0  0  0  0  0
   37.0440   27.0870   41.5390 C   0  0  2  0  0  0  0  0  0  0  0  0
   37.5250   29.9710   41.7430 H   0  0  0  0  0  0  0  0  0  0  0  0
   39.0580   29.5760   40.9260 H   0  0  0  0  0  0  0  0  0  0  0  0
   39.2330   29.4740   43.3170 H   0  0  0  0  0  0  0  0  0  0  0  0
   39.5200   27.8460   42.7200 H   0  0  0  0  0  0  0  0  0  0  0  0
   37.9520   27.5360   44.4560 H   0  0  0  0  0  0  0  0  0  0  0  0
   37.1440   29.0890   44.1990 H   0  0  0  0  0  0  0  0  0  0  0  0
   36.1230   26.7230   43.4100 H   0  0  0  0  0  0  0  0  0  0  0  0
   35.6820   28.3020   42.6310 H   0  0  0  0  0  0  0  0  0  0  0  0
   36.0930   26.7840   40.9990 H   0  0  0  0  0  0  0  0  0  0  0  0
   37.8180   25.9070   41.6200 N   0  0  1  0  0  0  0  0  0  0  0  0
   37.0570   24.8080   42.1140 C   0  0  0  0  0  3  0  0  0  0  0  0
   35.9780   25.1040   42.1210 H   0  0  0  0  0  0  0  0  0  0  0  0
   37.1340   23.6730   41.0980 C   0  0  0  0  0  3  0  0  0  0  0  0
   36.4330   22.8670   41.3090 H   0  0  0  0  0  0  0  0  0  0  0  0
   38.5260   23.2520   41.1330 N   0  0  0  0  0  0  0  0  0  0  0  0
   38.6840   22.3570   40.6040 H   0  0  0  0  0  0  0  0  0  0  0  0
   39.2600   24.2880   40.4500 C   0  0  0  0  0  2  0  0  0  0  0  0
   38.7100   25.6540   40.5550 C   0  0  0  0  0  2  0  0  0  0  0  0
   36.7060   29.0170   38.4370 C   0  0  1  0  0  0  0  0  0  0  0  0
   36.9440   30.1210   39.3800 C   0  0  0  0  0  0  0  0  0  0  0  0
   36.5900   28.7800   39.9090 C   0  0  2  0  0  0  0  0  0  0  0  0
   37.6100   28.6640   37.9030 H   0  0  0  0  0  0  0  0  0  0  0  0
   37.9910   30.5050   39.5330 H   0  0  0  0  0  0  0  0  0  0  0  0
   36.2030   30.9530   39.4460 H   0  0  0  0  0  0  0  0  0  0  0  0
   35.5500   28.6130   40.2570 H   0  0  0  0  0  0  0  0  0  0  0  0
   35.5240   29.1250   36.2140 C   0  0  0  0  0  0  0  0  0  0  0  0
   35.4680   29.0140   37.6170 C   0  0  0  0  0  0  0  0  0  0  0  0
   34.2020   28.8900   38.2100 C   0  0  0  0  0  0  0  0  0  0  0  0
   33.1040   28.8840   37.4040 N   0  0  0  0  0  0  0  0  0  0  0  0
   33.2030   28.9930   36.0520 C   0  0  0  0  0  0  0  0  0  0  0  0
   34.4180   29.1140   35.4530 N   0  0  0  0  0  0  0  0  0  0  0  0
   36.4710   29.2210   35.7100 H   0  0  0  0  0  0  0  0  0  0  0  0
   34.1020   28.8020   39.2780 H   0  0  0  0  0  0  0  0  0  0  0  0
   32.2130   28.9660   35.6030 H   0  0  0  0  0  0  0  0  0  0  0  0
  1  2  1  1  0  0  0
  1  6  1  0  0  0  0
  2  7  1  0  0  0  0
  2  3  1  0  0  0  0
  3  9  1  0  0  0  0
  3  4  1  0  0  0  0
  4 12  1  0  0  0  0
  4 11  1  0  0  0  0
  5 13  1  0  0  0  0
  5  4  1  0  0  0  0
  6 15  1  6  0  0  0
  6 16  1  0  0  0  0
  6  5  1  0  0  0  0
  8  2  1  0  0  0  0
 10  3  1  0  0  0  0
 14  5  1  0  0  0  0
 16 24  1  6  0  0  0
 16 17  1  0  0  0  0
 17 18  1  0  0  0  0
 19 21  1  0  0  0  0
 19 20  1  0  0  0  0
 19 17  1  0  0  0  0
 22 21  1  0  0  0  0
 23 24  1  0  0  0  0
 23 21  1  0  0  0  0
 25 28  1  6  0  0  0
 25 26  1  0  0  0  0
 25 27  1  0  0  0  0
 26 30  1  0  0  0  0
 26 29  1  0  0  0  0
 26 27  1  0  0  0  0
 27 31  1  1  0  0  0
 27  1  1  0  0  0  0
 32 33  1  0  0  0  0
 33 34  2  0  0  0  0
 33 25  1  0  0  0  0
 34 39  1  0  0  0  0
 35 34  1  0  0  0  0
 36 35  2  0  0  0  0
 37 36  1  0  0  0  0
 37 32  2  0  0  0  0
 38 32  1  0  0  0  0
 40 36  1  0  0  0  0
M  END
>  <minimizedAffinity>
-5.05999041

$$$$

 OpenBabel03252506443D

 40 43  0  0  1  0  0  0  0  0999 V2000
   39.1700   28.8130   42.0140 N   0  0  1  0  0  0  0  0  0  0  0  0
   38.3080   29.1970   43.1320 C   0  0  0  0  0  0  0  0  0  0  0  0
   37.5330   28.0430   43.6780 C   0  0  0  0  0  0  0  0  0  0  0  0
   36.5020   27.6390   42.6610 C   0  0  0  0  0  0  0  0  0  0  0  0
   37.0820   27.7180   41.2750 C   0  0  0  0  0  0  0  0  0  0  0  0
   38.5820   27.6990   41.3160 C   0  0  2  0  0  0  0  0  0  0  0  0
   37.6180   29.9950   42.8610 H   0  0  0  0  0  0  0  0  0  0  0  0
   38.9800   29.5960   43.9370 H   0  0  0  0  0  0  0  0  0  0  0  0
   36.9570   28.4580   44.5470 H   0  0  0  0  0  0  0  0  0  0  0  0
   38.1130   27.2180   44.0820 H   0  0  0  0  0  0  0  0  0  0  0  0
   36.1580   26.6290   42.9000 H   0  0  0  0  0  0  0  0  0  0  0  0
   35.6080   28.2970   42.6900 H   0  0  0  0  0  0  0  0  0  0  0  0
   36.7400   26.8370   40.7280 H   0  0  0  0  0  0  0  0  0  0  0  0
   36.7650   28.6530   40.7540 H   0  0  0  0  0  0  0  0  0  0  0  0
   38.8420   27.9100   40.2320 H   0  0  0  0  0  0  0  0  0  0  0  0
   39.1540   26.4370   41.5980 N   0  0  1  0  0  0  0  0  0  0  0  0
   40.2900   26.5500   42.4510 C   0  0  0  0  0  3  0  0  0  0  0  0
   40.3230   27.5940   42.8550 H   0  0  0  0  0  0  0  0  0  0  0  0
   40.0580   25.6760   43.6800 C   0  0  0  0  0  3  0  0  0  0  0  0
   40.7910   25.8460   44.4660 H   0  0  0  0  0  0  0  0  0  0  0  0
   40.0720   24.3160   43.1610 N   0  0  0  0  0  0  0  0  0  0  0  0
   40.0960   23.5980   43.9290 H   0  0  0  0  0  0  0  0  0  0  0  0
   38.8200   24.1560   42.4640 C   0  0  0  0  0  2  0  0  0  0  0  0
   38.2610   25.3710   41.8410 C   0  0  0  0  0  2  0  0  0  0  0  0
   40.6110   30.6990   40.9990 C   0  0  1  0  0  0  0  0  0  0  0  0
   39.5890   31.2510   41.9040 C   0  0  0  0  0  0  0  0  0  0  0  0
   39.3190   29.9730   41.1990 C   0  0  2  0  0  0  0  0  0  0  0  0
   41.5220   30.3270   41.5070 H   0  0  0  0  0  0  0  0  0  0  0  0
   39.7630   31.2300   43.0160 H   0  0  0  0  0  0  0  0  0  0  0  0
   39.0360   32.1740   41.6060 H   0  0  0  0  0  0  0  0  0  0  0  0
   38.6490   29.9970   40.3140 H   0  0  0  0  0  0  0  0  0  0  0  0
   40.8310   32.7640   39.5710 C   0  0  0  0  0  0  0  0  0  0  0  0
   40.8610   31.3610   39.6940 C   0  0  0  0  0  0  0  0  0  0  0  0
   41.1470   30.6140   38.5420 C   0  0  0  0  0  0  0  0  0  0  0  0
   41.3780   31.2780   37.3750 N   0  0  0  0  0  0  0  0  0  0  0  0
   41.3390   32.6360   37.3010 C   0  0  0  0  0  0  0  0  0  0  0  0
   41.0640   33.3830   38.4030 N   0  0  0  0  0  0  0  0  0  0  0  0
   40.6170   33.3830   40.4260 H   0  0  0  0  0  0  0  0  0  0  0  0
   41.1830   29.5380   38.5790 H   0  0  0  0  0  0  0  0  0  0  0  0
   41.5500   32.9590   36.2840 H   0  0  0  0  0  0  0  0  0  0  0  0
  1  2  1  1  0  0  0
  2  3  1  0  0  0  0
  2  8  1  0  0  0  0
  3 10  1  0  0  0  0
  3  9  1  0  0  0  0
  4 12  1  0  0  0  0
  4 11  1  0  0  0  0
  4  3  1  0  0  0  0
  5  6  1  0  0  0  0
  5  4  1  0  0  0  0
  6 15  1  6  0  0  0
  6 16  1  0  0  0  0
  6  1  1  0  0  0  0
  7  2  1  0  0  0  0
 13  5  1  0  0  0  0
 14  5  1  0  0  0  0
 16 24  1  1  0  0  0
 16 17  1  0  0  0  0
 17 18  1  0  0  0  0
 17 19  1  0  0  0  0
 19 20  1  0  0  0  0
 21 19  1  0  0  0  0
 21 22  1  0  0  0  0
 23 21  1  0  0  0  0
 24 23  1  0  0  0  0
 25 27  1  0  0  0  0
 25 28  1  1  0  0  0
 25 26  1  0  0  0  0
 26 29  1  0  0  0  0
 27 31  1  6  0  0  0
 27 26  1  0  0  0  0
 27  1  1  0  0  0  0
 30 26  1  0  0  0  0
 32 33  1  0  0  0  0
 32 38  1  0  0  0  0
 33 25  1  0  0  0  0
 34 39  1  0  0  0  0
 34 33  2  0  0  0  0
 35 34  1  0  0  0  0
 36 35  2  0  0  0  0
 36 37  1  0  0  0  0
 37 32  2  0  0  0  0
 40 36  1  0  0  0  0
M  END
>  <minimizedAffinity>
-5.04917002

$$$$

 OpenBabel03252506443D

 40 43  0  0  1  0  0  0  0  0999 V2000
   38.4320   26.4190   42.0910 N   0  0  1  0  0  0  0  0  0  0  0  0
   37.3310   25.4610   42.1750 C   0  0  0  0  0  0  0  0  0  0  0  0
   37.7850   24.0500   41.9810 C   0  0  0  0  0  0  0  0  0  0  0  0
   38.1940   23.8760   40.5450 C   0  0  0  0  0  0  0  0  0  0  0  0
   38.9250   25.0990   40.0610 C   0  0  0  0  0  0  0  0  0  0  0  0
   39.4510   25.9030   41.2140 C   0  0  2  0  0  0  0  0  0  0  0  0
   36.5400   25.6830   41.4600 H   0  0  0  0  0  0  0  0  0  0  0  0
   36.8900   25.5610   43.2020 H   0  0  0  0  0  0  0  0  0  0  0  0
   36.8650   23.4230   42.1140 H   0  0  0  0  0  0  0  0  0  0  0  0
   38.5020   23.6700   42.7010 H   0  0  0  0  0  0  0  0  0  0  0  0
   38.8110   22.9770   40.4680 H   0  0  0  0  0  0  0  0  0  0  0  0
   37.3180   23.7220   39.8790 H   0  0  0  0  0  0  0  0  0  0  0  0
   39.7720   24.7570   39.4640 H   0  0  0  0  0  0  0  0  0  0  0  0
   38.2590   25.7600   39.4590 H   0  0  0  0  0  0  0  0  0  0  0  0
   39.8310   26.8340   40.6870 H   0  0  0  0  0  0  0  0  0  0  0  0
   40.5830   25.3510   41.8580 N   0  0  1  0  0  0  0  0  0  0  0  0
   41.6660   25.1600   40.9520 C   0  0  0  0  0  3  0  0  0  0  0  0
   41.4200   25.6880   39.9960 H   0  0  0  0  0  0  0  0  0  0  0  0
   42.8840   25.9020   41.4930 C   0  0  0  0  0  3  0  0  0  0  0  0
   43.6980   25.9610   40.7740 H   0  0  0  0  0  0  0  0  0  0  0  0
   43.2350   25.1800   42.7070 N   0  0  0  0  0  0  0  0  0  0  0  0
   44.1670   25.4800   43.0920 H   0  0  0  0  0  0  0  0  0  0  0  0
   42.2330   25.5430   43.6770 C   0  0  0  0  0  2  0  0  0  0  0  0
   40.8900   25.8460   43.1440 C   0  0  0  0  0  2  0  0  0  0  0  0
   37.8550   28.9110   42.4370 C   0  0  1  0  0  0  0  0  0  0  0  0
   36.6300   28.1020   42.3190 C   0  0  0  0  0  0  0  0  0  0  0  0
   37.8680   27.6470   41.6380 C   0  0  2  0  0  0  0  0  0  0  0  0
   38.3080   28.9150   43.4470 H   0  0  0  0  0  0  0  0  0  0  0  0
   36.2600   27.5240   43.2110 H   0  0  0  0  0  0  0  0  0  0  0  0
   35.7760   28.4880   41.7130 H   0  0  0  0  0  0  0  0  0  0  0  0
   37.9510   27.8090   40.5430 H   0  0  0  0  0  0  0  0  0  0  0  0
   36.8330   30.7340   41.0290 C   0  0  0  0  0  0  0  0  0  0  0  0
   37.9420   30.2080   41.7200 C   0  0  0  0  0  0  0  0  0  0  0  0
   39.1270   30.9580   41.7130 C   0  0  0  0  0  0  0  0  0  0  0  0
   39.1430   32.1460   41.0460 N   0  0  0  0  0  0  0  0  0  0  0  0
   38.0460   32.6180   40.3920 C   0  0  0  0  0  0  0  0  0  0  0  0
   36.8870   31.9090   40.3830 N   0  0  0  0  0  0  0  0  0  0  0  0
   35.8990   30.1970   41.0040 H   0  0  0  0  0  0  0  0  0  0  0  0
   40.0050   30.6030   42.2260 H   0  0  0  0  0  0  0  0  0  0  0  0
   38.2740   33.5750   39.9300 H   0  0  0  0  0  0  0  0  0  0  0  0
  1  2  1  6  0  0  0
  2  8  1  0  0  0  0
  3  9  1  0  0  0  0
  3  2  1  0  0  0  0
  3 10  1  0  0  0  0
  4  3  1  0  0  0  0
  5  4  1  0  0  0  0
  5  6  1  0  0  0  0
  6 15  1  6  0  0  0
  6 16  1  0  0  0  0
  6  1  1  0  0  0  0
  7  2  1  0  0  0  0
 11  4  1  0  0  0  0
 12  4  1  0  0  0  0
 13  5  1  0  0  0  0
 14  5  1  0  0  0  0
 16 24  1  1  0  0  0
 17 19  1  0  0  0  0
 17 16  1  0  0  0  0
 18 17  1  0  0  0  0
 19 21  1  0  0  0  0
 20 19  1  0  0  0  0
 21 22  1  0  0  0  0
 21 23  1  0  0  0  0
 24 23  1  0  0  0  0
 25 28  1  1  0  0  0
 26 25  1  0  0  0  0
 26 29  1  0  0  0  0
 27 31  1  6  0  0  0
 27  1  1  0  0  0  0
 27 26  1  0  0  0  0
 27 25  1  0  0  0  0
 30 26  1  0  0  0  0
 32 33  1  0  0  0  0
 33 25  1  0  0  0  0
 34 33  2  0  0  0  0
 34 39  1  0  0  0  0
 35 34  1  0  0  0  0
 36 35  2  0  0  0  0
 37 36  1  0  0  0  0
 37 32  2  0  0  0  0
 38 32  1  0  0  0  0
 40 36  1  0  0  0  0
M  END
>  <minimizedAffinity>
-4.96454287

$$$$

 OpenBabel03252506443D

 40 43  0  0  1  0  0  0  0  0999 V2000
   38.1660   31.2410   39.6090 N   0  0  1  0  0  0  0  0  0  0  0  0
   37.0060   32.1260   39.5210 C   0  0  0  0  0  0  0  0  0  0  0  0
   37.3780   33.5180   39.1240 C   0  0  0  0  0  0  0  0  0  0  0  0
   38.1250   34.1540   40.2620 C   0  0  0  0  0  0  0  0  0  0  0  0
   39.0530   33.1540   40.8970 C   0  0  0  0  0  0  0  0  0  0  0  0
   39.3310   32.0100   39.9670 C   0  0  2  0  0  0  0  0  0  0  0  0
   36.4450   32.1590   40.4550 H   0  0  0  0  0  0  0  0  0  0  0  0
   36.3270   31.6950   38.7390 H   0  0  0  0  0  0  0  0  0  0  0  0
   36.4060   34.0730   39.0490 H   0  0  0  0  0  0  0  0  0  0  0  0
   37.8540   33.6320   38.1540 H   0  0  0  0  0  0  0  0  0  0  0  0
   38.6650   35.0230   39.8780 H   0  0  0  0  0  0  0  0  0  0  0  0
   37.4390   34.5260   41.0530 H   0  0  0  0  0  0  0  0  0  0  0  0
   39.9940   33.6680   41.1030 H   0  0  0  0  0  0  0  0  0  0  0  0
   38.6190   32.7350   41.8360 H   0  0  0  0  0  0  0  0  0  0  0  0
   39.9070   31.3030   40.6420 H   0  0  0  0  0  0  0  0  0  0  0  0
   40.2100   32.3090   38.9010 N   0  0  1  0  0  0  0  0  0  0  0  0
   41.3490   33.0420   39.3450 C   0  0  0  0  0  3  0  0  0  0  0  0
   41.3650   33.0200   40.4640 H   0  0  0  0  0  0  0  0  0  0  0  0
   42.6040   32.2800   38.9320 C   0  0  0  0  0  3  0  0  0  0  0  0
   43.5090   32.6730   39.3910 H   0  0  0  0  0  0  0  0  0  0  0  0
   42.6110   32.3570   37.4790 N   0  0  0  0  0  0  0  0  0  0  0  0
   43.5180   32.0200   37.0670 H   0  0  0  0  0  0  0  0  0  0  0  0
   41.5770   31.4540   37.0390 C   0  0  0  0  0  2  0  0  0  0  0  0
   40.4240   31.2920   37.9450 C   0  0  0  0  0  2  0  0  0  0  0  0
   36.7680   29.2110   40.3760 C   0  0  1  0  0  0  0  0  0  0  0  0
   36.5290   30.3710   41.2510 C   0  0  0  0  0  0  0  0  0  0  0  0
   37.8400   30.2360   40.5670 C   0  0  2  0  0  0  0  0  0  0  0  0
   36.1800   29.2140   39.4370 H   0  0  0  0  0  0  0  0  0  0  0  0
   35.8240   31.1820   40.9160 H   0  0  0  0  0  0  0  0  0  0  0  0
   36.4640   30.2190   42.3540 H   0  0  0  0  0  0  0  0  0  0  0  0
   38.7050   29.8770   41.1620 H   0  0  0  0  0  0  0  0  0  0  0  0
   36.6980   27.6460   42.3500 C   0  0  0  0  0  0  0  0  0  0  0  0
   36.9510   27.8690   40.9820 C   0  0  0  0  0  0  0  0  0  0  0  0
   37.3720   26.7730   40.2120 C   0  0  0  0  0  0  0  0  0  0  0  0
   37.5130   25.5640   40.8230 N   0  0  0  0  0  0  0  0  0  0  0  0
   37.2560   25.3930   42.1480 C   0  0  0  0  0  0  0  0  0  0  0  0
   36.8480   26.4380   42.9160 N   0  0  0  0  0  0  0  0  0  0  0  0
   36.3720   28.4530   42.9840 H   0  0  0  0  0  0  0  0  0  0  0  0
   37.5790   26.8880   39.1620 H   0  0  0  0  0  0  0  0  0  0  0  0
   37.4310   24.3570   42.4290 H   0  0  0  0  0  0  0  0  0  0  0  0
  1  2  1  1  0  0  0
  1  6  1  0  0  0  0
  1 27  1  0  0  0  0
  2  7  1  0  0  0  0
  3  2  1  0  0  0  0
  3  4  1  0  0  0  0
  4  5  1  0  0  0  0
  4 12  1  0  0  0  0
  5 13  1  0  0  0  0
  5 14  1  0  0  0  0
  6 15  1  1  0  0  0
  6  5  1  0  0  0  0
  8  2  1  0  0  0  0
  9  3  1  0  0  0  0
 10  3  1  0  0  0  0
 11  4  1  0  0  0  0
 16 24  1  1  0  0  0
 16 17  1  0  0  0  0
 16  6  1  0  0  0  0
 17 18  1  0  0  0  0
 19 17  1  0  0  0  0
 19 20  1  0  0  0  0
 21 19  1  0  0  0  0
 22 21  1  0  0  0  0
 23 21  1  0  0  0  0
 23 24  1  0  0  0  0
 25 28  1  6  0  0  0
 25 27  1  0  0  0  0
 25 33  1  0  0  0  0
 25 26  1  0  0  0  0
 26 30  1  0  0  0  0
 27 31  1  1  0  0  0
 27 26  1  0  0  0  0
 29 26  1  0  0  0  0
 32 37  1  0  0  0  0
 32 38  1  0  0  0  0
 33 32  2  0  0  0  0
 34 35  2  0  0  0  0
 34 33  1  0  0  0  0
 35 36  1  0  0  0  0
 36 40  1  0  0  0  0
 36 37  2  0  0  0  0
 39 34  1  0  0  0  0
M  END
>  <minimizedAffinity>
-4.78927231

$$$$

 OpenBabel03252506443D

 40 43  0  0  1  0  0  0  0  0999 V2000
   37.5740   30.1840   40.8550 N   0  0  1  0  0  0  0  0  0  0  0  0
   36.1780   30.5310   40.5930 C   0  0  0  0  0  0  0  0  0  0  0  0
   35.2890   29.3300   40.5590 C   0  0  0  0  0  0  0  0  0  0  0  0
   35.6120   28.5340   39.3260 C   0  0  0  0  0  0  0  0  0  0  0  0
   37.0980   28.5200   39.0920 C   0  0  0  0  0  0  0  0  0  0  0  0
   37.8450   28.8640   40.3480 C   0  0  2  0  0  0  0  0  0  0  0  0
   36.0630   31.0880   39.6630 H   0  0  0  0  0  0  0  0  0  0  0  0
   35.8470   31.2030   41.4270 H   0  0  0  0  0  0  0  0  0  0  0  0
   34.2540   29.7340   40.3980 H   0  0  0  0  0  0  0  0  0  0  0  0
   35.2330   28.7440   41.4710 H   0  0  0  0  0  0  0  0  0  0  0  0
   35.2110   27.5240   39.4520 H   0  0  0  0  0  0  0  0  0  0  0  0
   35.1320   28.9580   38.4180 H   0  0  0  0  0  0  0  0  0  0  0  0
   37.3720   27.5070   38.7940 H   0  0  0  0  0  0  0  0  0  0  0  0
   37.3930   29.2560   38.3060 H   0  0  0  0  0  0  0  0  0  0  0  0
   38.9090   28.9510   39.9630 H   0  0  0  0  0  0  0  0  0  0  0  0
   37.8820   27.8370   41.3180 N   0  0  1  0  0  0  0  0  0  0  0  0
   38.4190   26.6280   40.7890 C   0  0  0  0  0  3  0  0  0  0  0  0
   38.8710   26.8540   39.7890 H   0  0  0  0  0  0  0  0  0  0  0  0
   39.6030   26.2070   41.6540 C   0  0  0  0  0  3  0  0  0  0  0  0
   40.1830   25.3980   41.2140 H   0  0  0  0  0  0  0  0  0  0  0  0
   39.0070   25.8610   42.9350 N   0  0  0  0  0  0  0  0  0  0  0  0
   39.6920   25.3860   43.5770 H   0  0  0  0  0  0  0  0  0  0  0  0
   38.6460   27.1160   43.5460 C   0  0  0  0  0  2  0  0  0  0  0  0
   38.2730   28.2060   42.6230 C   0  0  0  0  0  2  0  0  0  0  0  0
   39.0520   32.2970   40.9880 C   0  0  1  0  0  0  0  0  0  0  0  0
   37.8090   32.5730   40.2480 C   0  0  0  0  0  0  0  0  0  0  0  0
   38.3670   31.1970   40.2410 C   0  0  2  0  0  0  0  0  0  0  0  0
   38.9510   32.3440   42.0900 H   0  0  0  0  0  0  0  0  0  0  0  0
   36.8580   32.7690   40.8160 H   0  0  0  0  0  0  0  0  0  0  0  0
   37.8520   33.1910   39.3190 H   0  0  0  0  0  0  0  0  0  0  0  0
   38.9140   30.8610   39.3350 H   0  0  0  0  0  0  0  0  0  0  0  0
   40.3820   33.6690   39.3450 C   0  0  0  0  0  0  0  0  0  0  0  0
   40.3410   32.8170   40.4660 C   0  0  0  0  0  0  0  0  0  0  0  0
   41.5600   32.4860   41.0760 C   0  0  0  0  0  0  0  0  0  0  0  0
   42.7090   33.0020   40.5570 N   0  0  0  0  0  0  0  0  0  0  0  0
   42.7030   33.8230   39.4720 C   0  0  0  0  0  0  0  0  0  0  0  0
   41.5350   34.1580   38.8630 N   0  0  0  0  0  0  0  0  0  0  0  0
   39.4730   33.9540   38.8410 H   0  0  0  0  0  0  0  0  0  0  0  0
   41.5860   31.8380   41.9350 H   0  0  0  0  0  0  0  0  0  0  0  0
   43.7200   34.1190   39.2250 H   0  0  0  0  0  0  0  0  0  0  0  0
  1  2  1  6  0  0  0
  2  8  1  0  0  0  0
  3  2  1  0  0  0  0
  3 10  1  0  0  0  0
  4 11  1  0  0  0  0
  4  3  1  0  0  0  0
  5  4  1  0  0  0  0
  5  6  1  0  0  0  0
  6 15  1  6  0  0  0
  6  1  1  0  0  0  0
  6 16  1  0  0  0  0
  7  2  1  0  0  0  0
  9  3  1  0  0  0  0
 12  4  1  0  0  0  0
 13  5  1  0  0  0  0
 14  5  1  0  0  0  0
 16 24  1  1  0  0  0
 17 16  1  0  0  0  0
 17 19  1  0  0  0  0
 18 17  1  0  0  0  0
 19 21  1  0  0  0  0
 20 19  1  0  0  0  0
 21 23  1  0  0  0  0
 21 22  1  0  0  0  0
 24 23  1  0  0  0  0
 25 28  1  1  0  0  0
 26 29  1  0  0  0  0
 26 25  1  0  0  0  0
 27 31  1  6  0  0  0
 27 26  1  0  0  0  0
 27  1  1  0  0  0  0
 27 25  1  0  0  0  0
 30 26  1  0  0  0  0
 32 33  1  0  0  0  0
 33 25  1  0  0  0  0
 33 34  2  0  0  0  0
 34 39  1  0  0  0  0
 35 34  1  0  0  0  0
 36 35  2  0  0  0  0
 37 32  2  0  0  0  0
 37 36  1  0  0  0  0
 38 32  1  0  0  0  0
 40 36  1  0  0  0  0
M  END
>  <minimizedAffinity>
-4.776196

$$$$

 OpenBabel03252506443D

 40 43  0  0  1  0  0  0  0  0999 V2000
   37.2760   29.8560   40.8490 N   0  0  1  0  0  0  0  0  0  0  0  0
   37.0490   29.0590   42.0530 C   0  0  0  0  0  0  0  0  0  0  0  0
   38.0950   29.2880   43.0950 C   0  0  0  0  0  0  0  0  0  0  0  0
   39.3880   28.6940   42.6100 C   0  0  0  0  0  0  0  0  0  0  0  0
   39.5570   28.9520   41.1370 C   0  0  0  0  0  0  0  0  0  0  0  0
   38.6880   30.0890   40.6860 C   0  0  2  0  0  0  0  0  0  0  0  0
   36.9910   27.9930   41.8330 H   0  0  0  0  0  0  0  0  0  0  0  0
   36.0530   29.3690   42.4660 H   0  0  0  0  0  0  0  0  0  0  0  0
   37.7820   28.6620   43.9710 H   0  0  0  0  0  0  0  0  0  0  0  0
   38.1820   30.3000   43.4780 H   0  0  0  0  0  0  0  0  0  0  0  0
   40.2060   29.1230   43.1940 H   0  0  0  0  0  0  0  0  0  0  0  0
   39.4250   27.5950   42.7660 H   0  0  0  0  0  0  0  0  0  0  0  0
   40.6000   29.2290   40.9730 H   0  0  0  0  0  0  0  0  0  0  0  0
   39.2870   28.0540   40.5330 H   0  0  0  0  0  0  0  0  0  0  0  0
   38.8260   30.0480   39.5600 H   0  0  0  0  0  0  0  0  0  0  0  0
   39.1390   31.3730   41.0700 N   0  0  1  0  0  0  0  0  0  0  0  0
   40.5480   31.5090   40.9080 C   0  0  0  0  0  3  0  0  0  0  0  0
   40.9190   30.6310   40.3190 H   0  0  0  0  0  0  0  0  0  0  0  0
   40.8150   32.7100   40.0070 C   0  0  0  0  0  3  0  0  0  0  0  0
   41.8520   32.7750   39.6820 H   0  0  0  0  0  0  0  0  0  0  0  0
   40.3840   33.8540   40.7950 N   0  0  0  0  0  0  0  0  0  0  0  0
   40.6730   34.7680   40.3610 H   0  0  0  0  0  0  0  0  0  0  0  0
   38.9430   33.8110   40.7830 C   0  0  0  0  0  2  0  0  0  0  0  0
   38.3320   32.4700   40.6990 C   0  0  0  0  0  2  0  0  0  0  0  0
   35.8520   29.7500   38.6980 C   0  0  1  0  0  0  0  0  0  0  0  0
   35.2190   28.9810   39.7830 C   0  0  0  0  0  0  0  0  0  0  0  0
   36.6960   29.1310   39.7660 C   0  0  2  0  0  0  0  0  0  0  0  0
   35.6540   30.8390   38.7300 H   0  0  0  0  0  0  0  0  0  0  0  0
   34.6280   29.5210   40.5740 H   0  0  0  0  0  0  0  0  0  0  0  0
   34.7630   27.9880   39.5550 H   0  0  0  0  0  0  0  0  0  0  0  0
   37.3050   28.2710   39.4170 H   0  0  0  0  0  0  0  0  0  0  0  0
   35.0230   28.1420   36.9430 C   0  0  0  0  0  0  0  0  0  0  0  0
   35.9000   29.1740   37.3310 C   0  0  0  0  0  0  0  0  0  0  0  0
   36.8130   29.6440   36.3740 C   0  0  0  0  0  0  0  0  0  0  0  0
   36.8030   29.0840   35.1330 N   0  0  0  0  0  0  0  0  0  0  0  0
   35.9370   28.0880   34.8010 C   0  0  0  0  0  0  0  0  0  0  0  0
   35.0440   27.6140   35.7090 N   0  0  0  0  0  0  0  0  0  0  0  0
   34.3040   27.7460   37.6400 H   0  0  0  0  0  0  0  0  0  0  0  0
   37.5060   30.4320   36.6170 H   0  0  0  0  0  0  0  0  0  0  0  0
   36.0970   27.7860   33.7680 H   0  0  0  0  0  0  0  0  0  0  0  0
  1  2  1  1  0  0  0
  2  8  1  0  0  0  0
  2  3  1  0  0  0  0
  3 10  1  0  0  0  0
  3  9  1  0  0  0  0
  4 12  1  0  0  0  0
  4  3  1  0  0  0  0
  4 11  1  0  0  0  0
  5  4  1  0  0  0  0
  6 15  1  6  0  0  0
  6  1  1  0  0  0  0
  6 16  1  0  0  0  0
  6  5  1  0  0  0  0
  7  2  1  0  0  0  0
 13  5  1  0  0  0  0
 14  5  1  0  0  0  0
 16 24  1  6  0  0  0
 17 16  1  0  0  0  0
 18 17  1  0  0  0  0
 19 21  1  0  0  0  0
 19 17  1  0  0  0  0
 20 19  1  0  0  0  0
 22 21  1  0  0  0  0
 23 21  1  0  0  0  0
 24 23  1  0  0  0  0
 25 28  1  1  0  0  0
 25 27  1  0  0  0  0
 25 26  1  0  0  0  0
 26 29  1  0  0  0  0
 27 31  1  6  0  0  0
 27 26  1  0  0  0  0
 27  1  1  0  0  0  0
 30 26  1  0  0  0  0
 32 33  1  0  0  0  0
 32 38  1  0  0  0  0
 33 25  1  0  0  0  0
 34 39  1  0  0  0  0
 34 33  2  0  0  0  0
 35 34  1  0  0  0  0
 36 35  2  0  0  0  0
 36 37  1  0  0  0  0
 37 32  2  0  0  0  0
 40 36  1  0  0  0  0
M  END
>  <minimizedAffinity>
-4.75029087

$$$$

 OpenBabel03252506443D

 40 43  0  0  1  0  0  0  0  0999 V2000
   38.4760   29.4440   41.7070 N   0  0  1  0  0  0  0  0  0  0  0  0
   39.1280   29.8660   42.9460 C   0  0  0  0  0  0  0  0  0  0  0  0
   40.0080   31.0570   42.7510 C   0  0  0  0  0  0  0  0  0  0  0  0
   41.2030   30.6380   41.9410 C   0  0  0  0  0  0  0  0  0  0  0  0
   40.7850   29.6800   40.8580 C   0  0  0  0  0  0  0  0  0  0  0  0
   39.3130   29.7850   40.5850 C   0  0  2  0  0  0  0  0  0  0  0  0
   39.7080   29.0620   43.3970 H   0  0  0  0  0  0  0  0  0  0  0  0
   38.3110   30.1330   43.6680 H   0  0  0  0  0  0  0  0  0  0  0  0
   40.4040   31.3030   43.7720 H   0  0  0  0  0  0  0  0  0  0  0  0
   39.5240   31.9640   42.4020 H   0  0  0  0  0  0  0  0  0  0  0  0
   41.6740   31.5360   41.5300 H   0  0  0  0  0  0  0  0  0  0  0  0
   41.9700   30.1300   42.5630 H   0  0  0  0  0  0  0  0  0  0  0  0
   41.3250   29.9580   39.9510 H   0  0  0  0  0  0  0  0  0  0  0  0
   41.0070   28.6240   41.1410 H   0  0  0  0  0  0  0  0  0  0  0  0
   39.1520   28.9160   39.8720 H   0  0  0  0  0  0  0  0  0  0  0  0
   38.9210   30.9360   39.8640 N   0  0  1  0  0  0  0  0  0  0  0  0
   39.4930   30.9630   38.5590 C   0  0  0  0  0  3  0  0  0  0  0  0
   39.9470   29.9600   38.3550 H   0  0  0  0  0  0  0  0  0  0  0  0
   38.3640   31.0840   37.5400 C   0  0  0  0  0  3  0  0  0  0  0  0
   38.6980   30.9260   36.5170 H   0  0  0  0  0  0  0  0  0  0  0  0
   37.8130   32.4100   37.7710 N   0  0  0  0  0  0  0  0  0  0  0  0
   37.1350   32.6950   37.0180 H   0  0  0  0  0  0  0  0  0  0  0  0
   37.0680   32.3110   39.0020 C   0  0  0  0  0  2  0  0  0  0  0  0
   37.5750   31.3420   39.9920 C   0  0  0  0  0  2  0  0  0  0  0  0
   36.9240   27.3870   41.5600 C   0  0  1  0  0  0  0  0  0  0  0  0
   37.3650   27.6110   42.9470 C   0  0  0  0  0  0  0  0  0  0  0  0
   38.2400   28.0430   41.8280 C   0  0  2  0  0  0  0  0  0  0  0  0
   36.0650   28.0100   41.2440 H   0  0  0  0  0  0  0  0  0  0  0  0
   36.8550   28.3980   43.5700 H   0  0  0  0  0  0  0  0  0  0  0  0
   37.6610   26.7370   43.5740 H   0  0  0  0  0  0  0  0  0  0  0  0
   39.1170   27.4100   41.5780 H   0  0  0  0  0  0  0  0  0  0  0  0
   36.5930   25.7580   39.6660 C   0  0  0  0  0  0  0  0  0  0  0  0
   36.9150   26.0060   41.0140 C   0  0  0  0  0  0  0  0  0  0  0  0
   37.2390   24.9030   41.8190 C   0  0  0  0  0  0  0  0  0  0  0  0
   37.2240   23.6610   41.2580 N   0  0  0  0  0  0  0  0  0  0  0  0
   36.9070   23.4670   39.9490 C   0  0  0  0  0  0  0  0  0  0  0  0
   36.5890   24.5200   39.1490 N   0  0  0  0  0  0  0  0  0  0  0  0
   36.3380   26.5710   39.0060 H   0  0  0  0  0  0  0  0  0  0  0  0
   37.4930   25.0360   42.8560 H   0  0  0  0  0  0  0  0  0  0  0  0
   36.9550   22.4080   39.7090 H   0  0  0  0  0  0  0  0  0  0  0  0
  1 27  1  0  0  0  0
  1  2  1  1  0  0  0
  2  7  1  0  0  0  0
  2  8  1  0  0  0  0
  3  2  1  0  0  0  0
  3  9  1  0  0  0  0
  4 12  1  0  0  0  0
  4  3  1  0  0  0  0
  5 14  1  0  0  0  0
  5  4  1  0  0  0  0
  6 15  1  6  0  0  0
  6  5  1  0  0  0  0
  6  1  1  0  0  0  0
 10  3  1  0  0  0  0
 11  4  1  0  0  0  0
 13  5  1  0  0  0  0
 16 24  1  6  0  0  0
 16  6  1  0  0  0  0
 17 16  1  0  0  0  0
 18 17  1  0  0  0  0
 19 21  1  0  0  0  0
 19 17  1  0  0  0  0
 20 19  1  0  0  0  0
 21 23  1  0  0  0  0
 22 21  1  0  0  0  0
 23 24  1  0  0  0  0
 25 28  1  6  0  0  0
 25 27  1  0  0  0  0
 25 26  1  0  0  0  0
 26 29  1  0  0  0  0
 26 30  1  0  0  0  0
 27 31  1  6  0  0  0
 27 26  1  0  0  0  0
 32 33  1  0  0  0  0
 33 25  1  0  0  0  0
 33 34  2  0  0  0  0
 34 39  1  0  0  0  0
 35 34  1  0  0  0  0
 36 35  2  0  0  0  0
 37 32  2  0  0  0  0
 37 36  1  0  0  0  0
 38 32  1  0  0  0  0
 40 36  1  0  0  0  0
M  END
>  <minimizedAffinity>
-4.7437067

$$$$
