
 OpenBabel03242520033D

 25 27  0  0  1  0  0  0  0  0999 V2000
   38.4880   28.3180   42.2770 C   0  0  0  0  0  0  0  0  0  0  0  0
   39.2190   29.4650   42.5210 C   0  0  0  0  0  0  0  0  0  0  0  0
   38.4820   30.5280   42.0990 C   0  0  0  0  0  0  0  0  0  0  0  0
   37.3230   30.0360   41.6090 N   0  0  0  0  0  0  0  0  0  0  0  0
   37.3410   28.7030   41.7230 N   0  0  0  0  0  0  0  0  0  0  0  0
   40.2130   29.4360   42.9770 H   0  0  0  0  0  0  0  0  0  0  0  0
   38.7620   31.5670   42.1450 H   0  0  0  0  0  0  0  0  0  0  0  0
   40.3120   25.4430   43.6760 C   0  0  0  0  0  0  0  0  0  0  0  0
   39.6460   24.3430   43.0980 C   0  0  0  0  0  0  0  0  0  0  0  0
   38.5750   24.6150   42.2310 C   0  0  0  0  0  0  0  0  0  0  0  0
   38.2500   25.9130   42.0070 N   0  0  0  0  0  0  0  0  0  0  0  0
   38.9080   26.9490   42.5770 C   0  0  0  0  0  0  0  0  0  0  0  0
   39.9390   26.7160   43.4110 N   0  0  0  0  0  0  0  0  0  0  0  0
   41.1410   25.2570   44.3480 H   0  0  0  0  0  0  0  0  0  0  0  0
   39.9590   23.3360   43.3210 H   0  0  0  0  0  0  0  0  0  0  0  0
   38.0330   23.7980   41.7630 H   0  0  0  0  0  0  0  0  0  0  0  0
   35.7700   32.7300   40.8150 H   0  0  0  0  0  0  0  0  0  0  0  0
   36.5060   32.0480   40.6040 N   0  0  0  0  0  0  0  0  0  0  0  0
   36.2050   30.7420   41.0420 C   0  0  1  0  0  3  0  0  0  0  0  0
   35.7320   29.9150   39.8630 C   0  0  0  0  0  3  0  0  0  0  0  0
   34.8240   30.2890   39.3840 H   0  0  0  0  0  0  0  0  0  0  0  0
   36.8830   29.8240   38.9740 N   0  0  0  0  0  0  0  0  0  0  0  0
   36.6130   29.1900   38.1750 H   0  0  0  0  0  0  0  0  0  0  0  0
   37.2310   31.1060   38.4180 C   0  0  0  0  0  2  0  0  0  0  0  0
   37.1890   32.2320   39.3880 C   0  0  0  0  0  2  0  0  0  0  0  0
  1  2  1  0  0  0  0
  1 12  1  0  0  0  0
  2  6  1  0  0  0  0
  3  7  1  0  0  0  0
  3  2  2  0  0  0  0
  4  5  1  0  0  0  0
  4  3  1  0  0  0  0
  5  1  2  0  0  0  0
  8 14  1  0  0  0  0
  9 15  1  0  0  0  0
  9  8  2  0  0  0  0
 10  9  1  0  0  0  0
 11 10  2  0  0  0  0
 11 12  1  0  0  0  0
 12 13  2  0  0  0  0
 13  8  1  0  0  0  0
 16 10  1  0  0  0  0
 18 17  1  0  0  0  0
 18 19  1  0  0  0  0
 19  4  1  6  0  0  0
 20 19  1  0  0  0  0
 21 20  1  0  0  0  0
 22 20  1  0  0  0  0
 23 22  1  0  0  0  0
 24 22  1  0  0  0  0
 24 25  1  0  0  0  0
 25 18  1  0  0  0  0
M  END
>  <minimizedAffinity>
-4.91352606

$$$$

 OpenBabel03242520033D

 25 27  0  0  1  0  0  0  0  0999 V2000
   38.0410   31.3670   41.0550 C   0  0  0  0  0  0  0  0  0  0  0  0
   37.3200   32.2060   40.2260 C   0  0  0  0  0  0  0  0  0  0  0  0
   38.0980   33.2850   39.9450 C   0  0  0  0  0  0  0  0  0  0  0  0
   39.2730   33.1060   40.5900 N   0  0  0  0  0  0  0  0  0  0  0  0
   39.2230   31.9460   41.2540 N   0  0  0  0  0  0  0  0  0  0  0  0
   36.3030   31.9690   39.9010 H   0  0  0  0  0  0  0  0  0  0  0  0
   37.8360   34.1270   39.3250 H   0  0  0  0  0  0  0  0  0  0  0  0
   36.2000   28.2110   41.4990 C   0  0  0  0  0  0  0  0  0  0  0  0
   36.7580   27.6900   42.6840 C   0  0  0  0  0  0  0  0  0  0  0  0
   37.7650   28.4430   43.3120 C   0  0  0  0  0  0  0  0  0  0  0  0
   38.1340   29.6160   42.7400 N   0  0  0  0  0  0  0  0  0  0  0  0
   37.5800   30.0900   41.6000 C   0  0  0  0  0  0  0  0  0  0  0  0
   36.6120   29.3900   40.9790 N   0  0  0  0  0  0  0  0  0  0  0  0
   35.4220   27.6480   40.9970 H   0  0  0  0  0  0  0  0  0  0  0  0
   36.4150   26.7500   43.0830 H   0  0  0  0  0  0  0  0  0  0  0  0
   38.2240   28.0810   44.2280 H   0  0  0  0  0  0  0  0  0  0  0  0
   41.9690   34.1920   41.9500 H   0  0  0  0  0  0  0  0  0  0  0  0
   41.4930   33.4650   41.4050 N   0  0  0  0  0  0  0  0  0  0  0  0
   40.4320   33.9560   40.6170 C   0  0  1  0  0  3  0  0  0  0  0  0
   40.8960   34.0910   39.1800 C   0  0  0  0  0  3  0  0  0  0  0  0
   41.7260   34.7870   39.0350 H   0  0  0  0  0  0  0  0  0  0  0  0
   41.1740   32.7290   38.7400 N   0  0  0  0  0  0  0  0  0  0  0  0
   41.4290   32.7760   37.7160 H   0  0  0  0  0  0  0  0  0  0  0  0
   42.2930   32.1590   39.4440 C   0  0  0  0  0  2  0  0  0  0  0  0
   42.3100   32.4340   40.9050 C   0  0  0  0  0  2  0  0  0  0  0  0
  1  5  2  0  0  0  0
  1 12  1  0  0  0  0
  2  1  1  0  0  0  0
  3  2  2  0  0  0  0
  3  4  1  0  0  0  0
  4  5  1  0  0  0  0
  6  2  1  0  0  0  0
  7  3  1  0  0  0  0
  8  9  1  0  0  0  0
  9 15  1  0  0  0  0
  9 10  2  0  0  0  0
 10 16  1  0  0  0  0
 11 10  1  0  0  0  0
 12 11  2  0  0  0  0
 13  8  2  0  0  0  0
 13 12  1  0  0  0  0
 14  8  1  0  0  0  0
 18 17  1  0  0  0  0
 19  4  1  6  0  0  0
 19 18  1  0  0  0  0
 20 19  1  0  0  0  0
 21 20  1  0  0  0  0
 22 20  1  0  0  0  0
 22 24  1  0  0  0  0
 23 22  1  0  0  0  0
 24 25  1  0  0  0  0
 25 18  1  0  0  0  0
M  END
>  <minimizedAffinity>
-4.709126

$$$$

 OpenBabel03242520033D

 25 27  0  0  1  0  0  0  0  0999 V2000
   37.2420   30.3810   41.1430 C   0  0  0  0  0  0  0  0  0  0  0  0
   36.1550   29.7290   40.5930 C   0  0  0  0  0  0  0  0  0  0  0  0
   36.0140   28.5390   41.2330 C   0  0  0  0  0  0  0  0  0  0  0  0
   36.9960   28.4670   42.1590 N   0  0  0  0  0  0  0  0  0  0  0  0
   37.7280   29.5850   42.0920 N   0  0  0  0  0  0  0  0  0  0  0  0
   35.5650   30.1660   39.7820 H   0  0  0  0  0  0  0  0  0  0  0  0
   35.2630   27.7890   41.0450 H   0  0  0  0  0  0  0  0  0  0  0  0
   37.4880   33.7300   39.6350 C   0  0  0  0  0  0  0  0  0  0  0  0
   38.7670   34.1600   40.0400 C   0  0  0  0  0  0  0  0  0  0  0  0
   39.5260   33.2810   40.8300 C   0  0  0  0  0  0  0  0  0  0  0  0
   38.9820   32.0810   41.1520 N   0  0  0  0  0  0  0  0  0  0  0  0
   37.7490   31.6960   40.7480 C   0  0  0  0  0  0  0  0  0  0  0  0
   37.0010   32.5190   39.9890 N   0  0  0  0  0  0  0  0  0  0  0  0
   36.8840   34.3910   39.0250 H   0  0  0  0  0  0  0  0  0  0  0  0
   39.1380   35.1280   39.7470 H   0  0  0  0  0  0  0  0  0  0  0  0
   40.5190   33.5690   41.1660 H   0  0  0  0  0  0  0  0  0  0  0  0
   36.4520   25.5780   43.4450 H   0  0  0  0  0  0  0  0  0  0  0  0
   36.8540   26.1380   42.6860 N   0  0  0  0  0  0  0  0  0  0  0  0
   37.2850   27.4160   43.0960 C   0  0  1  0  0  3  0  0  0  0  0  0
   38.7910   27.4030   43.2720 C   0  0  0  0  0  3  0  0  0  0  0  0
   39.1530   26.7050   44.0300 H   0  0  0  0  0  0  0  0  0  0  0  0
   39.3290   27.1670   41.9370 N   0  0  0  0  0  0  0  0  0  0  0  0
   40.3800   27.2270   42.0080 H   0  0  0  0  0  0  0  0  0  0  0  0
   38.9960   25.8530   41.4530 C   0  0  0  0  0  2  0  0  0  0  0  0
   37.5970   25.4300   41.7230 C   0  0  0  0  0  2  0  0  0  0  0  0
  1  5  2  0  0  0  0
  2  1  1  0  0  0  0
  2  3  2  0  0  0  0
  3  4  1  0  0  0  0
  5  4  1  0  0  0  0
  6  2  1  0  0  0  0
  7  3  1  0  0  0  0
  8 13  2  0  0  0  0
  8  9  1  0  0  0  0
  9 10  2  0  0  0  0
 10 11  1  0  0  0  0
 10 16  1  0  0  0  0
 12  1  1  0  0  0  0
 12 11  2  0  0  0  0
 13 12  1  0  0  0  0
 14  8  1  0  0  0  0
 15  9  1  0  0  0  0
 18 19  1  0  0  0  0
 18 17  1  0  0  0  0
 19  4  1  6  0  0  0
 19 20  1  0  0  0  0
 20 21  1  0  0  0  0
 22 23  1  0  0  0  0
 22 20  1  0  0  0  0
 24 25  1  0  0  0  0
 24 22  1  0  0  0  0
 25 18  1  0  0  0  0
M  END
>  <minimizedAffinity>
-4.66831732

$$$$

 OpenBabel03242520033D

 25 27  0  0  1  0  0  0  0  0999 V2000
   37.1340   26.3810   40.9160 C   0  0  0  0  0  0  0  0  0  0  0  0
   37.2650   26.9290   42.1770 C   0  0  0  0  0  0  0  0  0  0  0  0
   36.6170   28.1240   42.1830 C   0  0  0  0  0  0  0  0  0  0  0  0
   36.1000   28.3000   40.9460 N   0  0  0  0  0  0  0  0  0  0  0  0
   36.4200   27.2410   40.1940 N   0  0  0  0  0  0  0  0  0  0  0  0
   37.8130   26.4230   42.9770 H   0  0  0  0  0  0  0  0  0  0  0  0
   36.5280   28.8070   43.0120 H   0  0  0  0  0  0  0  0  0  0  0  0
   39.3640   23.8450   39.4490 C   0  0  0  0  0  0  0  0  0  0  0  0
   38.6530   22.6460   39.6630 C   0  0  0  0  0  0  0  0  0  0  0  0
   37.4110   22.7360   40.3130 C   0  0  0  0  0  0  0  0  0  0  0  0
   36.9760   23.9640   40.6920 N   0  0  0  0  0  0  0  0  0  0  0  0
   37.6820   25.0980   40.4730 C   0  0  0  0  0  0  0  0  0  0  0  0
   38.8750   25.0410   39.8510 N   0  0  0  0  0  0  0  0  0  0  0  0
   40.3240   23.8010   38.9500 H   0  0  0  0  0  0  0  0  0  0  0  0
   39.0590   21.7040   39.3350 H   0  0  0  0  0  0  0  0  0  0  0  0
   36.8280   21.8380   40.4990 H   0  0  0  0  0  0  0  0  0  0  0  0
   34.7160   31.1810   41.2380 H   0  0  0  0  0  0  0  0  0  0  0  0
   35.5650   30.6280   41.0820 N   0  0  0  0  0  0  0  0  0  0  0  0
   35.3270   29.3990   40.4340 C   0  0  1  0  0  3  0  0  0  0  0  0
   35.6900   29.5290   38.9680 C   0  0  0  0  0  3  0  0  0  0  0  0
   35.1090   30.2750   38.4220 H   0  0  0  0  0  0  0  0  0  0  0  0
   37.1290   29.7610   38.9490 N   0  0  0  0  0  0  0  0  0  0  0  0
   37.4310   29.7810   37.9380 H   0  0  0  0  0  0  0  0  0  0  0  0
   37.4720   31.0310   39.5350 C   0  0  0  0  0  2  0  0  0  0  0  0
   36.7300   31.3580   40.7810 C   0  0  0  0  0  2  0  0  0  0  0  0
  1  2  1  0  0  0  0
  2  3  2  0  0  0  0
  2  6  1  0  0  0  0
  3  7  1  0  0  0  0
  4  3  1  0  0  0  0
  5  1  2  0  0  0  0
  5  4  1  0  0  0  0
  8  9  2  0  0  0  0
  8 13  1  0  0  0  0
  9 10  1  0  0  0  0
 10 16  1  0  0  0  0
 10 11  2  0  0  0  0
 12 11  1  0  0  0  0
 12  1  1  0  0  0  0
 13 12  2  0  0  0  0
 14  8  1  0  0  0  0
 15  9  1  0  0  0  0
 18 17  1  0  0  0  0
 19  4  1  1  0  0  0
 19 18  1  0  0  0  0
 20 19  1  0  0  0  0
 21 20  1  0  0  0  0
 22 20  1  0  0  0  0
 22 24  1  0  0  0  0
 23 22  1  0  0  0  0
 24 25  1  0  0  0  0
 25 18  1  0  0  0  0
M  END
>  <minimizedAffinity>
-4.64126396

$$$$

 OpenBabel03242520033D

 25 27  0  0  1  0  0  0  0  0999 V2000
   39.1090   31.4810   38.4320 C   0  0  0  0  0  0  0  0  0  0  0  0
   37.9280   31.6240   37.7300 C   0  0  0  0  0  0  0  0  0  0  0  0
   36.8990   31.4540   38.6020 C   0  0  0  0  0  0  0  0  0  0  0  0
   37.4450   31.2130   39.8160 N   0  0  0  0  0  0  0  0  0  0  0  0
   38.7770   31.2320   39.6960 N   0  0  0  0  0  0  0  0  0  0  0  0
   37.9110   31.8360   36.6570 H   0  0  0  0  0  0  0  0  0  0  0  0
   35.8460   31.5030   38.3780 H   0  0  0  0  0  0  0  0  0  0  0  0
   42.3070   32.8610   37.2400 C   0  0  0  0  0  0  0  0  0  0  0  0
   43.0060   31.7100   36.8250 C   0  0  0  0  0  0  0  0  0  0  0  0
   42.3570   30.4720   36.9640 C   0  0  0  0  0  0  0  0  0  0  0  0
   41.1060   30.4620   37.4870 N   0  0  0  0  0  0  0  0  0  0  0  0
   40.4590   31.5850   37.8780 C   0  0  0  0  0  0  0  0  0  0  0  0
   41.0580   32.7860   37.7540 N   0  0  0  0  0  0  0  0  0  0  0  0
   42.7870   33.8270   37.1430 H   0  0  0  0  0  0  0  0  0  0  0  0
   43.9990   31.7910   36.4160 H   0  0  0  0  0  0  0  0  0  0  0  0
   42.8570   29.5580   36.6560 H   0  0  0  0  0  0  0  0  0  0  0  0
   34.8250   30.9080   41.6430 H   0  0  0  0  0  0  0  0  0  0  0  0
   35.4650   30.5000   40.9550 N   0  0  0  0  0  0  0  0  0  0  0  0
   36.7910   30.9670   41.0720 C   0  0  1  0  0  3  0  0  0  0  0  0
   37.6260   29.9270   41.7910 C   0  0  0  0  0  3  0  0  0  0  0  0
   37.2940   29.7030   42.8080 H   0  0  0  0  0  0  0  0  0  0  0  0
   37.6470   28.7720   40.9020 N   0  0  0  0  0  0  0  0  0  0  0  0
   38.2840   28.0520   41.3370 H   0  0  0  0  0  0  0  0  0  0  0  0
   36.3420   28.1790   40.7680 C   0  0  0  0  0  2  0  0  0  0  0  0
   35.2310   29.1550   40.6140 C   0  0  0  0  0  2  0  0  0  0  0  0
  1  5  2  0  0  0  0
  2  1  1  0  0  0  0
  2  3  2  0  0  0  0
  3  4  1  0  0  0  0
  5  4  1  0  0  0  0
  6  2  1  0  0  0  0
  7  3  1  0  0  0  0
  8 13  1  0  0  0  0
  9 10  1  0  0  0  0
  9  8  2  0  0  0  0
 10 11  2  0  0  0  0
 11 12  1  0  0  0  0
 12  1  1  0  0  0  0
 13 12  2  0  0  0  0
 14  8  1  0  0  0  0
 15  9  1  0  0  0  0
 16 10  1  0  0  0  0
 18 19  1  0  0  0  0
 18 17  1  0  0  0  0
 19  4  1  6  0  0  0
 19 20  1  0  0  0  0
 20 21  1  0  0  0  0
 22 23  1  0  0  0  0
 22 20  1  0  0  0  0
 24 22  1  0  0  0  0
 25 24  1  0  0  0  0
 25 18  1  0  0  0  0
M  END
>  <minimizedAffinity>
-4.63154697

$$$$

 OpenBabel03242520033D

 25 27  0  0  1  0  0  0  0  0999 V2000
   37.5800   29.1680   41.5740 C   0  0  0  0  0  0  0  0  0  0  0  0
   36.2860   29.0930   41.0970 C   0  0  0  0  0  0  0  0  0  0  0  0
   35.9630   30.3040   40.5730 C   0  0  0  0  0  0  0  0  0  0  0  0
   37.0420   31.1030   40.7260 N   0  0  0  0  0  0  0  0  0  0  0  0
   38.0090   30.4040   41.3310 N   0  0  0  0  0  0  0  0  0  0  0  0
   35.6910   28.1770   41.1700 H   0  0  0  0  0  0  0  0  0  0  0  0
   35.0260   30.5830   40.1180 H   0  0  0  0  0  0  0  0  0  0  0  0
   40.0730   27.3420   43.5760 C   0  0  0  0  0  0  0  0  0  0  0  0
   39.6820   25.9990   43.4070 C   0  0  0  0  0  0  0  0  0  0  0  0
   38.5600   25.7460   42.6010 C   0  0  0  0  0  0  0  0  0  0  0  0
   37.9260   26.8050   42.0390 N   0  0  0  0  0  0  0  0  0  0  0  0
   38.3250   28.0860   42.2200 C   0  0  0  0  0  0  0  0  0  0  0  0
   39.3980   28.3570   42.9870 N   0  0  0  0  0  0  0  0  0  0  0  0
   40.9350   27.5620   44.1940 H   0  0  0  0  0  0  0  0  0  0  0  0
   40.2340   25.2050   43.8840 H   0  0  0  0  0  0  0  0  0  0  0  0
   38.2230   24.7250   42.4420 H   0  0  0  0  0  0  0  0  0  0  0  0
   38.2310   34.0510   41.1690 H   0  0  0  0  0  0  0  0  0  0  0  0
   38.3770   33.0840   40.8610 N   0  0  0  0  0  0  0  0  0  0  0  0
   37.2170   32.4770   40.3390 C   0  0  1  0  0  3  0  0  0  0  0  0
   37.2850   32.4880   38.8250 C   0  0  0  0  0  3  0  0  0  0  0  0
   37.3290   33.4860   38.3810 H   0  0  0  0  0  0  0  0  0  0  0  0
   38.4160   31.6330   38.4870 N   0  0  0  0  0  0  0  0  0  0  0  0
   38.4480   31.5560   37.4350 H   0  0  0  0  0  0  0  0  0  0  0  0
   39.6640   32.2020   38.9230 C   0  0  0  0  0  2  0  0  0  0  0  0
   39.6290   32.8020   40.2830 C   0  0  0  0  0  2  0  0  0  0  0  0
  1 12  1  0  0  0  0
  2  6  1  0  0  0  0
  2  1  1  0  0  0  0
  3  4  1  0  0  0  0
  3  2  2  0  0  0  0
  4  5  1  0  0  0  0
  5  1  2  0  0  0  0
  7  3  1  0  0  0  0
  8 14  1  0  0  0  0
  9  8  1  0  0  0  0
  9 15  1  0  0  0  0
 10  9  2  0  0  0  0
 11 12  2  0  0  0  0
 11 10  1  0  0  0  0
 12 13  1  0  0  0  0
 13  8  2  0  0  0  0
 16 10  1  0  0  0  0
 18 17  1  0  0  0  0
 19  4  1  1  0  0  0
 19 18  1  0  0  0  0
 20 19  1  0  0  0  0
 21 20  1  0  0  0  0
 22 20  1  0  0  0  0
 22 24  1  0  0  0  0
 23 22  1  0  0  0  0
 24 25  1  0  0  0  0
 25 18  1  0  0  0  0
M  END
>  <minimizedAffinity>
-4.62968206

$$$$

 OpenBabel03242520033D

 25 27  0  0  1  0  0  0  0  0999 V2000
   37.1110   27.7160   41.3330 C   0  0  0  0  0  0  0  0  0  0  0  0
   37.4940   28.4620   42.4310 C   0  0  0  0  0  0  0  0  0  0  0  0
   37.2470   29.7700   42.1540 C   0  0  0  0  0  0  0  0  0  0  0  0
   36.7210   29.8190   40.9090 N   0  0  0  0  0  0  0  0  0  0  0  0
   36.6460   28.5730   40.4270 N   0  0  0  0  0  0  0  0  0  0  0  0
   37.9150   28.0010   43.3280 H   0  0  0  0  0  0  0  0  0  0  0  0
   37.4310   30.6130   42.7990 H   0  0  0  0  0  0  0  0  0  0  0  0
   36.7730   24.2860   40.0370 C   0  0  0  0  0  0  0  0  0  0  0  0
   37.4170   23.5160   41.0260 C   0  0  0  0  0  0  0  0  0  0  0  0
   37.9580   24.1980   42.1280 C   0  0  0  0  0  0  0  0  0  0  0  0
   37.8280   25.5480   42.1710 N   0  0  0  0  0  0  0  0  0  0  0  0
   37.2050   26.2610   41.2040 C   0  0  0  0  0  0  0  0  0  0  0  0
   36.6760   25.6320   40.1370 N   0  0  0  0  0  0  0  0  0  0  0  0
   36.3480   23.7830   39.1770 H   0  0  0  0  0  0  0  0  0  0  0  0
   37.4830   22.4460   40.9280 H   0  0  0  0  0  0  0  0  0  0  0  0
   38.4630   23.6450   42.9160 H   0  0  0  0  0  0  0  0  0  0  0  0
   36.1140   32.9540   40.5920 H   0  0  0  0  0  0  0  0  0  0  0  0
   36.8000   32.1920   40.6140 N   0  0  0  0  0  0  0  0  0  0  0  0
   36.2890   30.9620   40.1510 C   0  0  1  0  0  3  0  0  0  0  0  0
   36.7560   30.7310   38.7270 C   0  0  0  0  0  3  0  0  0  0  0  0
   36.4200   31.4850   38.0120 H   0  0  0  0  0  0  0  0  0  0  0  0
   38.2050   30.5970   38.8170 N   0  0  0  0  0  0  0  0  0  0  0  0
   38.5590   30.3590   37.8520 H   0  0  0  0  0  0  0  0  0  0  0  0
   38.8300   31.8290   39.2220 C   0  0  0  0  0  2  0  0  0  0  0  0
   38.1290   32.5470   40.3190 C   0  0  0  0  0  2  0  0  0  0  0  0
  1  2  1  0  0  0  0
  2  6  1  0  0  0  0
  3  2  2  0  0  0  0
  3  7  1  0  0  0  0
  4  3  1  0  0  0  0
  5  4  1  0  0  0  0
  5  1  2  0  0  0  0
  8 13  2  0  0  0  0
  8  9  1  0  0  0  0
  9 10  2  0  0  0  0
 10 11  1  0  0  0  0
 10 16  1  0  0  0  0
 12  1  1  0  0  0  0
 12 11  2  0  0  0  0
 13 12  1  0  0  0  0
 14  8  1  0  0  0  0
 15  9  1  0  0  0  0
 17 18  1  0  0  0  0
 19 18  1  0  0  0  0
 19  4  1  1  0  0  0
 20 22  1  0  0  0  0
 20 19  1  0  0  0  0
 21 20  1  0  0  0  0
 22 24  1  0  0  0  0
 23 22  1  0  0  0  0
 24 25  1  0  0  0  0
 25 18  1  0  0  0  0
M  END
>  <minimizedAffinity>
-4.62203407

$$$$

 OpenBabel03242520033D

 25 27  0  0  1  0  0  0  0  0999 V2000
   39.0470   30.6990   40.1160 C   0  0  0  0  0  0  0  0  0  0  0  0
   37.6880   30.9500   40.1410 C   0  0  0  0  0  0  0  0  0  0  0  0
   37.1930   30.4560   41.3070 C   0  0  0  0  0  0  0  0  0  0  0  0
   38.2320   29.9140   41.9810 N   0  0  0  0  0  0  0  0  0  0  0  0
   39.3420   30.0680   41.2500 N   0  0  0  0  0  0  0  0  0  0  0  0
   37.1770   31.4640   39.3220 H   0  0  0  0  0  0  0  0  0  0  0  0
   36.1680   30.4870   41.6380 H   0  0  0  0  0  0  0  0  0  0  0  0
   40.9870   32.6670   37.6840 C   0  0  0  0  0  0  0  0  0  0  0  0
   41.7300   31.6780   37.0080 C   0  0  0  0  0  0  0  0  0  0  0  0
   41.5470   30.3440   37.4060 C   0  0  0  0  0  0  0  0  0  0  0  0
   40.6710   30.0920   38.4100 N   0  0  0  0  0  0  0  0  0  0  0  0
   39.9710   31.0630   39.0420 C   0  0  0  0  0  0  0  0  0  0  0  0
   40.1270   32.3510   38.6800 N   0  0  0  0  0  0  0  0  0  0  0  0
   41.1120   33.7030   37.3960 H   0  0  0  0  0  0  0  0  0  0  0  0
   42.4090   31.9500   36.2170 H   0  0  0  0  0  0  0  0  0  0  0  0
   42.0980   29.5480   36.9120 H   0  0  0  0  0  0  0  0  0  0  0  0
   36.7920   28.8980   44.6620 H   0  0  0  0  0  0  0  0  0  0  0  0
   36.9890   28.7570   43.6660 N   0  0  0  0  0  0  0  0  0  0  0  0
   38.2420   29.2640   43.2630 C   0  0  1  0  0  3  0  0  0  0  0  0
   39.2320   28.1210   43.1540 C   0  0  0  0  0  3  0  0  0  0  0  0
   39.4100   27.5860   44.0900 H   0  0  0  0  0  0  0  0  0  0  0  0
   38.7310   27.2830   42.0720 N   0  0  0  0  0  0  0  0  0  0  0  0
   39.4370   26.5150   41.9170 H   0  0  0  0  0  0  0  0  0  0  0  0
   37.4770   26.6620   42.4150 C   0  0  0  0  0  2  0  0  0  0  0  0
   36.5120   27.5580   43.1050 C   0  0  0  0  0  2  0  0  0  0  0  0
  1  2  1  0  0  0  0
  1  5  2  0  0  0  0
  2  3  2  0  0  0  0
  3  7  1  0  0  0  0
  3  4  1  0  0  0  0
  5  4  1  0  0  0  0
  6  2  1  0  0  0  0
  8 13  1  0  0  0  0
  9 10  1  0  0  0  0
  9  8  2  0  0  0  0
 10 11  2  0  0  0  0
 11 12  1  0  0  0  0
 12  1  1  0  0  0  0
 13 12  2  0  0  0  0
 14  8  1  0  0  0  0
 15  9  1  0  0  0  0
 16 10  1  0  0  0  0
 18 17  1  0  0  0  0
 19  4  1  6  0  0  0
 19 18  1  0  0  0  0
 20 19  1  0  0  0  0
 20 21  1  0  0  0  0
 22 24  1  0  0  0  0
 22 20  1  0  0  0  0
 23 22  1  0  0  0  0
 24 25  1  0  0  0  0
 25 18  1  0  0  0  0
M  END
>  <minimizedAffinity>
-4.45364571

$$$$

 OpenBabel03242520033D

 25 27  0  0  1  0  0  0  0  0999 V2000
   38.9680   29.8320   42.0280 C   0  0  0  0  0  0  0  0  0  0  0  0
   40.2190   30.1620   42.5120 C   0  0  0  0  0  0  0  0  0  0  0  0
   40.4710   31.4540   42.1760 C   0  0  0  0  0  0  0  0  0  0  0  0
   39.3900   31.9050   41.4990 N   0  0  0  0  0  0  0  0  0  0  0  0
   38.4940   30.9160   41.4180 N   0  0  0  0  0  0  0  0  0  0  0  0
   40.8370   29.4450   43.0610 H   0  0  0  0  0  0  0  0  0  0  0  0
   41.3590   32.0200   42.4020 H   0  0  0  0  0  0  0  0  0  0  0  0
   38.0730   26.2900   41.5720 C   0  0  0  0  0  0  0  0  0  0  0  0
   37.0070   26.1210   42.4790 C   0  0  0  0  0  0  0  0  0  0  0  0
   36.6150   27.2380   43.2350 C   0  0  0  0  0  0  0  0  0  0  0  0
   37.2830   28.4030   43.0460 N   0  0  0  0  0  0  0  0  0  0  0  0
   38.3040   28.5360   42.1670 C   0  0  0  0  0  0  0  0  0  0  0  0
   38.7000   27.4810   41.4290 N   0  0  0  0  0  0  0  0  0  0  0  0
   38.3940   25.4430   40.9790 H   0  0  0  0  0  0  0  0  0  0  0  0
   36.5210   25.1650   42.5780 H   0  0  0  0  0  0  0  0  0  0  0  0
   35.7980   27.1540   43.9460 H   0  0  0  0  0  0  0  0  0  0  0  0
   40.1770   34.9760   41.0000 H   0  0  0  0  0  0  0  0  0  0  0  0
   40.3150   33.9870   40.7670 N   0  0  0  0  0  0  0  0  0  0  0  0
   39.1540   33.2030   40.9280 C   0  0  1  0  0  3  0  0  0  0  0  0
   38.5200   32.9640   39.5720 C   0  0  0  0  0  3  0  0  0  0  0  0
   38.2020   33.8720   39.0540 H   0  0  0  0  0  0  0  0  0  0  0  0
   39.4890   32.1630   38.8340 N   0  0  0  0  0  0  0  0  0  0  0  0
   39.0490   31.9120   37.9080 H   0  0  0  0  0  0  0  0  0  0  0  0
   40.6940   32.9020   38.5600 C   0  0  0  0  0  2  0  0  0  0  0  0
   41.1900   33.7190   39.6990 C   0  0  0  0  0  2  0  0  0  0  0  0
  1 12  1  0  0  0  0
  1  2  1  0  0  0  0
  2  6  1  0  0  0  0
  3  7  1  0  0  0  0
  3  2  2  0  0  0  0
  4  3  1  0  0  0  0
  5  4  1  0  0  0  0
  5  1  2  0  0  0  0
  8  9  1  0  0  0  0
  9 15  1  0  0  0  0
  9 10  2  0  0  0  0
 10 16  1  0  0  0  0
 11 10  1  0  0  0  0
 12 11  2  0  0  0  0
 13  8  2  0  0  0  0
 13 12  1  0  0  0  0
 14  8  1  0  0  0  0
 18 19  1  0  0  0  0
 18 17  1  0  0  0  0
 19  4  1  6  0  0  0
 20 19  1  0  0  0  0
 21 20  1  0  0  0  0
 22 20  1  0  0  0  0
 23 22  1  0  0  0  0
 24 22  1  0  0  0  0
 24 25  1  0  0  0  0
 25 18  1  0  0  0  0
M  END
>  <minimizedAffinity>
-4.43417978

$$$$
