
 OpenBabel03252509253D

 30 32  0  0  1  0  0  0  0  0999 V2000
   47.0750   35.1940   41.7600 C   0  0  1  0  0  0  0  0  0  0  0  0
   48.5580   35.6310   41.8580 C   0  0  0  0  0  0  0  0  0  0  0  0
   48.0250   34.4090   41.0820 C   0  0  2  0  0  0  0  0  0  0  0  0
   46.4840   35.9780   41.2780 H   0  0  0  0  0  0  0  0  0  0  0  0
   49.0960   35.4890   42.7960 H   0  0  0  0  0  0  0  0  0  0  0  0
   48.9140   36.4290   41.1960 H   0  0  0  0  0  0  0  0  0  0  0  0
   48.4810   33.4660   41.4930 H   0  0  0  0  0  0  0  0  0  0  0  0
   45.0010   34.8380   44.8600 C   0  0  0  0  0  0  0  0  0  0  0  0
   45.4660   35.3590   43.6230 C   0  0  0  0  0  0  0  0  0  0  0  0
   46.5550   34.7370   43.0950 C   0  0  0  0  0  0  0  0  0  0  0  0
   47.1520   33.6790   43.7300 N   0  0  0  0  0  0  0  0  0  0  0  0
   46.6790   33.2150   44.9050 C   0  0  0  0  0  0  0  0  0  0  0  0
   45.5940   33.8030   45.4670 N   0  0  0  0  0  0  0  0  0  0  0  0
   44.1320   35.2940   45.3300 H   0  0  0  0  0  0  0  0  0  0  0  0
   47.2710   32.3800   45.2560 H   0  0  0  0  0  0  0  0  0  0  0  0
   44.8490   36.4760   43.0020 N   0  0  0  0  0  0  0  0  0  0  0  0
   44.2260   36.5340   42.1720 H   0  0  0  0  0  0  0  0  0  0  0  0
   45.1970   37.2570   43.6220 H   0  0  0  0  0  0  0  0  0  0  0  0
   48.1080   34.4220   39.5700 C   0  0  0  0  0  0  0  0  0  0  0  0
   49.0920   34.7290   39.1990 H   0  0  0  0  0  0  0  0  0  0  0  0
   47.4050   35.2420   39.2380 H   0  0  0  0  0  0  0  0  0  0  0  0
   47.5670   33.2200   39.0320 N   0  0  0  0  0  0  0  0  0  0  0  0
   48.4340   32.0790   39.0770 C   0  0  0  0  0  3  0  0  0  0  0  0
   47.8240   31.2300   38.6450 H   0  0  0  0  0  0  0  0  0  0  0  0
   49.6470   32.1880   38.2040 C   0  0  0  0  0  3  0  0  0  0  0  0
   49.8120   31.2700   37.5790 H   0  0  0  0  0  0  0  0  0  0  0  0
   49.6810   33.3340   37.3530 N   0  0  0  0  0  0  0  0  0  0  0  0
   50.3390   33.1190   36.5560 H   0  0  0  0  0  0  0  0  0  0  0  0
   48.4230   33.7380   36.8030 C   0  0  0  0  0  2  0  0  0  0  0  0
   47.2240   33.4160   37.6280 C   0  0  0  0  0  2  0  0  0  0  0  0
  1  4  1  6  0  0  0
  1  2  1  0  0  0  0
  1 10  1  0  0  0  0
  2  5  1  0  0  0  0
  3  7  1  1  0  0  0
  3  1  1  0  0  0  0
  3  2  1  0  0  0  0
  6  2  1  0  0  0  0
  8 14  1  0  0  0  0
  8 13  1  0  0  0  0
  9  8  2  0  0  0  0
 10  9  1  0  0  0  0
 10 11  2  0  0  0  0
 11 12  1  0  0  0  0
 12 15  1  0  0  0  0
 12 13  2  0  0  0  0
 16 18  1  0  0  0  0
 16  9  1  0  0  0  0
 17 16  1  0  0  0  0
 19  3  1  0  0  0  0
 20 19  1  0  0  0  0
 21 19  1  0  0  0  0
 22 23  1  0  0  0  0
 22 19  1  0  0  0  0
 24 23  1  0  0  0  0
 25 23  1  0  0  0  0
 26 25  1  0  0  0  0
 27 25  1  0  0  0  0
 28 27  1  0  0  0  0
 29 27  1  0  0  0  0
 29 30  1  0  0  0  0
 30 22  1  0  0  0  0
M  END
>  <minimizedAffinity>
-5.1715641

>  <minimizedRMSD>
1.58576751

$$$$
