REMARK  Name = 
REMARK  10 active torsions:
REMARK  status: ('A' for Active; 'I' for Inactive)
REMARK    1  A    between atoms: C_1  and  C_9
REMARK    2  A    between atoms: C_2  and  C_13
REMARK    3  A    between atoms: C_13  and  N_14
REMARK    4  A    between atoms: N_14  and  S_15
REMARK    5  A    between atoms: S_15  and  O_16
REMARK    6  A    between atoms: S_15  and  O_17
REMARK    7  A    between atoms: S_15  and  O_18
REMARK    8  A    between atoms: O_18  and  C_19
REMARK    9  A    between atoms: C_19  and  C_20
REMARK   10  A    between atoms: C_20  and  N_37
REMARK                            x       y       z     vdW  Elec       q    Type
REMARK                         _______ _______ _______ _____ _____    ______ ____
ROOT
ATOM      1  N   UNL     1      42.703  31.515  42.580  0.00  0.00    +0.000 NA
ATOM      2  H   UNL     1      43.029  31.725  43.541  0.00  0.00    +0.000 HD
ENDROOT
BRANCH   1   3
ATOM      3  C   UNL     1      43.046  32.543  41.631  0.00  0.00    +0.000 C 
ATOM      4  H   UNL     1      43.544  32.163  40.717  0.00  0.00    +0.000 HD
ATOM      5  H   UNL     1      42.090  33.018  41.283  0.00  0.00    +0.000 HD
BRANCH   3   7
ATOM      6  C   UNL     1      43.654  34.962  41.877  0.00  0.00    +0.000 A 
ATOM      7  C   UNL     1      43.914  33.626  42.187  0.00  0.00    +0.000 A 
ATOM      8  C   UNL     1      44.970  33.340  43.003  0.00  0.00    +0.000 A 
ATOM      9  C   UNL     1      45.757  34.336  43.507  0.00  0.00    +0.000 A 
ATOM     10  C   UNL     1      45.525  35.656  43.221  0.00  0.00    +0.000 A 
ATOM     11  C   UNL     1      44.446  35.920  42.389  0.00  0.00    +0.000 A 
ATOM     12  H   UNL     1      45.219  32.315  43.275  0.00  0.00    +0.000 HD
ATOM     13  H   UNL     1      46.605  34.151  44.160  0.00  0.00    +0.000 HD
ATOM     14  H   UNL     1      46.126  36.477  43.602  0.00  0.00    +0.000 HD
ATOM     15  H   UNL     1      44.198  36.940  42.116  0.00  0.00    +0.000 HD
BRANCH   6  18
ATOM     16  C   UNL     1      40.227  35.803  40.514  0.00  0.00    +0.000 A 
ATOM     17  C   UNL     1      41.257  35.586  41.456  0.00  0.00    +0.000 A 
ATOM     18  C   UNL     1      42.515  35.213  40.999  0.00  0.00    +0.000 A 
ATOM     19  N   UNL     1      42.681  35.079  39.664  0.00  0.00    +0.000 NA
ATOM     20  C   UNL     1      41.686  35.290  38.774  0.00  0.00    +0.000 A 
ATOM     21  N   UNL     1      40.473  35.649  39.213  0.00  0.00    +0.000 NA
ATOM     22  H   UNL     1      39.286  36.088  40.966  0.00  0.00    +0.000 HD
ATOM     23  H   UNL     1      41.170  35.681  42.529  0.00  0.00    +0.000 HD
ATOM     24  H   UNL     1      41.806  35.187  37.705  0.00  0.00    +0.000 HD
ENDBRANCH   6  18
ENDBRANCH   3   7
ENDBRANCH   1   3
BRANCH   1  25
ATOM     25  S   UNL     1      41.032  31.141  42.560  0.00  0.00    +0.000 S 
BRANCH  25  26
ATOM     26  O   UNL     1      40.198  32.390  42.462  0.00  0.00    +0.000 OA
ATOM     27  H   UNL     1      39.648  32.624  41.680  0.00  0.00    +0.000 HD
ENDBRANCH  25  26
BRANCH  25  28
ATOM     28  O   UNL     1      40.650  30.359  43.769  0.00  0.00    +0.000 OA
ATOM     29  H   UNL     1      40.184  30.813  44.535  0.00  0.00    +0.000 HD
ENDBRANCH  25  28
BRANCH  25  30
ATOM     30  O   UNL     1      40.758  30.190  41.212  0.00  0.00    +0.000 OA
BRANCH  30  31
ATOM     31  C   UNL     1      40.074  29.049  41.594  0.00  0.00    +0.000 C 
ATOM     32  H   UNL     1      39.156  28.969  40.972  0.00  0.00    +0.000 HD
ATOM     33  H   UNL     1      39.773  29.017  42.641  0.00  0.00    +0.000 HD
BRANCH  31  34
ATOM     34  C   UNL     1      40.928  27.829  41.218  0.00  0.00    +0.000 C 
ATOM     35  H   UNL     1      41.883  27.991  41.780  0.00  0.00    +0.000 HD
ATOM     36  H   UNL     1      41.203  27.876  40.158  0.00  0.00    +0.000 HD
BRANCH  34  37
ATOM     37  N   UNL     1      40.384  26.593  41.536  0.00  0.00    +0.000 NA
ATOM     38  C   UNL     1      40.514  25.484  40.698  0.00  0.00    +0.000 C 
ATOM     39  H   UNL     1      41.545  25.371  40.323  0.00  0.00    +0.000 HD
ATOM     40  C   UNL     1      40.202  24.230  41.514  0.00  0.00    +0.000 C 
ATOM     41  H   UNL     1      40.892  24.151  42.386  0.00  0.00    +0.000 HD
ATOM     42  N   UNL     1      38.841  24.236  42.010  0.00  0.00    +0.000 NA
ATOM     43  H   UNL     1      38.836  23.685  42.899  0.00  0.00    +0.000 HD
ATOM     44  C   UNL     1      38.389  25.568  42.350  0.00  0.00    +0.000 C 
ATOM     45  C   UNL     1      39.581  26.471  42.694  0.00  0.00    +0.000 C 
ENDBRANCH  34  37
ENDBRANCH  31  34
ENDBRANCH  30  31
ENDBRANCH  25  30
ENDBRANCH   1  25
TORSDOF 10
