
 OpenBabel03252508563D

 24 25  0  0  0  0  0  0  0  0999 V2000
   47.0220   34.8020   41.9630 C   0  0  0  0  0  0  0  0  0  0  0  0
   46.7110   33.9790   41.2910 H   0  0  0  0  0  0  0  0  0  0  0  0
   46.9050   35.7500   41.4020 H   0  0  0  0  0  0  0  0  0  0  0  0
   44.5180   36.0140   44.5230 C   0  0  0  0  0  0  0  0  0  0  0  0
   45.2900   35.9440   43.3340 C   0  0  0  0  0  0  0  0  0  0  0  0
   46.2040   34.9050   43.1850 C   0  0  0  0  0  0  0  0  0  0  0  0
   46.3020   34.0040   44.2120 N   0  0  0  0  0  0  0  0  0  0  0  0
   45.5570   34.0930   45.3310 C   0  0  0  0  0  0  0  0  0  0  0  0
   44.6810   35.0790   45.4850 N   0  0  0  0  0  0  0  0  0  0  0  0
   43.8120   36.8290   44.6220 H   0  0  0  0  0  0  0  0  0  0  0  0
   45.1410   36.6970   42.5860 H   0  0  0  0  0  0  0  0  0  0  0  0
   45.7650   33.2960   46.0370 H   0  0  0  0  0  0  0  0  0  0  0  0
   48.4760   34.6390   42.3670 C   0  0  0  0  0  0  0  0  0  0  0  0
   48.5620   34.6590   43.4680 H   0  0  0  0  0  0  0  0  0  0  0  0
   49.1000   35.3980   41.8530 H   0  0  0  0  0  0  0  0  0  0  0  0
   49.0160   33.3560   41.9080 N   0  0  0  0  0  0  0  0  0  0  0  0
   50.3990   33.3790   42.2690 C   0  0  0  0  0  0  0  0  0  0  0  0
   50.7960   34.4170   42.0970 H   0  0  0  0  0  0  0  0  0  0  0  0
   51.2560   32.3530   41.5930 C   0  0  0  0  0  0  0  0  0  0  0  0
   51.3050   31.4580   42.2460 H   0  0  0  0  0  0  0  0  0  0  0  0
   50.8610   32.0150   40.2600 N   0  0  0  0  0  0  0  0  0  0  0  0
   51.1970   32.6600   39.5370 H   0  0  0  0  0  0  0  0  0  0  0  0
   49.4390   31.8250   40.1480 C   0  0  0  0  0  0  0  0  0  0  0  0
   48.7820   33.1500   40.5040 C   0  0  0  0  0  0  0  0  0  0  0  0
  1 13  1  0  0  0  0
  1  6  1  0  0  0  0
  2  1  1  0  0  0  0
  3  1  1  0  0  0  0
  4 10  1  0  0  0  0
  4  9  1  0  0  0  0
  5  4  2  0  0  0  0
  6  5  1  0  0  0  0
  6  7  2  0  0  0  0
  7  8  1  0  0  0  0
  8  9  2  0  0  0  0
  8 12  1  0  0  0  0
 11  5  1  0  0  0  0
 13 14  1  0  0  0  0
 15 13  1  0  0  0  0
 16 17  1  0  0  0  0
 16 13  1  0  0  0  0
 18 17  1  0  0  0  0
 19 20  1  0  0  0  0
 19 17  1  0  0  0  0
 21 19  1  0  0  0  0
 22 21  1  0  0  0  0
 23 21  1  0  0  0  0
 23 24  1  0  0  0  0
 24 16  1  0  0  0  0
M  END
>  <minimizedAffinity>
-4.30783081

>  <minimizedRMSD>
2.48809004

$$$$
