
 OpenBabel03252501173D

 35 38  0  0  1  0  0  0  0  0999 V2000
   38.2240   31.4770   40.1580 C   0  0  1  0  0  0  0  0  0  0  0  0
   37.6420   32.1770   38.9940 C   0  0  0  0  0  0  0  0  0  0  0  0
   37.8270   32.8580   40.4080 C   0  0  2  0  0  0  0  0  0  0  0  0
   39.3050   31.2340   40.2090 H   0  0  0  0  0  0  0  0  0  0  0  0
   38.3450   32.4780   38.2120 H   0  0  0  0  0  0  0  0  0  0  0  0
   36.5750   32.0360   38.7170 H   0  0  0  0  0  0  0  0  0  0  0  0
   36.8860   33.0780   40.9150 H   0  0  0  0  0  0  0  0  0  0  0  0
   36.9300   28.6460   42.2700 C   0  0  0  0  0  0  0  0  0  0  0  0
   37.7790   29.6790   41.8650 C   0  0  0  0  0  0  0  0  0  0  0  0
   37.3930   30.3550   40.7080 C   0  0  0  0  0  0  0  0  0  0  0  0
   36.2680   30.0050   40.0460 N   0  0  0  0  0  0  0  0  0  0  0  0
   35.4800   28.9860   40.4920 C   0  0  0  0  0  0  0  0  0  0  0  0
   35.8250   28.3110   41.6100 N   0  0  0  0  0  0  0  0  0  0  0  0
   38.6800   29.9700   42.3820 H   0  0  0  0  0  0  0  0  0  0  0  0
   34.5740   28.6700   39.9950 H   0  0  0  0  0  0  0  0  0  0  0  0
   37.2970   27.8970   43.5130 C   0  0  0  0  0  0  0  0  0  0  0  0
   38.6620   27.7380   43.5250 F   0  0  0  0  0  0  0  0  0  0  0  0
   36.6980   26.6580   43.4520 F   0  0  0  0  0  0  0  0  0  0  0  0
   36.9500   28.6090   44.6430 F   0  0  0  0  0  0  0  0  0  0  0  0
   38.9280   33.8650   40.3980 C   0  0  0  0  0  0  0  0  0  0  0  0
   38.8230   35.2250   40.1170 C   0  0  0  0  0  0  0  0  0  0  0  0
   40.1280   35.6610   40.2610 C   0  0  0  0  0  0  0  0  0  0  0  0
   40.9530   34.6020   40.6100 C   0  0  0  0  0  0  0  0  0  0  0  0
   40.1610   33.5680   40.6700 O   0  0  0  0  0  0  0  0  0  0  0  0
   37.9240   35.7800   39.8520 H   0  0  0  0  0  0  0  0  0  0  0  0
   40.4480   36.6840   40.1190 H   0  0  0  0  0  0  0  0  0  0  0  0
   42.3520   34.7080   40.8370 N   0  0  0  0  0  0  0  0  0  0  0  0
   43.1510   35.2800   41.8950 C   0  0  0  0  0  3  0  0  0  0  0  0
   43.8700   36.0250   41.4730 H   0  0  0  0  0  0  0  0  0  0  0  0
   43.9880   34.1880   42.5210 C   0  0  0  0  0  3  0  0  0  0  0  0
   43.2900   33.5400   43.1040 H   0  0  0  0  0  0  0  0  0  0  0  0
   44.6720   33.3460   41.5750 N   0  0  0  0  0  0  0  0  0  0  0  0
   45.5220   33.7420   41.1630 H   0  0  0  0  0  0  0  0  0  0  0  0
   43.8290   32.8880   40.5000 C   0  0  0  0  0  2  0  0  0  0  0  0
   43.2850   34.1610   39.8420 C   0  0  0  0  0  2  0  0  0  0  0  0
  1  4  1  6  0  0  0
  1  3  1  0  0  0  0
  1 10  1  0  0  0  0
  2  1  1  0  0  0  0
  2  3  1  0  0  0  0
  3  7  1  1  0  0  0
  5  2  1  0  0  0  0
  6  2  1  0  0  0  0
  8 16  1  0  0  0  0
  9  8  1  0  0  0  0
  9 14  1  0  0  0  0
 10  9  2  0  0  0  0
 11 12  2  0  0  0  0
 11 10  1  0  0  0  0
 12 13  1  0  0  0  0
 13  8  2  0  0  0  0
 15 12  1  0  0  0  0
 16 17  1  0  0  0  0
 16 19  1  0  0  0  0
 18 16  1  0  0  0  0
 20  3  1  0  0  0  0
 20 24  1  0  0  0  0
 21 22  1  0  0  0  0
 21 20  2  0  0  0  0
 22 23  2  0  0  0  0
 23 24  1  0  0  0  0
 23 27  1  0  0  0  0
 25 21  1  0  0  0  0
 26 22  1  0  0  0  0
 27 28  1  0  0  0  0
 28 30  1  0  0  0  0
 29 28  1  0  0  0  0
 30 31  1  0  0  0  0
 32 30  1  0  0  0  0
 33 32  1  0  0  0  0
 34 32  1  0  0  0  0
 35 34  1  0  0  0  0
 35 27  1  0  0  0  0
M  END
>  <minimizedAffinity>
-6.40812349

$$$$

 OpenBabel03252501173D

 35 38  0  0  1  0  0  0  0  0999 V2000
   38.0590   30.9320   39.8330 C   0  0  1  0  0  0  0  0  0  0  0  0
   37.0510   31.7980   39.1850 C   0  0  0  0  0  0  0  0  0  0  0  0
   37.8100   32.1990   40.5120 C   0  0  2  0  0  0  0  0  0  0  0  0
   39.0620   30.7740   39.3870 H   0  0  0  0  0  0  0  0  0  0  0  0
   37.3690   32.3040   38.2700 H   0  0  0  0  0  0  0  0  0  0  0  0
   35.9640   31.6260   39.3420 H   0  0  0  0  0  0  0  0  0  0  0  0
   37.1660   32.2360   41.3920 H   0  0  0  0  0  0  0  0  0  0  0  0
   37.0950   28.1800   42.2090 C   0  0  0  0  0  0  0  0  0  0  0  0
   37.6170   29.4050   41.7870 C   0  0  0  0  0  0  0  0  0  0  0  0
   37.5230   29.6590   40.4190 C   0  0  0  0  0  0  0  0  0  0  0  0
   36.9590   28.7560   39.5850 N   0  0  0  0  0  0  0  0  0  0  0  0
   36.4660   27.5760   40.0590 C   0  0  0  0  0  0  0  0  0  0  0  0
   36.5410   27.3000   41.3790 N   0  0  0  0  0  0  0  0  0  0  0  0
   38.0700   30.1350   42.4380 H   0  0  0  0  0  0  0  0  0  0  0  0
   36.0100   26.8250   39.4310 H   0  0  0  0  0  0  0  0  0  0  0  0
   37.1640   27.8670   43.6710 C   0  0  0  0  0  0  0  0  0  0  0  0
   37.3180   29.0510   44.3510 F   0  0  0  0  0  0  0  0  0  0  0  0
   38.2730   27.0770   43.8810 F   0  0  0  0  0  0  0  0  0  0  0  0
   35.9930   27.2830   44.1100 F   0  0  0  0  0  0  0  0  0  0  0  0
   38.8150   33.2760   40.2720 C   0  0  0  0  0  0  0  0  0  0  0  0
   38.6270   34.6490   40.4070 C   0  0  0  0  0  0  0  0  0  0  0  0
   39.8690   35.1550   40.0710 C   0  0  0  0  0  0  0  0  0  0  0  0
   40.7400   34.1230   39.7550 C   0  0  0  0  0  0  0  0  0  0  0  0
   40.0340   33.0360   39.8980 O   0  0  0  0  0  0  0  0  0  0  0  0
   37.7150   35.1680   40.7040 H   0  0  0  0  0  0  0  0  0  0  0  0
   40.1160   36.2080   40.0590 H   0  0  0  0  0  0  0  0  0  0  0  0
   42.0970   34.2990   39.3700 N   0  0  0  0  0  0  0  0  0  0  0  0
   43.3570   34.1470   40.0580 C   0  0  0  0  0  3  0  0  0  0  0  0
   43.9460   35.0960   39.9940 H   0  0  0  0  0  0  0  0  0  0  0  0
   44.1760   33.0910   39.3520 C   0  0  0  0  0  3  0  0  0  0  0  0
   43.6930   32.1080   39.5690 H   0  0  0  0  0  0  0  0  0  0  0  0
   44.2320   33.2380   37.9210 N   0  0  0  0  0  0  0  0  0  0  0  0
   44.8790   33.9530   37.5740 H   0  0  0  0  0  0  0  0  0  0  0  0
   42.9440   33.4760   37.3180 C   0  0  0  0  0  2  0  0  0  0  0  0
   42.4040   34.7360   38.0020 C   0  0  0  0  0  2  0  0  0  0  0  0
  1  4  1  6  0  0  0
  1 10  1  0  0  0  0
  1  3  1  0  0  0  0
  2  6  1  0  0  0  0
  2  1  1  0  0  0  0
  2  3  1  0  0  0  0
  3  7  1  1  0  0  0
  5  2  1  0  0  0  0
  8 16  1  0  0  0  0
  9  8  1  0  0  0  0
  9 14  1  0  0  0  0
 10  9  2  0  0  0  0
 11 12  2  0  0  0  0
 11 10  1  0  0  0  0
 12 13  1  0  0  0  0
 13  8  2  0  0  0  0
 15 12  1  0  0  0  0
 16 18  1  0  0  0  0
 16 19  1  0  0  0  0
 16 17  1  0  0  0  0
 20 21  2  0  0  0  0
 20  3  1  0  0  0  0
 21 25  1  0  0  0  0
 22 21  1  0  0  0  0
 23 24  1  0  0  0  0
 23 22  2  0  0  0  0
 24 20  1  0  0  0  0
 26 22  1  0  0  0  0
 27 23  1  0  0  0  0
 27 28  1  0  0  0  0
 29 28  1  0  0  0  0
 30 31  1  0  0  0  0
 30 28  1  0  0  0  0
 32 30  1  0  0  0  0
 33 32  1  0  0  0  0
 34 32  1  0  0  0  0
 34 35  1  0  0  0  0
 35 27  1  0  0  0  0
M  END
>  <minimizedAffinity>
-6.34335804

$$$$

 OpenBabel03252501173D

 35 38  0  0  1  0  0  0  0  0999 V2000
   35.2840   28.7980   39.2460 C   0  0  1  0  0  0  0  0  0  0  0  0
   36.0960   29.6730   38.3740 C   0  0  0  0  0  0  0  0  0  0  0  0
   35.2570   28.4480   37.8300 C   0  0  2  0  0  0  0  0  0  0  0  0
   34.3400   29.1520   39.7080 H   0  0  0  0  0  0  0  0  0  0  0  0
   35.6890   30.6680   38.1780 H   0  0  0  0  0  0  0  0  0  0  0  0
   37.1930   29.5240   38.2770 H   0  0  0  0  0  0  0  0  0  0  0  0
   35.8710   27.6290   37.4520 H   0  0  0  0  0  0  0  0  0  0  0  0
   37.0630   27.5090   42.2990 C   0  0  0  0  0  0  0  0  0  0  0  0
   36.3110   28.3800   41.5080 C   0  0  0  0  0  0  0  0  0  0  0  0
   36.0680   27.9490   40.2040 C   0  0  0  0  0  0  0  0  0  0  0  0
   36.5450   26.7620   39.7680 N   0  0  0  0  0  0  0  0  0  0  0  0
   37.2740   25.9540   40.5900 C   0  0  0  0  0  0  0  0  0  0  0  0
   37.5270   26.3430   41.8590 N   0  0  0  0  0  0  0  0  0  0  0  0
   35.9240   29.3310   41.8410 H   0  0  0  0  0  0  0  0  0  0  0  0
   37.6760   25.0000   40.2850 H   0  0  0  0  0  0  0  0  0  0  0  0
   37.3420   27.9240   43.7100 C   0  0  0  0  0  0  0  0  0  0  0  0
   38.4150   27.1940   44.1630 F   0  0  0  0  0  0  0  0  0  0  0  0
   36.2330   27.6150   44.4680 F   0  0  0  0  0  0  0  0  0  0  0  0
   37.6870   29.2580   43.7770 F   0  0  0  0  0  0  0  0  0  0  0  0
   34.0530   28.8950   37.0710 C   0  0  0  0  0  0  0  0  0  0  0  0
   33.9300   29.0340   35.6910 C   0  0  0  0  0  0  0  0  0  0  0  0
   32.6230   29.4620   35.5490 C   0  0  0  0  0  0  0  0  0  0  0  0
   32.0130   29.5670   36.7900 C   0  0  0  0  0  0  0  0  0  0  0  0
   32.9330   29.2130   37.6440 O   0  0  0  0  0  0  0  0  0  0  0  0
   34.6920   28.8460   34.9350 H   0  0  0  0  0  0  0  0  0  0  0  0
   32.1520   29.6810   34.6000 H   0  0  0  0  0  0  0  0  0  0  0  0
   30.6680   29.9780   36.9980 N   0  0  0  0  0  0  0  0  0  0  0  0
   29.5140   29.3490   37.5950 C   0  0  0  0  0  3  0  0  0  0  0  0
   28.6630   29.3420   36.8680 H   0  0  0  0  0  0  0  0  0  0  0  0
   29.0590   30.1780   38.7740 C   0  0  0  0  0  3  0  0  0  0  0  0
   29.8200   30.0380   39.5790 H   0  0  0  0  0  0  0  0  0  0  0  0
   28.9640   31.5900   38.5080 N   0  0  0  0  0  0  0  0  0  0  0  0
   28.1300   31.8880   37.9940 H   0  0  0  0  0  0  0  0  0  0  0  0
   30.1180   32.1250   37.8310 C   0  0  0  0  0  2  0  0  0  0  0  0
   30.2450   31.3080   36.5410 C   0  0  0  0  0  2  0  0  0  0  0  0
  1  4  1  1  0  0  0
  1 10  1  0  0  0  0
  2  1  1  0  0  0  0
  3  7  1  6  0  0  0
  3  2  1  0  0  0  0
  3  1  1  0  0  0  0
  5  2  1  0  0  0  0
  6  2  1  0  0  0  0
  8 16  1  0  0  0  0
  9 14  1  0  0  0  0
  9  8  2  0  0  0  0
 10  9  1  0  0  0  0
 11 10  2  0  0  0  0
 11 12  1  0  0  0  0
 12 13  2  0  0  0  0
 13  8  1  0  0  0  0
 15 12  1  0  0  0  0
 16 19  1  0  0  0  0
 16 17  1  0  0  0  0
 16 18  1  0  0  0  0
 20 24  1  0  0  0  0
 20  3  1  0  0  0  0
 21 20  2  0  0  0  0
 22 21  1  0  0  0  0
 22 23  2  0  0  0  0
 23 27  1  0  0  0  0
 23 24  1  0  0  0  0
 25 21  1  0  0  0  0
 26 22  1  0  0  0  0
 27 28  1  0  0  0  0
 28 30  1  0  0  0  0
 29 28  1  0  0  0  0
 30 31  1  0  0  0  0
 32 30  1  0  0  0  0
 33 32  1  0  0  0  0
 34 32  1  0  0  0  0
 35 27  1  0  0  0  0
 35 34  1  0  0  0  0
M  END
>  <minimizedAffinity>
-6.18848419

$$$$

 OpenBabel03252501173D

 35 38  0  0  1  0  0  0  0  0999 V2000
   35.8680   29.8060   39.4920 C   0  0  1  0  0  0  0  0  0  0  0  0
   36.5670   30.0040   38.2060 C   0  0  0  0  0  0  0  0  0  0  0  0
   35.7720   28.6860   38.5630 C   0  0  2  0  0  0  0  0  0  0  0  0
   34.9360   30.3550   39.7370 H   0  0  0  0  0  0  0  0  0  0  0  0
   36.0890   30.6850   37.4970 H   0  0  0  0  0  0  0  0  0  0  0  0
   37.6630   29.8390   38.1190 H   0  0  0  0  0  0  0  0  0  0  0  0
   36.4090   27.8090   38.6880 H   0  0  0  0  0  0  0  0  0  0  0  0
   37.3930   28.7800   42.7740 C   0  0  0  0  0  0  0  0  0  0  0  0
   36.4970   28.7740   41.7020 C   0  0  0  0  0  0  0  0  0  0  0  0
   36.7610   29.6990   40.6940 C   0  0  0  0  0  0  0  0  0  0  0  0
   37.8220   30.5340   40.7810 N   0  0  0  0  0  0  0  0  0  0  0  0
   38.6610   30.4900   41.8550 C   0  0  0  0  0  0  0  0  0  0  0  0
   38.4330   29.6040   42.8490 N   0  0  0  0  0  0  0  0  0  0  0  0
   35.6470   28.1150   41.6180 H   0  0  0  0  0  0  0  0  0  0  0  0
   39.5180   31.1380   41.9690 H   0  0  0  0  0  0  0  0  0  0  0  0
   37.1560   27.7960   43.8770 C   0  0  0  0  0  0  0  0  0  0  0  0
   36.7510   28.4940   44.9890 F   0  0  0  0  0  0  0  0  0  0  0  0
   38.3530   27.1690   44.1480 F   0  0  0  0  0  0  0  0  0  0  0  0
   36.1480   26.9130   43.5480 F   0  0  0  0  0  0  0  0  0  0  0  0
   34.4960   28.5830   37.7960 C   0  0  0  0  0  0  0  0  0  0  0  0
   34.1800   27.6520   36.8100 C   0  0  0  0  0  0  0  0  0  0  0  0
   32.8920   28.0160   36.4590 C   0  0  0  0  0  0  0  0  0  0  0  0
   32.4800   29.1090   37.2060 C   0  0  0  0  0  0  0  0  0  0  0  0
   33.4940   29.3860   37.9780 O   0  0  0  0  0  0  0  0  0  0  0  0
   34.8090   26.8480   36.4290 H   0  0  0  0  0  0  0  0  0  0  0  0
   32.3000   27.5130   35.7060 H   0  0  0  0  0  0  0  0  0  0  0  0
   31.2070   29.7310   37.0950 N   0  0  0  0  0  0  0  0  0  0  0  0
   30.2200   30.1640   38.0550 C   0  0  0  0  0  3  0  0  0  0  0  0
   29.2310   29.6920   37.8280 H   0  0  0  0  0  0  0  0  0  0  0  0
   30.0210   31.6550   37.9160 C   0  0  0  0  0  3  0  0  0  0  0  0
   30.9410   32.1430   38.3180 H   0  0  0  0  0  0  0  0  0  0  0  0
   29.8490   32.1090   36.5600 N   0  0  0  0  0  0  0  0  0  0  0  0
   28.9190   31.9610   36.1580 H   0  0  0  0  0  0  0  0  0  0  0  0
   30.8200   31.5630   35.6450 C   0  0  0  0  0  2  0  0  0  0  0  0
   30.6740   30.0420   35.7610 C   0  0  0  0  0  2  0  0  0  0  0  0
  1  4  1  1  0  0  0
  1 10  1  0  0  0  0
  2  3  1  0  0  0  0
  2  1  1  0  0  0  0
  3  7  1  1  0  0  0
  3  1  1  0  0  0  0
  5  2  1  0  0  0  0
  6  2  1  0  0  0  0
  8 13  1  0  0  0  0
  8 16  1  0  0  0  0
  9  8  2  0  0  0  0
 10 11  2  0  0  0  0
 10  9  1  0  0  0  0
 11 12  1  0  0  0  0
 12 15  1  0  0  0  0
 12 13  2  0  0  0  0
 14  9  1  0  0  0  0
 16 18  1  0  0  0  0
 16 17  1  0  0  0  0
 19 16  1  0  0  0  0
 20 24  1  0  0  0  0
 20  3  1  0  0  0  0
 21 20  2  0  0  0  0
 22 21  1  0  0  0  0
 22 23  2  0  0  0  0
 23 24  1  0  0  0  0
 25 21  1  0  0  0  0
 26 22  1  0  0  0  0
 27 23  1  0  0  0  0
 27 28  1  0  0  0  0
 29 28  1  0  0  0  0
 30 28  1  0  0  0  0
 30 31  1  0  0  0  0
 32 30  1  0  0  0  0
 33 32  1  0  0  0  0
 34 35  1  0  0  0  0
 34 32  1  0  0  0  0
 35 27  1  0  0  0  0
M  END
>  <minimizedAffinity>
-6.10311985

$$$$

 OpenBabel03252501173D

 35 38  0  0  1  0  0  0  0  0999 V2000
   37.9210   29.9370   40.5340 C   0  0  1  0  0  0  0  0  0  0  0  0
   36.9610   30.2770   39.4630 C   0  0  0  0  0  0  0  0  0  0  0  0
   37.1940   31.1860   40.7350 C   0  0  2  0  0  0  0  0  0  0  0  0
   39.0170   29.9980   40.3730 H   0  0  0  0  0  0  0  0  0  0  0  0
   37.3940   30.6330   38.5240 H   0  0  0  0  0  0  0  0  0  0  0  0
   35.9480   29.8200   39.4370 H   0  0  0  0  0  0  0  0  0  0  0  0
   36.3380   31.2230   41.4110 H   0  0  0  0  0  0  0  0  0  0  0  0
   37.1400   26.4240   41.6300 C   0  0  0  0  0  0  0  0  0  0  0  0
   37.4970   27.4650   40.7690 C   0  0  0  0  0  0  0  0  0  0  0  0
   37.5630   28.7300   41.3510 C   0  0  0  0  0  0  0  0  0  0  0  0
   37.2900   28.9020   42.6650 N   0  0  0  0  0  0  0  0  0  0  0  0
   36.9470   27.8450   43.4540 C   0  0  0  0  0  0  0  0  0  0  0  0
   36.8750   26.6060   42.9210 N   0  0  0  0  0  0  0  0  0  0  0  0
   37.7170   27.3440   39.7200 H   0  0  0  0  0  0  0  0  0  0  0  0
   36.7200   27.9340   44.5060 H   0  0  0  0  0  0  0  0  0  0  0  0
   37.0660   25.0450   41.0530 C   0  0  0  0  0  0  0  0  0  0  0  0
   36.4520   25.1310   39.8260 F   0  0  0  0  0  0  0  0  0  0  0  0
   36.2910   24.2770   41.8940 F   0  0  0  0  0  0  0  0  0  0  0  0
   38.3270   24.5220   40.8530 F   0  0  0  0  0  0  0  0  0  0  0  0
   37.9370   32.4340   40.3960 C   0  0  0  0  0  0  0  0  0  0  0  0
   37.4090   33.6140   39.8790 C   0  0  0  0  0  0  0  0  0  0  0  0
   38.5290   34.4200   39.7710 C   0  0  0  0  0  0  0  0  0  0  0  0
   39.6560   33.7390   40.2050 C   0  0  0  0  0  0  0  0  0  0  0  0
   39.2180   32.5620   40.5600 O   0  0  0  0  0  0  0  0  0  0  0  0
   36.3690   33.8230   39.6300 H   0  0  0  0  0  0  0  0  0  0  0  0
   38.5150   35.4350   39.3990 H   0  0  0  0  0  0  0  0  0  0  0  0
   40.9690   34.2810   40.2290 N   0  0  0  0  0  0  0  0  0  0  0  0
   42.1550   33.9910   40.9990 C   0  0  0  0  0  3  0  0  0  0  0  0
   42.5170   34.9180   41.5100 H   0  0  0  0  0  0  0  0  0  0  0  0
   43.2590   33.5660   40.0580 C   0  0  0  0  0  3  0  0  0  0  0  0
   42.9900   32.5480   39.6850 H   0  0  0  0  0  0  0  0  0  0  0  0
   43.4240   34.4180   38.9100 N   0  0  0  0  0  0  0  0  0  0  0  0
   43.9240   35.2960   39.0790 H   0  0  0  0  0  0  0  0  0  0  0  0
   42.1840   34.7350   38.2470 C   0  0  0  0  0  2  0  0  0  0  0  0
   41.3060   35.3860   39.3210 C   0  0  0  0  0  2  0  0  0  0  0  0
  1  4  1  6  0  0  0
  1  3  1  0  0  0  0
  1 10  1  0  0  0  0
  2  1  1  0  0  0  0
  2  3  1  0  0  0  0
  3  7  1  1  0  0  0
  5  2  1  0  0  0  0
  6  2  1  0  0  0  0
  8 13  1  0  0  0  0
  9 10  1  0  0  0  0
  9  8  2  0  0  0  0
 10 11  2  0  0  0  0
 11 12  1  0  0  0  0
 12 15  1  0  0  0  0
 13 12  2  0  0  0  0
 14  9  1  0  0  0  0
 16  8  1  0  0  0  0
 16 18  1  0  0  0  0
 17 16  1  0  0  0  0
 19 16  1  0  0  0  0
 20 24  1  0  0  0  0
 20  3  1  0  0  0  0
 21 20  2  0  0  0  0
 22 21  1  0  0  0  0
 22 23  2  0  0  0  0
 23 27  1  0  0  0  0
 23 24  1  0  0  0  0
 25 21  1  0  0  0  0
 26 22  1  0  0  0  0
 27 28  1  0  0  0  0
 28 29  1  0  0  0  0
 30 28  1  0  0  0  0
 31 30  1  0  0  0  0
 32 33  1  0  0  0  0
 32 30  1  0  0  0  0
 34 32  1  0  0  0  0
 34 35  1  0  0  0  0
 35 27  1  0  0  0  0
M  END
>  <minimizedAffinity>
-5.96327114

$$$$

 OpenBabel03252501173D

 35 38  0  0  1  0  0  0  0  0999 V2000
   37.8910   28.1080   41.4650 C   0  0  1  0  0  0  0  0  0  0  0  0
   36.5800   28.3760   42.0910 C   0  0  0  0  0  0  0  0  0  0  0  0
   37.8170   29.3510   42.2260 C   0  0  2  0  0  0  0  0  0  0  0  0
   38.0380   28.1820   40.3690 H   0  0  0  0  0  0  0  0  0  0  0  0
   35.7800   28.6940   41.4170 H   0  0  0  0  0  0  0  0  0  0  0  0
   36.2970   27.8990   43.0550 H   0  0  0  0  0  0  0  0  0  0  0  0
   38.2250   29.4050   43.2360 H   0  0  0  0  0  0  0  0  0  0  0  0
   40.5260   25.9210   43.0240 C   0  0  0  0  0  0  0  0  0  0  0  0
   39.9300   27.0880   42.5380 C   0  0  0  0  0  0  0  0  0  0  0  0
   38.6390   26.9360   42.0310 C   0  0  0  0  0  0  0  0  0  0  0  0
   38.0370   25.7260   42.0240 N   0  0  0  0  0  0  0  0  0  0  0  0
   38.6720   24.6230   42.5130 C   0  0  0  0  0  0  0  0  0  0  0  0
   39.9230   24.7360   43.0120 N   0  0  0  0  0  0  0  0  0  0  0  0
   40.3970   28.0600   42.5360 H   0  0  0  0  0  0  0  0  0  0  0  0
   38.2320   23.6370   42.5270 H   0  0  0  0  0  0  0  0  0  0  0  0
   41.9080   26.0360   43.5870 C   0  0  0  0  0  0  0  0  0  0  0  0
   41.7980   26.3980   44.9090 F   0  0  0  0  0  0  0  0  0  0  0  0
   42.5640   27.0330   42.8980 F   0  0  0  0  0  0  0  0  0  0  0  0
   42.5660   24.8240   43.5390 F   0  0  0  0  0  0  0  0  0  0  0  0
   37.6320   30.5950   41.4240 C   0  0  0  0  0  0  0  0  0  0  0  0
   36.4690   31.0210   40.7870 C   0  0  0  0  0  0  0  0  0  0  0  0
   36.8640   32.2170   40.2140 C   0  0  0  0  0  0  0  0  0  0  0  0
   38.1950   32.4740   40.5070 C   0  0  0  0  0  0  0  0  0  0  0  0
   38.5800   31.4600   41.2290 O   0  0  0  0  0  0  0  0  0  0  0  0
   35.5040   30.5170   40.7610 H   0  0  0  0  0  0  0  0  0  0  0  0
   36.2180   32.8540   39.6250 H   0  0  0  0  0  0  0  0  0  0  0  0
   38.9100   33.6240   40.0730 N   0  0  0  0  0  0  0  0  0  0  0  0
   38.6890   35.0440   40.2020 C   0  0  0  0  0  3  0  0  0  0  0  0
   38.6880   35.5260   39.1930 H   0  0  0  0  0  0  0  0  0  0  0  0
   39.8460   35.6520   40.9620 C   0  0  0  0  0  3  0  0  0  0  0  0
   39.7460   35.3210   42.0230 H   0  0  0  0  0  0  0  0  0  0  0  0
   41.1450   35.2370   40.5000 N   0  0  0  0  0  0  0  0  0  0  0  0
   41.4800   35.6970   39.6480 H   0  0  0  0  0  0  0  0  0  0  0  0
   41.2590   33.8130   40.3090 C   0  0  0  0  0  2  0  0  0  0  0  0
   40.1550   33.4490   39.3110 C   0  0  0  0  0  2  0  0  0  0  0  0
  1  4  1  6  0  0  0
  1 10  1  0  0  0  0
  1  2  1  0  0  0  0
  1  3  1  0  0  0  0
  2  3  1  0  0  0  0
  2  6  1  0  0  0  0
  3  7  1  1  0  0  0
  5  2  1  0  0  0  0
  8 16  1  0  0  0  0
  9  8  2  0  0  0  0
 10  9  1  0  0  0  0
 11 10  2  0  0  0  0
 11 12  1  0  0  0  0
 12 15  1  0  0  0  0
 12 13  2  0  0  0  0
 13  8  1  0  0  0  0
 14  9  1  0  0  0  0
 16 17  1  0  0  0  0
 18 16  1  0  0  0  0
 19 16  1  0  0  0  0
 20  3  1  0  0  0  0
 21 20  2  0  0  0  0
 22 23  2  0  0  0  0
 22 21  1  0  0  0  0
 23 24  1  0  0  0  0
 24 20  1  0  0  0  0
 25 21  1  0  0  0  0
 26 22  1  0  0  0  0
 27 28  1  0  0  0  0
 27 23  1  0  0  0  0
 28 30  1  0  0  0  0
 29 28  1  0  0  0  0
 30 31  1  0  0  0  0
 32 30  1  0  0  0  0
 33 32  1  0  0  0  0
 34 32  1  0  0  0  0
 35 27  1  0  0  0  0
 35 34  1  0  0  0  0
M  END
>  <minimizedAffinity>
-5.83568668

$$$$

 OpenBabel03252501173D

 35 38  0  0  1  0  0  0  0  0999 V2000
   35.8570   29.9380   39.0920 C   0  0  1  0  0  0  0  0  0  0  0  0
   36.6580   30.0930   37.8600 C   0  0  0  0  0  0  0  0  0  0  0  0
   35.6910   28.8680   38.1140 C   0  0  2  0  0  0  0  0  0  0  0  0
   34.9810   30.5860   39.3010 H   0  0  0  0  0  0  0  0  0  0  0  0
   36.3100   30.8500   37.1510 H   0  0  0  0  0  0  0  0  0  0  0  0
   37.7300   29.8010   37.8340 H   0  0  0  0  0  0  0  0  0  0  0  0
   36.2110   27.9180   38.2420 H   0  0  0  0  0  0  0  0  0  0  0  0
   37.2120   28.4350   42.2630 C   0  0  0  0  0  0  0  0  0  0  0  0
   36.4190   28.5520   41.1180 C   0  0  0  0  0  0  0  0  0  0  0  0
   36.6510   29.6850   40.3400 C   0  0  0  0  0  0  0  0  0  0  0  0
   37.5870   30.5920   40.7010 N   0  0  0  0  0  0  0  0  0  0  0  0
   38.3300   30.4210   41.8310 C   0  0  0  0  0  0  0  0  0  0  0  0
   38.1310   29.3330   42.6060 N   0  0  0  0  0  0  0  0  0  0  0  0
   35.6690   27.8380   40.8180 H   0  0  0  0  0  0  0  0  0  0  0  0
   39.0870   31.1190   42.1590 H   0  0  0  0  0  0  0  0  0  0  0  0
   37.0070   27.2280   43.1250 C   0  0  0  0  0  0  0  0  0  0  0  0
   36.8610   26.1380   42.3010 F   0  0  0  0  0  0  0  0  0  0  0  0
   35.8440   27.4140   43.8400 F   0  0  0  0  0  0  0  0  0  0  0  0
   38.1050   27.0000   43.9290 F   0  0  0  0  0  0  0  0  0  0  0  0
   34.4660   28.9450   37.2660 C   0  0  0  0  0  0  0  0  0  0  0  0
   34.3660   28.6760   35.9040 C   0  0  0  0  0  0  0  0  0  0  0  0
   33.0240   28.8950   35.6530 C   0  0  0  0  0  0  0  0  0  0  0  0
   32.3730   29.2740   36.8180 C   0  0  0  0  0  0  0  0  0  0  0  0
   33.3030   29.2810   37.7320 O   0  0  0  0  0  0  0  0  0  0  0  0
   35.1650   28.3710   35.2270 H   0  0  0  0  0  0  0  0  0  0  0  0
   32.5580   28.7840   34.6840 H   0  0  0  0  0  0  0  0  0  0  0  0
   30.9860   29.5710   36.9090 N   0  0  0  0  0  0  0  0  0  0  0  0
   29.8010   28.9980   36.3150 C   0  0  0  0  0  3  0  0  0  0  0  0
   29.2210   29.7880   35.7760 H   0  0  0  0  0  0  0  0  0  0  0  0
   28.9010   28.4860   37.4160 C   0  0  0  0  0  3  0  0  0  0  0  0
   29.3920   27.5770   37.8390 H   0  0  0  0  0  0  0  0  0  0  0  0
   28.7000   29.4130   38.5000 N   0  0  0  0  0  0  0  0  0  0  0  0
   28.0290   30.1660   38.3200 H   0  0  0  0  0  0  0  0  0  0  0  0
   29.9210   30.0110   38.9780 C   0  0  0  0  0  2  0  0  0  0  0  0
   30.5450   30.6890   37.7540 C   0  0  0  0  0  2  0  0  0  0  0  0
  1  4  1  1  0  0  0
  1 10  1  0  0  0  0
  2  3  1  0  0  0  0
  2  1  1  0  0  0  0
  3  7  1  1  0  0  0
  3  1  1  0  0  0  0
  5  2  1  0  0  0  0
  6  2  1  0  0  0  0
  8 13  1  0  0  0  0
  8 16  1  0  0  0  0
  9  8  2  0  0  0  0
 10 11  2  0  0  0  0
 10  9  1  0  0  0  0
 11 12  1  0  0  0  0
 12 15  1  0  0  0  0
 12 13  2  0  0  0  0
 14  9  1  0  0  0  0
 16 18  1  0  0  0  0
 16 19  1  0  0  0  0
 17 16  1  0  0  0  0
 20 24  1  0  0  0  0
 20  3  1  0  0  0  0
 21 20  2  0  0  0  0
 22 21  1  0  0  0  0
 22 23  2  0  0  0  0
 23 27  1  0  0  0  0
 23 24  1  0  0  0  0
 25 21  1  0  0  0  0
 26 22  1  0  0  0  0
 27 35  1  0  0  0  0
 28 27  1  0  0  0  0
 28 30  1  0  0  0  0
 29 28  1  0  0  0  0
 30 31  1  0  0  0  0
 30 32  1  0  0  0  0
 32 34  1  0  0  0  0
 33 32  1  0  0  0  0
 35 34  1  0  0  0  0
M  END
>  <minimizedAffinity>
-5.82568216

$$$$

 OpenBabel03252501173D

 35 38  0  0  1  0  0  0  0  0999 V2000
   39.2300   29.4480   40.8640 C   0  0  1  0  0  0  0  0  0  0  0  0
   38.6420   29.3280   39.5140 C   0  0  0  0  0  0  0  0  0  0  0  0
   38.0280   30.2470   40.6450 C   0  0  2  0  0  0  0  0  0  0  0  0
   40.1830   29.9880   41.0370 H   0  0  0  0  0  0  0  0  0  0  0  0
   39.1770   29.8380   38.7090 H   0  0  0  0  0  0  0  0  0  0  0  0
   37.9860   28.4700   39.2500 H   0  0  0  0  0  0  0  0  0  0  0  0
   37.0610   29.9010   41.0140 H   0  0  0  0  0  0  0  0  0  0  0  0
   38.3010   26.0700   42.2330 C   0  0  0  0  0  0  0  0  0  0  0  0
   38.2930   27.1640   41.3650 C   0  0  0  0  0  0  0  0  0  0  0  0
   39.1520   28.2080   41.7060 C   0  0  0  0  0  0  0  0  0  0  0  0
   39.9260   28.1330   42.8120 N   0  0  0  0  0  0  0  0  0  0  0  0
   39.8890   27.0360   43.6210 C   0  0  0  0  0  0  0  0  0  0  0  0
   39.0670   26.0070   43.3180 N   0  0  0  0  0  0  0  0  0  0  0  0
   37.6820   27.2390   40.4790 H   0  0  0  0  0  0  0  0  0  0  0  0
   40.4860   26.9330   44.5150 H   0  0  0  0  0  0  0  0  0  0  0  0
   37.4020   24.9190   41.9030 C   0  0  0  0  0  0  0  0  0  0  0  0
   38.1230   23.7600   42.0570 F   0  0  0  0  0  0  0  0  0  0  0  0
   37.0240   25.0450   40.5840 F   0  0  0  0  0  0  0  0  0  0  0  0
   36.3290   24.8630   42.7690 F   0  0  0  0  0  0  0  0  0  0  0  0
   38.2510   31.6950   40.3640 C   0  0  0  0  0  0  0  0  0  0  0  0
   37.2850   32.6540   40.0720 C   0  0  0  0  0  0  0  0  0  0  0  0
   38.0410   33.8010   39.9130 C   0  0  0  0  0  0  0  0  0  0  0  0
   39.3860   33.5210   40.1040 C   0  0  0  0  0  0  0  0  0  0  0  0
   39.4260   32.2440   40.3670 O   0  0  0  0  0  0  0  0  0  0  0  0
   36.2070   32.5090   39.9930 H   0  0  0  0  0  0  0  0  0  0  0  0
   37.6320   34.7730   39.6730 H   0  0  0  0  0  0  0  0  0  0  0  0
   40.4320   34.4790   40.0160 N   0  0  0  0  0  0  0  0  0  0  0  0
   40.7710   35.6590   40.7740 C   0  0  0  0  0  3  0  0  0  0  0  0
   40.8500   36.5440   40.0930 H   0  0  0  0  0  0  0  0  0  0  0  0
   42.1390   35.4710   41.3880 C   0  0  0  0  0  3  0  0  0  0  0  0
   42.0270   34.7160   42.2030 H   0  0  0  0  0  0  0  0  0  0  0  0
   43.1380   34.9780   40.4760 N   0  0  0  0  0  0  0  0  0  0  0  0
   43.5350   35.6720   39.8360 H   0  0  0  0  0  0  0  0  0  0  0  0
   42.6930   33.8540   39.6900 C   0  0  0  0  0  2  0  0  0  0  0  0
   41.4410   34.3450   38.9560 C   0  0  0  0  0  2  0  0  0  0  0  0
  1  4  1  1  0  0  0
  1 10  1  0  0  0  0
  2  3  1  0  0  0  0
  2  1  1  0  0  0  0
  3  1  1  0  0  0  0
  3  7  1  1  0  0  0
  5  2  1  0  0  0  0
  6  2  1  0  0  0  0
  8 13  1  0  0  0  0
  9 10  1  0  0  0  0
  9  8  2  0  0  0  0
 10 11  2  0  0  0  0
 11 12  1  0  0  0  0
 12 15  1  0  0  0  0
 13 12  2  0  0  0  0
 14  9  1  0  0  0  0
 16 17  1  0  0  0  0
 16  8  1  0  0  0  0
 16 19  1  0  0  0  0
 18 16  1  0  0  0  0
 20 24  1  0  0  0  0
 20  3  1  0  0  0  0
 21 20  2  0  0  0  0
 22 21  1  0  0  0  0
 22 23  2  0  0  0  0
 23 24  1  0  0  0  0
 25 21  1  0  0  0  0
 26 22  1  0  0  0  0
 27 23  1  0  0  0  0
 27 28  1  0  0  0  0
 28 30  1  0  0  0  0
 29 28  1  0  0  0  0
 30 31  1  0  0  0  0
 32 30  1  0  0  0  0
 33 32  1  0  0  0  0
 34 32  1  0  0  0  0
 35 34  1  0  0  0  0
 35 27  1  0  0  0  0
M  END
>  <minimizedAffinity>
-5.80240011

$$$$

 OpenBabel03252501173D

 35 38  0  0  1  0  0  0  0  0999 V2000
   37.7830   29.2770   40.8080 C   0  0  1  0  0  0  0  0  0  0  0  0
   36.7570   30.0360   41.5530 C   0  0  0  0  0  0  0  0  0  0  0  0
   38.3090   30.2880   41.7200 C   0  0  2  0  0  0  0  0  0  0  0  0
   37.9440   29.4300   39.7210 H   0  0  0  0  0  0  0  0  0  0  0  0
   36.2010   30.7840   40.9810 H   0  0  0  0  0  0  0  0  0  0  0  0
   36.2860   29.6150   42.4680 H   0  0  0  0  0  0  0  0  0  0  0  0
   38.6980   30.0000   42.6980 H   0  0  0  0  0  0  0  0  0  0  0  0
   38.8630   26.0050   42.3170 C   0  0  0  0  0  0  0  0  0  0  0  0
   38.8560   27.3800   42.0720 C   0  0  0  0  0  0  0  0  0  0  0  0
   37.8900   27.8250   41.1700 C   0  0  0  0  0  0  0  0  0  0  0  0
   37.0340   26.9540   40.5880 N   0  0  0  0  0  0  0  0  0  0  0  0
   37.0910   25.6210   40.8700 C   0  0  0  0  0  0  0  0  0  0  0  0
   38.0160   25.1580   41.7400 N   0  0  0  0  0  0  0  0  0  0  0  0
   39.5310   28.0870   42.5270 H   0  0  0  0  0  0  0  0  0  0  0  0
   36.4310   24.8890   40.4280 H   0  0  0  0  0  0  0  0  0  0  0  0
   39.8770   25.4820   43.2860 C   0  0  0  0  0  0  0  0  0  0  0  0
   39.5240   24.1950   43.6150 F   0  0  0  0  0  0  0  0  0  0  0  0
   39.8240   26.2680   44.4170 F   0  0  0  0  0  0  0  0  0  0  0  0
   41.1330   25.4380   42.7170 F   0  0  0  0  0  0  0  0  0  0  0  0
   38.7320   31.5740   41.0930 C   0  0  0  0  0  0  0  0  0  0  0  0
   37.9400   32.4560   40.3630 C   0  0  0  0  0  0  0  0  0  0  0  0
   38.8330   33.4610   40.0390 C   0  0  0  0  0  0  0  0  0  0  0  0
   40.0870   33.1760   40.5580 C   0  0  0  0  0  0  0  0  0  0  0  0
   39.9430   32.0340   41.1700 O   0  0  0  0  0  0  0  0  0  0  0  0
   36.8820   32.3530   40.1210 H   0  0  0  0  0  0  0  0  0  0  0  0
   38.5780   34.3400   39.4620 H   0  0  0  0  0  0  0  0  0  0  0  0
   41.2310   34.0070   40.4090 N   0  0  0  0  0  0  0  0  0  0  0  0
   42.5190   34.0560   41.0590 C   0  0  0  0  0  3  0  0  0  0  0  0
   42.6980   35.0780   41.4790 H   0  0  0  0  0  0  0  0  0  0  0  0
   43.5980   33.8270   40.0250 C   0  0  0  0  0  3  0  0  0  0  0  0
   43.5440   32.7510   39.7350 H   0  0  0  0  0  0  0  0  0  0  0  0
   43.4460   34.6070   38.8240 N   0  0  0  0  0  0  0  0  0  0  0  0
   43.7390   35.5860   38.8920 H   0  0  0  0  0  0  0  0  0  0  0  0
   42.1090   34.5790   38.2860 C   0  0  0  0  0  2  0  0  0  0  0  0
   41.2080   35.0890   39.4150 C   0  0  0  0  0  2  0  0  0  0  0  0
  1  4  1  6  0  0  0
  1 10  1  0  0  0  0
  1  2  1  0  0  0  0
  1  3  1  0  0  0  0
  2  3  1  0  0  0  0
  2  6  1  0  0  0  0
  3  7  1  1  0  0  0
  5  2  1  0  0  0  0
  8 16  1  0  0  0  0
  9  8  1  0  0  0  0
  9 14  1  0  0  0  0
 10  9  2  0  0  0  0
 11 12  2  0  0  0  0
 11 10  1  0  0  0  0
 12 13  1  0  0  0  0
 13  8  2  0  0  0  0
 15 12  1  0  0  0  0
 16 17  1  0  0  0  0
 16 18  1  0  0  0  0
 19 16  1  0  0  0  0
 20 24  1  0  0  0  0
 20  3  1  0  0  0  0
 21 20  2  0  0  0  0
 22 21  1  0  0  0  0
 22 23  2  0  0  0  0
 23 24  1  0  0  0  0
 25 21  1  0  0  0  0
 26 22  1  0  0  0  0
 27 23  1  0  0  0  0
 27 28  1  0  0  0  0
 28 29  1  0  0  0  0
 30 28  1  0  0  0  0
 31 30  1  0  0  0  0
 32 33  1  0  0  0  0
 32 30  1  0  0  0  0
 34 32  1  0  0  0  0
 34 35  1  0  0  0  0
 35 27  1  0  0  0  0
M  END
>  <minimizedAffinity>
-5.78427649

$$$$
