
 OpenBabel03242517253D

 35 37  0  0  1  0  0  0  0  0999 V2000
   45.0820   34.7310   44.9260 C   0  0  0  0  0  0  0  0  0  0  0  0
   45.9230   34.5090   43.8060 C   0  0  0  0  0  0  0  0  0  0  0  0
   46.9270   33.5130   43.9260 C   0  0  0  0  0  0  0  0  0  0  0  0
   47.0240   32.8350   45.1000 N   0  0  0  0  0  0  0  0  0  0  0  0
   46.2070   33.0760   46.1390 C   0  0  0  0  0  0  0  0  0  0  0  0
   45.2380   34.0210   46.0520 N   0  0  0  0  0  0  0  0  0  0  0  0
   46.3710   32.3380   47.3060 N   0  0  0  0  0  0  0  0  0  0  0  0
   47.6270   32.3630   48.0130 C   0  0  0  0  0  0  0  0  0  0  0  0
   47.8140   31.2460   48.9930 C   0  0  0  0  0  0  0  0  0  0  0  0
   46.6370   30.7730   49.6330 N   0  0  0  0  0  0  0  0  0  0  0  0
   45.4660   31.5390   49.3180 C   0  0  0  0  0  0  0  0  0  0  0  0
   45.2900   31.5250   47.8430 C   0  0  2  0  0  0  0  0  0  0  0  0
   44.3440   35.5030   44.7600 H   0  0  0  0  0  0  0  0  0  0  0  0
   45.8990   35.0010   42.8660 H   0  0  0  0  0  0  0  0  0  0  0  0
   47.6010   33.2950   43.1080 H   0  0  0  0  0  0  0  0  0  0  0  0
   48.4410   32.3280   47.2590 H   0  0  0  0  0  0  0  0  0  0  0  0
   47.7040   33.3170   48.5720 H   0  0  0  0  0  0  0  0  0  0  0  0
   48.5650   31.5980   49.7530 H   0  0  0  0  0  0  0  0  0  0  0  0
   48.2950   30.3970   48.4590 H   0  0  0  0  0  0  0  0  0  0  0  0
   46.4680   29.7430   49.5690 H   0  0  0  0  0  0  0  0  0  0  0  0
   44.5890   31.0390   49.7810 H   0  0  0  0  0  0  0  0  0  0  0  0
   45.5700   32.5750   49.6790 H   0  0  0  0  0  0  0  0  0  0  0  0
   44.3610   32.1110   47.6060 H   0  0  0  0  0  0  0  0  0  0  0  0
   45.2440   30.1540   47.2560 C   0  0  0  0  0  0  0  0  0  0  0  0
   45.7930   29.4710   47.9650 H   0  0  0  0  0  0  0  0  0  0  0  0
   44.2120   29.8070   47.2170 H   0  0  0  0  0  0  0  0  0  0  0  0
   45.9660   30.0660   46.0090 N   0  0  0  0  0  0  0  0  0  0  0  0
   45.1000   29.7830   44.8880 C   0  0  0  0  0  0  0  0  0  0  0  0
   44.0270   29.7400   45.1830 H   0  0  0  0  0  0  0  0  0  0  0  0
   45.4390   28.4320   44.3000 C   0  0  0  0  0  0  0  0  0  0  0  0
   46.4480   28.5230   43.8640 H   0  0  0  0  0  0  0  0  0  0  0  0
   45.4770   27.4640   45.3480 N   0  0  0  0  0  0  0  0  0  0  0  0
   44.6150   27.4870   45.9150 H   0  0  0  0  0  0  0  0  0  0  0  0
   46.6590   27.7150   46.1490 C   0  0  0  0  0  0  0  0  0  0  0  0
   47.0750   29.1620   46.1030 C   0  0  0  0  0  0  0  0  0  0  0  0
  1  6  1  0  0  0  0
  2  3  1  0  0  0  0
  2  1  2  0  0  0  0
  3  4  2  0  0  0  0
  4  5  1  0  0  0  0
  5  7  1  0  0  0  0
  6  5  2  0  0  0  0
  7 12  1  0  0  0  0
  7  8  1  0  0  0  0
  8 17  1  0  0  0  0
  8  9  1  0  0  0  0
  9 10  1  0  0  0  0
  9 18  1  0  0  0  0
 11 10  1  0  0  0  0
 11 22  1  0  0  0  0
 11 21  1  0  0  0  0
 12 23  1  6  0  0  0
 12 11  1  0  0  0  0
 13  1  1  0  0  0  0
 14  2  1  0  0  0  0
 15  3  1  0  0  0  0
 16  8  1  0  0  0  0
 19  9  1  0  0  0  0
 20 10  1  0  0  0  0
 24 12  1  0  0  0  0
 24 25  1  0  0  0  0
 26 24  1  0  0  0  0
 27 35  1  0  0  0  0
 27 24  1  0  0  0  0
 28 29  1  0  0  0  0
 28 27  1  0  0  0  0
 30 28  1  0  0  0  0
 30 32  1  0  0  0  0
 31 30  1  0  0  0  0
 32 33  1  0  0  0  0
 32 34  1  0  0  0  0
 35 34  1  0  0  0  0
M  END
>  <minimizedAffinity>
-4.99083328

>  <minimizedRMSD>
1.2672143

$$$$
