
 OpenBabel03252502173D

 24 25  0  0  0  0  0  0  0  0999 V2000
   37.0780   29.0080   38.3430 C   0  0  0  0  0  0  0  0  0  0  0  0
   37.7280   29.9190   39.1870 C   0  0  0  0  0  0  0  0  0  0  0  0
   38.1320   31.1450   38.6470 C   0  0  0  0  0  0  0  0  0  0  0  0
   37.8830   31.4020   37.3440 N   0  0  0  0  0  0  0  0  0  0  0  0
   37.2520   30.4990   36.5560 C   0  0  0  0  0  0  0  0  0  0  0  0
   36.8490   29.3010   37.0570 N   0  0  0  0  0  0  0  0  0  0  0  0
   36.7460   28.0460   38.7180 H   0  0  0  0  0  0  0  0  0  0  0  0
   37.0860   30.7710   35.5240 H   0  0  0  0  0  0  0  0  0  0  0  0
   38.7840   32.0620   39.4880 N   0  0  0  0  0  0  0  0  0  0  0  0
   38.0620   33.1090   40.1550 C   0  0  0  0  0  3  0  0  0  0  0  0
   37.3810   33.5380   39.3600 H   0  0  0  0  0  0  0  0  0  0  0  0
   38.8740   34.1610   40.7760 C   0  0  0  0  0  3  0  0  0  0  0  0
   38.5980   35.1550   40.3580 H   0  0  0  0  0  0  0  0  0  0  0  0
   40.2710   34.0760   40.7960 N   0  0  0  0  0  0  0  0  0  0  0  0
   40.7440   34.9980   40.6780 H   0  0  0  0  0  0  0  0  0  0  0  0
   40.9500   33.0930   40.0850 C   0  0  0  0  0  2  0  0  0  0  0  0
   40.1880   31.8940   39.6400 C   0  0  0  0  0  2  0  0  0  0  0  0
   37.9250   29.5440   40.4950 O   0  0  0  0  0  0  0  0  0  0  0  0
   35.7830   28.3240   41.4420 O   0  0  0  0  0  0  0  0  0  0  0  0
   36.6320   29.5400   41.6260 P   0  0  0  0  0  0  0  0  0  0  0  0
   37.2170   29.5210   43.2130 O   0  0  0  0  0  0  0  0  0  0  0  0
   37.8010   28.7570   43.3560 H   0  0  0  0  0  0  0  0  0  0  0  0
   35.6770   30.9240   41.4260 O   0  0  0  0  0  0  0  0  0  0  0  0
   35.5750   31.4530   42.2500 H   0  0  0  0  0  0  0  0  0  0  0  0
  1  7  1  0  0  0  0
  1  2  1  0  0  0  0
  2 18  1  0  0  0  0
  3  2  2  0  0  0  0
  3  9  1  0  0  0  0
  4  3  1  0  0  0  0
  5  6  1  0  0  0  0
  5  4  2  0  0  0  0
  6  1  2  0  0  0  0
  8  5  1  0  0  0  0
  9 17  1  0  0  0  0
  9 10  1  0  0  0  0
 10 12  1  0  0  0  0
 11 10  1  0  0  0  0
 12 14  1  0  0  0  0
 13 12  1  0  0  0  0
 15 14  1  0  0  0  0
 16 14  1  0  0  0  0
 17 16  1  0  0  0  0
 18 20  1  0  0  0  0
 19 20  2  0  0  0  0
 20 21  1  0  0  0  0
 21 22  1  0  0  0  0
 23 20  1  0  0  0  0
 23 24  1  0  0  0  0
M  END
>  <minimizedAffinity>
-4.80213308

$$$$

 OpenBabel03252502173D

 24 25  0  0  0  0  0  0  0  0999 V2000
   42.6790   33.1470   40.9870 C   0  0  0  0  0  0  0  0  0  0  0  0
   41.4510   32.9300   40.3490 C   0  0  0  0  0  0  0  0  0  0  0  0
   40.5600   32.0170   40.9250 C   0  0  0  0  0  0  0  0  0  0  0  0
   40.9160   31.3830   42.0650 N   0  0  0  0  0  0  0  0  0  0  0  0
   42.1130   31.6160   42.6560 C   0  0  0  0  0  0  0  0  0  0  0  0
   42.9950   32.4990   42.1160 N   0  0  0  0  0  0  0  0  0  0  0  0
   43.4000   33.8450   40.5780 H   0  0  0  0  0  0  0  0  0  0  0  0
   42.3310   31.0750   43.5650 H   0  0  0  0  0  0  0  0  0  0  0  0
   39.3270   31.7970   40.2900 N   0  0  0  0  0  0  0  0  0  0  0  0
   39.0800   30.6050   39.5280 C   0  0  0  0  0  3  0  0  0  0  0  0
   40.0100   30.4710   38.8980 H   0  0  0  0  0  0  0  0  0  0  0  0
   37.8750   30.6110   38.6910 C   0  0  0  0  0  3  0  0  0  0  0  0
   38.1480   30.4290   37.6270 H   0  0  0  0  0  0  0  0  0  0  0  0
   36.9760   31.6830   38.7280 N   0  0  0  0  0  0  0  0  0  0  0  0
   36.5600   31.9070   37.7980 H   0  0  0  0  0  0  0  0  0  0  0  0
   37.2690   32.8540   39.4180 C   0  0  0  0  0  2  0  0  0  0  0  0
   38.3450   32.8140   40.4470 C   0  0  0  0  0  2  0  0  0  0  0  0
   41.2020   33.6350   39.1940 O   0  0  0  0  0  0  0  0  0  0  0  0
   42.4830   31.7900   37.8050 O   0  0  0  0  0  0  0  0  0  0  0  0
   41.6090   32.9940   37.6540 P   0  0  0  0  0  0  0  0  0  0  0  0
   40.2220   32.5150   36.8120 O   0  0  0  0  0  0  0  0  0  0  0  0
   39.7100   31.8710   37.3290 H   0  0  0  0  0  0  0  0  0  0  0  0
   42.4180   34.1590   36.7310 O   0  0  0  0  0  0  0  0  0  0  0  0
   41.9960   34.3310   35.8580 H   0  0  0  0  0  0  0  0  0  0  0  0
  1  6  1  0  0  0  0
  2  3  1  0  0  0  0
  2  1  2  0  0  0  0
  3  4  2  0  0  0  0
  4  5  1  0  0  0  0
  5  8  1  0  0  0  0
  6  5  2  0  0  0  0
  7  1  1  0  0  0  0
  9 17  1  0  0  0  0
  9  3  1  0  0  0  0
 10  9  1  0  0  0  0
 11 10  1  0  0  0  0
 12 14  1  0  0  0  0
 12 10  1  0  0  0  0
 13 12  1  0  0  0  0
 14 16  1  0  0  0  0
 15 14  1  0  0  0  0
 16 17  1  0  0  0  0
 18  2  1  0  0  0  0
 20 19  2  0  0  0  0
 20 18  1  0  0  0  0
 21 22  1  0  0  0  0
 21 20  1  0  0  0  0
 23 20  1  0  0  0  0
 24 23  1  0  0  0  0
M  END
>  <minimizedAffinity>
-4.77056837

$$$$

 OpenBabel03252502173D

 24 25  0  0  0  0  0  0  0  0999 V2000
   38.2170   29.4610   42.7840 C   0  0  0  0  0  0  0  0  0  0  0  0
   38.5560   29.6580   41.4380 C   0  0  0  0  0  0  0  0  0  0  0  0
   39.0120   28.5580   40.7050 C   0  0  0  0  0  0  0  0  0  0  0  0
   39.1080   27.3560   41.3160 N   0  0  0  0  0  0  0  0  0  0  0  0
   38.7720   27.2000   42.6190 C   0  0  0  0  0  0  0  0  0  0  0  0
   38.3250   28.2550   43.3530 N   0  0  0  0  0  0  0  0  0  0  0  0
   37.8580   30.2850   43.3910 H   0  0  0  0  0  0  0  0  0  0  0  0
   38.8730   26.2120   43.0430 H   0  0  0  0  0  0  0  0  0  0  0  0
   39.3520   28.7490   39.3550 N   0  0  0  0  0  0  0  0  0  0  0  0
   38.5020   28.2840   38.2960 C   0  0  0  0  0  3  0  0  0  0  0  0
   38.2070   27.2370   38.6050 H   0  0  0  0  0  0  0  0  0  0  0  0
   39.0840   28.2910   36.9490 C   0  0  0  0  0  3  0  0  0  0  0  0
   39.0550   27.2660   36.5150 H   0  0  0  0  0  0  0  0  0  0  0  0
   40.3590   28.8210   36.7170 N   0  0  0  0  0  0  0  0  0  0  0  0
   40.9010   28.2950   35.9980 H   0  0  0  0  0  0  0  0  0  0  0  0
   41.1900   29.2000   37.7640 C   0  0  0  0  0  2  0  0  0  0  0  0
   40.5770   29.4260   39.1030 C   0  0  0  0  0  2  0  0  0  0  0  0
   38.4160   30.9280   40.9270 O   0  0  0  0  0  0  0  0  0  0  0  0
   36.6120   30.9360   38.9990 O   0  0  0  0  0  0  0  0  0  0  0  0
   36.9000   31.4960   40.3550 P   0  0  0  0  0  0  0  0  0  0  0  0
   35.6450   31.0150   41.3830 O   0  0  0  0  0  0  0  0  0  0  0  0
   35.6350   30.0490   41.4840 H   0  0  0  0  0  0  0  0  0  0  0  0
   36.9030   33.1870   40.2710 O   0  0  0  0  0  0  0  0  0  0  0  0
   36.1680   33.6070   40.7760 H   0  0  0  0  0  0  0  0  0  0  0  0
  1  6  1  0  0  0  0
  1  7  1  0  0  0  0
  2  1  2  0  0  0  0
  3  4  2  0  0  0  0
  3  2  1  0  0  0  0
  4  5  1  0  0  0  0
  5  8  1  0  0  0  0
  5  6  2  0  0  0  0
  9  3  1  0  0  0  0
 10 11  1  0  0  0  0
 10  9  1  0  0  0  0
 12 10  1  0  0  0  0
 13 12  1  0  0  0  0
 14 12  1  0  0  0  0
 14 16  1  0  0  0  0
 15 14  1  0  0  0  0
 16 17  1  0  0  0  0
 17  9  1  0  0  0  0
 18  2  1  0  0  0  0
 19 20  2  0  0  0  0
 20 18  1  0  0  0  0
 20 21  1  0  0  0  0
 21 22  1  0  0  0  0
 23 20  1  0  0  0  0
 23 24  1  0  0  0  0
M  END
>  <minimizedAffinity>
-4.74665499

$$$$

 OpenBabel03252502173D

 24 25  0  0  0  0  0  0  0  0999 V2000
   40.2330   30.9250   39.1480 C   0  0  0  0  0  0  0  0  0  0  0  0
   39.3460   30.4290   40.1130 C   0  0  0  0  0  0  0  0  0  0  0  0
   39.3310   29.0500   40.3480 C   0  0  0  0  0  0  0  0  0  0  0  0
   40.1660   28.2550   39.6420 N   0  0  0  0  0  0  0  0  0  0  0  0
   41.0110   28.7680   38.7160 C   0  0  0  0  0  0  0  0  0  0  0  0
   41.0440   30.1050   38.4700 N   0  0  0  0  0  0  0  0  0  0  0  0
   40.2800   31.9870   38.9320 H   0  0  0  0  0  0  0  0  0  0  0  0
   41.6500   28.0740   38.1900 H   0  0  0  0  0  0  0  0  0  0  0  0
   38.4440   28.5470   41.3140 N   0  0  0  0  0  0  0  0  0  0  0  0
   37.2180   27.9000   40.9400 C   0  0  0  0  0  3  0  0  0  0  0  0
   36.7770   28.5650   40.1380 H   0  0  0  0  0  0  0  0  0  0  0  0
   36.2530   27.6680   42.0200 C   0  0  0  0  0  3  0  0  0  0  0  0
   35.2840   28.1600   41.7790 H   0  0  0  0  0  0  0  0  0  0  0  0
   36.5710   27.9730   43.3490 N   0  0  0  0  0  0  0  0  0  0  0  0
   35.7630   28.3470   43.8930 H   0  0  0  0  0  0  0  0  0  0  0  0
   37.7320   28.6620   43.6790 C   0  0  0  0  0  2  0  0  0  0  0  0
   38.8290   28.7150   42.6730 C   0  0  0  0  0  2  0  0  0  0  0  0
   38.5460   31.3370   40.7660 O   0  0  0  0  0  0  0  0  0  0  0  0
   36.7110   31.0270   38.8920 O   0  0  0  0  0  0  0  0  0  0  0  0
   36.9640   31.6980   40.2040 P   0  0  0  0  0  0  0  0  0  0  0  0
   35.7930   31.1470   41.2940 O   0  0  0  0  0  0  0  0  0  0  0  0
   35.8930   30.1930   41.4530 H   0  0  0  0  0  0  0  0  0  0  0  0
   36.7760   33.3710   40.0200 O   0  0  0  0  0  0  0  0  0  0  0  0
   36.0100   33.7370   40.5190 H   0  0  0  0  0  0  0  0  0  0  0  0
  1  2  1  0  0  0  0
  2  3  2  0  0  0  0
  2 18  1  0  0  0  0
  3  9  1  0  0  0  0
  4  3  1  0  0  0  0
  5  4  2  0  0  0  0
  6  5  1  0  0  0  0
  6  1  2  0  0  0  0
  7  1  1  0  0  0  0
  8  5  1  0  0  0  0
  9 17  1  0  0  0  0
 10  9  1  0  0  0  0
 10 12  1  0  0  0  0
 11 10  1  0  0  0  0
 12 14  1  0  0  0  0
 13 12  1  0  0  0  0
 14 16  1  0  0  0  0
 14 15  1  0  0  0  0
 17 16  1  0  0  0  0
 19 20  2  0  0  0  0
 20 18  1  0  0  0  0
 20 21  1  0  0  0  0
 21 22  1  0  0  0  0
 23 20  1  0  0  0  0
 23 24  1  0  0  0  0
M  END
>  <minimizedAffinity>
-4.73775387

$$$$

 OpenBabel03252502173D

 24 25  0  0  0  0  0  0  0  0999 V2000
   38.8150   28.0750   41.7080 C   0  0  0  0  0  0  0  0  0  0  0  0
   38.7380   29.2720   40.9830 C   0  0  0  0  0  0  0  0  0  0  0  0
   39.7430   30.2250   41.1750 C   0  0  0  0  0  0  0  0  0  0  0  0
   40.7440   29.9580   42.0440 N   0  0  0  0  0  0  0  0  0  0  0  0
   40.7880   28.7910   42.7290 C   0  0  0  0  0  0  0  0  0  0  0  0
   39.8230   27.8480   42.5600 N   0  0  0  0  0  0  0  0  0  0  0  0
   38.0590   27.3070   41.5920 H   0  0  0  0  0  0  0  0  0  0  0  0
   41.6170   28.6440   43.4070 H   0  0  0  0  0  0  0  0  0  0  0  0
   39.6710   31.4270   40.4500 N   0  0  0  0  0  0  0  0  0  0  0  0
   40.3060   31.5680   39.1700 C   0  0  0  0  0  3  0  0  0  0  0  0
   41.3330   31.1150   39.3090 H   0  0  0  0  0  0  0  0  0  0  0  0
   40.3990   32.9330   38.6410 C   0  0  0  0  0  3  0  0  0  0  0  0
   41.4630   33.1960   38.4470 H   0  0  0  0  0  0  0  0  0  0  0  0
   39.8060   34.0080   39.3120 N   0  0  0  0  0  0  0  0  0  0  0  0
   40.3640   34.8880   39.2600 H   0  0  0  0  0  0  0  0  0  0  0  0
   39.2590   33.8610   40.5820 C   0  0  0  0  0  2  0  0  0  0  0  0
   38.9380   32.4850   41.0540 C   0  0  0  0  0  2  0  0  0  0  0  0
   37.6720   29.4290   40.1280 O   0  0  0  0  0  0  0  0  0  0  0  0
   35.0890   29.2110   39.6240 O   0  0  0  0  0  0  0  0  0  0  0  0
   36.0610   29.5170   40.7180 P   0  0  0  0  0  0  0  0  0  0  0  0
   35.8070   28.3940   41.9570 O   0  0  0  0  0  0  0  0  0  0  0  0
   36.0140   27.4940   41.6530 H   0  0  0  0  0  0  0  0  0  0  0  0
   35.7460   31.0650   41.3280 O   0  0  0  0  0  0  0  0  0  0  0  0
   35.4270   31.0620   42.2600 H   0  0  0  0  0  0  0  0  0  0  0  0
  1  6  1  0  0  0  0
  2  3  1  0  0  0  0
  2  1  2  0  0  0  0
  3  4  2  0  0  0  0
  4  5  1  0  0  0  0
  5  8  1  0  0  0  0
  6  5  2  0  0  0  0
  7  1  1  0  0  0  0
  9 17  1  0  0  0  0
  9  3  1  0  0  0  0
 10 11  1  0  0  0  0
 10  9  1  0  0  0  0
 12 10  1  0  0  0  0
 12 14  1  0  0  0  0
 13 12  1  0  0  0  0
 14 16  1  0  0  0  0
 15 14  1  0  0  0  0
 16 17  1  0  0  0  0
 18 20  1  0  0  0  0
 18  2  1  0  0  0  0
 19 20  2  0  0  0  0
 20 23  1  0  0  0  0
 20 21  1  0  0  0  0
 22 21  1  0  0  0  0
 23 24  1  0  0  0  0
M  END
>  <minimizedAffinity>
-4.51587963

$$$$

 OpenBabel03252502173D

 24 25  0  0  0  0  0  0  0  0999 V2000
   38.0950   29.6720   42.6170 C   0  0  0  0  0  0  0  0  0  0  0  0
   38.1860   29.7160   41.2190 C   0  0  0  0  0  0  0  0  0  0  0  0
   37.5430   28.7140   40.4840 C   0  0  0  0  0  0  0  0  0  0  0  0
   36.8650   27.7490   41.1440 N   0  0  0  0  0  0  0  0  0  0  0  0
   36.7970   27.7360   42.4970 C   0  0  0  0  0  0  0  0  0  0  0  0
   37.4130   28.6990   43.2330 N   0  0  0  0  0  0  0  0  0  0  0  0
   38.5770   30.4270   43.2270 H   0  0  0  0  0  0  0  0  0  0  0  0
   36.2370   26.9350   42.9580 H   0  0  0  0  0  0  0  0  0  0  0  0
   37.6310   28.7540   39.0830 N   0  0  0  0  0  0  0  0  0  0  0  0
   38.7230   28.1380   38.3830 C   0  0  0  0  0  3  0  0  0  0  0  0
   39.6450   28.4480   38.9620 H   0  0  0  0  0  0  0  0  0  0  0  0
   38.8560   28.4780   36.9620 C   0  0  0  0  0  3  0  0  0  0  0  0
   39.8590   28.9200   36.7670 H   0  0  0  0  0  0  0  0  0  0  0  0
   37.9020   29.2760   36.3200 N   0  0  0  0  0  0  0  0  0  0  0  0
   38.3110   29.9220   35.6110 H   0  0  0  0  0  0  0  0  0  0  0  0
   36.8930   29.9170   37.0290 C   0  0  0  0  0  2  0  0  0  0  0  0
   36.5820   29.4330   38.4030 C   0  0  0  0  0  2  0  0  0  0  0  0
   38.9050   30.7480   40.6610 O   0  0  0  0  0  0  0  0  0  0  0  0
   38.4230   32.7280   38.9820 O   0  0  0  0  0  0  0  0  0  0  0  0
   38.1930   32.2870   40.3920 P   0  0  0  0  0  0  0  0  0  0  0  0
   36.5220   32.2330   40.6450 O   0  0  0  0  0  0  0  0  0  0  0  0
   36.1090   31.5590   40.0800 H   0  0  0  0  0  0  0  0  0  0  0  0
   38.8570   33.4310   41.4490 O   0  0  0  0  0  0  0  0  0  0  0  0
   38.1830   33.9040   41.9900 H   0  0  0  0  0  0  0  0  0  0  0  0
  1  7  1  0  0  0  0
  1  6  1  0  0  0  0
  2  1  2  0  0  0  0
  3  4  2  0  0  0  0
  3  2  1  0  0  0  0
  4  5  1  0  0  0  0
  5  8  1  0  0  0  0
  5  6  2  0  0  0  0
  9  3  1  0  0  0  0
 10 11  1  0  0  0  0
 10  9  1  0  0  0  0
 12 10  1  0  0  0  0
 13 12  1  0  0  0  0
 14 12  1  0  0  0  0
 14 16  1  0  0  0  0
 15 14  1  0  0  0  0
 16 17  1  0  0  0  0
 17  9  1  0  0  0  0
 18  2  1  0  0  0  0
 19 20  2  0  0  0  0
 20 21  1  0  0  0  0
 20 18  1  0  0  0  0
 20 23  1  0  0  0  0
 22 21  1  0  0  0  0
 23 24  1  0  0  0  0
M  END
>  <minimizedAffinity>
-4.492414

$$$$

 OpenBabel03252502173D

 24 25  0  0  0  0  0  0  0  0999 V2000
   37.0880   28.7140   37.2770 C   0  0  0  0  0  0  0  0  0  0  0  0
   37.4390   29.7040   38.2050 C   0  0  0  0  0  0  0  0  0  0  0  0
   38.7990   29.9420   38.4310 C   0  0  0  0  0  0  0  0  0  0  0  0
   39.7150   29.2150   37.7530 N   0  0  0  0  0  0  0  0  0  0  0  0
   39.3400   28.2640   36.8630 C   0  0  0  0  0  0  0  0  0  0  0  0
   38.0250   28.0150   36.6260 N   0  0  0  0  0  0  0  0  0  0  0  0
   36.0470   28.4950   37.0690 H   0  0  0  0  0  0  0  0  0  0  0  0
   40.1250   27.7220   36.3570 H   0  0  0  0  0  0  0  0  0  0  0  0
   39.1580   30.9340   39.3600 N   0  0  0  0  0  0  0  0  0  0  0  0
   39.4550   30.6070   40.7260 C   0  0  0  0  0  3  0  0  0  0  0  0
   38.6360   29.8910   41.0340 H   0  0  0  0  0  0  0  0  0  0  0  0
   39.5430   31.7370   41.6570 C   0  0  0  0  0  3  0  0  0  0  0  0
   38.8130   31.6060   42.4880 H   0  0  0  0  0  0  0  0  0  0  0  0
   39.4420   33.0570   41.2010 N   0  0  0  0  0  0  0  0  0  0  0  0
   38.9350   33.6860   41.8600 H   0  0  0  0  0  0  0  0  0  0  0  0
   39.0850   33.3470   39.8890 C   0  0  0  0  0  2  0  0  0  0  0  0
   39.2090   32.2680   38.8710 C   0  0  0  0  0  2  0  0  0  0  0  0
   36.4180   30.3780   38.8320 O   0  0  0  0  0  0  0  0  0  0  0  0
   36.4900   28.6140   40.7970 O   0  0  0  0  0  0  0  0  0  0  0  0
   35.7060   29.7750   40.2740 P   0  0  0  0  0  0  0  0  0  0  0  0
   35.6840   30.9610   41.4800 O   0  0  0  0  0  0  0  0  0  0  0  0
   36.5800   31.2940   41.6520 H   0  0  0  0  0  0  0  0  0  0  0  0
   34.1130   29.2840   39.9790 O   0  0  0  0  0  0  0  0  0  0  0  0
   33.4530   29.7150   40.5700 H   0  0  0  0  0  0  0  0  0  0  0  0
  1  2  1  0  0  0  0
  2  3  2  0  0  0  0
  2 18  1  0  0  0  0
  3  9  1  0  0  0  0
  4  3  1  0  0  0  0
  5  4  2  0  0  0  0
  6  5  1  0  0  0  0
  6  1  2  0  0  0  0
  7  1  1  0  0  0  0
  8  5  1  0  0  0  0
  9 10  1  0  0  0  0
 10 11  1  0  0  0  0
 10 12  1  0  0  0  0
 12 13  1  0  0  0  0
 14 12  1  0  0  0  0
 14 15  1  0  0  0  0
 16 14  1  0  0  0  0
 17  9  1  0  0  0  0
 17 16  1  0  0  0  0
 18 20  1  0  0  0  0
 20 19  2  0  0  0  0
 20 21  1  0  0  0  0
 21 22  1  0  0  0  0
 23 20  1  0  0  0  0
 23 24  1  0  0  0  0
M  END
>  <minimizedAffinity>
-4.47025681

$$$$

 OpenBabel03252502173D

 24 25  0  0  0  0  0  0  0  0999 V2000
   36.6250   30.2020   37.9920 C   0  0  0  0  0  0  0  0  0  0  0  0
   37.3550   29.8910   39.1470 C   0  0  0  0  0  0  0  0  0  0  0  0
   36.9080   28.8320   39.9450 C   0  0  0  0  0  0  0  0  0  0  0  0
   35.7990   28.1550   39.5750 N   0  0  0  0  0  0  0  0  0  0  0  0
   35.1160   28.4820   38.4520 C   0  0  0  0  0  0  0  0  0  0  0  0
   35.5300   29.5070   37.6600 N   0  0  0  0  0  0  0  0  0  0  0  0
   36.9340   31.0140   37.3430 H   0  0  0  0  0  0  0  0  0  0  0  0
   34.2380   27.8980   38.2170 H   0  0  0  0  0  0  0  0  0  0  0  0
   37.6370   28.5160   41.1040 N   0  0  0  0  0  0  0  0  0  0  0  0
   38.7300   27.5850   41.0690 C   0  0  0  0  0  3  0  0  0  0  0  0
   38.3470   26.7170   40.4530 H   0  0  0  0  0  0  0  0  0  0  0  0
   39.2300   27.1260   42.3700 C   0  0  0  0  0  3  0  0  0  0  0  0
   39.1660   26.0160   42.4340 H   0  0  0  0  0  0  0  0  0  0  0  0
   38.7270   27.6560   43.5640 N   0  0  0  0  0  0  0  0  0  0  0  0
   38.6500   26.9520   44.3300 H   0  0  0  0  0  0  0  0  0  0  0  0
   37.6240   28.5020   43.5760 C   0  0  0  0  0  2  0  0  0  0  0  0
   37.2330   29.1670   42.3020 C   0  0  0  0  0  2  0  0  0  0  0  0
   38.4680   30.6520   39.4190 O   0  0  0  0  0  0  0  0  0  0  0  0
   39.1860   32.2940   41.3590 O   0  0  0  0  0  0  0  0  0  0  0  0
   38.3320   32.2070   40.1350 P   0  0  0  0  0  0  0  0  0  0  0  0
   38.8470   33.4130   39.0660 O   0  0  0  0  0  0  0  0  0  0  0  0
   39.7590   33.2470   38.7740 H   0  0  0  0  0  0  0  0  0  0  0  0
   36.7220   32.5180   40.5550 O   0  0  0  0  0  0  0  0  0  0  0  0
   36.3680   33.3510   40.1640 H   0  0  0  0  0  0  0  0  0  0  0  0
  1  2  1  0  0  0  0
  2 18  1  0  0  0  0
  2  3  2  0  0  0  0
  3  9  1  0  0  0  0
  4  3  1  0  0  0  0
  5  4  2  0  0  0  0
  6  1  2  0  0  0  0
  6  5  1  0  0  0  0
  7  1  1  0  0  0  0
  8  5  1  0  0  0  0
  9 17  1  0  0  0  0
 10  9  1  0  0  0  0
 10 12  1  0  0  0  0
 11 10  1  0  0  0  0
 12 13  1  0  0  0  0
 12 14  1  0  0  0  0
 14 16  1  0  0  0  0
 14 15  1  0  0  0  0
 17 16  1  0  0  0  0
 18 20  1  0  0  0  0
 20 23  1  0  0  0  0
 20 19  2  0  0  0  0
 21 20  1  0  0  0  0
 22 21  1  0  0  0  0
 24 23  1  0  0  0  0
M  END
>  <minimizedAffinity>
-4.44601965

$$$$

 OpenBabel03252502173D

 24 25  0  0  0  0  0  0  0  0999 V2000
   40.4420   29.0600   41.9910 C   0  0  0  0  0  0  0  0  0  0  0  0
   39.6210   30.1060   41.5480 C   0  0  0  0  0  0  0  0  0  0  0  0
   40.0550   30.8700   40.4600 C   0  0  0  0  0  0  0  0  0  0  0  0
   41.2400   30.5730   39.8800 N   0  0  0  0  0  0  0  0  0  0  0  0
   42.0090   29.5540   40.3330 C   0  0  0  0  0  0  0  0  0  0  0  0
   41.6090   28.7970   41.3890 N   0  0  0  0  0  0  0  0  0  0  0  0
   40.1470   28.4420   42.8300 H   0  0  0  0  0  0  0  0  0  0  0  0
   42.9440   29.3730   39.8220 H   0  0  0  0  0  0  0  0  0  0  0  0
   39.2360   31.9200   40.0120 N   0  0  0  0  0  0  0  0  0  0  0  0
   39.2910   33.2220   40.6150 C   0  0  0  0  0  3  0  0  0  0  0  0
   39.3010   33.0200   41.7290 H   0  0  0  0  0  0  0  0  0  0  0  0
   38.2100   34.1470   40.2580 C   0  0  0  0  0  3  0  0  0  0  0  0
   37.6750   34.4820   41.1760 H   0  0  0  0  0  0  0  0  0  0  0  0
   37.2480   33.7970   39.3030 N   0  0  0  0  0  0  0  0  0  0  0  0
   36.2930   34.1520   39.5270 H   0  0  0  0  0  0  0  0  0  0  0  0
   37.1730   32.5100   38.7840 C   0  0  0  0  0  2  0  0  0  0  0  0
   38.3580   31.6200   38.9340 C   0  0  0  0  0  2  0  0  0  0  0  0
   38.4380   30.3120   42.2190 O   0  0  0  0  0  0  0  0  0  0  0  0
   37.2370   28.6670   40.5380 O   0  0  0  0  0  0  0  0  0  0  0  0
   37.0020   29.4860   41.7670 P   0  0  0  0  0  0  0  0  0  0  0  0
   36.4970   28.4350   42.9920 O   0  0  0  0  0  0  0  0  0  0  0  0
   37.2010   27.8040   43.2170 H   0  0  0  0  0  0  0  0  0  0  0  0
   35.7590   30.5950   41.4680 O   0  0  0  0  0  0  0  0  0  0  0  0
   34.9470   30.4280   42.0000 H   0  0  0  0  0  0  0  0  0  0  0  0
  1  7  1  0  0  0  0
  2  1  1  0  0  0  0
  2 18  1  0  0  0  0
  3  2  2  0  0  0  0
  4  5  2  0  0  0  0
  4  3  1  0  0  0  0
  5  6  1  0  0  0  0
  6  1  2  0  0  0  0
  8  5  1  0  0  0  0
  9  3  1  0  0  0  0
  9 10  1  0  0  0  0
 10 11  1  0  0  0  0
 12 10  1  0  0  0  0
 12 13  1  0  0  0  0
 14 15  1  0  0  0  0
 14 12  1  0  0  0  0
 16 17  1  0  0  0  0
 16 14  1  0  0  0  0
 17  9  1  0  0  0  0
 19 20  2  0  0  0  0
 20 18  1  0  0  0  0
 20 21  1  0  0  0  0
 21 22  1  0  0  0  0
 23 20  1  0  0  0  0
 23 24  1  0  0  0  0
M  END
>  <minimizedAffinity>
-4.42193365

$$$$
