
 OpenBabel03252508453D

 45 47  0  0  0  0  0  0  0  0999 V2000
   42.6860   31.5260   42.5660 N   0  0  0  0  0  0  0  0  0  0  0  0
   43.0180   31.7300   43.5270 H   0  0  0  0  0  0  0  0  0  0  0  0
   43.0520   32.5460   41.6160 C   0  0  0  0  0  0  0  0  0  0  0  0
   43.5620   32.1560   40.7130 H   0  0  0  0  0  0  0  0  0  0  0  0
   42.1050   33.0250   41.2500 H   0  0  0  0  0  0  0  0  0  0  0  0
   43.6580   34.9640   41.8760 C   0  0  0  0  0  0  0  0  0  0  0  0
   43.9180   33.6260   42.1790 C   0  0  0  0  0  0  0  0  0  0  0  0
   44.9730   33.3370   42.9960 C   0  0  0  0  0  0  0  0  0  0  0  0
   45.7580   34.3310   43.5060 C   0  0  0  0  0  0  0  0  0  0  0  0
   45.5260   35.6520   43.2260 C   0  0  0  0  0  0  0  0  0  0  0  0
   44.4480   35.9200   42.3940 C   0  0  0  0  0  0  0  0  0  0  0  0
   45.2220   32.3110   43.2630 H   0  0  0  0  0  0  0  0  0  0  0  0
   46.6050   34.1430   44.1600 H   0  0  0  0  0  0  0  0  0  0  0  0
   46.1260   36.4720   43.6120 H   0  0  0  0  0  0  0  0  0  0  0  0
   44.2000   36.9410   42.1250 H   0  0  0  0  0  0  0  0  0  0  0  0
   40.2350   35.8160   40.5100 C   0  0  0  0  0  0  0  0  0  0  0  0
   41.2630   35.5960   41.4530 C   0  0  0  0  0  0  0  0  0  0  0  0
   42.5200   35.2180   40.9970 C   0  0  0  0  0  0  0  0  0  0  0  0
   42.6860   35.0830   39.6620 N   0  0  0  0  0  0  0  0  0  0  0  0
   41.6930   35.2970   38.7710 C   0  0  0  0  0  0  0  0  0  0  0  0
   40.4810   35.6610   39.2090 N   0  0  0  0  0  0  0  0  0  0  0  0
   39.2940   36.1050   40.9620 H   0  0  0  0  0  0  0  0  0  0  0  0
   41.1760   35.6920   42.5260 H   0  0  0  0  0  0  0  0  0  0  0  0
   41.8130   35.1930   37.7020 H   0  0  0  0  0  0  0  0  0  0  0  0
   41.0070   31.1910   42.5480 S   0  0  0  0  0  0  0  0  0  0  0  0
   40.2010   32.4610   42.5130 O   0  0  0  0  0  0  0  0  0  0  0  0
   39.6480   32.7400   41.7480 H   0  0  0  0  0  0  0  0  0  0  0  0
   40.6200   30.3650   43.7260 O   0  0  0  0  0  0  0  0  0  0  0  0
   40.1710   30.7960   44.5160 H   0  0  0  0  0  0  0  0  0  0  0  0
   40.6990   30.3050   41.1630 O   0  0  0  0  0  0  0  0  0  0  0  0
   40.2230   29.0560   41.5210 C   0  0  0  0  0  0  0  0  0  0  0  0
   39.2920   28.8600   40.9460 H   0  0  0  0  0  0  0  0  0  0  0  0
   39.9940   28.9320   42.5800 H   0  0  0  0  0  0  0  0  0  0  0  0
   41.2300   28.0020   41.0370 C   0  0  0  0  0  0  0  0  0  0  0  0
   42.1360   28.1920   41.6680 H   0  0  0  0  0  0  0  0  0  0  0  0
   41.5390   28.2230   40.0090 H   0  0  0  0  0  0  0  0  0  0  0  0
   40.8240   26.6810   41.1610 N   0  0  0  0  0  0  0  0  0  0  0  0
   41.0240   25.7420   40.1470 C   0  0  0  0  0  3  0  0  0  0  0  0
   42.0430   25.7990   39.7290 H   0  0  0  0  0  0  0  0  0  0  0  0
   40.8730   24.3470   40.7520 C   0  0  0  0  0  3  0  0  0  0  0  0
   41.6060   24.1990   41.5790 H   0  0  0  0  0  0  0  0  0  0  0  0
   39.5420   24.1310   41.2810 N   0  0  0  0  0  0  0  0  0  0  0  0
   39.6310   23.4450   42.0660 H   0  0  0  0  0  0  0  0  0  0  0  0
   38.9780   25.3360   41.8510 C   0  0  0  0  0  2  0  0  0  0  0  0
   40.0900   26.2900   42.3050 C   0  0  0  0  0  2  0  0  0  0  0  0
  1  2  1  0  0  0  0
  3  7  1  0  0  0  0
  3  1  1  0  0  0  0
  4  3  1  0  0  0  0
  5  3  1  0  0  0  0
  6  7  2  0  0  0  0
  6 11  1  0  0  0  0
  7  8  1  0  0  0  0
  8 12  1  0  0  0  0
  8  9  2  0  0  0  0
  9 13  1  0  0  0  0
 10  9  1  0  0  0  0
 10 14  1  0  0  0  0
 11 10  2  0  0  0  0
 15 11  1  0  0  0  0
 16 22  1  0  0  0  0
 16 17  1  0  0  0  0
 17 23  1  0  0  0  0
 18 17  2  0  0  0  0
 18  6  1  0  0  0  0
 19 18  1  0  0  0  0
 20 21  1  0  0  0  0
 20 19  2  0  0  0  0
 21 16  2  0  0  0  0
 24 20  1  0  0  0  0
 25  1  1  0  0  0  0
 25 28  1  0  0  0  0
 26 25  1  0  0  0  0
 27 26  1  0  0  0  0
 28 29  1  0  0  0  0
 30 31  1  0  0  0  0
 30 25  1  0  0  0  0
 31 33  1  0  0  0  0
 32 31  1  0  0  0  0
 34 37  1  0  0  0  0
 34 31  1  0  0  0  0
 34 35  1  0  0  0  0
 36 34  1  0  0  0  0
 37 45  1  0  0  0  0
 38 40  1  0  0  0  0
 38 37  1  0  0  0  0
 39 38  1  0  0  0  0
 40 42  1  0  0  0  0
 40 41  1  0  0  0  0
 42 44  1  0  0  0  0
 42 43  1  0  0  0  0
 44 45  1  0  0  0  0
M  END
>  <minimizedAffinity>
-4.65020466

>  <minimizedRMSD>
0.409301788

$$$$
