
     RDKit          3D

 30 31  0  0  0  0  0  0  0  0999 V2000
   44.5581   36.0498   44.4888 C   0  0  0  0  0  0  0  0  0  0  0  0
   45.2226   35.9500   43.2386 C   0  0  0  0  0  0  0  0  0  0  0  0
   46.0815   34.8770   43.0175 C   0  0  0  0  0  0  0  0  0  0  0  0
   46.2317   33.9744   44.0352 N   0  0  0  0  0  0  0  0  0  0  0  0
   45.5892   34.0918   45.2133 C   0  0  0  0  0  0  0  0  0  0  0  0
   44.7675   35.1100   45.4370 N   0  0  0  0  0  0  0  0  0  0  0  0
   46.7876   34.7430   41.7302 C   0  0  0  0  0  0  0  0  0  0  0  0
   48.1799   35.3289   41.8804 C   0  0  0  0  0  0  0  0  0  0  0  0
   43.8938   36.8907   44.6437 H   0  0  0  0  0  0  0  0  0  0  0  0
   45.0395   36.7082   42.5033 H   0  0  0  0  0  0  0  0  0  0  0  0
   45.8261   33.2882   45.9024 H   0  0  0  0  0  0  0  0  0  0  0  0
   46.8427   33.6998   41.3626 H   0  0  0  0  0  0  0  0  0  0  0  0
   46.2256   35.3295   40.9772 H   0  0  0  0  0  0  0  0  0  0  0  0
   48.7394   34.7712   42.6524 H   0  0  0  0  0  0  0  0  0  0  0  0
   48.1137   36.4188   42.0722 H   0  0  0  0  0  0  0  0  0  0  0  0
   48.9383   35.2265   40.6297 N   0  0  0  0  0  0  0  0  0  0  0  0
   48.3919   36.2350   39.7754 C   0  0  1  0  0  0  0  0  0  0  0  0
   47.2775   36.2678   39.9289 H   0  0  0  0  0  0  0  0  0  0  0  0
   48.7351   36.1023   38.3234 C   0  0  2  0  0  0  0  0  0  0  0  0
   49.6440   36.7069   38.1250 H   0  0  0  0  0  0  0  0  0  0  0  0
   48.8809   34.7572   37.8549 N   0  0  0  0  0  0  0  0  0  0  0  0
   48.0013   34.2910   37.6114 H   0  0  0  0  0  0  0  0  0  0  0  0
   49.6480   33.9475   38.7646 C   0  0  0  0  0  0  0  0  0  0  0  0
   48.8817   33.9005   40.0783 C   0  0  0  0  0  0  0  0  0  0  0  0
   48.7675   37.2187   40.1390 H   0  0  0  0  0  0  0  0  0  0  0  0
   47.9200   36.5723   37.7345 H   0  0  0  0  0  0  0  0  0  0  0  0
   50.6611   34.3812   38.9014 H   0  0  0  0  0  0  0  0  0  0  0  0
   49.7616   32.9404   38.3071 H   0  0  0  0  0  0  0  0  0  0  0  0
   47.8642   33.5349   39.8529 H   0  0  0  0  0  0  0  0  0  0  0  0
   49.4736   33.2298   40.7302 H   0  0  0  0  0  0  0  0  0  0  0  0
  1  6  2  0
  2  1  1  0
  3  2  2  0
  3  4  1  0
  4  5  2  0
  5  6  1  0
  7  8  1  0
  7  3  1  0
  1  9  1  0
  2 10  1  0
  5 11  1  0
  7 12  1  0
  7 13  1  0
  8 14  1  0
  8 15  1  0
 16 17  1  0
 17 18  1  6
 17 19  1  0
 19 20  1  1
 19 21  1  0
 21 22  1  0
 21 23  1  0
 23 24  1  0
 24 16  1  0
 17 25  1  0
 19 26  1  0
 23 27  1  0
 23 28  1  0
 24 29  1  0
 24 30  1  0
  8 16  1  0
M  ISO  8   9  14  10  14  11  14  12   8  13   8  14   8  15   8  18   8
M  ISO  2  20   8  22   5
M  END
>  <DihAtoms>  (1) 
6,7,15,16

>  <DihDeg>  (1) 
179.99951318773853

$$$$
