
     RDKit          3D

 51 53  0  0  0  0  0  0  0  0999 V2000
   43.6540   34.9619   41.8774 C   0  0  0  0  0  0  0  0  0  0  0  0
   43.9138   33.6258   42.1868 C   0  0  0  0  0  0  0  0  0  0  0  0
   44.9698   33.3403   43.0026 C   0  0  0  0  0  0  0  0  0  0  0  0
   45.7567   34.3363   43.5074 C   0  0  0  0  0  0  0  0  0  0  0  0
   45.5254   35.6563   43.2210 C   0  0  0  0  0  0  0  0  0  0  0  0
   44.4458   35.9196   42.3889 C   0  0  0  0  0  0  0  0  0  0  0  0
   40.2273   35.8028   40.5142 C   0  0  0  0  0  0  0  0  0  0  0  0
   41.2569   35.5862   41.4559 C   0  0  0  0  0  0  0  0  0  0  0  0
   42.5154   35.2132   40.9993 C   0  0  0  0  0  0  0  0  0  0  0  0
   42.6812   35.0791   39.6642 N   0  0  0  0  0  0  0  0  0  0  0  0
   41.6860   35.2899   38.7741 C   0  0  0  0  0  0  0  0  0  0  0  0
   40.4726   35.6491   39.2134 N   0  0  0  0  0  0  0  0  0  0  0  0
   43.0464   32.5429   41.6306 C   0  0  0  0  0  0  0  0  0  0  0  0
   42.7031   31.5152   42.5802 N   0  0  0  0  0  0  0  0  0  0  0  0
   41.0325   31.1406   42.5597 S   0  0  0  0  0  0  0  0  0  0  0  0
   40.1980   32.3896   42.4624 O   0  0  0  0  0  0  0  0  0  0  0  0
   40.6500   30.3590   43.7694 O   0  0  0  0  0  0  0  0  0  0  0  0
   40.7584   30.1896   41.2117 O   0  0  0  0  0  0  0  0  0  0  0  0
   40.0741   29.0491   41.5940 C   0  0  0  0  0  0  0  0  0  0  0  0
   40.9276   27.8295   41.2177 C   0  0  0  0  0  0  0  0  0  0  0  0
   45.2188   32.3145   43.2749 H   0  0  0  0  0  0  0  0  0  0  0  0
   46.6050   34.1505   44.1601 H   0  0  0  0  0  0  0  0  0  0  0  0
   46.1261   36.4772   43.6017 H   0  0  0  0  0  0  0  0  0  0  0  0
   44.1979   36.9399   42.1159 H   0  0  0  0  0  0  0  0  0  0  0  0
   39.2858   36.0884   40.9657 H   0  0  0  0  0  0  0  0  0  0  0  0
   41.1704   35.6806   42.5290 H   0  0  0  0  0  0  0  0  0  0  0  0
   41.8063   35.1870   37.7052 H   0  0  0  0  0  0  0  0  0  0  0  0
   43.5439   32.1628   40.7165 H   0  0  0  0  0  0  0  0  0  0  0  0
   42.0904   33.0176   41.2826 H   0  0  0  0  0  0  0  0  0  0  0  0
   43.0289   31.7253   43.5413 H   0  0  0  0  0  0  0  0  0  0  0  0
   39.6485   32.6245   41.6801 H   0  0  0  0  0  0  0  0  0  0  0  0
   40.1836   30.8129   44.5350 H   0  0  0  0  0  0  0  0  0  0  0  0
   39.1562   28.9690   40.9719 H   0  0  0  0  0  0  0  0  0  0  0  0
   39.7726   29.0169   42.6410 H   0  0  0  0  0  0  0  0  0  0  0  0
   41.8835   27.9907   41.7804 H   0  0  0  0  0  0  0  0  0  0  0  0
   41.2027   27.8763   40.1584 H   0  0  0  0  0  0  0  0  0  0  0  0
   40.3837   26.5928   41.5358 N   0  0  0  0  0  0  0  0  0  0  0  0
   40.9574   25.3945   41.1083 C   0  0  2  0  0  0  0  0  0  0  0  0
   42.0513   25.3878   41.2538 H   0  0  0  0  0  0  0  0  0  0  0  0
   40.3927   24.2622   41.9650 C   0  0  2  0  0  0  0  0  0  0  0  0
   40.6110   24.4437   43.0433 H   0  0  0  0  0  0  0  0  0  0  0  0
   38.9587   24.1319   41.8077 N   0  0  0  0  0  0  0  0  0  0  0  0
   38.5847   23.7457   42.7041 H   0  0  0  0  0  0  0  0  0  0  0  0
   38.3118   25.4119   41.6103 C   0  0  0  0  0  0  0  0  0  0  0  0
   39.1503   26.5396   42.2261 C   0  0  0  0  0  0  0  0  0  0  0  0
   40.7481   25.1171   40.0436 H   0  0  0  0  0  0  0  0  0  0  0  0
   40.8436   23.2931   41.6751 H   0  0  0  0  0  0  0  0  0  0  0  0
   37.2926   25.4730   42.0265 H   0  0  0  0  0  0  0  0  0  0  0  0
   38.1991   25.5611   40.5176 H   0  0  0  0  0  0  0  0  0  0  0  0
   38.6019   27.4760   42.1113 H   0  0  0  0  0  0  0  0  0  0  0  0
   39.3243   26.2546   43.2914 H   0  0  0  0  0  0  0  0  0  0  0  0
  1  2  1  0
  1  6  2  0
  2  3  2  0
  3  4  1  0
  5  4  2  0
  6  5  1  0
  7  8  2  0
  9  8  1  0
  9  1  1  0
 10  9  2  0
 11 12  2  0
 11 10  1  0
 12  7  1  0
 13  2  1  0
 13 14  1  0
 15 14  1  0
 15 17  1  0
 16 15  1  0
 18 19  1  0
 18 15  1  0
 20 19  1  0
  3 21  1  0
  4 22  1  0
  5 23  1  0
  6 24  1  0
  7 25  1  0
  8 26  1  0
 11 27  1  0
 13 28  1  0
 13 29  1  0
 14 30  1  0
 16 31  1  0
 17 32  1  0
 19 33  1  0
 19 34  1  0
 20 35  1  0
 20 36  1  0
 37 38  1  0
 38 39  1  6
 38 40  1  0
 40 41  1  1
 40 42  1  0
 42 43  1  0
 42 44  1  0
 44 45  1  0
 45 37  1  0
 38 46  1  0
 40 47  1  0
 44 48  1  0
 44 49  1  0
 45 50  1  0
 45 51  1  0
 20 37  1  0
M  ISO  8  21  14  22  14  23  14  24  14  25  14  26  14  27  14  28   8
M  ISO  8  29   8  30   5  31   3  32   3  33   8  34   8  35   8  36   8
M  ISO  3  39   8  41   8  43   5
M  END
>  <DihAtoms>  (1) 
18,19,36,37

>  <DihDeg>  (1) 
-68.25173125627191

$$$$
