
 OpenBabel03242513103D

 41 45  0  0  0  0  0  0  0  0999 V2000
   36.4280   28.4050   40.2750 C   0  0  0  0  0  0  0  0  0  0  0  0
   37.0500   28.7440   41.4720 C   0  0  0  0  0  0  0  0  0  0  0  0
   37.6040   27.7000   42.2090 C   0  0  0  0  0  0  0  0  0  0  0  0
   37.4880   26.4390   41.6930 N   0  0  0  0  0  0  0  0  0  0  0  0
   36.8880   26.1450   40.5450 C   0  0  0  0  0  0  0  0  0  0  0  0
   36.3450   27.1350   39.8140 N   0  0  0  0  0  0  0  0  0  0  0  0
   35.9860   29.2150   39.6800 H   0  0  0  0  0  0  0  0  0  0  0  0
   35.9610   24.3980   39.0890 C   0  0  0  0  0  0  0  0  0  0  0  0
   36.8260   24.7700   40.0980 C   0  0  0  0  0  0  0  0  0  0  0  0
   37.6740   23.8510   40.7300 C   0  0  0  0  0  0  0  0  0  0  0  0
   37.6800   22.5220   40.3650 C   0  0  0  0  0  0  0  0  0  0  0  0
   38.3400   21.3900   40.7400 N   0  0  0  0  0  0  0  0  0  0  0  0
   37.8630   20.3620   39.9560 C   0  0  0  0  0  0  0  0  0  0  0  0
   36.9400   20.8690   39.1300 N   0  0  0  0  0  0  0  0  0  0  0  0
   36.7960   22.1820   39.3460 C   0  0  0  0  0  0  0  0  0  0  0  0
   35.9470   23.0570   38.7000 C   0  0  0  0  0  0  0  0  0  0  0  0
   35.3240   25.1220   38.6240 H   0  0  0  0  0  0  0  0  0  0  0  0
   38.3520   24.1480   41.5190 H   0  0  0  0  0  0  0  0  0  0  0  0
   39.0640   21.3900   41.4980 H   0  0  0  0  0  0  0  0  0  0  0  0
   38.2120   19.3480   40.0390 H   0  0  0  0  0  0  0  0  0  0  0  0
   35.2900   22.7160   37.9170 H   0  0  0  0  0  0  0  0  0  0  0  0
   38.2800   27.9900   43.4910 C   0  0  0  0  0  0  0  0  0  0  0  0
   38.8580   26.8130   44.0120 F   0  0  0  0  0  0  0  0  0  0  0  0
   39.3150   28.8730   43.2960 F   0  0  0  0  0  0  0  0  0  0  0  0
   37.3560   28.4770   44.3690 F   0  0  0  0  0  0  0  0  0  0  0  0
   37.0860   30.0290   41.8520 O   0  0  0  0  0  0  0  0  0  0  0  0
   37.6760   31.0330   41.1090 C   0  0  0  0  0  0  0  0  0  0  0  0
   36.6000   31.6360   40.4560 C   0  0  0  0  0  0  0  0  0  0  0  0
   37.4160   32.9610   39.4800 S   0  0  0  0  0  0  0  0  0  0  0  0
   39.1200   32.4540   40.1450 C   0  0  0  0  0  0  0  0  0  0  0  0
   38.7980   31.6150   40.7910 N   0  0  0  0  0  0  0  0  0  0  0  0
   35.5110   31.6650   40.2740 H   0  0  0  0  0  0  0  0  0  0  0  0
   40.3110   33.1410   39.7520 N   0  0  0  0  0  0  0  0  0  0  0  0
   41.0490   32.5990   38.6390 C   0  0  0  0  0  3  0  0  0  0  0  0
   41.7190   31.8160   39.0660 H   0  0  0  0  0  0  0  0  0  0  0  0
   41.7690   33.6070   37.8090 C   0  0  0  0  0  3  0  0  0  0  0  0
   42.6960   33.0880   37.4220 H   0  0  0  0  0  0  0  0  0  0  0  0
   42.2350   34.7620   38.5330 N   0  0  0  0  0  0  0  0  0  0  0  0
   42.4060   35.5220   37.8090 H   0  0  0  0  0  0  0  0  0  0  0  0
   41.2530   35.3070   39.4280 C   0  0  0  0  0  2  0  0  0  0  0  0
   40.7520   34.3470   40.4550 C   0  0  0  0  0  2  0  0  0  0  0  0
  1  2  1  0  0  0  0
  2 26  1  0  0  0  0
  2  3  2  0  0  0  0
  3 22  1  0  0  0  0
  4  3  1  0  0  0  0
  5  4  2  0  0  0  0
  6  1  2  0  0  0  0
  6  5  1  0  0  0  0
  7  1  1  0  0  0  0
  8  9  1  0  0  0  0
  9  5  1  0  0  0  0
  9 10  2  0  0  0  0
 10 18  1  0  0  0  0
 11 10  1  0  0  0  0
 11 12  1  0  0  0  0
 12 19  1  0  0  0  0
 13 20  1  0  0  0  0
 13 12  1  0  0  0  0
 14 15  1  0  0  0  0
 14 13  2  0  0  0  0
 15 11  2  0  0  0  0
 16  8  2  0  0  0  0
 16 15  1  0  0  0  0
 17  8  1  0  0  0  0
 21 16  1  0  0  0  0
 22 23  1  0  0  0  0
 22 25  1  0  0  0  0
 24 22  1  0  0  0  0
 27 26  1  0  0  0  0
 28 27  2  0  0  0  0
 29 30  1  0  0  0  0
 29 28  1  0  0  0  0
 30 31  2  0  0  0  0
 31 27  1  0  0  0  0
 32 28  1  0  0  0  0
 33 30  1  0  0  0  0
 33 41  1  0  0  0  0
 34 35  1  0  0  0  0
 34 33  1  0  0  0  0
 36 38  1  0  0  0  0
 36 34  1  0  0  0  0
 37 36  1  0  0  0  0
 38 40  1  0  0  0  0
 39 38  1  0  0  0  0
 40 41  1  0  0  0  0
M  END
>  <minimizedAffinity>
-7.40357018

$$$$

 OpenBabel03242513103D

 41 45  0  0  0  0  0  0  0  0999 V2000
   38.5800   27.6810   40.4590 C   0  0  0  0  0  0  0  0  0  0  0  0
   38.1530   27.2380   41.7060 C   0  0  0  0  0  0  0  0  0  0  0  0
   37.7290   28.2120   42.6070 C   0  0  0  0  0  0  0  0  0  0  0  0
   37.7690   29.5140   42.1880 N   0  0  0  0  0  0  0  0  0  0  0  0
   38.1820   29.9080   40.9890 C   0  0  0  0  0  0  0  0  0  0  0  0
   38.5970   28.9860   40.1000 N   0  0  0  0  0  0  0  0  0  0  0  0
   38.9170   26.9280   39.7360 H   0  0  0  0  0  0  0  0  0  0  0  0
   37.1330   31.8710   39.9500 C   0  0  0  0  0  0  0  0  0  0  0  0
   38.1820   31.3160   40.6550 C   0  0  0  0  0  0  0  0  0  0  0  0
   39.2810   32.0750   41.0780 C   0  0  0  0  0  0  0  0  0  0  0  0
   39.3610   33.4240   40.8030 C   0  0  0  0  0  0  0  0  0  0  0  0
   40.2380   34.4370   41.0440 N   0  0  0  0  0  0  0  0  0  0  0  0
   39.7070   35.5780   40.4820 C   0  0  0  0  0  0  0  0  0  0  0  0
   38.5370   35.2530   39.9190 N   0  0  0  0  0  0  0  0  0  0  0  0
   38.2870   33.9490   40.0910 C   0  0  0  0  0  0  0  0  0  0  0  0
   37.1890   33.2350   39.6590 C   0  0  0  0  0  0  0  0  0  0  0  0
   36.3060   31.2660   39.6410 H   0  0  0  0  0  0  0  0  0  0  0  0
   40.1010   31.6360   41.6310 H   0  0  0  0  0  0  0  0  0  0  0  0
   41.1340   34.2900   41.5680 H   0  0  0  0  0  0  0  0  0  0  0  0
   40.1940   36.5360   40.5220 H   0  0  0  0  0  0  0  0  0  0  0  0
   36.3950   33.7160   39.1110 H   0  0  0  0  0  0  0  0  0  0  0  0
   37.2610   27.8100   43.9510 C   0  0  0  0  0  0  0  0  0  0  0  0
   36.9850   28.9530   44.7300 F   0  0  0  0  0  0  0  0  0  0  0  0
   36.0810   27.1130   43.8570 F   0  0  0  0  0  0  0  0  0  0  0  0
   38.2410   27.0720   44.5480 F   0  0  0  0  0  0  0  0  0  0  0  0
   38.1690   25.9260   41.9770 O   0  0  0  0  0  0  0  0  0  0  0  0
   37.5620   24.9700   41.1840 C   0  0  0  0  0  0  0  0  0  0  0  0
   38.4630   23.9060   41.2010 C   0  0  0  0  0  0  0  0  0  0  0  0
   37.6300   22.6580   40.1430 S   0  0  0  0  0  0  0  0  0  0  0  0
   36.1630   23.8290   39.8530 C   0  0  0  0  0  0  0  0  0  0  0  0
   36.5190   24.6850   40.4560 N   0  0  0  0  0  0  0  0  0  0  0  0
   39.4260   23.4980   41.5600 H   0  0  0  0  0  0  0  0  0  0  0  0
   35.0500   23.4460   39.0410 N   0  0  0  0  0  0  0  0  0  0  0  0
   35.0860   23.8240   37.6510 C   0  0  0  0  0  3  0  0  0  0  0  0
   34.6810   24.8630   37.6030 H   0  0  0  0  0  0  0  0  0  0  0  0
   34.4030   22.8790   36.7210 C   0  0  0  0  0  3  0  0  0  0  0  0
   33.9930   23.5110   35.8780 H   0  0  0  0  0  0  0  0  0  0  0  0
   33.2720   22.1900   37.2870 N   0  0  0  0  0  0  0  0  0  0  0  0
   33.1030   21.3360   36.6770 H   0  0  0  0  0  0  0  0  0  0  0  0
   33.5210   21.6710   38.6020 C   0  0  0  0  0  2  0  0  0  0  0  0
   33.9270   22.6980   39.6060 C   0  0  0  0  0  2  0  0  0  0  0  0
  1  2  1  0  0  0  0
  2 26  1  0  0  0  0
  2  3  2  0  0  0  0
  3 22  1  0  0  0  0
  4  3  1  0  0  0  0
  5  4  2  0  0  0  0
  6  1  2  0  0  0  0
  6  5  1  0  0  0  0
  7  1  1  0  0  0  0
  8  9  1  0  0  0  0
  9  5  1  0  0  0  0
  9 10  2  0  0  0  0
 10 18  1  0  0  0  0
 11 12  1  0  0  0  0
 11 10  1  0  0  0  0
 12 19  1  0  0  0  0
 13 20  1  0  0  0  0
 13 12  1  0  0  0  0
 14 15  1  0  0  0  0
 14 13  2  0  0  0  0
 15 11  2  0  0  0  0
 16  8  2  0  0  0  0
 16 15  1  0  0  0  0
 17  8  1  0  0  0  0
 21 16  1  0  0  0  0
 22 25  1  0  0  0  0
 22 23  1  0  0  0  0
 24 22  1  0  0  0  0
 27 28  2  0  0  0  0
 27 26  1  0  0  0  0
 28 32  1  0  0  0  0
 29 28  1  0  0  0  0
 30 29  1  0  0  0  0
 30 31  2  0  0  0  0
 31 27  1  0  0  0  0
 33 41  1  0  0  0  0
 33 30  1  0  0  0  0
 34 33  1  0  0  0  0
 35 34  1  0  0  0  0
 36 38  1  0  0  0  0
 36 34  1  0  0  0  0
 37 36  1  0  0  0  0
 38 40  1  0  0  0  0
 39 38  1  0  0  0  0
 40 41  1  0  0  0  0
M  END
>  <minimizedAffinity>
-7.31959677

$$$$

 OpenBabel03242513103D

 41 45  0  0  0  0  0  0  0  0999 V2000
   36.9950   28.1440   39.8070 C   0  0  0  0  0  0  0  0  0  0  0  0
   36.9860   27.5900   41.0820 C   0  0  0  0  0  0  0  0  0  0  0  0
   37.2650   28.4490   42.1420 C   0  0  0  0  0  0  0  0  0  0  0  0
   37.5240   29.7570   41.8370 N   0  0  0  0  0  0  0  0  0  0  0  0
   37.5250   30.2590   40.6070 C   0  0  0  0  0  0  0  0  0  0  0  0
   37.2580   29.4500   39.5660 N   0  0  0  0  0  0  0  0  0  0  0  0
   36.7770   27.4830   38.9590 H   0  0  0  0  0  0  0  0  0  0  0  0
   36.9290   32.4690   39.7160 C   0  0  0  0  0  0  0  0  0  0  0  0
   37.8140   31.6620   40.4040 C   0  0  0  0  0  0  0  0  0  0  0  0
   39.0150   32.1530   40.9320 C   0  0  0  0  0  0  0  0  0  0  0  0
   39.3670   33.4780   40.7850 C   0  0  0  0  0  0  0  0  0  0  0  0
   40.4100   34.2760   41.1480 N   0  0  0  0  0  0  0  0  0  0  0  0
   40.1380   35.5420   40.6750 C   0  0  0  0  0  0  0  0  0  0  0  0
   38.9590   35.5000   40.0440 N   0  0  0  0  0  0  0  0  0  0  0  0
   38.4540   34.2610   40.0870 C   0  0  0  0  0  0  0  0  0  0  0  0
   37.2620   33.8150   39.5530 C   0  0  0  0  0  0  0  0  0  0  0  0
   36.0190   32.0660   39.3240 H   0  0  0  0  0  0  0  0  0  0  0  0
   39.7040   31.5180   41.4720 H   0  0  0  0  0  0  0  0  0  0  0  0
   41.2320   33.9120   41.6880 H   0  0  0  0  0  0  0  0  0  0  0  0
   40.7980   36.3780   40.8200 H   0  0  0  0  0  0  0  0  0  0  0  0
   36.6060   34.4860   39.0240 H   0  0  0  0  0  0  0  0  0  0  0  0
   37.2720   27.9250   43.5250 C   0  0  0  0  0  0  0  0  0  0  0  0
   36.0640   27.2450   43.7910 F   0  0  0  0  0  0  0  0  0  0  0  0
   38.2770   27.0020   43.6800 F   0  0  0  0  0  0  0  0  0  0  0  0
   37.4090   28.9750   44.3850 F   0  0  0  0  0  0  0  0  0  0  0  0
   36.7150   26.2850   41.2290 O   0  0  0  0  0  0  0  0  0  0  0  0
   37.4400   25.2780   40.6190 C   0  0  0  0  0  0  0  0  0  0  0  0
   37.1540   24.1520   41.3930 C   0  0  0  0  0  0  0  0  0  0  0  0
   38.1280   22.8360   40.5610 S   0  0  0  0  0  0  0  0  0  0  0  0
   38.7700   24.0750   39.2730 C   0  0  0  0  0  0  0  0  0  0  0  0
   38.2520   24.9780   39.6460 N   0  0  0  0  0  0  0  0  0  0  0  0
   36.6180   23.7200   42.2570 H   0  0  0  0  0  0  0  0  0  0  0  0
   39.6610   23.6730   38.2280 N   0  0  0  0  0  0  0  0  0  0  0  0
   41.0730   23.8300   38.4680 C   0  0  0  0  0  3  0  0  0  0  0  0
   41.3190   24.8810   38.1850 H   0  0  0  0  0  0  0  0  0  0  0  0
   41.9430   22.8180   37.8020 C   0  0  0  0  0  3  0  0  0  0  0  0
   42.9130   23.3480   37.5640 H   0  0  0  0  0  0  0  0  0  0  0  0
   41.4400   22.3280   36.5440 N   0  0  0  0  0  0  0  0  0  0  0  0
   41.9420   21.4080   36.3570 H   0  0  0  0  0  0  0  0  0  0  0  0
   40.0440   21.9950   36.5790 C   0  0  0  0  0  2  0  0  0  0  0  0
   39.1490   23.1230   36.9730 C   0  0  0  0  0  2  0  0  0  0  0  0
  1  2  1  0  0  0  0
  2 26  1  0  0  0  0
  2  3  2  0  0  0  0
  3 22  1  0  0  0  0
  4  3  1  0  0  0  0
  5  4  2  0  0  0  0
  6  1  2  0  0  0  0
  6  5  1  0  0  0  0
  7  1  1  0  0  0  0
  8  9  1  0  0  0  0
  9  5  1  0  0  0  0
  9 10  2  0  0  0  0
 10 18  1  0  0  0  0
 11 10  1  0  0  0  0
 11 12  1  0  0  0  0
 12 19  1  0  0  0  0
 13 20  1  0  0  0  0
 13 12  1  0  0  0  0
 14 15  1  0  0  0  0
 14 13  2  0  0  0  0
 15 11  2  0  0  0  0
 16  8  2  0  0  0  0
 16 15  1  0  0  0  0
 17  8  1  0  0  0  0
 21 16  1  0  0  0  0
 22 24  1  0  0  0  0
 22 23  1  0  0  0  0
 22 25  1  0  0  0  0
 27 26  1  0  0  0  0
 27 28  2  0  0  0  0
 28 32  1  0  0  0  0
 29 28  1  0  0  0  0
 30 31  2  0  0  0  0
 30 29  1  0  0  0  0
 31 27  1  0  0  0  0
 33 34  1  0  0  0  0
 33 30  1  0  0  0  0
 35 34  1  0  0  0  0
 36 34  1  0  0  0  0
 37 36  1  0  0  0  0
 38 40  1  0  0  0  0
 38 36  1  0  0  0  0
 39 38  1  0  0  0  0
 40 41  1  0  0  0  0
 41 33  1  0  0  0  0
M  END
>  <minimizedAffinity>
-7.05567217

$$$$

 OpenBabel03242513103D

 41 45  0  0  0  0  0  0  0  0999 V2000
   37.7060   28.2230   40.0990 C   0  0  0  0  0  0  0  0  0  0  0  0
   37.5880   28.5850   41.4360 C   0  0  0  0  0  0  0  0  0  0  0  0
   37.3580   27.5560   42.3470 C   0  0  0  0  0  0  0  0  0  0  0  0
   37.2680   26.2860   41.8470 N   0  0  0  0  0  0  0  0  0  0  0  0
   37.3850   25.9700   40.5630 C   0  0  0  0  0  0  0  0  0  0  0  0
   37.6090   26.9450   39.6630 N   0  0  0  0  0  0  0  0  0  0  0  0
   37.8890   29.0200   39.3670 H   0  0  0  0  0  0  0  0  0  0  0  0
   38.3770   23.7610   40.1500 C   0  0  0  0  0  0  0  0  0  0  0  0
   37.2720   24.5880   40.1490 C   0  0  0  0  0  0  0  0  0  0  0  0
   36.0050   24.1390   39.7540 C   0  0  0  0  0  0  0  0  0  0  0  0
   35.8080   22.8370   39.3460 C   0  0  0  0  0  0  0  0  0  0  0  0
   34.7630   22.0790   38.9110 N   0  0  0  0  0  0  0  0  0  0  0  0
   35.2540   20.8160   38.6580 C   0  0  0  0  0  0  0  0  0  0  0  0
   36.5630   20.8200   38.9370 N   0  0  0  0  0  0  0  0  0  0  0  0
   36.9430   22.0320   39.3590 C   0  0  0  0  0  0  0  0  0  0  0  0
   38.2050   22.4380   39.7410 C   0  0  0  0  0  0  0  0  0  0  0  0
   39.3330   24.1320   40.4570 H   0  0  0  0  0  0  0  0  0  0  0  0
   35.1410   24.7910   39.7560 H   0  0  0  0  0  0  0  0  0  0  0  0
   33.7930   22.4650   38.8140 H   0  0  0  0  0  0  0  0  0  0  0  0
   34.6420   20.0070   38.3010 H   0  0  0  0  0  0  0  0  0  0  0  0
   39.0360   21.7520   39.7240 H   0  0  0  0  0  0  0  0  0  0  0  0
   37.2220   27.8710   43.7850 C   0  0  0  0  0  0  0  0  0  0  0  0
   38.2760   27.2780   44.5120 F   0  0  0  0  0  0  0  0  0  0  0  0
   37.3260   29.2260   43.9890 F   0  0  0  0  0  0  0  0  0  0  0  0
   36.0270   27.3810   44.2250 F   0  0  0  0  0  0  0  0  0  0  0  0
   37.6980   29.8760   41.7790 O   0  0  0  0  0  0  0  0  0  0  0  0
   38.7340   30.6940   41.3680 C   0  0  0  0  0  0  0  0  0  0  0  0
   39.7940   30.3260   42.1970 C   0  0  0  0  0  0  0  0  0  0  0  0
   41.1490   31.4270   41.6270 S   0  0  0  0  0  0  0  0  0  0  0  0
   40.0100   32.2170   40.3280 C   0  0  0  0  0  0  0  0  0  0  0  0
   39.0930   31.6360   40.5430 N   0  0  0  0  0  0  0  0  0  0  0  0
   40.1640   29.6850   43.0170 H   0  0  0  0  0  0  0  0  0  0  0  0
   40.4770   33.2480   39.4540 N   0  0  0  0  0  0  0  0  0  0  0  0
   40.2560   34.6120   39.8650 C   0  0  0  0  0  3  0  0  0  0  0  0
   39.2280   34.8750   39.5220 H   0  0  0  0  0  0  0  0  0  0  0  0
   41.2970   35.5820   39.4170 C   0  0  0  0  0  3  0  0  0  0  0  0
   40.7610   36.5660   39.2630 H   0  0  0  0  0  0  0  0  0  0  0  0
   41.9120   35.2640   38.1540 N   0  0  0  0  0  0  0  0  0  0  0  0
   42.8280   35.8030   38.1210 H   0  0  0  0  0  0  0  0  0  0  0  0
   42.2820   33.8820   38.0320 C   0  0  0  0  0  2  0  0  0  0  0  0
   41.1510   32.9220   38.1970 C   0  0  0  0  0  2  0  0  0  0  0  0
  1  2  1  0  0  0  0
  2 26  1  0  0  0  0
  2  3  2  0  0  0  0
  3 22  1  0  0  0  0
  4  3  1  0  0  0  0
  5  4  2  0  0  0  0
  6  1  2  0  0  0  0
  6  5  1  0  0  0  0
  7  1  1  0  0  0  0
  8 17  1  0  0  0  0
  9  8  1  0  0  0  0
  9  5  1  0  0  0  0
 10 18  1  0  0  0  0
 10  9  2  0  0  0  0
 11 15  2  0  0  0  0
 11 10  1  0  0  0  0
 12 11  1  0  0  0  0
 13 12  1  0  0  0  0
 13 14  2  0  0  0  0
 14 15  1  0  0  0  0
 15 16  1  0  0  0  0
 16  8  2  0  0  0  0
 19 12  1  0  0  0  0
 20 13  1  0  0  0  0
 21 16  1  0  0  0  0
 22 24  1  0  0  0  0
 22 25  1  0  0  0  0
 22 23  1  0  0  0  0
 27 26  1  0  0  0  0
 27 28  2  0  0  0  0
 28 32  1  0  0  0  0
 29 28  1  0  0  0  0
 30 31  2  0  0  0  0
 30 29  1  0  0  0  0
 31 27  1  0  0  0  0
 33 34  1  0  0  0  0
 33 30  1  0  0  0  0
 35 34  1  0  0  0  0
 36 34  1  0  0  0  0
 37 36  1  0  0  0  0
 38 36  1  0  0  0  0
 39 38  1  0  0  0  0
 40 38  1  0  0  0  0
 40 41  1  0  0  0  0
 41 33  1  0  0  0  0
M  END
>  <minimizedAffinity>
-6.87023783

$$$$

 OpenBabel03242513103D

 41 45  0  0  0  0  0  0  0  0999 V2000
   36.4160   28.0500   40.2400 C   0  0  0  0  0  0  0  0  0  0  0  0
   37.0120   28.5320   41.4010 C   0  0  0  0  0  0  0  0  0  0  0  0
   37.6630   27.6010   42.2050 C   0  0  0  0  0  0  0  0  0  0  0  0
   37.6600   26.2990   41.7850 N   0  0  0  0  0  0  0  0  0  0  0  0
   37.0820   25.8670   40.6700 C   0  0  0  0  0  0  0  0  0  0  0  0
   36.4460   26.7470   39.8750 N   0  0  0  0  0  0  0  0  0  0  0  0
   35.8980   28.7690   39.5930 H   0  0  0  0  0  0  0  0  0  0  0  0
   38.2300   23.6960   40.6930 C   0  0  0  0  0  0  0  0  0  0  0  0
   37.1430   24.4630   40.3260 C   0  0  0  0  0  0  0  0  0  0  0  0
   36.0610   23.9300   39.6140 C   0  0  0  0  0  0  0  0  0  0  0  0
   36.0370   22.6010   39.2470 C   0  0  0  0  0  0  0  0  0  0  0  0
   35.1900   21.7690   38.5780 N   0  0  0  0  0  0  0  0  0  0  0  0
   35.7780   20.5230   38.5540 C   0  0  0  0  0  0  0  0  0  0  0  0
   36.9500   20.6090   39.1940 N   0  0  0  0  0  0  0  0  0  0  0  0
   37.1480   21.8580   39.6330 C   0  0  0  0  0  0  0  0  0  0  0  0
   38.2310   22.3470   40.3330 C   0  0  0  0  0  0  0  0  0  0  0  0
   39.0430   24.1300   41.2370 H   0  0  0  0  0  0  0  0  0  0  0  0
   35.2100   24.5350   39.3300 H   0  0  0  0  0  0  0  0  0  0  0  0
   34.2750   22.0990   38.1850 H   0  0  0  0  0  0  0  0  0  0  0  0
   35.3250   19.6670   38.0870 H   0  0  0  0  0  0  0  0  0  0  0  0
   39.0560   21.7050   40.5970 H   0  0  0  0  0  0  0  0  0  0  0  0
   38.3190   28.0450   43.4540 C   0  0  0  0  0  0  0  0  0  0  0  0
   39.3640   28.9470   43.1590 F   0  0  0  0  0  0  0  0  0  0  0  0
   37.4270   28.7330   44.2420 F   0  0  0  0  0  0  0  0  0  0  0  0
   38.8230   26.9510   44.0930 F   0  0  0  0  0  0  0  0  0  0  0  0
   36.9320   29.8390   41.6850 O   0  0  0  0  0  0  0  0  0  0  0  0
   37.5890   30.8220   40.9680 C   0  0  0  0  0  0  0  0  0  0  0  0
   36.5560   31.6300   40.4930 C   0  0  0  0  0  0  0  0  0  0  0  0
   37.4590   32.9210   39.5490 S   0  0  0  0  0  0  0  0  0  0  0  0
   39.1260   32.1180   39.9740 C   0  0  0  0  0  0  0  0  0  0  0  0
   38.7480   31.2720   40.5780 N   0  0  0  0  0  0  0  0  0  0  0  0
   35.4700   31.8280   40.4370 H   0  0  0  0  0  0  0  0  0  0  0  0
   40.3620   32.6700   39.5100 N   0  0  0  0  0  0  0  0  0  0  0  0
   40.8990   32.1460   38.2800 C   0  0  0  0  0  3  0  0  0  0  0  0
   41.4840   31.2380   38.5610 H   0  0  0  0  0  0  0  0  0  0  0  0
   41.6750   33.1220   37.4630 C   0  0  0  0  0  3  0  0  0  0  0  0
   42.4730   32.5210   36.9320 H   0  0  0  0  0  0  0  0  0  0  0  0
   42.3760   34.1230   38.2270 N   0  0  0  0  0  0  0  0  0  0  0  0
   42.5860   34.9210   37.5560 H   0  0  0  0  0  0  0  0  0  0  0  0
   41.5780   34.7060   39.2690 C   0  0  0  0  0  2  0  0  0  0  0  0
   41.0430   33.7260   40.2600 C   0  0  0  0  0  2  0  0  0  0  0  0
  1  2  1  0  0  0  0
  2 26  1  0  0  0  0
  2  3  2  0  0  0  0
  3 22  1  0  0  0  0
  4  3  1  0  0  0  0
  5  4  2  0  0  0  0
  6  1  2  0  0  0  0
  6  5  1  0  0  0  0
  7  1  1  0  0  0  0
  8 17  1  0  0  0  0
  9  5  1  0  0  0  0
  9  8  2  0  0  0  0
 10  9  1  0  0  0  0
 11 10  2  0  0  0  0
 11 15  1  0  0  0  0
 12 11  1  0  0  0  0
 13 12  1  0  0  0  0
 13 14  2  0  0  0  0
 14 15  1  0  0  0  0
 15 16  2  0  0  0  0
 16 21  1  0  0  0  0
 16  8  1  0  0  0  0
 18 10  1  0  0  0  0
 19 12  1  0  0  0  0
 20 13  1  0  0  0  0
 22 25  1  0  0  0  0
 22 24  1  0  0  0  0
 23 22  1  0  0  0  0
 27 26  1  0  0  0  0
 28 27  2  0  0  0  0
 29 30  1  0  0  0  0
 29 28  1  0  0  0  0
 30 31  2  0  0  0  0
 31 27  1  0  0  0  0
 32 28  1  0  0  0  0
 33 30  1  0  0  0  0
 33 41  1  0  0  0  0
 34 35  1  0  0  0  0
 34 33  1  0  0  0  0
 36 38  1  0  0  0  0
 36 34  1  0  0  0  0
 37 36  1  0  0  0  0
 38 40  1  0  0  0  0
 39 38  1  0  0  0  0
 40 41  1  0  0  0  0
M  END
>  <minimizedAffinity>
-6.82761383

$$$$

 OpenBabel03242513103D

 41 45  0  0  0  0  0  0  0  0999 V2000
   38.4200   30.9970   41.8460 C   0  0  0  0  0  0  0  0  0  0  0  0
   38.2380   31.6190   40.6160 C   0  0  0  0  0  0  0  0  0  0  0  0
   37.9240   30.7970   39.5370 C   0  0  0  0  0  0  0  0  0  0  0  0
   37.8230   29.4550   39.7800 N   0  0  0  0  0  0  0  0  0  0  0  0
   38.0020   28.8880   40.9670 C   0  0  0  0  0  0  0  0  0  0  0  0
   38.3060   29.6600   42.0260 N   0  0  0  0  0  0  0  0  0  0  0  0
   38.6670   31.6280   42.7090 H   0  0  0  0  0  0  0  0  0  0  0  0
   37.1480   26.9120   42.1510 C   0  0  0  0  0  0  0  0  0  0  0  0
   37.8700   27.4530   41.1060 C   0  0  0  0  0  0  0  0  0  0  0  0
   38.4990   26.6550   40.1420 C   0  0  0  0  0  0  0  0  0  0  0  0
   38.4230   25.2800   40.1980 C   0  0  0  0  0  0  0  0  0  0  0  0
   38.8880   24.2280   39.4680 N   0  0  0  0  0  0  0  0  0  0  0  0
   38.4410   23.0770   40.0830 C   0  0  0  0  0  0  0  0  0  0  0  0
   37.7260   23.4350   41.1550 N   0  0  0  0  0  0  0  0  0  0  0  0
   37.6890   24.7690   41.2640 C   0  0  0  0  0  0  0  0  0  0  0  0
   37.0550   25.5210   42.2310 C   0  0  0  0  0  0  0  0  0  0  0  0
   36.6780   27.5470   42.8720 H   0  0  0  0  0  0  0  0  0  0  0  0
   39.0630   27.0840   39.3230 H   0  0  0  0  0  0  0  0  0  0  0  0
   39.4730   24.3580   38.6080 H   0  0  0  0  0  0  0  0  0  0  0  0
   38.6620   22.0910   39.7160 H   0  0  0  0  0  0  0  0  0  0  0  0
   36.5040   25.0490   43.0270 H   0  0  0  0  0  0  0  0  0  0  0  0
   37.7160   31.3950   38.2000 C   0  0  0  0  0  0  0  0  0  0  0  0
   37.0060   30.4980   37.3740 F   0  0  0  0  0  0  0  0  0  0  0  0
   36.9420   32.5260   38.2980 F   0  0  0  0  0  0  0  0  0  0  0  0
   38.9360   31.6600   37.6500 F   0  0  0  0  0  0  0  0  0  0  0  0
   38.3700   32.9500   40.5290 O   0  0  0  0  0  0  0  0  0  0  0  0
   39.5900   33.6010   40.5170 C   0  0  0  0  0  0  0  0  0  0  0  0
   39.2520   34.9290   40.2560 C   0  0  0  0  0  0  0  0  0  0  0  0
   40.8870   35.7650   40.2470 S   0  0  0  0  0  0  0  0  0  0  0  0
   41.7690   34.1220   40.6080 C   0  0  0  0  0  0  0  0  0  0  0  0
   40.8790   33.4670   40.6490 N   0  0  0  0  0  0  0  0  0  0  0  0
   38.4590   35.6740   40.0590 H   0  0  0  0  0  0  0  0  0  0  0  0
   43.1920   34.0520   40.7410 N   0  0  0  0  0  0  0  0  0  0  0  0
   43.9490   33.7150   39.5620 C   0  0  0  0  0  3  0  0  0  0  0  0
   43.9630   32.6010   39.5120 H   0  0  0  0  0  0  0  0  0  0  0  0
   45.3060   34.3290   39.4880 C   0  0  0  0  0  3  0  0  0  0  0  0
   45.9540   33.5880   38.9310 H   0  0  0  0  0  0  0  0  0  0  0  0
   45.9450   34.5330   40.7630 N   0  0  0  0  0  0  0  0  0  0  0  0
   46.7070   35.2580   40.6050 H   0  0  0  0  0  0  0  0  0  0  0  0
   45.0750   35.1080   41.7500 C   0  0  0  0  0  2  0  0  0  0  0  0
   43.8420   34.3140   42.0260 C   0  0  0  0  0  2  0  0  0  0  0  0
  1  6  1  0  0  0  0
  1  7  1  0  0  0  0
  2  1  2  0  0  0  0
  3  4  2  0  0  0  0
  3  2  1  0  0  0  0
  4  5  1  0  0  0  0
  5  9  1  0  0  0  0
  5  6  2  0  0  0  0
  8 16  1  0  0  0  0
  8 17  1  0  0  0  0
  9  8  2  0  0  0  0
 10 11  2  0  0  0  0
 10  9  1  0  0  0  0
 11 15  1  0  0  0  0
 12 13  1  0  0  0  0
 12 11  1  0  0  0  0
 13 14  2  0  0  0  0
 14 15  1  0  0  0  0
 15 16  2  0  0  0  0
 16 21  1  0  0  0  0
 18 10  1  0  0  0  0
 19 12  1  0  0  0  0
 20 13  1  0  0  0  0
 22 24  1  0  0  0  0
 22  3  1  0  0  0  0
 23 22  1  0  0  0  0
 25 22  1  0  0  0  0
 26  2  1  0  0  0  0
 27 26  1  0  0  0  0
 27 31  1  0  0  0  0
 28 27  2  0  0  0  0
 29 28  1  0  0  0  0
 29 30  1  0  0  0  0
 30 31  2  0  0  0  0
 30 33  1  0  0  0  0
 32 28  1  0  0  0  0
 33 41  1  0  0  0  0
 34 33  1  0  0  0  0
 35 34  1  0  0  0  0
 36 34  1  0  0  0  0
 36 38  1  0  0  0  0
 37 36  1  0  0  0  0
 38 40  1  0  0  0  0
 39 38  1  0  0  0  0
 40 41  1  0  0  0  0
M  END
>  <minimizedAffinity>
-6.76073742

$$$$

 OpenBabel03242513103D

 41 45  0  0  0  0  0  0  0  0999 V2000
   36.3990   28.2620   40.9480 C   0  0  0  0  0  0  0  0  0  0  0  0
   37.2970   27.5610   41.7460 C   0  0  0  0  0  0  0  0  0  0  0  0
   38.4220   28.2560   42.1830 C   0  0  0  0  0  0  0  0  0  0  0  0
   38.5450   29.5610   41.7900 N   0  0  0  0  0  0  0  0  0  0  0  0
   37.6690   30.2040   41.0270 C   0  0  0  0  0  0  0  0  0  0  0  0
   36.5730   29.5560   40.5920 N   0  0  0  0  0  0  0  0  0  0  0  0
   35.5060   27.7310   40.5940 H   0  0  0  0  0  0  0  0  0  0  0  0
   36.9900   32.2830   39.9080 C   0  0  0  0  0  0  0  0  0  0  0  0
   37.9040   31.5880   40.6750 C   0  0  0  0  0  0  0  0  0  0  0  0
   39.0850   32.1780   41.1430 C   0  0  0  0  0  0  0  0  0  0  0  0
   39.3860   33.4920   40.8540 C   0  0  0  0  0  0  0  0  0  0  0  0
   40.3980   34.3630   41.1270 N   0  0  0  0  0  0  0  0  0  0  0  0
   40.0780   35.5600   40.5220 C   0  0  0  0  0  0  0  0  0  0  0  0
   38.9020   35.4060   39.9040 N   0  0  0  0  0  0  0  0  0  0  0  0
   38.4440   34.1610   40.0800 C   0  0  0  0  0  0  0  0  0  0  0  0
   37.2710   33.6150   39.6010 C   0  0  0  0  0  0  0  0  0  0  0  0
   36.0950   31.8060   39.5640 H   0  0  0  0  0  0  0  0  0  0  0  0
   39.7980   31.6300   41.7450 H   0  0  0  0  0  0  0  0  0  0  0  0
   41.2330   34.0900   41.7000 H   0  0  0  0  0  0  0  0  0  0  0  0
   40.7060   36.4310   40.5750 H   0  0  0  0  0  0  0  0  0  0  0  0
   36.5890   34.2010   39.0060 H   0  0  0  0  0  0  0  0  0  0  0  0
   39.4180   27.5710   43.0350 C   0  0  0  0  0  0  0  0  0  0  0  0
   38.7960   27.0650   44.1960 F   0  0  0  0  0  0  0  0  0  0  0  0
   39.9450   26.4870   42.3760 F   0  0  0  0  0  0  0  0  0  0  0  0
   40.3820   28.4710   43.3840 F   0  0  0  0  0  0  0  0  0  0  0  0
   37.0440   26.2800   42.0490 O   0  0  0  0  0  0  0  0  0  0  0  0
   37.0400   25.2570   41.1200 C   0  0  0  0  0  0  0  0  0  0  0  0
   37.7090   24.2190   41.7680 C   0  0  0  0  0  0  0  0  0  0  0  0
   37.6860   22.8800   40.5110 S   0  0  0  0  0  0  0  0  0  0  0  0
   36.7470   23.9920   39.2910 C   0  0  0  0  0  0  0  0  0  0  0  0
   36.6710   24.8970   39.9230 N   0  0  0  0  0  0  0  0  0  0  0  0
   38.2290   23.8610   42.6750 H   0  0  0  0  0  0  0  0  0  0  0  0
   36.3730   23.5260   37.9920 N   0  0  0  0  0  0  0  0  0  0  0  0
   37.2750   23.8080   36.9040 C   0  0  0  0  0  3  0  0  0  0  0  0
   37.0120   24.8300   36.5420 H   0  0  0  0  0  0  0  0  0  0  0  0
   37.2970   22.7840   35.8200 C   0  0  0  0  0  3  0  0  0  0  0  0
   37.5150   23.3450   34.8640 H   0  0  0  0  0  0  0  0  0  0  0  0
   36.0420   22.1080   35.6050 N   0  0  0  0  0  0  0  0  0  0  0  0
   36.2700   21.2100   35.0840 H   0  0  0  0  0  0  0  0  0  0  0  0
   35.4060   21.6880   36.8220 C   0  0  0  0  0  2  0  0  0  0  0  0
   35.1240   22.7920   37.7860 C   0  0  0  0  0  2  0  0  0  0  0  0
  1  2  1  0  0  0  0
  2 26  1  0  0  0  0
  2  3  2  0  0  0  0
  3 22  1  0  0  0  0
  4  3  1  0  0  0  0
  5  4  2  0  0  0  0
  6  1  2  0  0  0  0
  6  5  1  0  0  0  0
  7  1  1  0  0  0  0
  8  9  1  0  0  0  0
  9  5  1  0  0  0  0
  9 10  2  0  0  0  0
 10 18  1  0  0  0  0
 11 12  1  0  0  0  0
 11 10  1  0  0  0  0
 12 19  1  0  0  0  0
 13 20  1  0  0  0  0
 13 12  1  0  0  0  0
 14 15  1  0  0  0  0
 14 13  2  0  0  0  0
 15 11  2  0  0  0  0
 16  8  2  0  0  0  0
 16 15  1  0  0  0  0
 17  8  1  0  0  0  0
 21 16  1  0  0  0  0
 22 25  1  0  0  0  0
 22 23  1  0  0  0  0
 24 22  1  0  0  0  0
 27 28  2  0  0  0  0
 27 26  1  0  0  0  0
 28 32  1  0  0  0  0
 29 28  1  0  0  0  0
 30 31  2  0  0  0  0
 30 29  1  0  0  0  0
 31 27  1  0  0  0  0
 33 30  1  0  0  0  0
 34 33  1  0  0  0  0
 35 34  1  0  0  0  0
 36 34  1  0  0  0  0
 37 36  1  0  0  0  0
 38 36  1  0  0  0  0
 38 40  1  0  0  0  0
 39 38  1  0  0  0  0
 40 41  1  0  0  0  0
 41 33  1  0  0  0  0
M  END
>  <minimizedAffinity>
-6.71358061

$$$$

 OpenBabel03242513103D

 41 45  0  0  0  0  0  0  0  0999 V2000
   37.5350   27.5900   39.9930 C   0  0  0  0  0  0  0  0  0  0  0  0
   37.2660   27.2420   41.3120 C   0  0  0  0  0  0  0  0  0  0  0  0
   37.5510   28.1970   42.2840 C   0  0  0  0  0  0  0  0  0  0  0  0
   38.0690   29.3900   41.8580 N   0  0  0  0  0  0  0  0  0  0  0  0
   38.3160   29.6950   40.5900 C   0  0  0  0  0  0  0  0  0  0  0  0
   38.0490   28.7890   39.6310 N   0  0  0  0  0  0  0  0  0  0  0  0
   37.3160   26.8510   39.2130 H   0  0  0  0  0  0  0  0  0  0  0  0
   39.7610   31.1270   39.2140 C   0  0  0  0  0  0  0  0  0  0  0  0
   38.8660   30.9910   40.2560 C   0  0  0  0  0  0  0  0  0  0  0  0
   38.4530   32.0820   41.0310 C   0  0  0  0  0  0  0  0  0  0  0  0
   38.9270   33.3520   40.7810 C   0  0  0  0  0  0  0  0  0  0  0  0
   38.7560   34.5980   41.3040 N   0  0  0  0  0  0  0  0  0  0  0  0
   39.5460   35.4590   40.5720 C   0  0  0  0  0  0  0  0  0  0  0  0
   40.1740   34.7420   39.6330 N   0  0  0  0  0  0  0  0  0  0  0  0
   39.8260   33.4520   39.7240 C   0  0  0  0  0  0  0  0  0  0  0  0
   40.2570   32.4030   38.9400 C   0  0  0  0  0  0  0  0  0  0  0  0
   40.0590   30.2750   38.6390 H   0  0  0  0  0  0  0  0  0  0  0  0
   37.7500   31.9710   41.8470 H   0  0  0  0  0  0  0  0  0  0  0  0
   38.1200   34.7820   42.1170 H   0  0  0  0  0  0  0  0  0  0  0  0
   39.6050   36.5140   40.7690 H   0  0  0  0  0  0  0  0  0  0  0  0
   40.9570   32.5620   38.1360 H   0  0  0  0  0  0  0  0  0  0  0  0
   37.2880   27.8930   43.7070 C   0  0  0  0  0  0  0  0  0  0  0  0
   38.2520   26.9840   44.1950 F   0  0  0  0  0  0  0  0  0  0  0  0
   37.4100   29.0300   44.4690 F   0  0  0  0  0  0  0  0  0  0  0  0
   36.0440   27.3430   43.8110 F   0  0  0  0  0  0  0  0  0  0  0  0
   36.7570   26.0320   41.5800 O   0  0  0  0  0  0  0  0  0  0  0  0
   36.9720   24.9160   40.7920 C   0  0  0  0  0  0  0  0  0  0  0  0
   38.0330   24.2660   41.4230 C   0  0  0  0  0  0  0  0  0  0  0  0
   38.2930   22.7950   40.3550 S   0  0  0  0  0  0  0  0  0  0  0  0
   36.8780   23.3320   39.2080 C   0  0  0  0  0  0  0  0  0  0  0  0
   36.5880   24.2610   39.7340 N   0  0  0  0  0  0  0  0  0  0  0  0
   38.7600   24.2480   42.2540 H   0  0  0  0  0  0  0  0  0  0  0  0
   36.5110   22.5580   38.0620 N   0  0  0  0  0  0  0  0  0  0  0  0
   37.1100   22.9200   36.8020 C   0  0  0  0  0  3  0  0  0  0  0  0
   36.4720   23.7310   36.3780 H   0  0  0  0  0  0  0  0  0  0  0  0
   37.3290   21.7860   35.8590 C   0  0  0  0  0  3  0  0  0  0  0  0
   37.2150   22.2160   34.8200 H   0  0  0  0  0  0  0  0  0  0  0  0
   36.3590   20.7250   35.9570 N   0  0  0  0  0  0  0  0  0  0  0  0
   36.8040   19.8680   35.5100 H   0  0  0  0  0  0  0  0  0  0  0  0
   36.0730   20.3390   37.3100 C   0  0  0  0  0  2  0  0  0  0  0  0
   35.5670   21.4460   38.1750 C   0  0  0  0  0  2  0  0  0  0  0  0
  1  2  1  0  0  0  0
  2 26  1  0  0  0  0
  2  3  2  0  0  0  0
  3 22  1  0  0  0  0
  4  3  1  0  0  0  0
  5  4  2  0  0  0  0
  6  1  2  0  0  0  0
  6  5  1  0  0  0  0
  7  1  1  0  0  0  0
  8  9  1  0  0  0  0
  9  5  1  0  0  0  0
  9 10  2  0  0  0  0
 10 18  1  0  0  0  0
 11 10  1  0  0  0  0
 11 12  1  0  0  0  0
 12 19  1  0  0  0  0
 13 20  1  0  0  0  0
 13 12  1  0  0  0  0
 14 15  1  0  0  0  0
 14 13  2  0  0  0  0
 15 11  2  0  0  0  0
 16  8  2  0  0  0  0
 16 15  1  0  0  0  0
 17  8  1  0  0  0  0
 21 16  1  0  0  0  0
 22 25  1  0  0  0  0
 22 23  1  0  0  0  0
 22 24  1  0  0  0  0
 27 28  2  0  0  0  0
 27 26  1  0  0  0  0
 28 32  1  0  0  0  0
 29 28  1  0  0  0  0
 30 31  2  0  0  0  0
 30 29  1  0  0  0  0
 31 27  1  0  0  0  0
 33 41  1  0  0  0  0
 33 30  1  0  0  0  0
 34 33  1  0  0  0  0
 35 34  1  0  0  0  0
 36 38  1  0  0  0  0
 36 34  1  0  0  0  0
 37 36  1  0  0  0  0
 38 40  1  0  0  0  0
 39 38  1  0  0  0  0
 40 41  1  0  0  0  0
M  END
>  <minimizedAffinity>
-6.67692041

$$$$

 OpenBabel03242513103D

 41 45  0  0  0  0  0  0  0  0999 V2000
   38.6710   27.9410   41.8850 C   0  0  0  0  0  0  0  0  0  0  0  0
   37.9020   29.0270   41.4800 C   0  0  0  0  0  0  0  0  0  0  0  0
   36.8430   28.7590   40.6170 C   0  0  0  0  0  0  0  0  0  0  0  0
   36.6520   27.4570   40.2430 N   0  0  0  0  0  0  0  0  0  0  0  0
   37.4040   26.4390   40.6470 C   0  0  0  0  0  0  0  0  0  0  0  0
   38.4330   26.6710   41.4820 N   0  0  0  0  0  0  0  0  0  0  0  0
   39.5100   28.1330   42.5650 H   0  0  0  0  0  0  0  0  0  0  0  0
   36.0890   24.8770   39.2800 C   0  0  0  0  0  0  0  0  0  0  0  0
   37.1070   25.1000   40.1860 C   0  0  0  0  0  0  0  0  0  0  0  0
   37.8930   24.0580   40.6950 C   0  0  0  0  0  0  0  0  0  0  0  0
   37.6790   22.7520   40.3090 C   0  0  0  0  0  0  0  0  0  0  0  0
   38.2200   21.5320   40.5820 N   0  0  0  0  0  0  0  0  0  0  0  0
   37.5230   20.6010   39.8420 C   0  0  0  0  0  0  0  0  0  0  0  0
   36.5860   21.2510   39.1420 N   0  0  0  0  0  0  0  0  0  0  0  0
   36.6450   22.5650   39.3960 C   0  0  0  0  0  0  0  0  0  0  0  0
   35.8510   23.5640   38.8730 C   0  0  0  0  0  0  0  0  0  0  0  0
   35.5050   25.6930   38.9080 H   0  0  0  0  0  0  0  0  0  0  0  0
   38.6910   24.2370   41.4040 H   0  0  0  0  0  0  0  0  0  0  0  0
   39.0210   21.4120   41.2490 H   0  0  0  0  0  0  0  0  0  0  0  0
   37.7410   19.5490   39.8650 H   0  0  0  0  0  0  0  0  0  0  0  0
   35.0680   23.3380   38.1670 H   0  0  0  0  0  0  0  0  0  0  0  0
   35.9850   29.8680   40.1470 C   0  0  0  0  0  0  0  0  0  0  0  0
   36.6690   30.6350   39.1810 F   0  0  0  0  0  0  0  0  0  0  0  0
   34.8640   29.3730   39.5240 F   0  0  0  0  0  0  0  0  0  0  0  0
   35.6670   30.6530   41.2170 F   0  0  0  0  0  0  0  0  0  0  0  0
   38.2100   30.2520   41.9280 O   0  0  0  0  0  0  0  0  0  0  0  0
   39.2530   31.0120   41.4330 C   0  0  0  0  0  0  0  0  0  0  0  0
   40.2830   30.7940   42.3490 C   0  0  0  0  0  0  0  0  0  0  0  0
   41.6490   31.8140   41.6650 S   0  0  0  0  0  0  0  0  0  0  0  0
   40.5560   32.3720   40.2170 C   0  0  0  0  0  0  0  0  0  0  0  0
   39.6370   31.8190   40.4850 N   0  0  0  0  0  0  0  0  0  0  0  0
   40.6260   30.2950   43.2730 H   0  0  0  0  0  0  0  0  0  0  0  0
   41.0480   33.2620   39.2100 N   0  0  0  0  0  0  0  0  0  0  0  0
   40.7990   34.6690   39.3930 C   0  0  0  0  0  3  0  0  0  0  0  0
   39.7830   34.8600   38.9740 H   0  0  0  0  0  0  0  0  0  0  0  0
   41.8470   35.5730   38.8380 C   0  0  0  0  0  3  0  0  0  0  0  0
   41.3100   36.5120   38.5120 H   0  0  0  0  0  0  0  0  0  0  0  0
   42.5150   35.0710   37.6650 N   0  0  0  0  0  0  0  0  0  0  0  0
   43.4270   35.6120   37.5830 H   0  0  0  0  0  0  0  0  0  0  0  0
   42.9030   33.6930   37.7760 C   0  0  0  0  0  2  0  0  0  0  0  0
   41.7750   32.7530   38.0460 C   0  0  0  0  0  2  0  0  0  0  0  0
  1  7  1  0  0  0  0
  2  1  2  0  0  0  0
  2 26  1  0  0  0  0
  3  2  1  0  0  0  0
  4  3  2  0  0  0  0
  4  5  1  0  0  0  0
  5  6  2  0  0  0  0
  6  1  1  0  0  0  0
  8  9  1  0  0  0  0
  9  5  1  0  0  0  0
  9 10  2  0  0  0  0
 10 18  1  0  0  0  0
 11 12  1  0  0  0  0
 11 10  1  0  0  0  0
 12 19  1  0  0  0  0
 13 20  1  0  0  0  0
 13 12  1  0  0  0  0
 14 15  1  0  0  0  0
 14 13  2  0  0  0  0
 15 11  2  0  0  0  0
 16  8  2  0  0  0  0
 16 15  1  0  0  0  0
 17  8  1  0  0  0  0
 21 16  1  0  0  0  0
 22  3  1  0  0  0  0
 22 25  1  0  0  0  0
 23 22  1  0  0  0  0
 24 22  1  0  0  0  0
 27 26  1  0  0  0  0
 27 28  2  0  0  0  0
 28 32  1  0  0  0  0
 29 28  1  0  0  0  0
 30 31  2  0  0  0  0
 30 29  1  0  0  0  0
 31 27  1  0  0  0  0
 33 34  1  0  0  0  0
 33 30  1  0  0  0  0
 35 34  1  0  0  0  0
 36 34  1  0  0  0  0
 37 36  1  0  0  0  0
 38 40  1  0  0  0  0
 38 36  1  0  0  0  0
 39 38  1  0  0  0  0
 40 41  1  0  0  0  0
 41 33  1  0  0  0  0
M  END
>  <minimizedAffinity>
-6.54348612

$$$$
