
 OpenBabel03252509253D

 30 32  0  0  1  0  0  0  0  0999 V2000
   46.6780   35.0590   42.0680 C   0  0  1  0  0  0  0  0  0  0  0  0
   48.2080   35.2940   41.9960 C   0  0  0  0  0  0  0  0  0  0  0  0
   47.4340   34.1620   41.2900 C   0  0  2  0  0  0  0  0  0  0  0  0
   46.1470   35.9200   41.6520 H   0  0  0  0  0  0  0  0  0  0  0  0
   48.8250   35.0720   42.8670 H   0  0  0  0  0  0  0  0  0  0  0  0
   48.5910   36.0440   41.2940 H   0  0  0  0  0  0  0  0  0  0  0  0
   47.8030   33.1620   41.6510 H   0  0  0  0  0  0  0  0  0  0  0  0
   44.8760   34.8890   45.3480 C   0  0  0  0  0  0  0  0  0  0  0  0
   45.2570   35.3560   44.0620 C   0  0  0  0  0  0  0  0  0  0  0  0
   46.2560   34.6610   43.4550 C   0  0  0  0  0  0  0  0  0  0  0  0
   46.8480   33.5830   44.0610 N   0  0  0  0  0  0  0  0  0  0  0  0
   46.4570   33.1710   45.2860 C   0  0  0  0  0  0  0  0  0  0  0  0
   45.4620   33.8340   45.9270 N   0  0  0  0  0  0  0  0  0  0  0  0
   44.0800   35.4050   45.8820 H   0  0  0  0  0  0  0  0  0  0  0  0
   47.0300   32.3110   45.6040 H   0  0  0  0  0  0  0  0  0  0  0  0
   44.6500   36.4950   43.4700 N   0  0  0  0  0  0  0  0  0  0  0  0
   43.9590   36.5720   42.6970 H   0  0  0  0  0  0  0  0  0  0  0  0
   45.0960   37.2670   44.0350 H   0  0  0  0  0  0  0  0  0  0  0  0
   47.3470   34.1800   39.7780 C   0  0  0  0  0  0  0  0  0  0  0  0
   47.8270   35.0570   39.3340 H   0  0  0  0  0  0  0  0  0  0  0  0
   46.2480   34.3000   39.5420 H   0  0  0  0  0  0  0  0  0  0  0  0
   47.7100   32.9110   39.2440 N   0  0  0  0  0  0  0  0  0  0  0  0
   48.7830   32.9250   38.2940 C   0  0  0  0  0  3  0  0  0  0  0  0
   48.9440   31.8400   38.0170 H   0  0  0  0  0  0  0  0  0  0  0  0
   48.4620   33.6240   37.0080 C   0  0  0  0  0  3  0  0  0  0  0  0
   48.7530   33.0240   36.1050 H   0  0  0  0  0  0  0  0  0  0  0  0
   47.1010   34.0350   36.8640 N   0  0  0  0  0  0  0  0  0  0  0  0
   46.9130   34.1550   35.8320 H   0  0  0  0  0  0  0  0  0  0  0  0
   46.1220   33.1430   37.4020 C   0  0  0  0  0  2  0  0  0  0  0  0
   46.5680   32.3160   38.5600 C   0  0  0  0  0  2  0  0  0  0  0  0
  1  4  1  6  0  0  0
  1 10  1  0  0  0  0
  2  1  1  0  0  0  0
  2  5  1  0  0  0  0
  3  7  1  1  0  0  0
  3  2  1  0  0  0  0
  3  1  1  0  0  0  0
  6  2  1  0  0  0  0
  8 14  1  0  0  0  0
  8 13  1  0  0  0  0
  9  8  2  0  0  0  0
 10 11  2  0  0  0  0
 10  9  1  0  0  0  0
 11 12  1  0  0  0  0
 12 15  1  0  0  0  0
 12 13  2  0  0  0  0
 16 18  1  0  0  0  0
 16  9  1  0  0  0  0
 17 16  1  0  0  0  0
 19  3  1  0  0  0  0
 20 19  1  0  0  0  0
 21 19  1  0  0  0  0
 22 19  1  0  0  0  0
 23 22  1  0  0  0  0
 24 23  1  0  0  0  0
 25 23  1  0  0  0  0
 26 25  1  0  0  0  0
 27 25  1  0  0  0  0
 27 29  1  0  0  0  0
 28 27  1  0  0  0  0
 29 30  1  0  0  0  0
 30 22  1  0  0  0  0
M  END
>  <minimizedAffinity>
-5.12213707

>  <minimizedRMSD>
2.39608693

$$$$
