
     RDKit          3D

 54 56  0  0  0  0  0  0  0  0999 V2000
   47.1633   34.1658   43.0827 N   0  0  0  0  0  0  0  0  0  0  0  0
   46.6461   35.3557   42.5171 C   0  0  0  0  0  0  0  0  0  0  0  0
   45.1632   35.5740   42.7237 C   0  0  0  0  0  0  0  0  0  0  0  0
   44.6483   35.0442   44.0349 C   0  0  0  0  0  0  0  0  0  0  0  0
   45.7642   34.4861   44.8941 C   0  0  0  0  0  0  0  0  0  0  0  0
   46.4212   33.4072   43.9685 C   0  0  2  0  0  0  0  0  0  0  0  0
   48.1499   33.5014   42.2634 C   0  0  0  0  0  0  0  0  0  0  0  0
   47.4540   32.6520   41.2565 C   0  0  0  0  0  0  0  0  0  0  0  0
   49.3436   32.2735   38.0312 C   0  0  0  0  0  0  0  0  0  0  0  0
   48.8136   32.0252   39.3105 C   0  0  0  0  0  0  0  0  0  0  0  0
   47.9990   32.9400   39.9062 C   0  0  0  0  0  0  0  0  0  0  0  0
   47.7358   34.0596   39.2275 N   0  0  0  0  0  0  0  0  0  0  0  0
   48.2296   34.3144   38.0108 C   0  0  0  0  0  0  0  0  0  0  0  0
   49.0399   33.4274   37.3938 N   0  0  0  0  0  0  0  0  0  0  0  0
   47.2151   32.7111   44.8570 O   0  0  0  0  0  0  0  0  0  0  0  0
   46.0457   30.5324   43.8805 O   0  0  0  0  0  0  0  0  0  0  0  0
   46.6638   31.1381   45.1364 P   0  0  2  0  0  0  0  0  0  0  0  0
   45.4022   31.2754   46.2683 O   0  0  0  0  0  0  0  0  0  0  0  0
   47.8364   30.1417   45.7850 O   0  0  0  0  0  0  0  0  0  0  0  0
   47.7672   28.9018   45.2077 C   0  0  0  0  0  0  0  0  0  0  0  0
   47.1584   36.2143   43.0395 H   0  0  0  0  0  0  0  0  0  0  0  0
   46.8449   35.5203   41.4534 H   0  0  0  0  0  0  0  0  0  0  0  0
   44.6313   35.0846   41.8744 H   0  0  0  0  0  0  0  0  0  0  0  0
   44.9776   36.6654   42.5963 H   0  0  0  0  0  0  0  0  0  0  0  0
   43.9383   34.2058   43.8517 H   0  0  0  0  0  0  0  0  0  0  0  0
   44.1365   35.8692   44.6084 H   0  0  0  0  0  0  0  0  0  0  0  0
   45.3426   34.0127   45.7807 H   0  0  0  0  0  0  0  0  0  0  0  0
   46.4749   35.3132   45.0798 H   0  0  0  0  0  0  0  0  0  0  0  0
   45.5543   32.8440   43.5755 H   0  0  0  0  0  0  0  0  0  0  0  0
   48.7961   32.9012   42.9267 H   0  0  0  0  0  0  0  0  0  0  0  0
   48.7769   34.2798   41.7916 H   0  0  0  0  0  0  0  0  0  0  0  0
   47.4986   31.5703   41.4585 H   0  0  0  0  0  0  0  0  0  0  0  0
   46.3579   32.9124   41.1843 H   0  0  0  0  0  0  0  0  0  0  0  0
   49.9819   31.4749   37.6509 H   0  0  0  0  0  0  0  0  0  0  0  0
   49.0426   31.1150   39.8334 H   0  0  0  0  0  0  0  0  0  0  0  0
   47.9873   35.2419   37.4952 H   0  0  0  0  0  0  0  0  0  0  0  0
   45.7123   31.7832   47.0413 H   0  0  0  0  0  0  0  0  0  0  0  0
   48.5719   28.2843   45.7022 H   0  0  0  0  0  0  0  0  0  0  0  0
   48.0310   28.9811   44.1497 H   0  0  0  0  0  0  0  0  0  0  0  0
   46.5385   28.1897   45.3576 N   0  0  0  0  0  0  0  0  0  0  0  0
   45.5841   28.4306   44.3220 C   0  0  1  0  0  0  0  0  0  0  0  0
   45.3262   29.5095   44.2105 H   0  0  0  0  0  0  0  0  0  0  0  0
   44.3042   27.6875   44.6927 C   0  0  2  0  0  0  0  0  0  0  0  0
   44.4813   26.6085   44.7710 H   0  0  0  0  0  0  0  0  0  0  0  0
   43.7075   28.1841   45.8959 N   0  0  0  0  0  0  0  0  0  0  0  0
   43.5724   27.4249   46.6005 H   0  0  0  0  0  0  0  0  0  0  0  0
   44.5724   29.1736   46.4729 C   0  0  0  0  0  0  0  0  0  0  0  0
   45.9515   28.5998   46.6194 C   0  0  0  0  0  0  0  0  0  0  0  0
   45.8546   28.0849   43.3228 H   0  0  0  0  0  0  0  0  0  0  0  0
   43.5806   27.8933   43.8653 H   0  0  0  0  0  0  0  0  0  0  0  0
   44.2014   29.3358   47.5167 H   0  0  0  0  0  0  0  0  0  0  0  0
   44.5403   30.1656   45.9835 H   0  0  0  0  0  0  0  0  0  0  0  0
   46.5598   29.3898   47.1424 H   0  0  0  0  0  0  0  0  0  0  0  0
   45.8848   27.7609   47.3465 H   0  0  0  0  0  0  0  0  0  0  0  0
  1  6  1  0
  2  3  1  0
  2  1  1  0
  3  4  1  0
  4  5  1  0
  6 15  1  0
  6  5  1  0
  7  1  1  0
  8  7  1  0
  9 10  2  0
 10 11  1  0
 11  8  1  0
 12 11  2  0
 13 12  1  0
 14 13  2  0
 14  9  1  0
 17 15  1  6
 17 16  2  0
 17 19  1  0
 17 18  1  0
 20 19  1  0
  2 21  1  0
  2 22  1  0
  3 23  1  0
  3 24  1  0
  4 25  1  0
  4 26  1  0
  5 27  1  0
  5 28  1  0
  6 29  1  6
  7 30  1  0
  7 31  1  0
  8 32  1  0
  8 33  1  0
  9 34  1  0
 10 35  1  0
 13 36  1  0
 18 37  1  0
 20 38  1  0
 20 39  1  0
 40 41  1  0
 41 42  1  6
 41 43  1  0
 43 44  1  1
 43 45  1  0
 45 46  1  0
 45 47  1  0
 47 48  1  0
 48 40  1  0
 41 49  1  0
 43 50  1  0
 47 51  1  0
 47 52  1  0
 48 53  1  0
 48 54  1  0
 20 40  1  0
M  ISO  8  21  13  22  13  23  13  24  13  25  13  26  13  27  13  28  13
M  ISO  8  29  13  30   8  31   8  32   8  33   8  34  14  35  14  36  14
M  ISO  6  37   3  38   8  39   8  42   8  44   8  46   5
M  END
>  <DihAtoms>  (1) 
18,19,39,40

>  <DihDeg>  (1) 
-60.014621299553845

$$$$
