
 OpenBabel03252502143D

 24 25  0  0  0  0  0  0  0  0999 V2000
   46.7610   35.0510   42.7060 C   0  0  0  0  0  0  0  0  0  0  0  0
   47.0020   33.9560   43.5460 C   0  0  0  0  0  0  0  0  0  0  0  0
   46.1040   33.7170   44.5920 C   0  0  0  0  0  0  0  0  0  0  0  0
   45.0470   34.5440   44.7510 N   0  0  0  0  0  0  0  0  0  0  0  0
   44.8440   35.5940   43.9200 C   0  0  0  0  0  0  0  0  0  0  0  0
   45.7020   35.8470   42.8960 N   0  0  0  0  0  0  0  0  0  0  0  0
   47.4300   35.2740   41.8820 H   0  0  0  0  0  0  0  0  0  0  0  0
   43.9780   36.2140   44.1060 H   0  0  0  0  0  0  0  0  0  0  0  0
   46.3400   32.6200   45.4370 N   0  0  0  0  0  0  0  0  0  0  0  0
   46.0320   31.2790   45.0270 C   0  0  0  0  0  0  0  0  0  0  0  0
   45.0050   31.3520   44.5590 H   0  0  0  0  0  0  0  0  0  0  0  0
   46.0590   30.2580   46.0800 C   0  0  0  0  0  0  0  0  0  0  0  0
   45.0710   29.7490   46.1440 H   0  0  0  0  0  0  0  0  0  0  0  0
   46.4650   30.5750   47.3810 N   0  0  0  0  0  0  0  0  0  0  0  0
   45.9310   30.0660   48.1180 H   0  0  0  0  0  0  0  0  0  0  0  0
   46.6920   31.8890   47.7730 C   0  0  0  0  0  0  0  0  0  0  0  0
   46.8990   32.9130   46.7120 C   0  0  0  0  0  0  0  0  0  0  0  0
   48.1110   33.1860   43.2840 O   0  0  0  0  0  0  0  0  0  0  0  0
   50.5850   32.8350   42.4280 O   0  0  0  0  0  0  0  0  0  0  0  0
   49.4740   33.8350   42.4650 P   0  0  0  0  0  0  0  0  0  0  0  0
   49.0880   34.2290   40.8660 O   0  0  0  0  0  0  0  0  0  0  0  0
   48.7400   33.4530   40.3940 H   0  0  0  0  0  0  0  0  0  0  0  0
   50.0120   35.2370   43.2450 O   0  0  0  0  0  0  0  0  0  0  0  0
   50.0620   36.0220   42.6520 H   0  0  0  0  0  0  0  0  0  0  0  0
  1  6  2  0  0  0  0
  1  2  1  0  0  0  0
  2  3  2  0  0  0  0
  3  4  1  0  0  0  0
  3  9  1  0  0  0  0
  5  8  1  0  0  0  0
  5  4  2  0  0  0  0
  6  5  1  0  0  0  0
  7  1  1  0  0  0  0
  9 17  1  0  0  0  0
 10  9  1  0  0  0  0
 10 12  1  0  0  0  0
 11 10  1  0  0  0  0
 12 13  1  0  0  0  0
 12 14  1  0  0  0  0
 14 16  1  0  0  0  0
 14 15  1  0  0  0  0
 17 16  1  0  0  0  0
 18  2  1  0  0  0  0
 19 20  2  0  0  0  0
 20 23  1  0  0  0  0
 20 18  1  0  0  0  0
 21 20  1  0  0  0  0
 22 21  1  0  0  0  0
 24 23  1  0  0  0  0
M  END
>  <minimizedAffinity>
-5.10904455

>  <minimizedRMSD>
0.78990519

$$$$
