
 OpenBabel03252509253D

 30 32  0  0  1  0  0  0  0  0999 V2000
   46.5730   35.0630   41.9200 C   0  0  1  0  0  0  0  0  0  0  0  0
   48.0900   35.3760   41.9170 C   0  0  0  0  0  0  0  0  0  0  0  0
   47.4280   34.1070   41.3410 C   0  0  2  0  0  0  0  0  0  0  0  0
   46.0330   35.8190   41.3430 H   0  0  0  0  0  0  0  0  0  0  0  0
   48.6500   35.3230   42.8520 H   0  0  0  0  0  0  0  0  0  0  0  0
   48.4880   36.0350   41.1360 H   0  0  0  0  0  0  0  0  0  0  0  0
   47.8170   33.1960   41.8740 H   0  0  0  0  0  0  0  0  0  0  0  0
   44.6630   35.4110   45.1250 C   0  0  0  0  0  0  0  0  0  0  0  0
   45.1320   35.7060   43.8170 C   0  0  0  0  0  0  0  0  0  0  0  0
   46.0670   34.8510   43.3200 C   0  0  0  0  0  0  0  0  0  0  0  0
   46.5160   33.7810   44.0500 N   0  0  0  0  0  0  0  0  0  0  0  0
   46.0450   33.5360   45.2900 C   0  0  0  0  0  0  0  0  0  0  0  0
   45.1100   34.3610   45.8240 N   0  0  0  0  0  0  0  0  0  0  0  0
   43.9130   36.0590   45.5740 H   0  0  0  0  0  0  0  0  0  0  0  0
   46.5090   32.6540   45.7110 H   0  0  0  0  0  0  0  0  0  0  0  0
   44.6740   36.8390   43.0960 N   0  0  0  0  0  0  0  0  0  0  0  0
   44.0190   36.9130   42.2910 H   0  0  0  0  0  0  0  0  0  0  0  0
   45.1850   37.6100   43.6040 H   0  0  0  0  0  0  0  0  0  0  0  0
   47.4550   33.8950   39.8420 C   0  0  0  0  0  0  0  0  0  0  0  0
   48.4160   33.5160   39.4820 H   0  0  0  0  0  0  0  0  0  0  0  0
   47.3630   34.9280   39.3910 H   0  0  0  0  0  0  0  0  0  0  0  0
   46.2900   33.1940   39.4180 N   0  0  0  0  0  0  0  0  0  0  0  0
   46.1610   31.8550   39.9150 C   0  0  0  0  0  3  0  0  0  0  0  0
   45.1750   31.4840   39.5040 H   0  0  0  0  0  0  0  0  0  0  0  0
   47.1960   30.9010   39.4020 C   0  0  0  0  0  3  0  0  0  0  0  0
   46.7500   29.9380   39.0330 H   0  0  0  0  0  0  0  0  0  0  0  0
   48.0550   31.4250   38.3890 N   0  0  0  0  0  0  0  0  0  0  0  0
   48.4590   30.6060   37.8590 H   0  0  0  0  0  0  0  0  0  0  0  0
   47.4410   32.3130   37.4510 C   0  0  0  0  0  2  0  0  0  0  0  0
   46.2760   33.0910   37.9630 C   0  0  0  0  0  2  0  0  0  0  0  0
  1  4  1  6  0  0  0
  1 10  1  0  0  0  0
  2  1  1  0  0  0  0
  2  5  1  0  0  0  0
  3  7  1  1  0  0  0
  3  2  1  0  0  0  0
  3  1  1  0  0  0  0
  6  2  1  0  0  0  0
  8 14  1  0  0  0  0
  8 13  1  0  0  0  0
  9  8  2  0  0  0  0
 10  9  1  0  0  0  0
 10 11  2  0  0  0  0
 11 12  1  0  0  0  0
 12 15  1  0  0  0  0
 12 13  2  0  0  0  0
 16 18  1  0  0  0  0
 16  9  1  0  0  0  0
 17 16  1  0  0  0  0
 19  3  1  0  0  0  0
 20 19  1  0  0  0  0
 21 19  1  0  0  0  0
 22 19  1  0  0  0  0
 22 23  1  0  0  0  0
 24 23  1  0  0  0  0
 25 23  1  0  0  0  0
 26 25  1  0  0  0  0
 27 25  1  0  0  0  0
 28 27  1  0  0  0  0
 29 30  1  0  0  0  0
 29 27  1  0  0  0  0
 30 22  1  0  0  0  0
M  END
>  <minimizedAffinity>
-4.46797609

>  <minimizedRMSD>
0.487619072

$$$$
