
 OpenBabel03252509253D

 30 32  0  0  1  0  0  0  0  0999 V2000
   46.9360   35.1400   41.8400 C   0  0  1  0  0  0  0  0  0  0  0  0
   48.4090   35.6140   41.9350 C   0  0  0  0  0  0  0  0  0  0  0  0
   47.9180   34.3140   41.2640 C   0  0  2  0  0  0  0  0  0  0  0  0
   46.3460   35.8640   41.2710 H   0  0  0  0  0  0  0  0  0  0  0  0
   48.9240   35.5710   42.8950 H   0  0  0  0  0  0  0  0  0  0  0  0
   48.7690   36.3530   41.2090 H   0  0  0  0  0  0  0  0  0  0  0  0
   48.3780   33.4230   41.7740 H   0  0  0  0  0  0  0  0  0  0  0  0
   44.8480   35.1160   44.9510 C   0  0  0  0  0  0  0  0  0  0  0  0
   45.3470   35.5290   43.6870 C   0  0  0  0  0  0  0  0  0  0  0  0
   46.3880   34.8010   43.1990 C   0  0  0  0  0  0  0  0  0  0  0  0
   46.9110   33.7440   43.8970 N   0  0  0  0  0  0  0  0  0  0  0  0
   46.4080   33.3840   45.0960 C   0  0  0  0  0  0  0  0  0  0  0  0
   45.3680   34.0800   45.6200 N   0  0  0  0  0  0  0  0  0  0  0  0
   44.0140   35.6600   45.3910 H   0  0  0  0  0  0  0  0  0  0  0  0
   46.9400   32.5330   45.4970 H   0  0  0  0  0  0  0  0  0  0  0  0
   44.8080   36.6480   42.9990 N   0  0  0  0  0  0  0  0  0  0  0  0
   44.1890   36.7000   42.1650 H   0  0  0  0  0  0  0  0  0  0  0  0
   45.2120   37.4380   43.5710 H   0  0  0  0  0  0  0  0  0  0  0  0
   48.0420   34.1860   39.7600 C   0  0  0  0  0  0  0  0  0  0  0  0
   48.9040   34.7260   39.3560 H   0  0  0  0  0  0  0  0  0  0  0  0
   47.1410   34.7210   39.3380 H   0  0  0  0  0  0  0  0  0  0  0  0
   47.8940   32.8270   39.3630 N   0  0  0  0  0  0  0  0  0  0  0  0
   49.0390   32.2410   38.7300 C   0  0  0  0  0  3  0  0  0  0  0  0
   48.7420   31.1680   38.5240 H   0  0  0  0  0  0  0  0  0  0  0  0
   49.3770   32.8270   37.3940 C   0  0  0  0  0  3  0  0  0  0  0  0
   49.5590   32.0440   36.6110 H   0  0  0  0  0  0  0  0  0  0  0  0
   48.4310   33.7690   36.8880 N   0  0  0  0  0  0  0  0  0  0  0  0
   48.5590   33.8190   35.8420 H   0  0  0  0  0  0  0  0  0  0  0  0
   47.0570   33.4790   37.1620 C   0  0  0  0  0  2  0  0  0  0  0  0
   46.7960   32.7060   38.4100 C   0  0  0  0  0  2  0  0  0  0  0  0
  1  4  1  6  0  0  0
  1  2  1  0  0  0  0
  1 10  1  0  0  0  0
  2  5  1  0  0  0  0
  3  7  1  1  0  0  0
  3  1  1  0  0  0  0
  3  2  1  0  0  0  0
  6  2  1  0  0  0  0
  8 14  1  0  0  0  0
  8 13  1  0  0  0  0
  9  8  2  0  0  0  0
 10  9  1  0  0  0  0
 10 11  2  0  0  0  0
 11 12  1  0  0  0  0
 12 15  1  0  0  0  0
 12 13  2  0  0  0  0
 16 18  1  0  0  0  0
 16  9  1  0  0  0  0
 17 16  1  0  0  0  0
 19  3  1  0  0  0  0
 20 19  1  0  0  0  0
 21 19  1  0  0  0  0
 22 19  1  0  0  0  0
 23 22  1  0  0  0  0
 24 23  1  0  0  0  0
 25 23  1  0  0  0  0
 26 25  1  0  0  0  0
 27 29  1  0  0  0  0
 27 25  1  0  0  0  0
 28 27  1  0  0  0  0
 29 30  1  0  0  0  0
 30 22  1  0  0  0  0
M  END
>  <minimizedAffinity>
-4.86235285

>  <minimizedRMSD>
1.35919368

$$$$
