
 OpenBabel03252509253D

 30 32  0  0  1  0  0  0  0  0999 V2000
   46.9640   31.3200   43.8680 C   0  0  1  0  0  0  0  0  0  0  0  0
   48.4040   30.7490   43.8310 C   0  0  0  0  0  0  0  0  0  0  0  0
   47.7020   31.5070   42.6860 C   0  0  2  0  0  0  0  0  0  0  0  0
   46.8800   32.0750   44.6550 H   0  0  0  0  0  0  0  0  0  0  0  0
   48.5500   29.6700   43.7620 H   0  0  0  0  0  0  0  0  0  0  0  0
   49.2110   31.3310   44.2910 H   0  0  0  0  0  0  0  0  0  0  0  0
   47.6280   30.8470   41.7780 H   0  0  0  0  0  0  0  0  0  0  0  0
   44.2890   28.9900   45.0750 C   0  0  0  0  0  0  0  0  0  0  0  0
   45.2730   30.0140   45.1020 C   0  0  0  0  0  0  0  0  0  0  0  0
   45.9450   30.2160   43.9370 C   0  0  0  0  0  0  0  0  0  0  0  0
   45.6790   29.4680   42.8190 N   0  0  0  0  0  0  0  0  0  0  0  0
   44.7350   28.5030   42.8350 C   0  0  0  0  0  0  0  0  0  0  0  0
   44.0390   28.2700   43.9750 N   0  0  0  0  0  0  0  0  0  0  0  0
   43.7180   28.7850   45.9780 H   0  0  0  0  0  0  0  0  0  0  0  0
   44.6610   28.0200   41.8710 H   0  0  0  0  0  0  0  0  0  0  0  0
   45.5510   30.7530   46.2820 N   0  0  0  0  0  0  0  0  0  0  0  0
   45.3080   31.7280   46.5470 H   0  0  0  0  0  0  0  0  0  0  0  0
   46.0860   30.0320   46.8380 H   0  0  0  0  0  0  0  0  0  0  0  0
   48.2220   32.8770   42.3020 C   0  0  0  0  0  0  0  0  0  0  0  0
   49.0530   32.8340   41.5910 H   0  0  0  0  0  0  0  0  0  0  0  0
   48.6710   33.3030   43.2480 H   0  0  0  0  0  0  0  0  0  0  0  0
   47.1410   33.7450   41.9750 N   0  0  0  0  0  0  0  0  0  0  0  0
   46.6850   33.6760   40.6170 C   0  0  0  0  0  3  0  0  0  0  0  0
   45.8160   34.4000   40.5650 H   0  0  0  0  0  0  0  0  0  0  0  0
   47.6750   34.1630   39.6050 C   0  0  0  0  0  3  0  0  0  0  0  0
   47.2220   34.8760   38.8650 H   0  0  0  0  0  0  0  0  0  0  0  0
   48.8550   34.7570   40.1470 N   0  0  0  0  0  0  0  0  0  0  0  0
   49.2730   35.3740   39.4010 H   0  0  0  0  0  0  0  0  0  0  0  0
   48.6710   35.5380   41.3320 C   0  0  0  0  0  2  0  0  0  0  0  0
   47.5320   35.1310   42.2040 C   0  0  0  0  0  2  0  0  0  0  0  0
  1 10  1  0  0  0  0
  1  4  1  1  0  0  0
  2  1  1  0  0  0  0
  2  6  1  0  0  0  0
  3  7  1  6  0  0  0
  3  2  1  0  0  0  0
  3  1  1  0  0  0  0
  5  2  1  0  0  0  0
  8  9  1  0  0  0  0
  8 14  1  0  0  0  0
  9 16  1  0  0  0  0
 10  9  2  0  0  0  0
 11 12  2  0  0  0  0
 11 10  1  0  0  0  0
 12 13  1  0  0  0  0
 13  8  2  0  0  0  0
 15 12  1  0  0  0  0
 16 17  1  0  0  0  0
 16 18  1  0  0  0  0
 19  3  1  0  0  0  0
 19 21  1  0  0  0  0
 20 19  1  0  0  0  0
 22 30  1  0  0  0  0
 22 19  1  0  0  0  0
 23 22  1  0  0  0  0
 24 23  1  0  0  0  0
 25 27  1  0  0  0  0
 25 23  1  0  0  0  0
 26 25  1  0  0  0  0
 27 29  1  0  0  0  0
 28 27  1  0  0  0  0
 29 30  1  0  0  0  0
M  END
>  <minimizedAffinity>
-3.05614209

>  <minimizedRMSD>
4.67954063

$$$$
