
 OpenBabel03252509253D

 30 32  0  0  1  0  0  0  0  0999 V2000
   46.5510   35.0220   41.9110 C   0  0  1  0  0  0  0  0  0  0  0  0
   48.0680   35.3380   41.9010 C   0  0  0  0  0  0  0  0  0  0  0  0
   47.4080   34.0550   41.3550 C   0  0  2  0  0  0  0  0  0  0  0  0
   46.0100   35.7640   41.3170 H   0  0  0  0  0  0  0  0  0  0  0  0
   48.6270   35.3070   42.8370 H   0  0  0  0  0  0  0  0  0  0  0  0
   48.4640   35.9800   41.1050 H   0  0  0  0  0  0  0  0  0  0  0  0
   47.7990   33.1570   41.9090 H   0  0  0  0  0  0  0  0  0  0  0  0
   44.6470   35.4480   45.1100 C   0  0  0  0  0  0  0  0  0  0  0  0
   45.1180   35.7130   43.7970 C   0  0  0  0  0  0  0  0  0  0  0  0
   46.0450   34.8420   43.3160 C   0  0  0  0  0  0  0  0  0  0  0  0
   46.4870   33.7830   44.0650 N   0  0  0  0  0  0  0  0  0  0  0  0
   46.0150   33.5660   45.3110 C   0  0  0  0  0  0  0  0  0  0  0  0
   45.0880   34.4090   45.8300 N   0  0  0  0  0  0  0  0  0  0  0  0
   43.9040   36.1110   45.5480 H   0  0  0  0  0  0  0  0  0  0  0  0
   46.4730   32.6900   45.7490 H   0  0  0  0  0  0  0  0  0  0  0  0
   44.6670   36.8360   43.0540 N   0  0  0  0  0  0  0  0  0  0  0  0
   44.0120   36.8990   42.2490 H   0  0  0  0  0  0  0  0  0  0  0  0
   45.1850   37.6130   43.5460 H   0  0  0  0  0  0  0  0  0  0  0  0
   47.4350   33.8080   39.8610 C   0  0  0  0  0  0  0  0  0  0  0  0
   48.3640   33.3390   39.5230 H   0  0  0  0  0  0  0  0  0  0  0  0
   47.4410   34.8350   39.3870 H   0  0  0  0  0  0  0  0  0  0  0  0
   46.2190   33.2030   39.4340 N   0  0  0  0  0  0  0  0  0  0  0  0
   45.9750   31.8850   39.9430 C   0  0  0  0  0  3  0  0  0  0  0  0
   44.9630   31.5930   39.5270 H   0  0  0  0  0  0  0  0  0  0  0  0
   46.9280   30.8430   39.4460 C   0  0  0  0  0  3  0  0  0  0  0  0
   46.4060   29.9170   39.0830 H   0  0  0  0  0  0  0  0  0  0  0  0
   47.8360   31.2820   38.4350 N   0  0  0  0  0  0  0  0  0  0  0  0
   48.1730   30.4280   37.9160 H   0  0  0  0  0  0  0  0  0  0  0  0
   47.3060   32.2100   37.4840 C   0  0  0  0  0  2  0  0  0  0  0  0
   46.2060   33.0870   37.9800 C   0  0  0  0  0  2  0  0  0  0  0  0
  1  4  1  6  0  0  0
  1 10  1  0  0  0  0
  2  1  1  0  0  0  0
  2  5  1  0  0  0  0
  3  2  1  0  0  0  0
  3  7  1  1  0  0  0
  3  1  1  0  0  0  0
  6  2  1  0  0  0  0
  8 14  1  0  0  0  0
  8 13  1  0  0  0  0
  9  8  2  0  0  0  0
 10  9  1  0  0  0  0
 10 11  2  0  0  0  0
 11 12  1  0  0  0  0
 12 15  1  0  0  0  0
 12 13  2  0  0  0  0
 16 18  1  0  0  0  0
 16  9  1  0  0  0  0
 17 16  1  0  0  0  0
 19  3  1  0  0  0  0
 20 19  1  0  0  0  0
 21 19  1  0  0  0  0
 22 19  1  0  0  0  0
 22 23  1  0  0  0  0
 24 23  1  0  0  0  0
 25 23  1  0  0  0  0
 26 25  1  0  0  0  0
 27 25  1  0  0  0  0
 28 27  1  0  0  0  0
 29 30  1  0  0  0  0
 29 27  1  0  0  0  0
 30 22  1  0  0  0  0
M  END
>  <minimizedAffinity>
-4.45675898

>  <minimizedRMSD>
0.371184051

$$$$
