
 OpenBabel03252507413D

 25 26  0  0  0  0  0  0  0  0999 V2000
   47.7600   34.8850   41.5940 C   0  0  0  0  0  0  0  0  0  0  0  0
   48.1350   35.9170   41.4200 H   0  0  0  0  0  0  0  0  0  0  0  0
   48.6380   34.3150   41.9400 H   0  0  0  0  0  0  0  0  0  0  0  0
   46.7220   34.9120   42.6620 C   0  0  0  0  0  0  0  0  0  0  0  0
   46.7570   33.8500   43.5820 C   0  0  0  0  0  0  0  0  0  0  0  0
   45.8090   33.8490   44.5780 C   0  0  0  0  0  0  0  0  0  0  0  0
   44.8780   34.8470   44.6590 N   0  0  0  0  0  0  0  0  0  0  0  0
   44.8840   35.8480   43.7530 C   0  0  0  0  0  0  0  0  0  0  0  0
   45.7810   35.8840   42.7770 N   0  0  0  0  0  0  0  0  0  0  0  0
   45.7830   33.0510   45.3210 H   0  0  0  0  0  0  0  0  0  0  0  0
   44.2050   36.6840   43.7190 H   0  0  0  0  0  0  0  0  0  0  0  0
   47.9810   32.5690   43.4480 S   0  0  0  0  0  0  0  0  0  0  0  0
   49.0620   32.7790   44.3060 H   0  0  0  0  0  0  0  0  0  0  0  0
   47.2660   34.2550   40.3310 C   0  0  0  0  0  0  0  0  0  0  0  0
   46.8040   35.0930   39.7280 H   0  0  0  0  0  0  0  0  0  0  0  0
   46.4820   33.5220   40.5420 H   0  0  0  0  0  0  0  0  0  0  0  0
   48.2960   33.7060   39.4910 N   0  0  0  0  0  0  0  0  0  0  0  0
   48.4000   32.2970   39.4550 C   0  0  0  0  0  0  0  0  0  0  0  0
   47.7740   31.8610   40.2840 H   0  0  0  0  0  0  0  0  0  0  0  0
   47.9940   31.6020   38.2140 C   0  0  0  0  0  0  0  0  0  0  0  0
   46.9480   31.1900   38.2490 H   0  0  0  0  0  0  0  0  0  0  0  0
   48.1190   32.3250   36.9930 N   0  0  0  0  0  0  0  0  0  0  0  0
   48.3960   31.7530   36.1690 H   0  0  0  0  0  0  0  0  0  0  0  0
   48.8360   33.5710   37.0890 C   0  0  0  0  0  0  0  0  0  0  0  0
   48.1900   34.3600   38.2050 C   0  0  0  0  0  0  0  0  0  0  0  0
  1  3  1  0  0  0  0
  1  4  1  0  0  0  0
  2  1  1  0  0  0  0
  4  9  2  0  0  0  0
  4  5  1  0  0  0  0
  5  6  2  0  0  0  0
  6  7  1  0  0  0  0
  6 10  1  0  0  0  0
  8  7  2  0  0  0  0
  9  8  1  0  0  0  0
 11  8  1  0  0  0  0
 12  5  1  0  0  0  0
 12 13  1  0  0  0  0
 14 16  1  0  0  0  0
 14  1  1  0  0  0  0
 15 14  1  0  0  0  0
 17 14  1  0  0  0  0
 18 17  1  0  0  0  0
 18 19  1  0  0  0  0
 20 21  1  0  0  0  0
 20 18  1  0  0  0  0
 22 24  1  0  0  0  0
 22 20  1  0  0  0  0
 23 22  1  0  0  0  0
 24 25  1  0  0  0  0
 25 17  1  0  0  0  0
M  END
>  <minimizedAffinity>
-3.76316452

>  <minimizedRMSD>
1.98445272

$$$$
