
 OpenBabel03242517243D

 43 46  0  0  1  0  0  0  0  0999 V2000
   35.1180   28.4150   38.0070 C   0  0  0  0  0  0  0  0  0  0  0  0
   35.9120   29.1230   37.0810 C   0  0  0  0  0  0  0  0  0  0  0  0
   37.1560   29.6460   37.5010 C   0  0  0  0  0  0  0  0  0  0  0  0
   37.5090   29.4270   38.7970 N   0  0  0  0  0  0  0  0  0  0  0  0
   36.7250   28.7420   39.6650 C   0  0  0  0  0  0  0  0  0  0  0  0
   35.5220   28.2320   39.2690 N   0  0  0  0  0  0  0  0  0  0  0  0
   37.1890   28.5670   41.0040 N   0  0  0  0  0  0  0  0  0  0  0  0
   36.4790   27.5770   41.8080 C   0  0  0  0  0  0  0  0  0  0  0  0
   36.6880   27.6710   43.2610 C   0  0  0  0  0  0  0  0  0  0  0  0
   38.0940   28.1140   43.5590 C   0  0  0  0  0  0  0  0  0  0  0  0
   38.2550   29.4840   42.9760 C   0  0  0  0  0  0  0  0  0  0  0  0
   38.2990   29.3440   41.4950 C   0  0  2  0  0  0  0  0  0  0  0  0
   34.2030   28.0660   37.5810 H   0  0  0  0  0  0  0  0  0  0  0  0
   35.6230   29.2900   36.0580 H   0  0  0  0  0  0  0  0  0  0  0  0
   37.7880   30.1920   36.8210 H   0  0  0  0  0  0  0  0  0  0  0  0
   35.3930   27.5810   41.5220 H   0  0  0  0  0  0  0  0  0  0  0  0
   36.8520   26.5970   41.4430 H   0  0  0  0  0  0  0  0  0  0  0  0
   36.5800   26.6430   43.7130 H   0  0  0  0  0  0  0  0  0  0  0  0
   36.0080   28.3560   43.7840 H   0  0  0  0  0  0  0  0  0  0  0  0
   38.8480   27.4380   43.0900 H   0  0  0  0  0  0  0  0  0  0  0  0
   38.2470   28.2030   44.6460 H   0  0  0  0  0  0  0  0  0  0  0  0
   39.1550   30.0190   43.3400 H   0  0  0  0  0  0  0  0  0  0  0  0
   37.3860   30.1000   43.2780 H   0  0  0  0  0  0  0  0  0  0  0  0
   39.2140   28.7400   41.2360 H   0  0  0  0  0  0  0  0  0  0  0  0
   40.7110   30.1520   40.1660 F   0  0  0  0  0  0  0  0  0  0  0  0
   39.6690   31.0300   40.1610 C   0  0  0  0  0  0  0  0  0  0  0  0
   38.4930   30.6420   40.8030 C   0  0  0  0  0  0  0  0  0  0  0  0
   37.4600   31.5710   40.7710 C   0  0  0  0  0  0  0  0  0  0  0  0
   37.5510   32.7990   40.1550 C   0  0  0  0  0  0  0  0  0  0  0  0
   38.7300   33.1520   39.5270 C   0  0  0  0  0  0  0  0  0  0  0  0
   39.7780   32.2550   39.5400 C   0  0  0  0  0  0  0  0  0  0  0  0
   36.5420   31.2900   41.2620 H   0  0  0  0  0  0  0  0  0  0  0  0
   36.7160   33.4890   40.1570 H   0  0  0  0  0  0  0  0  0  0  0  0
   38.7730   34.1200   39.0540 H   0  0  0  0  0  0  0  0  0  0  0  0
   40.9860   32.6370   38.8880 N   0  0  0  0  0  0  0  0  0  0  0  0
   41.5410   33.9690   39.1170 C   0  0  0  0  0  3  0  0  0  0  0  0
   40.8240   34.7810   38.8140 H   0  0  0  0  0  0  0  0  0  0  0  0
   42.7050   34.1610   38.1380 C   0  0  0  0  0  3  0  0  0  0  0  0
   43.0250   35.2040   38.0610 H   0  0  0  0  0  0  0  0  0  0  0  0
   42.1810   33.7470   36.8360 N   0  0  0  0  0  0  0  0  0  0  0  0
   41.1780   34.0130   36.7500 H   0  0  0  0  0  0  0  0  0  0  0  0
   42.3290   32.3110   36.8260 C   0  0  0  0  0  2  0  0  0  0  0  0
   41.6490   31.6970   38.0070 C   0  0  0  0  0  2  0  0  0  0  0  0
  1  6  1  0  0  0  0
  2  3  1  0  0  0  0
  2  1  2  0  0  0  0
  3  4  2  0  0  0  0
  4  5  1  0  0  0  0
  5  7  1  0  0  0  0
  6  5  2  0  0  0  0
  7 12  1  0  0  0  0
  7  8  1  0  0  0  0
  8  9  1  0  0  0  0
  9 10  1  0  0  0  0
  9 18  1  0  0  0  0
  9 19  1  0  0  0  0
 10 21  1  0  0  0  0
 11 23  1  0  0  0  0
 11 22  1  0  0  0  0
 11 10  1  0  0  0  0
 12 24  1  6  0  0  0
 12 11  1  0  0  0  0
 13  1  1  0  0  0  0
 14  2  1  0  0  0  0
 15  3  1  0  0  0  0
 16  8  1  0  0  0  0
 17  8  1  0  0  0  0
 20 10  1  0  0  0  0
 26 25  1  0  0  0  0
 26 27  1  0  0  0  0
 27 12  1  0  0  0  0
 28 27  2  0  0  0  0
 28 32  1  0  0  0  0
 29 33  1  0  0  0  0
 29 28  1  0  0  0  0
 30 31  1  0  0  0  0
 30 29  2  0  0  0  0
 31 26  2  0  0  0  0
 34 30  1  0  0  0  0
 35 36  1  0  0  0  0
 35 31  1  0  0  0  0
 37 36  1  0  0  0  0
 38 36  1  0  0  0  0
 39 38  1  0  0  0  0
 40 38  1  0  0  0  0
 41 40  1  0  0  0  0
 42 40  1  0  0  0  0
 42 43  1  0  0  0  0
 43 35  1  0  0  0  0
M  END
>  <minimizedAffinity>
-6.49688435

$$$$

 OpenBabel03242517243D

 43 46  0  0  1  0  0  0  0  0999 V2000
   42.1990   30.8940   42.9800 C   0  0  0  0  0  0  0  0  0  0  0  0
   42.3210   29.4890   42.9700 C   0  0  0  0  0  0  0  0  0  0  0  0
   41.3770   28.7220   42.2490 C   0  0  0  0  0  0  0  0  0  0  0  0
   40.3950   29.4070   41.6010 N   0  0  0  0  0  0  0  0  0  0  0  0
   40.3030   30.7590   41.6290 C   0  0  0  0  0  0  0  0  0  0  0  0
   41.2100   31.5080   42.3220 N   0  0  0  0  0  0  0  0  0  0  0  0
   39.2340   31.3800   40.9150 N   0  0  0  0  0  0  0  0  0  0  0  0
   39.3460   32.8210   40.7110 C   0  0  0  0  0  0  0  0  0  0  0  0
   38.1000   33.5080   40.3360 C   0  0  0  0  0  0  0  0  0  0  0  0
   37.2550   32.6200   39.4650 C   0  0  0  0  0  0  0  0  0  0  0  0
   36.8960   31.4170   40.2810 C   0  0  0  0  0  0  0  0  0  0  0  0
   38.1250   30.5930   40.4380 C   0  0  2  0  0  0  0  0  0  0  0  0
   42.9650   31.3670   43.5540 H   0  0  0  0  0  0  0  0  0  0  0  0
   43.1020   28.9570   43.4850 H   0  0  0  0  0  0  0  0  0  0  0  0
   41.4390   27.6470   42.2190 H   0  0  0  0  0  0  0  0  0  0  0  0
   39.8450   33.2810   41.6060 H   0  0  0  0  0  0  0  0  0  0  0  0
   40.0910   32.9340   39.8960 H   0  0  0  0  0  0  0  0  0  0  0  0
   38.3550   34.4110   39.7120 H   0  0  0  0  0  0  0  0  0  0  0  0
   37.4770   33.8310   41.1800 H   0  0  0  0  0  0  0  0  0  0  0  0
   37.8120   32.2800   38.5590 H   0  0  0  0  0  0  0  0  0  0  0  0
   36.3150   33.1250   39.1980 H   0  0  0  0  0  0  0  0  0  0  0  0
   36.0770   30.8110   39.8440 H   0  0  0  0  0  0  0  0  0  0  0  0
   36.5340   31.7580   41.2700 H   0  0  0  0  0  0  0  0  0  0  0  0
   38.4350   30.2430   39.4130 H   0  0  0  0  0  0  0  0  0  0  0  0
   38.2800   27.9390   39.3530 F   0  0  0  0  0  0  0  0  0  0  0  0
   37.9570   28.0590   40.6730 C   0  0  0  0  0  0  0  0  0  0  0  0
   37.8830   29.3450   41.2060 C   0  0  0  0  0  0  0  0  0  0  0  0
   37.5510   29.4160   42.5530 C   0  0  0  0  0  0  0  0  0  0  0  0
   37.3080   28.3140   43.3420 C   0  0  0  0  0  0  0  0  0  0  0  0
   37.3910   27.0530   42.7820 C   0  0  0  0  0  0  0  0  0  0  0  0
   37.7170   26.9460   41.4470 C   0  0  0  0  0  0  0  0  0  0  0  0
   37.4890   30.4020   42.9850 H   0  0  0  0  0  0  0  0  0  0  0  0
   37.0530   28.4210   44.3900 H   0  0  0  0  0  0  0  0  0  0  0  0
   37.1940   26.2090   43.4230 H   0  0  0  0  0  0  0  0  0  0  0  0
   37.7960   25.6370   40.8870 N   0  0  0  0  0  0  0  0  0  0  0  0
   36.5720   24.9350   40.5140 C   0  0  0  0  0  3  0  0  0  0  0  0
   35.8840   24.7910   41.3920 H   0  0  0  0  0  0  0  0  0  0  0  0
   36.9560   23.4970   40.1430 C   0  0  0  0  0  3  0  0  0  0  0  0
   36.0910   22.8300   40.0870 H   0  0  0  0  0  0  0  0  0  0  0  0
   37.8160   23.0390   41.2340 N   0  0  0  0  0  0  0  0  0  0  0  0
   37.4920   23.4370   42.1400 H   0  0  0  0  0  0  0  0  0  0  0  0
   39.1260   23.5410   40.8970 C   0  0  0  0  0  2  0  0  0  0  0  0
   39.0950   25.0210   40.6950 C   0  0  0  0  0  2  0  0  0  0  0  0
  1 13  1  0  0  0  0
  2  1  1  0  0  0  0
  2 14  1  0  0  0  0
  3  2  2  0  0  0  0
  4  5  2  0  0  0  0
  4  3  1  0  0  0  0
  5  6  1  0  0  0  0
  6  1  2  0  0  0  0
  7  5  1  0  0  0  0
  8  7  1  0  0  0  0
  8 16  1  0  0  0  0
  9  8  1  0  0  0  0
  9 19  1  0  0  0  0
 10 11  1  0  0  0  0
 10  9  1  0  0  0  0
 11 12  1  0  0  0  0
 11 23  1  0  0  0  0
 12 24  1  6  0  0  0
 12  7  1  0  0  0  0
 12 27  1  0  0  0  0
 15  3  1  0  0  0  0
 17  8  1  0  0  0  0
 18  9  1  0  0  0  0
 20 10  1  0  0  0  0
 21 10  1  0  0  0  0
 22 11  1  0  0  0  0
 25 26  1  0  0  0  0
 26 27  2  0  0  0  0
 26 31  1  0  0  0  0
 27 28  1  0  0  0  0
 28 32  1  0  0  0  0
 28 29  2  0  0  0  0
 29 33  1  0  0  0  0
 30 29  1  0  0  0  0
 30 34  1  0  0  0  0
 31 30  2  0  0  0  0
 35 31  1  0  0  0  0
 36 35  1  0  0  0  0
 36 37  1  0  0  0  0
 38 36  1  0  0  0  0
 38 40  1  0  0  0  0
 39 38  1  0  0  0  0
 40 41  1  0  0  0  0
 42 40  1  0  0  0  0
 43 35  1  0  0  0  0
 43 42  1  0  0  0  0
M  END
>  <minimizedAffinity>
-5.91497135

$$$$

 OpenBabel03242517243D

 43 46  0  0  1  0  0  0  0  0999 V2000
   42.2250   25.3690   42.1130 C   0  0  0  0  0  0  0  0  0  0  0  0
   41.9860   26.0690   43.3140 C   0  0  0  0  0  0  0  0  0  0  0  0
   40.6550   26.3760   43.6790 C   0  0  0  0  0  0  0  0  0  0  0  0
   39.6750   25.9680   42.8280 N   0  0  0  0  0  0  0  0  0  0  0  0
   39.9350   25.2950   41.6800 C   0  0  0  0  0  0  0  0  0  0  0  0
   41.2160   24.9930   41.3190 N   0  0  0  0  0  0  0  0  0  0  0  0
   38.8330   24.9110   40.8560 N   0  0  0  0  0  0  0  0  0  0  0  0
   39.1200   23.9350   39.8090 C   0  0  0  0  0  0  0  0  0  0  0  0
   38.1140   23.8360   38.7400 C   0  0  0  0  0  0  0  0  0  0  0  0
   36.7350   24.0570   39.2990 C   0  0  0  0  0  0  0  0  0  0  0  0
   36.7000   25.4520   39.8420 C   0  0  0  0  0  0  0  0  0  0  0  0
   37.5270   25.4770   41.0800 C   0  0  2  0  0  0  0  0  0  0  0  0
   43.2630   25.1920   41.9410 H   0  0  0  0  0  0  0  0  0  0  0  0
   42.7690   26.3870   43.9800 H   0  0  0  0  0  0  0  0  0  0  0  0
   40.4370   26.9100   44.5890 H   0  0  0  0  0  0  0  0  0  0  0  0
   40.1570   24.1130   39.4160 H   0  0  0  0  0  0  0  0  0  0  0  0
   39.1930   22.9630   40.3410 H   0  0  0  0  0  0  0  0  0  0  0  0
   38.1210   22.7860   38.3280 H   0  0  0  0  0  0  0  0  0  0  0  0
   38.2500   24.5390   37.9090 H   0  0  0  0  0  0  0  0  0  0  0  0
   36.5070   23.3470   40.1290 H   0  0  0  0  0  0  0  0  0  0  0  0
   35.9820   24.0010   38.4980 H   0  0  0  0  0  0  0  0  0  0  0  0
   35.6770   25.8220   40.0530 H   0  0  0  0  0  0  0  0  0  0  0  0
   37.1260   26.1360   39.0840 H   0  0  0  0  0  0  0  0  0  0  0  0
   37.0380   24.7940   41.8310 H   0  0  0  0  0  0  0  0  0  0  0  0
   38.6470   27.8590   39.9340 F   0  0  0  0  0  0  0  0  0  0  0  0
   38.0870   27.9630   41.1730 C   0  0  0  0  0  0  0  0  0  0  0  0
   37.5390   26.8100   41.7330 C   0  0  0  0  0  0  0  0  0  0  0  0
   36.9790   26.9660   42.9960 C   0  0  0  0  0  0  0  0  0  0  0  0
   36.9470   28.1610   43.6780 C   0  0  0  0  0  0  0  0  0  0  0  0
   37.4980   29.2860   43.0930 C   0  0  0  0  0  0  0  0  0  0  0  0
   38.0630   29.1670   41.8410 C   0  0  0  0  0  0  0  0  0  0  0  0
   36.5500   26.0860   43.4460 H   0  0  0  0  0  0  0  0  0  0  0  0
   36.4980   28.2330   44.6610 H   0  0  0  0  0  0  0  0  0  0  0  0
   37.4590   30.2080   43.6510 H   0  0  0  0  0  0  0  0  0  0  0  0
   38.6280   30.3380   41.2550 N   0  0  0  0  0  0  0  0  0  0  0  0
   40.0300   30.6630   41.4980 C   0  0  0  0  0  3  0  0  0  0  0  0
   40.2460   30.8010   42.5930 H   0  0  0  0  0  0  0  0  0  0  0  0
   40.2880   32.0610   40.9220 C   0  0  0  0  0  3  0  0  0  0  0  0
   41.2330   32.4920   41.2660 H   0  0  0  0  0  0  0  0  0  0  0  0
   39.1960   32.8910   41.4280 N   0  0  0  0  0  0  0  0  0  0  0  0
   38.9380   32.5980   42.3940 H   0  0  0  0  0  0  0  0  0  0  0  0
   38.1040   32.6490   40.5150 C   0  0  0  0  0  2  0  0  0  0  0  0
   37.8000   31.1890   40.4230 C   0  0  0  0  0  2  0  0  0  0  0  0
  1  2  1  0  0  0  0
  2  3  2  0  0  0  0
  2 14  1  0  0  0  0
  3 15  1  0  0  0  0
  4  3  1  0  0  0  0
  5  4  2  0  0  0  0
  6  5  1  0  0  0  0
  6  1  2  0  0  0  0
  7 12  1  0  0  0  0
  7  5  1  0  0  0  0
  8 17  1  0  0  0  0
  8  7  1  0  0  0  0
  9 10  1  0  0  0  0
  9  8  1  0  0  0  0
 10 11  1  0  0  0  0
 10 20  1  0  0  0  0
 11 22  1  0  0  0  0
 11 12  1  0  0  0  0
 12 27  1  0  0  0  0
 12 24  1  1  0  0  0
 13  1  1  0  0  0  0
 16  8  1  0  0  0  0
 18  9  1  0  0  0  0
 19  9  1  0  0  0  0
 21 10  1  0  0  0  0
 23 11  1  0  0  0  0
 25 26  1  0  0  0  0
 26 27  2  0  0  0  0
 26 31  1  0  0  0  0
 27 28  1  0  0  0  0
 28 32  1  0  0  0  0
 28 29  2  0  0  0  0
 29 33  1  0  0  0  0
 30 34  1  0  0  0  0
 30 29  1  0  0  0  0
 31 30  2  0  0  0  0
 35 36  1  0  0  0  0
 35 31  1  0  0  0  0
 36 37  1  0  0  0  0
 38 39  1  0  0  0  0
 38 40  1  0  0  0  0
 38 36  1  0  0  0  0
 40 41  1  0  0  0  0
 42 40  1  0  0  0  0
 43 42  1  0  0  0  0
 43 35  1  0  0  0  0
M  END
>  <minimizedAffinity>
-5.88235331

$$$$

 OpenBabel03242517243D

 43 46  0  0  1  0  0  0  0  0999 V2000
   37.4080   31.2680   38.5670 C   0  0  0  0  0  0  0  0  0  0  0  0
   36.2010   30.7770   39.1050 C   0  0  0  0  0  0  0  0  0  0  0  0
   36.1890   30.2790   40.4290 C   0  0  0  0  0  0  0  0  0  0  0  0
   37.3700   30.3080   41.1060 N   0  0  0  0  0  0  0  0  0  0  0  0
   38.5150   30.7870   40.5620 C   0  0  0  0  0  0  0  0  0  0  0  0
   38.5360   31.2690   39.2850 N   0  0  0  0  0  0  0  0  0  0  0  0
   39.7000   30.7730   41.3590 N   0  0  0  0  0  0  0  0  0  0  0  0
   40.8200   31.5670   40.8620 C   0  0  0  0  0  0  0  0  0  0  0  0
   42.1320   31.2520   41.4500 C   0  0  0  0  0  0  0  0  0  0  0  0
   41.9780   30.8650   42.8950 C   0  0  0  0  0  0  0  0  0  0  0  0
   41.1420   29.6230   42.9300 C   0  0  0  0  0  0  0  0  0  0  0  0
   39.7470   30.0050   42.5770 C   0  0  2  0  0  0  0  0  0  0  0  0
   37.2980   31.6170   37.5640 H   0  0  0  0  0  0  0  0  0  0  0  0
   35.2720   30.7590   38.5610 H   0  0  0  0  0  0  0  0  0  0  0  0
   35.2850   29.8970   40.8720 H   0  0  0  0  0  0  0  0  0  0  0  0
   40.8260   31.5340   39.7400 H   0  0  0  0  0  0  0  0  0  0  0  0
   40.5500   32.6170   41.1020 H   0  0  0  0  0  0  0  0  0  0  0  0
   42.7690   32.1820   41.4400 H   0  0  0  0  0  0  0  0  0  0  0  0
   42.6820   30.4450   40.9490 H   0  0  0  0  0  0  0  0  0  0  0  0
   41.4580   31.6590   43.4820 H   0  0  0  0  0  0  0  0  0  0  0  0
   42.9560   30.6110   43.3320 H   0  0  0  0  0  0  0  0  0  0  0  0
   41.1640   29.0990   43.9060 H   0  0  0  0  0  0  0  0  0  0  0  0
   41.5420   28.9080   42.1860 H   0  0  0  0  0  0  0  0  0  0  0  0
   39.3730   30.7050   43.3770 H   0  0  0  0  0  0  0  0  0  0  0  0
   39.8230   27.7680   40.7800 F   0  0  0  0  0  0  0  0  0  0  0  0
   38.8520   27.7710   41.7370 C   0  0  0  0  0  0  0  0  0  0  0  0
   38.8120   28.8540   42.6140 C   0  0  0  0  0  0  0  0  0  0  0  0
   37.8050   28.8110   43.5710 C   0  0  0  0  0  0  0  0  0  0  0  0
   36.8920   27.7860   43.6800 C   0  0  0  0  0  0  0  0  0  0  0  0
   36.9610   26.7270   42.7940 C   0  0  0  0  0  0  0  0  0  0  0  0
   37.9470   26.7370   41.8310 C   0  0  0  0  0  0  0  0  0  0  0  0
   37.7570   29.6400   44.2590 H   0  0  0  0  0  0  0  0  0  0  0  0
   36.1250   27.7980   44.4450 H   0  0  0  0  0  0  0  0  0  0  0  0
   36.2330   25.9390   42.9030 H   0  0  0  0  0  0  0  0  0  0  0  0
   38.0010   25.6360   40.9260 N   0  0  0  0  0  0  0  0  0  0  0  0
   37.1190   25.6130   39.7620 C   0  0  0  0  0  3  0  0  0  0  0  0
   36.0340   25.6450   40.0550 H   0  0  0  0  0  0  0  0  0  0  0  0
   37.2540   24.2340   39.1050 C   0  0  0  0  0  3  0  0  0  0  0  0
   36.4610   24.0330   38.3780 H   0  0  0  0  0  0  0  0  0  0  0  0
   37.1230   23.2750   40.2010 N   0  0  0  0  0  0  0  0  0  0  0  0
   36.4370   23.6210   40.9040 H   0  0  0  0  0  0  0  0  0  0  0  0
   38.4460   23.1990   40.7750 C   0  0  0  0  0  2  0  0  0  0  0  0
   38.9320   24.5530   41.1750 C   0  0  0  0  0  2  0  0  0  0  0  0
  1  2  2  0  0  0  0
  1  6  1  0  0  0  0
  2  3  1  0  0  0  0
  3 15  1  0  0  0  0
  3  4  2  0  0  0  0
  5  4  1  0  0  0  0
  5  7  1  0  0  0  0
  6  5  2  0  0  0  0
  7 12  1  0  0  0  0
  8 17  1  0  0  0  0
  8  7  1  0  0  0  0
  8  9  1  0  0  0  0
  9 10  1  0  0  0  0
 10 11  1  0  0  0  0
 10 21  1  0  0  0  0
 10 20  1  0  0  0  0
 11 22  1  0  0  0  0
 12 27  1  0  0  0  0
 12 11  1  0  0  0  0
 12 24  1  1  0  0  0
 13  1  1  0  0  0  0
 14  2  1  0  0  0  0
 16  8  1  0  0  0  0
 18  9  1  0  0  0  0
 19  9  1  0  0  0  0
 23 11  1  0  0  0  0
 25 26  1  0  0  0  0
 26 31  2  0  0  0  0
 26 27  1  0  0  0  0
 27 28  2  0  0  0  0
 28 29  1  0  0  0  0
 28 32  1  0  0  0  0
 29 33  1  0  0  0  0
 30 34  1  0  0  0  0
 30 29  2  0  0  0  0
 31 30  1  0  0  0  0
 35 43  1  0  0  0  0
 35 31  1  0  0  0  0
 36 37  1  0  0  0  0
 36 35  1  0  0  0  0
 38 36  1  0  0  0  0
 38 40  1  0  0  0  0
 39 38  1  0  0  0  0
 40 42  1  0  0  0  0
 40 41  1  0  0  0  0
 42 43  1  0  0  0  0
M  END
>  <minimizedAffinity>
-5.83557272

$$$$

 OpenBabel03242517243D

 43 46  0  0  1  0  0  0  0  0999 V2000
   37.3650   26.8530   36.7780 C   0  0  0  0  0  0  0  0  0  0  0  0
   36.9310   25.8040   37.6160 C   0  0  0  0  0  0  0  0  0  0  0  0
   36.5560   26.0980   38.9470 C   0  0  0  0  0  0  0  0  0  0  0  0
   36.6400   27.3990   39.3370 N   0  0  0  0  0  0  0  0  0  0  0  0
   37.0610   28.3860   38.5080 C   0  0  0  0  0  0  0  0  0  0  0  0
   37.4250   28.1130   37.2210 N   0  0  0  0  0  0  0  0  0  0  0  0
   37.1120   29.7200   39.0160 N   0  0  0  0  0  0  0  0  0  0  0  0
   37.2660   30.7810   38.0260 C   0  0  0  0  0  0  0  0  0  0  0  0
   37.7040   32.0830   38.5530 C   0  0  0  0  0  0  0  0  0  0  0  0
   37.1230   32.3150   39.9210 C   0  0  0  0  0  0  0  0  0  0  0  0
   37.6650   31.2450   40.8160 C   0  0  0  0  0  0  0  0  0  0  0  0
   37.0150   29.9620   40.4330 C   0  0  2  0  0  0  0  0  0  0  0  0
   37.6210   26.5150   35.7980 H   0  0  0  0  0  0  0  0  0  0  0  0
   36.8680   24.7780   37.2980 H   0  0  0  0  0  0  0  0  0  0  0  0
   36.2200   25.3220   39.6140 H   0  0  0  0  0  0  0  0  0  0  0  0
   37.9140   30.4110   37.1870 H   0  0  0  0  0  0  0  0  0  0  0  0
   36.2600   30.8870   37.5670 H   0  0  0  0  0  0  0  0  0  0  0  0
   37.2940   32.9010   37.8940 H   0  0  0  0  0  0  0  0  0  0  0  0
   38.7910   32.2100   38.6310 H   0  0  0  0  0  0  0  0  0  0  0  0
   36.0090   32.2410   39.9140 H   0  0  0  0  0  0  0  0  0  0  0  0
   37.4640   33.2810   40.3250 H   0  0  0  0  0  0  0  0  0  0  0  0
   37.5140   31.4480   41.8950 H   0  0  0  0  0  0  0  0  0  0  0  0
   38.7600   31.1790   40.6640 H   0  0  0  0  0  0  0  0  0  0  0  0
   35.9110   30.0650   40.6360 H   0  0  0  0  0  0  0  0  0  0  0  0
   39.6830   28.9070   40.5270 F   0  0  0  0  0  0  0  0  0  0  0  0
   38.7470   28.3150   41.3210 C   0  0  0  0  0  0  0  0  0  0  0  0
   37.4500   28.8240   41.2820 C   0  0  0  0  0  0  0  0  0  0  0  0
   36.5320   28.1880   42.1090 C   0  0  0  0  0  0  0  0  0  0  0  0
   36.8440   27.1260   42.9270 C   0  0  0  0  0  0  0  0  0  0  0  0
   38.1410   26.6460   42.9430 C   0  0  0  0  0  0  0  0  0  0  0  0
   39.0780   27.2530   42.1340 C   0  0  0  0  0  0  0  0  0  0  0  0
   35.5230   28.5670   42.0930 H   0  0  0  0  0  0  0  0  0  0  0  0
   36.0930   26.6630   43.5550 H   0  0  0  0  0  0  0  0  0  0  0  0
   38.3560   25.8130   43.5930 H   0  0  0  0  0  0  0  0  0  0  0  0
   40.4090   26.7430   42.1630 N   0  0  0  0  0  0  0  0  0  0  0  0
   40.8500   25.8160   41.1250 C   0  0  0  0  0  3  0  0  0  0  0  0
   40.2240   24.8820   41.1000 H   0  0  0  0  0  0  0  0  0  0  0  0
   42.2320   25.2890   41.5310 C   0  0  0  0  0  3  0  0  0  0  0  0
   42.5370   24.4130   40.9510 H   0  0  0  0  0  0  0  0  0  0  0  0
   42.0890   24.8830   42.9290 N   0  0  0  0  0  0  0  0  0  0  0  0
   41.1410   24.4850   43.0940 H   0  0  0  0  0  0  0  0  0  0  0  0
   42.2670   26.1040   43.6800 C   0  0  0  0  0  2  0  0  0  0  0  0
   41.3070   27.1540   43.2240 C   0  0  0  0  0  2  0  0  0  0  0  0
  1  6  2  0  0  0  0
  1  2  1  0  0  0  0
  2  3  2  0  0  0  0
  3  4  1  0  0  0  0
  3 15  1  0  0  0  0
  5  7  1  0  0  0  0
  5  4  2  0  0  0  0
  6  5  1  0  0  0  0
  7 12  1  0  0  0  0
  8  9  1  0  0  0  0
  8  7  1  0  0  0  0
  9 19  1  0  0  0  0
  9 10  1  0  0  0  0
 10 21  1  0  0  0  0
 10 11  1  0  0  0  0
 11 22  1  0  0  0  0
 12 24  1  1  0  0  0
 12 11  1  0  0  0  0
 12 27  1  0  0  0  0
 13  1  1  0  0  0  0
 14  2  1  0  0  0  0
 16  8  1  0  0  0  0
 17  8  1  0  0  0  0
 18  9  1  0  0  0  0
 20 10  1  0  0  0  0
 23 11  1  0  0  0  0
 25 26  1  0  0  0  0
 26 31  1  0  0  0  0
 27 26  2  0  0  0  0
 27 28  1  0  0  0  0
 28 29  2  0  0  0  0
 29 30  1  0  0  0  0
 29 33  1  0  0  0  0
 30 34  1  0  0  0  0
 31 35  1  0  0  0  0
 31 30  2  0  0  0  0
 32 28  1  0  0  0  0
 35 43  1  0  0  0  0
 36 38  1  0  0  0  0
 36 35  1  0  0  0  0
 37 36  1  0  0  0  0
 38 40  1  0  0  0  0
 39 38  1  0  0  0  0
 40 41  1  0  0  0  0
 40 42  1  0  0  0  0
 43 42  1  0  0  0  0
M  END
>  <minimizedAffinity>
-5.77465248

$$$$

 OpenBabel03242517243D

 43 46  0  0  1  0  0  0  0  0999 V2000
   42.4320   26.5890   38.4090 C   0  0  0  0  0  0  0  0  0  0  0  0
   42.7530   27.3970   39.5190 C   0  0  0  0  0  0  0  0  0  0  0  0
   42.1240   27.1440   40.7600 C   0  0  0  0  0  0  0  0  0  0  0  0
   41.2320   26.1170   40.7980 N   0  0  0  0  0  0  0  0  0  0  0  0
   40.9430   25.3560   39.7140 C   0  0  0  0  0  0  0  0  0  0  0  0
   41.5460   25.5920   38.5120 N   0  0  0  0  0  0  0  0  0  0  0  0
   39.9930   24.3010   39.8620 N   0  0  0  0  0  0  0  0  0  0  0  0
   39.9410   23.3240   38.7780 C   0  0  0  0  0  0  0  0  0  0  0  0
   38.7320   22.4870   38.7350 C   0  0  0  0  0  0  0  0  0  0  0  0
   38.2510   22.1910   40.1290 C   0  0  0  0  0  0  0  0  0  0  0  0
   37.8870   23.5020   40.7550 C   0  0  0  0  0  0  0  0  0  0  0  0
   39.1510   24.2390   41.0290 C   0  0  2  0  0  0  0  0  0  0  0  0
   42.9660   26.8700   37.5290 H   0  0  0  0  0  0  0  0  0  0  0  0
   43.4600   28.2080   39.4780 H   0  0  0  0  0  0  0  0  0  0  0  0
   42.3450   27.7420   41.6290 H   0  0  0  0  0  0  0  0  0  0  0  0
   40.1460   23.8440   37.8040 H   0  0  0  0  0  0  0  0  0  0  0  0
   40.8320   22.6800   38.9350 H   0  0  0  0  0  0  0  0  0  0  0  0
   38.9930   21.4910   38.2750 H   0  0  0  0  0  0  0  0  0  0  0  0
   37.8890   22.9180   38.1800 H   0  0  0  0  0  0  0  0  0  0  0  0
   39.0470   21.7120   40.7470 H   0  0  0  0  0  0  0  0  0  0  0  0
   37.3360   21.5800   40.0990 H   0  0  0  0  0  0  0  0  0  0  0  0
   37.2890   23.4020   41.6820 H   0  0  0  0  0  0  0  0  0  0  0  0
   37.2590   24.0700   40.0420 H   0  0  0  0  0  0  0  0  0  0  0  0
   39.7390   23.6410   41.7810 H   0  0  0  0  0  0  0  0  0  0  0  0
   37.8240   26.4770   39.8150 F   0  0  0  0  0  0  0  0  0  0  0  0
   38.2740   26.6330   41.0920 C   0  0  0  0  0  0  0  0  0  0  0  0
   38.9170   25.5490   41.6880 C   0  0  0  0  0  0  0  0  0  0  0  0
   39.3580   25.7560   42.9890 C   0  0  0  0  0  0  0  0  0  0  0  0
   39.1880   26.9360   43.6780 C   0  0  0  0  0  0  0  0  0  0  0  0
   38.5450   27.9920   43.0580 C   0  0  0  0  0  0  0  0  0  0  0  0
   38.0960   27.8210   41.7650 C   0  0  0  0  0  0  0  0  0  0  0  0
   39.8580   24.9300   43.4680 H   0  0  0  0  0  0  0  0  0  0  0  0
   39.5490   27.0500   44.6930 H   0  0  0  0  0  0  0  0  0  0  0  0
   38.4270   28.9040   43.6210 H   0  0  0  0  0  0  0  0  0  0  0  0
   37.4360   28.9210   41.1420 N   0  0  0  0  0  0  0  0  0  0  0  0
   37.9910   30.2650   41.2740 C   0  0  0  0  0  3  0  0  0  0  0  0
   38.0590   30.5890   42.3490 H   0  0  0  0  0  0  0  0  0  0  0  0
   36.9710   31.2470   40.6870 C   0  0  0  0  0  3  0  0  0  0  0  0
   37.1810   32.2870   40.9570 H   0  0  0  0  0  0  0  0  0  0  0  0
   35.6900   30.8710   41.2850 N   0  0  0  0  0  0  0  0  0  0  0  0
   35.8300   30.5520   42.2670 H   0  0  0  0  0  0  0  0  0  0  0  0
   35.2110   29.7860   40.4610 C   0  0  0  0  0  2  0  0  0  0  0  0
   36.2220   28.6880   40.3850 C   0  0  0  0  0  2  0  0  0  0  0  0
  1  6  2  0  0  0  0
  1  2  1  0  0  0  0
  2  3  2  0  0  0  0
  3  4  1  0  0  0  0
  3 15  1  0  0  0  0
  5  7  1  0  0  0  0
  5  4  2  0  0  0  0
  6  5  1  0  0  0  0
  7 12  1  0  0  0  0
  8 17  1  0  0  0  0
  8  7  1  0  0  0  0
  9  8  1  0  0  0  0
  9 10  1  0  0  0  0
 10 20  1  0  0  0  0
 10 11  1  0  0  0  0
 11 12  1  0  0  0  0
 11 22  1  0  0  0  0
 12 27  1  0  0  0  0
 12 24  1  1  0  0  0
 13  1  1  0  0  0  0
 14  2  1  0  0  0  0
 16  8  1  0  0  0  0
 18  9  1  0  0  0  0
 19  9  1  0  0  0  0
 21 10  1  0  0  0  0
 23 11  1  0  0  0  0
 25 26  1  0  0  0  0
 26 27  2  0  0  0  0
 26 31  1  0  0  0  0
 27 28  1  0  0  0  0
 28 32  1  0  0  0  0
 28 29  2  0  0  0  0
 29 33  1  0  0  0  0
 30 34  1  0  0  0  0
 30 29  1  0  0  0  0
 31 30  2  0  0  0  0
 35 36  1  0  0  0  0
 35 31  1  0  0  0  0
 36 37  1  0  0  0  0
 38 39  1  0  0  0  0
 38 36  1  0  0  0  0
 38 40  1  0  0  0  0
 40 41  1  0  0  0  0
 42 40  1  0  0  0  0
 43 42  1  0  0  0  0
 43 35  1  0  0  0  0
M  END
>  <minimizedAffinity>
-5.75129557

$$$$

 OpenBabel03242517243D

 43 46  0  0  1  0  0  0  0  0999 V2000
   39.6650   31.1560   38.6950 C   0  0  0  0  0  0  0  0  0  0  0  0
   38.6300   31.5370   37.8170 C   0  0  0  0  0  0  0  0  0  0  0  0
   37.2960   31.1920   38.1350 C   0  0  0  0  0  0  0  0  0  0  0  0
   37.1000   30.5000   39.2910 N   0  0  0  0  0  0  0  0  0  0  0  0
   38.1160   30.1480   40.1160 C   0  0  0  0  0  0  0  0  0  0  0  0
   39.4070   30.4770   39.8170 N   0  0  0  0  0  0  0  0  0  0  0  0
   37.8010   29.4230   41.3060 N   0  0  0  0  0  0  0  0  0  0  0  0
   38.8610   29.3360   42.3060 C   0  0  0  0  0  0  0  0  0  0  0  0
   38.6860   28.2910   43.3270 C   0  0  0  0  0  0  0  0  0  0  0  0
   37.2280   28.1240   43.6590 C   0  0  0  0  0  0  0  0  0  0  0  0
   36.5420   27.6720   42.4080 C   0  0  0  0  0  0  0  0  0  0  0  0
   36.5000   28.8280   41.4710 C   0  0  2  0  0  0  0  0  0  0  0  0
   40.6270   31.4690   38.3540 H   0  0  0  0  0  0  0  0  0  0  0  0
   38.7960   32.0840   36.9050 H   0  0  0  0  0  0  0  0  0  0  0  0
   36.4800   31.4670   37.4880 H   0  0  0  0  0  0  0  0  0  0  0  0
   39.8540   29.2740   41.7850 H   0  0  0  0  0  0  0  0  0  0  0  0
   38.8720   30.3330   42.7950 H   0  0  0  0  0  0  0  0  0  0  0  0
   39.1900   28.6230   44.2790 H   0  0  0  0  0  0  0  0  0  0  0  0
   39.0760   27.3030   43.0510 H   0  0  0  0  0  0  0  0  0  0  0  0
   36.7680   29.0860   43.9890 H   0  0  0  0  0  0  0  0  0  0  0  0
   37.0940   27.3300   44.4100 H   0  0  0  0  0  0  0  0  0  0  0  0
   35.5210   27.2760   42.5790 H   0  0  0  0  0  0  0  0  0  0  0  0
   37.1260   26.8420   41.9660 H   0  0  0  0  0  0  0  0  0  0  0  0
   35.8700   29.6310   41.9480 H   0  0  0  0  0  0  0  0  0  0  0  0
   37.3740   26.8630   39.5680 F   0  0  0  0  0  0  0  0  0  0  0  0
   36.2360   27.5550   39.2770 C   0  0  0  0  0  0  0  0  0  0  0  0
   35.8050   28.5080   40.1990 C   0  0  0  0  0  0  0  0  0  0  0  0
   34.6400   29.1850   39.8590 C   0  0  0  0  0  0  0  0  0  0  0  0
   33.9310   28.9580   38.7010 C   0  0  0  0  0  0  0  0  0  0  0  0
   34.3850   28.0040   37.8090 C   0  0  0  0  0  0  0  0  0  0  0  0
   35.5380   27.3130   38.1140 C   0  0  0  0  0  0  0  0  0  0  0  0
   34.2900   29.9270   40.5580 H   0  0  0  0  0  0  0  0  0  0  0  0
   33.0260   29.5120   38.4800 H   0  0  0  0  0  0  0  0  0  0  0  0
   33.8100   27.8470   36.9110 H   0  0  0  0  0  0  0  0  0  0  0  0
   35.9920   26.3350   37.1820 N   0  0  0  0  0  0  0  0  0  0  0  0
   35.4340   24.9860   37.2220 C   0  0  0  0  0  3  0  0  0  0  0  0
   35.6090   24.4870   38.2140 H   0  0  0  0  0  0  0  0  0  0  0  0
   36.2500   24.1180   36.2560 C   0  0  0  0  0  3  0  0  0  0  0  0
   36.0710   23.0470   36.3960 H   0  0  0  0  0  0  0  0  0  0  0  0
   37.6490   24.3940   36.5850 N   0  0  0  0  0  0  0  0  0  0  0  0
   37.7560   24.5440   37.6100 H   0  0  0  0  0  0  0  0  0  0  0  0
   37.9590   25.6020   35.8580 C   0  0  0  0  0  2  0  0  0  0  0  0
   37.0010   26.6940   36.2050 C   0  0  0  0  0  2  0  0  0  0  0  0
  1  6  1  0  0  0  0
  2  3  1  0  0  0  0
  2  1  2  0  0  0  0
  3  4  2  0  0  0  0
  4  5  1  0  0  0  0
  5  7  1  0  0  0  0
  6  5  2  0  0  0  0
  7 12  1  0  0  0  0
  7  8  1  0  0  0  0
  8 17  1  0  0  0  0
  8  9  1  0  0  0  0
  9 10  1  0  0  0  0
  9 18  1  0  0  0  0
 10 20  1  0  0  0  0
 10 21  1  0  0  0  0
 11 22  1  0  0  0  0
 11 10  1  0  0  0  0
 12 24  1  1  0  0  0
 12 11  1  0  0  0  0
 13  1  1  0  0  0  0
 14  2  1  0  0  0  0
 15  3  1  0  0  0  0
 16  8  1  0  0  0  0
 19  9  1  0  0  0  0
 23 11  1  0  0  0  0
 26 25  1  0  0  0  0
 26 27  1  0  0  0  0
 27 12  1  0  0  0  0
 28 27  2  0  0  0  0
 28 32  1  0  0  0  0
 29 28  1  0  0  0  0
 30 31  1  0  0  0  0
 30 29  2  0  0  0  0
 31 26  2  0  0  0  0
 33 29  1  0  0  0  0
 34 30  1  0  0  0  0
 35 36  1  0  0  0  0
 35 31  1  0  0  0  0
 36 37  1  0  0  0  0
 38 39  1  0  0  0  0
 38 40  1  0  0  0  0
 38 36  1  0  0  0  0
 40 41  1  0  0  0  0
 42 43  1  0  0  0  0
 42 40  1  0  0  0  0
 43 35  1  0  0  0  0
M  END
>  <minimizedAffinity>
-5.74379778

$$$$

 OpenBabel03242517243D

 43 46  0  0  1  0  0  0  0  0999 V2000
   39.4810   25.8890   42.9190 C   0  0  0  0  0  0  0  0  0  0  0  0
   39.2310   27.0500   43.6800 C   0  0  0  0  0  0  0  0  0  0  0  0
   38.2130   27.9390   43.2630 C   0  0  0  0  0  0  0  0  0  0  0  0
   37.5310   27.6060   42.1340 N   0  0  0  0  0  0  0  0  0  0  0  0
   37.7940   26.4820   41.4230 C   0  0  0  0  0  0  0  0  0  0  0  0
   38.7740   25.6180   41.8170 N   0  0  0  0  0  0  0  0  0  0  0  0
   37.0180   26.2260   40.2510 N   0  0  0  0  0  0  0  0  0  0  0  0
   37.1140   24.8780   39.6990 C   0  0  0  0  0  0  0  0  0  0  0  0
   36.6440   24.7260   38.3120 C   0  0  0  0  0  0  0  0  0  0  0  0
   35.4770   25.6390   38.0530 C   0  0  0  0  0  0  0  0  0  0  0  0
   35.9710   27.0420   38.2260 C   0  0  0  0  0  0  0  0  0  0  0  0
   36.2020   27.2650   39.6790 C   0  0  2  0  0  0  0  0  0  0  0  0
   40.2680   25.2940   43.3270 H   0  0  0  0  0  0  0  0  0  0  0  0
   39.7760   27.3040   44.5720 H   0  0  0  0  0  0  0  0  0  0  0  0
   37.9950   28.8350   43.8200 H   0  0  0  0  0  0  0  0  0  0  0  0
   38.1570   24.4910   39.8500 H   0  0  0  0  0  0  0  0  0  0  0  0
   36.4900   24.2520   40.3710 H   0  0  0  0  0  0  0  0  0  0  0  0
   36.2600   23.6760   38.1700 H   0  0  0  0  0  0  0  0  0  0  0  0
   37.4000   24.9290   37.5420 H   0  0  0  0  0  0  0  0  0  0  0  0
   34.6470   25.4630   38.7770 H   0  0  0  0  0  0  0  0  0  0  0  0
   35.1360   25.5400   37.0110 H   0  0  0  0  0  0  0  0  0  0  0  0
   35.2810   27.8090   37.8210 H   0  0  0  0  0  0  0  0  0  0  0  0
   36.9190   27.1540   37.6660 H   0  0  0  0  0  0  0  0  0  0  0  0
   35.2070   27.1740   40.2000 H   0  0  0  0  0  0  0  0  0  0  0  0
   38.7070   28.3830   38.8340 F   0  0  0  0  0  0  0  0  0  0  0  0
   37.8810   29.1810   39.5690 C   0  0  0  0  0  0  0  0  0  0  0  0
   36.6620   28.6440   39.9800 C   0  0  0  0  0  0  0  0  0  0  0  0
   35.8550   29.4950   40.7250 C   0  0  0  0  0  0  0  0  0  0  0  0
   36.1990   30.7860   41.0540 C   0  0  0  0  0  0  0  0  0  0  0  0
   37.4150   31.2880   40.6300 C   0  0  0  0  0  0  0  0  0  0  0  0
   38.2420   30.4710   39.8890 C   0  0  0  0  0  0  0  0  0  0  0  0
   34.9070   29.0980   41.0530 H   0  0  0  0  0  0  0  0  0  0  0  0
   35.5350   31.4120   41.6380 H   0  0  0  0  0  0  0  0  0  0  0  0
   37.6590   32.3020   40.9030 H   0  0  0  0  0  0  0  0  0  0  0  0
   39.4930   31.0060   39.4610 N   0  0  0  0  0  0  0  0  0  0  0  0
   40.5370   31.2760   40.4440 C   0  0  0  0  0  3  0  0  0  0  0  0
   40.2010   32.0150   41.2230 H   0  0  0  0  0  0  0  0  0  0  0  0
   41.6660   32.0270   39.7280 C   0  0  0  0  0  3  0  0  0  0  0  0
   42.3760   32.4860   40.4230 H   0  0  0  0  0  0  0  0  0  0  0  0
   41.0000   33.0960   38.9830 N   0  0  0  0  0  0  0  0  0  0  0  0
   40.1870   33.4590   39.5230 H   0  0  0  0  0  0  0  0  0  0  0  0
   40.5600   32.4660   37.7610 C   0  0  0  0  0  2  0  0  0  0  0  0
   39.7100   31.2730   38.0530 C   0  0  0  0  0  2  0  0  0  0  0  0
  1 13  1  0  0  0  0
  1  2  1  0  0  0  0
  2 14  1  0  0  0  0
  3  2  2  0  0  0  0
  3 15  1  0  0  0  0
  4  3  1  0  0  0  0
  5  6  1  0  0  0  0
  5  4  2  0  0  0  0
  6  1  2  0  0  0  0
  7  5  1  0  0  0  0
  8 16  1  0  0  0  0
  8  7  1  0  0  0  0
  8 17  1  0  0  0  0
  9  8  1  0  0  0  0
 10 11  1  0  0  0  0
 10  9  1  0  0  0  0
 10 20  1  0  0  0  0
 11 12  1  0  0  0  0
 12 27  1  0  0  0  0
 12 24  1  1  0  0  0
 12  7  1  0  0  0  0
 18  9  1  0  0  0  0
 19  9  1  0  0  0  0
 21 10  1  0  0  0  0
 22 11  1  0  0  0  0
 23 11  1  0  0  0  0
 25 26  1  0  0  0  0
 26 31  2  0  0  0  0
 26 27  1  0  0  0  0
 27 28  2  0  0  0  0
 28 32  1  0  0  0  0
 28 29  1  0  0  0  0
 29 33  1  0  0  0  0
 30 34  1  0  0  0  0
 30 29  2  0  0  0  0
 31 30  1  0  0  0  0
 35 31  1  0  0  0  0
 35 36  1  0  0  0  0
 36 37  1  0  0  0  0
 38 39  1  0  0  0  0
 38 36  1  0  0  0  0
 40 41  1  0  0  0  0
 40 38  1  0  0  0  0
 42 43  1  0  0  0  0
 42 40  1  0  0  0  0
 43 35  1  0  0  0  0
M  END
>  <minimizedAffinity>
-5.67391586

$$$$

 OpenBabel03242517243D

 43 46  0  0  1  0  0  0  0  0999 V2000
   38.7380   27.4030   42.3390 C   0  0  0  0  0  0  0  0  0  0  0  0
   39.0450   28.6060   43.0100 C   0  0  0  0  0  0  0  0  0  0  0  0
   38.5060   29.8200   42.5250 C   0  0  0  0  0  0  0  0  0  0  0  0
   37.7130   29.7430   41.4220 N   0  0  0  0  0  0  0  0  0  0  0  0
   37.4350   28.5720   40.7980 C   0  0  0  0  0  0  0  0  0  0  0  0
   37.9500   27.3950   41.2590 N   0  0  0  0  0  0  0  0  0  0  0  0
   36.5910   28.6010   39.6470 N   0  0  0  0  0  0  0  0  0  0  0  0
   36.0700   27.3140   39.1980 C   0  0  0  0  0  0  0  0  0  0  0  0
   35.5390   27.2880   37.8260 C   0  0  0  0  0  0  0  0  0  0  0  0
   34.8810   28.6000   37.4950 C   0  0  0  0  0  0  0  0  0  0  0  0
   35.9440   29.6530   37.5630 C   0  0  0  0  0  0  0  0  0  0  0  0
   36.2930   29.8520   38.9960 C   0  0  2  0  0  0  0  0  0  0  0  0
   39.1980   26.5530   42.7930 H   0  0  0  0  0  0  0  0  0  0  0  0
   39.6730   28.6560   43.8820 H   0  0  0  0  0  0  0  0  0  0  0  0
   38.7190   30.7570   43.0120 H   0  0  0  0  0  0  0  0  0  0  0  0
   36.8420   26.5200   39.3810 H   0  0  0  0  0  0  0  0  0  0  0  0
   35.2560   27.0720   39.9140 H   0  0  0  0  0  0  0  0  0  0  0  0
   34.7300   26.5060   37.7620 H   0  0  0  0  0  0  0  0  0  0  0  0
   36.2830   27.0860   37.0440 H   0  0  0  0  0  0  0  0  0  0  0  0
   34.0800   28.8570   38.2280 H   0  0  0  0  0  0  0  0  0  0  0  0
   34.5000   28.5890   36.4620 H   0  0  0  0  0  0  0  0  0  0  0  0
   35.6470   30.6150   37.1010 H   0  0  0  0  0  0  0  0  0  0  0  0
   36.8280   29.2990   36.9990 H   0  0  0  0  0  0  0  0  0  0  0  0
   35.3760   30.2420   39.5200 H   0  0  0  0  0  0  0  0  0  0  0  0
   39.0210   29.6770   38.1180 F   0  0  0  0  0  0  0  0  0  0  0  0
   38.6430   30.8150   38.7670 C   0  0  0  0  0  0  0  0  0  0  0  0
   37.3190   30.9060   39.1940 C   0  0  0  0  0  0  0  0  0  0  0  0
   36.9820   32.0840   39.8500 C   0  0  0  0  0  0  0  0  0  0  0  0
   37.8660   33.1140   40.0800 C   0  0  0  0  0  0  0  0  0  0  0  0
   39.1720   32.9910   39.6430 C   0  0  0  0  0  0  0  0  0  0  0  0
   39.5420   31.8350   38.9890 C   0  0  0  0  0  0  0  0  0  0  0  0
   35.9620   32.1750   40.1870 H   0  0  0  0  0  0  0  0  0  0  0  0
   37.5550   34.0150   40.5960 H   0  0  0  0  0  0  0  0  0  0  0  0
   39.8420   33.8130   39.8370 H   0  0  0  0  0  0  0  0  0  0  0  0
   40.8930   31.7270   38.5460 N   0  0  0  0  0  0  0  0  0  0  0  0
   41.2860   32.3240   37.2740 C   0  0  0  0  0  3  0  0  0  0  0  0
   40.7040   31.8980   36.4110 H   0  0  0  0  0  0  0  0  0  0  0  0
   42.7200   31.8720   36.9730 C   0  0  0  0  0  3  0  0  0  0  0  0
   43.0150   32.0630   35.9370 H   0  0  0  0  0  0  0  0  0  0  0  0
   42.7170   30.4250   37.1870 N   0  0  0  0  0  0  0  0  0  0  0  0
   41.8060   30.0180   36.8880 H   0  0  0  0  0  0  0  0  0  0  0  0
   42.9010   30.2700   38.6100 C   0  0  0  0  0  2  0  0  0  0  0  0
   41.8580   31.0240   39.3690 C   0  0  0  0  0  2  0  0  0  0  0  0
  1 13  1  0  0  0  0
  1  2  1  0  0  0  0
  2 14  1  0  0  0  0
  3  2  2  0  0  0  0
  3 15  1  0  0  0  0
  4  3  1  0  0  0  0
  5  6  1  0  0  0  0
  5  4  2  0  0  0  0
  6  1  2  0  0  0  0
  7  5  1  0  0  0  0
  8 16  1  0  0  0  0
  8  7  1  0  0  0  0
  8 17  1  0  0  0  0
  9  8  1  0  0  0  0
 10 11  1  0  0  0  0
 10  9  1  0  0  0  0
 10 20  1  0  0  0  0
 11 12  1  0  0  0  0
 12 27  1  0  0  0  0
 12 24  1  1  0  0  0
 12  7  1  0  0  0  0
 18  9  1  0  0  0  0
 19  9  1  0  0  0  0
 21 10  1  0  0  0  0
 22 11  1  0  0  0  0
 23 11  1  0  0  0  0
 25 26  1  0  0  0  0
 26 31  2  0  0  0  0
 26 27  1  0  0  0  0
 27 28  2  0  0  0  0
 28 29  1  0  0  0  0
 28 32  1  0  0  0  0
 29 33  1  0  0  0  0
 30 34  1  0  0  0  0
 30 29  2  0  0  0  0
 31 30  1  0  0  0  0
 35 31  1  0  0  0  0
 35 43  1  0  0  0  0
 36 35  1  0  0  0  0
 37 36  1  0  0  0  0
 38 40  1  0  0  0  0
 38 36  1  0  0  0  0
 39 38  1  0  0  0  0
 40 42  1  0  0  0  0
 41 40  1  0  0  0  0
 42 43  1  0  0  0  0
M  END
>  <minimizedAffinity>
-5.66928911

$$$$
