
 OpenBabel03252507413D

 25 26  0  0  0  0  0  0  0  0999 V2000
   37.3630   31.0680   40.8900 C   0  0  0  0  0  0  0  0  0  0  0  0
   36.8050   30.8450   39.9540 H   0  0  0  0  0  0  0  0  0  0  0  0
   36.7890   31.8700   41.3820 H   0  0  0  0  0  0  0  0  0  0  0  0
   37.3810   29.8550   41.7530 C   0  0  0  0  0  0  0  0  0  0  0  0
   36.4000   28.8870   41.4750 C   0  0  0  0  0  0  0  0  0  0  0  0
   36.3920   27.7560   42.2580 C   0  0  0  0  0  0  0  0  0  0  0  0
   37.3070   27.5930   43.2610 N   0  0  0  0  0  0  0  0  0  0  0  0
   38.2310   28.5500   43.4910 C   0  0  0  0  0  0  0  0  0  0  0  0
   38.2710   29.6550   42.7590 N   0  0  0  0  0  0  0  0  0  0  0  0
   35.6560   26.9700   42.0920 H   0  0  0  0  0  0  0  0  0  0  0  0
   38.9980   28.5300   44.2470 H   0  0  0  0  0  0  0  0  0  0  0  0
   35.2270   29.1300   40.1630 S   0  0  0  0  0  0  0  0  0  0  0  0
   35.5980   28.4670   38.9920 H   0  0  0  0  0  0  0  0  0  0  0  0
   38.7350   31.5890   40.6040 C   0  0  0  0  0  0  0  0  0  0  0  0
   39.4030   31.1560   41.4070 H   0  0  0  0  0  0  0  0  0  0  0  0
   38.7640   32.6790   40.6950 H   0  0  0  0  0  0  0  0  0  0  0  0
   39.3000   31.1430   39.3590 N   0  0  0  0  0  0  0  0  0  0  0  0
   38.3920   30.6680   38.3850 C   0  0  0  0  0  3  0  0  0  0  0  0
   37.3830   30.5240   38.8630 H   0  0  0  0  0  0  0  0  0  0  0  0
   38.1700   31.4970   37.1800 C   0  0  0  0  0  3  0  0  0  0  0  0
   37.2510   32.1420   37.2390 H   0  0  0  0  0  0  0  0  0  0  0  0
   39.2440   32.3340   36.7590 N   0  0  0  0  0  0  0  0  0  0  0  0
   39.3410   32.4400   35.7290 H   0  0  0  0  0  0  0  0  0  0  0  0
   40.4970   32.1070   37.4310 C   0  0  0  0  0  2  0  0  0  0  0  0
   40.2150   32.1720   38.9140 C   0  0  0  0  0  2  0  0  0  0  0  0
  1  3  1  0  0  0  0
  1  4  1  0  0  0  0
  2  1  1  0  0  0  0
  4  9  1  0  0  0  0
  5  4  2  0  0  0  0
  5  6  1  0  0  0  0
  6  7  2  0  0  0  0
  7  8  1  0  0  0  0
  8 11  1  0  0  0  0
  9  8  2  0  0  0  0
 10  6  1  0  0  0  0
 12  5  1  0  0  0  0
 13 12  1  0  0  0  0
 14 16  1  0  0  0  0
 14  1  1  0  0  0  0
 14 15  1  0  0  0  0
 17 14  1  0  0  0  0
 18 19  1  0  0  0  0
 18 17  1  0  0  0  0
 20 21  1  0  0  0  0
 20 18  1  0  0  0  0
 22 20  1  0  0  0  0
 22 24  1  0  0  0  0
 23 22  1  0  0  0  0
 24 25  1  0  0  0  0
 25 17  1  0  0  0  0
M  END
>  <minimizedAffinity>
-4.2501235

$$$$

 OpenBabel03252507413D

 25 26  0  0  0  0  0  0  0  0999 V2000
   38.0660   28.8630   43.2690 C   0  0  0  0  0  0  0  0  0  0  0  0
   39.1730   28.7980   43.3520 H   0  0  0  0  0  0  0  0  0  0  0  0
   37.7290   29.2720   44.2360 H   0  0  0  0  0  0  0  0  0  0  0  0
   37.7100   29.8020   42.1700 C   0  0  0  0  0  0  0  0  0  0  0  0
   38.7490   30.6250   41.7020 C   0  0  0  0  0  0  0  0  0  0  0  0
   38.4470   31.5030   40.6880 C   0  0  0  0  0  0  0  0  0  0  0  0
   37.1850   31.5630   40.1660 N   0  0  0  0  0  0  0  0  0  0  0  0
   36.2180   30.7530   40.6480 C   0  0  0  0  0  0  0  0  0  0  0  0
   36.4690   29.8930   41.6260 N   0  0  0  0  0  0  0  0  0  0  0  0
   39.2100   32.1680   40.2820 H   0  0  0  0  0  0  0  0  0  0  0  0
   35.1950   30.7100   40.3150 H   0  0  0  0  0  0  0  0  0  0  0  0
   40.3780   30.5210   42.4010 S   0  0  0  0  0  0  0  0  0  0  0  0
   41.2360   29.7320   41.6320 H   0  0  0  0  0  0  0  0  0  0  0  0
   37.4460   27.5130   43.0950 C   0  0  0  0  0  0  0  0  0  0  0  0
   36.4990   27.6840   42.5000 H   0  0  0  0  0  0  0  0  0  0  0  0
   37.1620   27.0880   44.0620 H   0  0  0  0  0  0  0  0  0  0  0  0
   38.2240   26.5900   42.3150 N   0  0  0  0  0  0  0  0  0  0  0  0
   39.5680   26.4020   42.7110 C   0  0  0  0  0  3  0  0  0  0  0  0
   39.8460   27.1980   43.4570 H   0  0  0  0  0  0  0  0  0  0  0  0
   39.9370   25.1070   43.3230 C   0  0  0  0  0  3  0  0  0  0  0  0
   39.9580   25.1280   44.4470 H   0  0  0  0  0  0  0  0  0  0  0  0
   39.1730   23.9660   42.9410 N   0  0  0  0  0  0  0  0  0  0  0  0
   39.7110   23.0780   42.8750 H   0  0  0  0  0  0  0  0  0  0  0  0
   38.2750   24.1720   41.8350 C   0  0  0  0  0  2  0  0  0  0  0  0
   37.4370   25.3840   42.1730 C   0  0  0  0  0  2  0  0  0  0  0  0
  1  2  1  0  0  0  0
  1  3  1  0  0  0  0
  4  1  1  0  0  0  0
  5  4  1  0  0  0  0
  5 12  1  0  0  0  0
  6  5  2  0  0  0  0
  7  8  2  0  0  0  0
  7  6  1  0  0  0  0
  8  9  1  0  0  0  0
  9  4  2  0  0  0  0
 10  6  1  0  0  0  0
 11  8  1  0  0  0  0
 13 12  1  0  0  0  0
 14  1  1  0  0  0  0
 14 16  1  0  0  0  0
 15 14  1  0  0  0  0
 17 18  1  0  0  0  0
 17 14  1  0  0  0  0
 18 20  1  0  0  0  0
 18 19  1  0  0  0  0
 20 21  1  0  0  0  0
 22 20  1  0  0  0  0
 23 22  1  0  0  0  0
 24 25  1  0  0  0  0
 24 22  1  0  0  0  0
 25 17  1  0  0  0  0
M  END
>  <minimizedAffinity>
-4.17329168

$$$$

 OpenBabel03252507413D

 25 26  0  0  0  0  0  0  0  0999 V2000
   37.3540   28.5070   43.3080 C   0  0  0  0  0  0  0  0  0  0  0  0
   36.8910   28.9710   44.2070 H   0  0  0  0  0  0  0  0  0  0  0  0
   36.5160   28.0460   42.7600 H   0  0  0  0  0  0  0  0  0  0  0  0
   37.9810   29.5700   42.4750 C   0  0  0  0  0  0  0  0  0  0  0  0
   37.3160   29.8870   41.2780 C   0  0  0  0  0  0  0  0  0  0  0  0
   37.8740   30.8640   40.4870 C   0  0  0  0  0  0  0  0  0  0  0  0
   39.0290   31.4940   40.8630 N   0  0  0  0  0  0  0  0  0  0  0  0
   39.6330   31.1560   42.0230 C   0  0  0  0  0  0  0  0  0  0  0  0
   39.1260   30.2180   42.8120 N   0  0  0  0  0  0  0  0  0  0  0  0
   37.4060   31.1540   39.5460 H   0  0  0  0  0  0  0  0  0  0  0  0
   40.5380   31.5820   42.4190 H   0  0  0  0  0  0  0  0  0  0  0  0
   35.8170   29.0500   40.8200 S   0  0  0  0  0  0  0  0  0  0  0  0
   34.6780   29.7890   41.1450 H   0  0  0  0  0  0  0  0  0  0  0  0
   38.3170   27.4250   43.6790 C   0  0  0  0  0  0  0  0  0  0  0  0
   37.7820   26.7840   44.4420 H   0  0  0  0  0  0  0  0  0  0  0  0
   39.2070   27.8440   44.1580 H   0  0  0  0  0  0  0  0  0  0  0  0
   38.6610   26.5330   42.6060 N   0  0  0  0  0  0  0  0  0  0  0  0
   39.8340   25.7620   42.7730 C   0  0  0  0  0  3  0  0  0  0  0  0
   40.4130   26.1610   43.6530 H   0  0  0  0  0  0  0  0  0  0  0  0
   39.6830   24.3080   42.9970 C   0  0  0  0  0  3  0  0  0  0  0  0
   39.7320   24.0090   44.0800 H   0  0  0  0  0  0  0  0  0  0  0  0
   38.5290   23.6810   42.4420 N   0  0  0  0  0  0  0  0  0  0  0  0
   38.6790   22.7130   42.0930 H   0  0  0  0  0  0  0  0  0  0  0  0
   37.7600   24.5000   41.5410 C   0  0  0  0  0  2  0  0  0  0  0  0
   37.4660   25.7910   42.2690 C   0  0  0  0  0  2  0  0  0  0  0  0
  1 14  1  0  0  0  0
  1  2  1  0  0  0  0
  3  1  1  0  0  0  0
  4  9  1  0  0  0  0
  4  1  1  0  0  0  0
  5  4  2  0  0  0  0
  6  7  2  0  0  0  0
  6  5  1  0  0  0  0
  7  8  1  0  0  0  0
  8 11  1  0  0  0  0
  8  9  2  0  0  0  0
 10  6  1  0  0  0  0
 12 13  1  0  0  0  0
 12  5  1  0  0  0  0
 14 16  1  0  0  0  0
 14 15  1  0  0  0  0
 17 18  1  0  0  0  0
 17 14  1  0  0  0  0
 18 20  1  0  0  0  0
 18 19  1  0  0  0  0
 20 21  1  0  0  0  0
 22 20  1  0  0  0  0
 23 22  1  0  0  0  0
 24 25  1  0  0  0  0
 24 22  1  0  0  0  0
 25 17  1  0  0  0  0
M  END
>  <minimizedAffinity>
-4.16770744

$$$$

 OpenBabel03252507413D

 25 26  0  0  0  0  0  0  0  0999 V2000
   38.6370   30.4190   41.8660 C   0  0  0  0  0  0  0  0  0  0  0  0
   37.6190   30.7580   41.5770 H   0  0  0  0  0  0  0  0  0  0  0  0
   38.9150   31.0470   42.7280 H   0  0  0  0  0  0  0  0  0  0  0  0
   38.5800   28.9890   42.2780 C   0  0  0  0  0  0  0  0  0  0  0  0
   37.4350   28.2790   41.8790 C   0  0  0  0  0  0  0  0  0  0  0  0
   37.3550   26.9560   42.2470 C   0  0  0  0  0  0  0  0  0  0  0  0
   38.3560   26.3690   42.9710 N   0  0  0  0  0  0  0  0  0  0  0  0
   39.4380   27.0920   43.3320 C   0  0  0  0  0  0  0  0  0  0  0  0
   39.5510   28.3700   42.9970 N   0  0  0  0  0  0  0  0  0  0  0  0
   36.4910   26.3520   41.9690 H   0  0  0  0  0  0  0  0  0  0  0  0
   40.2830   26.7380   43.8970 H   0  0  0  0  0  0  0  0  0  0  0  0
   36.1530   29.0710   40.9380 S   0  0  0  0  0  0  0  0  0  0  0  0
   36.2640   28.8120   39.5700 H   0  0  0  0  0  0  0  0  0  0  0  0
   39.6310   30.6630   40.7760 C   0  0  0  0  0  0  0  0  0  0  0  0
   39.5310   29.7880   40.0660 H   0  0  0  0  0  0  0  0  0  0  0  0
   40.6510   30.6580   41.1720 H   0  0  0  0  0  0  0  0  0  0  0  0
   39.3750   31.8310   39.9790 N   0  0  0  0  0  0  0  0  0  0  0  0
   38.4220   31.6970   38.9440 C   0  0  0  0  0  3  0  0  0  0  0  0
   38.1910   30.6040   38.7970 H   0  0  0  0  0  0  0  0  0  0  0  0
   37.1210   32.3810   39.1050 C   0  0  0  0  0  3  0  0  0  0  0  0
   36.3030   31.7130   39.4910 H   0  0  0  0  0  0  0  0  0  0  0  0
   37.1030   33.5650   39.8980 N   0  0  0  0  0  0  0  0  0  0  0  0
   36.4460   34.3030   39.5720 H   0  0  0  0  0  0  0  0  0  0  0  0
   38.3980   34.0770   40.2660 C   0  0  0  0  0  2  0  0  0  0  0  0
   39.1560   32.9310   40.8940 C   0  0  0  0  0  2  0  0  0  0  0  0
  1  4  1  0  0  0  0
  1  3  1  0  0  0  0
  2  1  1  0  0  0  0
  4  9  1  0  0  0  0
  5  6  1  0  0  0  0
  5  4  2  0  0  0  0
  6  7  2  0  0  0  0
  7  8  1  0  0  0  0
  8 11  1  0  0  0  0
  9  8  2  0  0  0  0
 10  6  1  0  0  0  0
 12  5  1  0  0  0  0
 13 12  1  0  0  0  0
 14 16  1  0  0  0  0
 14  1  1  0  0  0  0
 15 14  1  0  0  0  0
 17 14  1  0  0  0  0
 17 25  1  0  0  0  0
 18 20  1  0  0  0  0
 18 17  1  0  0  0  0
 19 18  1  0  0  0  0
 20 21  1  0  0  0  0
 20 22  1  0  0  0  0
 22 24  1  0  0  0  0
 23 22  1  0  0  0  0
 24 25  1  0  0  0  0
M  END
>  <minimizedAffinity>
-4.15318108

$$$$

 OpenBabel03252507413D

 25 26  0  0  0  0  0  0  0  0999 V2000
   37.3420   25.9730   42.4910 C   0  0  0  0  0  0  0  0  0  0  0  0
   36.9750   25.6240   41.5010 H   0  0  0  0  0  0  0  0  0  0  0  0
   36.8550   25.3110   43.2270 H   0  0  0  0  0  0  0  0  0  0  0  0
   38.8200   25.8020   42.5560 C   0  0  0  0  0  0  0  0  0  0  0  0
   39.4460   25.4050   41.3610 C   0  0  0  0  0  0  0  0  0  0  0  0
   40.8110   25.2380   41.3920 C   0  0  0  0  0  0  0  0  0  0  0  0
   41.5170   25.4530   42.5440 N   0  0  0  0  0  0  0  0  0  0  0  0
   40.8710   25.8340   43.6680 C   0  0  0  0  0  0  0  0  0  0  0  0
   39.5560   26.0050   43.6780 N   0  0  0  0  0  0  0  0  0  0  0  0
   41.3550   24.9310   40.4990 H   0  0  0  0  0  0  0  0  0  0  0  0
   41.3200   26.0330   44.6260 H   0  0  0  0  0  0  0  0  0  0  0  0
   38.5000   25.1350   39.8830 S   0  0  0  0  0  0  0  0  0  0  0  0
   38.5290   26.2380   39.0270 H   0  0  0  0  0  0  0  0  0  0  0  0
   36.9140   27.3770   42.7760 C   0  0  0  0  0  0  0  0  0  0  0  0
   37.6060   27.7520   43.5870 H   0  0  0  0  0  0  0  0  0  0  0  0
   35.8930   27.4000   43.1690 H   0  0  0  0  0  0  0  0  0  0  0  0
   37.0830   28.2910   41.6790 N   0  0  0  0  0  0  0  0  0  0  0  0
   36.1410   28.2020   40.6280 C   0  0  0  0  0  3  0  0  0  0  0  0
   35.5410   27.2570   40.7520 H   0  0  0  0  0  0  0  0  0  0  0  0
   35.1630   29.3010   40.4770 C   0  0  0  0  0  3  0  0  0  0  0  0
   34.1640   29.0850   40.9440 H   0  0  0  0  0  0  0  0  0  0  0  0
   35.5640   30.5930   40.9250 N   0  0  0  0  0  0  0  0  0  0  0  0
   35.2070   31.3870   40.3550 H   0  0  0  0  0  0  0  0  0  0  0  0
   36.9560   30.7190   41.2690 C   0  0  0  0  0  2  0  0  0  0  0  0
   37.2660   29.6090   42.2470 C   0  0  0  0  0  2  0  0  0  0  0  0
  1  4  1  0  0  0  0
  1 14  1  0  0  0  0
  1  3  1  0  0  0  0
  2  1  1  0  0  0  0
  4  9  1  0  0  0  0
  5  6  1  0  0  0  0
  5  4  2  0  0  0  0
  6  7  2  0  0  0  0
  7  8  1  0  0  0  0
  8  9  2  0  0  0  0
  8 11  1  0  0  0  0
 10  6  1  0  0  0  0
 12  5  1  0  0  0  0
 13 12  1  0  0  0  0
 14 16  1  0  0  0  0
 14 15  1  0  0  0  0
 17 25  1  0  0  0  0
 17 14  1  0  0  0  0
 18 19  1  0  0  0  0
 18 17  1  0  0  0  0
 20 18  1  0  0  0  0
 20 22  1  0  0  0  0
 20 21  1  0  0  0  0
 22 24  1  0  0  0  0
 23 22  1  0  0  0  0
 24 25  1  0  0  0  0
M  END
>  <minimizedAffinity>
-4.1083746

$$$$

 OpenBabel03252507413D

 25 26  0  0  0  0  0  0  0  0999 V2000
   39.5910   30.3110   41.9430 C   0  0  0  0  0  0  0  0  0  0  0  0
   39.1430   31.2650   42.2970 H   0  0  0  0  0  0  0  0  0  0  0  0
   40.5300   30.2070   42.5120 H   0  0  0  0  0  0  0  0  0  0  0  0
   38.6730   29.1850   42.2710 C   0  0  0  0  0  0  0  0  0  0  0  0
   39.2690   28.0570   42.8620 C   0  0  0  0  0  0  0  0  0  0  0  0
   38.4440   27.0010   43.1740 C   0  0  0  0  0  0  0  0  0  0  0  0
   37.1020   27.0610   42.9160 N   0  0  0  0  0  0  0  0  0  0  0  0
   36.5750   28.1660   42.3470 C   0  0  0  0  0  0  0  0  0  0  0  0
   37.3370   29.2040   42.0310 N   0  0  0  0  0  0  0  0  0  0  0  0
   38.8460   26.0980   43.6330 H   0  0  0  0  0  0  0  0  0  0  0  0
   35.5390   28.3260   42.1010 H   0  0  0  0  0  0  0  0  0  0  0  0
   41.0150   28.0130   43.1840 S   0  0  0  0  0  0  0  0  0  0  0  0
   41.3160   28.3310   44.5100 H   0  0  0  0  0  0  0  0  0  0  0  0
   39.9340   30.3660   40.4890 C   0  0  0  0  0  0  0  0  0  0  0  0
   39.4460   29.4600   40.0220 H   0  0  0  0  0  0  0  0  0  0  0  0
   41.0140   30.2790   40.3410 H   0  0  0  0  0  0  0  0  0  0  0  0
   39.3900   31.4960   39.7860 N   0  0  0  0  0  0  0  0  0  0  0  0
   38.2120   31.2700   39.0370 C   0  0  0  0  0  3  0  0  0  0  0  0
   38.0350   30.1600   38.9570 H   0  0  0  0  0  0  0  0  0  0  0  0
   36.9500   31.8600   39.5340 C   0  0  0  0  0  3  0  0  0  0  0  0
   36.3150   31.1410   40.1210 H   0  0  0  0  0  0  0  0  0  0  0  0
   37.0490   33.0560   40.3020 N   0  0  0  0  0  0  0  0  0  0  0  0
   36.2750   33.7360   40.1590 H   0  0  0  0  0  0  0  0  0  0  0  0
   38.3520   33.6690   40.3170 C   0  0  0  0  0  2  0  0  0  0  0  0
   39.3340   32.5950   40.7250 C   0  0  0  0  0  2  0  0  0  0  0  0
  1  4  1  0  0  0  0
  1  2  1  0  0  0  0
  1  3  1  0  0  0  0
  4  5  1  0  0  0  0
  5  6  2  0  0  0  0
  5 12  1  0  0  0  0
  6 10  1  0  0  0  0
  7  6  1  0  0  0  0
  8  7  2  0  0  0  0
  9  4  2  0  0  0  0
  9  8  1  0  0  0  0
 11  8  1  0  0  0  0
 12 13  1  0  0  0  0
 14  1  1  0  0  0  0
 15 14  1  0  0  0  0
 16 14  1  0  0  0  0
 17 14  1  0  0  0  0
 17 25  1  0  0  0  0
 18 20  1  0  0  0  0
 18 17  1  0  0  0  0
 19 18  1  0  0  0  0
 20 21  1  0  0  0  0
 20 22  1  0  0  0  0
 22 24  1  0  0  0  0
 23 22  1  0  0  0  0
 24 25  1  0  0  0  0
M  END
>  <minimizedAffinity>
-4.06840467

$$$$

 OpenBabel03252507413D

 25 26  0  0  0  0  0  0  0  0999 V2000
   38.1600   28.2080   43.4670 C   0  0  0  0  0  0  0  0  0  0  0  0
   37.6150   28.2780   44.4330 H   0  0  0  0  0  0  0  0  0  0  0  0
   39.1980   28.5000   43.7000 H   0  0  0  0  0  0  0  0  0  0  0  0
   38.1270   26.7990   42.9850 C   0  0  0  0  0  0  0  0  0  0  0  0
   39.3440   26.0970   43.0490 C   0  0  0  0  0  0  0  0  0  0  0  0
   39.3430   24.7940   42.6090 C   0  0  0  0  0  0  0  0  0  0  0  0
   38.1980   24.2170   42.1320 N   0  0  0  0  0  0  0  0  0  0  0  0
   37.0520   24.9310   42.0890 C   0  0  0  0  0  0  0  0  0  0  0  0
   37.0130   26.1900   42.5040 N   0  0  0  0  0  0  0  0  0  0  0  0
   40.2550   24.1980   42.6330 H   0  0  0  0  0  0  0  0  0  0  0  0
   36.0960   24.5830   41.7380 H   0  0  0  0  0  0  0  0  0  0  0  0
   40.8120   26.8760   43.6760 S   0  0  0  0  0  0  0  0  0  0  0  0
   41.0520   26.5550   45.0130 H   0  0  0  0  0  0  0  0  0  0  0  0
   37.6230   29.1720   42.4580 C   0  0  0  0  0  0  0  0  0  0  0  0
   37.1610   30.0150   43.0530 H   0  0  0  0  0  0  0  0  0  0  0  0
   36.8320   28.7090   41.8610 H   0  0  0  0  0  0  0  0  0  0  0  0
   38.6200   29.7930   41.6290 N   0  0  0  0  0  0  0  0  0  0  0  0
   38.1530   30.6630   40.6180 C   0  0  0  0  0  3  0  0  0  0  0  0
   37.0390   30.5360   40.5110 H   0  0  0  0  0  0  0  0  0  0  0  0
   38.3950   32.1130   40.7830 C   0  0  0  0  0  3  0  0  0  0  0  0
   37.5160   32.6730   41.2060 H   0  0  0  0  0  0  0  0  0  0  0  0
   39.5400   32.4990   41.5380 N   0  0  0  0  0  0  0  0  0  0  0  0
   40.0190   33.3590   41.2010 H   0  0  0  0  0  0  0  0  0  0  0  0
   40.4490   31.4310   41.8630 C   0  0  0  0  0  2  0  0  0  0  0  0
   39.6260   30.3410   42.5130 C   0  0  0  0  0  2  0  0  0  0  0  0
  1  3  1  0  0  0  0
  1  2  1  0  0  0  0
  4  5  1  0  0  0  0
  4  1  1  0  0  0  0
  5 12  1  0  0  0  0
  6 10  1  0  0  0  0
  6  5  2  0  0  0  0
  7  6  1  0  0  0  0
  8  7  2  0  0  0  0
  8  9  1  0  0  0  0
  9  4  2  0  0  0  0
 11  8  1  0  0  0  0
 12 13  1  0  0  0  0
 14 15  1  0  0  0  0
 14  1  1  0  0  0  0
 16 14  1  0  0  0  0
 17 14  1  0  0  0  0
 17 25  1  0  0  0  0
 18 20  1  0  0  0  0
 18 17  1  0  0  0  0
 19 18  1  0  0  0  0
 20 21  1  0  0  0  0
 20 22  1  0  0  0  0
 22 24  1  0  0  0  0
 23 22  1  0  0  0  0
 24 25  1  0  0  0  0
M  END
>  <minimizedAffinity>
-4.02032518

$$$$

 OpenBabel03252507413D

 25 26  0  0  0  0  0  0  0  0999 V2000
   38.4720   29.8660   41.3150 C   0  0  0  0  0  0  0  0  0  0  0  0
   38.4100   29.1830   40.4400 H   0  0  0  0  0  0  0  0  0  0  0  0
   39.4340   29.6280   41.7980 H   0  0  0  0  0  0  0  0  0  0  0  0
   38.4800   31.2770   40.8370 C   0  0  0  0  0  0  0  0  0  0  0  0
   39.6730   31.9900   41.0450 C   0  0  0  0  0  0  0  0  0  0  0  0
   39.7090   33.2960   40.6150 C   0  0  0  0  0  0  0  0  0  0  0  0
   38.6210   33.8640   40.0100 N   0  0  0  0  0  0  0  0  0  0  0  0
   37.4960   33.1380   39.8320 C   0  0  0  0  0  0  0  0  0  0  0  0
   37.4220   31.8770   40.2330 N   0  0  0  0  0  0  0  0  0  0  0  0
   40.6050   33.9020   40.7490 H   0  0  0  0  0  0  0  0  0  0  0  0
   36.5840   33.4770   39.3690 H   0  0  0  0  0  0  0  0  0  0  0  0
   41.0680   31.2220   41.8330 S   0  0  0  0  0  0  0  0  0  0  0  0
   42.0100   30.7620   40.9110 H   0  0  0  0  0  0  0  0  0  0  0  0
   37.3800   29.6010   42.3020 C   0  0  0  0  0  0  0  0  0  0  0  0
   36.4760   29.3040   41.6900 H   0  0  0  0  0  0  0  0  0  0  0  0
   37.1270   30.5110   42.8550 H   0  0  0  0  0  0  0  0  0  0  0  0
   37.6230   28.4930   43.1840 N   0  0  0  0  0  0  0  0  0  0  0  0
   36.7680   27.3750   43.0490 C   0  0  0  0  0  3  0  0  0  0  0  0
   35.8930   27.6590   42.3990 H   0  0  0  0  0  0  0  0  0  0  0  0
   37.3320   26.1350   42.4740 C   0  0  0  0  0  3  0  0  0  0  0  0
   37.1200   26.0090   41.3770 H   0  0  0  0  0  0  0  0  0  0  0  0
   38.7260   25.9060   42.6600 N   0  0  0  0  0  0  0  0  0  0  0  0
   38.9940   24.9110   42.7980 H   0  0  0  0  0  0  0  0  0  0  0  0
   39.3770   26.8040   43.5790 C   0  0  0  0  0  2  0  0  0  0  0  0
   39.0410   28.2080   43.1290 C   0  0  0  0  0  2  0  0  0  0  0  0
  1  3  1  0  0  0  0
  1 14  1  0  0  0  0
  2  1  1  0  0  0  0
  4  5  1  0  0  0  0
  4  1  1  0  0  0  0
  5 12  1  0  0  0  0
  6 10  1  0  0  0  0
  6  5  2  0  0  0  0
  7  6  1  0  0  0  0
  8  7  2  0  0  0  0
  8  9  1  0  0  0  0
  9  4  2  0  0  0  0
 11  8  1  0  0  0  0
 13 12  1  0  0  0  0
 14 16  1  0  0  0  0
 14 17  1  0  0  0  0
 15 14  1  0  0  0  0
 18 17  1  0  0  0  0
 19 18  1  0  0  0  0
 20 22  1  0  0  0  0
 20 18  1  0  0  0  0
 21 20  1  0  0  0  0
 22 23  1  0  0  0  0
 22 24  1  0  0  0  0
 25 17  1  0  0  0  0
 25 24  1  0  0  0  0
M  END
>  <minimizedAffinity>
-3.90624809

$$$$

 OpenBabel03252507413D

 25 26  0  0  0  0  0  0  0  0999 V2000
   36.5620   29.5080   41.4160 C   0  0  0  0  0  0  0  0  0  0  0  0
   35.5450   29.6950   41.8230 H   0  0  0  0  0  0  0  0  0  0  0  0
   36.5270   28.4800   41.0170 H   0  0  0  0  0  0  0  0  0  0  0  0
   36.8350   30.4700   40.3120 C   0  0  0  0  0  0  0  0  0  0  0  0
   36.9110   29.9190   39.0210 C   0  0  0  0  0  0  0  0  0  0  0  0
   37.1630   30.7850   37.9820 C   0  0  0  0  0  0  0  0  0  0  0  0
   37.3300   32.1230   38.2100 N   0  0  0  0  0  0  0  0  0  0  0  0
   37.2480   32.6060   39.4690 C   0  0  0  0  0  0  0  0  0  0  0  0
   37.0070   31.8040   40.4970 N   0  0  0  0  0  0  0  0  0  0  0  0
   37.2360   30.4190   36.9570 H   0  0  0  0  0  0  0  0  0  0  0  0
   37.3590   33.6350   39.7670 H   0  0  0  0  0  0  0  0  0  0  0  0
   36.6880   28.1770   38.7590 S   0  0  0  0  0  0  0  0  0  0  0  0
   35.3910   27.8650   38.3480 H   0  0  0  0  0  0  0  0  0  0  0  0
   37.6040   29.5540   42.4880 C   0  0  0  0  0  0  0  0  0  0  0  0
   37.2530   30.3370   43.2250 H   0  0  0  0  0  0  0  0  0  0  0  0
   38.5650   29.8820   42.0820 H   0  0  0  0  0  0  0  0  0  0  0  0
   37.7340   28.3440   43.2520 N   0  0  0  0  0  0  0  0  0  0  0  0
   36.8030   27.3160   42.9760 C   0  0  0  0  0  3  0  0  0  0  0  0
   35.9740   27.7340   42.3380 H   0  0  0  0  0  0  0  0  0  0  0  0
   37.2920   26.1030   42.2850 C   0  0  0  0  0  3  0  0  0  0  0  0
   37.1090   26.1090   41.1760 H   0  0  0  0  0  0  0  0  0  0  0  0
   38.6580   25.7490   42.4820 N   0  0  0  0  0  0  0  0  0  0  0  0
   38.8470   24.7260   42.5190 H   0  0  0  0  0  0  0  0  0  0  0  0
   39.3420   26.4920   43.5080 C   0  0  0  0  0  2  0  0  0  0  0  0
   39.1270   27.9570   43.2030 C   0  0  0  0  0  2  0  0  0  0  0  0
  1  2  1  0  0  0  0
  1 14  1  0  0  0  0
  3  1  1  0  0  0  0
  4  9  1  0  0  0  0
  4  1  1  0  0  0  0
  5  4  2  0  0  0  0
  6  7  2  0  0  0  0
  6  5  1  0  0  0  0
  7  8  1  0  0  0  0
  8 11  1  0  0  0  0
  8  9  2  0  0  0  0
 10  6  1  0  0  0  0
 12  5  1  0  0  0  0
 13 12  1  0  0  0  0
 14 15  1  0  0  0  0
 14 17  1  0  0  0  0
 16 14  1  0  0  0  0
 18 17  1  0  0  0  0
 19 18  1  0  0  0  0
 20 22  1  0  0  0  0
 20 18  1  0  0  0  0
 21 20  1  0  0  0  0
 22 23  1  0  0  0  0
 22 24  1  0  0  0  0
 25 17  1  0  0  0  0
 25 24  1  0  0  0  0
M  END
>  <minimizedAffinity>
-3.89513302

$$$$
