
 OpenBabel03252509023D

 48 50  0  0  1  0  0  0  0  0999 V2000
   46.7340   34.3890   43.4000 N   0  0  0  0  0  0  0  0  0  0  0  0
   46.4410   34.8680   42.1000 C   0  0  0  0  0  0  0  0  0  0  0  0
   44.9800   34.8150   41.7110 C   0  0  0  0  0  0  0  0  0  0  0  0
   44.0360   35.0450   42.8600 C   0  0  0  0  0  0  0  0  0  0  0  0
   44.7770   35.3680   44.1410 C   0  0  0  0  0  0  0  0  0  0  0  0
   45.7330   34.1410   44.3200 C   0  0  2  0  0  0  0  0  0  0  0  0
   46.7230   35.9590   42.0840 H   0  0  0  0  0  0  0  0  0  0  0  0
   47.0050   34.4230   41.2750 H   0  0  0  0  0  0  0  0  0  0  0  0
   44.7920   33.8160   41.2510 H   0  0  0  0  0  0  0  0  0  0  0  0
   44.8410   35.5480   40.8840 H   0  0  0  0  0  0  0  0  0  0  0  0
   43.4470   34.1210   43.0580 H   0  0  0  0  0  0  0  0  0  0  0  0
   43.3440   35.9030   42.6230 H   0  0  0  0  0  0  0  0  0  0  0  0
   44.0720   35.4180   44.9710 H   0  0  0  0  0  0  0  0  0  0  0  0
   45.3650   36.2860   43.9530 H   0  0  0  0  0  0  0  0  0  0  0  0
   45.0700   33.2720   44.1490 H   0  0  0  0  0  0  0  0  0  0  0  0
   47.9560   33.6220   43.4860 C   0  0  0  0  0  0  0  0  0  0  0  0
   48.1930   33.4780   44.5550 H   0  0  0  0  0  0  0  0  0  0  0  0
   48.7660   34.2270   43.0370 H   0  0  0  0  0  0  0  0  0  0  0  0
   47.7650   32.3230   42.7840 C   0  0  0  0  0  0  0  0  0  0  0  0
   47.6480   31.4540   43.4500 H   0  0  0  0  0  0  0  0  0  0  0  0
   46.8490   32.3400   42.1250 H   0  0  0  0  0  0  0  0  0  0  0  0
   51.2560   32.1450   41.4030 C   0  0  0  0  0  0  0  0  0  0  0  0
   50.1670   32.3500   42.2690 C   0  0  0  0  0  0  0  0  0  0  0  0
   48.8960   32.0970   41.8480 C   0  0  0  0  0  0  0  0  0  0  0  0
   48.7420   31.6550   40.5970 N   0  0  0  0  0  0  0  0  0  0  0  0
   49.7640   31.4540   39.7590 C   0  0  0  0  0  0  0  0  0  0  0  0
   51.0350   31.6940   40.1470 N   0  0  0  0  0  0  0  0  0  0  0  0
   52.2260   32.3780   41.8430 H   0  0  0  0  0  0  0  0  0  0  0  0
   50.3210   32.7070   43.2710 H   0  0  0  0  0  0  0  0  0  0  0  0
   49.5900   31.0910   38.7470 H   0  0  0  0  0  0  0  0  0  0  0  0
   46.1640   34.2990   45.6210 O   0  0  0  0  0  0  0  0  0  0  0  0
   45.7770   31.6690   45.6400 O   0  0  0  0  0  0  0  0  0  0  0  0
   46.0450   32.8790   46.5290 P   0  0  2  0  0  0  0  0  0  0  0  0
   44.6680   33.0620   47.5110 O   0  0  0  0  0  0  0  0  0  0  0  0
   44.7290   33.9020   48.0030 H   0  0  0  0  0  0  0  0  0  0  0  0
   47.3620   32.6300   47.5250 O   0  0  0  0  0  0  0  0  0  0  0  0
   47.4060   31.3190   47.9200 C   0  0  0  0  0  0  0  0  0  0  0  0
   46.9030   30.7300   47.1000 H   0  0  0  0  0  0  0  0  0  0  0  0
   46.8000   31.1930   48.8210 H   0  0  0  0  0  0  0  0  0  0  0  0
   48.7020   30.7490   48.1140 N   0  0  0  0  0  0  0  0  0  0  0  0
   48.7130   29.3230   48.2100 C   0  0  0  0  0  3  0  0  0  0  0  0
   48.0590   28.9380   49.0270 H   0  0  0  0  0  0  0  0  0  0  0  0
   50.1430   28.8940   48.5240 C   0  0  0  0  0  3  0  0  0  0  0  0
   50.8330   29.2040   47.7290 H   0  0  0  0  0  0  0  0  0  0  0  0
   50.5970   29.3740   49.7940 N   0  0  0  0  0  0  0  0  0  0  0  0
   51.4800   29.9260   49.7040 H   0  0  0  0  0  0  0  0  0  0  0  0
   49.5940   30.2350   50.3530 C   0  0  0  0  0  2  0  0  0  0  0  0
   49.2330   31.2920   49.3500 C   0  0  0  0  0  2  0  0  0  0  0  0
  1 16  1  0  0  0  0
  1  6  1  0  0  0  0
  2  1  1  0  0  0  0
  3  2  1  0  0  0  0
  3  4  1  0  0  0  0
  4 11  1  0  0  0  0
  4  5  1  0  0  0  0
  5  6  1  0  0  0  0
  5 13  1  0  0  0  0
  6 15  1  6  0  0  0
  6 31  1  0  0  0  0
  7  2  1  0  0  0  0
  8  2  1  0  0  0  0
  9  3  1  0  0  0  0
 10  3  1  0  0  0  0
 12  4  1  0  0  0  0
 14  5  1  0  0  0  0
 16 17  1  0  0  0  0
 18 16  1  0  0  0  0
 19 20  1  0  0  0  0
 19 16  1  0  0  0  0
 21 19  1  0  0  0  0
 22 28  1  0  0  0  0
 22 23  1  0  0  0  0
 23 29  1  0  0  0  0
 24 23  2  0  0  0  0
 24 19  1  0  0  0  0
 25 24  1  0  0  0  0
 26 27  1  0  0  0  0
 26 25  2  0  0  0  0
 27 22  2  0  0  0  0
 30 26  1  0  0  0  0
 31 33  1  0  0  0  0
 33 32  2  6  0  0  0
 33 34  1  0  0  0  0
 33 36  1  0  0  0  0
 34 35  1  0  0  0  0
 36 37  1  0  0  0  0
 37 40  1  0  0  0  0
 37 39  1  0  0  0  0
 38 37  1  0  0  0  0
 40 41  1  0  0  0  0
 40 48  1  0  0  0  0
 41 43  1  0  0  0  0
 41 42  1  0  0  0  0
 43 45  1  0  0  0  0
 44 43  1  0  0  0  0
 45 47  1  0  0  0  0
 46 45  1  0  0  0  0
 48 47  1  0  0  0  0
M  END
>  <minimizedAffinity>
-4.90403605

>  <minimizedRMSD>
3.77155733

$$$$
