
 OpenBabel03252509063D

 48 50  0  0  1  0  0  0  0  0999 V2000
   35.7930   29.4210   38.7210 N   0  0  0  0  0  0  0  0  0  0  0  0
   34.6320   28.7030   38.3440 C   0  0  0  0  0  0  0  0  0  0  0  0
   34.1490   28.9590   36.9330 C   0  0  0  0  0  0  0  0  0  0  0  0
   35.2570   29.2250   35.9500 C   0  0  0  0  0  0  0  0  0  0  0  0
   36.6230   29.0870   36.5900 C   0  0  0  0  0  0  0  0  0  0  0  0
   36.5580   30.0940   37.7880 C   0  0  2  0  0  0  0  0  0  0  0  0
   34.8990   27.6090   38.3830 H   0  0  0  0  0  0  0  0  0  0  0  0
   33.7610   28.8000   39.0000 H   0  0  0  0  0  0  0  0  0  0  0  0
   33.4490   29.8270   36.9710 H   0  0  0  0  0  0  0  0  0  0  0  0
   33.5170   28.0870   36.6470 H   0  0  0  0  0  0  0  0  0  0  0  0
   35.1860   30.2710   35.5740 H   0  0  0  0  0  0  0  0  0  0  0  0
   35.1910   28.4980   35.0910 H   0  0  0  0  0  0  0  0  0  0  0  0
   37.3930   29.3940   35.8820 H   0  0  0  0  0  0  0  0  0  0  0  0
   36.7010   28.0500   36.9670 H   0  0  0  0  0  0  0  0  0  0  0  0
   36.1400   31.0100   37.3310 H   0  0  0  0  0  0  0  0  0  0  0  0
   35.7680   29.9140   40.0790 C   0  0  0  0  0  0  0  0  0  0  0  0
   34.9280   30.6240   40.1680 H   0  0  0  0  0  0  0  0  0  0  0  0
   36.7060   30.4740   40.2510 H   0  0  0  0  0  0  0  0  0  0  0  0
   35.6190   28.7630   41.0110 C   0  0  0  0  0  0  0  0  0  0  0  0
   34.7500   28.8280   41.6860 H   0  0  0  0  0  0  0  0  0  0  0  0
   35.5080   27.7890   40.4510 H   0  0  0  0  0  0  0  0  0  0  0  0
   38.1840   27.3260   43.3520 C   0  0  0  0  0  0  0  0  0  0  0  0
   37.0130   27.5020   42.5920 C   0  0  0  0  0  0  0  0  0  0  0  0
   36.8650   28.6020   41.8020 C   0  0  0  0  0  0  0  0  0  0  0  0
   37.8680   29.4850   41.7870 N   0  0  0  0  0  0  0  0  0  0  0  0
   38.9880   29.3350   42.5010 C   0  0  0  0  0  0  0  0  0  0  0  0
   39.1650   28.2560   43.2930 N   0  0  0  0  0  0  0  0  0  0  0  0
   38.1960   26.4130   43.9470 H   0  0  0  0  0  0  0  0  0  0  0  0
   36.2230   26.7760   42.6250 H   0  0  0  0  0  0  0  0  0  0  0  0
   39.7800   30.0820   42.4560 H   0  0  0  0  0  0  0  0  0  0  0  0
   37.8840   30.1810   38.1610 O   0  0  0  0  0  0  0  0  0  0  0  0
   37.3500   32.7430   38.6330 O   0  0  0  0  0  0  0  0  0  0  0  0
   38.4490   31.7730   38.2100 P   0  0  2  0  0  0  0  0  0  0  0  0
   38.8500   32.1800   36.6080 O   0  0  0  0  0  0  0  0  0  0  0  0
   39.4500   31.5040   36.2410 H   0  0  0  0  0  0  0  0  0  0  0  0
   39.8190   31.9510   39.1470 O   0  0  0  0  0  0  0  0  0  0  0  0
   40.5680   33.0000   38.6850 C   0  0  0  0  0  0  0  0  0  0  0  0
   41.1340   33.3950   39.5780 H   0  0  0  0  0  0  0  0  0  0  0  0
   39.9020   33.8000   38.3510 H   0  0  0  0  0  0  0  0  0  0  0  0
   41.5320   32.7050   37.6720 N   0  0  0  0  0  0  0  0  0  0  0  0
   42.4100   31.6230   37.9870 C   0  0  0  0  0  3  0  0  0  0  0  0
   42.9700   31.7800   38.9370 H   0  0  0  0  0  0  0  0  0  0  0  0
   43.4330   31.5170   36.8610 C   0  0  0  0  0  3  0  0  0  0  0  0
   42.9460   31.3130   35.9000 H   0  0  0  0  0  0  0  0  0  0  0  0
   44.2660   32.6780   36.7620 N   0  0  0  0  0  0  0  0  0  0  0  0
   44.2310   33.0960   35.8040 H   0  0  0  0  0  0  0  0  0  0  0  0
   43.8020   33.6670   37.6920 C   0  0  0  0  0  2  0  0  0  0  0  0
   42.3340   33.8990   37.4780 C   0  0  0  0  0  2  0  0  0  0  0  0
  1 16  1  0  0  0  0
  2  7  1  0  0  0  0
  2  1  1  0  0  0  0
  2  8  1  0  0  0  0
  3  9  1  0  0  0  0
  3  2  1  0  0  0  0
  4  5  1  0  0  0  0
  4  3  1  0  0  0  0
  5 14  1  0  0  0  0
  5  6  1  0  0  0  0
  6 15  1  6  0  0  0
  6 31  1  0  0  0  0
  6  1  1  0  0  0  0
 10  3  1  0  0  0  0
 11  4  1  0  0  0  0
 12  4  1  0  0  0  0
 13  5  1  0  0  0  0
 16 17  1  0  0  0  0
 16 18  1  0  0  0  0
 16 19  1  0  0  0  0
 19 20  1  0  0  0  0
 19 24  1  0  0  0  0
 21 19  1  0  0  0  0
 22 28  1  0  0  0  0
 23 29  1  0  0  0  0
 23 22  2  0  0  0  0
 24 23  1  0  0  0  0
 25 24  2  0  0  0  0
 25 26  1  0  0  0  0
 26 27  2  0  0  0  0
 27 22  1  0  0  0  0
 30 26  1  0  0  0  0
 31 33  1  0  0  0  0
 33 32  2  1  0  0  0
 33 36  1  0  0  0  0
 34 33  1  0  0  0  0
 35 34  1  0  0  0  0
 37 36  1  0  0  0  0
 37 38  1  0  0  0  0
 39 37  1  0  0  0  0
 40 41  1  0  0  0  0
 40 37  1  0  0  0  0
 41 42  1  0  0  0  0
 43 41  1  0  0  0  0
 44 43  1  0  0  0  0
 45 43  1  0  0  0  0
 45 47  1  0  0  0  0
 46 45  1  0  0  0  0
 48 40  1  0  0  0  0
 48 47  1  0  0  0  0
M  END
>  <minimizedAffinity>
-5.42642832

$$$$

 OpenBabel03252509063D

 48 50  0  0  1  0  0  0  0  0999 V2000
   37.9870   28.3520   42.6850 N   0  0  0  0  0  0  0  0  0  0  0  0
   38.9970   27.6630   43.3980 C   0  0  0  0  0  0  0  0  0  0  0  0
   40.4150   28.0130   43.0020 C   0  0  0  0  0  0  0  0  0  0  0  0
   40.5920   29.4480   42.5860 C   0  0  0  0  0  0  0  0  0  0  0  0
   39.3130   30.2430   42.7450 C   0  0  0  0  0  0  0  0  0  0  0  0
   38.2830   29.4370   41.8820 C   0  0  2  0  0  0  0  0  0  0  0  0
   38.8960   27.9650   44.4790 H   0  0  0  0  0  0  0  0  0  0  0  0
   38.9320   26.5700   43.4080 H   0  0  0  0  0  0  0  0  0  0  0  0
   40.7090   27.3310   42.1700 H   0  0  0  0  0  0  0  0  0  0  0  0
   41.0670   27.7280   43.8590 H   0  0  0  0  0  0  0  0  0  0  0  0
   40.8660   29.4990   41.5080 H   0  0  0  0  0  0  0  0  0  0  0  0
   41.3930   29.9340   43.2140 H   0  0  0  0  0  0  0  0  0  0  0  0
   39.4470   31.2430   42.3320 H   0  0  0  0  0  0  0  0  0  0  0  0
   39.0330   30.1970   43.8140 H   0  0  0  0  0  0  0  0  0  0  0  0
   38.8270   29.2560   40.9370 H   0  0  0  0  0  0  0  0  0  0  0  0
   36.8400   27.5390   42.3490 C   0  0  0  0  0  0  0  0  0  0  0  0
   36.4940   27.8360   41.3440 H   0  0  0  0  0  0  0  0  0  0  0  0
   36.0360   27.7760   43.0700 H   0  0  0  0  0  0  0  0  0  0  0  0
   37.2320   26.1030   42.3950 C   0  0  0  0  0  0  0  0  0  0  0  0
   38.2630   25.9190   42.7360 H   0  0  0  0  0  0  0  0  0  0  0  0
   36.5630   25.5130   43.0870 H   0  0  0  0  0  0  0  0  0  0  0  0
   36.3560   23.6070   39.7250 C   0  0  0  0  0  0  0  0  0  0  0  0
   36.5630   24.2100   40.9790 C   0  0  0  0  0  0  0  0  0  0  0  0
   37.0220   25.4910   41.0580 C   0  0  0  0  0  0  0  0  0  0  0  0
   37.2590   26.1290   39.9090 N   0  0  0  0  0  0  0  0  0  0  0  0
   37.0680   25.5730   38.7080 C   0  0  0  0  0  0  0  0  0  0  0  0
   36.6150   24.3060   38.5960 N   0  0  0  0  0  0  0  0  0  0  0  0
   35.9880   22.5820   39.7800 H   0  0  0  0  0  0  0  0  0  0  0  0
   36.3640   23.6730   41.8870 H   0  0  0  0  0  0  0  0  0  0  0  0
   37.2750   26.1330   37.7970 H   0  0  0  0  0  0  0  0  0  0  0  0
   37.2300   30.3250   41.7890 O   0  0  0  0  0  0  0  0  0  0  0  0
   38.4720   31.0480   39.5530 O   0  0  0  0  0  0  0  0  0  0  0  0
   37.1280   31.0650   40.2730 P   0  0  2  0  0  0  0  0  0  0  0  0
   36.7700   32.7000   40.5710 O   0  0  0  0  0  0  0  0  0  0  0  0
   35.9880   32.7620   41.1510 H   0  0  0  0  0  0  0  0  0  0  0  0
   35.9120   30.4330   39.3200 O   0  0  0  0  0  0  0  0  0  0  0  0
   36.3980   29.3950   38.5710 C   0  0  0  0  0  0  0  0  0  0  0  0
   35.6140   28.5850   38.6170 H   0  0  0  0  0  0  0  0  0  0  0  0
   37.2970   28.9950   39.0480 H   0  0  0  0  0  0  0  0  0  0  0  0
   36.6480   29.6590   37.1900 N   0  0  0  0  0  0  0  0  0  0  0  0
   35.6140   29.2250   36.3060 C   0  0  0  0  0  3  0  0  0  0  0  0
   35.3940   28.1360   36.3970 H   0  0  0  0  0  0  0  0  0  0  0  0
   36.0870   29.4820   34.8790 C   0  0  0  0  0  3  0  0  0  0  0  0
   36.2760   30.5490   34.7100 H   0  0  0  0  0  0  0  0  0  0  0  0
   37.2440   28.7100   34.5350 N   0  0  0  0  0  0  0  0  0  0  0  0
   38.0270   29.3170   34.2050 H   0  0  0  0  0  0  0  0  0  0  0  0
   37.6950   27.9990   35.6980 C   0  0  0  0  0  2  0  0  0  0  0  0
   37.8720   28.9680   36.8310 C   0  0  0  0  0  2  0  0  0  0  0  0
  1  2  1  0  0  0  0
  2  8  1  0  0  0  0
  2  7  1  0  0  0  0
  3  2  1  0  0  0  0
  3 10  1  0  0  0  0
  4  5  1  0  0  0  0
  4  3  1  0  0  0  0
  4 12  1  0  0  0  0
  5 14  1  0  0  0  0
  6 15  1  6  0  0  0
  6  1  1  0  0  0  0
  6  5  1  0  0  0  0
  9  3  1  0  0  0  0
 11  4  1  0  0  0  0
 13  5  1  0  0  0  0
 16 19  1  0  0  0  0
 16  1  1  0  0  0  0
 16 18  1  0  0  0  0
 17 16  1  0  0  0  0
 19 20  1  0  0  0  0
 19 21  1  0  0  0  0
 22 28  1  0  0  0  0
 22 23  1  0  0  0  0
 23 24  2  0  0  0  0
 23 29  1  0  0  0  0
 24 19  1  0  0  0  0
 25 24  1  0  0  0  0
 26 25  2  0  0  0  0
 27 26  1  0  0  0  0
 27 22  2  0  0  0  0
 30 26  1  0  0  0  0
 31  6  1  0  0  0  0
 33 32  2  6  0  0  0
 33 34  1  0  0  0  0
 33 31  1  0  0  0  0
 34 35  1  0  0  0  0
 36 33  1  0  0  0  0
 37 38  1  0  0  0  0
 37 39  1  0  0  0  0
 37 36  1  0  0  0  0
 40 37  1  0  0  0  0
 41 42  1  0  0  0  0
 41 40  1  0  0  0  0
 43 41  1  0  0  0  0
 44 43  1  0  0  0  0
 45 43  1  0  0  0  0
 45 47  1  0  0  0  0
 46 45  1  0  0  0  0
 47 48  1  0  0  0  0
 48 40  1  0  0  0  0
M  END
>  <minimizedAffinity>
-5.35913849

$$$$

 OpenBabel03252509063D

 48 50  0  0  1  0  0  0  0  0999 V2000
   37.4790   30.3430   41.7470 N   0  0  0  0  0  0  0  0  0  0  0  0
   37.2980   29.0770   42.3540 C   0  0  0  0  0  0  0  0  0  0  0  0
   38.5260   28.1920   42.3710 C   0  0  0  0  0  0  0  0  0  0  0  0
   39.8190   28.9500   42.5130 C   0  0  0  0  0  0  0  0  0  0  0  0
   39.5840   30.4350   42.6960 C   0  0  0  0  0  0  0  0  0  0  0  0
   38.7380   30.8200   41.4350 C   0  0  2  0  0  0  0  0  0  0  0  0
   37.0420   29.2670   43.4350 H   0  0  0  0  0  0  0  0  0  0  0  0
   36.4730   28.4650   41.9770 H   0  0  0  0  0  0  0  0  0  0  0  0
   38.5260   27.6010   41.4250 H   0  0  0  0  0  0  0  0  0  0  0  0
   38.3720   27.4450   43.1830 H   0  0  0  0  0  0  0  0  0  0  0  0
   40.4280   28.8360   41.5880 H   0  0  0  0  0  0  0  0  0  0  0  0
   40.3920   28.5670   43.4050 H   0  0  0  0  0  0  0  0  0  0  0  0
   40.5380   30.9620   42.6830 H   0  0  0  0  0  0  0  0  0  0  0  0
   38.9780   30.5570   43.6130 H   0  0  0  0  0  0  0  0  0  0  0  0
   39.2870   30.3420   40.6020 H   0  0  0  0  0  0  0  0  0  0  0  0
   36.3570   30.7810   40.9480 C   0  0  0  0  0  0  0  0  0  0  0  0
   36.7480   31.4060   40.1260 H   0  0  0  0  0  0  0  0  0  0  0  0
   35.7180   31.4190   41.5850 H   0  0  0  0  0  0  0  0  0  0  0  0
   35.6300   29.5870   40.4340 C   0  0  0  0  0  0  0  0  0  0  0  0
   35.9690   28.6270   40.8550 H   0  0  0  0  0  0  0  0  0  0  0  0
   34.5250   29.6520   40.6520 H   0  0  0  0  0  0  0  0  0  0  0  0
   36.9330   30.0560   36.9410 C   0  0  0  0  0  0  0  0  0  0  0  0
   36.8220   30.0750   38.3430 C   0  0  0  0  0  0  0  0  0  0  0  0
   35.7210   29.5540   38.9530 C   0  0  0  0  0  0  0  0  0  0  0  0
   34.7730   29.0350   38.1670 N   0  0  0  0  0  0  0  0  0  0  0  0
   34.8600   29.0080   36.8330 C   0  0  0  0  0  0  0  0  0  0  0  0
   35.9390   29.5160   36.1990 N   0  0  0  0  0  0  0  0  0  0  0  0
   37.8530   30.5000   36.5610 H   0  0  0  0  0  0  0  0  0  0  0  0
   37.6000   30.5000   38.9500 H   0  0  0  0  0  0  0  0  0  0  0  0
   34.0620   28.5730   36.2330 H   0  0  0  0  0  0  0  0  0  0  0  0
   38.7980   32.1990   41.4590 O   0  0  0  0  0  0  0  0  0  0  0  0
   40.6370   33.8720   40.5170 O   0  0  0  0  0  0  0  0  0  0  0  0
   39.5850   32.8450   40.1110 P   0  0  2  0  0  0  0  0  0  0  0  0
   38.4010   33.6980   39.2380 O   0  0  0  0  0  0  0  0  0  0  0  0
   37.6360   33.1150   39.0710 H   0  0  0  0  0  0  0  0  0  0  0  0
   40.2260   31.6740   39.1070 O   0  0  0  0  0  0  0  0  0  0  0  0
   40.1080   32.0650   37.8000 C   0  0  0  0  0  0  0  0  0  0  0  0
   39.7790   33.1440   37.8260 H   0  0  0  0  0  0  0  0  0  0  0  0
   39.3030   31.4980   37.3250 H   0  0  0  0  0  0  0  0  0  0  0  0
   41.2910   32.0050   37.0010 N   0  0  0  0  0  0  0  0  0  0  0  0
   42.1170   30.8670   37.2510 C   0  0  0  0  0  3  0  0  0  0  0  0
   42.4360   30.7860   38.3160 H   0  0  0  0  0  0  0  0  0  0  0  0
   43.3760   31.0160   36.4030 C   0  0  0  0  0  3  0  0  0  0  0  0
   43.1330   31.0530   35.3340 H   0  0  0  0  0  0  0  0  0  0  0  0
   44.1600   32.1550   36.7760 N   0  0  0  0  0  0  0  0  0  0  0  0
   44.3300   32.7880   35.9620 H   0  0  0  0  0  0  0  0  0  0  0  0
   43.4520   32.9020   37.7770 C   0  0  0  0  0  2  0  0  0  0  0  0
   42.0650   33.1990   37.2840 C   0  0  0  0  0  2  0  0  0  0  0  0
  1  2  1  0  0  0  0
  2  3  1  0  0  0  0
  2  7  1  0  0  0  0
  3  4  1  0  0  0  0
  3 10  1  0  0  0  0
  4  5  1  0  0  0  0
  4 12  1  0  0  0  0
  5 14  1  0  0  0  0
  6 15  1  6  0  0  0
  6 31  1  0  0  0  0
  6  1  1  0  0  0  0
  6  5  1  0  0  0  0
  8  2  1  0  0  0  0
  9  3  1  0  0  0  0
 11  4  1  0  0  0  0
 13  5  1  0  0  0  0
 16 18  1  0  0  0  0
 16  1  1  0  0  0  0
 17 16  1  0  0  0  0
 19 21  1  0  0  0  0
 19 20  1  0  0  0  0
 19 16  1  0  0  0  0
 22 23  1  0  0  0  0
 23 29  1  0  0  0  0
 23 24  2  0  0  0  0
 24 19  1  0  0  0  0
 25 24  1  0  0  0  0
 26 25  2  0  0  0  0
 27 26  1  0  0  0  0
 27 22  2  0  0  0  0
 28 22  1  0  0  0  0
 30 26  1  0  0  0  0
 33 32  2  1  0  0  0
 33 31  1  0  0  0  0
 34 33  1  0  0  0  0
 35 34  1  0  0  0  0
 36 33  1  0  0  0  0
 37 38  1  0  0  0  0
 37 36  1  0  0  0  0
 39 37  1  0  0  0  0
 40 41  1  0  0  0  0
 40 48  1  0  0  0  0
 40 37  1  0  0  0  0
 41 42  1  0  0  0  0
 43 45  1  0  0  0  0
 43 41  1  0  0  0  0
 44 43  1  0  0  0  0
 45 47  1  0  0  0  0
 46 45  1  0  0  0  0
 48 47  1  0  0  0  0
M  END
>  <minimizedAffinity>
-5.27322054

$$$$

 OpenBabel03252509063D

 48 50  0  0  1  0  0  0  0  0999 V2000
   39.2210   26.3380   41.2720 N   0  0  0  0  0  0  0  0  0  0  0  0
   39.4060   24.9510   41.4870 C   0  0  0  0  0  0  0  0  0  0  0  0
   38.3030   24.2700   42.2680 C   0  0  0  0  0  0  0  0  0  0  0  0
   36.9360   24.8470   42.0190 C   0  0  0  0  0  0  0  0  0  0  0  0
   36.9670   25.9330   40.9630 C   0  0  0  0  0  0  0  0  0  0  0  0
   38.0110   26.9530   41.5320 C   0  0  2  0  0  0  0  0  0  0  0  0
   39.4090   24.4620   40.4710 H   0  0  0  0  0  0  0  0  0  0  0  0
   40.3530   24.6480   41.9450 H   0  0  0  0  0  0  0  0  0  0  0  0
   38.5640   24.3470   43.3510 H   0  0  0  0  0  0  0  0  0  0  0  0
   38.3640   23.1840   42.0290 H   0  0  0  0  0  0  0  0  0  0  0  0
   36.5490   25.3190   42.9500 H   0  0  0  0  0  0  0  0  0  0  0  0
   36.2340   24.0350   41.6740 H   0  0  0  0  0  0  0  0  0  0  0  0
   35.9860   26.4020   40.8900 H   0  0  0  0  0  0  0  0  0  0  0  0
   37.3520   25.4710   40.0340 H   0  0  0  0  0  0  0  0  0  0  0  0
   37.7020   27.0750   42.5870 H   0  0  0  0  0  0  0  0  0  0  0  0
   40.4310   27.1210   41.3850 C   0  0  0  0  0  0  0  0  0  0  0  0
   40.2780   28.0640   40.8330 H   0  0  0  0  0  0  0  0  0  0  0  0
   41.2420   26.5610   40.8840 H   0  0  0  0  0  0  0  0  0  0  0  0
   40.7190   27.3650   42.8250 C   0  0  0  0  0  0  0  0  0  0  0  0
   39.8420   27.2940   43.4880 H   0  0  0  0  0  0  0  0  0  0  0  0
   41.4750   26.6290   43.2260 H   0  0  0  0  0  0  0  0  0  0  0  0
   43.2560   30.0050   43.6710 C   0  0  0  0  0  0  0  0  0  0  0  0
   42.6190   28.7610   43.5120 C   0  0  0  0  0  0  0  0  0  0  0  0
   41.3670   28.6920   42.9800 C   0  0  0  0  0  0  0  0  0  0  0  0
   40.7880   29.8430   42.6260 N   0  0  0  0  0  0  0  0  0  0  0  0
   41.3760   31.0350   42.7690 C   0  0  0  0  0  0  0  0  0  0  0  0
   42.6160   31.1360   43.2920 N   0  0  0  0  0  0  0  0  0  0  0  0
   44.2530   29.9430   44.1060 H   0  0  0  0  0  0  0  0  0  0  0  0
   43.1090   27.8520   43.8070 H   0  0  0  0  0  0  0  0  0  0  0  0
   40.8640   31.9470   42.4640 H   0  0  0  0  0  0  0  0  0  0  0  0
   37.7990   28.0560   40.7300 O   0  0  0  0  0  0  0  0  0  0  0  0
   37.4100   29.1990   43.0990 O   0  0  0  0  0  0  0  0  0  0  0  0
   37.2520   29.4010   41.5950 P   0  0  2  0  0  0  0  0  0  0  0  0
   35.5800   29.5000   41.3020 O   0  0  0  0  0  0  0  0  0  0  0  0
   35.4170   29.4920   40.3400 H   0  0  0  0  0  0  0  0  0  0  0  0
   37.9520   30.8300   41.0910 O   0  0  0  0  0  0  0  0  0  0  0  0
   37.0130   31.6230   40.4880 C   0  0  0  0  0  0  0  0  0  0  0  0
   36.9060   32.5340   41.1460 H   0  0  0  0  0  0  0  0  0  0  0  0
   36.0470   31.1090   40.4970 H   0  0  0  0  0  0  0  0  0  0  0  0
   37.3120   32.0870   39.1710 N   0  0  0  0  0  0  0  0  0  0  0  0
   37.3020   31.0710   38.1680 C   0  0  0  0  0  3  0  0  0  0  0  0
   38.0060   30.2350   38.3880 H   0  0  0  0  0  0  0  0  0  0  0  0
   37.7460   31.7120   36.8570 C   0  0  0  0  0  3  0  0  0  0  0  0
   37.0630   32.5170   36.5570 H   0  0  0  0  0  0  0  0  0  0  0  0
   39.0930   32.1960   36.9090 N   0  0  0  0  0  0  0  0  0  0  0  0
   39.1480   33.2100   36.6620 H   0  0  0  0  0  0  0  0  0  0  0  0
   39.5960   32.0380   38.2440 C   0  0  0  0  0  2  0  0  0  0  0  0
   38.6390   32.6740   39.2110 C   0  0  0  0  0  2  0  0  0  0  0  0
  1 16  1  0  0  0  0
  1  2  1  0  0  0  0
  1  6  1  0  0  0  0
  2  8  1  0  0  0  0
  2  3  1  0  0  0  0
  3  9  1  0  0  0  0
  4  3  1  0  0  0  0
  4 11  1  0  0  0  0
  5  6  1  0  0  0  0
  5  4  1  0  0  0  0
  6 15  1  1  0  0  0
  7  2  1  0  0  0  0
 10  3  1  0  0  0  0
 12  4  1  0  0  0  0
 13  5  1  0  0  0  0
 14  5  1  0  0  0  0
 16 19  1  0  0  0  0
 17 16  1  0  0  0  0
 18 16  1  0  0  0  0
 19 24  1  0  0  0  0
 19 21  1  0  0  0  0
 19 20  1  0  0  0  0
 22 28  1  0  0  0  0
 23 22  1  0  0  0  0
 23 29  1  0  0  0  0
 24 23  2  0  0  0  0
 25 26  2  0  0  0  0
 25 24  1  0  0  0  0
 26 27  1  0  0  0  0
 27 22  2  0  0  0  0
 30 26  1  0  0  0  0
 31  6  1  0  0  0  0
 31 33  1  0  0  0  0
 33 32  2  1  0  0  0
 34 33  1  0  0  0  0
 35 34  1  0  0  0  0
 36 33  1  0  0  0  0
 37 39  1  0  0  0  0
 37 36  1  0  0  0  0
 37 38  1  0  0  0  0
 40 48  1  0  0  0  0
 40 37  1  0  0  0  0
 41 42  1  0  0  0  0
 41 40  1  0  0  0  0
 43 45  1  0  0  0  0
 43 41  1  0  0  0  0
 44 43  1  0  0  0  0
 45 47  1  0  0  0  0
 46 45  1  0  0  0  0
 47 48  1  0  0  0  0
M  END
>  <minimizedAffinity>
-5.23126793

$$$$

 OpenBabel03252509063D

 48 50  0  0  1  0  0  0  0  0999 V2000
   37.4120   26.2480   41.6070 N   0  0  0  0  0  0  0  0  0  0  0  0
   38.1160   25.1670   42.1910 C   0  0  0  0  0  0  0  0  0  0  0  0
   39.3490   25.5540   42.9770 C   0  0  0  0  0  0  0  0  0  0  0  0
   39.2320   26.8800   43.6790 C   0  0  0  0  0  0  0  0  0  0  0  0
   37.8550   27.4880   43.5060 C   0  0  0  0  0  0  0  0  0  0  0  0
   37.6890   27.5580   41.9500 C   0  0  2  0  0  0  0  0  0  0  0  0
   37.4170   24.6860   42.9330 H   0  0  0  0  0  0  0  0  0  0  0  0
   38.4100   24.3530   41.5200 H   0  0  0  0  0  0  0  0  0  0  0  0
   40.2090   25.5680   42.2660 H   0  0  0  0  0  0  0  0  0  0  0  0
   39.5620   24.7120   43.6750 H   0  0  0  0  0  0  0  0  0  0  0  0
   39.9570   27.6040   43.2430 H   0  0  0  0  0  0  0  0  0  0  0  0
   39.4270   26.7490   44.7810 H   0  0  0  0  0  0  0  0  0  0  0  0
   37.8420   28.4920   43.9290 H   0  0  0  0  0  0  0  0  0  0  0  0
   37.1280   26.7740   43.9350 H   0  0  0  0  0  0  0  0  0  0  0  0
   38.6460   27.9960   41.6090 H   0  0  0  0  0  0  0  0  0  0  0  0
   36.8990   25.9740   40.2840 C   0  0  0  0  0  0  0  0  0  0  0  0
   37.6310   26.3550   39.5500 H   0  0  0  0  0  0  0  0  0  0  0  0
   35.9630   26.5490   40.1600 H   0  0  0  0  0  0  0  0  0  0  0  0
   36.6850   24.5080   40.1390 C   0  0  0  0  0  0  0  0  0  0  0  0
   37.5910   23.9340   39.8890 H   0  0  0  0  0  0  0  0  0  0  0  0
   36.2780   24.0540   41.0890 H   0  0  0  0  0  0  0  0  0  0  0  0
   34.5190   24.9080   37.0940 C   0  0  0  0  0  0  0  0  0  0  0  0
   35.5090   25.1180   38.0700 C   0  0  0  0  0  0  0  0  0  0  0  0
   35.6310   24.2610   39.1230 C   0  0  0  0  0  0  0  0  0  0  0  0
   34.7780   23.2340   39.1770 N   0  0  0  0  0  0  0  0  0  0  0  0
   33.8310   23.0170   38.2600 C   0  0  0  0  0  0  0  0  0  0  0  0
   33.6850   23.8480   37.2050 N   0  0  0  0  0  0  0  0  0  0  0  0
   34.5120   25.6530   36.2990 H   0  0  0  0  0  0  0  0  0  0  0  0
   36.1810   25.9530   38.0010 H   0  0  0  0  0  0  0  0  0  0  0  0
   33.1580   22.1650   38.3460 H   0  0  0  0  0  0  0  0  0  0  0  0
   36.5890   28.3800   41.8150 O   0  0  0  0  0  0  0  0  0  0  0  0
   38.0540   30.5960   41.9170 O   0  0  0  0  0  0  0  0  0  0  0  0
   36.9690   29.8750   41.1250 P   0  0  2  0  0  0  0  0  0  0  0  0
   35.5660   30.8270   41.2640 O   0  0  0  0  0  0  0  0  0  0  0  0
   34.8060   30.3440   40.8900 H   0  0  0  0  0  0  0  0  0  0  0  0
   37.3620   29.7650   39.5060 O   0  0  0  0  0  0  0  0  0  0  0  0
   36.2440   29.9650   38.7390 C   0  0  0  0  0  0  0  0  0  0  0  0
   35.9070   31.0210   38.9520 H   0  0  0  0  0  0  0  0  0  0  0  0
   35.4470   29.3010   39.0840 H   0  0  0  0  0  0  0  0  0  0  0  0
   36.4060   29.8510   37.3250 N   0  0  0  0  0  0  0  0  0  0  0  0
   35.7470   28.7260   36.7430 C   0  0  0  0  0  3  0  0  0  0  0  0
   36.0670   27.7550   37.1880 H   0  0  0  0  0  0  0  0  0  0  0  0
   36.1100   28.6940   35.2620 C   0  0  0  0  0  3  0  0  0  0  0  0
   35.7770   29.6060   34.7520 H   0  0  0  0  0  0  0  0  0  0  0  0
   37.5090   28.4820   35.0420 N   0  0  0  0  0  0  0  0  0  0  0  0
   37.9250   29.2390   34.4540 H   0  0  0  0  0  0  0  0  0  0  0  0
   38.1870   28.4840   36.3070 C   0  0  0  0  0  2  0  0  0  0  0  0
   37.8270   29.7320   37.0600 C   0  0  0  0  0  2  0  0  0  0  0  0
  1  6  1  0  0  0  0
  1  2  1  0  0  0  0
  2  7  1  0  0  0  0
  2  3  1  0  0  0  0
  3 10  1  0  0  0  0
  3  4  1  0  0  0  0
  4 12  1  0  0  0  0
  5  4  1  0  0  0  0
  5 13  1  0  0  0  0
  5 14  1  0  0  0  0
  6 15  1  6  0  0  0
  6  5  1  0  0  0  0
  8  2  1  0  0  0  0
  9  3  1  0  0  0  0
 11  4  1  0  0  0  0
 16  1  1  0  0  0  0
 17 16  1  0  0  0  0
 18 16  1  0  0  0  0
 19 16  1  0  0  0  0
 19 21  1  0  0  0  0
 20 19  1  0  0  0  0
 22 27  2  0  0  0  0
 22 23  1  0  0  0  0
 23 24  2  0  0  0  0
 24 25  1  0  0  0  0
 24 19  1  0  0  0  0
 26 30  1  0  0  0  0
 26 25  2  0  0  0  0
 27 26  1  0  0  0  0
 28 22  1  0  0  0  0
 29 23  1  0  0  0  0
 31  6  1  0  0  0  0
 33 34  1  0  0  0  0
 33 31  1  0  0  0  0
 33 32  2  1  0  0  0
 35 34  1  0  0  0  0
 36 33  1  0  0  0  0
 37 38  1  0  0  0  0
 37 39  1  0  0  0  0
 37 36  1  0  0  0  0
 40 37  1  0  0  0  0
 41 42  1  0  0  0  0
 41 40  1  0  0  0  0
 43 41  1  0  0  0  0
 44 43  1  0  0  0  0
 45 43  1  0  0  0  0
 45 47  1  0  0  0  0
 46 45  1  0  0  0  0
 47 48  1  0  0  0  0
 48 40  1  0  0  0  0
M  END
>  <minimizedAffinity>
-5.16642046

$$$$

 OpenBabel03252509063D

 48 50  0  0  1  0  0  0  0  0999 V2000
   36.7990   28.5050   41.8410 N   0  0  0  0  0  0  0  0  0  0  0  0
   36.9020   27.2670   42.5190 C   0  0  0  0  0  0  0  0  0  0  0  0
   38.3120   26.8380   42.8610 C   0  0  0  0  0  0  0  0  0  0  0  0
   39.2360   27.9830   43.1790 C   0  0  0  0  0  0  0  0  0  0  0  0
   38.5080   29.3120   43.1700 C   0  0  0  0  0  0  0  0  0  0  0  0
   37.8780   29.3630   41.7370 C   0  0  2  0  0  0  0  0  0  0  0  0
   36.3710   27.3910   43.5060 H   0  0  0  0  0  0  0  0  0  0  0  0
   36.4140   26.4070   42.0480 H   0  0  0  0  0  0  0  0  0  0  0  0
   38.7040   26.2550   41.9940 H   0  0  0  0  0  0  0  0  0  0  0  0
   38.2310   26.1030   43.6940 H   0  0  0  0  0  0  0  0  0  0  0  0
   40.0340   28.0510   42.4060 H   0  0  0  0  0  0  0  0  0  0  0  0
   39.6930   27.8340   44.1990 H   0  0  0  0  0  0  0  0  0  0  0  0
   39.2250   30.1230   43.2930 H   0  0  0  0  0  0  0  0  0  0  0  0
   37.7120   29.2510   43.9350 H   0  0  0  0  0  0  0  0  0  0  0  0
   38.7160   29.0710   41.0770 H   0  0  0  0  0  0  0  0  0  0  0  0
   35.7970   28.5280   40.8000 C   0  0  0  0  0  0  0  0  0  0  0  0
   35.7100   29.5650   40.4330 H   0  0  0  0  0  0  0  0  0  0  0  0
   34.8300   28.2470   41.2560 H   0  0  0  0  0  0  0  0  0  0  0  0
   36.2020   27.5920   39.7150 C   0  0  0  0  0  0  0  0  0  0  0  0
   37.2330   27.2130   39.7960 H   0  0  0  0  0  0  0  0  0  0  0  0
   35.5350   26.6810   39.6850 H   0  0  0  0  0  0  0  0  0  0  0  0
   34.6360   28.6270   36.4600 C   0  0  0  0  0  0  0  0  0  0  0  0
   34.8490   28.0190   37.7100 C   0  0  0  0  0  0  0  0  0  0  0  0
   36.0030   28.2470   38.3970 C   0  0  0  0  0  0  0  0  0  0  0  0
   36.9010   29.0600   37.8340 N   0  0  0  0  0  0  0  0  0  0  0  0
   36.7170   29.6460   36.6470 C   0  0  0  0  0  0  0  0  0  0  0  0
   35.5840   29.4410   35.9420 N   0  0  0  0  0  0  0  0  0  0  0  0
   33.6800   28.3750   35.9990 H   0  0  0  0  0  0  0  0  0  0  0  0
   34.1090   27.3690   38.1390 H   0  0  0  0  0  0  0  0  0  0  0  0
   37.4780   30.3030   36.2270 H   0  0  0  0  0  0  0  0  0  0  0  0
   37.4910   30.6840   41.6410 O   0  0  0  0  0  0  0  0  0  0  0  0
   37.3110   32.2540   39.5020 O   0  0  0  0  0  0  0  0  0  0  0  0
   38.2920   31.5130   40.4050 P   0  0  2  0  0  0  0  0  0  0  0  0
   39.0240   30.3220   39.4360 O   0  0  0  0  0  0  0  0  0  0  0  0
   39.5600   29.7300   39.9970 H   0  0  0  0  0  0  0  0  0  0  0  0
   39.4900   32.5280   40.9710 O   0  0  0  0  0  0  0  0  0  0  0  0
   40.6870   32.2110   40.3850 C   0  0  0  0  0  0  0  0  0  0  0  0
   40.7800   31.0880   40.4570 H   0  0  0  0  0  0  0  0  0  0  0  0
   41.5020   32.6360   40.9760 H   0  0  0  0  0  0  0  0  0  0  0  0
   40.8410   32.5590   39.0090 N   0  0  0  0  0  0  0  0  0  0  0  0
   41.9220   31.8990   38.3480 C   0  0  0  0  0  3  0  0  0  0  0  0
   42.9050   32.0730   38.8430 H   0  0  0  0  0  0  0  0  0  0  0  0
   42.0110   32.4620   36.9340 C   0  0  0  0  0  3  0  0  0  0  0  0
   41.0860   32.2790   36.3740 H   0  0  0  0  0  0  0  0  0  0  0  0
   42.3380   33.8570   36.9160 N   0  0  0  0  0  0  0  0  0  0  0  0
   41.6280   34.4110   36.3860 H   0  0  0  0  0  0  0  0  0  0  0  0
   42.3650   34.3480   38.2640 C   0  0  0  0  0  2  0  0  0  0  0  0
   41.0780   33.9890   38.9480 C   0  0  0  0  0  2  0  0  0  0  0  0
  1  2  1  0  0  0  0
  2  3  1  0  0  0  0
  2  7  1  0  0  0  0
  3  4  1  0  0  0  0
  3 10  1  0  0  0  0
  4 12  1  0  0  0  0
  5  4  1  0  0  0  0
  5 13  1  0  0  0  0
  5 14  1  0  0  0  0
  6 15  1  6  0  0  0
  6  1  1  0  0  0  0
  6  5  1  0  0  0  0
  8  2  1  0  0  0  0
  9  3  1  0  0  0  0
 11  4  1  0  0  0  0
 16 18  1  0  0  0  0
 16  1  1  0  0  0  0
 17 16  1  0  0  0  0
 19 20  1  0  0  0  0
 19 16  1  0  0  0  0
 21 19  1  0  0  0  0
 22 23  1  0  0  0  0
 23 29  1  0  0  0  0
 23 24  2  0  0  0  0
 24 19  1  0  0  0  0
 25 24  1  0  0  0  0
 26 25  2  0  0  0  0
 27 22  2  0  0  0  0
 27 26  1  0  0  0  0
 28 22  1  0  0  0  0
 30 26  1  0  0  0  0
 31  6  1  0  0  0  0
 33 32  2  6  0  0  0
 33 36  1  0  0  0  0
 33 31  1  0  0  0  0
 34 35  1  0  0  0  0
 34 33  1  0  0  0  0
 37 38  1  0  0  0  0
 37 36  1  0  0  0  0
 37 39  1  0  0  0  0
 40 37  1  0  0  0  0
 41 42  1  0  0  0  0
 41 40  1  0  0  0  0
 43 41  1  0  0  0  0
 44 43  1  0  0  0  0
 45 43  1  0  0  0  0
 45 47  1  0  0  0  0
 46 45  1  0  0  0  0
 47 48  1  0  0  0  0
 48 40  1  0  0  0  0
M  END
>  <minimizedAffinity>
-5.14616203

$$$$

 OpenBabel03252509063D

 48 50  0  0  1  0  0  0  0  0999 V2000
   36.8350   28.6290   40.7860 N   0  0  0  0  0  0  0  0  0  0  0  0
   35.4500   28.7580   40.5210 C   0  0  0  0  0  0  0  0  0  0  0  0
   35.1060   29.3680   39.1800 C   0  0  0  0  0  0  0  0  0  0  0  0
   36.0820   29.0230   38.0880 C   0  0  0  0  0  0  0  0  0  0  0  0
   37.1490   28.0610   38.5680 C   0  0  0  0  0  0  0  0  0  0  0  0
   37.7780   28.8090   39.7920 C   0  0  2  0  0  0  0  0  0  0  0  0
   35.0250   27.7140   40.5020 H   0  0  0  0  0  0  0  0  0  0  0  0
   34.8540   29.2860   41.2730 H   0  0  0  0  0  0  0  0  0  0  0  0
   35.0570   30.4740   39.3190 H   0  0  0  0  0  0  0  0  0  0  0  0
   34.0640   29.0560   38.9430 H   0  0  0  0  0  0  0  0  0  0  0  0
   36.6120   29.9430   37.7490 H   0  0  0  0  0  0  0  0  0  0  0  0
   35.5370   28.5480   37.2220 H   0  0  0  0  0  0  0  0  0  0  0  0
   37.8970   27.9230   37.7880 H   0  0  0  0  0  0  0  0  0  0  0  0
   36.6300   27.1440   38.9070 H   0  0  0  0  0  0  0  0  0  0  0  0
   37.9460   29.8330   39.4080 H   0  0  0  0  0  0  0  0  0  0  0  0
   37.2070   28.9250   42.1510 C   0  0  0  0  0  0  0  0  0  0  0  0
   36.7040   29.8620   42.4460 H   0  0  0  0  0  0  0  0  0  0  0  0
   38.2970   29.1030   42.1720 H   0  0  0  0  0  0  0  0  0  0  0  0
   36.8040   27.7860   43.0210 C   0  0  0  0  0  0  0  0  0  0  0  0
   36.5520   28.0660   44.0570 H   0  0  0  0  0  0  0  0  0  0  0  0
   35.8980   27.2520   42.6110 H   0  0  0  0  0  0  0  0  0  0  0  0
   40.0790   26.0650   43.6800 C   0  0  0  0  0  0  0  0  0  0  0  0
   39.0470   27.0200   43.6660 C   0  0  0  0  0  0  0  0  0  0  0  0
   37.8770   26.7590   43.0200 C   0  0  0  0  0  0  0  0  0  0  0  0
   37.7640   25.5750   42.4120 N   0  0  0  0  0  0  0  0  0  0  0  0
   38.7340   24.6540   42.4130 C   0  0  0  0  0  0  0  0  0  0  0  0
   39.9050   24.8830   43.0460 N   0  0  0  0  0  0  0  0  0  0  0  0
   40.9690   26.3790   44.2260 H   0  0  0  0  0  0  0  0  0  0  0  0
   39.1660   27.9650   44.1640 H   0  0  0  0  0  0  0  0  0  0  0  0
   38.5960   23.7010   41.9040 H   0  0  0  0  0  0  0  0  0  0  0  0
   38.9250   28.0750   40.0170 O   0  0  0  0  0  0  0  0  0  0  0  0
   41.1150   27.8390   38.5270 O   0  0  0  0  0  0  0  0  0  0  0  0
   40.3100   28.8100   39.3850 P   0  0  2  0  0  0  0  0  0  0  0  0
   41.2920   29.1910   40.7200 O   0  0  0  0  0  0  0  0  0  0  0  0
   40.7730   29.7000   41.3710 H   0  0  0  0  0  0  0  0  0  0  0  0
   39.9790   30.2260   38.5650 O   0  0  0  0  0  0  0  0  0  0  0  0
   40.3740   31.3020   39.3130 C   0  0  0  0  0  0  0  0  0  0  0  0
   41.4140   31.5610   38.9610 H   0  0  0  0  0  0  0  0  0  0  0  0
   40.4580   31.0020   40.3610 H   0  0  0  0  0  0  0  0  0  0  0  0
   39.5840   32.4870   39.2020 N   0  0  0  0  0  0  0  0  0  0  0  0
   39.3680   33.1740   40.4360 C   0  0  0  0  0  3  0  0  0  0  0  0
   38.8900   32.5330   41.2120 H   0  0  0  0  0  0  0  0  0  0  0  0
   38.4260   34.3400   40.1560 C   0  0  0  0  0  3  0  0  0  0  0  0
   38.8620   35.0380   39.4310 H   0  0  0  0  0  0  0  0  0  0  0  0
   37.1320   33.9100   39.7180 N   0  0  0  0  0  0  0  0  0  0  0  0
   36.8740   34.3380   38.8000 H   0  0  0  0  0  0  0  0  0  0  0  0
   37.1440   32.4840   39.5530 C   0  0  0  0  0  2  0  0  0  0  0  0
   38.2930   32.0980   38.6670 C   0  0  0  0  0  2  0  0  0  0  0  0
  1 16  1  0  0  0  0
  2  1  1  0  0  0  0
  2  8  1  0  0  0  0
  3  9  1  0  0  0  0
  3  2  1  0  0  0  0
  4  5  1  0  0  0  0
  4  3  1  0  0  0  0
  5 14  1  0  0  0  0
  5  6  1  0  0  0  0
  6 15  1  6  0  0  0
  6 31  1  0  0  0  0
  6  1  1  0  0  0  0
  7  2  1  0  0  0  0
 10  3  1  0  0  0  0
 11  4  1  0  0  0  0
 12  4  1  0  0  0  0
 13  5  1  0  0  0  0
 16 18  1  0  0  0  0
 16 17  1  0  0  0  0
 16 19  1  0  0  0  0
 19 20  1  0  0  0  0
 21 19  1  0  0  0  0
 22 28  1  0  0  0  0
 23 22  1  0  0  0  0
 23 29  1  0  0  0  0
 24 19  1  0  0  0  0
 24 23  2  0  0  0  0
 25 26  2  0  0  0  0
 25 24  1  0  0  0  0
 26 27  1  0  0  0  0
 27 22  2  0  0  0  0
 30 26  1  0  0  0  0
 33 32  2  6  0  0  0
 33 31  1  0  0  0  0
 33 34  1  0  0  0  0
 34 35  1  0  0  0  0
 36 37  1  0  0  0  0
 36 33  1  0  0  0  0
 37 39  1  0  0  0  0
 38 37  1  0  0  0  0
 40 37  1  0  0  0  0
 40 41  1  0  0  0  0
 41 42  1  0  0  0  0
 43 41  1  0  0  0  0
 44 43  1  0  0  0  0
 45 43  1  0  0  0  0
 46 45  1  0  0  0  0
 47 45  1  0  0  0  0
 48 40  1  0  0  0  0
 48 47  1  0  0  0  0
M  END
>  <minimizedAffinity>
-5.09382343

$$$$

 OpenBabel03252509063D

 48 50  0  0  1  0  0  0  0  0999 V2000
   37.3180   28.9910   42.3770 N   0  0  0  0  0  0  0  0  0  0  0  0
   36.6180   27.7600   42.3960 C   0  0  0  0  0  0  0  0  0  0  0  0
   37.4500   26.5430   42.0580 C   0  0  0  0  0  0  0  0  0  0  0  0
   38.8790   26.6360   42.5200 C   0  0  0  0  0  0  0  0  0  0  0  0
   39.1350   27.9060   43.3050 C   0  0  0  0  0  0  0  0  0  0  0  0
   38.6970   29.0340   42.3100 C   0  0  2  0  0  0  0  0  0  0  0  0
   36.2620   27.6040   43.4540 H   0  0  0  0  0  0  0  0  0  0  0  0
   35.7100   27.7030   41.7860 H   0  0  0  0  0  0  0  0  0  0  0  0
   37.4100   26.4070   40.9510 H   0  0  0  0  0  0  0  0  0  0  0  0
   36.9150   25.6610   42.4800 H   0  0  0  0  0  0  0  0  0  0  0  0
   39.5610   26.6630   41.6400 H   0  0  0  0  0  0  0  0  0  0  0  0
   39.1280   25.7550   43.1780 H   0  0  0  0  0  0  0  0  0  0  0  0
   40.1990   27.9930   43.5260 H   0  0  0  0  0  0  0  0  0  0  0  0
   38.4600   27.8880   44.1810 H   0  0  0  0  0  0  0  0  0  0  0  0
   39.1840   28.7420   41.3610 H   0  0  0  0  0  0  0  0  0  0  0  0
   36.5650   30.0910   41.8200 C   0  0  0  0  0  0  0  0  0  0  0  0
   37.2580   30.9380   41.6730 H   0  0  0  0  0  0  0  0  0  0  0  0
   35.8100   30.3960   42.5670 H   0  0  0  0  0  0  0  0  0  0  0  0
   35.9460   29.6570   40.5370 C   0  0  0  0  0  0  0  0  0  0  0  0
   36.0320   28.5790   40.3280 H   0  0  0  0  0  0  0  0  0  0  0  0
   34.8430   29.8950   40.5090 H   0  0  0  0  0  0  0  0  0  0  0  0
   37.3020   30.5440   37.1460 C   0  0  0  0  0  0  0  0  0  0  0  0
   36.7510   29.8250   38.2230 C   0  0  0  0  0  0  0  0  0  0  0  0
   36.5280   30.4400   39.4180 C   0  0  0  0  0  0  0  0  0  0  0  0
   36.8520   31.7330   39.5110 N   0  0  0  0  0  0  0  0  0  0  0  0
   37.3770   32.4330   38.5000 C   0  0  0  0  0  0  0  0  0  0  0  0
   37.6090   31.8510   37.3040 N   0  0  0  0  0  0  0  0  0  0  0  0
   37.4380   29.9530   36.2400 H   0  0  0  0  0  0  0  0  0  0  0  0
   36.5000   28.7860   38.1190 H   0  0  0  0  0  0  0  0  0  0  0  0
   37.6250   33.4860   38.6230 H   0  0  0  0  0  0  0  0  0  0  0  0
   39.2170   30.1630   42.9100 O   0  0  0  0  0  0  0  0  0  0  0  0
   41.5290   31.4580   42.6960 O   0  0  0  0  0  0  0  0  0  0  0  0
   40.3040   30.9920   41.9160 P   0  0  2  0  0  0  0  0  0  0  0  0
   39.4980   32.4020   41.4100 O   0  0  0  0  0  0  0  0  0  0  0  0
   38.6350   32.1630   41.0240 H   0  0  0  0  0  0  0  0  0  0  0  0
   40.7360   30.1260   40.5560 O   0  0  0  0  0  0  0  0  0  0  0  0
   40.4590   30.8550   39.4300 C   0  0  0  0  0  0  0  0  0  0  0  0
   39.5380   31.4610   39.6710 H   0  0  0  0  0  0  0  0  0  0  0  0
   40.1890   30.1760   38.6170 H   0  0  0  0  0  0  0  0  0  0  0  0
   41.4640   31.7710   38.9940 N   0  0  0  0  0  0  0  0  0  0  0  0
   40.9930   32.7930   38.1140 C   0  0  0  0  0  3  0  0  0  0  0  0
   40.5010   32.3860   37.2000 H   0  0  0  0  0  0  0  0  0  0  0  0
   42.2010   33.6070   37.6630 C   0  0  0  0  0  3  0  0  0  0  0  0
   42.7040   34.0760   38.5170 H   0  0  0  0  0  0  0  0  0  0  0  0
   43.1330   32.8330   36.8990 N   0  0  0  0  0  0  0  0  0  0  0  0
   44.0910   32.8660   37.3130 H   0  0  0  0  0  0  0  0  0  0  0  0
   42.7040   31.4640   36.8860 C   0  0  0  0  0  2  0  0  0  0  0  0
   42.4770   31.0020   38.2970 C   0  0  0  0  0  2  0  0  0  0  0  0
  1  2  1  0  0  0  0
  2  7  1  0  0  0  0
  3  2  1  0  0  0  0
  3 10  1  0  0  0  0
  3  4  1  0  0  0  0
  4 12  1  0  0  0  0
  4  5  1  0  0  0  0
  5 13  1  0  0  0  0
  5 14  1  0  0  0  0
  6 15  1  6  0  0  0
  6  1  1  0  0  0  0
  6 31  1  0  0  0  0
  6  5  1  0  0  0  0
  8  2  1  0  0  0  0
  9  3  1  0  0  0  0
 11  4  1  0  0  0  0
 16  1  1  0  0  0  0
 16 18  1  0  0  0  0
 17 16  1  0  0  0  0
 19 16  1  0  0  0  0
 20 19  1  0  0  0  0
 21 19  1  0  0  0  0
 22 27  2  0  0  0  0
 22 23  1  0  0  0  0
 23 24  2  0  0  0  0
 24 25  1  0  0  0  0
 24 19  1  0  0  0  0
 26 30  1  0  0  0  0
 26 25  2  0  0  0  0
 27 26  1  0  0  0  0
 28 22  1  0  0  0  0
 29 23  1  0  0  0  0
 33 32  2  1  0  0  0
 33 31  1  0  0  0  0
 34 33  1  0  0  0  0
 35 34  1  0  0  0  0
 36 33  1  0  0  0  0
 37 38  1  0  0  0  0
 37 36  1  0  0  0  0
 39 37  1  0  0  0  0
 40 37  1  0  0  0  0
 41 40  1  0  0  0  0
 42 41  1  0  0  0  0
 43 41  1  0  0  0  0
 43 44  1  0  0  0  0
 45 46  1  0  0  0  0
 45 43  1  0  0  0  0
 47 45  1  0  0  0  0
 47 48  1  0  0  0  0
 48 40  1  0  0  0  0
M  END
>  <minimizedAffinity>
-5.08001614

$$$$

 OpenBabel03252509063D

 48 50  0  0  1  0  0  0  0  0999 V2000
   37.2500   29.5800   38.5090 N   0  0  0  0  0  0  0  0  0  0  0  0
   36.4540   28.5720   37.9130 C   0  0  0  0  0  0  0  0  0  0  0  0
   36.8570   28.1840   36.5070 C   0  0  0  0  0  0  0  0  0  0  0  0
   38.3390   28.2590   36.2570 C   0  0  0  0  0  0  0  0  0  0  0  0
   39.1040   28.6270   37.5120 C   0  0  0  0  0  0  0  0  0  0  0  0
   38.4460   29.9810   37.9460 C   0  0  2  0  0  0  0  0  0  0  0  0
   36.5840   27.6430   38.5370 H   0  0  0  0  0  0  0  0  0  0  0  0
   35.3730   28.7460   37.8960 H   0  0  0  0  0  0  0  0  0  0  0  0
   36.3120   28.8570   35.8040 H   0  0  0  0  0  0  0  0  0  0  0  0
   36.4390   27.1680   36.3220 H   0  0  0  0  0  0  0  0  0  0  0  0
   38.5570   29.0540   35.5080 H   0  0  0  0  0  0  0  0  0  0  0  0
   38.7180   27.2630   35.8880 H   0  0  0  0  0  0  0  0  0  0  0  0
   40.1550   28.7810   37.2690 H   0  0  0  0  0  0  0  0  0  0  0  0
   38.8920   27.8420   38.2630 H   0  0  0  0  0  0  0  0  0  0  0  0
   38.4130   30.5630   37.0060 H   0  0  0  0  0  0  0  0  0  0  0  0
   36.5030   30.5350   39.2960 C   0  0  0  0  0  0  0  0  0  0  0  0
   35.8480   31.1010   38.6120 H   0  0  0  0  0  0  0  0  0  0  0  0
   37.2260   31.2440   39.7400 H   0  0  0  0  0  0  0  0  0  0  0  0
   35.7200   29.8050   40.3310 C   0  0  0  0  0  0  0  0  0  0  0  0
   34.9030   30.3890   40.7850 H   0  0  0  0  0  0  0  0  0  0  0  0
   35.2430   28.8740   39.9080 H   0  0  0  0  0  0  0  0  0  0  0  0
   37.3190   27.5600   42.8850 C   0  0  0  0  0  0  0  0  0  0  0  0
   36.4640   28.0530   41.8840 C   0  0  0  0  0  0  0  0  0  0  0  0
   36.6390   29.3100   41.3880 C   0  0  0  0  0  0  0  0  0  0  0  0
   37.6440   30.0320   41.8900 N   0  0  0  0  0  0  0  0  0  0  0  0
   38.4680   29.5810   42.8420 C   0  0  0  0  0  0  0  0  0  0  0  0
   38.3200   28.3410   43.3540 N   0  0  0  0  0  0  0  0  0  0  0  0
   37.0880   26.5450   43.2080 H   0  0  0  0  0  0  0  0  0  0  0  0
   35.6630   27.4500   41.4990 H   0  0  0  0  0  0  0  0  0  0  0  0
   39.2750   30.2070   43.2210 H   0  0  0  0  0  0  0  0  0  0  0  0
   39.3410   30.4450   38.8890 O   0  0  0  0  0  0  0  0  0  0  0  0
   39.0040   33.0610   39.2260 O   0  0  0  0  0  0  0  0  0  0  0  0
   39.8870   32.0110   38.5600 P   0  0  2  0  0  0  0  0  0  0  0  0
   39.7050   32.2310   36.8840 O   0  0  0  0  0  0  0  0  0  0  0  0
   40.1400   31.4980   36.4100 H   0  0  0  0  0  0  0  0  0  0  0  0
   41.4970   32.2330   38.9400 O   0  0  0  0  0  0  0  0  0  0  0  0
   42.2050   31.0950   38.6590 C   0  0  0  0  0  0  0  0  0  0  0  0
   41.6270   30.2460   39.1270 H   0  0  0  0  0  0  0  0  0  0  0  0
   43.1730   31.1370   39.1650 H   0  0  0  0  0  0  0  0  0  0  0  0
   42.3830   30.7720   37.2790 N   0  0  0  0  0  0  0  0  0  0  0  0
   42.7270   29.4090   37.0290 C   0  0  0  0  0  3  0  0  0  0  0  0
   43.6520   29.0890   37.5620 H   0  0  0  0  0  0  0  0  0  0  0  0
   42.9850   29.2650   35.5330 C   0  0  0  0  0  3  0  0  0  0  0  0
   42.0920   29.5200   34.9490 H   0  0  0  0  0  0  0  0  0  0  0  0
   44.1070   30.0380   35.0900 N   0  0  0  0  0  0  0  0  0  0  0  0
   43.8450   30.6880   34.3150 H   0  0  0  0  0  0  0  0  0  0  0  0
   44.5920   30.8280   36.1860 C   0  0  0  0  0  2  0  0  0  0  0  0
   43.4530   31.6110   36.7730 C   0  0  0  0  0  2  0  0  0  0  0  0
  1 16  1  0  0  0  0
  2  1  1  0  0  0  0
  2  7  1  0  0  0  0
  3  2  1  0  0  0  0
  4  3  1  0  0  0  0
  4  5  1  0  0  0  0
  5  6  1  0  0  0  0
  5 14  1  0  0  0  0
  6 15  1  6  0  0  0
  6  1  1  0  0  0  0
  6 31  1  0  0  0  0
  8  2  1  0  0  0  0
  9  3  1  0  0  0  0
 10  3  1  0  0  0  0
 11  4  1  0  0  0  0
 12  4  1  0  0  0  0
 13  5  1  0  0  0  0
 16 18  1  0  0  0  0
 16 19  1  0  0  0  0
 17 16  1  0  0  0  0
 19 20  1  0  0  0  0
 19 24  1  0  0  0  0
 21 19  1  0  0  0  0
 22 28  1  0  0  0  0
 22 27  1  0  0  0  0
 23 22  2  0  0  0  0
 24 23  1  0  0  0  0
 24 25  2  0  0  0  0
 25 26  1  0  0  0  0
 26 30  1  0  0  0  0
 26 27  2  0  0  0  0
 29 23  1  0  0  0  0
 33 31  1  0  0  0  0
 33 36  1  0  0  0  0
 33 32  2  1  0  0  0
 34 33  1  0  0  0  0
 35 34  1  0  0  0  0
 37 36  1  0  0  0  0
 37 38  1  0  0  0  0
 37 39  1  0  0  0  0
 40 37  1  0  0  0  0
 41 40  1  0  0  0  0
 41 42  1  0  0  0  0
 43 41  1  0  0  0  0
 44 43  1  0  0  0  0
 45 43  1  0  0  0  0
 45 47  1  0  0  0  0
 46 45  1  0  0  0  0
 47 48  1  0  0  0  0
 48 40  1  0  0  0  0
M  END
>  <minimizedAffinity>
-5.02263927

$$$$
