
 OpenBabel03252505203D

 34 37  0  0  0  0  0  0  0  0999 V2000
   38.1720   30.1980   39.7020 C   0  0  0  0  0  0  0  0  0  0  0  0
   37.1280   30.5640   38.8620 C   0  0  0  0  0  0  0  0  0  0  0  0
   37.3770   31.4120   37.7910 C   0  0  0  0  0  0  0  0  0  0  0  0
   38.6830   31.8610   37.6080 C   0  0  0  0  0  0  0  0  0  0  0  0
   39.6820   31.4560   38.4880 C   0  0  0  0  0  0  0  0  0  0  0  0
   39.4270   30.6230   39.5350 N   0  0  0  0  0  0  0  0  0  0  0  0
   36.1020   30.2200   38.9930 H   0  0  0  0  0  0  0  0  0  0  0  0
   36.5780   31.7140   37.1200 H   0  0  0  0  0  0  0  0  0  0  0  0
   38.8590   32.5200   36.7720 H   0  0  0  0  0  0  0  0  0  0  0  0
   41.0110   31.9220   38.2880 N   0  0  0  0  0  0  0  0  0  0  0  0
   41.8470   31.4060   37.2470 C   0  0  0  0  0  3  0  0  0  0  0  0
   41.3290   31.1910   36.2960 H   0  0  0  0  0  0  0  0  0  0  0  0
   42.8990   32.4800   36.9720 C   0  0  0  0  0  3  0  0  0  0  0  0
   43.3000   32.2820   35.9640 H   0  0  0  0  0  0  0  0  0  0  0  0
   42.1850   33.7590   36.9270 N   0  0  0  0  0  0  0  0  0  0  0  0
   42.7840   34.5110   36.5220 H   0  0  0  0  0  0  0  0  0  0  0  0
   41.8290   34.1600   38.2920 C   0  0  0  0  0  2  0  0  0  0  0  0
   41.5710   32.9450   39.1410 C   0  0  0  0  0  2  0  0  0  0  0  0
   37.4710   28.8820   43.0880 C   0  0  0  0  0  0  0  0  0  0  0  0
   37.2640   27.5200   42.8680 C   0  0  0  0  0  0  0  0  0  0  0  0
   37.3630   27.0940   41.5610 C   0  0  0  0  0  0  0  0  0  0  0  0
   37.6520   27.9820   40.5420 N   0  0  0  0  0  0  0  0  0  0  0  0
   37.8460   29.3110   40.8240 C   0  0  0  0  0  0  0  0  0  0  0  0
   37.7540   29.7460   42.0840 N   0  0  0  0  0  0  0  0  0  0  0  0
   37.3940   29.2220   44.1090 H   0  0  0  0  0  0  0  0  0  0  0  0
   37.0390   26.8100   43.6300 H   0  0  0  0  0  0  0  0  0  0  0  0
   37.1910   25.6420   41.2080 C   0  0  0  0  0  0  0  0  0  0  0  0
   38.2710   24.7500   41.8220 C   0  0  0  0  0  0  0  0  0  0  0  0
   36.7580   24.7140   42.2170 C   0  0  0  0  0  0  0  0  0  0  0  0
   37.0480   25.5160   40.1180 H   0  0  0  0  0  0  0  0  0  0  0  0
   38.5930   23.9200   41.1810 H   0  0  0  0  0  0  0  0  0  0  0  0
   38.9600   25.1930   42.5590 H   0  0  0  0  0  0  0  0  0  0  0  0
   36.5080   25.1130   43.2280 H   0  0  0  0  0  0  0  0  0  0  0  0
   36.2200   23.8000   41.9110 H   0  0  0  0  0  0  0  0  0  0  0  0
  1 23  1  0  0  0  0
  2  7  1  0  0  0  0
  2  1  2  0  0  0  0
  3  2  1  0  0  0  0
  4  3  2  0  0  0  0
  4  5  1  0  0  0  0
  5  6  2  0  0  0  0
  6  1  1  0  0  0  0
  8  3  1  0  0  0  0
  9  4  1  0  0  0  0
 10  5  1  0  0  0  0
 10 18  1  0  0  0  0
 11 10  1  0  0  0  0
 12 11  1  0  0  0  0
 13 11  1  0  0  0  0
 14 13  1  0  0  0  0
 15 13  1  0  0  0  0
 15 17  1  0  0  0  0
 16 15  1  0  0  0  0
 17 18  1  0  0  0  0
 19 25  1  0  0  0  0
 20 19  1  0  0  0  0
 20 26  1  0  0  0  0
 21 20  2  0  0  0  0
 22 23  2  0  0  0  0
 22 21  1  0  0  0  0
 23 24  1  0  0  0  0
 24 19  2  0  0  0  0
 27 21  1  0  0  0  0
 27 28  1  0  0  0  0
 27 29  1  0  0  0  0
 28 29  1  0  0  0  0
 28 32  1  0  0  0  0
 29 33  1  0  0  0  0
 30 27  1  0  0  0  0
 31 28  1  0  0  0  0
 34 29  1  0  0  0  0
M  END
>  <minimizedAffinity>
-5.86971617

$$$$

 OpenBabel03252505203D

 34 37  0  0  0  0  0  0  0  0999 V2000
   38.2710   31.7870   40.3250 C   0  0  0  0  0  0  0  0  0  0  0  0
   37.6920   33.0350   40.1320 C   0  0  0  0  0  0  0  0  0  0  0  0
   38.5020   34.1610   40.0580 C   0  0  0  0  0  0  0  0  0  0  0  0
   39.8770   33.9810   40.1820 C   0  0  0  0  0  0  0  0  0  0  0  0
   40.3920   32.7020   40.3740 C   0  0  0  0  0  0  0  0  0  0  0  0
   39.5890   31.6050   40.4450 N   0  0  0  0  0  0  0  0  0  0  0  0
   36.6170   33.1900   40.0330 H   0  0  0  0  0  0  0  0  0  0  0  0
   38.0730   35.1470   39.9070 H   0  0  0  0  0  0  0  0  0  0  0  0
   40.4910   34.8660   40.1220 H   0  0  0  0  0  0  0  0  0  0  0  0
   41.7990   32.5340   40.4990 N   0  0  0  0  0  0  0  0  0  0  0  0
   42.6750   32.6160   39.3700 C   0  0  0  0  0  3  0  0  0  0  0  0
   42.4070   33.3870   38.6260 H   0  0  0  0  0  0  0  0  0  0  0  0
   44.0560   32.9630   39.9250 C   0  0  0  0  0  3  0  0  0  0  0  0
   44.6370   33.3890   39.0900 H   0  0  0  0  0  0  0  0  0  0  0  0
   43.8500   34.0240   40.9150 N   0  0  0  0  0  0  0  0  0  0  0  0
   44.7540   34.4770   41.1760 H   0  0  0  0  0  0  0  0  0  0  0  0
   43.2760   33.4430   42.1330 C   0  0  0  0  0  2  0  0  0  0  0  0
   42.4000   32.2700   41.7850 C   0  0  0  0  0  2  0  0  0  0  0  0
   35.6060   29.3200   39.6180 C   0  0  0  0  0  0  0  0  0  0  0  0
   35.6780   28.4480   40.7040 C   0  0  0  0  0  0  0  0  0  0  0  0
   36.6450   28.7270   41.6450 C   0  0  0  0  0  0  0  0  0  0  0  0
   37.4860   29.8150   41.5010 N   0  0  0  0  0  0  0  0  0  0  0  0
   37.3650   30.6360   40.4090 C   0  0  0  0  0  0  0  0  0  0  0  0
   36.4340   30.3840   39.4840 N   0  0  0  0  0  0  0  0  0  0  0  0
   34.8510   29.1060   38.8760 H   0  0  0  0  0  0  0  0  0  0  0  0
   35.0460   27.6010   40.8440 H   0  0  0  0  0  0  0  0  0  0  0  0
   36.7940   27.8750   42.8750 C   0  0  0  0  0  0  0  0  0  0  0  0
   37.4750   26.5360   42.5910 C   0  0  0  0  0  0  0  0  0  0  0  0
   38.0970   27.6850   43.4520 C   0  0  0  0  0  0  0  0  0  0  0  0
   35.8350   27.8020   43.4220 H   0  0  0  0  0  0  0  0  0  0  0  0
   37.0830   25.6930   43.1730 H   0  0  0  0  0  0  0  0  0  0  0  0
   37.9180   26.3750   41.5950 H   0  0  0  0  0  0  0  0  0  0  0  0
   38.9600   28.2240   42.9950 H   0  0  0  0  0  0  0  0  0  0  0  0
   38.1800   27.4630   44.5300 H   0  0  0  0  0  0  0  0  0  0  0  0
  1 23  1  0  0  0  0
  1  6  1  0  0  0  0
  2  1  2  0  0  0  0
  3  2  1  0  0  0  0
  3  4  2  0  0  0  0
  4  5  1  0  0  0  0
  5  6  2  0  0  0  0
  5 10  1  0  0  0  0
  7  2  1  0  0  0  0
  8  3  1  0  0  0  0
  9  4  1  0  0  0  0
 10 18  1  0  0  0  0
 11 13  1  0  0  0  0
 11 10  1  0  0  0  0
 12 11  1  0  0  0  0
 13 15  1  0  0  0  0
 14 13  1  0  0  0  0
 15 16  1  0  0  0  0
 15 17  1  0  0  0  0
 18 17  1  0  0  0  0
 19 20  1  0  0  0  0
 20 26  1  0  0  0  0
 20 21  2  0  0  0  0
 21 27  1  0  0  0  0
 22 21  1  0  0  0  0
 23 22  2  0  0  0  0
 24 19  2  0  0  0  0
 24 23  1  0  0  0  0
 25 19  1  0  0  0  0
 27 30  1  0  0  0  0
 27 29  1  0  0  0  0
 28 27  1  0  0  0  0
 28 31  1  0  0  0  0
 28 29  1  0  0  0  0
 29 34  1  0  0  0  0
 32 28  1  0  0  0  0
 33 29  1  0  0  0  0
M  END
>  <minimizedAffinity>
-5.59069824

$$$$

 OpenBabel03252505203D

 34 37  0  0  0  0  0  0  0  0999 V2000
   37.1270   27.8380   40.0590 C   0  0  0  0  0  0  0  0  0  0  0  0
   35.9050   28.0810   39.4430 C   0  0  0  0  0  0  0  0  0  0  0  0
   35.6510   29.3340   38.9000 C   0  0  0  0  0  0  0  0  0  0  0  0
   36.6490   30.3000   39.0000 C   0  0  0  0  0  0  0  0  0  0  0  0
   37.8500   29.9900   39.6300 C   0  0  0  0  0  0  0  0  0  0  0  0
   38.0900   28.7580   40.1590 N   0  0  0  0  0  0  0  0  0  0  0  0
   35.1150   27.3350   39.3580 H   0  0  0  0  0  0  0  0  0  0  0  0
   34.7040   29.5500   38.4140 H   0  0  0  0  0  0  0  0  0  0  0  0
   36.4350   31.2680   38.5730 H   0  0  0  0  0  0  0  0  0  0  0  0
   38.8600   30.9860   39.7240 N   0  0  0  0  0  0  0  0  0  0  0  0
   39.6570   31.3670   38.5970 C   0  0  0  0  0  3  0  0  0  0  0  0
   39.1160   31.4040   37.6340 H   0  0  0  0  0  0  0  0  0  0  0  0
   40.1750   32.7730   38.8950 C   0  0  0  0  0  3  0  0  0  0  0  0
   40.4600   33.2190   37.9280 H   0  0  0  0  0  0  0  0  0  0  0  0
   39.0370   33.5320   39.4210 N   0  0  0  0  0  0  0  0  0  0  0  0
   39.2420   34.5560   39.4360 H   0  0  0  0  0  0  0  0  0  0  0  0
   38.7730   33.1100   40.8010 C   0  0  0  0  0  2  0  0  0  0  0  0
   39.1220   31.6570   40.9760 C   0  0  0  0  0  2  0  0  0  0  0  0
   36.8250   24.2300   40.8220 C   0  0  0  0  0  0  0  0  0  0  0  0
   37.7920   24.0270   41.8070 C   0  0  0  0  0  0  0  0  0  0  0  0
   38.5260   25.1340   42.1740 C   0  0  0  0  0  0  0  0  0  0  0  0
   38.3010   26.3650   41.5890 N   0  0  0  0  0  0  0  0  0  0  0  0
   37.3330   26.5000   40.6250 C   0  0  0  0  0  0  0  0  0  0  0  0
   36.6090   25.4400   40.2530 N   0  0  0  0  0  0  0  0  0  0  0  0
   36.2460   23.3670   40.5290 H   0  0  0  0  0  0  0  0  0  0  0  0
   37.9910   23.0920   42.2770 H   0  0  0  0  0  0  0  0  0  0  0  0
   39.5740   25.0420   43.2490 C   0  0  0  0  0  0  0  0  0  0  0  0
   40.9920   25.2460   42.7150 C   0  0  0  0  0  0  0  0  0  0  0  0
   40.2550   26.2320   43.6790 C   0  0  0  0  0  0  0  0  0  0  0  0
   39.4340   24.1290   43.8590 H   0  0  0  0  0  0  0  0  0  0  0  0
   41.7550   24.6220   43.1980 H   0  0  0  0  0  0  0  0  0  0  0  0
   41.1160   25.5790   41.6720 H   0  0  0  0  0  0  0  0  0  0  0  0
   39.9440   27.2080   43.2350 H   0  0  0  0  0  0  0  0  0  0  0  0
   40.6670   26.2770   44.7020 H   0  0  0  0  0  0  0  0  0  0  0  0
  1  6  1  0  0  0  0
  1 23  1  0  0  0  0
  2  1  2  0  0  0  0
  3  4  2  0  0  0  0
  3  2  1  0  0  0  0
  4  5  1  0  0  0  0
  5 10  1  0  0  0  0
  5  6  2  0  0  0  0
  7  2  1  0  0  0  0
  8  3  1  0  0  0  0
  9  4  1  0  0  0  0
 10 18  1  0  0  0  0
 11 13  1  0  0  0  0
 11 10  1  0  0  0  0
 12 11  1  0  0  0  0
 13 15  1  0  0  0  0
 14 13  1  0  0  0  0
 15 16  1  0  0  0  0
 15 17  1  0  0  0  0
 17 18  1  0  0  0  0
 19 20  1  0  0  0  0
 20 21  2  0  0  0  0
 20 26  1  0  0  0  0
 21 27  1  0  0  0  0
 22 21  1  0  0  0  0
 23 22  2  0  0  0  0
 24 23  1  0  0  0  0
 24 19  2  0  0  0  0
 25 19  1  0  0  0  0
 27 29  1  0  0  0  0
 27 30  1  0  0  0  0
 28 31  1  0  0  0  0
 28 27  1  0  0  0  0
 28 29  1  0  0  0  0
 29 34  1  0  0  0  0
 32 28  1  0  0  0  0
 33 29  1  0  0  0  0
M  END
>  <minimizedAffinity>
-5.46495914

$$$$

 OpenBabel03252505203D

 34 37  0  0  0  0  0  0  0  0999 V2000
   37.2700   27.0960   41.5460 C   0  0  0  0  0  0  0  0  0  0  0  0
   37.1740   27.0550   42.9310 C   0  0  0  0  0  0  0  0  0  0  0  0
   37.4680   28.1940   43.6700 C   0  0  0  0  0  0  0  0  0  0  0  0
   37.8500   29.3380   42.9760 C   0  0  0  0  0  0  0  0  0  0  0  0
   37.9260   29.3110   41.5870 C   0  0  0  0  0  0  0  0  0  0  0  0
   37.6350   28.1890   40.8710 N   0  0  0  0  0  0  0  0  0  0  0  0
   36.8760   26.1670   43.4880 H   0  0  0  0  0  0  0  0  0  0  0  0
   37.4010   28.1880   44.7550 H   0  0  0  0  0  0  0  0  0  0  0  0
   38.0760   30.2140   43.5660 H   0  0  0  0  0  0  0  0  0  0  0  0
   38.3180   30.4880   40.8910 N   0  0  0  0  0  0  0  0  0  0  0  0
   37.4330   31.6010   40.7280 C   0  0  0  0  0  3  0  0  0  0  0  0
   36.7930   31.8210   41.6000 H   0  0  0  0  0  0  0  0  0  0  0  0
   38.3210   32.8200   40.4820 C   0  0  0  0  0  3  0  0  0  0  0  0
   37.7150   33.7090   40.7240 H   0  0  0  0  0  0  0  0  0  0  0  0
   39.4110   32.7430   41.4590 N   0  0  0  0  0  0  0  0  0  0  0  0
   39.9320   33.6460   41.5150 H   0  0  0  0  0  0  0  0  0  0  0  0
   40.3610   31.7060   41.0410 C   0  0  0  0  0  2  0  0  0  0  0  0
   39.6380   30.6020   40.3170 C   0  0  0  0  0  2  0  0  0  0  0  0
   36.9340   23.5360   40.5960 C   0  0  0  0  0  0  0  0  0  0  0  0
   36.3640   23.5940   39.3240 C   0  0  0  0  0  0  0  0  0  0  0  0
   36.1030   24.8550   38.8330 C   0  0  0  0  0  0  0  0  0  0  0  0
   36.3980   25.9840   39.5730 N   0  0  0  0  0  0  0  0  0  0  0  0
   36.9600   25.8600   40.8190 C   0  0  0  0  0  0  0  0  0  0  0  0
   37.2210   24.6470   41.3160 N   0  0  0  0  0  0  0  0  0  0  0  0
   37.1410   22.5510   40.9880 H   0  0  0  0  0  0  0  0  0  0  0  0
   36.1240   22.7440   38.7280 H   0  0  0  0  0  0  0  0  0  0  0  0
   35.5190   25.0410   37.4600 C   0  0  0  0  0  0  0  0  0  0  0  0
   34.0550   24.6100   37.3740 C   0  0  0  0  0  0  0  0  0  0  0  0
   34.5570   26.0850   37.2350 C   0  0  0  0  0  0  0  0  0  0  0  0
   36.1790   24.6020   36.6880 H   0  0  0  0  0  0  0  0  0  0  0  0
   33.7750   24.1340   36.4250 H   0  0  0  0  0  0  0  0  0  0  0  0
   33.5270   24.3570   38.3070 H   0  0  0  0  0  0  0  0  0  0  0  0
   34.3090   26.7670   38.0830 H   0  0  0  0  0  0  0  0  0  0  0  0
   34.4570   26.5160   36.2240 H   0  0  0  0  0  0  0  0  0  0  0  0
  1  2  1  0  0  0  0
  2  7  1  0  0  0  0
  2  3  2  0  0  0  0
  3  8  1  0  0  0  0
  4  9  1  0  0  0  0
  4  3  1  0  0  0  0
  5  4  2  0  0  0  0
  6  1  2  0  0  0  0
  6  5  1  0  0  0  0
 10  5  1  0  0  0  0
 11 10  1  0  0  0  0
 11 12  1  0  0  0  0
 13 14  1  0  0  0  0
 13 11  1  0  0  0  0
 13 15  1  0  0  0  0
 15 16  1  0  0  0  0
 17 15  1  0  0  0  0
 18 10  1  0  0  0  0
 18 17  1  0  0  0  0
 19 25  1  0  0  0  0
 19 24  1  0  0  0  0
 20 19  2  0  0  0  0
 21 20  1  0  0  0  0
 21 22  2  0  0  0  0
 22 23  1  0  0  0  0
 23 24  2  0  0  0  0
 23  1  1  0  0  0  0
 26 20  1  0  0  0  0
 27 21  1  0  0  0  0
 28 27  1  0  0  0  0
 28 32  1  0  0  0  0
 29 28  1  0  0  0  0
 29 27  1  0  0  0  0
 29 33  1  0  0  0  0
 30 27  1  0  0  0  0
 31 28  1  0  0  0  0
 34 29  1  0  0  0  0
M  END
>  <minimizedAffinity>
-5.40071249

$$$$

 OpenBabel03252505203D

 34 37  0  0  0  0  0  0  0  0999 V2000
   37.7570   29.2320   41.6310 C   0  0  0  0  0  0  0  0  0  0  0  0
   37.5000   29.2310   42.9960 C   0  0  0  0  0  0  0  0  0  0  0  0
   37.4160   28.0230   43.6750 C   0  0  0  0  0  0  0  0  0  0  0  0
   37.5970   26.8520   42.9430 C   0  0  0  0  0  0  0  0  0  0  0  0
   37.8510   26.9240   41.5770 C   0  0  0  0  0  0  0  0  0  0  0  0
   37.9320   28.1150   40.9200 N   0  0  0  0  0  0  0  0  0  0  0  0
   37.3570   30.1390   43.5820 H   0  0  0  0  0  0  0  0  0  0  0  0
   37.2160   27.9950   44.7430 H   0  0  0  0  0  0  0  0  0  0  0  0
   37.5280   25.9220   43.4860 H   0  0  0  0  0  0  0  0  0  0  0  0
   38.0330   25.7200   40.8420 N   0  0  0  0  0  0  0  0  0  0  0  0
   39.2390   24.9530   40.9310 C   0  0  0  0  0  3  0  0  0  0  0  0
   39.6880   24.9040   41.9390 H   0  0  0  0  0  0  0  0  0  0  0  0
   38.8720   23.5300   40.5130 C   0  0  0  0  0  3  0  0  0  0  0  0
   39.6540   22.8680   40.9210 H   0  0  0  0  0  0  0  0  0  0  0  0
   37.6140   23.2100   41.1930 N   0  0  0  0  0  0  0  0  0  0  0  0
   37.4110   22.1870   41.1470 H   0  0  0  0  0  0  0  0  0  0  0  0
   36.5130   23.9130   40.5270 C   0  0  0  0  0  2  0  0  0  0  0  0
   36.9970   25.2230   39.9680 C   0  0  0  0  0  2  0  0  0  0  0  0
   36.8920   32.2750   39.7120 C   0  0  0  0  0  0  0  0  0  0  0  0
   38.0840   33.0010   39.7050 C   0  0  0  0  0  0  0  0  0  0  0  0
   39.1480   32.4280   40.3670 C   0  0  0  0  0  0  0  0  0  0  0  0
   39.0210   31.2030   40.9950 N   0  0  0  0  0  0  0  0  0  0  0  0
   37.8210   30.5380   40.9650 C   0  0  0  0  0  0  0  0  0  0  0  0
   36.7760   31.0750   40.3290 N   0  0  0  0  0  0  0  0  0  0  0  0
   36.0540   32.7180   39.1960 H   0  0  0  0  0  0  0  0  0  0  0  0
   38.2150   33.9460   39.2310 H   0  0  0  0  0  0  0  0  0  0  0  0
   40.4910   33.1040   40.3980 C   0  0  0  0  0  0  0  0  0  0  0  0
   41.5650   32.3260   39.6380 C   0  0  0  0  0  0  0  0  0  0  0  0
   41.0020   33.7190   39.2040 C   0  0  0  0  0  0  0  0  0  0  0  0
   40.7660   33.3860   41.4320 H   0  0  0  0  0  0  0  0  0  0  0  0
   42.5620   32.3610   40.0950 H   0  0  0  0  0  0  0  0  0  0  0  0
   41.2550   31.4610   39.0300 H   0  0  0  0  0  0  0  0  0  0  0  0
   40.3570   33.7240   38.2940 H   0  0  0  0  0  0  0  0  0  0  0  0
   41.7160   34.5560   39.2940 H   0  0  0  0  0  0  0  0  0  0  0  0
  1  2  1  0  0  0  0
  2  7  1  0  0  0  0
  2  3  2  0  0  0  0
  3  8  1  0  0  0  0
  4  9  1  0  0  0  0
  4  3  1  0  0  0  0
  5  4  2  0  0  0  0
  6  5  1  0  0  0  0
  6  1  2  0  0  0  0
 10 11  1  0  0  0  0
 10  5  1  0  0  0  0
 11 12  1  0  0  0  0
 13 14  1  0  0  0  0
 13 11  1  0  0  0  0
 13 15  1  0  0  0  0
 16 15  1  0  0  0  0
 17 15  1  0  0  0  0
 18 17  1  0  0  0  0
 18 10  1  0  0  0  0
 19 24  1  0  0  0  0
 20 19  2  0  0  0  0
 20 21  1  0  0  0  0
 21 27  1  0  0  0  0
 21 22  2  0  0  0  0
 23 22  1  0  0  0  0
 23  1  1  0  0  0  0
 24 23  2  0  0  0  0
 25 19  1  0  0  0  0
 26 20  1  0  0  0  0
 27 30  1  0  0  0  0
 28 31  1  0  0  0  0
 28 27  1  0  0  0  0
 29 34  1  0  0  0  0
 29 28  1  0  0  0  0
 29 27  1  0  0  0  0
 32 28  1  0  0  0  0
 33 29  1  0  0  0  0
M  END
>  <minimizedAffinity>
-5.39976645

$$$$

 OpenBabel03252505203D

 34 37  0  0  0  0  0  0  0  0999 V2000
   37.1200   28.6840   40.0290 C   0  0  0  0  0  0  0  0  0  0  0  0
   36.1350   28.9060   39.0750 C   0  0  0  0  0  0  0  0  0  0  0  0
   36.1370   30.0920   38.3520 C   0  0  0  0  0  0  0  0  0  0  0  0
   37.1430   31.0160   38.6230 C   0  0  0  0  0  0  0  0  0  0  0  0
   38.1000   30.7310   39.5930 C   0  0  0  0  0  0  0  0  0  0  0  0
   38.0900   29.5640   40.2950 N   0  0  0  0  0  0  0  0  0  0  0  0
   35.3420   28.1920   38.8520 H   0  0  0  0  0  0  0  0  0  0  0  0
   35.3780   30.2900   37.6020 H   0  0  0  0  0  0  0  0  0  0  0  0
   37.1300   31.9320   38.0540 H   0  0  0  0  0  0  0  0  0  0  0  0
   39.1220   31.6840   39.8590 N   0  0  0  0  0  0  0  0  0  0  0  0
   40.2220   31.8850   38.9650 C   0  0  0  0  0  3  0  0  0  0  0  0
   39.9680   31.8270   37.8920 H   0  0  0  0  0  0  0  0  0  0  0  0
   40.7490   33.2910   39.2450 C   0  0  0  0  0  3  0  0  0  0  0  0
   41.3200   33.6010   38.3540 H   0  0  0  0  0  0  0  0  0  0  0  0
   39.5740   34.1610   39.3490 N   0  0  0  0  0  0  0  0  0  0  0  0
   39.8460   35.1680   39.3120 H   0  0  0  0  0  0  0  0  0  0  0  0
   38.9120   33.9260   40.6370 C   0  0  0  0  0  2  0  0  0  0  0  0
   39.0860   32.4910   41.0550 C   0  0  0  0  0  2  0  0  0  0  0  0
   37.1380   26.1590   42.7330 C   0  0  0  0  0  0  0  0  0  0  0  0
   36.9700   24.9540   42.0500 C   0  0  0  0  0  0  0  0  0  0  0  0
   36.8470   25.0440   40.6800 C   0  0  0  0  0  0  0  0  0  0  0  0
   36.8910   26.2690   40.0400 N   0  0  0  0  0  0  0  0  0  0  0  0
   37.0590   27.4190   40.7690 C   0  0  0  0  0  0  0  0  0  0  0  0
   37.1800   27.3550   42.0980 N   0  0  0  0  0  0  0  0  0  0  0  0
   37.2340   26.0960   43.8060 H   0  0  0  0  0  0  0  0  0  0  0  0
   36.9320   23.9960   42.5130 H   0  0  0  0  0  0  0  0  0  0  0  0
   36.6950   23.8090   39.8370 C   0  0  0  0  0  0  0  0  0  0  0  0
   35.2350   23.4030   39.6380 C   0  0  0  0  0  0  0  0  0  0  0  0
   36.1760   23.9220   38.5020 C   0  0  0  0  0  0  0  0  0  0  0  0
   37.3570   23.0000   40.2000 H   0  0  0  0  0  0  0  0  0  0  0  0
   35.0610   22.3190   39.6240 H   0  0  0  0  0  0  0  0  0  0  0  0
   34.4470   24.0940   39.9770 H   0  0  0  0  0  0  0  0  0  0  0  0
   35.9490   24.9410   38.1080 H   0  0  0  0  0  0  0  0  0  0  0  0
   36.4570   23.1650   37.7490 H   0  0  0  0  0  0  0  0  0  0  0  0
  1  6  1  0  0  0  0
  1 23  1  0  0  0  0
  2  1  2  0  0  0  0
  3  4  2  0  0  0  0
  3  2  1  0  0  0  0
  4  5  1  0  0  0  0
  5 10  1  0  0  0  0
  5  6  2  0  0  0  0
  7  2  1  0  0  0  0
  8  3  1  0  0  0  0
  9  4  1  0  0  0  0
 10 18  1  0  0  0  0
 11 13  1  0  0  0  0
 11 10  1  0  0  0  0
 12 11  1  0  0  0  0
 13 15  1  0  0  0  0
 14 13  1  0  0  0  0
 15 17  1  0  0  0  0
 16 15  1  0  0  0  0
 17 18  1  0  0  0  0
 19 25  1  0  0  0  0
 20 26  1  0  0  0  0
 20 19  2  0  0  0  0
 21 20  1  0  0  0  0
 22 21  2  0  0  0  0
 22 23  1  0  0  0  0
 23 24  2  0  0  0  0
 24 19  1  0  0  0  0
 27 30  1  0  0  0  0
 27 21  1  0  0  0  0
 28 27  1  0  0  0  0
 28 32  1  0  0  0  0
 29 28  1  0  0  0  0
 29 27  1  0  0  0  0
 31 28  1  0  0  0  0
 33 29  1  0  0  0  0
 34 29  1  0  0  0  0
M  END
>  <minimizedAffinity>
-5.37828541

$$$$

 OpenBabel03252505203D

 34 37  0  0  0  0  0  0  0  0999 V2000
   38.4460   28.8230   42.0840 C   0  0  0  0  0  0  0  0  0  0  0  0
   37.6770   28.8610   43.2410 C   0  0  0  0  0  0  0  0  0  0  0  0
   36.9440   27.7420   43.6120 C   0  0  0  0  0  0  0  0  0  0  0  0
   37.0160   26.6170   42.7940 C   0  0  0  0  0  0  0  0  0  0  0  0
   37.8050   26.6460   41.6480 C   0  0  0  0  0  0  0  0  0  0  0  0
   38.5210   27.7490   41.2930 N   0  0  0  0  0  0  0  0  0  0  0  0
   37.6120   29.7340   43.8910 H   0  0  0  0  0  0  0  0  0  0  0  0
   36.3350   27.7470   44.5120 H   0  0  0  0  0  0  0  0  0  0  0  0
   36.4390   25.7570   43.0970 H   0  0  0  0  0  0  0  0  0  0  0  0
   37.8690   25.4900   40.8220 N   0  0  0  0  0  0  0  0  0  0  0  0
   38.6200   24.3300   41.1980 C   0  0  0  0  0  3  0  0  0  0  0  0
   38.5840   24.0790   42.2730 H   0  0  0  0  0  0  0  0  0  0  0  0
   38.0150   23.1600   40.4250 C   0  0  0  0  0  3  0  0  0  0  0  0
   38.3080   22.2400   40.9590 H   0  0  0  0  0  0  0  0  0  0  0  0
   36.5600   23.2970   40.5360 N   0  0  0  0  0  0  0  0  0  0  0  0
   36.0740   22.4230   40.2350 H   0  0  0  0  0  0  0  0  0  0  0  0
   36.1100   24.3820   39.6580 C   0  0  0  0  0  2  0  0  0  0  0  0
   37.1710   25.4440   39.5590 C   0  0  0  0  0  2  0  0  0  0  0  0
   40.9710   31.5250   41.9910 C   0  0  0  0  0  0  0  0  0  0  0  0
   40.4780   32.3930   41.0170 C   0  0  0  0  0  0  0  0  0  0  0  0
   39.2960   32.0210   40.4130 C   0  0  0  0  0  0  0  0  0  0  0  0
   38.6520   30.8510   40.7690 N   0  0  0  0  0  0  0  0  0  0  0  0
   39.1880   30.0390   41.7360 C   0  0  0  0  0  0  0  0  0  0  0  0
   40.3340   30.3800   42.3340 N   0  0  0  0  0  0  0  0  0  0  0  0
   41.8970   31.8100   42.4670 H   0  0  0  0  0  0  0  0  0  0  0  0
   40.9490   33.3020   40.7200 H   0  0  0  0  0  0  0  0  0  0  0  0
   38.6530   32.8950   39.3720 C   0  0  0  0  0  0  0  0  0  0  0  0
   37.3670   32.2950   38.8050 C   0  0  0  0  0  0  0  0  0  0  0  0
   37.4330   33.5870   39.6830 C   0  0  0  0  0  0  0  0  0  0  0  0
   39.3930   33.2130   38.6130 H   0  0  0  0  0  0  0  0  0  0  0  0
   37.2120   32.4810   37.7340 H   0  0  0  0  0  0  0  0  0  0  0  0
   36.9520   31.3950   39.2860 H   0  0  0  0  0  0  0  0  0  0  0  0
   37.0220   33.4960   40.7170 H   0  0  0  0  0  0  0  0  0  0  0  0
   37.1940   34.5240   39.1500 H   0  0  0  0  0  0  0  0  0  0  0  0
  1  2  1  0  0  0  0
  2  3  2  0  0  0  0
  2  7  1  0  0  0  0
  3  8  1  0  0  0  0
  4  9  1  0  0  0  0
  4  3  1  0  0  0  0
  5  4  2  0  0  0  0
  6  5  1  0  0  0  0
  6  1  2  0  0  0  0
 10 11  1  0  0  0  0
 10  5  1  0  0  0  0
 11 12  1  0  0  0  0
 13 15  1  0  0  0  0
 13 14  1  0  0  0  0
 13 11  1  0  0  0  0
 16 15  1  0  0  0  0
 17 15  1  0  0  0  0
 18 17  1  0  0  0  0
 18 10  1  0  0  0  0
 19 24  1  0  0  0  0
 19 25  1  0  0  0  0
 20 19  2  0  0  0  0
 21 22  2  0  0  0  0
 21 20  1  0  0  0  0
 22 23  1  0  0  0  0
 23  1  1  0  0  0  0
 23 24  2  0  0  0  0
 26 20  1  0  0  0  0
 27 29  1  0  0  0  0
 27 21  1  0  0  0  0
 28 32  1  0  0  0  0
 28 27  1  0  0  0  0
 28 29  1  0  0  0  0
 29 33  1  0  0  0  0
 30 27  1  0  0  0  0
 31 28  1  0  0  0  0
 34 29  1  0  0  0  0
M  END
>  <minimizedAffinity>
-5.36091518

$$$$

 OpenBabel03252505203D

 34 37  0  0  0  0  0  0  0  0999 V2000
   36.2580   28.2560   40.1870 C   0  0  0  0  0  0  0  0  0  0  0  0
   35.0870   28.9690   40.4110 C   0  0  0  0  0  0  0  0  0  0  0  0
   34.2370   29.2390   39.3460 C   0  0  0  0  0  0  0  0  0  0  0  0
   34.6050   28.7730   38.0870 C   0  0  0  0  0  0  0  0  0  0  0  0
   35.7920   28.0650   37.9320 C   0  0  0  0  0  0  0  0  0  0  0  0
   36.6190   27.8050   38.9820 N   0  0  0  0  0  0  0  0  0  0  0  0
   34.7860   29.3390   41.3910 H   0  0  0  0  0  0  0  0  0  0  0  0
   33.3150   29.7950   39.4950 H   0  0  0  0  0  0  0  0  0  0  0  0
   33.9330   28.9920   37.2710 H   0  0  0  0  0  0  0  0  0  0  0  0
   36.1550   27.5960   36.6390 N   0  0  0  0  0  0  0  0  0  0  0  0
   35.5130   26.4680   36.0340 C   0  0  0  0  0  3  0  0  0  0  0  0
   34.4270   26.3950   36.2200 H   0  0  0  0  0  0  0  0  0  0  0  0
   35.7200   26.6160   34.5280 C   0  0  0  0  0  3  0  0  0  0  0  0
   34.9470   26.0000   34.0380 H   0  0  0  0  0  0  0  0  0  0  0  0
   35.4450   28.0190   34.2070 N   0  0  0  0  0  0  0  0  0  0  0  0
   35.3400   28.1570   33.1770 H   0  0  0  0  0  0  0  0  0  0  0  0
   36.5710   28.8460   34.6540 C   0  0  0  0  0  2  0  0  0  0  0  0
   37.1990   28.2470   35.8820 C   0  0  0  0  0  2  0  0  0  0  0  0
   37.9480   28.5410   43.4660 C   0  0  0  0  0  0  0  0  0  0  0  0
   38.8420   27.4700   43.4620 C   0  0  0  0  0  0  0  0  0  0  0  0
   38.8320   26.6750   42.3360 C   0  0  0  0  0  0  0  0  0  0  0  0
   37.9790   26.9420   41.2820 N   0  0  0  0  0  0  0  0  0  0  0  0
   37.1230   28.0120   41.3470 C   0  0  0  0  0  0  0  0  0  0  0  0
   37.1140   28.7960   42.4290 N   0  0  0  0  0  0  0  0  0  0  0  0
   37.9490   29.1670   44.3450 H   0  0  0  0  0  0  0  0  0  0  0  0
   39.5120   27.2370   44.2570 H   0  0  0  0  0  0  0  0  0  0  0  0
   39.7750   25.5110   42.2060 C   0  0  0  0  0  0  0  0  0  0  0  0
   40.7870   25.4360   43.3500 C   0  0  0  0  0  0  0  0  0  0  0  0
   39.6480   24.3930   43.1010 C   0  0  0  0  0  0  0  0  0  0  0  0
   40.2160   25.4730   41.1920 H   0  0  0  0  0  0  0  0  0  0  0  0
   41.7870   25.0970   43.0520 H   0  0  0  0  0  0  0  0  0  0  0  0
   40.6550   26.1100   44.2120 H   0  0  0  0  0  0  0  0  0  0  0  0
   38.8100   24.3990   43.8380 H   0  0  0  0  0  0  0  0  0  0  0  0
   39.9940   23.3980   42.7710 H   0  0  0  0  0  0  0  0  0  0  0  0
  1  2  1  0  0  0  0
  1 23  1  0  0  0  0
  2  7  1  0  0  0  0
  3  8  1  0  0  0  0
  3  2  2  0  0  0  0
  4  3  1  0  0  0  0
  5  4  2  0  0  0  0
  5  6  1  0  0  0  0
  6  1  2  0  0  0  0
  9  4  1  0  0  0  0
 10  5  1  0  0  0  0
 11 12  1  0  0  0  0
 11 10  1  0  0  0  0
 13 11  1  0  0  0  0
 14 13  1  0  0  0  0
 15 13  1  0  0  0  0
 15 17  1  0  0  0  0
 16 15  1  0  0  0  0
 17 18  1  0  0  0  0
 18 10  1  0  0  0  0
 19 25  1  0  0  0  0
 20 19  1  0  0  0  0
 20 26  1  0  0  0  0
 21 20  2  0  0  0  0
 22 23  2  0  0  0  0
 22 21  1  0  0  0  0
 23 24  1  0  0  0  0
 24 19  2  0  0  0  0
 27 21  1  0  0  0  0
 27 29  1  0  0  0  0
 27 28  1  0  0  0  0
 28 32  1  0  0  0  0
 29 28  1  0  0  0  0
 29 33  1  0  0  0  0
 30 27  1  0  0  0  0
 31 28  1  0  0  0  0
 34 29  1  0  0  0  0
M  END
>  <minimizedAffinity>
-5.17723083

$$$$

 OpenBabel03252505203D

 34 37  0  0  0  0  0  0  0  0999 V2000
   36.8770   28.8440   39.8800 C   0  0  0  0  0  0  0  0  0  0  0  0
   35.8900   29.5130   40.5920 C   0  0  0  0  0  0  0  0  0  0  0  0
   36.1110   30.8210   41.0020 C   0  0  0  0  0  0  0  0  0  0  0  0
   37.3300   31.4080   40.6740 C   0  0  0  0  0  0  0  0  0  0  0  0
   38.2770   30.6810   39.9580 C   0  0  0  0  0  0  0  0  0  0  0  0
   38.0500   29.3980   39.5600 N   0  0  0  0  0  0  0  0  0  0  0  0
   34.9310   29.0670   40.8550 H   0  0  0  0  0  0  0  0  0  0  0  0
   35.3550   31.3660   41.5600 H   0  0  0  0  0  0  0  0  0  0  0  0
   37.4860   32.4250   41.0000 H   0  0  0  0  0  0  0  0  0  0  0  0
   39.5180   31.2930   39.6300 N   0  0  0  0  0  0  0  0  0  0  0  0
   39.6270   32.2760   38.5950 C   0  0  0  0  0  3  0  0  0  0  0  0
   38.7790   32.9800   38.5280 H   0  0  0  0  0  0  0  0  0  0  0  0
   40.8840   33.0870   38.9080 C   0  0  0  0  0  3  0  0  0  0  0  0
   40.7860   34.0460   38.3710 H   0  0  0  0  0  0  0  0  0  0  0  0
   40.8460   33.3730   40.3450 N   0  0  0  0  0  0  0  0  0  0  0  0
   41.5400   34.1090   40.6010 H   0  0  0  0  0  0  0  0  0  0  0  0
   41.1940   32.1560   41.0870 C   0  0  0  0  0  2  0  0  0  0  0  0
   40.7260   30.9390   40.3360 C   0  0  0  0  0  2  0  0  0  0  0  0
   35.8580   25.8460   37.9650 C   0  0  0  0  0  0  0  0  0  0  0  0
   36.0500   24.8040   38.8730 C   0  0  0  0  0  0  0  0  0  0  0  0
   36.5320   25.1600   40.1140 C   0  0  0  0  0  0  0  0  0  0  0  0
   36.8030   26.4800   40.4220 N   0  0  0  0  0  0  0  0  0  0  0  0
   36.5920   27.4600   39.4840 C   0  0  0  0  0  0  0  0  0  0  0  0
   36.1260   27.1370   38.2750 N   0  0  0  0  0  0  0  0  0  0  0  0
   35.4820   25.5740   36.9910 H   0  0  0  0  0  0  0  0  0  0  0  0
   35.8520   23.7770   38.6670 H   0  0  0  0  0  0  0  0  0  0  0  0
   36.7470   24.1250   41.1830 C   0  0  0  0  0  0  0  0  0  0  0  0
   38.0010   23.2820   40.9510 C   0  0  0  0  0  0  0  0  0  0  0  0
   37.8160   24.2950   42.1290 C   0  0  0  0  0  0  0  0  0  0  0  0
   35.8220   23.5430   41.3600 H   0  0  0  0  0  0  0  0  0  0  0  0
   37.9010   22.2280   41.2380 H   0  0  0  0  0  0  0  0  0  0  0  0
   38.6940   23.5840   40.1490 H   0  0  0  0  0  0  0  0  0  0  0  0
   38.4280   25.2260   42.0730 H   0  0  0  0  0  0  0  0  0  0  0  0
   37.7290   23.8330   43.1280 H   0  0  0  0  0  0  0  0  0  0  0  0
  1  2  1  0  0  0  0
  2  7  1  0  0  0  0
  2  3  2  0  0  0  0
  3  8  1  0  0  0  0
  4  9  1  0  0  0  0
  4  3  1  0  0  0  0
  5  4  2  0  0  0  0
  6  1  2  0  0  0  0
  6  5  1  0  0  0  0
 10  5  1  0  0  0  0
 10 18  1  0  0  0  0
 11 13  1  0  0  0  0
 11 10  1  0  0  0  0
 12 11  1  0  0  0  0
 13 15  1  0  0  0  0
 14 13  1  0  0  0  0
 15 16  1  0  0  0  0
 15 17  1  0  0  0  0
 18 17  1  0  0  0  0
 19 24  2  0  0  0  0
 19 20  1  0  0  0  0
 20 21  2  0  0  0  0
 21 22  1  0  0  0  0
 21 27  1  0  0  0  0
 23  1  1  0  0  0  0
 23 22  2  0  0  0  0
 24 23  1  0  0  0  0
 25 19  1  0  0  0  0
 26 20  1  0  0  0  0
 27 30  1  0  0  0  0
 27 29  1  0  0  0  0
 28 27  1  0  0  0  0
 28 31  1  0  0  0  0
 28 29  1  0  0  0  0
 29 34  1  0  0  0  0
 32 28  1  0  0  0  0
 33 29  1  0  0  0  0
M  END
>  <minimizedAffinity>
-5.08302259

$$$$
