
     RDKit          3D

 50 53  0  0  0  0  0  0  0  0999 V2000
   45.1331   36.0174   42.9164 C   0  0  0  0  0  0  0  0  0  0  0  0
   45.3717   34.6516   42.9098 C   0  0  0  0  0  0  0  0  0  0  0  0
   45.2133   33.9189   44.0607 C   0  0  0  0  0  0  0  0  0  0  0  0
   44.8114   34.6080   45.1883 N   0  0  0  0  0  0  0  0  0  0  0  0
   44.5837   35.9207   45.1858 C   0  0  0  0  0  0  0  0  0  0  0  0
   44.7494   36.6125   44.0413 N   0  0  0  0  0  0  0  0  0  0  0  0
   45.4173   32.5293   44.2197 C   0  0  0  0  0  0  0  0  0  0  0  0
   44.9396   31.5607   43.3327 C   0  0  0  0  0  0  0  0  0  0  0  0
   45.0793   30.2097   43.5187 C   0  0  0  0  0  0  0  0  0  0  0  0
   45.7232   29.7403   44.6355 C   0  0  0  0  0  0  0  0  0  0  0  0
   46.2217   30.7116   45.5561 C   0  0  0  0  0  0  0  0  0  0  0  0
   46.8649   30.2496   46.6747 C   0  0  0  0  0  0  0  0  0  0  0  0
   47.3720   31.1346   47.6025 C   0  0  0  0  0  0  0  0  0  0  0  0
   47.2243   32.5132   47.3894 C   0  0  0  0  0  0  0  0  0  0  0  0
   46.5560   32.9367   46.2269 C   0  0  0  0  0  0  0  0  0  0  0  0
   46.0599   32.0353   45.3257 C   0  0  0  0  0  0  0  0  0  0  0  0
   45.7604   34.0896   41.7239 O   0  0  0  0  0  0  0  0  0  0  0  0
   47.6830   32.4287   41.0895 O   0  0  0  0  0  0  0  0  0  0  0  0
   47.3690   33.8735   41.2420 P   0  0  1  0  0  0  0  0  0  0  0  0
   47.6523   34.6048   39.7416 O   0  0  0  0  0  0  0  0  0  0  0  0
   48.3614   34.5951   42.3887 O   0  0  0  0  0  0  0  0  0  0  0  0
   49.5339   35.2937   42.1499 C   0  0  0  0  0  0  0  0  0  0  0  0
   49.2023   36.2143   41.3806 O   0  0  0  0  0  0  0  0  0  0  0  0
   50.6379   34.7003   42.8614 N   0  0  0  0  0  0  0  0  0  0  0  0
   45.2594   36.6105   41.9967 H   0  0  0  0  0  0  0  0  0  0  0  0
   44.2714   36.4631   46.0582 H   0  0  0  0  0  0  0  0  0  0  0  0
   44.4212   31.8903   42.4321 H   0  0  0  0  0  0  0  0  0  0  0  0
   44.6835   29.5027   42.7872 H   0  0  0  0  0  0  0  0  0  0  0  0
   45.8586   28.6866   44.8303 H   0  0  0  0  0  0  0  0  0  0  0  0
   46.9767   29.1722   46.8323 H   0  0  0  0  0  0  0  0  0  0  0  0
   47.8680   30.7109   48.4652 H   0  0  0  0  0  0  0  0  0  0  0  0
   47.6523   33.1307   48.1644 H   0  0  0  0  0  0  0  0  0  0  0  0
   46.5657   34.0055   46.2340 H   0  0  0  0  0  0  0  0  0  0  0  0
   51.4641   34.2294   42.4400 H   0  0  0  0  0  0  0  0  0  0  0  0
   50.6154   34.7420   43.9012 H   0  0  0  0  0  0  0  0  0  0  0  0
   49.4528   35.5032   38.1278 H   0  0  0  0  0  0  0  0  0  0  0  0
   49.6480   34.5461   38.4892 N   0  0  0  0  0  0  0  0  0  0  0  0
   48.4254   33.8440   38.9047 C   0  0  1  0  0  0  0  0  0  0  0  0
   48.8814   32.6062   39.6495 C   0  0  1  0  0  0  0  0  0  0  0  0
   48.7354   32.6787   40.7483 H   0  0  0  0  0  0  0  0  0  0  0  0
   50.3258   32.3754   39.4905 N   0  0  0  0  0  0  0  0  0  0  0  0
   50.7680   33.2695   39.8602 H   0  0  0  0  0  0  0  0  0  0  0  0
   50.5719   32.3626   38.0597 C   0  0  0  0  0  0  0  0  0  0  0  0
   50.2004   33.6922   37.4267 C   0  0  0  0  0  0  0  0  0  0  0  0
   47.9308   33.5716   37.9528 H   0  0  0  0  0  0  0  0  0  0  0  0
   48.3566   31.6820   39.3016 H   0  0  0  0  0  0  0  0  0  0  0  0
   51.6216   32.0784   37.8260 H   0  0  0  0  0  0  0  0  0  0  0  0
   49.9426   31.5183   37.6530 H   0  0  0  0  0  0  0  0  0  0  0  0
   51.0433   34.1851   36.9167 H   0  0  0  0  0  0  0  0  0  0  0  0
   49.3409   33.5031   36.7371 H   0  0  0  0  0  0  0  0  0  0  0  0
  1  6  2  0
  2  1  1  0
  2  3  2  0
  3  7  1  0
  3  4  1  0
  5  4  2  0
  6  5  1  0
  7 16  2  0
  8  9  2  0
  8  7  1  0
  9 10  1  0
 10 11  2  0
 11 12  1  0
 12 13  2  0
 14 13  1  0
 15 14  2  0
 16 11  1  0
 16 15  1  0
 17  2  1  0
 19 18  2  0
 19 17  1  1
 19 21  1  0
 20 19  1  0
 22 21  1  0
 22 24  1  0
 23 22  2  0
  1 25  1  0
  5 26  1  0
  8 27  1  0
  9 28  1  0
 10 29  1  0
 12 30  1  0
 13 31  1  0
 14 32  1  0
 15 33  1  0
 24 34  1  0
 24 35  1  0
 36 37  1  0
 37 38  1  0
 38 39  1  0
 39 40  1  1
 39 41  1  0
 41 42  1  0
 41 43  1  0
 43 44  1  0
 44 37  1  0
 38 45  1  6
 39 46  1  0
 43 47  1  0
 43 48  1  0
 44 49  1  0
 44 50  1  0
 20 38  1  0
M  ISO  8  25  14  26  14  27  14  28  14  29  14  30  14  31  14  32  14
M  ISO  4  33  14  36   5  40   8  42   5
M  END
>  <DihAtoms>  (1) 
18,19,37,36

>  <DihDeg>  (1) 
118.30974201022394

$$$$
