
 OpenBabel03252508313D

 32 34  0  0  1  0  0  0  0  0999 V2000
   44.5560   34.3340   41.7190 N   0  0  0  0  0  0  0  0  0  0  0  0
   45.1640   33.3200   40.9330 C   0  0  1  0  0  0  0  0  0  0  0  0
   44.7720   33.3160   39.4920 C   0  0  0  0  0  0  0  0  0  0  0  0
   43.4120   33.5590   39.2440 N   0  0  0  0  0  0  0  0  0  0  0  0
   42.7860   34.5440   40.0440 C   0  0  0  0  0  0  0  0  0  0  0  0
   43.7700   35.2600   40.9540 C   0  0  0  0  0  0  0  0  0  0  0  0
   44.8030   32.3370   41.3430 H   0  0  0  0  0  0  0  0  0  0  0  0
   45.3460   34.1480   38.9890 H   0  0  0  0  0  0  0  0  0  0  0  0
   45.1070   32.3870   39.0100 H   0  0  0  0  0  0  0  0  0  0  0  0
   42.8740   32.6520   39.3400 H   0  0  0  0  0  0  0  0  0  0  0  0
   41.9140   34.1930   40.6450 H   0  0  0  0  0  0  0  0  0  0  0  0
   42.3820   35.3170   39.3500 H   0  0  0  0  0  0  0  0  0  0  0  0
   44.4370   35.8480   40.2540 H   0  0  0  0  0  0  0  0  0  0  0  0
   43.2350   36.0240   41.5140 H   0  0  0  0  0  0  0  0  0  0  0  0
   44.4150   35.5120   43.7950 C   0  0  0  0  0  0  0  0  0  0  0  0
   44.7610   34.3510   43.1100 C   0  0  0  0  0  0  0  0  0  0  0  0
   45.2810   33.3140   43.8610 C   0  0  0  0  0  0  0  0  0  0  0  0
   45.4390   33.4390   45.2020 N   0  0  0  0  0  0  0  0  0  0  0  0
   45.0870   34.5930   45.8350 C   0  0  0  0  0  0  0  0  0  0  0  0
   44.5810   35.6140   45.1320 N   0  0  0  0  0  0  0  0  0  0  0  0
   43.9960   36.4240   43.3970 H   0  0  0  0  0  0  0  0  0  0  0  0
   45.5570   32.4020   43.3570 H   0  0  0  0  0  0  0  0  0  0  0  0
   45.2470   34.6060   46.9040 H   0  0  0  0  0  0  0  0  0  0  0  0
   46.5850   33.2480   40.9470 N   0  0  2  0  0  0  0  0  0  0  0  0
   47.2990   34.4590   40.6870 C   0  0  0  0  0  3  0  0  0  0  0  0
   46.7340   35.3790   40.7280 H   0  0  0  0  0  0  0  0  0  0  0  0
   48.1320   34.2910   39.4330 C   0  0  0  0  0  3  0  0  0  0  0  0
   48.6080   35.2760   39.1870 H   0  0  0  0  0  0  0  0  0  0  0  0
   49.1670   33.2990   39.6570 N   0  0  0  0  0  0  0  0  0  0  0  0
   49.4370   32.9040   38.7210 H   0  0  0  0  0  0  0  0  0  0  0  0
   48.6540   32.1870   40.4220 C   0  0  0  0  0  2  0  0  0  0  0  0
   47.1290   32.1020   40.2670 C   0  0  0  0  0  2  0  0  0  0  0  0
  1 16  1  0  0  0  0
  2 24  1  0  0  0  0
  2  7  1  1  0  0  0
  2  1  1  0  0  0  0
  3  2  1  0  0  0  0
  4 10  1  0  0  0  0
  4  3  1  0  0  0  0
  4  5  1  0  0  0  0
  5 11  1  0  0  0  0
  5  6  1  0  0  0  0
  6 14  1  0  0  0  0
  6  1  1  0  0  0  0
  8  3  1  0  0  0  0
  9  3  1  0  0  0  0
 12  5  1  0  0  0  0
 13  6  1  0  0  0  0
 15 20  1  0  0  0  0
 16 15  2  0  0  0  0
 16 17  1  0  0  0  0
 17 18  2  0  0  0  0
 18 19  1  0  0  0  0
 19 23  1  0  0  0  0
 20 19  2  0  0  0  0
 21 15  1  0  0  0  0
 22 17  1  0  0  0  0
 24 32  1  6  0  0  0
 25 26  1  0  0  0  0
 25 24  1  0  0  0  0
 27 29  1  0  0  0  0
 27 25  1  0  0  0  0
 28 27  1  0  0  0  0
 29 31  1  0  0  0  0
 30 29  1  0  0  0  0
 32 31  1  0  0  0  0
M  END
>  <minimizedAffinity>
-4.46829367

>  <minimizedRMSD>
1.18888402

$$$$
