REMARK  Name = 
REMARK  2 active torsions:
REMARK  status: ('A' for Active; 'I' for Inactive)
REMARK    1  A    between atoms: C_2  and  N_7
REMARK    2  A    between atoms: C_8  and  N_24
REMARK                            x       y       z     vdW  Elec       q    Type
REMARK                         _______ _______ _______ _____ _____    ______ ____
ROOT
ATOM      1  N   UNL     1      44.314  34.369  41.960  0.00  0.00    +0.000 N 
ATOM      2  C   UNL     1      44.373  33.349  40.975  0.00  0.00    +0.000 C 
ATOM      3  C   UNL     1      43.741  33.694  39.667  0.00  0.00    +0.000 C 
ATOM      4  N   UNL     1      42.528  34.396  39.758  0.00  0.00    +0.000 NA
ATOM      5  C   UNL     1      42.445  35.393  40.759  0.00  0.00    +0.000 C 
ATOM      6  C   UNL     1      43.768  35.605  41.474  0.00  0.00    +0.000 C 
ATOM      7  H   UNL     1      43.778  32.482  41.374  0.00  0.00    +0.000 HD
ATOM      8  H   UNL     1      44.462  34.365  39.115  0.00  0.00    +0.000 HD
ATOM      9  H   UNL     1      43.636  32.793  39.046  0.00  0.00    +0.000 HD
ATOM     10  H   UNL     1      41.738  33.706  39.900  0.00  0.00    +0.000 HD
ATOM     11  H   UNL     1      41.635  35.251  41.513  0.00  0.00    +0.000 HD
ATOM     12  H   UNL     1      42.211  36.352  40.242  0.00  0.00    +0.000 HD
ATOM     13  H   UNL     1      44.454  36.049  40.690  0.00  0.00    +0.000 HD
ATOM     14  H   UNL     1      43.647  36.404  42.203  0.00  0.00    +0.000 HD
ENDROOT
BRANCH   1  16
ATOM     15  C   UNL     1      44.544  35.077  44.232  0.00  0.00    +0.000 A 
ATOM     16  C   UNL     1      44.770  34.104  43.263  0.00  0.00    +0.000 A 
ATOM     17  C   UNL     1      45.428  32.959  43.669  0.00  0.00    +0.000 A 
ATOM     18  N   UNL     1      45.828  32.807  44.956  0.00  0.00    +0.000 NA
ATOM     19  C   UNL     1      45.587  33.784  45.875  0.00  0.00    +0.000 A 
ATOM     20  N   UNL     1      44.952  34.904  45.509  0.00  0.00    +0.000 NA
ATOM     21  H   UNL     1      44.051  36.031  44.120  0.00  0.00    +0.000 HD
ATOM     22  H   UNL     1      45.616  32.187  42.940  0.00  0.00    +0.000 HD
ATOM     23  H   UNL     1      45.940  33.580  46.876  0.00  0.00    +0.000 HD
ENDBRANCH   1  16
BRANCH   2  24
ATOM     24  N   UNL     1      45.657  32.823  40.656  0.00  0.00    +0.000 NA
ATOM     25  C   UNL     1      46.740  33.754  40.590  0.00  0.00    +0.000 C 
ATOM     26  H   UNL     1      46.567  34.737  41.006  0.00  0.00    +0.000 HD
ATOM     27  C   UNL     1      47.312  33.760  39.187  0.00  0.00    +0.000 C 
ATOM     28  H   UNL     1      48.093  34.562  39.123  0.00  0.00    +0.000 HD
ATOM     29  N   UNL     1      47.919  32.475  38.896  0.00  0.00    +0.000 NA
ATOM     30  H   UNL     1      47.921  32.352  37.853  0.00  0.00    +0.000 HD
ATOM     31  C   UNL     1      47.111  31.397  39.418  0.00  0.00    +0.000 C 
ATOM     32  C   UNL     1      45.658  31.863  39.584  0.00  0.00    +0.000 C 
ENDBRANCH   2  24
TORSDOF 2
