REMARK  Name = 
REMARK  2 active torsions:
REMARK  status: ('A' for Active; 'I' for Inactive)
REMARK    1  A    between atoms: C_3  and  C_7
REMARK    2  A    between atoms: C_7  and  N_13
REMARK                            x       y       z     vdW  Elec       q    Type
REMARK                         _______ _______ _______ _____ _____    ______ ____
ROOT
ATOM      1  C   UNL     1      46.956  34.779  41.930  0.00  0.00    +0.000 C 
ATOM      2  H   UNL     1      46.296  35.050  41.082  0.00  0.00    +0.000 HD
ATOM      3  H   UNL     1      47.189  33.693  41.762  0.00  0.00    +0.000 HD
ENDROOT
BRANCH   1   6
ATOM      4  C   UNL     1      44.562  36.008  44.495  0.00  0.00    +0.000 A 
ATOM      5  C   UNL     1      45.305  35.927  43.291  0.00  0.00    +0.000 A 
ATOM      6  C   UNL     1      46.193  34.853  43.179  0.00  0.00    +0.000 A 
ATOM      7  N   UNL     1      46.312  33.955  44.190  0.00  0.00    +0.000 NA
ATOM      8  C   UNL     1      45.566  34.090  45.327  0.00  0.00    +0.000 A 
ATOM      9  N   UNL     1      44.707  35.102  45.471  0.00  0.00    +0.000 NA
ATOM     10  H   UNL     1      43.852  36.805  44.668  0.00  0.00    +0.000 HD
ATOM     11  H   UNL     1      45.156  36.680  42.529  0.00  0.00    +0.000 HD
ATOM     12  H   UNL     1      45.661  33.371  46.139  0.00  0.00    +0.000 HD
ENDBRANCH   1   6
BRANCH   1  13
ATOM     13  N   UNL     1      48.206  35.467  41.939  0.00  0.00    +0.000 NA
ATOM     14  C   UNL     1      48.312  36.217  40.700  0.00  0.00    +0.000 C 
ATOM     15  H   UNL     1      49.261  35.975  40.168  0.00  0.00    +0.000 HD
ATOM     16  C   UNL     1      48.328  37.708  40.944  0.00  0.00    +0.000 C 
ATOM     17  H   UNL     1      47.406  38.072  41.431  0.00  0.00    +0.000 HD
ATOM     18  N   UNL     1      49.507  38.038  41.688  0.00  0.00    +0.000 NA
ATOM     19  H   UNL     1      50.356  37.936  41.098  0.00  0.00    +0.000 HD
ATOM     20  C   UNL     1      49.659  37.154  42.836  0.00  0.00    +0.000 C 
ATOM     21  C   UNL     1      48.382  36.344  43.061  0.00  0.00    +0.000 C 
ENDBRANCH   1  13
TORSDOF 2
