
 OpenBabel03252509283D

 21 22  0  0  0  0  0  0  0  0999 V2000
   45.8730   34.5880   41.7450 C   0  0  0  0  0  0  0  0  0  0  0  0
   44.9440   34.0840   41.4120 H   0  0  0  0  0  0  0  0  0  0  0  0
   45.8090   35.6130   41.2900 H   0  0  0  0  0  0  0  0  0  0  0  0
   48.0170   32.9900   39.1620 C   0  0  0  0  0  0  0  0  0  0  0  0
   46.9060   33.6270   39.7680 C   0  0  0  0  0  0  0  0  0  0  0  0
   47.0280   33.9290   41.1280 C   0  0  0  0  0  0  0  0  0  0  0  0
   48.1650   33.6140   41.8000 N   0  0  0  0  0  0  0  0  0  0  0  0
   49.2020   32.9990   41.1560 C   0  0  0  0  0  0  0  0  0  0  0  0
   49.1230   32.6950   39.8580 N   0  0  0  0  0  0  0  0  0  0  0  0
   48.0110   32.7190   38.1150 H   0  0  0  0  0  0  0  0  0  0  0  0
   46.0340   33.8470   39.1680 H   0  0  0  0  0  0  0  0  0  0  0  0
   50.1140   32.7450   41.6940 H   0  0  0  0  0  0  0  0  0  0  0  0
   45.9620   34.7740   43.1570 N   0  0  0  0  0  0  0  0  0  0  0  0
   45.3250   36.0380   43.4810 C   0  0  0  0  0  3  0  0  0  0  0  0
   46.0090   36.6900   44.0710 H   0  0  0  0  0  0  0  0  0  0  0  0
   44.0870   35.8450   44.3250 C   0  0  0  0  0  3  0  0  0  0  0  0
   43.3120   35.2450   43.8170 H   0  0  0  0  0  0  0  0  0  0  0  0
   44.4750   35.2830   45.5850 N   0  0  0  0  0  0  0  0  0  0  0  0
   44.9860   35.9830   46.1580 H   0  0  0  0  0  0  0  0  0  0  0  0
   45.3590   34.1420   45.3920 C   0  0  0  0  0  2  0  0  0  0  0  0
   45.3700   33.7150   43.9230 C   0  0  0  0  0  2  0  0  0  0  0  0
  1 13  1  0  0  0  0
  2  1  1  0  0  0  0
  3  1  1  0  0  0  0
  4  5  2  0  0  0  0
  4  9  1  0  0  0  0
  5  6  1  0  0  0  0
  6  1  1  0  0  0  0
  6  7  2  0  0  0  0
  8 12  1  0  0  0  0
  8  7  1  0  0  0  0
  9  8  2  0  0  0  0
 10  4  1  0  0  0  0
 11  5  1  0  0  0  0
 13 14  1  0  0  0  0
 13 21  1  0  0  0  0
 14 15  1  0  0  0  0
 14 16  1  0  0  0  0
 16 18  1  0  0  0  0
 17 16  1  0  0  0  0
 18 19  1  0  0  0  0
 20 18  1  0  0  0  0
 21 20  1  0  0  0  0
M  END
>  <minimizedAffinity>
-3.68647051

>  <minimizedRMSD>
5.46294117

$$$$
