
 OpenBabel03242521273D

 35 37  0  0  1  0  0  0  0  0999 V2000
   48.2860   33.6430   42.6110 C   0  0  1  0  0  0  0  0  0  0  0  0
   46.8050   33.7370   42.3350 C   0  0  2  0  0  0  0  0  0  0  0  0
   46.5320   34.5980   41.2880 O   0  0  0  0  0  0  0  0  0  0  0  0
   46.9730   33.9700   40.1380 C   0  0  0  0  0  0  0  0  0  0  0  0
   48.4830   34.0060   40.1300 C   0  0  2  0  0  0  0  0  0  0  0  0
   49.1280   33.5260   41.3880 C   0  0  2  0  0  0  0  0  0  0  0  0
   48.4270   32.7050   43.2290 H   0  0  0  0  0  0  0  0  0  0  0  0
   46.4920   32.6850   42.1070 H   0  0  0  0  0  0  0  0  0  0  0  0
   46.6590   32.9180   40.0910 H   0  0  0  0  0  0  0  0  0  0  0  0
   46.6390   34.4810   39.2170 H   0  0  0  0  0  0  0  0  0  0  0  0
   48.7820   33.4560   39.2280 H   0  0  0  0  0  0  0  0  0  0  0  0
   50.0320   34.1750   41.5530 H   0  0  0  0  0  0  0  0  0  0  0  0
   44.5920   35.7410   44.6600 C   0  0  0  0  0  0  0  0  0  0  0  0
   45.2590   35.3570   43.4870 C   0  0  0  0  0  0  0  0  0  0  0  0
   46.0700   34.1870   43.5380 C   0  0  0  0  0  0  0  0  0  0  0  0
   46.1650   33.5000   44.6970 N   0  0  0  0  0  0  0  0  0  0  0  0
   45.4920   33.9180   45.8160 C   0  0  0  0  0  0  0  0  0  0  0  0
   44.7160   35.0290   45.7860 N   0  0  0  0  0  0  0  0  0  0  0  0
   43.9690   36.6240   44.6480 H   0  0  0  0  0  0  0  0  0  0  0  0
   45.1800   35.9090   42.5580 H   0  0  0  0  0  0  0  0  0  0  0  0
   45.5640   33.3780   46.7410 H   0  0  0  0  0  0  0  0  0  0  0  0
   48.7140   34.6610   43.4730 O   0  0  0  0  0  0  0  0  0  0  0  0
   49.3460   34.3550   44.1440 H   0  0  0  0  0  0  0  0  0  0  0  0
   48.8290   35.3390   39.8530 O   0  0  0  0  0  0  0  0  0  0  0  0
   49.5410   35.4190   39.1740 H   0  0  0  0  0  0  0  0  0  0  0  0
   49.6730   32.2410   41.2780 O   0  0  0  0  0  0  0  0  0  0  0  0
   51.8000   33.3350   40.7240 H   0  0  0  0  0  0  0  0  0  0  0  0
   51.9280   32.3880   41.1390 N   0  0  0  0  0  0  0  0  0  0  0  0
   50.8010   31.9930   41.9860 C   0  0  2  0  0  0  0  0  0  0  0  0
   50.9070   30.4700   42.1100 C   0  0  0  0  0  0  0  0  0  0  0  0
   50.2540   29.9490   41.3660 H   0  0  0  0  0  0  0  0  0  0  0  0
   52.2560   30.0210   41.8200 N   0  0  0  0  0  0  0  0  0  0  0  0
   52.9640   30.5070   42.4230 H   0  0  0  0  0  0  0  0  0  0  0  0
   52.5800   30.2100   40.4190 C   0  0  0  0  0  0  0  0  0  0  0  0
   51.8800   31.4820   39.9880 C   0  0  0  0  0  0  0  0  0  0  0  0
  1  7  1  1  0  0  0
  1 22  1  0  0  0  0
  2  8  1  6  0  0  0
  2  1  1  0  0  0  0
  2 15  1  0  0  0  0
  3  2  1  0  0  0  0
  4  3  1  0  0  0  0
  5 11  1  6  0  0  0
  5  4  1  0  0  0  0
  5  6  1  0  0  0  0
  6 12  1  1  0  0  0
  6  1  1  0  0  0  0
  9  4  1  0  0  0  0
 10  4  1  0  0  0  0
 13 18  1  0  0  0  0
 14 15  1  0  0  0  0
 14 13  2  0  0  0  0
 15 16  2  0  0  0  0
 16 17  1  0  0  0  0
 17 21  1  0  0  0  0
 18 17  2  0  0  0  0
 19 13  1  0  0  0  0
 20 14  1  0  0  0  0
 22 23  1  0  0  0  0
 24  5  1  0  0  0  0
 25 24  1  0  0  0  0
 26  6  1  0  0  0  0
 27 28  1  0  0  0  0
 28 29  1  0  0  0  0
 29 26  1  6  0  0  0
 29 30  1  0  0  0  0
 31 30  1  0  0  0  0
 32 30  1  0  0  0  0
 32 33  1  0  0  0  0
 34 32  1  0  0  0  0
 35 34  1  0  0  0  0
 35 28  1  0  0  0  0
M  END
>  <minimizedAffinity>
-5.79190493

>  <minimizedRMSD>
0.642277181

$$$$
