
 OpenBabel03252501533D

 21 22  0  0  0  0  0  0  0  0999 V2000
   44.7000   35.2430   45.0600 C   0  0  0  0  0  0  0  0  0  0  0  0
   45.4090   35.2010   43.8690 C   0  0  0  0  0  0  0  0  0  0  0  0
   46.4180   34.2580   43.7310 C   0  0  0  0  0  0  0  0  0  0  0  0
   46.6640   33.4160   44.7750 N   0  0  0  0  0  0  0  0  0  0  0  0
   45.9470   33.4930   45.9160 C   0  0  0  0  0  0  0  0  0  0  0  0
   44.9580   34.3980   46.0870 N   0  0  0  0  0  0  0  0  0  0  0  0
   43.9000   35.9460   45.2490 H   0  0  0  0  0  0  0  0  0  0  0  0
   46.2470   32.7670   46.6610 H   0  0  0  0  0  0  0  0  0  0  0  0
   47.1500   34.2150   42.5010 N   0  0  0  0  0  0  0  0  0  0  0  0
   46.8110   33.4470   41.3110 C   0  0  0  0  0  0  0  0  0  0  0  0
   45.7650   33.1430   41.2950 H   0  0  0  0  0  0  0  0  0  0  0  0
   47.2650   34.1670   40.0820 C   0  0  0  0  0  0  0  0  0  0  0  0
   47.1590   33.4960   39.2030 H   0  0  0  0  0  0  0  0  0  0  0  0
   48.6960   34.4240   40.2140 N   0  0  0  0  0  0  0  0  0  0  0  0
   49.1580   33.5650   40.5780 H   0  0  0  0  0  0  0  0  0  0  0  0
   48.8150   35.4880   41.1900 C   0  0  0  0  0  0  0  0  0  0  0  0
   48.3300   35.0540   42.5390 C   0  0  0  0  0  0  0  0  0  0  0  0
   45.0400   36.1710   42.8210 C   0  0  0  0  0  0  0  0  0  0  0  0
   45.8130   36.3350   42.0600 H   0  0  0  0  0  0  0  0  0  0  0  0
   44.0760   35.7850   42.3780 H   0  0  0  0  0  0  0  0  0  0  0  0
   44.7670   37.1620   43.2860 H   0  0  0  0  0  0  0  0  0  0  0  0
  1  7  1  0  0  0  0
  1  6  1  0  0  0  0
  2  1  2  0  0  0  0
  3  2  1  0  0  0  0
  3  4  2  0  0  0  0
  4  5  1  0  0  0  0
  5  6  2  0  0  0  0
  5  8  1  0  0  0  0
  9 17  1  0  0  0  0
  9  3  1  0  0  0  0
 10  9  1  0  0  0  0
 11 10  1  0  0  0  0
 12 14  1  0  0  0  0
 12 10  1  0  0  0  0
 13 12  1  0  0  0  0
 14 15  1  0  0  0  0
 14 16  1  0  0  0  0
 16 17  1  0  0  0  0
 18 21  1  0  0  0  0
 18  2  1  0  0  0  0
 19 18  1  0  0  0  0
 20 18  1  0  0  0  0
M  END
>  <minimizedAffinity>
-4.35597897

>  <minimizedRMSD>
2.01395392

$$$$
