
 OpenBabel03252509283D

 21 22  0  0  0  0  0  0  0  0999 V2000
   46.3710   34.3160   41.5690 C   0  0  0  0  0  0  0  0  0  0  0  0
   46.0260   35.0430   40.8060 H   0  0  0  0  0  0  0  0  0  0  0  0
   45.8900   33.3470   41.2640 H   0  0  0  0  0  0  0  0  0  0  0  0
   44.7270   36.3240   44.2310 C   0  0  0  0  0  0  0  0  0  0  0  0
   45.2830   35.9680   42.9770 C   0  0  0  0  0  0  0  0  0  0  0  0
   45.7980   34.6730   42.8700 C   0  0  0  0  0  0  0  0  0  0  0  0
   45.7520   33.8280   43.9310 N   0  0  0  0  0  0  0  0  0  0  0  0
   45.2020   34.2330   45.1150 C   0  0  0  0  0  0  0  0  0  0  0  0
   44.7000   35.4620   45.2560 N   0  0  0  0  0  0  0  0  0  0  0  0
   44.3060   37.3050   44.4050 H   0  0  0  0  0  0  0  0  0  0  0  0
   45.2840   36.6960   42.1770 H   0  0  0  0  0  0  0  0  0  0  0  0
   45.1650   33.5560   45.9670 H   0  0  0  0  0  0  0  0  0  0  0  0
   47.7800   34.0900   41.5650 N   0  0  0  0  0  0  0  0  0  0  0  0
   48.4160   35.2490   40.9650 C   0  0  0  0  0  3  0  0  0  0  0  0
   49.0870   34.9460   40.1270 H   0  0  0  0  0  0  0  0  0  0  0  0
   49.2810   35.9930   41.9550 C   0  0  0  0  0  3  0  0  0  0  0  0
   48.7090   36.3840   42.8150 H   0  0  0  0  0  0  0  0  0  0  0  0
   50.3570   35.1370   42.3580 N   0  0  0  0  0  0  0  0  0  0  0  0
   51.0340   35.0050   41.5810 H   0  0  0  0  0  0  0  0  0  0  0  0
   49.8580   33.8210   42.7370 C   0  0  0  0  0  2  0  0  0  0  0  0
   48.3340   33.8440   42.8660 C   0  0  0  0  0  2  0  0  0  0  0  0
  1  6  1  0  0  0  0
  2  1  1  0  0  0  0
  3  1  1  0  0  0  0
  4 10  1  0  0  0  0
  4  9  1  0  0  0  0
  5  4  2  0  0  0  0
  6  5  1  0  0  0  0
  6  7  2  0  0  0  0
  7  8  1  0  0  0  0
  8  9  2  0  0  0  0
  8 12  1  0  0  0  0
 11  5  1  0  0  0  0
 13  1  1  0  0  0  0
 13 21  1  0  0  0  0
 14 13  1  0  0  0  0
 14 16  1  0  0  0  0
 15 14  1  0  0  0  0
 16 18  1  0  0  0  0
 16 17  1  0  0  0  0
 18 20  1  0  0  0  0
 19 18  1  0  0  0  0
 20 21  1  0  0  0  0
M  END
>  <minimizedAffinity>
-4.374331

>  <minimizedRMSD>
1.51519763

$$$$
