REMARK  Name = 
REMARK  2 active torsions:
REMARK  status: ('A' for Active; 'I' for Inactive)
REMARK    1  A    between atoms: C_3  and  C_7
REMARK    2  A    between atoms: C_7  and  N_13
REMARK                            x       y       z     vdW  Elec       q    Type
REMARK                         _______ _______ _______ _____ _____    ______ ____
ROOT
ATOM      1  C   UNL     1      46.956  34.779  41.930  0.00  0.00    +0.000 C 
ATOM      2  H   UNL     1      46.296  35.050  41.082  0.00  0.00    +0.000 HD
ATOM      3  H   UNL     1      47.189  33.693  41.762  0.00  0.00    +0.000 HD
ENDROOT
BRANCH   1   6
ATOM      4  C   UNL     1      44.562  36.008  44.495  0.00  0.00    +0.000 A 
ATOM      5  C   UNL     1      45.305  35.927  43.291  0.00  0.00    +0.000 A 
ATOM      6  C   UNL     1      46.193  34.853  43.179  0.00  0.00    +0.000 A 
ATOM      7  N   UNL     1      46.312  33.955  44.190  0.00  0.00    +0.000 NA
ATOM      8  C   UNL     1      45.566  34.090  45.327  0.00  0.00    +0.000 A 
ATOM      9  N   UNL     1      44.707  35.102  45.471  0.00  0.00    +0.000 NA
ATOM     10  H   UNL     1      43.852  36.805  44.668  0.00  0.00    +0.000 HD
ATOM     11  H   UNL     1      45.156  36.680  42.529  0.00  0.00    +0.000 HD
ATOM     12  H   UNL     1      45.661  33.371  46.139  0.00  0.00    +0.000 HD
ENDBRANCH   1   6
BRANCH   1  13
ATOM     13  N   UNL     1      48.206  35.467  41.939  0.00  0.00    +0.000 NA
ATOM     14  C   UNL     1      48.976  35.008  40.797  0.00  0.00    +0.000 C 
ATOM     15  H   UNL     1      49.983  34.650  41.111  0.00  0.00    +0.000 HD
ATOM     16  C   UNL     1      49.211  36.115  39.795  0.00  0.00    +0.000 C 
ATOM     17  H   UNL     1      48.274  36.521  39.376  0.00  0.00    +0.000 HD
ATOM     18  N   UNL     1      50.017  37.128  40.413  0.00  0.00    +0.000 NA
ATOM     19  H   UNL     1      50.989  36.790  40.551  0.00  0.00    +0.000 HD
ATOM     20  C   UNL     1      49.484  37.487  41.720  0.00  0.00    +0.000 C 
ATOM     21  C   UNL     1      48.086  36.897  41.909  0.00  0.00    +0.000 C 
ENDBRANCH   1  13
TORSDOF 2
