
 OpenBabel03252502433D

 31 33  0  0  1  0  0  0  0  0999 V2000
   48.9710   34.7690   41.5210 C   0  0  1  0  0  0  0  0  0  0  0  0
   50.0740   34.7910   42.5300 C   0  0  0  0  0  0  0  0  0  0  0  0
   49.3490   33.5310   42.2150 C   0  0  2  0  0  0  0  0  0  0  0  0
   49.2160   34.9490   40.4360 H   0  0  0  0  0  0  0  0  0  0  0  0
   51.0710   34.9990   42.0890 H   0  0  0  0  0  0  0  0  0  0  0  0
   49.9940   35.3180   43.4960 H   0  0  0  0  0  0  0  0  0  0  0  0
   48.8070   32.8640   42.8350 H   0  0  0  0  0  0  0  0  0  0  0  0
   50.1300   32.6480   41.3500 N   0  0  2  0  0  0  0  0  0  0  0  0
   49.4610   32.1830   40.2020 C   0  0  0  0  0  0  0  0  0  0  0  0
   49.3300   33.0400   39.4800 H   0  0  0  0  0  0  0  0  0  0  0  0
   50.4400   31.2520   39.5050 C   0  0  0  0  0  0  0  0  0  0  0  0
   51.3310   31.8170   39.1610 H   0  0  0  0  0  0  0  0  0  0  0  0
   50.7540   30.1090   40.2990 N   0  0  0  0  0  0  0  0  0  0  0  0
   50.2240   29.2510   40.0210 H   0  0  0  0  0  0  0  0  0  0  0  0
   50.6430   30.3340   41.7200 C   0  0  0  0  0  0  0  0  0  0  0  0
   51.0080   31.7800   42.0400 C   0  0  0  0  0  0  0  0  0  0  0  0
   47.6740   35.4040   41.9020 C   0  0  0  0  0  0  0  0  0  0  0  0
   47.8930   35.9650   42.8540 H   0  0  0  0  0  0  0  0  0  0  0  0
   47.2980   36.0760   41.1060 H   0  0  0  0  0  0  0  0  0  0  0  0
   46.7110   34.2670   42.1610 C   0  0  0  0  0  0  0  0  0  0  0  0
   46.1050   33.9770   41.3170 H   0  0  0  0  0  0  0  0  0  0  0  0
   47.3410   33.4340   42.6060 H   0  0  0  0  0  0  0  0  0  0  0  0
   44.5040   35.8990   44.7210 C   0  0  0  0  0  0  0  0  0  0  0  0
   45.1660   35.6440   43.4890 C   0  0  0  0  0  0  0  0  0  0  0  0
   45.9660   34.5350   43.4240 C   0  0  0  0  0  0  0  0  0  0  0  0
   46.0930   33.7350   44.5190 N   0  0  0  0  0  0  0  0  0  0  0  0
   45.4700   33.9880   45.6590 C   0  0  0  0  0  0  0  0  0  0  0  0
   44.6780   35.0590   45.7710 N   0  0  0  0  0  0  0  0  0  0  0  0
   43.8530   36.7340   44.8980 H   0  0  0  0  0  0  0  0  0  0  0  0
   44.9070   36.3940   42.7670 H   0  0  0  0  0  0  0  0  0  0  0  0
   45.6150   33.3110   46.4880 H   0  0  0  0  0  0  0  0  0  0  0  0
  1  4  1  6  0  0  0
  1 17  1  0  0  0  0
  1  3  1  0  0  0  0
  1  2  1  0  0  0  0
  2  6  1  0  0  0  0
  3  2  1  0  0  0  0
  3  7  1  1  0  0  0
  5  2  1  0  0  0  0
  8 16  1  1  0  0  0
  8  3  1  0  0  0  0
  9  8  1  0  0  0  0
 10  9  1  0  0  0  0
 11  9  1  0  0  0  0
 11 13  1  0  0  0  0
 12 11  1  0  0  0  0
 13 15  1  0  0  0  0
 14 13  1  0  0  0  0
 15 16  1  0  0  0  0
 17 20  1  0  0  0  0
 17 18  1  0  0  0  0
 19 17  1  0  0  0  0
 20 22  1  0  0  0  0
 20 25  1  0  0  0  0
 21 20  1  0  0  0  0
 23 29  1  0  0  0  0
 23 28  1  0  0  0  0
 24 23  2  0  0  0  0
 25 24  1  0  0  0  0
 25 26  2  0  0  0  0
 26 27  1  0  0  0  0
 27 28  2  0  0  0  0
 27 31  1  0  0  0  0
 30 24  1  0  0  0  0
M  END
>  <minimizedAffinity>
-4.60523319

>  <minimizedRMSD>
1.4400537

$$$$
