
 OpenBabel03252506233D

 31 33  0  0  0  0  0  0  0  0999 V2000
   37.7580   30.8110   41.1660 C   0  0  0  0  0  0  0  0  0  0  0  0
   36.9290   31.4260   40.2080 C   0  0  0  0  0  0  0  0  0  0  0  0
   37.4350   32.6510   39.9190 C   0  0  0  0  0  0  0  0  0  0  0  0
   38.5280   32.7960   40.6600 N   0  0  0  0  0  0  0  0  0  0  0  0
   38.7250   31.6940   41.4080 N   0  0  0  0  0  0  0  0  0  0  0  0
   36.0570   30.9700   39.8050 H   0  0  0  0  0  0  0  0  0  0  0  0
   37.0250   33.3560   39.2270 H   0  0  0  0  0  0  0  0  0  0  0  0
   37.5830   28.0660   43.5830 C   0  0  0  0  0  0  0  0  0  0  0  0
   37.1780   26.9780   42.8100 C   0  0  0  0  0  0  0  0  0  0  0  0
   36.9660   27.2160   41.4290 C   0  0  0  0  0  0  0  0  0  0  0  0
   37.1670   28.4710   40.9490 N   0  0  0  0  0  0  0  0  0  0  0  0
   37.5600   29.4910   41.7400 C   0  0  0  0  0  0  0  0  0  0  0  0
   37.7670   29.2910   43.0510 N   0  0  0  0  0  0  0  0  0  0  0  0
   37.7570   27.9160   44.6530 H   0  0  0  0  0  0  0  0  0  0  0  0
   37.0360   26.0040   43.2550 H   0  0  0  0  0  0  0  0  0  0  0  0
   36.6540   26.4060   40.7950 H   0  0  0  0  0  0  0  0  0  0  0  0
   39.3870   33.9670   40.6710 C   0  0  0  0  0  0  0  0  0  0  0  0
   40.0180   33.8740   41.5750 H   0  0  0  0  0  0  0  0  0  0  0  0
   38.7900   34.8750   40.7710 H   0  0  0  0  0  0  0  0  0  0  0  0
   40.2690   33.9320   39.4640 C   0  0  0  0  0  0  0  0  0  0  0  0
   39.7100   33.7490   38.5230 H   0  0  0  0  0  0  0  0  0  0  0  0
   40.6990   34.9710   39.3110 H   0  0  0  0  0  0  0  0  0  0  0  0
   41.4040   33.0690   39.5700 N   0  0  0  0  0  0  0  0  0  0  0  0
   41.3780   31.8940   38.7590 C   0  0  0  0  0  3  0  0  0  0  0  0
   40.7890   31.0620   39.1870 H   0  0  0  0  0  0  0  0  0  0  0  0
   41.0190   32.2410   37.3580 C   0  0  0  0  0  3  0  0  0  0  0  0
   41.0240   31.3420   36.6780 H   0  0  0  0  0  0  0  0  0  0  0  0
   42.0040   33.1330   36.8180 N   0  0  0  0  0  0  0  0  0  0  0  0
   42.6550   32.6830   36.1710 H   0  0  0  0  0  0  0  0  0  0  0  0
   42.4860   34.1610   37.6620 C   0  0  0  0  0  2  0  0  0  0  0  0
   42.5640   33.8350   39.1300 C   0  0  0  0  0  2  0  0  0  0  0  0
  1  5  2  0  0  0  0
  1 12  1  0  0  0  0
  2  1  1  0  0  0  0
  3  2  2  0  0  0  0
  3  4  1  0  0  0  0
  4 17  1  0  0  0  0
  4  5  1  0  0  0  0
  6  2  1  0  0  0  0
  7  3  1  0  0  0  0
  8 14  1  0  0  0  0
  9 15  1  0  0  0  0
  9  8  2  0  0  0  0
 10  9  1  0  0  0  0
 11 10  2  0  0  0  0
 11 12  1  0  0  0  0
 12 13  2  0  0  0  0
 13  8  1  0  0  0  0
 16 10  1  0  0  0  0
 17 19  1  0  0  0  0
 17 18  1  0  0  0  0
 20 23  1  0  0  0  0
 20 17  1  0  0  0  0
 21 20  1  0  0  0  0
 22 20  1  0  0  0  0
 24 25  1  0  0  0  0
 24 23  1  0  0  0  0
 26 24  1  0  0  0  0
 27 26  1  0  0  0  0
 28 26  1  0  0  0  0
 28 30  1  0  0  0  0
 29 28  1  0  0  0  0
 30 31  1  0  0  0  0
 31 23  1  0  0  0  0
M  END
>  <minimizedAffinity>
-5.03057432

$$$$

 OpenBabel03252506233D

 31 33  0  0  0  0  0  0  0  0999 V2000
   37.0850   30.5020   40.9830 C   0  0  0  0  0  0  0  0  0  0  0  0
   36.0000   29.9260   40.2940 C   0  0  0  0  0  0  0  0  0  0  0  0
   35.6860   28.7470   40.8890 C   0  0  0  0  0  0  0  0  0  0  0  0
   36.5340   28.5940   41.9010 N   0  0  0  0  0  0  0  0  0  0  0  0
   37.3730   29.6440   41.9600 N   0  0  0  0  0  0  0  0  0  0  0  0
   35.5340   30.3740   39.4510 H   0  0  0  0  0  0  0  0  0  0  0  0
   34.9060   28.0790   40.5930 H   0  0  0  0  0  0  0  0  0  0  0  0
   37.6310   33.8900   39.7060 C   0  0  0  0  0  0  0  0  0  0  0  0
   38.9550   34.1590   40.0540 C   0  0  0  0  0  0  0  0  0  0  0  0
   39.6560   33.1390   40.7430 C   0  0  0  0  0  0  0  0  0  0  0  0
   39.0070   31.9780   41.0190 N   0  0  0  0  0  0  0  0  0  0  0  0
   37.7230   31.7660   40.6580 C   0  0  0  0  0  0  0  0  0  0  0  0
   37.0370   32.7170   40.0050 N   0  0  0  0  0  0  0  0  0  0  0  0
   37.0610   34.6570   39.1710 H   0  0  0  0  0  0  0  0  0  0  0  0
   39.4120   35.1060   39.8050 H   0  0  0  0  0  0  0  0  0  0  0  0
   40.6790   33.3030   41.0310 H   0  0  0  0  0  0  0  0  0  0  0  0
   36.5610   27.4620   42.8100 C   0  0  0  0  0  0  0  0  0  0  0  0
   35.9020   26.6950   42.3620 H   0  0  0  0  0  0  0  0  0  0  0  0
   36.1410   27.7410   43.7790 H   0  0  0  0  0  0  0  0  0  0  0  0
   37.9540   26.9230   42.8700 C   0  0  0  0  0  0  0  0  0  0  0  0
   38.6740   27.6280   43.3350 H   0  0  0  0  0  0  0  0  0  0  0  0
   37.9610   26.0390   43.5810 H   0  0  0  0  0  0  0  0  0  0  0  0
   38.4570   26.4100   41.6330 N   0  0  0  0  0  0  0  0  0  0  0  0
   39.7710   25.8520   41.6710 C   0  0  0  0  0  3  0  0  0  0  0  0
   40.5810   26.6020   41.6140 H   0  0  0  0  0  0  0  0  0  0  0  0
   39.8960   24.9010   42.8070 C   0  0  0  0  0  3  0  0  0  0  0  0
   40.9100   24.4120   42.8480 H   0  0  0  0  0  0  0  0  0  0  0  0
   38.9610   23.8270   42.6370 N   0  0  0  0  0  0  0  0  0  0  0  0
   39.3900   22.9560   42.3150 H   0  0  0  0  0  0  0  0  0  0  0  0
   37.6640   24.1560   42.1760 C   0  0  0  0  0  2  0  0  0  0  0  0
   37.5710   25.3240   41.2300 C   0  0  0  0  0  2  0  0  0  0  0  0
  1  5  2  0  0  0  0
  2  3  2  0  0  0  0
  2  1  1  0  0  0  0
  3  4  1  0  0  0  0
  4  5  1  0  0  0  0
  4 17  1  0  0  0  0
  6  2  1  0  0  0  0
  7  3  1  0  0  0  0
  8 13  2  0  0  0  0
  8  9  1  0  0  0  0
  9 10  2  0  0  0  0
 10 11  1  0  0  0  0
 10 16  1  0  0  0  0
 12  1  1  0  0  0  0
 12 11  2  0  0  0  0
 13 12  1  0  0  0  0
 14  8  1  0  0  0  0
 15  9  1  0  0  0  0
 17 20  1  0  0  0  0
 17 19  1  0  0  0  0
 18 17  1  0  0  0  0
 20 21  1  0  0  0  0
 20 22  1  0  0  0  0
 23 24  1  0  0  0  0
 23 20  1  0  0  0  0
 24 26  1  0  0  0  0
 25 24  1  0  0  0  0
 26 27  1  0  0  0  0
 28 26  1  0  0  0  0
 29 28  1  0  0  0  0
 30 28  1  0  0  0  0
 31 23  1  0  0  0  0
 31 30  1  0  0  0  0
M  END
>  <minimizedAffinity>
-4.91999149

$$$$

 OpenBabel03252506233D

 31 33  0  0  0  0  0  0  0  0999 V2000
   37.2340   27.3230   41.5720 C   0  0  0  0  0  0  0  0  0  0  0  0
   37.7910   27.9760   42.6880 C   0  0  0  0  0  0  0  0  0  0  0  0
   37.4730   29.2930   42.6230 C   0  0  0  0  0  0  0  0  0  0  0  0
   36.7500   29.4560   41.5200 N   0  0  0  0  0  0  0  0  0  0  0  0
   36.6050   28.2770   40.8880 N   0  0  0  0  0  0  0  0  0  0  0  0
   38.3630   27.4800   43.4340 H   0  0  0  0  0  0  0  0  0  0  0  0
   37.7530   30.0460   43.3290 H   0  0  0  0  0  0  0  0  0  0  0  0
   38.1780   23.7910   41.7870 C   0  0  0  0  0  0  0  0  0  0  0  0
   37.5500   23.2190   40.6800 C   0  0  0  0  0  0  0  0  0  0  0  0
   36.7900   24.0860   39.8550 C   0  0  0  0  0  0  0  0  0  0  0  0
   36.7200   25.4010   40.1870 N   0  0  0  0  0  0  0  0  0  0  0  0
   37.3480   25.9060   41.2700 C   0  0  0  0  0  0  0  0  0  0  0  0
   38.0730   25.1050   42.0670 N   0  0  0  0  0  0  0  0  0  0  0  0
   38.7740   23.1500   42.4440 H   0  0  0  0  0  0  0  0  0  0  0  0
   37.6460   22.1630   40.4730 H   0  0  0  0  0  0  0  0  0  0  0  0
   36.2890   23.6880   38.9910 H   0  0  0  0  0  0  0  0  0  0  0  0
   36.2000   30.7160   41.0550 C   0  0  0  0  0  0  0  0  0  0  0  0
   35.7220   31.1850   41.9360 H   0  0  0  0  0  0  0  0  0  0  0  0
   35.4240   30.5400   40.3070 H   0  0  0  0  0  0  0  0  0  0  0  0
   37.3190   31.5930   40.5930 C   0  0  0  0  0  0  0  0  0  0  0  0
   37.7560   32.2060   41.4090 H   0  0  0  0  0  0  0  0  0  0  0  0
   38.1830   30.9270   40.2790 H   0  0  0  0  0  0  0  0  0  0  0  0
   37.0270   32.3930   39.4450 N   0  0  0  0  0  0  0  0  0  0  0  0
   37.3240   33.7850   39.5550 C   0  0  0  0  0  3  0  0  0  0  0  0
   36.5480   34.3720   40.0800 H   0  0  0  0  0  0  0  0  0  0  0  0
   38.7010   33.9790   40.0830 C   0  0  0  0  0  3  0  0  0  0  0  0
   38.9860   35.0670   40.1510 H   0  0  0  0  0  0  0  0  0  0  0  0
   39.6470   33.3910   39.1800 N   0  0  0  0  0  0  0  0  0  0  0  0
   40.1460   34.0750   38.6070 H   0  0  0  0  0  0  0  0  0  0  0  0
   39.3170   32.1390   38.6110 C   0  0  0  0  0  2  0  0  0  0  0  0
   37.8540   31.8910   38.3540 C   0  0  0  0  0  2  0  0  0  0  0  0
  1  2  1  0  0  0  0
  2  6  1  0  0  0  0
  3  2  2  0  0  0  0
  3  7  1  0  0  0  0
  4  3  1  0  0  0  0
  5  4  1  0  0  0  0
  5  1  2  0  0  0  0
  8 13  1  0  0  0  0
  8 14  1  0  0  0  0
  9  8  2  0  0  0  0
 10 11  2  0  0  0  0
 10  9  1  0  0  0  0
 11 12  1  0  0  0  0
 12  1  1  0  0  0  0
 12 13  2  0  0  0  0
 15  9  1  0  0  0  0
 16 10  1  0  0  0  0
 17  4  1  0  0  0  0
 17 18  1  0  0  0  0
 19 17  1  0  0  0  0
 20 17  1  0  0  0  0
 20 21  1  0  0  0  0
 22 20  1  0  0  0  0
 23 24  1  0  0  0  0
 23 20  1  0  0  0  0
 24 25  1  0  0  0  0
 24 26  1  0  0  0  0
 26 27  1  0  0  0  0
 28 26  1  0  0  0  0
 29 28  1  0  0  0  0
 30 28  1  0  0  0  0
 31 30  1  0  0  0  0
 31 23  1  0  0  0  0
M  END
>  <minimizedAffinity>
-4.80516863

$$$$

 OpenBabel03252506233D

 31 33  0  0  0  0  0  0  0  0999 V2000
   38.5230   27.3840   42.1460 C   0  0  0  0  0  0  0  0  0  0  0  0
   37.7310   28.1270   43.0420 C   0  0  0  0  0  0  0  0  0  0  0  0
   38.2760   29.3620   43.1810 C   0  0  0  0  0  0  0  0  0  0  0  0
   39.3570   29.3890   42.4090 N   0  0  0  0  0  0  0  0  0  0  0  0
   39.5070   28.2050   41.7870 N   0  0  0  0  0  0  0  0  0  0  0  0
   36.8560   27.7450   43.5110 H   0  0  0  0  0  0  0  0  0  0  0  0
   37.9010   30.1530   43.7950 H   0  0  0  0  0  0  0  0  0  0  0  0
   36.8740   24.1570   41.6130 C   0  0  0  0  0  0  0  0  0  0  0  0
   37.8370   23.4090   40.9350 C   0  0  0  0  0  0  0  0  0  0  0  0
   39.0730   24.0480   40.6660 C   0  0  0  0  0  0  0  0  0  0  0  0
   39.2430   25.3310   41.0780 N   0  0  0  0  0  0  0  0  0  0  0  0
   38.2790   26.0120   41.7320 C   0  0  0  0  0  0  0  0  0  0  0  0
   37.0990   25.4300   41.9980 N   0  0  0  0  0  0  0  0  0  0  0  0
   35.9080   23.6930   41.8380 H   0  0  0  0  0  0  0  0  0  0  0  0
   37.6370   22.3910   40.6350 H   0  0  0  0  0  0  0  0  0  0  0  0
   39.8440   23.5090   40.1470 H   0  0  0  0  0  0  0  0  0  0  0  0
   40.2530   30.5220   42.2560 C   0  0  0  0  0  0  0  0  0  0  0  0
   41.0380   30.1970   41.5480 H   0  0  0  0  0  0  0  0  0  0  0  0
   40.7350   30.7570   43.2080 H   0  0  0  0  0  0  0  0  0  0  0  0
   39.4970   31.6580   41.6460 C   0  0  0  0  0  0  0  0  0  0  0  0
   38.5180   31.8420   42.1360 H   0  0  0  0  0  0  0  0  0  0  0  0
   40.0720   32.6150   41.8500 H   0  0  0  0  0  0  0  0  0  0  0  0
   39.3610   31.5990   40.2240 N   0  0  0  0  0  0  0  0  0  0  0  0
   38.1130   31.1120   39.7300 C   0  0  0  0  0  3  0  0  0  0  0  0
   38.0320   30.0090   39.7180 H   0  0  0  0  0  0  0  0  0  0  0  0
   36.9840   31.8000   40.4100 C   0  0  0  0  0  3  0  0  0  0  0  0
   35.9800   31.4670   40.0210 H   0  0  0  0  0  0  0  0  0  0  0  0
   37.0510   33.2080   40.1410 N   0  0  0  0  0  0  0  0  0  0  0  0
   36.3690   33.5260   39.4480 H   0  0  0  0  0  0  0  0  0  0  0  0
   38.3260   33.8190   40.1710 C   0  0  0  0  0  2  0  0  0  0  0  0
   39.4840   32.9650   39.7270 C   0  0  0  0  0  2  0  0  0  0  0  0
  1  2  1  0  0  0  0
  2  3  2  0  0  0  0
  2  6  1  0  0  0  0
  3  7  1  0  0  0  0
  4  3  1  0  0  0  0
  5  1  2  0  0  0  0
  5  4  1  0  0  0  0
  8 14  1  0  0  0  0
  8 13  1  0  0  0  0
  9  8  2  0  0  0  0
 10  9  1  0  0  0  0
 10 11  2  0  0  0  0
 11 12  1  0  0  0  0
 12 13  2  0  0  0  0
 12  1  1  0  0  0  0
 15  9  1  0  0  0  0
 16 10  1  0  0  0  0
 17  4  1  0  0  0  0
 17 19  1  0  0  0  0
 18 17  1  0  0  0  0
 20 22  1  0  0  0  0
 20 21  1  0  0  0  0
 20 17  1  0  0  0  0
 23 20  1  0  0  0  0
 24 23  1  0  0  0  0
 24 26  1  0  0  0  0
 25 24  1  0  0  0  0
 27 26  1  0  0  0  0
 28 30  1  0  0  0  0
 28 26  1  0  0  0  0
 29 28  1  0  0  0  0
 31 30  1  0  0  0  0
 31 23  1  0  0  0  0
M  END
>  <minimizedAffinity>
-4.79906178

$$$$

 OpenBabel03252506233D

 31 33  0  0  0  0  0  0  0  0999 V2000
   37.6760   31.7780   39.8410 C   0  0  0  0  0  0  0  0  0  0  0  0
   37.4310   33.1620   39.9280 C   0  0  0  0  0  0  0  0  0  0  0  0
   38.5970   33.7900   40.2250 C   0  0  0  0  0  0  0  0  0  0  0  0
   39.5260   32.8450   40.3170 N   0  0  0  0  0  0  0  0  0  0  0  0
   38.9770   31.6380   40.0880 N   0  0  0  0  0  0  0  0  0  0  0  0
   36.4740   33.6010   39.7810 H   0  0  0  0  0  0  0  0  0  0  0  0
   38.7310   34.8430   40.3560 H   0  0  0  0  0  0  0  0  0  0  0  0
   35.0290   29.2810   40.2530 C   0  0  0  0  0  0  0  0  0  0  0  0
   34.8130   28.8190   38.9540 C   0  0  0  0  0  0  0  0  0  0  0  0
   35.6070   29.3940   37.9300 C   0  0  0  0  0  0  0  0  0  0  0  0
   36.5150   30.3440   38.2690 N   0  0  0  0  0  0  0  0  0  0  0  0
   36.6870   30.7570   39.5430 C   0  0  0  0  0  0  0  0  0  0  0  0
   35.9470   30.2280   40.5310 N   0  0  0  0  0  0  0  0  0  0  0  0
   34.4340   28.8570   41.0680 H   0  0  0  0  0  0  0  0  0  0  0  0
   34.0730   28.0590   38.7530 H   0  0  0  0  0  0  0  0  0  0  0  0
   35.4740   29.0680   36.9140 H   0  0  0  0  0  0  0  0  0  0  0  0
   40.9270   33.0710   40.6260 C   0  0  0  0  0  0  0  0  0  0  0  0
   41.1660   32.3950   41.4690 H   0  0  0  0  0  0  0  0  0  0  0  0
   41.0810   34.0970   40.9640 H   0  0  0  0  0  0  0  0  0  0  0  0
   41.7530   32.6760   39.4440 C   0  0  0  0  0  0  0  0  0  0  0  0
   42.8440   32.7210   39.6420 H   0  0  0  0  0  0  0  0  0  0  0  0
   41.5720   31.5740   39.2390 H   0  0  0  0  0  0  0  0  0  0  0  0
   41.4190   33.3420   38.2240 N   0  0  0  0  0  0  0  0  0  0  0  0
   42.4410   34.1600   37.6540 C   0  0  0  0  0  3  0  0  0  0  0  0
   42.5190   35.1670   38.1060 H   0  0  0  0  0  0  0  0  0  0  0  0
   43.7270   33.4150   37.5960 C   0  0  0  0  0  3  0  0  0  0  0  0
   44.5510   34.0170   37.1180 H   0  0  0  0  0  0  0  0  0  0  0  0
   43.5710   32.2550   36.7670 N   0  0  0  0  0  0  0  0  0  0  0  0
   43.9880   32.3550   35.8390 H   0  0  0  0  0  0  0  0  0  0  0  0
   42.3710   31.5160   36.8970 C   0  0  0  0  0  2  0  0  0  0  0  0
   41.1360   32.3070   37.2360 C   0  0  0  0  0  2  0  0  0  0  0  0
  1  2  1  0  0  0  0
  1  5  2  0  0  0  0
  2  3  2  0  0  0  0
  3  4  1  0  0  0  0
  3  7  1  0  0  0  0
  4 17  1  0  0  0  0
  5  4  1  0  0  0  0
  6  2  1  0  0  0  0
  8 13  1  0  0  0  0
  8 14  1  0  0  0  0
  9  8  2  0  0  0  0
 10 11  2  0  0  0  0
 10  9  1  0  0  0  0
 11 12  1  0  0  0  0
 12  1  1  0  0  0  0
 12 13  2  0  0  0  0
 15  9  1  0  0  0  0
 16 10  1  0  0  0  0
 17 19  1  0  0  0  0
 17 18  1  0  0  0  0
 20 21  1  0  0  0  0
 20 17  1  0  0  0  0
 22 20  1  0  0  0  0
 23 20  1  0  0  0  0
 24 25  1  0  0  0  0
 24 23  1  0  0  0  0
 26 24  1  0  0  0  0
 27 26  1  0  0  0  0
 28 30  1  0  0  0  0
 28 26  1  0  0  0  0
 29 28  1  0  0  0  0
 30 31  1  0  0  0  0
 31 23  1  0  0  0  0
M  END
>  <minimizedAffinity>
-4.73158836

$$$$

 OpenBabel03252506233D

 31 33  0  0  0  0  0  0  0  0999 V2000
   38.7630   30.7470   41.6050 C   0  0  0  0  0  0  0  0  0  0  0  0
   39.2770   30.1620   42.7780 C   0  0  0  0  0  0  0  0  0  0  0  0
   38.5130   29.0870   43.0970 C   0  0  0  0  0  0  0  0  0  0  0  0
   37.5680   29.0030   42.1670 N   0  0  0  0  0  0  0  0  0  0  0  0
   37.7150   29.9970   41.2710 N   0  0  0  0  0  0  0  0  0  0  0  0
   40.1260   30.5350   43.2980 H   0  0  0  0  0  0  0  0  0  0  0  0
   38.6540   28.4400   43.9360 H   0  0  0  0  0  0  0  0  0  0  0  0
   41.0300   32.9870   39.8000 C   0  0  0  0  0  0  0  0  0  0  0  0
   40.2890   34.1610   39.6680 C   0  0  0  0  0  0  0  0  0  0  0  0
   38.9830   34.1600   40.2190 C   0  0  0  0  0  0  0  0  0  0  0  0
   38.5390   33.0330   40.8330 N   0  0  0  0  0  0  0  0  0  0  0  0
   39.2970   31.9210   40.9350 C   0  0  0  0  0  0  0  0  0  0  0  0
   40.5370   31.8960   40.4210 N   0  0  0  0  0  0  0  0  0  0  0  0
   42.0430   32.9540   39.3870 H   0  0  0  0  0  0  0  0  0  0  0  0
   40.7020   35.0240   39.1670 H   0  0  0  0  0  0  0  0  0  0  0  0
   38.3760   35.0440   40.1400 H   0  0  0  0  0  0  0  0  0  0  0  0
   36.5220   27.9960   42.1210 C   0  0  0  0  0  0  0  0  0  0  0  0
   36.0390   28.1040   41.1320 H   0  0  0  0  0  0  0  0  0  0  0  0
   35.7690   28.1930   42.8860 H   0  0  0  0  0  0  0  0  0  0  0  0
   37.1510   26.6420   42.2030 C   0  0  0  0  0  0  0  0  0  0  0  0
   37.7780   26.5080   43.1090 H   0  0  0  0  0  0  0  0  0  0  0  0
   36.3250   25.8770   42.3450 H   0  0  0  0  0  0  0  0  0  0  0  0
   37.8470   26.2260   41.0250 N   0  0  0  0  0  0  0  0  0  0  0  0
   39.0970   25.5680   41.2320 C   0  0  0  0  0  3  0  0  0  0  0  0
   39.9450   26.2550   41.4110 H   0  0  0  0  0  0  0  0  0  0  0  0
   38.9530   24.4950   42.2510 C   0  0  0  0  0  3  0  0  0  0  0  0
   39.9120   23.9270   42.4160 H   0  0  0  0  0  0  0  0  0  0  0  0
   38.0070   23.5200   41.7890 N   0  0  0  0  0  0  0  0  0  0  0  0
   38.4390   22.6580   41.4490 H   0  0  0  0  0  0  0  0  0  0  0  0
   36.8410   23.9960   41.1460 C   0  0  0  0  0  2  0  0  0  0  0  0
   36.9930   25.2610   40.3430 C   0  0  0  0  0  2  0  0  0  0  0  0
  1  2  1  0  0  0  0
  2  3  2  0  0  0  0
  2  6  1  0  0  0  0
  3  7  1  0  0  0  0
  4  3  1  0  0  0  0
  5  1  2  0  0  0  0
  5  4  1  0  0  0  0
  8 13  1  0  0  0  0
  9  8  2  0  0  0  0
  9 10  1  0  0  0  0
 10 11  2  0  0  0  0
 11 12  1  0  0  0  0
 12  1  1  0  0  0  0
 13 12  2  0  0  0  0
 14  8  1  0  0  0  0
 15  9  1  0  0  0  0
 16 10  1  0  0  0  0
 17  4  1  0  0  0  0
 17 20  1  0  0  0  0
 17 19  1  0  0  0  0
 18 17  1  0  0  0  0
 20 22  1  0  0  0  0
 20 21  1  0  0  0  0
 23 24  1  0  0  0  0
 23 20  1  0  0  0  0
 24 25  1  0  0  0  0
 24 26  1  0  0  0  0
 26 27  1  0  0  0  0
 28 26  1  0  0  0  0
 29 28  1  0  0  0  0
 30 28  1  0  0  0  0
 31 23  1  0  0  0  0
 31 30  1  0  0  0  0
M  END
>  <minimizedAffinity>
-4.63886881

$$$$

 OpenBabel03252506233D

 31 33  0  0  0  0  0  0  0  0999 V2000
   37.4540   27.4970   41.8220 C   0  0  0  0  0  0  0  0  0  0  0  0
   37.0750   27.7750   43.1490 C   0  0  0  0  0  0  0  0  0  0  0  0
   37.6990   28.9120   43.5490 C   0  0  0  0  0  0  0  0  0  0  0  0
   38.4320   29.3250   42.5200 N   0  0  0  0  0  0  0  0  0  0  0  0
   38.2870   28.4790   41.4840 N   0  0  0  0  0  0  0  0  0  0  0  0
   36.4080   27.1660   43.7100 H   0  0  0  0  0  0  0  0  0  0  0  0
   37.6110   29.3760   44.5070 H   0  0  0  0  0  0  0  0  0  0  0  0
   36.1990   25.4960   39.0230 C   0  0  0  0  0  0  0  0  0  0  0  0
   36.1600   24.2010   39.5420 C   0  0  0  0  0  0  0  0  0  0  0  0
   36.5780   24.0360   40.8850 C   0  0  0  0  0  0  0  0  0  0  0  0
   36.9870   25.1310   41.5770 N   0  0  0  0  0  0  0  0  0  0  0  0
   37.0060   26.3650   41.0290 C   0  0  0  0  0  0  0  0  0  0  0  0
   36.6150   26.5470   39.7580 N   0  0  0  0  0  0  0  0  0  0  0  0
   35.8820   25.6590   37.9880 H   0  0  0  0  0  0  0  0  0  0  0  0
   35.8240   23.3720   38.9370 H   0  0  0  0  0  0  0  0  0  0  0  0
   36.5640   23.0560   41.3260 H   0  0  0  0  0  0  0  0  0  0  0  0
   39.2720   30.5090   42.5100 C   0  0  0  0  0  0  0  0  0  0  0  0
   40.2820   30.1700   42.8050 H   0  0  0  0  0  0  0  0  0  0  0  0
   38.9280   31.2270   43.2570 H   0  0  0  0  0  0  0  0  0  0  0  0
   39.3350   31.0460   41.1160 C   0  0  0  0  0  0  0  0  0  0  0  0
   40.3520   31.3800   40.8240 H   0  0  0  0  0  0  0  0  0  0  0  0
   39.1260   30.1920   40.3980 H   0  0  0  0  0  0  0  0  0  0  0  0
   38.3540   32.0400   40.8070 N   0  0  0  0  0  0  0  0  0  0  0  0
   38.8240   33.3870   40.7380 C   0  0  0  0  0  3  0  0  0  0  0  0
   38.9210   33.8820   41.7220 H   0  0  0  0  0  0  0  0  0  0  0  0
   40.0430   33.4660   39.8900 C   0  0  0  0  0  3  0  0  0  0  0  0
   40.4240   34.5210   39.7820 H   0  0  0  0  0  0  0  0  0  0  0  0
   39.7300   33.0350   38.5590 N   0  0  0  0  0  0  0  0  0  0  0  0
   39.6390   33.8030   37.8900 H   0  0  0  0  0  0  0  0  0  0  0  0
   38.8870   31.9080   38.4190 C   0  0  0  0  0  2  0  0  0  0  0  0
   37.8340   31.7280   39.4800 C   0  0  0  0  0  2  0  0  0  0  0  0
  1  2  1  0  0  0  0
  2  3  2  0  0  0  0
  2  6  1  0  0  0  0
  3  7  1  0  0  0  0
  4  3  1  0  0  0  0
  5  1  2  0  0  0  0
  5  4  1  0  0  0  0
  8  9  2  0  0  0  0
  8 13  1  0  0  0  0
  9 10  1  0  0  0  0
 10 16  1  0  0  0  0
 10 11  2  0  0  0  0
 12 11  1  0  0  0  0
 12  1  1  0  0  0  0
 13 12  2  0  0  0  0
 14  8  1  0  0  0  0
 15  9  1  0  0  0  0
 17  4  1  0  0  0  0
 17 18  1  0  0  0  0
 17 19  1  0  0  0  0
 20 17  1  0  0  0  0
 21 20  1  0  0  0  0
 22 20  1  0  0  0  0
 23 20  1  0  0  0  0
 24 23  1  0  0  0  0
 24 25  1  0  0  0  0
 26 24  1  0  0  0  0
 27 26  1  0  0  0  0
 28 26  1  0  0  0  0
 29 28  1  0  0  0  0
 30 28  1  0  0  0  0
 30 31  1  0  0  0  0
 31 23  1  0  0  0  0
M  END
>  <minimizedAffinity>
-4.57810879

$$$$

 OpenBabel03252506233D

 31 33  0  0  0  0  0  0  0  0999 V2000
   37.3010   27.3350   41.6960 C   0  0  0  0  0  0  0  0  0  0  0  0
   37.7540   27.9500   42.8790 C   0  0  0  0  0  0  0  0  0  0  0  0
   37.4640   29.2740   42.8180 C   0  0  0  0  0  0  0  0  0  0  0  0
   36.8580   29.4770   41.6530 N   0  0  0  0  0  0  0  0  0  0  0  0
   36.7580   28.3170   40.9790 N   0  0  0  0  0  0  0  0  0  0  0  0
   38.2400   27.4260   43.6660 H   0  0  0  0  0  0  0  0  0  0  0  0
   37.6840   30.0040   43.5670 H   0  0  0  0  0  0  0  0  0  0  0  0
   36.7510   24.0730   40.1270 C   0  0  0  0  0  0  0  0  0  0  0  0
   37.6700   23.2440   40.7690 C   0  0  0  0  0  0  0  0  0  0  0  0
   38.4880   23.8410   41.7610 C   0  0  0  0  0  0  0  0  0  0  0  0
   38.3290   25.1650   42.0220 N   0  0  0  0  0  0  0  0  0  0  0  0
   37.4220   25.9240   41.3710 C   0  0  0  0  0  0  0  0  0  0  0  0
   36.6360   25.3820   40.4270 N   0  0  0  0  0  0  0  0  0  0  0  0
   36.1020   23.6430   39.3560 H   0  0  0  0  0  0  0  0  0  0  0  0
   37.7460   22.1970   40.5140 H   0  0  0  0  0  0  0  0  0  0  0  0
   39.2100   23.2400   42.2820 H   0  0  0  0  0  0  0  0  0  0  0  0
   36.3760   30.7590   41.1680 C   0  0  0  0  0  0  0  0  0  0  0  0
   36.3840   31.4380   42.0410 H   0  0  0  0  0  0  0  0  0  0  0  0
   35.3450   30.6710   40.8210 H   0  0  0  0  0  0  0  0  0  0  0  0
   37.3340   31.2810   40.1460 C   0  0  0  0  0  0  0  0  0  0  0  0
   37.1730   30.8450   39.1380 H   0  0  0  0  0  0  0  0  0  0  0  0
   37.1170   32.3830   39.9890 H   0  0  0  0  0  0  0  0  0  0  0  0
   38.7120   31.2210   40.5220 N   0  0  0  0  0  0  0  0  0  0  0  0
   39.6430   30.9820   39.4670 C   0  0  0  0  0  3  0  0  0  0  0  0
   39.7420   29.9170   39.1840 H   0  0  0  0  0  0  0  0  0  0  0  0
   39.3750   31.8960   38.3250 C   0  0  0  0  0  3  0  0  0  0  0  0
   40.1130   31.7620   37.4840 H   0  0  0  0  0  0  0  0  0  0  0  0
   39.5270   33.2560   38.7540 N   0  0  0  0  0  0  0  0  0  0  0  0
   40.4000   33.6890   38.4430 H   0  0  0  0  0  0  0  0  0  0  0  0
   39.0120   33.6010   40.0250 C   0  0  0  0  0  2  0  0  0  0  0  0
   39.0590   32.5250   41.0770 C   0  0  0  0  0  2  0  0  0  0  0  0
  1  2  1  0  0  0  0
  2  6  1  0  0  0  0
  3  2  2  0  0  0  0
  3  7  1  0  0  0  0
  4  3  1  0  0  0  0
  5  4  1  0  0  0  0
  5  1  2  0  0  0  0
  8 13  2  0  0  0  0
  8  9  1  0  0  0  0
  9 10  2  0  0  0  0
 10 11  1  0  0  0  0
 10 16  1  0  0  0  0
 12  1  1  0  0  0  0
 12 11  2  0  0  0  0
 13 12  1  0  0  0  0
 14  8  1  0  0  0  0
 15  9  1  0  0  0  0
 17  4  1  0  0  0  0
 17 18  1  0  0  0  0
 19 17  1  0  0  0  0
 20 23  1  0  0  0  0
 20 17  1  0  0  0  0
 21 20  1  0  0  0  0
 22 20  1  0  0  0  0
 23 31  1  0  0  0  0
 24 23  1  0  0  0  0
 25 24  1  0  0  0  0
 26 28  1  0  0  0  0
 26 24  1  0  0  0  0
 27 26  1  0  0  0  0
 28 30  1  0  0  0  0
 29 28  1  0  0  0  0
 30 31  1  0  0  0  0
M  END
>  <minimizedAffinity>
-4.51473188

$$$$

 OpenBabel03252506233D

 31 33  0  0  0  0  0  0  0  0999 V2000
   37.6350   27.4870   41.4070 C   0  0  0  0  0  0  0  0  0  0  0  0
   36.7590   27.3740   40.3100 C   0  0  0  0  0  0  0  0  0  0  0  0
   36.2380   28.5980   40.0440 C   0  0  0  0  0  0  0  0  0  0  0  0
   36.7630   29.4360   40.9320 N   0  0  0  0  0  0  0  0  0  0  0  0
   37.6020   28.7730   41.7490 N   0  0  0  0  0  0  0  0  0  0  0  0
   36.5650   26.4590   39.8040 H   0  0  0  0  0  0  0  0  0  0  0  0
   35.5400   28.8320   39.2690 H   0  0  0  0  0  0  0  0  0  0  0  0
   38.9430   24.1390   42.1120 C   0  0  0  0  0  0  0  0  0  0  0  0
   39.8450   24.3560   43.1540 C   0  0  0  0  0  0  0  0  0  0  0  0
   39.9910   25.6900   43.6080 C   0  0  0  0  0  0  0  0  0  0  0  0
   39.2550   26.6630   43.0110 N   0  0  0  0  0  0  0  0  0  0  0  0
   38.3940   26.4010   42.0050 C   0  0  0  0  0  0  0  0  0  0  0  0
   38.2380   25.1450   41.5560 N   0  0  0  0  0  0  0  0  0  0  0  0
   38.8040   23.1200   41.7380 H   0  0  0  0  0  0  0  0  0  0  0  0
   40.4000   23.5360   43.5850 H   0  0  0  0  0  0  0  0  0  0  0  0
   40.6750   25.9030   44.4090 H   0  0  0  0  0  0  0  0  0  0  0  0
   36.4770   30.8570   41.0170 C   0  0  0  0  0  0  0  0  0  0  0  0
   36.5080   31.1100   42.0930 H   0  0  0  0  0  0  0  0  0  0  0  0
   35.4690   31.0650   40.6520 H   0  0  0  0  0  0  0  0  0  0  0  0
   37.5600   31.6120   40.3150 C   0  0  0  0  0  0  0  0  0  0  0  0
   38.1290   30.9880   39.5960 H   0  0  0  0  0  0  0  0  0  0  0  0
   37.0730   32.3930   39.6520 H   0  0  0  0  0  0  0  0  0  0  0  0
   38.4390   32.3450   41.1730 N   0  0  0  0  0  0  0  0  0  0  0  0
   39.6230   31.6660   41.5910 C   0  0  0  0  0  3  0  0  0  0  0  0
   39.4710   30.9780   42.4440 H   0  0  0  0  0  0  0  0  0  0  0  0
   40.3050   31.0500   40.4220 C   0  0  0  0  0  3  0  0  0  0  0  0
   41.2650   30.5330   40.7070 H   0  0  0  0  0  0  0  0  0  0  0  0
   40.6840   32.0760   39.4940 N   0  0  0  0  0  0  0  0  0  0  0  0
   41.6820   32.3000   39.5160 H   0  0  0  0  0  0  0  0  0  0  0  0
   39.7580   33.1190   39.2590 C   0  0  0  0  0  2  0  0  0  0  0  0
   38.8890   33.5130   40.4240 C   0  0  0  0  0  2  0  0  0  0  0  0
  1  5  2  0  0  0  0
  1 12  1  0  0  0  0
  2  1  1  0  0  0  0
  3  2  2  0  0  0  0
  3  4  1  0  0  0  0
  4 17  1  0  0  0  0
  4  5  1  0  0  0  0
  6  2  1  0  0  0  0
  7  3  1  0  0  0  0
  8  9  1  0  0  0  0
  9 15  1  0  0  0  0
  9 10  2  0  0  0  0
 10 16  1  0  0  0  0
 11 10  1  0  0  0  0
 12 11  2  0  0  0  0
 13 12  1  0  0  0  0
 13  8  2  0  0  0  0
 14  8  1  0  0  0  0
 17 18  1  0  0  0  0
 19 17  1  0  0  0  0
 20 17  1  0  0  0  0
 20 23  1  0  0  0  0
 21 20  1  0  0  0  0
 22 20  1  0  0  0  0
 23 24  1  0  0  0  0
 24 25  1  0  0  0  0
 26 27  1  0  0  0  0
 26 24  1  0  0  0  0
 28 29  1  0  0  0  0
 28 26  1  0  0  0  0
 30 28  1  0  0  0  0
 30 31  1  0  0  0  0
 31 23  1  0  0  0  0
M  END
>  <minimizedAffinity>
-4.27111149

$$$$
