
 OpenBabel03242514043D

 27 29  0  0  0  0  0  0  0  0999 V2000
   37.5810   28.2720   41.3290 C   0  0  0  0  0  0  0  0  0  0  0  0
   36.2020   28.1750   41.3780 C   0  0  0  0  0  0  0  0  0  0  0  0
   35.3280   28.9980   40.7020 C   0  0  0  0  0  0  0  0  0  0  0  0
   35.9600   29.9870   39.9240 C   0  0  0  0  0  0  0  0  0  0  0  0
   37.3390   30.0890   39.8720 C   0  0  0  0  0  0  0  0  0  0  0  0
   38.1210   29.2320   40.5720 N   0  0  0  0  0  0  0  0  0  0  0  0
   35.7990   27.3840   42.0030 H   0  0  0  0  0  0  0  0  0  0  0  0
   34.2670   28.8970   40.7620 H   0  0  0  0  0  0  0  0  0  0  0  0
   35.3340   30.6700   39.3660 H   0  0  0  0  0  0  0  0  0  0  0  0
   38.0060   31.0710   39.1000 N   0  0  0  0  0  0  0  0  0  0  0  0
   39.3910   31.4610   39.1940 C   0  0  0  0  0  3  0  0  0  0  0  0
   39.3850   32.5350   39.5050 H   0  0  0  0  0  0  0  0  0  0  0  0
   40.0860   31.3520   37.8520 C   0  0  0  0  0  3  0  0  0  0  0  0
   39.9510   30.3110   37.5070 H   0  0  0  0  0  0  0  0  0  0  0  0
   39.4780   32.2490   36.9100 N   0  0  0  0  0  0  0  0  0  0  0  0
   39.9000   32.1070   35.9620 H   0  0  0  0  0  0  0  0  0  0  0  0
   38.0840   31.8280   36.7640 C   0  0  0  0  0  2  0  0  0  0  0  0
   37.3650   31.8400   38.0810 C   0  0  0  0  0  2  0  0  0  0  0  0
   40.0760   26.9740   43.6780 C   0  0  0  0  0  0  0  0  0  0  0  0
   39.9630   25.5790   43.5090 C   0  0  0  0  0  0  0  0  0  0  0  0
   39.0140   25.1020   42.5740 C   0  0  0  0  0  0  0  0  0  0  0  0
   38.2630   26.0240   41.8880 N   0  0  0  0  0  0  0  0  0  0  0  0
   38.4100   27.3430   42.0880 C   0  0  0  0  0  0  0  0  0  0  0  0
   39.3010   27.8240   42.9670 N   0  0  0  0  0  0  0  0  0  0  0  0
   40.8000   27.3380   44.3920 H   0  0  0  0  0  0  0  0  0  0  0  0
   40.5690   24.8740   44.0620 H   0  0  0  0  0  0  0  0  0  0  0  0
   38.8750   24.0440   42.3930 H   0  0  0  0  0  0  0  0  0  0  0  0
  1  2  1  0  0  0  0
  1 23  1  0  0  0  0
  2  7  1  0  0  0  0
  3  8  1  0  0  0  0
  3  2  2  0  0  0  0
  4  3  1  0  0  0  0
  5  4  2  0  0  0  0
  5  6  1  0  0  0  0
  6  1  2  0  0  0  0
  9  4  1  0  0  0  0
 10 11  1  0  0  0  0
 10  5  1  0  0  0  0
 11 12  1  0  0  0  0
 13 11  1  0  0  0  0
 14 13  1  0  0  0  0
 15 13  1  0  0  0  0
 16 15  1  0  0  0  0
 17 15  1  0  0  0  0
 17 18  1  0  0  0  0
 18 10  1  0  0  0  0
 19 25  1  0  0  0  0
 20 19  1  0  0  0  0
 20 26  1  0  0  0  0
 21 20  2  0  0  0  0
 22 23  2  0  0  0  0
 22 21  1  0  0  0  0
 23 24  1  0  0  0  0
 24 19  2  0  0  0  0
 27 21  1  0  0  0  0
M  END
>  <minimizedAffinity>
-5.30331516

$$$$

 OpenBabel03242514043D

 27 29  0  0  0  0  0  0  0  0999 V2000
   37.8290   28.0120   41.8650 C   0  0  0  0  0  0  0  0  0  0  0  0
   36.4930   28.0200   41.5030 C   0  0  0  0  0  0  0  0  0  0  0  0
   35.8060   29.1240   41.0480 C   0  0  0  0  0  0  0  0  0  0  0  0
   36.5880   30.2930   40.9730 C   0  0  0  0  0  0  0  0  0  0  0  0
   37.9230   30.2900   41.3340 C   0  0  0  0  0  0  0  0  0  0  0  0
   38.5170   29.1530   41.7700 N   0  0  0  0  0  0  0  0  0  0  0  0
   35.9660   27.0750   41.5920 H   0  0  0  0  0  0  0  0  0  0  0  0
   34.7740   29.0970   40.7770 H   0  0  0  0  0  0  0  0  0  0  0  0
   36.1120   31.1990   40.6240 H   0  0  0  0  0  0  0  0  0  0  0  0
   38.7370   31.4470   41.2700 N   0  0  0  0  0  0  0  0  0  0  0  0
   40.0280   31.6400   41.8830 C   0  0  0  0  0  3  0  0  0  0  0  0
   39.8940   32.4740   42.6160 H   0  0  0  0  0  0  0  0  0  0  0  0
   41.0660   32.0570   40.8620 C   0  0  0  0  0  3  0  0  0  0  0  0
   41.0710   31.2780   40.0770 H   0  0  0  0  0  0  0  0  0  0  0  0
   40.7040   33.3180   40.2800 N   0  0  0  0  0  0  0  0  0  0  0  0
   41.3740   33.5600   39.5120 H   0  0  0  0  0  0  0  0  0  0  0  0
   39.4200   33.1210   39.6060 C   0  0  0  0  0  2  0  0  0  0  0  0
   38.3690   32.6290   40.5570 C   0  0  0  0  0  2  0  0  0  0  0  0
   40.0330   25.7140   43.6790 C   0  0  0  0  0  0  0  0  0  0  0  0
   39.6220   24.4510   43.2030 C   0  0  0  0  0  0  0  0  0  0  0  0
   38.5760   24.4130   42.2510 C   0  0  0  0  0  0  0  0  0  0  0  0
   38.0260   25.6050   41.8470 N   0  0  0  0  0  0  0  0  0  0  0  0
   38.4550   26.7800   42.3330 C   0  0  0  0  0  0  0  0  0  0  0  0
   39.4430   26.8470   43.2360 N   0  0  0  0  0  0  0  0  0  0  0  0
   40.8310   25.7430   44.4060 H   0  0  0  0  0  0  0  0  0  0  0  0
   40.0740   23.5280   43.5380 H   0  0  0  0  0  0  0  0  0  0  0  0
   38.2110   23.4790   41.8430 H   0  0  0  0  0  0  0  0  0  0  0  0
  1 23  1  0  0  0  0
  2  7  1  0  0  0  0
  2  1  2  0  0  0  0
  3  2  1  0  0  0  0
  4  3  2  0  0  0  0
  4  5  1  0  0  0  0
  5  6  2  0  0  0  0
  6  1  1  0  0  0  0
  8  3  1  0  0  0  0
  9  4  1  0  0  0  0
 10  5  1  0  0  0  0
 10 11  1  0  0  0  0
 11 12  1  0  0  0  0
 13 11  1  0  0  0  0
 14 13  1  0  0  0  0
 15 13  1  0  0  0  0
 16 15  1  0  0  0  0
 17 15  1  0  0  0  0
 17 18  1  0  0  0  0
 18 10  1  0  0  0  0
 19 25  1  0  0  0  0
 20 26  1  0  0  0  0
 20 19  2  0  0  0  0
 21 20  1  0  0  0  0
 22 21  2  0  0  0  0
 22 23  1  0  0  0  0
 23 24  2  0  0  0  0
 24 19  1  0  0  0  0
 27 21  1  0  0  0  0
M  END
>  <minimizedAffinity>
-5.12364054

$$$$

 OpenBabel03242514043D

 27 29  0  0  0  0  0  0  0  0999 V2000
   37.2840   29.0980   41.2450 C   0  0  0  0  0  0  0  0  0  0  0  0
   37.4350   29.2710   42.6100 C   0  0  0  0  0  0  0  0  0  0  0  0
   37.4390   28.2520   43.5370 C   0  0  0  0  0  0  0  0  0  0  0  0
   37.2730   26.9700   42.9800 C   0  0  0  0  0  0  0  0  0  0  0  0
   37.1210   26.7920   41.6170 C   0  0  0  0  0  0  0  0  0  0  0  0
   37.1310   27.8560   40.7780 N   0  0  0  0  0  0  0  0  0  0  0  0
   37.5580   30.2930   42.9540 H   0  0  0  0  0  0  0  0  0  0  0  0
   37.5570   28.4190   44.5850 H   0  0  0  0  0  0  0  0  0  0  0  0
   37.2650   26.1220   43.6520 H   0  0  0  0  0  0  0  0  0  0  0  0
   36.9520   25.5170   41.0230 N   0  0  0  0  0  0  0  0  0  0  0  0
   36.4980   25.2320   39.6850 C   0  0  0  0  0  3  0  0  0  0  0  0
   35.5390   24.6690   39.8040 H   0  0  0  0  0  0  0  0  0  0  0  0
   37.4850   24.3530   38.9450 C   0  0  0  0  0  3  0  0  0  0  0  0
   38.4580   24.8770   38.9700 H   0  0  0  0  0  0  0  0  0  0  0  0
   37.6080   23.0860   39.6080 N   0  0  0  0  0  0  0  0  0  0  0  0
   38.3560   22.5150   39.1470 H   0  0  0  0  0  0  0  0  0  0  0  0
   38.1220   23.3580   40.9510 C   0  0  0  0  0  2  0  0  0  0  0  0
   37.2210   24.2910   41.7060 C   0  0  0  0  0  2  0  0  0  0  0  0
   37.4110   32.5640   40.0610 C   0  0  0  0  0  0  0  0  0  0  0  0
   37.3190   32.4150   38.6610 C   0  0  0  0  0  0  0  0  0  0  0  0
   37.2150   31.1030   38.1420 C   0  0  0  0  0  0  0  0  0  0  0  0
   37.2070   30.0560   39.0290 N   0  0  0  0  0  0  0  0  0  0  0  0
   37.2970   30.2530   40.3540 C   0  0  0  0  0  0  0  0  0  0  0  0
   37.3970   31.4840   40.8750 N   0  0  0  0  0  0  0  0  0  0  0  0
   37.4900   33.5650   40.4570 H   0  0  0  0  0  0  0  0  0  0  0  0
   37.3270   33.2590   37.9850 H   0  0  0  0  0  0  0  0  0  0  0  0
   37.1400   30.9160   37.0780 H   0  0  0  0  0  0  0  0  0  0  0  0
  1  2  1  0  0  0  0
  2  7  1  0  0  0  0
  2  3  2  0  0  0  0
  3  8  1  0  0  0  0
  4  3  1  0  0  0  0
  4  9  1  0  0  0  0
  5  4  2  0  0  0  0
  6  1  2  0  0  0  0
  6  5  1  0  0  0  0
 10  5  1  0  0  0  0
 10 18  1  0  0  0  0
 11 12  1  0  0  0  0
 11 10  1  0  0  0  0
 13 14  1  0  0  0  0
 13 15  1  0  0  0  0
 13 11  1  0  0  0  0
 15 17  1  0  0  0  0
 16 15  1  0  0  0  0
 17 18  1  0  0  0  0
 19 25  1  0  0  0  0
 19 24  1  0  0  0  0
 20 19  2  0  0  0  0
 21 20  1  0  0  0  0
 21 22  2  0  0  0  0
 22 23  1  0  0  0  0
 23 24  2  0  0  0  0
 23  1  1  0  0  0  0
 26 20  1  0  0  0  0
 27 21  1  0  0  0  0
M  END
>  <minimizedAffinity>
-5.10943842

$$$$

 OpenBabel03242514043D

 27 29  0  0  0  0  0  0  0  0999 V2000
   38.0440   31.1530   41.0430 C   0  0  0  0  0  0  0  0  0  0  0  0
   37.1150   31.9410   40.3870 C   0  0  0  0  0  0  0  0  0  0  0  0
   37.3970   33.1310   39.7550 C   0  0  0  0  0  0  0  0  0  0  0  0
   38.7520   33.5080   39.8220 C   0  0  0  0  0  0  0  0  0  0  0  0
   39.6850   32.7240   40.4770 C   0  0  0  0  0  0  0  0  0  0  0  0
   39.3150   31.5650   41.0720 N   0  0  0  0  0  0  0  0  0  0  0  0
   36.0930   31.5750   40.3840 H   0  0  0  0  0  0  0  0  0  0  0  0
   36.6560   33.7170   39.2570 H   0  0  0  0  0  0  0  0  0  0  0  0
   39.0450   34.4340   39.3460 H   0  0  0  0  0  0  0  0  0  0  0  0
   41.0550   33.0740   40.5630 N   0  0  0  0  0  0  0  0  0  0  0  0
   42.0440   32.5090   41.4470 C   0  0  0  0  0  3  0  0  0  0  0  0
   42.3790   33.3500   42.1050 H   0  0  0  0  0  0  0  0  0  0  0  0
   43.2410   31.9940   40.6760 C   0  0  0  0  0  3  0  0  0  0  0  0
   42.8550   31.2670   39.9380 H   0  0  0  0  0  0  0  0  0  0  0  0
   43.8860   33.0760   39.9880 N   0  0  0  0  0  0  0  0  0  0  0  0
   44.6570   32.7030   39.3850 H   0  0  0  0  0  0  0  0  0  0  0  0
   42.9070   33.6220   39.0470 C   0  0  0  0  0  2  0  0  0  0  0  0
   41.6630   34.0780   39.7490 C   0  0  0  0  0  2  0  0  0  0  0  0
   36.3130   27.9830   41.6640 C   0  0  0  0  0  0  0  0  0  0  0  0
   36.8660   27.5640   42.8920 C   0  0  0  0  0  0  0  0  0  0  0  0
   37.8420   28.3940   43.4930 C   0  0  0  0  0  0  0  0  0  0  0  0
   38.1900   29.5550   42.8480 N   0  0  0  0  0  0  0  0  0  0  0  0
   37.6320   29.9070   41.6790 C   0  0  0  0  0  0  0  0  0  0  0  0
   36.7050   29.1410   41.0860 N   0  0  0  0  0  0  0  0  0  0  0  0
   35.5680   27.3500   41.2040 H   0  0  0  0  0  0  0  0  0  0  0  0
   36.5730   26.6440   43.3780 H   0  0  0  0  0  0  0  0  0  0  0  0
   38.3070   28.1340   44.4350 H   0  0  0  0  0  0  0  0  0  0  0  0
  1  6  1  0  0  0  0
  1 23  1  0  0  0  0
  2  1  2  0  0  0  0
  3  4  2  0  0  0  0
  3  2  1  0  0  0  0
  4  5  1  0  0  0  0
  5 10  1  0  0  0  0
  5  6  2  0  0  0  0
  7  2  1  0  0  0  0
  8  3  1  0  0  0  0
  9  4  1  0  0  0  0
 10 11  1  0  0  0  0
 11 12  1  0  0  0  0
 13 11  1  0  0  0  0
 14 13  1  0  0  0  0
 15 13  1  0  0  0  0
 16 15  1  0  0  0  0
 17 18  1  0  0  0  0
 17 15  1  0  0  0  0
 18 10  1  0  0  0  0
 19 20  1  0  0  0  0
 20 26  1  0  0  0  0
 20 21  2  0  0  0  0
 21 27  1  0  0  0  0
 22 21  1  0  0  0  0
 23 22  2  0  0  0  0
 24 19  2  0  0  0  0
 24 23  1  0  0  0  0
 25 19  1  0  0  0  0
M  END
>  <minimizedAffinity>
-5.0903697

$$$$

 OpenBabel03242514043D

 27 29  0  0  0  0  0  0  0  0999 V2000
   37.4860   27.2560   41.4640 C   0  0  0  0  0  0  0  0  0  0  0  0
   37.5730   27.4310   42.8340 C   0  0  0  0  0  0  0  0  0  0  0  0
   37.8710   28.6220   43.4600 C   0  0  0  0  0  0  0  0  0  0  0  0
   38.0890   29.6950   42.5740 C   0  0  0  0  0  0  0  0  0  0  0  0
   38.0030   29.5250   41.2040 C   0  0  0  0  0  0  0  0  0  0  0  0
   37.7030   28.3140   40.6770 N   0  0  0  0  0  0  0  0  0  0  0  0
   37.3900   26.5510   43.4430 H   0  0  0  0  0  0  0  0  0  0  0  0
   37.9310   28.7230   44.5210 H   0  0  0  0  0  0  0  0  0  0  0  0
   38.3280   30.6610   42.9980 H   0  0  0  0  0  0  0  0  0  0  0  0
   38.2160   30.5820   40.2860 N   0  0  0  0  0  0  0  0  0  0  0  0
   38.4440   30.4720   38.8670 C   0  0  0  0  0  3  0  0  0  0  0  0
   39.4710   30.8780   38.6910 H   0  0  0  0  0  0  0  0  0  0  0  0
   37.4530   31.3090   38.0840 C   0  0  0  0  0  3  0  0  0  0  0  0
   36.4440   30.9750   38.3880 H   0  0  0  0  0  0  0  0  0  0  0  0
   37.6150   32.6970   38.4110 N   0  0  0  0  0  0  0  0  0  0  0  0
   36.8720   33.2620   37.9370 H   0  0  0  0  0  0  0  0  0  0  0  0
   37.3330   32.8310   39.8400 C   0  0  0  0  0  2  0  0  0  0  0  0
   38.2350   31.9600   40.6640 C   0  0  0  0  0  2  0  0  0  0  0  0
   37.2620   23.6210   41.0610 C   0  0  0  0  0  0  0  0  0  0  0  0
   36.5440   23.4880   39.8530 C   0  0  0  0  0  0  0  0  0  0  0  0
   36.1440   24.6710   39.1900 C   0  0  0  0  0  0  0  0  0  0  0  0
   36.4770   25.8760   39.7590 N   0  0  0  0  0  0  0  0  0  0  0  0
   37.1620   25.9460   40.9110 C   0  0  0  0  0  0  0  0  0  0  0  0
   37.5550   24.8420   41.5610 N   0  0  0  0  0  0  0  0  0  0  0  0
   37.5680   22.7180   41.5670 H   0  0  0  0  0  0  0  0  0  0  0  0
   36.2960   22.5260   39.4280 H   0  0  0  0  0  0  0  0  0  0  0  0
   35.5910   24.6430   38.2600 H   0  0  0  0  0  0  0  0  0  0  0  0
  1  2  1  0  0  0  0
  2  7  1  0  0  0  0
  2  3  2  0  0  0  0
  3  8  1  0  0  0  0
  4  9  1  0  0  0  0
  4  3  1  0  0  0  0
  5  4  2  0  0  0  0
  6  5  1  0  0  0  0
  6  1  2  0  0  0  0
 10 18  1  0  0  0  0
 10  5  1  0  0  0  0
 11 10  1  0  0  0  0
 12 11  1  0  0  0  0
 13 14  1  0  0  0  0
 13 15  1  0  0  0  0
 13 11  1  0  0  0  0
 15 17  1  0  0  0  0
 16 15  1  0  0  0  0
 17 18  1  0  0  0  0
 19 24  1  0  0  0  0
 19 25  1  0  0  0  0
 20 19  2  0  0  0  0
 21 22  2  0  0  0  0
 21 20  1  0  0  0  0
 22 23  1  0  0  0  0
 23  1  1  0  0  0  0
 23 24  2  0  0  0  0
 26 20  1  0  0  0  0
 27 21  1  0  0  0  0
M  END
>  <minimizedAffinity>
-5.03866816

$$$$

 OpenBabel03242514043D

 27 29  0  0  0  0  0  0  0  0999 V2000
   37.9450   28.5480   41.2090 C   0  0  0  0  0  0  0  0  0  0  0  0
   37.1230   29.4920   41.7990 C   0  0  0  0  0  0  0  0  0  0  0  0
   36.4480   30.4830   41.1220 C   0  0  0  0  0  0  0  0  0  0  0  0
   36.6580   30.4700   39.7300 C   0  0  0  0  0  0  0  0  0  0  0  0
   37.4780   29.5290   39.1350 C   0  0  0  0  0  0  0  0  0  0  0  0
   38.1040   28.5890   39.8820 N   0  0  0  0  0  0  0  0  0  0  0  0
   37.0180   29.4290   42.8770 H   0  0  0  0  0  0  0  0  0  0  0  0
   35.8200   31.1970   41.6080 H   0  0  0  0  0  0  0  0  0  0  0  0
   36.1570   31.2220   39.1350 H   0  0  0  0  0  0  0  0  0  0  0  0
   37.7110   29.4880   37.7380 N   0  0  0  0  0  0  0  0  0  0  0  0
   38.7500   28.7650   37.0480 C   0  0  0  0  0  3  0  0  0  0  0  0
   39.3830   29.5420   36.5510 H   0  0  0  0  0  0  0  0  0  0  0  0
   38.1740   27.8570   35.9820 C   0  0  0  0  0  3  0  0  0  0  0  0
   37.4470   27.1950   36.4870 H   0  0  0  0  0  0  0  0  0  0  0  0
   37.4960   28.6370   34.9850 N   0  0  0  0  0  0  0  0  0  0  0  0
   37.0230   28.0030   34.2990 H   0  0  0  0  0  0  0  0  0  0  0  0
   36.4030   29.3340   35.6640 C   0  0  0  0  0  2  0  0  0  0  0  0
   36.9100   30.1910   36.7870 C   0  0  0  0  0  2  0  0  0  0  0  0
   40.1660   27.0030   43.6800 C   0  0  0  0  0  0  0  0  0  0  0  0
   39.8580   25.6310   43.5580 C   0  0  0  0  0  0  0  0  0  0  0  0
   38.8740   25.2580   42.6120 C   0  0  0  0  0  0  0  0  0  0  0  0
   38.2810   26.2500   41.8700 N   0  0  0  0  0  0  0  0  0  0  0  0
   38.6120   27.5410   42.0260 C   0  0  0  0  0  0  0  0  0  0  0  0
   39.5400   27.9250   42.9140 N   0  0  0  0  0  0  0  0  0  0  0  0
   40.9170   27.2880   44.4020 H   0  0  0  0  0  0  0  0  0  0  0  0
   40.3410   24.8710   44.1550 H   0  0  0  0  0  0  0  0  0  0  0  0
   38.5880   24.2240   42.4650 H   0  0  0  0  0  0  0  0  0  0  0  0
  1  2  1  0  0  0  0
  1 23  1  0  0  0  0
  2  7  1  0  0  0  0
  3  8  1  0  0  0  0
  3  2  2  0  0  0  0
  4  3  1  0  0  0  0
  5  4  2  0  0  0  0
  5  6  1  0  0  0  0
  6  1  2  0  0  0  0
  9  4  1  0  0  0  0
 10  5  1  0  0  0  0
 11 10  1  0  0  0  0
 12 11  1  0  0  0  0
 13 14  1  0  0  0  0
 13 11  1  0  0  0  0
 15 17  1  0  0  0  0
 15 13  1  0  0  0  0
 16 15  1  0  0  0  0
 17 18  1  0  0  0  0
 18 10  1  0  0  0  0
 19 25  1  0  0  0  0
 20 19  1  0  0  0  0
 20 26  1  0  0  0  0
 21 20  2  0  0  0  0
 22 23  2  0  0  0  0
 22 21  1  0  0  0  0
 23 24  1  0  0  0  0
 24 19  2  0  0  0  0
 27 21  1  0  0  0  0
M  END
>  <minimizedAffinity>
-5.01687574

$$$$

 OpenBabel03242514043D

 27 29  0  0  0  0  0  0  0  0999 V2000
   39.4610   30.0780   41.6990 C   0  0  0  0  0  0  0  0  0  0  0  0
   40.7420   30.3640   42.1350 C   0  0  0  0  0  0  0  0  0  0  0  0
   41.5480   29.4960   42.8400 C   0  0  0  0  0  0  0  0  0  0  0  0
   40.9550   28.2450   43.0950 C   0  0  0  0  0  0  0  0  0  0  0  0
   39.6740   27.9540   42.6610 C   0  0  0  0  0  0  0  0  0  0  0  0
   38.9540   28.8720   41.9720 N   0  0  0  0  0  0  0  0  0  0  0  0
   41.1210   31.3530   41.8950 H   0  0  0  0  0  0  0  0  0  0  0  0
   42.5330   29.7490   43.1630 H   0  0  0  0  0  0  0  0  0  0  0  0
   41.5310   27.5140   43.6450 H   0  0  0  0  0  0  0  0  0  0  0  0
   39.0480   26.7060   42.9010 N   0  0  0  0  0  0  0  0  0  0  0  0
   37.6470   26.3940   42.7650 C   0  0  0  0  0  3  0  0  0  0  0  0
   37.2970   26.1170   43.7910 H   0  0  0  0  0  0  0  0  0  0  0  0
   37.4350   25.2070   41.8470 C   0  0  0  0  0  3  0  0  0  0  0  0
   37.9180   25.4590   40.8850 H   0  0  0  0  0  0  0  0  0  0  0  0
   38.0570   24.0390   42.4020 N   0  0  0  0  0  0  0  0  0  0  0  0
   37.9860   23.2440   41.7240 H   0  0  0  0  0  0  0  0  0  0  0  0
   39.4890   24.3240   42.4930 C   0  0  0  0  0  2  0  0  0  0  0  0
   39.7560   25.5410   43.3290 C   0  0  0  0  0  2  0  0  0  0  0  0
   38.3620   33.3020   40.3460 C   0  0  0  0  0  0  0  0  0  0  0  0
   37.2490   32.9430   39.5580 C   0  0  0  0  0  0  0  0  0  0  0  0
   36.8910   31.5750   39.5060 C   0  0  0  0  0  0  0  0  0  0  0  0
   37.6460   30.6810   40.2240 N   0  0  0  0  0  0  0  0  0  0  0  0
   38.6970   31.0760   40.9580 C   0  0  0  0  0  0  0  0  0  0  0  0
   39.0600   32.3650   41.0280 N   0  0  0  0  0  0  0  0  0  0  0  0
   38.6360   34.3460   40.3870 H   0  0  0  0  0  0  0  0  0  0  0  0
   36.6710   33.6680   39.0030 H   0  0  0  0  0  0  0  0  0  0  0  0
   36.0480   31.2290   38.9210 H   0  0  0  0  0  0  0  0  0  0  0  0
  1  6  2  0  0  0  0
  1  2  1  0  0  0  0
  2  3  2  0  0  0  0
  3  4  1  0  0  0  0
  3  8  1  0  0  0  0
  4  9  1  0  0  0  0
  5 10  1  0  0  0  0
  5  4  2  0  0  0  0
  6  5  1  0  0  0  0
  7  2  1  0  0  0  0
 10 18  1  0  0  0  0
 11 10  1  0  0  0  0
 11 12  1  0  0  0  0
 13 15  1  0  0  0  0
 13 11  1  0  0  0  0
 14 13  1  0  0  0  0
 15 17  1  0  0  0  0
 16 15  1  0  0  0  0
 17 18  1  0  0  0  0
 19 25  1  0  0  0  0
 19 24  1  0  0  0  0
 20 19  2  0  0  0  0
 21 20  1  0  0  0  0
 21 22  2  0  0  0  0
 22 23  1  0  0  0  0
 23 24  2  0  0  0  0
 23  1  1  0  0  0  0
 26 20  1  0  0  0  0
 27 21  1  0  0  0  0
M  END
>  <minimizedAffinity>
-5.00833225

$$$$

 OpenBabel03242514043D

 27 29  0  0  0  0  0  0  0  0999 V2000
   38.8010   27.9220   42.2980 C   0  0  0  0  0  0  0  0  0  0  0  0
   37.5500   27.3350   42.3550 C   0  0  0  0  0  0  0  0  0  0  0  0
   36.3740   27.9450   41.9770 C   0  0  0  0  0  0  0  0  0  0  0  0
   36.5390   29.2630   41.5080 C   0  0  0  0  0  0  0  0  0  0  0  0
   37.7870   29.8550   41.4490 C   0  0  0  0  0  0  0  0  0  0  0  0
   38.8920   29.1750   41.8430 N   0  0  0  0  0  0  0  0  0  0  0  0
   37.5140   26.3170   42.7290 H   0  0  0  0  0  0  0  0  0  0  0  0
   35.4230   27.4640   42.0330 H   0  0  0  0  0  0  0  0  0  0  0  0
   35.6560   29.8030   41.1940 H   0  0  0  0  0  0  0  0  0  0  0  0
   37.9880   31.1770   40.9830 N   0  0  0  0  0  0  0  0  0  0  0  0
   39.1670   31.9900   41.1490 C   0  0  0  0  0  3  0  0  0  0  0  0
   38.8470   32.8680   41.7640 H   0  0  0  0  0  0  0  0  0  0  0  0
   39.6790   32.4960   39.8150 C   0  0  0  0  0  3  0  0  0  0  0  0
   39.8510   31.6060   39.1830 H   0  0  0  0  0  0  0  0  0  0  0  0
   38.6930   33.3370   39.1980 N   0  0  0  0  0  0  0  0  0  0  0  0
   39.0120   33.6110   38.2390 H   0  0  0  0  0  0  0  0  0  0  0  0
   37.5090   32.5070   38.9740 C   0  0  0  0  0  2  0  0  0  0  0  0
   37.0030   31.9120   40.2550 C   0  0  0  0  0  2  0  0  0  0  0  0
   42.1090   27.1620   43.6790 C   0  0  0  0  0  0  0  0  0  0  0  0
   42.1950   25.7630   43.5230 C   0  0  0  0  0  0  0  0  0  0  0  0
   41.0940   25.0960   42.9360 C   0  0  0  0  0  0  0  0  0  0  0  0
   40.0110   25.8480   42.5530 N   0  0  0  0  0  0  0  0  0  0  0  0
   39.9810   27.1790   42.7250 C   0  0  0  0  0  0  0  0  0  0  0  0
   41.0090   27.8380   43.2780 N   0  0  0  0  0  0  0  0  0  0  0  0
   42.9490   27.6720   44.1280 H   0  0  0  0  0  0  0  0  0  0  0  0
   43.0610   25.1950   43.8340 H   0  0  0  0  0  0  0  0  0  0  0  0
   41.0930   24.0230   42.7860 H   0  0  0  0  0  0  0  0  0  0  0  0
  1  2  1  0  0  0  0
  1 23  1  0  0  0  0
  2  7  1  0  0  0  0
  3  8  1  0  0  0  0
  3  2  2  0  0  0  0
  4  3  1  0  0  0  0
  5  4  2  0  0  0  0
  5  6  1  0  0  0  0
  6  1  2  0  0  0  0
  9  4  1  0  0  0  0
 10 11  1  0  0  0  0
 10  5  1  0  0  0  0
 11 12  1  0  0  0  0
 13 11  1  0  0  0  0
 14 13  1  0  0  0  0
 15 13  1  0  0  0  0
 16 15  1  0  0  0  0
 17 15  1  0  0  0  0
 17 18  1  0  0  0  0
 18 10  1  0  0  0  0
 19 25  1  0  0  0  0
 20 19  1  0  0  0  0
 20 26  1  0  0  0  0
 21 20  2  0  0  0  0
 22 23  2  0  0  0  0
 22 21  1  0  0  0  0
 23 24  1  0  0  0  0
 24 19  2  0  0  0  0
 27 21  1  0  0  0  0
M  END
>  <minimizedAffinity>
-4.92460537

$$$$

 OpenBabel03242514043D

 27 29  0  0  0  0  0  0  0  0999 V2000
   38.2010   29.2480   41.5680 C   0  0  0  0  0  0  0  0  0  0  0  0
   37.3800   29.2290   42.6810 C   0  0  0  0  0  0  0  0  0  0  0  0
   37.4270   28.2820   43.6800 C   0  0  0  0  0  0  0  0  0  0  0  0
   38.4090   27.2920   43.4830 C   0  0  0  0  0  0  0  0  0  0  0  0
   39.2320   27.3060   42.3720 C   0  0  0  0  0  0  0  0  0  0  0  0
   39.1140   28.2810   41.4390 N   0  0  0  0  0  0  0  0  0  0  0  0
   36.6510   30.0300   42.7530 H   0  0  0  0  0  0  0  0  0  0  0  0
   36.7780   28.2960   44.5270 H   0  0  0  0  0  0  0  0  0  0  0  0
   38.5020   26.5150   44.2300 H   0  0  0  0  0  0  0  0  0  0  0  0
   40.2300   26.3270   42.1440 N   0  0  0  0  0  0  0  0  0  0  0  0
   40.9310   26.0670   40.9110 C   0  0  0  0  0  3  0  0  0  0  0  0
   40.6520   25.0250   40.6160 H   0  0  0  0  0  0  0  0  0  0  0  0
   42.4320   26.1270   41.1090 C   0  0  0  0  0  3  0  0  0  0  0  0
   42.6570   27.1220   41.5350 H   0  0  0  0  0  0  0  0  0  0  0  0
   42.8470   25.1090   42.0310 N   0  0  0  0  0  0  0  0  0  0  0  0
   43.8700   25.2100   42.2350 H   0  0  0  0  0  0  0  0  0  0  0  0
   42.1830   25.3930   43.3040 C   0  0  0  0  0  2  0  0  0  0  0  0
   40.6910   25.4250   43.1520 C   0  0  0  0  0  2  0  0  0  0  0  0
   36.9880   32.2350   39.8260 C   0  0  0  0  0  0  0  0  0  0  0  0
   37.8150   32.2850   38.6840 C   0  0  0  0  0  0  0  0  0  0  0  0
   38.7920   31.2730   38.5330 C   0  0  0  0  0  0  0  0  0  0  0  0
   38.8750   30.3040   39.5030 N   0  0  0  0  0  0  0  0  0  0  0  0
   38.0630   30.3040   40.5710 C   0  0  0  0  0  0  0  0  0  0  0  0
   37.1280   31.2500   40.7410 N   0  0  0  0  0  0  0  0  0  0  0  0
   36.2420   33.0080   39.9420 H   0  0  0  0  0  0  0  0  0  0  0  0
   37.7270   33.0590   37.9350 H   0  0  0  0  0  0  0  0  0  0  0  0
   39.4600   31.2490   37.6810 H   0  0  0  0  0  0  0  0  0  0  0  0
  1  2  1  0  0  0  0
  2  7  1  0  0  0  0
  2  3  2  0  0  0  0
  3  8  1  0  0  0  0
  4  3  1  0  0  0  0
  4  9  1  0  0  0  0
  5  4  2  0  0  0  0
  6  1  2  0  0  0  0
  6  5  1  0  0  0  0
 10  5  1  0  0  0  0
 10 18  1  0  0  0  0
 11 13  1  0  0  0  0
 11 10  1  0  0  0  0
 12 11  1  0  0  0  0
 13 14  1  0  0  0  0
 13 15  1  0  0  0  0
 15 16  1  0  0  0  0
 15 17  1  0  0  0  0
 18 17  1  0  0  0  0
 19 25  1  0  0  0  0
 19 24  1  0  0  0  0
 20 19  2  0  0  0  0
 21 20  1  0  0  0  0
 21 22  2  0  0  0  0
 22 23  1  0  0  0  0
 23 24  2  0  0  0  0
 23  1  1  0  0  0  0
 26 20  1  0  0  0  0
 27 21  1  0  0  0  0
M  END
>  <minimizedAffinity>
-4.87237501

$$$$
