
 OpenBabel03252502193D

 33 35  0  0  1  0  0  0  0  0999 V2000
   46.9290   34.6430   42.2500 N   0  0  0  0  0  0  0  0  0  0  0  0
   48.3830   34.7140   42.3110 C   0  0  0  0  0  0  0  0  0  0  0  0
   48.7860   35.5090   41.0520 C   0  0  0  0  0  0  0  0  0  0  0  0
   48.4400   34.7300   39.8310 C   0  0  0  0  0  0  0  0  0  0  0  0
   47.1520   34.0120   39.8810 C   0  0  0  0  0  0  0  0  0  0  0  0
   46.2530   34.4060   41.0110 C   0  0  1  0  0  0  0  0  0  0  0  0
   48.6910   35.2660   43.2020 H   0  0  0  0  0  0  0  0  0  0  0  0
   48.8750   33.7310   42.1970 H   0  0  0  0  0  0  0  0  0  0  0  0
   49.8450   35.7900   41.0620 H   0  0  0  0  0  0  0  0  0  0  0  0
   48.1010   36.4030   41.0630 H   0  0  0  0  0  0  0  0  0  0  0  0
   49.2510   33.9590   39.7060 H   0  0  0  0  0  0  0  0  0  0  0  0
   48.5360   35.4280   38.9550 H   0  0  0  0  0  0  0  0  0  0  0  0
   46.5940   34.2390   38.9240 H   0  0  0  0  0  0  0  0  0  0  0  0
   47.2620   32.8930   39.8660 H   0  0  0  0  0  0  0  0  0  0  0  0
   45.8160   35.4040   40.7110 H   0  0  0  0  0  0  0  0  0  0  0  0
   44.4610   35.9300   44.7380 C   0  0  0  0  0  0  0  0  0  0  0  0
   45.2070   35.8400   43.5620 C   0  0  0  0  0  0  0  0  0  0  0  0
   46.1360   34.8050   43.4110 C   0  0  0  0  0  0  0  0  0  0  0  0
   46.2540   33.9360   44.4470 N   0  0  0  0  0  0  0  0  0  0  0  0
   45.5200   34.0430   45.5820 C   0  0  0  0  0  0  0  0  0  0  0  0
   44.6240   35.0480   45.7180 N   0  0  0  0  0  0  0  0  0  0  0  0
   43.7800   36.7720   44.7300 H   0  0  0  0  0  0  0  0  0  0  0  0
   45.1420   36.5080   42.7180 H   0  0  0  0  0  0  0  0  0  0  0  0
   45.6710   33.3140   46.3600 H   0  0  0  0  0  0  0  0  0  0  0  0
   45.1580   33.5300   41.2030 N   0  0  2  0  0  0  0  0  0  0  0  0
   43.9830   34.1120   41.7610 C   0  0  0  0  0  0  0  0  0  0  0  0
   43.6960   35.0300   41.2340 H   0  0  0  0  0  0  0  0  0  0  0  0
   42.8720   33.0840   41.5950 C   0  0  0  0  0  0  0  0  0  0  0  0
   42.9730   32.6140   40.6130 H   0  0  0  0  0  0  0  0  0  0  0  0
   43.1580   32.0290   42.5700 N   0  0  0  0  0  0  0  0  0  0  0  0
   42.6700   31.1470   42.3880 H   0  0  0  0  0  0  0  0  0  0  0  0
   44.5520   31.9130   42.8710 C   0  0  0  0  0  0  0  0  0  0  0  0
   45.4560   32.2350   41.7290 C   0  0  0  0  0  0  0  0  0  0  0  0
  1  2  1  0  0  0  0
  1 18  1  0  0  0  0
  2  7  1  0  0  0  0
  3  9  1  0  0  0  0
  3 10  1  0  0  0  0
  3  2  1  0  0  0  0
  4  5  1  0  0  0  0
  4  3  1  0  0  0  0
  5  6  1  0  0  0  0
  6 15  1  6  0  0  0
  6 25  1  0  0  0  0
  6  1  1  0  0  0  0
  8  2  1  0  0  0  0
 11  4  1  0  0  0  0
 12  4  1  0  0  0  0
 13  5  1  0  0  0  0
 14  5  1  0  0  0  0
 16 21  1  0  0  0  0
 17 16  2  0  0  0  0
 18 17  1  0  0  0  0
 18 19  2  0  0  0  0
 19 20  1  0  0  0  0
 20 21  2  0  0  0  0
 20 24  1  0  0  0  0
 22 16  1  0  0  0  0
 23 17  1  0  0  0  0
 25 33  1  1  0  0  0
 25 26  1  0  0  0  0
 27 26  1  0  0  0  0
 28 26  1  0  0  0  0
 28 30  1  0  0  0  0
 29 28  1  0  0  0  0
 30 32  1  0  0  0  0
 31 30  1  0  0  0  0
 33 32  1  0  0  0  0
M  END
>  <minimizedAffinity>
-5.74369001

>  <minimizedRMSD>
0.115258731

$$$$
