
 OpenBabel03252507273D

 27 29  0  0  0  0  0  0  0  0999 V2000
   37.3450   30.5820   40.7190 C   0  0  0  0  0  0  0  0  0  0  0  0
   35.9980   30.3920   40.3950 C   0  0  0  0  0  0  0  0  0  0  0  0
   35.4240   29.1310   40.6800 C   0  0  0  0  0  0  0  0  0  0  0  0
   36.2220   28.1730   41.2580 N   0  0  0  0  0  0  0  0  0  0  0  0
   37.5220   28.4240   41.5470 C   0  0  0  0  0  0  0  0  0  0  0  0
   38.0850   29.5990   41.2880 N   0  0  0  0  0  0  0  0  0  0  0  0
   35.4270   31.1890   39.9420 H   0  0  0  0  0  0  0  0  0  0  0  0
   34.4000   28.9510   40.4470 H   0  0  0  0  0  0  0  0  0  0  0  0
   38.3170   27.3530   42.1630 C   0  0  0  0  0  0  0  0  0  0  0  0
   39.3280   27.6690   43.0460 C   0  0  0  0  0  0  0  0  0  0  0  0
   40.1330   26.7470   43.6800 C   0  0  0  0  0  0  0  0  0  0  0  0
   39.8480   25.4260   43.3560 C   0  0  0  0  0  0  0  0  0  0  0  0
   38.8200   25.0880   42.4560 C   0  0  0  0  0  0  0  0  0  0  0  0
   38.0720   26.0660   41.8760 N   0  0  0  0  0  0  0  0  0  0  0  0
   39.4830   28.7130   43.2420 H   0  0  0  0  0  0  0  0  0  0  0  0
   40.9200   27.0100   44.3680 H   0  0  0  0  0  0  0  0  0  0  0  0
   40.4450   24.6520   43.8200 H   0  0  0  0  0  0  0  0  0  0  0  0
   38.6540   24.0550   42.2520 H   0  0  0  0  0  0  0  0  0  0  0  0
   38.0010   31.8160   40.4660 N   0  0  0  0  0  0  0  0  0  0  0  0
   39.2580   32.1890   41.0860 C   0  0  0  0  0  3  0  0  0  0  0  0
   39.0810   32.7360   42.0220 H   0  0  0  0  0  0  0  0  0  0  0  0
   40.1540   32.9780   40.1690 C   0  0  0  0  0  3  0  0  0  0  0  0
   40.9980   33.3500   40.7620 H   0  0  0  0  0  0  0  0  0  0  0  0
   39.4660   34.0920   39.5520 N   0  0  0  0  0  0  0  0  0  0  0  0
   39.9800   34.9780   39.7440 H   0  0  0  0  0  0  0  0  0  0  0  0
   38.0760   34.1590   39.9710 C   0  0  0  0  0  2  0  0  0  0  0  0
   37.4690   32.8120   39.5630 C   0  0  0  0  0  2  0  0  0  0  0  0
  1  6  1  0  0  0  0
  2  3  1  0  0  0  0
  2  1  2  0  0  0  0
  3  4  2  0  0  0  0
  4  5  1  0  0  0  0
  5  9  1  0  0  0  0
  6  5  2  0  0  0  0
  7  2  1  0  0  0  0
  8  3  1  0  0  0  0
  9 10  1  0  0  0  0
 10 15  1  0  0  0  0
 10 11  2  0  0  0  0
 11 16  1  0  0  0  0
 12 11  1  0  0  0  0
 12 17  1  0  0  0  0
 13 12  2  0  0  0  0
 14  9  2  0  0  0  0
 14 13  1  0  0  0  0
 18 13  1  0  0  0  0
 19  1  1  0  0  0  0
 19 20  1  0  0  0  0
 20 21  1  0  0  0  0
 22 23  1  0  0  0  0
 22 20  1  0  0  0  0
 24 25  1  0  0  0  0
 24 26  1  0  0  0  0
 24 22  1  0  0  0  0
 27 26  1  0  0  0  0
 27 19  1  0  0  0  0
M  END
>  <minimizedAffinity>
-5.32213688

$$$$

 OpenBabel03252507273D

 27 29  0  0  0  0  0  0  0  0999 V2000
   38.6720   30.0990   40.4890 C   0  0  0  0  0  0  0  0  0  0  0  0
   38.9890   30.5830   41.7610 C   0  0  0  0  0  0  0  0  0  0  0  0
   38.7870   29.7190   42.8630 C   0  0  0  0  0  0  0  0  0  0  0  0
   38.2940   28.4600   42.6160 N   0  0  0  0  0  0  0  0  0  0  0  0
   38.0080   28.0550   41.3550 C   0  0  0  0  0  0  0  0  0  0  0  0
   38.1870   28.8460   40.3050 N   0  0  0  0  0  0  0  0  0  0  0  0
   39.3730   31.5850   41.8850 H   0  0  0  0  0  0  0  0  0  0  0  0
   39.0190   30.0540   43.8480 H   0  0  0  0  0  0  0  0  0  0  0  0
   37.4830   26.6960   41.1640 C   0  0  0  0  0  0  0  0  0  0  0  0
   37.3760   25.8420   42.2420 C   0  0  0  0  0  0  0  0  0  0  0  0
   36.9000   24.5510   42.1770 C   0  0  0  0  0  0  0  0  0  0  0  0
   36.5190   24.1500   40.9030 C   0  0  0  0  0  0  0  0  0  0  0  0
   36.6220   25.0080   39.7920 C   0  0  0  0  0  0  0  0  0  0  0  0
   37.1050   26.2710   39.9490 N   0  0  0  0  0  0  0  0  0  0  0  0
   37.6920   26.2300   43.1920 H   0  0  0  0  0  0  0  0  0  0  0  0
   36.8230   23.8960   43.0300 H   0  0  0  0  0  0  0  0  0  0  0  0
   36.1360   23.1440   40.7820 H   0  0  0  0  0  0  0  0  0  0  0  0
   36.3120   24.6370   38.8420 H   0  0  0  0  0  0  0  0  0  0  0  0
   38.8430   30.9000   39.3280 N   0  0  0  0  0  0  0  0  0  0  0  0
   39.5890   32.1430   39.3240 C   0  0  0  0  0  3  0  0  0  0  0  0
   38.9260   32.9930   39.5340 H   0  0  0  0  0  0  0  0  0  0  0  0
   40.3520   32.3670   38.0450 C   0  0  0  0  0  3  0  0  0  0  0  0
   40.7490   33.3890   38.0650 H   0  0  0  0  0  0  0  0  0  0  0  0
   39.5230   32.1910   36.8720 N   0  0  0  0  0  0  0  0  0  0  0  0
   39.5640   33.0460   36.2760 H   0  0  0  0  0  0  0  0  0  0  0  0
   38.1610   31.8340   37.2300 C   0  0  0  0  0  2  0  0  0  0  0  0
   38.2870   30.5400   38.0430 C   0  0  0  0  0  2  0  0  0  0  0  0
  1  2  1  0  0  0  0
  2  7  1  0  0  0  0
  2  3  2  0  0  0  0
  3  8  1  0  0  0  0
  4  3  1  0  0  0  0
  5  4  2  0  0  0  0
  6  1  2  0  0  0  0
  6  5  1  0  0  0  0
  9  5  1  0  0  0  0
  9 10  1  0  0  0  0
 10 15  1  0  0  0  0
 11 10  2  0  0  0  0
 11 16  1  0  0  0  0
 12 11  1  0  0  0  0
 13 14  1  0  0  0  0
 13 12  2  0  0  0  0
 14  9  2  0  0  0  0
 17 12  1  0  0  0  0
 18 13  1  0  0  0  0
 19  1  1  0  0  0  0
 20 19  1  0  0  0  0
 20 21  1  0  0  0  0
 22 23  1  0  0  0  0
 22 20  1  0  0  0  0
 24 26  1  0  0  0  0
 24 22  1  0  0  0  0
 25 24  1  0  0  0  0
 26 27  1  0  0  0  0
 27 19  1  0  0  0  0
M  END
>  <minimizedAffinity>
-5.07899857

$$$$

 OpenBabel03252507273D

 27 29  0  0  0  0  0  0  0  0999 V2000
   37.5280   28.2480   41.6330 C   0  0  0  0  0  0  0  0  0  0  0  0
   36.1850   28.0620   41.2940 C   0  0  0  0  0  0  0  0  0  0  0  0
   35.4980   29.1520   40.7100 C   0  0  0  0  0  0  0  0  0  0  0  0
   36.1910   30.3230   40.5100 N   0  0  0  0  0  0  0  0  0  0  0  0
   37.4940   30.4330   40.8630 C   0  0  0  0  0  0  0  0  0  0  0  0
   38.1620   29.4260   41.4140 N   0  0  0  0  0  0  0  0  0  0  0  0
   35.7000   27.1150   41.4780 H   0  0  0  0  0  0  0  0  0  0  0  0
   34.4730   29.0470   40.4380 H   0  0  0  0  0  0  0  0  0  0  0  0
   38.1730   31.7140   40.6220 C   0  0  0  0  0  0  0  0  0  0  0  0
   37.4620   32.7860   40.1240 C   0  0  0  0  0  0  0  0  0  0  0  0
   37.9970   34.0280   39.8610 C   0  0  0  0  0  0  0  0  0  0  0  0
   39.3540   34.1340   40.1420 C   0  0  0  0  0  0  0  0  0  0  0  0
   40.0930   33.0500   40.6510 C   0  0  0  0  0  0  0  0  0  0  0  0
   39.4820   31.8560   40.8810 N   0  0  0  0  0  0  0  0  0  0  0  0
   36.4190   32.6200   39.9340 H   0  0  0  0  0  0  0  0  0  0  0  0
   37.4280   34.8560   39.4710 H   0  0  0  0  0  0  0  0  0  0  0  0
   39.8360   35.0860   39.9570 H   0  0  0  0  0  0  0  0  0  0  0  0
   41.1310   33.1980   40.8440 H   0  0  0  0  0  0  0  0  0  0  0  0
   38.2930   27.2070   42.2240 N   0  0  0  0  0  0  0  0  0  0  0  0
   37.7580   25.8880   42.5030 C   0  0  0  0  0  3  0  0  0  0  0  0
   37.3390   25.8470   43.5180 H   0  0  0  0  0  0  0  0  0  0  0  0
   38.7660   24.7890   42.2980 C   0  0  0  0  0  3  0  0  0  0  0  0
   38.3310   23.8580   42.6820 H   0  0  0  0  0  0  0  0  0  0  0  0
   40.0170   25.0560   42.9760 N   0  0  0  0  0  0  0  0  0  0  0  0
   40.2560   24.2610   43.6070 H   0  0  0  0  0  0  0  0  0  0  0  0
   39.9820   26.3270   43.6790 C   0  0  0  0  0  2  0  0  0  0  0  0
   39.6790   27.3730   42.5990 C   0  0  0  0  0  2  0  0  0  0  0  0
  1 19  1  0  0  0  0
  2  7  1  0  0  0  0
  2  1  2  0  0  0  0
  3  2  1  0  0  0  0
  4  3  2  0  0  0  0
  4  5  1  0  0  0  0
  5  6  2  0  0  0  0
  6  1  1  0  0  0  0
  8  3  1  0  0  0  0
  9  5  1  0  0  0  0
  9 14  1  0  0  0  0
 10  9  2  0  0  0  0
 11 10  1  0  0  0  0
 11 12  2  0  0  0  0
 12 13  1  0  0  0  0
 13 18  1  0  0  0  0
 13 14  2  0  0  0  0
 15 10  1  0  0  0  0
 16 11  1  0  0  0  0
 17 12  1  0  0  0  0
 19 20  1  0  0  0  0
 19 27  1  0  0  0  0
 20 21  1  0  0  0  0
 22 20  1  0  0  0  0
 22 23  1  0  0  0  0
 22 24  1  0  0  0  0
 24 25  1  0  0  0  0
 24 26  1  0  0  0  0
 27 26  1  0  0  0  0
M  END
>  <minimizedAffinity>
-4.90370083

$$$$

 OpenBabel03252507273D

 27 29  0  0  0  0  0  0  0  0999 V2000
   37.5000   29.6040   39.6740 C   0  0  0  0  0  0  0  0  0  0  0  0
   36.1290   29.7430   39.9120 C   0  0  0  0  0  0  0  0  0  0  0  0
   35.5480   28.9200   40.9050 C   0  0  0  0  0  0  0  0  0  0  0  0
   36.3630   28.0380   41.5740 N   0  0  0  0  0  0  0  0  0  0  0  0
   37.6860   27.9560   41.2920 C   0  0  0  0  0  0  0  0  0  0  0  0
   38.2560   28.7160   40.3650 N   0  0  0  0  0  0  0  0  0  0  0  0
   35.5460   30.4570   39.3500 H   0  0  0  0  0  0  0  0  0  0  0  0
   34.5060   29.0000   41.1140 H   0  0  0  0  0  0  0  0  0  0  0  0
   38.4980   26.9900   42.0450 C   0  0  0  0  0  0  0  0  0  0  0  0
   39.4600   27.4390   42.9250 C   0  0  0  0  0  0  0  0  0  0  0  0
   40.2760   26.6240   43.6790 C   0  0  0  0  0  0  0  0  0  0  0  0
   40.0560   25.2650   43.4870 C   0  0  0  0  0  0  0  0  0  0  0  0
   39.0780   24.7910   42.5930 C   0  0  0  0  0  0  0  0  0  0  0  0
   38.3150   25.6700   41.8870 N   0  0  0  0  0  0  0  0  0  0  0  0
   39.5660   28.5030   43.0150 H   0  0  0  0  0  0  0  0  0  0  0  0
   41.0250   26.9910   44.3630 H   0  0  0  0  0  0  0  0  0  0  0  0
   40.6650   24.5700   44.0510 H   0  0  0  0  0  0  0  0  0  0  0  0
   38.9600   23.7360   42.4930 H   0  0  0  0  0  0  0  0  0  0  0  0
   38.1650   30.3900   38.6950 N   0  0  0  0  0  0  0  0  0  0  0  0
   37.7430   30.4550   37.3080 C   0  0  0  0  0  3  0  0  0  0  0  0
   38.2560   29.6880   36.7120 H   0  0  0  0  0  0  0  0  0  0  0  0
   37.9330   31.8180   36.6990 C   0  0  0  0  0  3  0  0  0  0  0  0
   37.7440   31.7350   35.6220 H   0  0  0  0  0  0  0  0  0  0  0  0
   39.2660   32.3390   36.9190 N   0  0  0  0  0  0  0  0  0  0  0  0
   39.7030   32.5930   36.0070 H   0  0  0  0  0  0  0  0  0  0  0  0
   40.0820   31.4100   37.6820 C   0  0  0  0  0  2  0  0  0  0  0  0
   39.3230   31.1990   38.9980 C   0  0  0  0  0  2  0  0  0  0  0  0
  1  2  2  0  0  0  0
  1  6  1  0  0  0  0
  2  3  1  0  0  0  0
  3  8  1  0  0  0  0
  3  4  2  0  0  0  0
  5  4  1  0  0  0  0
  5  9  1  0  0  0  0
  6  5  2  0  0  0  0
  7  2  1  0  0  0  0
  9 10  1  0  0  0  0
 10 15  1  0  0  0  0
 10 11  2  0  0  0  0
 11 16  1  0  0  0  0
 12 11  1  0  0  0  0
 12 17  1  0  0  0  0
 13 12  2  0  0  0  0
 14  9  2  0  0  0  0
 14 13  1  0  0  0  0
 18 13  1  0  0  0  0
 19 27  1  0  0  0  0
 19  1  1  0  0  0  0
 20 19  1  0  0  0  0
 21 20  1  0  0  0  0
 22 24  1  0  0  0  0
 22 20  1  0  0  0  0
 23 22  1  0  0  0  0
 24 26  1  0  0  0  0
 25 24  1  0  0  0  0
 26 27  1  0  0  0  0
M  END
>  <minimizedAffinity>
-4.8823204

$$$$

 OpenBabel03252507273D

 27 29  0  0  0  0  0  0  0  0999 V2000
   36.7280   29.9010   39.0090 C   0  0  0  0  0  0  0  0  0  0  0  0
   35.9960   29.8670   37.8180 C   0  0  0  0  0  0  0  0  0  0  0  0
   35.4700   28.6210   37.4050 C   0  0  0  0  0  0  0  0  0  0  0  0
   35.7090   27.5230   38.1970 N   0  0  0  0  0  0  0  0  0  0  0  0
   36.4270   27.6270   39.3410 C   0  0  0  0  0  0  0  0  0  0  0  0
   36.9320   28.7850   39.7510 N   0  0  0  0  0  0  0  0  0  0  0  0
   35.8460   30.7680   37.2430 H   0  0  0  0  0  0  0  0  0  0  0  0
   34.9070   28.5580   36.5030 H   0  0  0  0  0  0  0  0  0  0  0  0
   36.6440   26.4130   40.1390 C   0  0  0  0  0  0  0  0  0  0  0  0
   37.1240   26.5130   41.4270 C   0  0  0  0  0  0  0  0  0  0  0  0
   37.3640   25.4420   42.2610 C   0  0  0  0  0  0  0  0  0  0  0  0
   37.0790   24.2060   41.6950 C   0  0  0  0  0  0  0  0  0  0  0  0
   36.5890   24.0860   40.3810 C   0  0  0  0  0  0  0  0  0  0  0  0
   36.3810   25.2000   39.6270 N   0  0  0  0  0  0  0  0  0  0  0  0
   37.3180   27.5050   41.7890 H   0  0  0  0  0  0  0  0  0  0  0  0
   37.7400   25.5380   43.2670 H   0  0  0  0  0  0  0  0  0  0  0  0
   37.2460   23.3230   42.2990 H   0  0  0  0  0  0  0  0  0  0  0  0
   36.3910   23.1080   40.0070 H   0  0  0  0  0  0  0  0  0  0  0  0
   37.2920   31.1100   39.4980 N   0  0  0  0  0  0  0  0  0  0  0  0
   37.4440   32.3010   38.6840 C   0  0  0  0  0  3  0  0  0  0  0  0
   38.4240   32.3100   38.1900 H   0  0  0  0  0  0  0  0  0  0  0  0
   37.2260   33.5740   39.4590 C   0  0  0  0  0  3  0  0  0  0  0  0
   37.5160   34.4130   38.8150 H   0  0  0  0  0  0  0  0  0  0  0  0
   37.9980   33.6120   40.6820 N   0  0  0  0  0  0  0  0  0  0  0  0
   38.5860   34.4730   40.7050 H   0  0  0  0  0  0  0  0  0  0  0  0
   38.7840   32.4020   40.8550 C   0  0  0  0  0  2  0  0  0  0  0  0
   37.7630   31.2580   40.8560 C   0  0  0  0  0  2  0  0  0  0  0  0
  1 19  1  0  0  0  0
  1  6  1  0  0  0  0
  2  1  2  0  0  0  0
  3  2  1  0  0  0  0
  3  4  2  0  0  0  0
  4  5  1  0  0  0  0
  5  6  2  0  0  0  0
  5  9  1  0  0  0  0
  7  2  1  0  0  0  0
  8  3  1  0  0  0  0
  9 10  1  0  0  0  0
 10 15  1  0  0  0  0
 10 11  2  0  0  0  0
 11 16  1  0  0  0  0
 12 11  1  0  0  0  0
 12 17  1  0  0  0  0
 13 12  2  0  0  0  0
 14  9  2  0  0  0  0
 14 13  1  0  0  0  0
 18 13  1  0  0  0  0
 19 27  1  0  0  0  0
 20 22  1  0  0  0  0
 20 19  1  0  0  0  0
 21 20  1  0  0  0  0
 22 24  1  0  0  0  0
 23 22  1  0  0  0  0
 24 25  1  0  0  0  0
 24 26  1  0  0  0  0
 26 27  1  0  0  0  0
M  END
>  <minimizedAffinity>
-4.83508301

$$$$

 OpenBabel03252507273D

 27 29  0  0  0  0  0  0  0  0999 V2000
   38.3450   31.0250   39.9880 C   0  0  0  0  0  0  0  0  0  0  0  0
   37.1590   31.6440   40.3970 C   0  0  0  0  0  0  0  0  0  0  0  0
   36.1990   30.8480   41.0640 C   0  0  0  0  0  0  0  0  0  0  0  0
   36.4880   29.5210   41.2710 N   0  0  0  0  0  0  0  0  0  0  0  0
   37.6590   28.9850   40.8480 C   0  0  0  0  0  0  0  0  0  0  0  0
   38.5770   29.7100   40.2180 N   0  0  0  0  0  0  0  0  0  0  0  0
   36.9950   32.6930   40.2020 H   0  0  0  0  0  0  0  0  0  0  0  0
   35.2840   31.2870   41.3910 H   0  0  0  0  0  0  0  0  0  0  0  0
   37.9020   27.5590   41.1010 C   0  0  0  0  0  0  0  0  0  0  0  0
   37.0480   26.8500   41.9200 C   0  0  0  0  0  0  0  0  0  0  0  0
   37.1820   25.5130   42.2250 C   0  0  0  0  0  0  0  0  0  0  0  0
   38.2780   24.9020   41.6300 C   0  0  0  0  0  0  0  0  0  0  0  0
   39.1600   25.6100   40.7920 C   0  0  0  0  0  0  0  0  0  0  0  0
   38.9510   26.9320   40.5450 N   0  0  0  0  0  0  0  0  0  0  0  0
   36.2250   27.3970   42.3390 H   0  0  0  0  0  0  0  0  0  0  0  0
   36.5050   24.9740   42.8680 H   0  0  0  0  0  0  0  0  0  0  0  0
   38.4410   23.8500   41.8290 H   0  0  0  0  0  0  0  0  0  0  0  0
   39.9810   25.0810   40.3670 H   0  0  0  0  0  0  0  0  0  0  0  0
   39.3630   31.7490   39.3110 N   0  0  0  0  0  0  0  0  0  0  0  0
   40.3200   31.1260   38.4170 C   0  0  0  0  0  3  0  0  0  0  0  0
   41.2200   30.8190   38.9670 H   0  0  0  0  0  0  0  0  0  0  0  0
   40.6830   31.9970   37.2440 C   0  0  0  0  0  3  0  0  0  0  0  0
   41.5190   31.5210   36.7180 H   0  0  0  0  0  0  0  0  0  0  0  0
   41.0620   33.3340   37.6490 N   0  0  0  0  0  0  0  0  0  0  0  0
   42.0060   33.5650   37.2730 H   0  0  0  0  0  0  0  0  0  0  0  0
   40.9870   33.4970   39.0900 C   0  0  0  0  0  2  0  0  0  0  0  0
   39.5320   33.1770   39.4540 C   0  0  0  0  0  2  0  0  0  0  0  0
  1  6  2  0  0  0  0
  1  2  1  0  0  0  0
  2  3  2  0  0  0  0
  3  4  1  0  0  0  0
  3  8  1  0  0  0  0
  5  9  1  0  0  0  0
  5  4  2  0  0  0  0
  6  5  1  0  0  0  0
  7  2  1  0  0  0  0
  9 10  1  0  0  0  0
 10 11  2  0  0  0  0
 10 15  1  0  0  0  0
 11 16  1  0  0  0  0
 12 17  1  0  0  0  0
 12 11  1  0  0  0  0
 13 12  2  0  0  0  0
 14 13  1  0  0  0  0
 14  9  2  0  0  0  0
 18 13  1  0  0  0  0
 19 27  1  0  0  0  0
 19  1  1  0  0  0  0
 20 21  1  0  0  0  0
 20 19  1  0  0  0  0
 22 24  1  0  0  0  0
 22 20  1  0  0  0  0
 23 22  1  0  0  0  0
 24 26  1  0  0  0  0
 25 24  1  0  0  0  0
 26 27  1  0  0  0  0
M  END
>  <minimizedAffinity>
-4.79458523

$$$$

 OpenBabel03252507273D

 27 29  0  0  0  0  0  0  0  0999 V2000
   37.1620   27.1340   41.5170 C   0  0  0  0  0  0  0  0  0  0  0  0
   37.2650   26.9690   42.9020 C   0  0  0  0  0  0  0  0  0  0  0  0
   37.5620   28.1120   43.6800 C   0  0  0  0  0  0  0  0  0  0  0  0
   37.7290   29.3120   43.0300 N   0  0  0  0  0  0  0  0  0  0  0  0
   37.6150   29.4000   41.6830 C   0  0  0  0  0  0  0  0  0  0  0  0
   37.3370   28.3430   40.9300 N   0  0  0  0  0  0  0  0  0  0  0  0
   37.1220   25.9960   43.3480 H   0  0  0  0  0  0  0  0  0  0  0  0
   37.6480   28.0240   44.7380 H   0  0  0  0  0  0  0  0  0  0  0  0
   37.8070   30.7150   41.0540 C   0  0  0  0  0  0  0  0  0  0  0  0
   36.9400   31.1380   40.0690 C   0  0  0  0  0  0  0  0  0  0  0  0
   37.0280   32.3480   39.4140 C   0  0  0  0  0  0  0  0  0  0  0  0
   38.0880   33.1430   39.8290 C   0  0  0  0  0  0  0  0  0  0  0  0
   38.9820   32.7250   40.8330 C   0  0  0  0  0  0  0  0  0  0  0  0
   38.8200   31.5120   41.4270 N   0  0  0  0  0  0  0  0  0  0  0  0
   36.1470   30.4640   39.8070 H   0  0  0  0  0  0  0  0  0  0  0  0
   36.3420   32.6640   38.6440 H   0  0  0  0  0  0  0  0  0  0  0  0
   38.2140   34.1080   39.3530 H   0  0  0  0  0  0  0  0  0  0  0  0
   39.7740   33.3840   41.1040 H   0  0  0  0  0  0  0  0  0  0  0  0
   36.8670   26.0390   40.6610 N   0  0  0  0  0  0  0  0  0  0  0  0
   36.4620   26.2000   39.2780 C   0  0  0  0  0  3  0  0  0  0  0  0
   35.3680   26.2610   39.1990 H   0  0  0  0  0  0  0  0  0  0  0  0
   37.0000   25.1200   38.3780 C   0  0  0  0  0  3  0  0  0  0  0  0
   36.5190   25.2280   37.3980 H   0  0  0  0  0  0  0  0  0  0  0  0
   36.7490   23.7930   38.8990 N   0  0  0  0  0  0  0  0  0  0  0  0
   36.2440   23.2220   38.1880 H   0  0  0  0  0  0  0  0  0  0  0  0
   36.0440   23.8430   40.1680 C   0  0  0  0  0  2  0  0  0  0  0  0
   36.9490   24.6630   41.0960 C   0  0  0  0  0  2  0  0  0  0  0  0
  1  2  1  0  0  0  0
  2  7  1  0  0  0  0
  2  3  2  0  0  0  0
  3  8  1  0  0  0  0
  4  3  1  0  0  0  0
  5  4  2  0  0  0  0
  6  1  2  0  0  0  0
  6  5  1  0  0  0  0
  9 14  1  0  0  0  0
  9  5  1  0  0  0  0
 10  9  2  0  0  0  0
 11 12  2  0  0  0  0
 11 10  1  0  0  0  0
 12 13  1  0  0  0  0
 13 18  1  0  0  0  0
 13 14  2  0  0  0  0
 15 10  1  0  0  0  0
 16 11  1  0  0  0  0
 17 12  1  0  0  0  0
 19 27  1  0  0  0  0
 19  1  1  0  0  0  0
 20 19  1  0  0  0  0
 21 20  1  0  0  0  0
 22 24  1  0  0  0  0
 22 20  1  0  0  0  0
 23 22  1  0  0  0  0
 24 26  1  0  0  0  0
 25 24  1  0  0  0  0
 26 27  1  0  0  0  0
M  END
>  <minimizedAffinity>
-4.78502798

$$$$

 OpenBabel03252507273D

 27 29  0  0  0  0  0  0  0  0999 V2000
   37.1120   30.1030   38.9900 C   0  0  0  0  0  0  0  0  0  0  0  0
   36.5660   30.0340   37.7050 C   0  0  0  0  0  0  0  0  0  0  0  0
   36.0810   28.7810   37.2630 C   0  0  0  0  0  0  0  0  0  0  0  0
   36.1740   27.7110   38.1210 N   0  0  0  0  0  0  0  0  0  0  0  0
   36.7160   27.8490   39.3550 C   0  0  0  0  0  0  0  0  0  0  0  0
   37.1790   29.0140   39.7940 N   0  0  0  0  0  0  0  0  0  0  0  0
   36.5230   30.9150   37.0810 H   0  0  0  0  0  0  0  0  0  0  0  0
   35.6580   28.6920   36.2890 H   0  0  0  0  0  0  0  0  0  0  0  0
   36.7850   26.6630   40.2200 C   0  0  0  0  0  0  0  0  0  0  0  0
   36.5170   25.4150   39.6980 C   0  0  0  0  0  0  0  0  0  0  0  0
   36.5510   24.2400   40.4170 C   0  0  0  0  0  0  0  0  0  0  0  0
   36.8870   24.4020   41.7550 C   0  0  0  0  0  0  0  0  0  0  0  0
   37.1630   25.6690   42.3030 C   0  0  0  0  0  0  0  0  0  0  0  0
   37.1050   26.7790   41.5180 N   0  0  0  0  0  0  0  0  0  0  0  0
   36.2660   25.3780   38.6550 H   0  0  0  0  0  0  0  0  0  0  0  0
   36.3390   23.2720   39.9940 H   0  0  0  0  0  0  0  0  0  0  0  0
   36.9320   23.5160   42.3760 H   0  0  0  0  0  0  0  0  0  0  0  0
   37.4140   25.7230   43.3380 H   0  0  0  0  0  0  0  0  0  0  0  0
   37.6220   31.3210   39.5140 N   0  0  0  0  0  0  0  0  0  0  0  0
   37.5930   32.5740   38.7830 C   0  0  0  0  0  3  0  0  0  0  0  0
   38.5140   32.7030   38.1990 H   0  0  0  0  0  0  0  0  0  0  0  0
   37.3530   33.7660   39.6700 C   0  0  0  0  0  3  0  0  0  0  0  0
   37.5060   34.6700   39.0680 H   0  0  0  0  0  0  0  0  0  0  0  0
   38.2400   33.7890   40.8130 N   0  0  0  0  0  0  0  0  0  0  0  0
   38.7550   34.6950   40.8460 H   0  0  0  0  0  0  0  0  0  0  0  0
   39.1360   32.6450   40.8170 C   0  0  0  0  0  2  0  0  0  0  0  0
   38.2170   31.4180   40.8280 C   0  0  0  0  0  2  0  0  0  0  0  0
  1 19  1  0  0  0  0
  1  6  1  0  0  0  0
  2  1  2  0  0  0  0
  3  2  1  0  0  0  0
  3  4  2  0  0  0  0
  4  5  1  0  0  0  0
  5  6  2  0  0  0  0
  5  9  1  0  0  0  0
  7  2  1  0  0  0  0
  8  3  1  0  0  0  0
  9 14  1  0  0  0  0
 10  9  2  0  0  0  0
 10 11  1  0  0  0  0
 11 12  2  0  0  0  0
 12 13  1  0  0  0  0
 12 17  1  0  0  0  0
 13 18  1  0  0  0  0
 14 13  2  0  0  0  0
 15 10  1  0  0  0  0
 16 11  1  0  0  0  0
 19 27  1  0  0  0  0
 20 19  1  0  0  0  0
 20 22  1  0  0  0  0
 21 20  1  0  0  0  0
 22 24  1  0  0  0  0
 23 22  1  0  0  0  0
 24 26  1  0  0  0  0
 24 25  1  0  0  0  0
 26 27  1  0  0  0  0
M  END
>  <minimizedAffinity>
-4.77485037

$$$$

 OpenBabel03252507273D

 27 29  0  0  0  0  0  0  0  0999 V2000
   37.2830   30.2540   38.8250 C   0  0  0  0  0  0  0  0  0  0  0  0
   36.5460   30.1760   37.6400 C   0  0  0  0  0  0  0  0  0  0  0  0
   35.8820   28.9590   37.3580 C   0  0  0  0  0  0  0  0  0  0  0  0
   36.0000   27.9320   38.2630 N   0  0  0  0  0  0  0  0  0  0  0  0
   36.7320   28.0770   39.3950 C   0  0  0  0  0  0  0  0  0  0  0  0
   37.3650   29.2080   39.6830 N   0  0  0  0  0  0  0  0  0  0  0  0
   36.4950   31.0220   36.9710 H   0  0  0  0  0  0  0  0  0  0  0  0
   35.3100   28.8640   36.4630 H   0  0  0  0  0  0  0  0  0  0  0  0
   36.8160   26.9370   40.3180 C   0  0  0  0  0  0  0  0  0  0  0  0
   37.0160   27.1560   41.6650 C   0  0  0  0  0  0  0  0  0  0  0  0
   37.1110   26.1640   42.6160 C   0  0  0  0  0  0  0  0  0  0  0  0
   36.9860   24.8770   42.1090 C   0  0  0  0  0  0  0  0  0  0  0  0
   36.7820   24.6360   40.7370 C   0  0  0  0  0  0  0  0  0  0  0  0
   36.7010   25.6780   39.8660 N   0  0  0  0  0  0  0  0  0  0  0  0
   37.1010   28.1800   41.9740 H   0  0  0  0  0  0  0  0  0  0  0  0
   37.2680   26.3520   43.6660 H   0  0  0  0  0  0  0  0  0  0  0  0
   37.0520   24.0500   42.8050 H   0  0  0  0  0  0  0  0  0  0  0  0
   36.6950   23.6240   40.4140 H   0  0  0  0  0  0  0  0  0  0  0  0
   37.9810   31.4380   39.1870 N   0  0  0  0  0  0  0  0  0  0  0  0
   39.3990   31.4620   39.4890 C   0  0  0  0  0  3  0  0  0  0  0  0
   39.5690   31.3070   40.5630 H   0  0  0  0  0  0  0  0  0  0  0  0
   40.0790   32.7210   39.0200 C   0  0  0  0  0  3  0  0  0  0  0  0
   41.0970   32.7250   39.4270 H   0  0  0  0  0  0  0  0  0  0  0  0
   39.3810   33.9150   39.4450 N   0  0  0  0  0  0  0  0  0  0  0  0
   40.0320   34.5410   39.9670 H   0  0  0  0  0  0  0  0  0  0  0  0
   38.1920   33.5920   40.2150 C   0  0  0  0  0  2  0  0  0  0  0  0
   37.3350   32.7270   39.2820 C   0  0  0  0  0  2  0  0  0  0  0  0
  1 19  1  0  0  0  0
  1  6  1  0  0  0  0
  2  1  2  0  0  0  0
  3  2  1  0  0  0  0
  3  4  2  0  0  0  0
  4  5  1  0  0  0  0
  5  6  2  0  0  0  0
  5  9  1  0  0  0  0
  7  2  1  0  0  0  0
  8  3  1  0  0  0  0
  9 10  1  0  0  0  0
 10 15  1  0  0  0  0
 10 11  2  0  0  0  0
 11 16  1  0  0  0  0
 12 11  1  0  0  0  0
 12 17  1  0  0  0  0
 13 12  2  0  0  0  0
 14  9  2  0  0  0  0
 14 13  1  0  0  0  0
 18 13  1  0  0  0  0
 19 27  1  0  0  0  0
 19 20  1  0  0  0  0
 20 21  1  0  0  0  0
 22 23  1  0  0  0  0
 22 24  1  0  0  0  0
 22 20  1  0  0  0  0
 24 25  1  0  0  0  0
 24 26  1  0  0  0  0
 27 26  1  0  0  0  0
M  END
>  <minimizedAffinity>
-4.74454641

$$$$
