
 OpenBabel03252509283D

 21 22  0  0  0  0  0  0  0  0999 V2000
   46.2500   34.0370   43.8800 C   0  0  0  0  0  0  0  0  0  0  0  0
   46.2830   33.0500   44.3820 H   0  0  0  0  0  0  0  0  0  0  0  0
   46.0940   34.7680   44.7180 H   0  0  0  0  0  0  0  0  0  0  0  0
   43.4500   32.9560   41.6870 C   0  0  0  0  0  0  0  0  0  0  0  0
   44.6050   32.8970   42.5050 C   0  0  0  0  0  0  0  0  0  0  0  0
   45.0550   34.1100   43.0350 C   0  0  0  0  0  0  0  0  0  0  0  0
   44.3960   35.2640   42.7580 N   0  0  0  0  0  0  0  0  0  0  0  0
   43.2870   35.2530   41.9600 C   0  0  0  0  0  0  0  0  0  0  0  0
   42.8260   34.1150   41.4360 N   0  0  0  0  0  0  0  0  0  0  0  0
   43.0310   32.0670   41.2350 H   0  0  0  0  0  0  0  0  0  0  0  0
   45.0760   31.9390   42.6820 H   0  0  0  0  0  0  0  0  0  0  0  0
   42.7580   36.1780   41.7360 H   0  0  0  0  0  0  0  0  0  0  0  0
   47.4710   34.4060   43.2400 N   0  0  0  0  0  0  0  0  0  0  0  0
   48.2450   33.1960   43.0240 C   0  0  0  0  0  3  0  0  0  0  0  0
   49.2700   33.2970   43.4510 H   0  0  0  0  0  0  0  0  0  0  0  0
   48.4230   32.8960   41.5540 C   0  0  0  0  0  3  0  0  0  0  0  0
   47.4640   32.7300   41.0320 H   0  0  0  0  0  0  0  0  0  0  0  0
   49.1930   33.9490   40.9610 N   0  0  0  0  0  0  0  0  0  0  0  0
   50.1800   33.9070   41.2820 H   0  0  0  0  0  0  0  0  0  0  0  0
   48.6630   35.2530   41.3350 C   0  0  0  0  0  2  0  0  0  0  0  0
   47.2920   35.1030   41.9980 C   0  0  0  0  0  2  0  0  0  0  0  0
  1  2  1  0  0  0  0
  1  3  1  0  0  0  0
  4  5  1  0  0  0  0
  5 11  1  0  0  0  0
  5  6  2  0  0  0  0
  6  1  1  0  0  0  0
  7  6  1  0  0  0  0
  8  7  2  0  0  0  0
  9  4  2  0  0  0  0
  9  8  1  0  0  0  0
 10  4  1  0  0  0  0
 12  8  1  0  0  0  0
 13  1  1  0  0  0  0
 14 13  1  0  0  0  0
 14 15  1  0  0  0  0
 16 14  1  0  0  0  0
 17 16  1  0  0  0  0
 18 19  1  0  0  0  0
 18 20  1  0  0  0  0
 18 16  1  0  0  0  0
 20 21  1  0  0  0  0
 21 13  1  0  0  0  0
M  END
>  <minimizedAffinity>
-3.47548246

>  <minimizedRMSD>
3.06660008

$$$$
