
 OpenBabel03252509283D

 21 22  0  0  0  0  0  0  0  0999 V2000
   47.1420   33.9940   42.3810 C   0  0  0  0  0  0  0  0  0  0  0  0
   47.0610   34.7120   41.5410 H   0  0  0  0  0  0  0  0  0  0  0  0
   46.6980   33.0450   41.9760 H   0  0  0  0  0  0  0  0  0  0  0  0
   44.6690   36.0150   44.2840 C   0  0  0  0  0  0  0  0  0  0  0  0
   45.5180   35.5850   43.2340 C   0  0  0  0  0  0  0  0  0  0  0  0
   46.2670   34.4300   43.4740 C   0  0  0  0  0  0  0  0  0  0  0  0
   46.1630   33.7800   44.6610 N   0  0  0  0  0  0  0  0  0  0  0  0
   45.3250   34.2470   45.6340 C   0  0  0  0  0  0  0  0  0  0  0  0
   44.5930   35.3470   45.4430 N   0  0  0  0  0  0  0  0  0  0  0  0
   44.0530   36.8980   44.1860 H   0  0  0  0  0  0  0  0  0  0  0  0
   45.5480   36.1540   42.3150 H   0  0  0  0  0  0  0  0  0  0  0  0
   45.2410   33.7280   46.5870 H   0  0  0  0  0  0  0  0  0  0  0  0
   48.4830   33.6880   42.7610 N   0  0  0  0  0  0  0  0  0  0  0  0
   48.8010   32.3670   42.2470 C   0  0  0  0  0  3  0  0  0  0  0  0
   49.1770   31.7030   43.0600 H   0  0  0  0  0  0  0  0  0  0  0  0
   49.8880   32.4170   41.1990 C   0  0  0  0  0  3  0  0  0  0  0  0
   49.6050   33.0170   40.3170 H   0  0  0  0  0  0  0  0  0  0  0  0
   51.0960   32.8850   41.8150 N   0  0  0  0  0  0  0  0  0  0  0  0
   51.4850   32.1650   42.4550 H   0  0  0  0  0  0  0  0  0  0  0  0
   50.8450   34.0850   42.6000 C   0  0  0  0  0  2  0  0  0  0  0  0
   49.4520   34.6410   42.3000 C   0  0  0  0  0  2  0  0  0  0  0  0
  1 13  1  0  0  0  0
  1  6  1  0  0  0  0
  2  1  1  0  0  0  0
  3  1  1  0  0  0  0
  4  9  1  0  0  0  0
  5  6  1  0  0  0  0
  5  4  2  0  0  0  0
  6  7  2  0  0  0  0
  7  8  1  0  0  0  0
  8 12  1  0  0  0  0
  9  8  2  0  0  0  0
 10  4  1  0  0  0  0
 11  5  1  0  0  0  0
 14 13  1  0  0  0  0
 14 15  1  0  0  0  0
 16 18  1  0  0  0  0
 16 14  1  0  0  0  0
 17 16  1  0  0  0  0
 18 19  1  0  0  0  0
 18 20  1  0  0  0  0
 21 20  1  0  0  0  0
 21 13  1  0  0  0  0
M  END
>  <minimizedAffinity>
-4.12226868

>  <minimizedRMSD>
1.68177903

$$$$
