
 OpenBabel03252506303D

 47 51  0  0  0  0  0  0  0  0999 V2000
   37.7940   31.7240   39.3530 C   0  0  0  0  0  0  0  0  0  0  0  0
   37.3760   31.3390   38.0730 C   0  0  0  0  0  0  0  0  0  0  0  0
   36.6070   30.2310   38.1920 C   0  0  0  0  0  0  0  0  0  0  0  0
   36.5500   29.9410   39.4940 N   0  0  0  0  0  0  0  0  0  0  0  0
   37.2560   30.8280   40.1880 N   0  0  0  0  0  0  0  0  0  0  0  0
   37.5950   31.8010   37.1240 H   0  0  0  0  0  0  0  0  0  0  0  0
   36.0990   29.6370   37.4200 H   0  0  0  0  0  0  0  0  0  0  0  0
   38.8250   35.0990   40.2940 C   0  0  0  0  0  0  0  0  0  0  0  0
   40.2020   35.0600   40.1670 C   0  0  0  0  0  0  0  0  0  0  0  0
   40.7780   33.8610   39.7530 C   0  0  0  0  0  0  0  0  0  0  0  0
   39.9540   32.8250   39.5070 N   0  0  0  0  0  0  0  0  0  0  0  0
   38.6400   32.8780   39.6330 C   0  0  0  0  0  0  0  0  0  0  0  0
   38.0810   34.0250   40.0300 N   0  0  0  0  0  0  0  0  0  0  0  0
   38.4140   36.0500   40.6200 H   0  0  0  0  0  0  0  0  0  0  0  0
   40.9120   35.8440   40.3470 H   0  0  0  0  0  0  0  0  0  0  0  0
   42.1570   33.5730   39.5490 N   0  0  0  0  0  0  0  0  0  0  0  0
   43.2340   33.9410   40.4460 C   0  0  0  0  0  3  0  0  0  0  0  0
   43.3380   33.1530   41.2310 H   0  0  0  0  0  0  0  0  0  0  0  0
   44.5440   33.9970   39.6880 C   0  0  0  0  0  3  0  0  0  0  0  0
   44.9110   32.9870   39.4180 H   0  0  0  0  0  0  0  0  0  0  0  0
   44.3070   34.6980   38.4300 N   0  0  0  0  0  0  0  0  0  0  0  0
   45.2400   34.8840   37.9630 H   0  0  0  0  0  0  0  0  0  0  0  0
   43.5930   33.7820   37.5600 C   0  0  0  0  0  2  0  0  0  0  0  0
   42.7420   32.8690   38.4230 C   0  0  0  0  0  2  0  0  0  0  0  0
   35.8290   28.8260   40.0760 C   0  0  0  0  0  0  0  0  0  0  0  0
   34.7440   28.9750   39.9810 H   0  0  0  0  0  0  0  0  0  0  0  0
   36.0580   27.8530   39.5800 H   0  0  0  0  0  0  0  0  0  0  0  0
   36.1490   28.7000   41.5200 C   0  0  0  0  0  0  0  0  0  0  0  0
   36.6120   29.6570   41.8560 H   0  0  0  0  0  0  0  0  0  0  0  0
   35.1920   28.6470   42.1020 H   0  0  0  0  0  0  0  0  0  0  0  0
   36.9480   26.2680   41.6910 C   0  0  0  0  0  0  0  0  0  0  0  0
   37.0550   27.6270   41.9090 C   0  0  0  0  0  0  0  0  0  0  0  0
   38.1860   28.0500   42.5990 C   0  0  0  0  0  0  0  0  0  0  0  0
   39.1410   27.1700   43.0390 C   0  0  0  0  0  0  0  0  0  0  0  0
   40.3040   27.2870   43.7120 N   0  0  0  0  0  0  0  0  0  0  0  0
   40.8820   26.0980   43.9010 C   0  0  0  0  0  0  0  0  0  0  0  0
   40.0780   25.1160   43.3320 C   0  0  0  0  0  0  0  0  0  0  0  0
   39.0260   25.8240   42.8170 C   0  0  0  0  0  0  0  0  0  0  0  0
   37.9020   25.3940   42.1300 C   0  0  0  0  0  0  0  0  0  0  0  0
   36.0490   25.9810   41.1480 H   0  0  0  0  0  0  0  0  0  0  0  0
   38.3890   29.0860   42.8350 H   0  0  0  0  0  0  0  0  0  0  0  0
   40.7140   28.2050   44.0510 H   0  0  0  0  0  0  0  0  0  0  0  0
   41.8220   25.9030   44.4110 H   0  0  0  0  0  0  0  0  0  0  0  0
   40.2160   24.0560   43.2870 H   0  0  0  0  0  0  0  0  0  0  0  0
   37.7220   23.9720   41.8630 C   0  0  0  0  0  0  0  0  0  0  0  0
   37.9890   23.4710   40.7430 O   0  0  0  0  0  0  0  0  0  0  0  0
   37.3500   23.2740   42.6090 H   0  0  0  0  0  0  0  0  0  0  0  0
  1 12  1  0  0  0  0
  1  5  2  0  0  0  0
  2  3  2  0  0  0  0
  2  1  1  0  0  0  0
  3  4  1  0  0  0  0
  4 25  1  0  0  0  0
  4  5  1  0  0  0  0
  6  2  1  0  0  0  0
  7  3  1  0  0  0  0
  8 14  1  0  0  0  0
  9  8  1  0  0  0  0
  9 15  1  0  0  0  0
 10  9  2  0  0  0  0
 11 12  2  0  0  0  0
 11 10  1  0  0  0  0
 12 13  1  0  0  0  0
 13  8  2  0  0  0  0
 16 10  1  0  0  0  0
 16 17  1  0  0  0  0
 17 18  1  0  0  0  0
 19 17  1  0  0  0  0
 20 19  1  0  0  0  0
 21 19  1  0  0  0  0
 22 21  1  0  0  0  0
 23 24  1  0  0  0  0
 23 21  1  0  0  0  0
 24 16  1  0  0  0  0
 25 28  1  0  0  0  0
 26 25  1  0  0  0  0
 27 25  1  0  0  0  0
 28 29  1  0  0  0  0
 28 32  1  0  0  0  0
 28 30  1  0  0  0  0
 31 32  2  0  0  0  0
 31 39  1  0  0  0  0
 32 33  1  0  0  0  0
 33 41  1  0  0  0  0
 33 34  2  0  0  0  0
 34 35  1  0  0  0  0
 35 36  1  0  0  0  0
 35 42  1  0  0  0  0
 36 43  1  0  0  0  0
 37 36  2  0  0  0  0
 38 34  1  0  0  0  0
 38 37  1  0  0  0  0
 39 38  2  0  0  0  0
 40 31  1  0  0  0  0
 44 37  1  0  0  0  0
 45 39  1  0  0  0  0
 45 47  1  0  0  0  0
 46 45  2  0  0  0  0
M  END
>  <minimizedAffinity>
-6.92228365

$$$$

 OpenBabel03252506303D

 47 51  0  0  0  0  0  0  0  0999 V2000
   38.3990   31.6210   38.5340 C   0  0  0  0  0  0  0  0  0  0  0  0
   39.1250   30.5450   38.0080 C   0  0  0  0  0  0  0  0  0  0  0  0
   38.2460   29.6260   37.5410 C   0  0  0  0  0  0  0  0  0  0  0  0
   37.0240   30.1150   37.7680 N   0  0  0  0  0  0  0  0  0  0  0  0
   37.1110   31.3030   38.3590 N   0  0  0  0  0  0  0  0  0  0  0  0
   40.1930   30.4120   37.9560 H   0  0  0  0  0  0  0  0  0  0  0  0
   38.4270   28.6550   37.0610 H   0  0  0  0  0  0  0  0  0  0  0  0
   38.7440   34.7590   40.3710 C   0  0  0  0  0  0  0  0  0  0  0  0
   40.0930   35.0450   40.2650 C   0  0  0  0  0  0  0  0  0  0  0  0
   40.8890   34.1490   39.5540 C   0  0  0  0  0  0  0  0  0  0  0  0
   40.2890   33.0680   39.0210 N   0  0  0  0  0  0  0  0  0  0  0  0
   38.9990   32.8080   39.1320 C   0  0  0  0  0  0  0  0  0  0  0  0
   38.2290   33.6630   39.8120 N   0  0  0  0  0  0  0  0  0  0  0  0
   38.1580   35.4800   40.9320 H   0  0  0  0  0  0  0  0  0  0  0  0
   40.6320   35.8840   40.6630 H   0  0  0  0  0  0  0  0  0  0  0  0
   42.2890   34.2220   39.3060 N   0  0  0  0  0  0  0  0  0  0  0  0
   42.9040   34.3810   38.0030 C   0  0  0  0  0  3  0  0  0  0  0  0
   42.9530   35.4690   37.7550 H   0  0  0  0  0  0  0  0  0  0  0  0
   44.3260   33.8610   38.0350 C   0  0  0  0  0  3  0  0  0  0  0  0
   45.0000   34.5330   38.6030 H   0  0  0  0  0  0  0  0  0  0  0  0
   44.3250   32.5850   38.7430 N   0  0  0  0  0  0  0  0  0  0  0  0
   45.2780   32.1360   38.6360 H   0  0  0  0  0  0  0  0  0  0  0  0
   44.1710   32.8820   40.1560 C   0  0  0  0  0  2  0  0  0  0  0  0
   43.3530   34.1530   40.2900 C   0  0  0  0  0  2  0  0  0  0  0  0
   35.7790   29.4560   37.4260 C   0  0  0  0  0  0  0  0  0  0  0  0
   35.1480   30.1160   36.8140 H   0  0  0  0  0  0  0  0  0  0  0  0
   35.9290   28.5240   36.8310 H   0  0  0  0  0  0  0  0  0  0  0  0
   35.0210   29.1090   38.6540 C   0  0  0  0  0  0  0  0  0  0  0  0
   34.6450   30.0570   39.1070 H   0  0  0  0  0  0  0  0  0  0  0  0
   34.0870   28.5620   38.3640 H   0  0  0  0  0  0  0  0  0  0  0  0
   36.2880   27.1250   39.6740 C   0  0  0  0  0  0  0  0  0  0  0  0
   35.7410   28.3920   39.6980 C   0  0  0  0  0  0  0  0  0  0  0  0
   35.8900   29.1010   40.8860 C   0  0  0  0  0  0  0  0  0  0  0  0
   36.5430   28.5740   41.9710 C   0  0  0  0  0  0  0  0  0  0  0  0
   36.8310   29.0130   43.2130 N   0  0  0  0  0  0  0  0  0  0  0  0
   37.5040   28.0970   43.9120 C   0  0  0  0  0  0  0  0  0  0  0  0
   37.6880   26.9720   43.1140 C   0  0  0  0  0  0  0  0  0  0  0  0
   37.0820   27.3160   41.9360 C   0  0  0  0  0  0  0  0  0  0  0  0
   36.9370   26.6020   40.7560 C   0  0  0  0  0  0  0  0  0  0  0  0
   36.1490   26.6070   38.7270 H   0  0  0  0  0  0  0  0  0  0  0  0
   35.5090   30.1020   41.0360 H   0  0  0  0  0  0  0  0  0  0  0  0
   36.5600   29.9660   43.5920 H   0  0  0  0  0  0  0  0  0  0  0  0
   37.8620   28.1880   44.9350 H   0  0  0  0  0  0  0  0  0  0  0  0
   38.1790   26.0470   43.3320 H   0  0  0  0  0  0  0  0  0  0  0  0
   37.4900   25.2560   40.6570 C   0  0  0  0  0  0  0  0  0  0  0  0
   36.8320   24.2460   41.0050 O   0  0  0  0  0  0  0  0  0  0  0  0
   38.4900   25.0560   40.2820 H   0  0  0  0  0  0  0  0  0  0  0  0
  1 12  1  0  0  0  0
  2  1  1  0  0  0  0
  3  4  1  0  0  0  0
  3  2  2  0  0  0  0
  4  5  1  0  0  0  0
  5  1  2  0  0  0  0
  6  2  1  0  0  0  0
  7  3  1  0  0  0  0
  8 14  1  0  0  0  0
  9  8  1  0  0  0  0
  9 15  1  0  0  0  0
 10  9  2  0  0  0  0
 11 12  2  0  0  0  0
 11 10  1  0  0  0  0
 12 13  1  0  0  0  0
 13  8  2  0  0  0  0
 16 10  1  0  0  0  0
 16 24  1  0  0  0  0
 17 19  1  0  0  0  0
 17 16  1  0  0  0  0
 18 17  1  0  0  0  0
 19 20  1  0  0  0  0
 19 21  1  0  0  0  0
 21 23  1  0  0  0  0
 22 21  1  0  0  0  0
 23 24  1  0  0  0  0
 25  4  1  0  0  0  0
 25 28  1  0  0  0  0
 26 25  1  0  0  0  0
 27 25  1  0  0  0  0
 28 29  1  0  0  0  0
 28 32  1  0  0  0  0
 30 28  1  0  0  0  0
 31 32  2  0  0  0  0
 31 39  1  0  0  0  0
 32 33  1  0  0  0  0
 33 41  1  0  0  0  0
 33 34  2  0  0  0  0
 34 35  1  0  0  0  0
 35 42  1  0  0  0  0
 35 36  1  0  0  0  0
 36 43  1  0  0  0  0
 37 44  1  0  0  0  0
 37 36  2  0  0  0  0
 38 34  1  0  0  0  0
 38 37  1  0  0  0  0
 39 38  2  0  0  0  0
 40 31  1  0  0  0  0
 45 39  1  0  0  0  0
 45 46  2  0  0  0  0
 47 45  1  0  0  0  0
M  END
>  <minimizedAffinity>
-6.84440756

$$$$

 OpenBabel03252506303D

 47 51  0  0  0  0  0  0  0  0999 V2000
   37.5380   31.7480   38.9700 C   0  0  0  0  0  0  0  0  0  0  0  0
   37.6910   31.2570   37.6680 C   0  0  0  0  0  0  0  0  0  0  0  0
   36.8310   30.2240   37.4990 C   0  0  0  0  0  0  0  0  0  0  0  0
   36.1710   30.0830   38.6500 N   0  0  0  0  0  0  0  0  0  0  0  0
   36.5890   30.9880   39.5290 N   0  0  0  0  0  0  0  0  0  0  0  0
   38.3580   31.5960   36.8920 H   0  0  0  0  0  0  0  0  0  0  0  0
   36.6560   29.5870   36.6210 H   0  0  0  0  0  0  0  0  0  0  0  0
   38.3750   35.0990   40.1580 C   0  0  0  0  0  0  0  0  0  0  0  0
   39.6900   34.9750   40.5680 C   0  0  0  0  0  0  0  0  0  0  0  0
   40.2930   33.7250   40.4330 C   0  0  0  0  0  0  0  0  0  0  0  0
   39.5510   32.7280   39.9130 N   0  0  0  0  0  0  0  0  0  0  0  0
   38.2950   32.8630   39.5270 C   0  0  0  0  0  0  0  0  0  0  0  0
   37.7110   34.0580   39.6540 N   0  0  0  0  0  0  0  0  0  0  0  0
   37.9410   36.0860   40.2800 H   0  0  0  0  0  0  0  0  0  0  0  0
   40.3330   35.7240   40.9870 H   0  0  0  0  0  0  0  0  0  0  0  0
   41.6210   33.3480   40.7770 N   0  0  0  0  0  0  0  0  0  0  0  0
   41.9960   32.1320   41.4710 C   0  0  0  0  0  3  0  0  0  0  0  0
   42.1140   31.3100   40.7230 H   0  0  0  0  0  0  0  0  0  0  0  0
   43.3350   32.3160   42.1540 C   0  0  0  0  0  3  0  0  0  0  0  0
   44.1710   32.3390   41.4270 H   0  0  0  0  0  0  0  0  0  0  0  0
   43.3290   33.6170   42.8150 N   0  0  0  0  0  0  0  0  0  0  0  0
   44.1920   33.6930   43.4240 H   0  0  0  0  0  0  0  0  0  0  0  0
   43.4740   34.6230   41.7780 C   0  0  0  0  0  2  0  0  0  0  0  0
   42.8360   34.0940   40.5070 C   0  0  0  0  0  2  0  0  0  0  0  0
   35.1470   29.0910   38.9160 C   0  0  0  0  0  0  0  0  0  0  0  0
   34.7190   29.2350   39.9180 H   0  0  0  0  0  0  0  0  0  0  0  0
   34.2940   29.1430   38.1980 H   0  0  0  0  0  0  0  0  0  0  0  0
   35.7220   27.7240   38.8570 C   0  0  0  0  0  0  0  0  0  0  0  0
   34.8830   27.0020   38.7180 H   0  0  0  0  0  0  0  0  0  0  0  0
   36.3230   27.6210   37.9160 H   0  0  0  0  0  0  0  0  0  0  0  0
   36.5970   27.8440   41.2660 C   0  0  0  0  0  0  0  0  0  0  0  0
   36.4870   27.2740   40.0130 C   0  0  0  0  0  0  0  0  0  0  0  0
   37.2030   26.1000   39.8090 C   0  0  0  0  0  0  0  0  0  0  0  0
   37.9750   25.5380   40.7940 C   0  0  0  0  0  0  0  0  0  0  0  0
   38.7550   24.4410   40.8810 N   0  0  0  0  0  0  0  0  0  0  0  0
   39.3100   24.3300   42.0900 C   0  0  0  0  0  0  0  0  0  0  0  0
   38.8930   25.4010   42.8730 C   0  0  0  0  0  0  0  0  0  0  0  0
   38.0780   26.1100   42.0330 C   0  0  0  0  0  0  0  0  0  0  0  0
   37.3660   27.2810   42.2450 C   0  0  0  0  0  0  0  0  0  0  0  0
   36.0200   28.7600   41.3820 H   0  0  0  0  0  0  0  0  0  0  0  0
   37.2030   25.5550   38.8750 H   0  0  0  0  0  0  0  0  0  0  0  0
   38.9120   23.7500   40.0910 H   0  0  0  0  0  0  0  0  0  0  0  0
   39.9790   23.5440   42.4320 H   0  0  0  0  0  0  0  0  0  0  0  0
   39.1300   25.6450   43.8870 H   0  0  0  0  0  0  0  0  0  0  0  0
   37.4350   27.9400   43.5440 C   0  0  0  0  0  0  0  0  0  0  0  0
   36.5630   27.7500   44.4270 O   0  0  0  0  0  0  0  0  0  0  0  0
   38.2350   28.6240   43.8180 H   0  0  0  0  0  0  0  0  0  0  0  0
  1 12  1  0  0  0  0
  1  5  2  0  0  0  0
  2  1  1  0  0  0  0
  3  2  2  0  0  0  0
  3  4  1  0  0  0  0
  4 25  1  0  0  0  0
  4  5  1  0  0  0  0
  6  2  1  0  0  0  0
  7  3  1  0  0  0  0
  8 14  1  0  0  0  0
  8  9  1  0  0  0  0
  9 15  1  0  0  0  0
 10  9  2  0  0  0  0
 10 16  1  0  0  0  0
 11 10  1  0  0  0  0
 12 13  1  0  0  0  0
 12 11  2  0  0  0  0
 13  8  2  0  0  0  0
 16 17  1  0  0  0  0
 17 19  1  0  0  0  0
 18 17  1  0  0  0  0
 19 21  1  0  0  0  0
 20 19  1  0  0  0  0
 21 22  1  0  0  0  0
 23 21  1  0  0  0  0
 24 16  1  0  0  0  0
 24 23  1  0  0  0  0
 25 26  1  0  0  0  0
 27 25  1  0  0  0  0
 28 25  1  0  0  0  0
 28 32  1  0  0  0  0
 29 28  1  0  0  0  0
 30 28  1  0  0  0  0
 31 40  1  0  0  0  0
 31 39  1  0  0  0  0
 32 31  2  0  0  0  0
 33 32  1  0  0  0  0
 33 34  2  0  0  0  0
 34 35  1  0  0  0  0
 34 38  1  0  0  0  0
 35 36  1  0  0  0  0
 36 43  1  0  0  0  0
 36 37  2  0  0  0  0
 37 44  1  0  0  0  0
 38 39  2  0  0  0  0
 38 37  1  0  0  0  0
 39 45  1  0  0  0  0
 41 33  1  0  0  0  0
 42 35  1  0  0  0  0
 45 47  1  0  0  0  0
 45 46  2  0  0  0  0
M  END
>  <minimizedAffinity>
-6.68075943

$$$$

 OpenBabel03252506303D

 47 51  0  0  0  0  0  0  0  0999 V2000
   38.3200   31.6420   40.9930 C   0  0  0  0  0  0  0  0  0  0  0  0
   36.9720   31.4040   40.6970 C   0  0  0  0  0  0  0  0  0  0  0  0
   36.5880   30.2760   41.3410 C   0  0  0  0  0  0  0  0  0  0  0  0
   37.6560   29.8340   42.0080 N   0  0  0  0  0  0  0  0  0  0  0  0
   38.6890   30.6440   41.8030 N   0  0  0  0  0  0  0  0  0  0  0  0
   36.3060   31.9790   40.0750 H   0  0  0  0  0  0  0  0  0  0  0  0
   35.6140   29.7690   41.3580 H   0  0  0  0  0  0  0  0  0  0  0  0
   39.5680   35.0440   40.5340 C   0  0  0  0  0  0  0  0  0  0  0  0
   40.5220   34.9040   39.5430 C   0  0  0  0  0  0  0  0  0  0  0  0
   40.7360   33.6270   39.0280 C   0  0  0  0  0  0  0  0  0  0  0  0
   39.9990   32.6200   39.5330 N   0  0  0  0  0  0  0  0  0  0  0  0
   39.0920   32.7690   40.4810 C   0  0  0  0  0  0  0  0  0  0  0  0
   38.8810   33.9910   40.9790 N   0  0  0  0  0  0  0  0  0  0  0  0
   39.4320   36.0530   40.9100 H   0  0  0  0  0  0  0  0  0  0  0  0
   41.1400   35.6610   39.0990 H   0  0  0  0  0  0  0  0  0  0  0  0
   41.6510   33.2300   38.0130 N   0  0  0  0  0  0  0  0  0  0  0  0
   41.7160   31.9140   37.4090 C   0  0  0  0  0  3  0  0  0  0  0  0
   40.9870   31.8670   36.5630 H   0  0  0  0  0  0  0  0  0  0  0  0
   43.0950   31.6780   36.8290 C   0  0  0  0  0  3  0  0  0  0  0  0
   43.2670   32.2740   35.9110 H   0  0  0  0  0  0  0  0  0  0  0  0
   44.0790   32.1330   37.8050 N   0  0  0  0  0  0  0  0  0  0  0  0
   45.0420   31.8310   37.4830 H   0  0  0  0  0  0  0  0  0  0  0  0
   44.0750   33.5840   37.7690 C   0  0  0  0  0  2  0  0  0  0  0  0
   42.6790   34.0490   37.3980 C   0  0  0  0  0  2  0  0  0  0  0  0
   37.6950   28.6450   42.8370 C   0  0  0  0  0  0  0  0  0  0  0  0
   38.6360   28.0970   42.6840 H   0  0  0  0  0  0  0  0  0  0  0  0
   37.6370   28.8730   43.9280 H   0  0  0  0  0  0  0  0  0  0  0  0
   36.5750   27.7350   42.4910 C   0  0  0  0  0  0  0  0  0  0  0  0
   36.2430   27.2250   43.4260 H   0  0  0  0  0  0  0  0  0  0  0  0
   35.6850   28.3480   42.1910 H   0  0  0  0  0  0  0  0  0  0  0  0
   36.7330   26.7370   40.1330 C   0  0  0  0  0  0  0  0  0  0  0  0
   36.8440   26.6930   41.5080 C   0  0  0  0  0  0  0  0  0  0  0  0
   37.2740   25.4870   42.0500 C   0  0  0  0  0  0  0  0  0  0  0  0
   37.5720   24.4020   41.2660 C   0  0  0  0  0  0  0  0  0  0  0  0
   37.9970   23.1440   41.5040 N   0  0  0  0  0  0  0  0  0  0  0  0
   38.1420   22.4540   40.3710 C   0  0  0  0  0  0  0  0  0  0  0  0
   37.7990   23.2750   39.3010 C   0  0  0  0  0  0  0  0  0  0  0  0
   37.4580   24.4550   39.9030 C   0  0  0  0  0  0  0  0  0  0  0  0
   37.0300   25.6550   39.3540 C   0  0  0  0  0  0  0  0  0  0  0  0
   36.3940   27.6980   39.7520 H   0  0  0  0  0  0  0  0  0  0  0  0
   37.4030   25.3210   43.1110 H   0  0  0  0  0  0  0  0  0  0  0  0
   38.1940   22.7480   42.4690 H   0  0  0  0  0  0  0  0  0  0  0  0
   38.4710   21.4220   40.2720 H   0  0  0  0  0  0  0  0  0  0  0  0
   37.7920   23.0690   38.2520 H   0  0  0  0  0  0  0  0  0  0  0  0
   36.8890   25.7740   37.9080 C   0  0  0  0  0  0  0  0  0  0  0  0
   37.0690   26.8660   37.3160 O   0  0  0  0  0  0  0  0  0  0  0  0
   36.6220   24.9350   37.2700 H   0  0  0  0  0  0  0  0  0  0  0  0
  1  5  2  0  0  0  0
  2  1  1  0  0  0  0
  2  3  2  0  0  0  0
  3  7  1  0  0  0  0
  3  4  1  0  0  0  0
  4 25  1  0  0  0  0
  5  4  1  0  0  0  0
  6  2  1  0  0  0  0
  8 14  1  0  0  0  0
  8 13  1  0  0  0  0
  9  8  2  0  0  0  0
 10 11  2  0  0  0  0
 10  9  1  0  0  0  0
 11 12  1  0  0  0  0
 12 13  2  0  0  0  0
 12  1  1  0  0  0  0
 15  9  1  0  0  0  0
 16 10  1  0  0  0  0
 17 16  1  0  0  0  0
 18 17  1  0  0  0  0
 19 17  1  0  0  0  0
 19 21  1  0  0  0  0
 20 19  1  0  0  0  0
 22 21  1  0  0  0  0
 23 21  1  0  0  0  0
 24 23  1  0  0  0  0
 24 16  1  0  0  0  0
 25 27  1  0  0  0  0
 26 25  1  0  0  0  0
 28 25  1  0  0  0  0
 28 29  1  0  0  0  0
 30 28  1  0  0  0  0
 31 32  1  0  0  0  0
 32 33  2  0  0  0  0
 32 28  1  0  0  0  0
 33 41  1  0  0  0  0
 34 35  1  0  0  0  0
 34 33  1  0  0  0  0
 35 42  1  0  0  0  0
 36 35  1  0  0  0  0
 37 38  1  0  0  0  0
 37 36  2  0  0  0  0
 38 34  2  0  0  0  0
 39 38  1  0  0  0  0
 39 31  2  0  0  0  0
 40 31  1  0  0  0  0
 43 36  1  0  0  0  0
 44 37  1  0  0  0  0
 45 39  1  0  0  0  0
 46 45  2  0  0  0  0
 47 45  1  0  0  0  0
M  END
>  <minimizedAffinity>
-6.62983418

$$$$

 OpenBabel03252506303D

 47 51  0  0  0  0  0  0  0  0999 V2000
   40.0890   33.3430   39.3930 C   0  0  0  0  0  0  0  0  0  0  0  0
   39.2900   34.1170   40.2430 C   0  0  0  0  0  0  0  0  0  0  0  0
   38.0290   33.6260   40.2070 C   0  0  0  0  0  0  0  0  0  0  0  0
   38.0460   32.5880   39.3670 N   0  0  0  0  0  0  0  0  0  0  0  0
   39.2710   32.4170   38.8800 N   0  0  0  0  0  0  0  0  0  0  0  0
   39.5710   34.9660   40.8460 H   0  0  0  0  0  0  0  0  0  0  0  0
   37.1240   33.9600   40.7340 H   0  0  0  0  0  0  0  0  0  0  0  0
   43.2360   34.1020   37.7020 C   0  0  0  0  0  0  0  0  0  0  0  0
   44.1760   33.9910   38.7090 C   0  0  0  0  0  0  0  0  0  0  0  0
   43.7210   33.6520   39.9820 C   0  0  0  0  0  0  0  0  0  0  0  0
   42.3980   33.4560   40.1400 N   0  0  0  0  0  0  0  0  0  0  0  0
   41.5120   33.5660   39.1670 C   0  0  0  0  0  0  0  0  0  0  0  0
   41.9410   33.8910   37.9440 N   0  0  0  0  0  0  0  0  0  0  0  0
   43.6290   34.3680   36.7250 H   0  0  0  0  0  0  0  0  0  0  0  0
   45.2380   34.1330   38.6510 H   0  0  0  0  0  0  0  0  0  0  0  0
   44.4840   33.4780   41.1710 N   0  0  0  0  0  0  0  0  0  0  0  0
   44.2330   32.4790   42.1910 C   0  0  0  0  0  3  0  0  0  0  0  0
   44.7430   31.5280   41.9010 H   0  0  0  0  0  0  0  0  0  0  0  0
   44.8280   32.9250   43.5100 C   0  0  0  0  0  3  0  0  0  0  0  0
   45.9340   32.8640   43.5080 H   0  0  0  0  0  0  0  0  0  0  0  0
   44.4940   34.3320   43.7030 N   0  0  0  0  0  0  0  0  0  0  0  0
   44.7650   34.6140   44.6870 H   0  0  0  0  0  0  0  0  0  0  0  0
   45.3460   35.0980   42.8110 C   0  0  0  0  0  2  0  0  0  0  0  0
   45.6380   34.2520   41.5870 C   0  0  0  0  0  2  0  0  0  0  0  0
   36.9040   31.7630   39.0280 C   0  0  0  0  0  0  0  0  0  0  0  0
   36.2160   31.6840   39.8820 H   0  0  0  0  0  0  0  0  0  0  0  0
   36.3070   32.1720   38.1790 H   0  0  0  0  0  0  0  0  0  0  0  0
   37.3440   30.3910   38.6690 C   0  0  0  0  0  0  0  0  0  0  0  0
   36.7440   30.0550   37.7910 H   0  0  0  0  0  0  0  0  0  0  0  0
   38.3930   30.4360   38.2760 H   0  0  0  0  0  0  0  0  0  0  0  0
   37.0640   27.9980   39.5510 C   0  0  0  0  0  0  0  0  0  0  0  0
   37.2150   29.3630   39.6940 C   0  0  0  0  0  0  0  0  0  0  0  0
   37.2520   29.8420   40.9990 C   0  0  0  0  0  0  0  0  0  0  0  0
   37.1450   29.0090   42.0830 C   0  0  0  0  0  0  0  0  0  0  0  0
   37.1480   29.1830   43.4210 N   0  0  0  0  0  0  0  0  0  0  0  0
   37.0090   28.0230   44.0660 C   0  0  0  0  0  0  0  0  0  0  0  0
   36.9070   27.0000   43.1280 C   0  0  0  0  0  0  0  0  0  0  0  0
   36.9960   27.6560   41.9310 C   0  0  0  0  0  0  0  0  0  0  0  0
   36.9580   27.1700   40.6330 C   0  0  0  0  0  0  0  0  0  0  0  0
   37.0410   27.6660   38.5140 H   0  0  0  0  0  0  0  0  0  0  0  0
   37.3660   30.8880   41.2480 H   0  0  0  0  0  0  0  0  0  0  0  0
   37.2460   30.1220   43.9050 H   0  0  0  0  0  0  0  0  0  0  0  0
   36.9800   27.8740   45.1430 H   0  0  0  0  0  0  0  0  0  0  0  0
   36.7870   25.9470   43.2710 H   0  0  0  0  0  0  0  0  0  0  0  0
   36.8010   25.7390   40.4050 C   0  0  0  0  0  0  0  0  0  0  0  0
   37.7910   24.9730   40.3120 O   0  0  0  0  0  0  0  0  0  0  0  0
   35.8290   25.2610   40.3030 H   0  0  0  0  0  0  0  0  0  0  0  0
  1  2  1  0  0  0  0
  2  6  1  0  0  0  0
  3  2  2  0  0  0  0
  3  7  1  0  0  0  0
  4  3  1  0  0  0  0
  5  4  1  0  0  0  0
  5  1  2  0  0  0  0
  8 13  2  0  0  0  0
  8  9  1  0  0  0  0
  9 10  2  0  0  0  0
 10 11  1  0  0  0  0
 10 16  1  0  0  0  0
 12  1  1  0  0  0  0
 12 11  2  0  0  0  0
 13 12  1  0  0  0  0
 14  8  1  0  0  0  0
 15  9  1  0  0  0  0
 16 24  1  0  0  0  0
 16 17  1  0  0  0  0
 17 19  1  0  0  0  0
 18 17  1  0  0  0  0
 19 21  1  0  0  0  0
 20 19  1  0  0  0  0
 21 22  1  0  0  0  0
 23 21  1  0  0  0  0
 24 23  1  0  0  0  0
 25  4  1  0  0  0  0
 25 26  1  0  0  0  0
 27 25  1  0  0  0  0
 28 25  1  0  0  0  0
 28 32  1  0  0  0  0
 29 28  1  0  0  0  0
 30 28  1  0  0  0  0
 31 32  2  0  0  0  0
 31 39  1  0  0  0  0
 32 33  1  0  0  0  0
 33 41  1  0  0  0  0
 33 34  2  0  0  0  0
 34 35  1  0  0  0  0
 35 42  1  0  0  0  0
 35 36  1  0  0  0  0
 36 43  1  0  0  0  0
 37 44  1  0  0  0  0
 37 36  2  0  0  0  0
 38 34  1  0  0  0  0
 38 37  1  0  0  0  0
 39 38  2  0  0  0  0
 40 31  1  0  0  0  0
 45 39  1  0  0  0  0
 46 45  2  0  0  0  0
 47 45  1  0  0  0  0
M  END
>  <minimizedAffinity>
-6.5760541

$$$$

 OpenBabel03252506303D

 47 51  0  0  0  0  0  0  0  0999 V2000
   40.7360   33.5280   39.8030 C   0  0  0  0  0  0  0  0  0  0  0  0
   40.1310   34.7350   40.1740 C   0  0  0  0  0  0  0  0  0  0  0  0
   38.7970   34.5280   40.2800 C   0  0  0  0  0  0  0  0  0  0  0  0
   38.5840   33.2430   39.9860 N   0  0  0  0  0  0  0  0  0  0  0  0
   39.7370   32.6440   39.7020 N   0  0  0  0  0  0  0  0  0  0  0  0
   40.5910   35.6930   40.3570 H   0  0  0  0  0  0  0  0  0  0  0  0
   37.9920   35.2250   40.5480 H   0  0  0  0  0  0  0  0  0  0  0  0
   44.3460   34.0200   40.0540 C   0  0  0  0  0  0  0  0  0  0  0  0
   44.8610   33.0510   39.2120 C   0  0  0  0  0  0  0  0  0  0  0  0
   43.9560   32.2220   38.5530 C   0  0  0  0  0  0  0  0  0  0  0  0
   42.6440   32.4230   38.7830 N   0  0  0  0  0  0  0  0  0  0  0  0
   42.1680   33.3530   39.5900 C   0  0  0  0  0  0  0  0  0  0  0  0
   43.0300   34.1520   40.2260 N   0  0  0  0  0  0  0  0  0  0  0  0
   45.0830   34.6450   40.5500 H   0  0  0  0  0  0  0  0  0  0  0  0
   45.8880   32.8390   38.9870 H   0  0  0  0  0  0  0  0  0  0  0  0
   44.2340   31.1630   37.6440 N   0  0  0  0  0  0  0  0  0  0  0  0
   45.0390   31.2760   36.4430 C   0  0  0  0  0  3  0  0  0  0  0  0
   46.1140   31.1310   36.7120 H   0  0  0  0  0  0  0  0  0  0  0  0
   44.6670   30.1820   35.4650 C   0  0  0  0  0  3  0  0  0  0  0  0
   45.0290   29.1880   35.7960 H   0  0  0  0  0  0  0  0  0  0  0  0
   43.2110   30.0940   35.4190 N   0  0  0  0  0  0  0  0  0  0  0  0
   42.9340   29.4470   34.6270 H   0  0  0  0  0  0  0  0  0  0  0  0
   42.7840   29.4430   36.6440 C   0  0  0  0  0  2  0  0  0  0  0  0
   43.7760   29.7900   37.7390 C   0  0  0  0  0  2  0  0  0  0  0  0
   37.2920   32.5860   39.9760 C   0  0  0  0  0  0  0  0  0  0  0  0
   36.9610   32.3670   41.0010 H   0  0  0  0  0  0  0  0  0  0  0  0
   36.4910   33.2080   39.5120 H   0  0  0  0  0  0  0  0  0  0  0  0
   37.3700   31.3010   39.2370 C   0  0  0  0  0  0  0  0  0  0  0  0
   36.5510   31.2880   38.4800 H   0  0  0  0  0  0  0  0  0  0  0  0
   38.3060   31.2910   38.6190 H   0  0  0  0  0  0  0  0  0  0  0  0
   37.1400   28.7690   39.5870 C   0  0  0  0  0  0  0  0  0  0  0  0
   37.2500   30.0770   40.0180 C   0  0  0  0  0  0  0  0  0  0  0  0
   37.2490   30.2700   41.3950 C   0  0  0  0  0  0  0  0  0  0  0  0
   37.1440   29.2240   42.2760 C   0  0  0  0  0  0  0  0  0  0  0  0
   37.1160   29.1120   43.6200 N   0  0  0  0  0  0  0  0  0  0  0  0
   36.9970   27.8390   44.0030 C   0  0  0  0  0  0  0  0  0  0  0  0
   36.9410   27.0360   42.8690 C   0  0  0  0  0  0  0  0  0  0  0  0
   37.0350   27.9320   41.8390 C   0  0  0  0  0  0  0  0  0  0  0  0
   37.0350   27.7300   40.4670 C   0  0  0  0  0  0  0  0  0  0  0  0
   37.1450   28.6640   38.5040 H   0  0  0  0  0  0  0  0  0  0  0  0
   37.3290   31.2420   41.8620 H   0  0  0  0  0  0  0  0  0  0  0  0
   37.1790   29.9300   44.2940 H   0  0  0  0  0  0  0  0  0  0  0  0
   36.9510   27.4650   45.0230 H   0  0  0  0  0  0  0  0  0  0  0  0
   36.8470   25.9740   42.7830 H   0  0  0  0  0  0  0  0  0  0  0  0
   36.9220   26.3760   39.9390 C   0  0  0  0  0  0  0  0  0  0  0  0
   36.0350   26.0640   39.1080 O   0  0  0  0  0  0  0  0  0  0  0  0
   37.5910   25.5700   40.2330 H   0  0  0  0  0  0  0  0  0  0  0  0
  1  2  1  0  0  0  0
  2  3  2  0  0  0  0
  2  6  1  0  0  0  0
  3  7  1  0  0  0  0
  4  3  1  0  0  0  0
  5  1  2  0  0  0  0
  5  4  1  0  0  0  0
  8 13  1  0  0  0  0
  8 14  1  0  0  0  0
  9  8  2  0  0  0  0
 10 11  2  0  0  0  0
 10  9  1  0  0  0  0
 11 12  1  0  0  0  0
 12  1  1  0  0  0  0
 12 13  2  0  0  0  0
 15  9  1  0  0  0  0
 16 24  1  0  0  0  0
 16 10  1  0  0  0  0
 17 18  1  0  0  0  0
 17 16  1  0  0  0  0
 19 20  1  0  0  0  0
 19 17  1  0  0  0  0
 21 19  1  0  0  0  0
 21 23  1  0  0  0  0
 22 21  1  0  0  0  0
 23 24  1  0  0  0  0
 25  4  1  0  0  0  0
 25 26  1  0  0  0  0
 27 25  1  0  0  0  0
 28 25  1  0  0  0  0
 28 32  1  0  0  0  0
 29 28  1  0  0  0  0
 30 28  1  0  0  0  0
 31 32  2  0  0  0  0
 31 39  1  0  0  0  0
 32 33  1  0  0  0  0
 33 41  1  0  0  0  0
 33 34  2  0  0  0  0
 34 35  1  0  0  0  0
 35 36  1  0  0  0  0
 35 42  1  0  0  0  0
 36 43  1  0  0  0  0
 37 36  2  0  0  0  0
 38 34  1  0  0  0  0
 38 37  1  0  0  0  0
 39 38  2  0  0  0  0
 40 31  1  0  0  0  0
 44 37  1  0  0  0  0
 45 47  1  0  0  0  0
 45 39  1  0  0  0  0
 46 45  2  0  0  0  0
M  END
>  <minimizedAffinity>
-6.47610712

$$$$

 OpenBabel03252506303D

 47 51  0  0  0  0  0  0  0  0999 V2000
   37.6620   31.5520   39.5830 C   0  0  0  0  0  0  0  0  0  0  0  0
   37.0150   31.1200   38.4190 C   0  0  0  0  0  0  0  0  0  0  0  0
   36.2190   30.0720   38.7390 C   0  0  0  0  0  0  0  0  0  0  0  0
   36.3670   29.8640   40.0490 N   0  0  0  0  0  0  0  0  0  0  0  0
   37.2250   30.7430   40.5560 N   0  0  0  0  0  0  0  0  0  0  0  0
   37.0950   31.5100   37.4180 H   0  0  0  0  0  0  0  0  0  0  0  0
   35.5580   29.4670   38.1030 H   0  0  0  0  0  0  0  0  0  0  0  0
   39.1750   34.7480   40.4970 C   0  0  0  0  0  0  0  0  0  0  0  0
   40.3510   34.7660   39.7700 C   0  0  0  0  0  0  0  0  0  0  0  0
   40.6240   33.6660   38.9580 C   0  0  0  0  0  0  0  0  0  0  0  0
   39.7230   32.6660   38.9400 N   0  0  0  0  0  0  0  0  0  0  0  0
   38.6040   32.6640   39.6410 C   0  0  0  0  0  0  0  0  0  0  0  0
   38.3360   33.7150   40.4220 N   0  0  0  0  0  0  0  0  0  0  0  0
   38.9990   35.6210   41.1180 H   0  0  0  0  0  0  0  0  0  0  0  0
   41.1070   35.5270   39.7400 H   0  0  0  0  0  0  0  0  0  0  0  0
   41.7550   33.4510   38.1220 N   0  0  0  0  0  0  0  0  0  0  0  0
   42.0620   32.2160   37.4260 C   0  0  0  0  0  3  0  0  0  0  0  0
   41.5220   32.2080   36.4480 H   0  0  0  0  0  0  0  0  0  0  0  0
   43.5440   32.1470   37.1230 C   0  0  0  0  0  3  0  0  0  0  0  0
   43.8370   32.8500   36.3190 H   0  0  0  0  0  0  0  0  0  0  0  0
   44.2690   32.5660   38.3190 N   0  0  0  0  0  0  0  0  0  0  0  0
   45.3000   32.3720   38.1770 H   0  0  0  0  0  0  0  0  0  0  0  0
   44.1350   34.0080   38.4150 C   0  0  0  0  0  2  0  0  0  0  0  0
   42.8020   34.4050   37.8090 C   0  0  0  0  0  2  0  0  0  0  0  0
   35.6960   28.8340   40.8170 C   0  0  0  0  0  0  0  0  0  0  0  0
   34.7710   29.2250   41.2630 H   0  0  0  0  0  0  0  0  0  0  0  0
   35.4000   27.9530   40.1990 H   0  0  0  0  0  0  0  0  0  0  0  0
   36.5690   28.3570   41.9190 C   0  0  0  0  0  0  0  0  0  0  0  0
   37.4030   29.0880   42.0390 H   0  0  0  0  0  0  0  0  0  0  0  0
   36.0070   28.4300   42.8870 H   0  0  0  0  0  0  0  0  0  0  0  0
   38.1500   26.4310   42.5280 C   0  0  0  0  0  0  0  0  0  0  0  0
   37.1740   27.0400   41.7660 C   0  0  0  0  0  0  0  0  0  0  0  0
   36.6860   26.3040   40.6910 C   0  0  0  0  0  0  0  0  0  0  0  0
   37.1460   25.0440   40.4040 C   0  0  0  0  0  0  0  0  0  0  0  0
   36.8690   24.1230   39.4590 N   0  0  0  0  0  0  0  0  0  0  0  0
   37.6110   23.0240   39.6140 C   0  0  0  0  0  0  0  0  0  0  0  0
   38.4380   23.1960   40.7190 C   0  0  0  0  0  0  0  0  0  0  0  0
   38.1150   24.4480   41.1670 C   0  0  0  0  0  0  0  0  0  0  0  0
   38.6060   25.1760   42.2400 C   0  0  0  0  0  0  0  0  0  0  0  0
   38.5020   27.0410   43.3570 H   0  0  0  0  0  0  0  0  0  0  0  0
   35.9210   26.6660   40.0180 H   0  0  0  0  0  0  0  0  0  0  0  0
   36.1530   24.2510   38.6860 H   0  0  0  0  0  0  0  0  0  0  0  0
   37.5910   22.1300   38.9960 H   0  0  0  0  0  0  0  0  0  0  0  0
   39.1620   22.5350   41.1450 H   0  0  0  0  0  0  0  0  0  0  0  0
   39.6390   24.5950   43.0890 C   0  0  0  0  0  0  0  0  0  0  0  0
   40.3430   25.3040   43.8500 O   0  0  0  0  0  0  0  0  0  0  0  0
   39.8550   23.5300   43.1110 H   0  0  0  0  0  0  0  0  0  0  0  0
  1 12  1  0  0  0  0
  1  5  2  0  0  0  0
  2  3  2  0  0  0  0
  2  1  1  0  0  0  0
  3  4  1  0  0  0  0
  4  5  1  0  0  0  0
  4 25  1  0  0  0  0
  6  2  1  0  0  0  0
  7  3  1  0  0  0  0
  8 14  1  0  0  0  0
  9  8  2  0  0  0  0
 10  9  1  0  0  0  0
 11 10  2  0  0  0  0
 11 12  1  0  0  0  0
 12 13  2  0  0  0  0
 13  8  1  0  0  0  0
 15  9  1  0  0  0  0
 16 10  1  0  0  0  0
 17 16  1  0  0  0  0
 18 17  1  0  0  0  0
 19 17  1  0  0  0  0
 19 21  1  0  0  0  0
 20 19  1  0  0  0  0
 21 23  1  0  0  0  0
 22 21  1  0  0  0  0
 24 16  1  0  0  0  0
 24 23  1  0  0  0  0
 25 26  1  0  0  0  0
 25 28  1  0  0  0  0
 27 25  1  0  0  0  0
 28 29  1  0  0  0  0
 28 30  1  0  0  0  0
 31 40  1  0  0  0  0
 32 28  1  0  0  0  0
 32 31  2  0  0  0  0
 33 32  1  0  0  0  0
 34 33  2  0  0  0  0
 34 38  1  0  0  0  0
 35 36  1  0  0  0  0
 35 34  1  0  0  0  0
 36 37  2  0  0  0  0
 37 44  1  0  0  0  0
 37 38  1  0  0  0  0
 38 39  2  0  0  0  0
 39 31  1  0  0  0  0
 39 45  1  0  0  0  0
 41 33  1  0  0  0  0
 42 35  1  0  0  0  0
 43 36  1  0  0  0  0
 45 47  1  0  0  0  0
 45 46  2  0  0  0  0
M  END
>  <minimizedAffinity>
-6.39136553

$$$$

 OpenBabel03252506303D

 47 51  0  0  0  0  0  0  0  0999 V2000
   37.9150   31.6040   40.6890 C   0  0  0  0  0  0  0  0  0  0  0  0
   37.1850   32.5570   39.9700 C   0  0  0  0  0  0  0  0  0  0  0  0
   37.9180   33.6950   39.9060 C   0  0  0  0  0  0  0  0  0  0  0  0
   39.0560   33.4540   40.5600 N   0  0  0  0  0  0  0  0  0  0  0  0
   39.0580   32.2100   41.0280 N   0  0  0  0  0  0  0  0  0  0  0  0
   36.2090   32.4640   39.5220 H   0  0  0  0  0  0  0  0  0  0  0  0
   37.6880   34.6580   39.4310 H   0  0  0  0  0  0  0  0  0  0  0  0
   35.7030   28.7220   41.0680 C   0  0  0  0  0  0  0  0  0  0  0  0
   36.5550   27.7170   41.4870 C   0  0  0  0  0  0  0  0  0  0  0  0
   37.9040   28.0360   41.6410 C   0  0  0  0  0  0  0  0  0  0  0  0
   38.2800   29.3000   41.3690 N   0  0  0  0  0  0  0  0  0  0  0  0
   37.4540   30.2490   40.9690 C   0  0  0  0  0  0  0  0  0  0  0  0
   36.1590   29.9510   40.8200 N   0  0  0  0  0  0  0  0  0  0  0  0
   34.6620   28.4350   40.9600 H   0  0  0  0  0  0  0  0  0  0  0  0
   36.3220   26.6950   41.7180 H   0  0  0  0  0  0  0  0  0  0  0  0
   38.9660   27.1850   42.0570 N   0  0  0  0  0  0  0  0  0  0  0  0
   38.8210   25.8090   42.4880 C   0  0  0  0  0  3  0  0  0  0  0  0
   38.8370   25.1440   41.5900 H   0  0  0  0  0  0  0  0  0  0  0  0
   39.9920   25.4140   43.3630 C   0  0  0  0  0  3  0  0  0  0  0  0
   40.9240   25.2910   42.7780 H   0  0  0  0  0  0  0  0  0  0  0  0
   40.2380   26.5010   44.3050 N   0  0  0  0  0  0  0  0  0  0  0  0
   40.9450   26.1750   45.0230 H   0  0  0  0  0  0  0  0  0  0  0  0
   40.8750   27.5720   43.5620 C   0  0  0  0  0  2  0  0  0  0  0  0
   40.3750   27.5240   42.1310 C   0  0  0  0  0  2  0  0  0  0  0  0
   40.1380   34.4030   40.7400 C   0  0  0  0  0  0  0  0  0  0  0  0
   39.7870   35.2920   41.2820 H   0  0  0  0  0  0  0  0  0  0  0  0
   40.9870   33.9870   41.3320 H   0  0  0  0  0  0  0  0  0  0  0  0
   40.6620   34.8470   39.4240 C   0  0  0  0  0  0  0  0  0  0  0  0
   39.8000   34.9330   38.7210 H   0  0  0  0  0  0  0  0  0  0  0  0
   41.0380   35.8990   39.5170 H   0  0  0  0  0  0  0  0  0  0  0  0
   43.0320   34.0820   38.8070 C   0  0  0  0  0  0  0  0  0  0  0  0
   41.6540   33.9950   38.7810 C   0  0  0  0  0  0  0  0  0  0  0  0
   41.1200   32.9480   38.0380 C   0  0  0  0  0  0  0  0  0  0  0  0
   41.9140   32.0510   37.3700 C   0  0  0  0  0  0  0  0  0  0  0  0
   41.6850   30.9710   36.5950 N   0  0  0  0  0  0  0  0  0  0  0  0
   42.8250   30.4240   36.1680 C   0  0  0  0  0  0  0  0  0  0  0  0
   43.8900   31.1620   36.6730 C   0  0  0  0  0  0  0  0  0  0  0  0
   43.2790   32.1460   37.4010 C   0  0  0  0  0  0  0  0  0  0  0  0
   43.8200   33.1880   38.1400 C   0  0  0  0  0  0  0  0  0  0  0  0
   43.4070   34.9150   39.3990 H   0  0  0  0  0  0  0  0  0  0  0  0
   40.0580   32.7680   37.9370 H   0  0  0  0  0  0  0  0  0  0  0  0
   40.7210   30.5990   36.3510 H   0  0  0  0  0  0  0  0  0  0  0  0
   42.9310   29.5480   35.5330 H   0  0  0  0  0  0  0  0  0  0  0  0
   44.9430   31.0250   36.5450 H   0  0  0  0  0  0  0  0  0  0  0  0
   45.2680   33.3420   38.2120 C   0  0  0  0  0  0  0  0  0  0  0  0
   45.8680   33.4280   39.3110 O   0  0  0  0  0  0  0  0  0  0  0  0
   45.9010   33.3920   37.3290 H   0  0  0  0  0  0  0  0  0  0  0  0
  1 12  1  0  0  0  0
  1  5  2  0  0  0  0
  2  1  1  0  0  0  0
  3  2  2  0  0  0  0
  3  4  1  0  0  0  0
  4 25  1  0  0  0  0
  4  5  1  0  0  0  0
  6  2  1  0  0  0  0
  7  3  1  0  0  0  0
  8  9  1  0  0  0  0
  9 10  2  0  0  0  0
  9 15  1  0  0  0  0
 10 16  1  0  0  0  0
 11 10  1  0  0  0  0
 12 11  2  0  0  0  0
 13 12  1  0  0  0  0
 13  8  2  0  0  0  0
 14  8  1  0  0  0  0
 16 24  1  0  0  0  0
 16 17  1  0  0  0  0
 17 19  1  0  0  0  0
 18 17  1  0  0  0  0
 19 21  1  0  0  0  0
 20 19  1  0  0  0  0
 21 22  1  0  0  0  0
 23 21  1  0  0  0  0
 24 23  1  0  0  0  0
 25 26  1  0  0  0  0
 25 27  1  0  0  0  0
 28 30  1  0  0  0  0
 28 25  1  0  0  0  0
 29 28  1  0  0  0  0
 31 40  1  0  0  0  0
 32 31  1  0  0  0  0
 32 28  1  0  0  0  0
 33 32  2  0  0  0  0
 34 38  2  0  0  0  0
 34 33  1  0  0  0  0
 35 34  1  0  0  0  0
 36 35  1  0  0  0  0
 36 37  2  0  0  0  0
 37 38  1  0  0  0  0
 38 39  1  0  0  0  0
 39 45  1  0  0  0  0
 39 31  2  0  0  0  0
 41 33  1  0  0  0  0
 42 35  1  0  0  0  0
 43 36  1  0  0  0  0
 44 37  1  0  0  0  0
 45 46  2  0  0  0  0
 47 45  1  0  0  0  0
M  END
>  <minimizedAffinity>
-6.39010715

$$$$

 OpenBabel03252506303D

 47 51  0  0  0  0  0  0  0  0999 V2000
   39.0490   31.9890   39.6890 C   0  0  0  0  0  0  0  0  0  0  0  0
   38.1080   31.7610   38.6780 C   0  0  0  0  0  0  0  0  0  0  0  0
   37.0630   31.0860   39.2140 C   0  0  0  0  0  0  0  0  0  0  0  0
   37.3460   30.9040   40.5060 N   0  0  0  0  0  0  0  0  0  0  0  0
   38.5280   31.4410   40.7930 N   0  0  0  0  0  0  0  0  0  0  0  0
   38.1500   32.0460   37.6390 H   0  0  0  0  0  0  0  0  0  0  0  0
   36.1370   30.7280   38.7440 H   0  0  0  0  0  0  0  0  0  0  0  0
   41.8340   33.6970   38.0560 C   0  0  0  0  0  0  0  0  0  0  0  0
   42.6810   34.0040   39.1040 C   0  0  0  0  0  0  0  0  0  0  0  0
   42.2890   33.6200   40.3850 C   0  0  0  0  0  0  0  0  0  0  0  0
   41.1120   32.9760   40.5100 N   0  0  0  0  0  0  0  0  0  0  0  0
   40.3140   32.6900   39.4980 C   0  0  0  0  0  0  0  0  0  0  0  0
   40.6840   33.0560   38.2670 N   0  0  0  0  0  0  0  0  0  0  0  0
   42.1740   34.0140   37.0750 H   0  0  0  0  0  0  0  0  0  0  0  0
   43.6260   34.5130   39.0740 H   0  0  0  0  0  0  0  0  0  0  0  0
   42.9800   33.8180   41.6130 N   0  0  0  0  0  0  0  0  0  0  0  0
   43.4160   35.0990   42.1340 C   0  0  0  0  0  3  0  0  0  0  0  0
   42.5740   35.5640   42.7030 H   0  0  0  0  0  0  0  0  0  0  0  0
   44.5610   34.9000   43.1050 C   0  0  0  0  0  3  0  0  0  0  0  0
   44.2220   34.4560   44.0610 H   0  0  0  0  0  0  0  0  0  0  0  0
   45.4930   33.9440   42.5150 N   0  0  0  0  0  0  0  0  0  0  0  0
   46.3710   33.9160   43.1060 H   0  0  0  0  0  0  0  0  0  0  0  0
   44.8840   32.6320   42.6270 C   0  0  0  0  0  2  0  0  0  0  0  0
   43.3770   32.7970   42.5640 C   0  0  0  0  0  2  0  0  0  0  0  0
   36.4980   30.2240   41.4640 C   0  0  0  0  0  0  0  0  0  0  0  0
   36.9840   30.1810   42.4490 H   0  0  0  0  0  0  0  0  0  0  0  0
   35.5180   30.7340   41.6180 H   0  0  0  0  0  0  0  0  0  0  0  0
   36.2330   28.8310   41.0240 C   0  0  0  0  0  0  0  0  0  0  0  0
   35.1820   28.5760   41.2980 H   0  0  0  0  0  0  0  0  0  0  0  0
   36.2340   28.7950   39.9040 H   0  0  0  0  0  0  0  0  0  0  0  0
   36.9420   26.4140   41.5140 C   0  0  0  0  0  0  0  0  0  0  0  0
   37.0850   27.7860   41.5790 C   0  0  0  0  0  0  0  0  0  0  0  0
   38.1970   28.2550   42.2700 C   0  0  0  0  0  0  0  0  0  0  0  0
   39.1020   27.4060   42.8540 C   0  0  0  0  0  0  0  0  0  0  0  0
   40.2370   27.5690   43.5650 N   0  0  0  0  0  0  0  0  0  0  0  0
   40.7650   26.3950   43.9180 C   0  0  0  0  0  0  0  0  0  0  0  0
   39.9550   25.3750   43.4280 C   0  0  0  0  0  0  0  0  0  0  0  0
   38.9520   26.0470   42.7840 C   0  0  0  0  0  0  0  0  0  0  0  0
   37.8460   25.5710   42.0970 C   0  0  0  0  0  0  0  0  0  0  0  0
   36.0600   26.0910   40.9650 H   0  0  0  0  0  0  0  0  0  0  0  0
   38.4230   29.3050   42.3930 H   0  0  0  0  0  0  0  0  0  0  0  0
   40.6610   28.5090   43.8140 H   0  0  0  0  0  0  0  0  0  0  0  0
   41.6740   26.2340   44.4920 H   0  0  0  0  0  0  0  0  0  0  0  0
   40.0590   24.3140   43.5130 H   0  0  0  0  0  0  0  0  0  0  0  0
   37.6310   24.1330   41.9880 C   0  0  0  0  0  0  0  0  0  0  0  0
   38.1470   23.4570   41.0660 O   0  0  0  0  0  0  0  0  0  0  0  0
   37.0180   23.5730   42.6910 H   0  0  0  0  0  0  0  0  0  0  0  0
  1  5  2  0  0  0  0
  2  3  2  0  0  0  0
  2  1  1  0  0  0  0
  3  4  1  0  0  0  0
  4  5  1  0  0  0  0
  4 25  1  0  0  0  0
  6  2  1  0  0  0  0
  7  3  1  0  0  0  0
  8 13  2  0  0  0  0
  8  9  1  0  0  0  0
  9 10  2  0  0  0  0
 10 11  1  0  0  0  0
 10 16  1  0  0  0  0
 12  1  1  0  0  0  0
 12 11  2  0  0  0  0
 13 12  1  0  0  0  0
 14  8  1  0  0  0  0
 15  9  1  0  0  0  0
 16 17  1  0  0  0  0
 16 24  1  0  0  0  0
 17 18  1  0  0  0  0
 17 19  1  0  0  0  0
 19 20  1  0  0  0  0
 21 23  1  0  0  0  0
 21 19  1  0  0  0  0
 21 22  1  0  0  0  0
 24 23  1  0  0  0  0
 25 27  1  0  0  0  0
 25 26  1  0  0  0  0
 28 29  1  0  0  0  0
 28 25  1  0  0  0  0
 28 32  1  0  0  0  0
 30 28  1  0  0  0  0
 31 32  2  0  0  0  0
 31 39  1  0  0  0  0
 32 33  1  0  0  0  0
 33 41  1  0  0  0  0
 33 34  2  0  0  0  0
 34 35  1  0  0  0  0
 35 42  1  0  0  0  0
 35 36  1  0  0  0  0
 36 43  1  0  0  0  0
 37 44  1  0  0  0  0
 37 36  2  0  0  0  0
 38 34  1  0  0  0  0
 38 37  1  0  0  0  0
 39 38  2  0  0  0  0
 40 31  1  0  0  0  0
 45 39  1  0  0  0  0
 45 47  1  0  0  0  0
 46 45  2  0  0  0  0
M  END
>  <minimizedAffinity>
-6.30396557

$$$$
