
 OpenBabel03252509283D

 21 22  0  0  0  0  0  0  0  0999 V2000
   43.7390   33.7070   40.3100 C   0  0  0  0  0  0  0  0  0  0  0  0
   44.1430   33.4140   39.3200 H   0  0  0  0  0  0  0  0  0  0  0  0
   43.6820   32.7410   40.8810 H   0  0  0  0  0  0  0  0  0  0  0  0
   40.8450   35.6900   39.0790 C   0  0  0  0  0  0  0  0  0  0  0  0
   42.1740   35.2260   39.2430 C   0  0  0  0  0  0  0  0  0  0  0  0
   42.3610   34.1780   40.1490 C   0  0  0  0  0  0  0  0  0  0  0  0
   41.3020   33.6570   40.8200 N   0  0  0  0  0  0  0  0  0  0  0  0
   40.0440   34.1500   40.6170 C   0  0  0  0  0  0  0  0  0  0  0  0
   39.8260   35.1500   39.7600 N   0  0  0  0  0  0  0  0  0  0  0  0
   40.6080   36.4970   38.4000 H   0  0  0  0  0  0  0  0  0  0  0  0
   42.9680   35.6910   38.6730 H   0  0  0  0  0  0  0  0  0  0  0  0
   39.1940   33.7330   41.1550 H   0  0  0  0  0  0  0  0  0  0  0  0
   44.5950   34.5710   41.0560 N   0  0  0  0  0  0  0  0  0  0  0  0
   44.0910   34.6330   42.4170 C   0  0  0  0  0  3  0  0  0  0  0  0
   43.9330   35.6890   42.7360 H   0  0  0  0  0  0  0  0  0  0  0  0
   45.0620   34.0280   43.4040 C   0  0  0  0  0  3  0  0  0  0  0  0
   45.2620   32.9600   43.2110 H   0  0  0  0  0  0  0  0  0  0  0  0
   46.2610   34.8160   43.4070 N   0  0  0  0  0  0  0  0  0  0  0  0
   46.0920   35.7400   43.8520 H   0  0  0  0  0  0  0  0  0  0  0  0
   46.7260   35.0570   42.0490 C   0  0  0  0  0  2  0  0  0  0  0  0
   45.9720   34.1680   41.0590 C   0  0  0  0  0  2  0  0  0  0  0  0
  1  3  1  0  0  0  0
  1 13  1  0  0  0  0
  2  1  1  0  0  0  0
  4  5  2  0  0  0  0
  4  9  1  0  0  0  0
  5  6  1  0  0  0  0
  6  1  1  0  0  0  0
  6  7  2  0  0  0  0
  8  7  1  0  0  0  0
  8 12  1  0  0  0  0
  9  8  2  0  0  0  0
 10  4  1  0  0  0  0
 11  5  1  0  0  0  0
 13 21  1  0  0  0  0
 13 14  1  0  0  0  0
 14 15  1  0  0  0  0
 14 16  1  0  0  0  0
 16 18  1  0  0  0  0
 17 16  1  0  0  0  0
 18 19  1  0  0  0  0
 20 18  1  0  0  0  0
 21 20  1  0  0  0  0
M  END
>  <minimizedAffinity>
-3.48635173

>  <minimizedRMSD>
5.25305986

$$$$
