
     RDKit          3D

 37 39  0  0  0  0  0  0  0  0999 V2000
   46.6068   34.4141   41.4477 C   0  0  0  0  0  0  0  0  0  0  0  0
   47.8731   34.9021   41.2373 C   0  0  0  0  0  0  0  0  0  0  0  0
   48.5325   34.6621   40.0467 C   0  0  0  0  0  0  0  0  0  0  0  0
   47.8803   33.9252   39.0925 C   0  0  0  0  0  0  0  0  0  0  0  0
   46.6122   33.4166   39.2592 C   0  0  0  0  0  0  0  0  0  0  0  0
   46.0031   33.6945   40.4820 C   0  0  0  0  0  0  0  0  0  0  0  0
   44.6848   36.0661   44.2675 C   0  0  0  0  0  0  0  0  0  0  0  0
   45.2360   35.8477   42.9896 C   0  0  0  0  0  0  0  0  0  0  0  0
   45.9978   34.7219   42.7361 C   0  0  0  0  0  0  0  0  0  0  0  0
   46.1706   33.8736   43.7671 N   0  0  0  0  0  0  0  0  0  0  0  0
   45.6497   34.0667   44.9990 C   0  0  0  0  0  0  0  0  0  0  0  0
   44.9071   35.1641   45.2461 N   0  0  0  0  0  0  0  0  0  0  0  0
   48.5748   35.7103   42.2971 C   0  0  0  0  0  0  0  0  0  0  0  0
   49.5296   35.0537   39.8968 H   0  0  0  0  0  0  0  0  0  0  0  0
   48.3449   33.7009   38.1325 H   0  0  0  0  0  0  0  0  0  0  0  0
   46.0324   32.8396   38.5826 H   0  0  0  0  0  0  0  0  0  0  0  0
   45.0061   33.3403   40.7137 H   0  0  0  0  0  0  0  0  0  0  0  0
   44.0938   36.9521   44.4425 H   0  0  0  0  0  0  0  0  0  0  0  0
   45.0855   36.5318   42.1916 H   0  0  0  0  0  0  0  0  0  0  0  0
   45.8083   33.3603   45.8115 H   0  0  0  0  0  0  0  0  0  0  0  0
   47.8716   36.4238   42.7824 H   0  0  0  0  0  0  0  0  0  0  0  0
   49.4370   36.2450   41.8287 H   0  0  0  0  0  0  0  0  0  0  0  0
   49.0220   34.8052   43.3017 N   0  0  0  0  0  0  0  0  0  0  0  0
   50.4198   34.5110   43.3137 C   0  0  1  0  0  0  0  0  0  0  0  0
   51.0872   35.3568   43.5114 H   0  0  0  0  0  0  0  0  0  0  0  0
   50.7691   33.8140   42.0172 C   0  0  1  0  0  0  0  0  0  0  0  0
   51.0541   34.6089   41.2968 H   0  0  0  0  0  0  0  0  0  0  0  0
   49.6540   33.1032   41.4497 N   0  0  0  0  0  0  0  0  0  0  0  0
   50.0523   32.2368   40.9830 H   0  0  0  0  0  0  0  0  0  0  0  0
   48.7200   32.6109   42.4206 C   0  0  0  0  0  0  0  0  0  0  0  0
   48.2810   33.5981   43.4513 C   0  0  0  0  0  0  0  0  0  0  0  0
   50.5890   33.7749   44.1272 H   0  0  0  0  0  0  0  0  0  0  0  0
   51.6610   33.1681   42.1417 H   0  0  0  0  0  0  0  0  0  0  0  0
   49.0749   31.6449   42.8879 H   0  0  0  0  0  0  0  0  0  0  0  0
   47.8111   32.2853   41.8460 H   0  0  0  0  0  0  0  0  0  0  0  0
   48.5505   33.1743   44.4630 H   0  0  0  0  0  0  0  0  0  0  0  0
   47.1833   33.7827   43.4043 H   0  0  0  0  0  0  0  0  0  0  0  0
  1  9  1  0
  2  1  1  0
  2 13  1  0
  3  2  2  0
  4  5  2  0
  4  3  1  0
  5  6  1  0
  6  1  2  0
  7 12  2  0
  8  7  1  0
  9  8  2  0
  9 10  1  0
 10 11  2  0
 11 12  1  0
  3 14  1  0
  4 15  1  0
  5 16  1  0
  6 17  1  0
  7 18  1  0
  8 19  1  0
 11 20  1  0
 13 21  1  0
 13 22  1  0
 23 24  1  0
 24 25  1  1
 24 26  1  0
 26 27  1  6
 26 28  1  0
 28 29  1  0
 28 30  1  0
 30 31  1  0
 31 23  1  0
 24 32  1  0
 26 33  1  0
 30 34  1  0
 30 35  1  0
 31 36  1  0
 31 37  1  0
 13 23  1  0
M  ISO  8  14  14  15  14  16  14  17  14  18  14  19  14  20  14  21   8
M  ISO  4  22   8  25   8  27   8  29   5
M  END
>  <DihAtoms>  (1) 
1,12,22,23

>  <DihDeg>  (1) 
179.73867555626933

$$$$
