
 OpenBabel03252502523D

 31 33  0  0  0  0  0  0  0  0999 V2000
   46.0110   30.0140   44.4800 Br  0  0  0  0  0  0  0  0  0  0  0  0
   45.7730   30.6360   46.2890 C   0  0  0  0  0  0  0  0  0  0  0  0
   46.3150   31.8600   46.5920 C   0  0  0  0  0  0  0  0  0  0  0  0
   46.1210   32.2790   47.9180 C   0  0  0  0  0  0  0  0  0  0  0  0
   45.4420   31.5310   48.8550 C   0  0  0  0  0  0  0  0  0  0  0  0
   44.9300   30.3230   48.4820 C   0  0  0  0  0  0  0  0  0  0  0  0
   45.0840   29.8530   47.1970 C   0  0  0  0  0  0  0  0  0  0  0  0
   46.5150   33.2330   48.2460 H   0  0  0  0  0  0  0  0  0  0  0  0
   45.3070   31.8730   49.8610 H   0  0  0  0  0  0  0  0  0  0  0  0
   44.3860   29.7020   49.1960 H   0  0  0  0  0  0  0  0  0  0  0  0
   44.5380   28.5880   46.8420 N   0  0  0  0  0  0  0  0  0  0  0  0
   43.4140   28.3540   45.9670 C   0  0  0  0  0  0  0  0  0  0  0  0
   42.5000   28.5450   46.6040 H   0  0  0  0  0  0  0  0  0  0  0  0
   43.3680   26.9120   45.5900 C   0  0  0  0  0  0  0  0  0  0  0  0
   42.7430   26.8210   44.6550 H   0  0  0  0  0  0  0  0  0  0  0  0
   44.6340   26.3170   45.2800 N   0  0  0  0  0  0  0  0  0  0  0  0
   44.4890   25.2650   45.3180 H   0  0  0  0  0  0  0  0  0  0  0  0
   45.6870   26.6160   46.2140 C   0  0  0  0  0  0  0  0  0  0  0  0
   45.1630   27.3940   47.4070 C   0  0  0  0  0  0  0  0  0  0  0  0
   47.0540   32.7350   45.6750 C   0  0  0  0  0  0  0  0  0  0  0  0
   47.5440   32.1490   44.8740 H   0  0  0  0  0  0  0  0  0  0  0  0
   47.8790   33.2280   46.2650 H   0  0  0  0  0  0  0  0  0  0  0  0
   44.5100   35.4150   45.1470 C   0  0  0  0  0  0  0  0  0  0  0  0
   44.7550   35.7770   43.8290 C   0  0  0  0  0  0  0  0  0  0  0  0
   45.7590   35.1230   43.1440 C   0  0  0  0  0  0  0  0  0  0  0  0
   46.4650   34.1560   43.7810 N   0  0  0  0  0  0  0  0  0  0  0  0
   46.2120   33.8120   45.0830 C   0  0  0  0  0  0  0  0  0  0  0  0
   45.2270   34.4630   45.7310 N   0  0  0  0  0  0  0  0  0  0  0  0
   43.7100   35.9360   45.6930 H   0  0  0  0  0  0  0  0  0  0  0  0
   44.1530   36.5680   43.3580 H   0  0  0  0  0  0  0  0  0  0  0  0
   45.9720   35.3830   42.1180 H   0  0  0  0  0  0  0  0  0  0  0  0
  1  2  1  0  0  0  0
  2  3  2  0  0  0  0
  2  7  1  0  0  0  0
  3  4  1  0  0  0  0
  4  8  1  0  0  0  0
  4  5  2  0  0  0  0
  5  9  1  0  0  0  0
  6  5  1  0  0  0  0
  6 10  1  0  0  0  0
  7  6  2  0  0  0  0
 11  7  1  0  0  0  0
 11 19  1  0  0  0  0
 12 13  1  0  0  0  0
 12 11  1  0  0  0  0
 14 12  1  0  0  0  0
 15 14  1  0  0  0  0
 16 17  1  0  0  0  0
 16 14  1  0  0  0  0
 16 18  1  0  0  0  0
 18 19  1  0  0  0  0
 20 22  1  0  0  0  0
 20  3  1  0  0  0  0
 21 20  1  0  0  0  0
 23 29  1  0  0  0  0
 23 28  1  0  0  0  0
 24 23  2  0  0  0  0
 25 26  2  0  0  0  0
 25 24  1  0  0  0  0
 26 27  1  0  0  0  0
 27 20  1  0  0  0  0
 27 28  2  0  0  0  0
 30 24  1  0  0  0  0
 31 25  1  0  0  0  0
M  END
>  <minimizedAffinity>
-4.85108042

>  <minimizedRMSD>
0.880052269

$$$$
