REMARK  Name = 
REMARK  4 active torsions:
REMARK  status: ('A' for Active; 'I' for Inactive)
REMARK    1  A    between atoms: C_1  and  C_7
REMARK    2  A    between atoms: C_6  and  N_19
REMARK    3  A    between atoms: C_11  and  C_13
REMARK    4  A    between atoms: N_19  and  C_39
REMARK                            x       y       z     vdW  Elec       q    Type
REMARK                         _______ _______ _______ _____ _____    ______ ____
ROOT
ATOM      1  C   UNL     1      46.441  32.513  46.682  0.00  0.00    +0.000 C 
ATOM      2  C   UNL     1      46.264  31.090  46.188  0.00  0.00    +0.000 C 
ATOM      3  C   UNL     1      46.941  30.180  47.194  0.00  0.00    +0.000 C 
ATOM      4  C   UNL     1      46.493  30.409  48.612  0.00  0.00    +0.000 C 
ATOM      5  C   UNL     1      46.519  31.854  48.993  0.00  0.00    +0.000 C 
ATOM      6  C   UNL     1      45.783  32.680  47.998  0.00  0.00    +0.000 C 
ATOM      7  H   UNL     1      47.554  32.610  46.815  0.00  0.00    +0.000 HD
ATOM      8  H   UNL     1      45.249  30.817  45.923  0.00  0.00    +0.000 HD
ATOM      9  H   UNL     1      46.866  30.983  45.244  0.00  0.00    +0.000 HD
ATOM     10  H   UNL     1      46.889  29.126  46.933  0.00  0.00    +0.000 HD
ATOM     11  H   UNL     1      48.027  30.471  47.156  0.00  0.00    +0.000 HD
ATOM     12  H   UNL     1      45.538  29.909  48.789  0.00  0.00    +0.000 HD
ATOM     13  H   UNL     1      47.256  29.894  49.252  0.00  0.00    +0.000 HD
ATOM     14  H   UNL     1      47.599  32.180  48.941  0.00  0.00    +0.000 HD
ATOM     15  H   UNL     1      46.225  31.976  50.037  0.00  0.00    +0.000 HD
ATOM     16  H   UNL     1      45.935  33.737  48.301  0.00  0.00    +0.000 HD
ENDROOT
BRANCH   1  17
ATOM     17  C   UNL     1      46.053  33.517  45.706  0.00  0.00    +0.000 A 
ATOM     18  C   UNL     1      45.007  34.410  46.056  0.00  0.00    +0.000 A 
ATOM     19  C   UNL     1      44.621  35.371  45.095  0.00  0.00    +0.000 A 
ATOM     20  N   UNL     1      45.286  35.377  43.882  0.00  0.00    +0.000 NA
ATOM     21  C   UNL     1      46.279  34.480  43.633  0.00  0.00    +0.000 A 
ATOM     22  N   UNL     1      46.666  33.559  44.524  0.00  0.00    +0.000 NA
ATOM     23  H   UNL     1      44.475  34.444  46.965  0.00  0.00    +0.000 HD
ATOM     24  H   UNL     1      43.845  36.078  45.281  0.00  0.00    +0.000 HD
BRANCH  21  25
ATOM     25  C   UNL     1      46.926  34.545  42.318  0.00  0.00    +0.000 A 
ATOM     26  C   UNL     1      48.026  35.286  42.092  0.00  0.00    +0.000 A 
ATOM     27  C   UNL     1      48.632  35.344  40.843  0.00  0.00    +0.000 A 
ATOM     28  C   UNL     1      48.069  34.614  39.832  0.00  0.00    +0.000 A 
ATOM     29  C   UNL     1      46.953  33.858  40.047  0.00  0.00    +0.000 A 
ATOM     30  N   UNL     1      46.377  33.819  41.285  0.00  0.00    +0.000 NA
ATOM     31  H   UNL     1      48.405  35.831  42.946  0.00  0.00    +0.000 HD
ATOM     32  H   UNL     1      49.514  35.970  40.766  0.00  0.00    +0.000 HD
ATOM     33  H   UNL     1      48.550  34.669  38.869  0.00  0.00    +0.000 HD
ATOM     34  H   UNL     1      46.501  33.279  39.259  0.00  0.00    +0.000 HD
ENDBRANCH  21  25
ENDBRANCH   1  17
BRANCH   6  35
ATOM     35  N   UNL     1      44.411  32.288  47.909  0.00  0.00    +0.000 NA
ATOM     36  H   UNL     1      44.420  31.257  47.720  0.00  0.00    +0.000 HD
BRANCH  35  39
ATOM     37  H   UNL     1      44.796  33.829  50.170  0.00  0.00    +0.000 HD
ATOM     38  N   UNL     1      44.683  32.794  50.100  0.00  0.00    +0.000 NA
ATOM     39  C   UNL     1      43.671  32.430  49.149  0.00  0.00    +0.000 C 
ATOM     40  C   UNL     1      42.805  31.302  49.522  0.00  0.00    +0.000 C 
ATOM     41  H   UNL     1      41.806  31.653  49.919  0.00  0.00    +0.000 HD
ATOM     42  N   UNL     1      43.322  30.470  50.599  0.00  0.00    +0.000 NA
ATOM     43  H   UNL     1      44.200  30.046  50.290  0.00  0.00    +0.000 HD
ATOM     44  C   UNL     1      43.476  31.378  51.733  0.00  0.00    +0.000 C 
ATOM     45  C   UNL     1      44.662  32.216  51.376  0.00  0.00    +0.000 C 
ENDBRANCH  35  39
ENDBRANCH   6  35
TORSDOF 4
