
 OpenBabel03252506503D

 31 34  0  0  0  0  0  0  0  0999 V2000
   47.2870   31.3820   45.1690 C   0  0  0  0  0  0  0  0  0  0  0  0
   46.8890   32.7030   45.1290 C   0  0  0  0  0  0  0  0  0  0  0  0
   46.2380   33.3210   46.1810 C   0  0  0  0  0  0  0  0  0  0  0  0
   45.9590   32.6100   47.3440 C   0  0  0  0  0  0  0  0  0  0  0  0
   45.3590   32.8740   48.5350 N   0  0  0  0  0  0  0  0  0  0  0  0
   45.3910   31.7360   49.2850 C   0  0  0  0  0  0  0  0  0  0  0  0
   46.0110   30.7850   48.5460 N   0  0  0  0  0  0  0  0  0  0  0  0
   46.3660   31.2980   47.3560 C   0  0  0  0  0  0  0  0  0  0  0  0
   47.0140   30.6540   46.3290 C   0  0  0  0  0  0  0  0  0  0  0  0
   47.7980   30.8840   44.3530 H   0  0  0  0  0  0  0  0  0  0  0  0
   45.9350   34.3520   46.1330 H   0  0  0  0  0  0  0  0  0  0  0  0
   44.9560   33.8060   48.7880 H   0  0  0  0  0  0  0  0  0  0  0  0
   44.9780   31.6490   50.3020 H   0  0  0  0  0  0  0  0  0  0  0  0
   46.5280   35.1660   42.4140 C   0  0  0  0  0  0  0  0  0  0  0  0
   47.7010   34.9910   41.6820 C   0  0  0  0  0  0  0  0  0  0  0  0
   48.6170   34.0240   42.1230 C   0  0  0  0  0  0  0  0  0  0  0  0
   48.2910   33.3140   43.2520 N   0  0  0  0  0  0  0  0  0  0  0  0
   47.1530   33.5030   43.9400 C   0  0  0  0  0  0  0  0  0  0  0  0
   46.2920   34.4240   43.5100 N   0  0  0  0  0  0  0  0  0  0  0  0
   45.8740   35.9100   42.0320 H   0  0  0  0  0  0  0  0  0  0  0  0
   48.0140   35.5120   40.7920 H   0  0  0  0  0  0  0  0  0  0  0  0
   49.5680   33.7780   41.6570 H   0  0  0  0  0  0  0  0  0  0  0  0
   47.4120   29.2900   46.4000 N   0  0  0  0  0  0  0  0  0  0  0  0
   46.4280   28.3420   45.9120 C   0  0  0  0  0  0  0  0  0  0  0  0
   45.4680   28.4790   46.4480 H   0  0  0  0  0  0  0  0  0  0  0  0
   46.9510   26.9260   45.9960 C   0  0  0  0  0  0  0  0  0  0  0  0
   47.5410   26.7070   45.1040 H   0  0  0  0  0  0  0  0  0  0  0  0
   47.7940   26.7260   47.1500 N   0  0  0  0  0  0  0  0  0  0  0  0
   47.3000   26.5850   48.0380 H   0  0  0  0  0  0  0  0  0  0  0  0
   48.9590   27.5480   47.1830 C   0  0  0  0  0  0  0  0  0  0  0  0
   48.7280   29.0050   46.9380 C   0  0  0  0  0  0  0  0  0  0  0  0
  1  9  1  0  0  0  0
  2  1  2  0  0  0  0
  2  3  1  0  0  0  0
  3  4  2  0  0  0  0
  4  8  1  0  0  0  0
  4  5  1  0  0  0  0
  5 12  1  0  0  0  0
  5  6  1  0  0  0  0
  6 13  1  0  0  0  0
  7  6  2  0  0  0  0
  8  7  1  0  0  0  0
  9 23  1  0  0  0  0
  9  8  2  0  0  0  0
 10  1  1  0  0  0  0
 11  3  1  0  0  0  0
 14 19  1  0  0  0  0
 15 16  1  0  0  0  0
 15 14  2  0  0  0  0
 16 17  2  0  0  0  0
 17 18  1  0  0  0  0
 18  2  1  0  0  0  0
 19 18  2  0  0  0  0
 20 14  1  0  0  0  0
 21 15  1  0  0  0  0
 22 16  1  0  0  0  0
 23 31  1  0  0  0  0
 24 26  1  0  0  0  0
 24 23  1  0  0  0  0
 24 25  1  0  0  0  0
 26 28  1  0  0  0  0
 27 26  1  0  0  0  0
 28 30  1  0  0  0  0
 28 29  1  0  0  0  0
 31 30  1  0  0  0  0
M  END
>  <minimizedAffinity>
-5.23091841

>  <minimizedRMSD>
0.208397821

$$$$
