
     RDKit          3D

 37 39  0  0  0  0  0  0  0  0999 V2000
   46.6068   34.4141   41.4477 C   0  0  0  0  0  0  0  0  0  0  0  0
   47.8731   34.9021   41.2373 C   0  0  0  0  0  0  0  0  0  0  0  0
   48.5325   34.6621   40.0467 C   0  0  0  0  0  0  0  0  0  0  0  0
   47.8803   33.9252   39.0925 C   0  0  0  0  0  0  0  0  0  0  0  0
   46.6122   33.4166   39.2592 C   0  0  0  0  0  0  0  0  0  0  0  0
   46.0031   33.6945   40.4820 C   0  0  0  0  0  0  0  0  0  0  0  0
   44.6848   36.0661   44.2675 C   0  0  0  0  0  0  0  0  0  0  0  0
   45.2360   35.8477   42.9896 C   0  0  0  0  0  0  0  0  0  0  0  0
   45.9978   34.7219   42.7361 C   0  0  0  0  0  0  0  0  0  0  0  0
   46.1706   33.8736   43.7671 N   0  0  0  0  0  0  0  0  0  0  0  0
   45.6497   34.0667   44.9990 C   0  0  0  0  0  0  0  0  0  0  0  0
   44.9071   35.1641   45.2461 N   0  0  0  0  0  0  0  0  0  0  0  0
   48.5748   35.7103   42.2971 C   0  0  0  0  0  0  0  0  0  0  0  0
   49.5296   35.0537   39.8968 H   0  0  0  0  0  0  0  0  0  0  0  0
   48.3449   33.7009   38.1325 H   0  0  0  0  0  0  0  0  0  0  0  0
   46.0324   32.8396   38.5826 H   0  0  0  0  0  0  0  0  0  0  0  0
   45.0061   33.3403   40.7137 H   0  0  0  0  0  0  0  0  0  0  0  0
   44.0938   36.9521   44.4425 H   0  0  0  0  0  0  0  0  0  0  0  0
   45.0855   36.5318   42.1916 H   0  0  0  0  0  0  0  0  0  0  0  0
   45.8083   33.3603   45.8115 H   0  0  0  0  0  0  0  0  0  0  0  0
   47.8716   36.4238   42.7824 H   0  0  0  0  0  0  0  0  0  0  0  0
   49.4370   36.2450   41.8287 H   0  0  0  0  0  0  0  0  0  0  0  0
   49.0220   34.8052   43.3017 N   0  0  0  0  0  0  0  0  0  0  0  0
   50.2101   35.1736   44.0041 C   0  0  1  0  0  0  0  0  0  0  0  0
   50.1540   36.0957   44.5926 H   0  0  0  0  0  0  0  0  0  0  0  0
   51.3540   35.2102   43.0147 C   0  0  1  0  0  0  0  0  0  0  0  0
   51.3979   36.2463   42.6191 H   0  0  0  0  0  0  0  0  0  0  0  0
   51.1476   34.3330   41.8928 N   0  0  0  0  0  0  0  0  0  0  0  0
   52.1029   33.9582   41.6211 H   0  0  0  0  0  0  0  0  0  0  0  0
   50.3612   33.1723   42.1959 C   0  0  0  0  0  0  0  0  0  0  0  0
   49.0917   33.4297   42.9387 C   0  0  0  0  0  0  0  0  0  0  0  0
   50.4320   34.3531   44.7180 H   0  0  0  0  0  0  0  0  0  0  0  0
   52.3225   35.0258   43.5210 H   0  0  0  0  0  0  0  0  0  0  0  0
   50.9811   32.3662   42.6893 H   0  0  0  0  0  0  0  0  0  0  0  0
   50.0946   32.7064   41.2089 H   0  0  0  0  0  0  0  0  0  0  0  0
   49.1373   32.8412   43.9016 H   0  0  0  0  0  0  0  0  0  0  0  0
   48.1991   33.1154   42.3509 H   0  0  0  0  0  0  0  0  0  0  0  0
  1  9  1  0
  2  1  1  0
  2 13  1  0
  3  2  2  0
  4  5  2  0
  4  3  1  0
  5  6  1  0
  6  1  2  0
  7 12  2  0
  8  7  1  0
  9  8  2  0
  9 10  1  0
 10 11  2  0
 11 12  1  0
  3 14  1  0
  4 15  1  0
  5 16  1  0
  6 17  1  0
  7 18  1  0
  8 19  1  0
 11 20  1  0
 13 21  1  0
 13 22  1  0
 23 24  1  0
 24 25  1  1
 24 26  1  0
 26 27  1  6
 26 28  1  0
 28 29  1  0
 28 30  1  0
 30 31  1  0
 31 23  1  0
 24 32  1  0
 26 33  1  0
 30 34  1  0
 30 35  1  0
 31 36  1  0
 31 37  1  0
 13 23  1  0
M  ISO  8  14  14  15  14  16  14  17  14  18  14  19  14  20  14  21   8
M  ISO  4  22   8  25   8  27   8  29   5
M  END
>  <DihAtoms>  (1) 
1,12,22,23

>  <DihDeg>  (1) 
179.73867555626933

$$$$
