
     RDKit          3D

 53 56  0  0  0  0  0  0  0  0999 V2000
   47.3278   33.6247   42.8406 C   0  0  0  0  0  0  0  0  0  0  0  0
   48.4117   33.4111   43.4425 O   0  0  0  0  0  0  0  0  0  0  0  0
   47.0330   33.1254   41.5490 N   0  0  0  0  0  0  0  0  0  0  0  0
   45.8122   32.4962   41.0234 C   0  0  0  0  0  0  0  0  0  0  0  0
   45.3864   33.1859   39.7407 C   0  0  0  0  0  0  0  0  0  0  0  0
   46.4244   33.0076   38.6803 C   0  0  0  0  0  0  0  0  0  0  0  0
   47.6898   32.4888   39.3042 C   0  0  0  0  0  0  0  0  0  0  0  0
   48.0685   33.2169   40.5552 C   0  0  2  0  0  0  0  0  0  0  0  0
   45.9639   35.6595   42.9214 C   0  0  0  0  0  0  0  0  0  0  0  0
   46.3398   34.4216   43.5116 C   0  0  0  0  0  0  0  0  0  0  0  0
   45.7455   34.0350   44.6983 C   0  0  0  0  0  0  0  0  0  0  0  0
   44.8269   34.8538   45.2512 N   0  0  0  0  0  0  0  0  0  0  0  0
   44.4604   36.0345   44.7000 C   0  0  0  0  0  0  0  0  0  0  0  0
   45.0383   36.4154   43.5416 N   0  0  0  0  0  0  0  0  0  0  0  0
   46.1472   32.7650   45.2857 C   0  0  0  0  0  0  0  0  0  0  0  0
   45.7660   31.5981   44.7141 C   0  0  0  0  0  0  0  0  0  0  0  0
   46.1644   30.4081   45.2924 C   0  0  0  0  0  0  0  0  0  0  0  0
   46.9497   30.3615   46.4507 C   0  0  0  0  0  0  0  0  0  0  0  0
   47.3108   31.5926   46.9928 C   0  0  0  0  0  0  0  0  0  0  0  0
   46.9050   32.7259   46.4031 N   0  0  0  0  0  0  0  0  0  0  0  0
   49.4114   32.7713   41.0072 C   0  0  0  0  0  0  0  0  0  0  0  0
   46.0353   31.4349   40.8203 H   0  0  0  0  0  0  0  0  0  0  0  0
   44.9525   32.6211   41.7215 H   0  0  0  0  0  0  0  0  0  0  0  0
   45.1256   34.2417   39.9525 H   0  0  0  0  0  0  0  0  0  0  0  0
   44.4459   32.6524   39.4312 H   0  0  0  0  0  0  0  0  0  0  0  0
   46.0749   32.2762   37.9176 H   0  0  0  0  0  0  0  0  0  0  0  0
   46.6007   33.9623   38.1429 H   0  0  0  0  0  0  0  0  0  0  0  0
   47.6256   31.4009   39.4378 H   0  0  0  0  0  0  0  0  0  0  0  0
   48.5020   32.6873   38.5475 H   0  0  0  0  0  0  0  0  0  0  0  0
   48.0523   34.3038   40.2446 H   0  0  0  0  0  0  0  0  0  0  0  0
   46.4384   35.9533   41.9867 H   0  0  0  0  0  0  0  0  0  0  0  0
   43.7274   36.6583   45.1694 H   0  0  0  0  0  0  0  0  0  0  0  0
   45.1708   31.5098   43.8354 H   0  0  0  0  0  0  0  0  0  0  0  0
   45.8983   29.4420   44.8910 H   0  0  0  0  0  0  0  0  0  0  0  0
   47.2763   29.4642   46.9255 H   0  0  0  0  0  0  0  0  0  0  0  0
   47.9165   31.6339   47.8869 H   0  0  0  0  0  0  0  0  0  0  0  0
   49.7892   33.2029   41.9520 H   0  0  0  0  0  0  0  0  0  0  0  0
   49.3793   31.6859   41.2223 H   0  0  0  0  0  0  0  0  0  0  0  0
   50.4328   32.8386   39.9922 N   0  0  0  0  0  0  0  0  0  0  0  0
   51.3970   31.8684   39.8876 C   0  0  2  0  0  0  0  0  0  0  0  0
   50.9813   30.8613   40.1676 H   0  0  0  0  0  0  0  0  0  0  0  0
   51.7625   31.6960   38.4206 C   0  0  2  0  0  0  0  0  0  0  0  0
   52.4101   30.7924   38.3043 H   0  0  0  0  0  0  0  0  0  0  0  0
   50.6326   31.4952   37.5663 N   0  0  0  0  0  0  0  0  0  0  0  0
   50.1767   30.5722   37.6258 H   0  0  0  0  0  0  0  0  0  0  0  0
   49.6564   32.5616   37.6922 C   0  0  0  0  0  0  0  0  0  0  0  0
   50.0228   33.5183   38.8050 C   0  0  0  0  0  0  0  0  0  0  0  0
   52.3555   31.9659   40.4206 H   0  0  0  0  0  0  0  0  0  0  0  0
   52.3304   32.5669   38.0510 H   0  0  0  0  0  0  0  0  0  0  0  0
   48.6445   32.1701   37.8529 H   0  0  0  0  0  0  0  0  0  0  0  0
   49.6744   33.1539   36.7434 H   0  0  0  0  0  0  0  0  0  0  0  0
   50.7872   34.2490   38.4326 H   0  0  0  0  0  0  0  0  0  0  0  0
   49.1168   34.1122   39.0455 H   0  0  0  0  0  0  0  0  0  0  0  0
  1  2  2  0
  1 10  1  0
  3  1  1  0
  4  3  1  0
  5  4  1  0
  6  7  1  0
  6  5  1  0
  7  8  1  0
  8 21  1  0
  8  3  1  0
  9 10  2  0
  9 14  1  0
 10 11  1  0
 11 12  2  0
 11 15  1  0
 13 12  1  0
 14 13  2  0
 15 20  1  0
 16 15  2  0
 16 17  1  0
 17 18  2  0
 18 19  1  0
 20 19  2  0
  4 22  1  0
  4 23  1  0
  5 24  1  0
  5 25  1  0
  6 26  1  0
  6 27  1  0
  7 28  1  0
  7 29  1  0
  8 30  1  6
  9 31  1  0
 13 32  1  0
 16 33  1  0
 17 34  1  0
 18 35  1  0
 19 36  1  0
 21 37  1  0
 21 38  1  0
 39 40  1  0
 40 41  1  1
 40 42  1  0
 42 43  1  1
 42 44  1  0
 44 45  1  0
 44 46  1  0
 46 47  1  0
 47 39  1  0
 40 48  1  0
 42 49  1  0
 46 50  1  0
 46 51  1  0
 47 52  1  0
 47 53  1  0
 21 39  1  0
M  ISO  8  22  13  23  13  24  13  25  13  26  13  27  13  28  13  29  13
M  ISO  8  30  13  31  14  32  14  33  14  34  14  35  14  36  14  37   8
M  ISO  4  38   8  41   8  43   8  45   5
M  END
>  <DihAtoms>  (1) 
7,20,38,39

>  <DihDeg>  (1) 
68.38271744433224

$$$$
