
 OpenBabel03252507293D

 45 48  0  0  1  0  0  0  0  0999 V2000
   46.9560   32.4320   46.1850 C   0  0  2  0  0  0  0  0  0  0  0  0
   46.7140   31.2970   45.2090 C   0  0  0  0  0  0  0  0  0  0  0  0
   47.9200   30.3820   45.2790 C   0  0  0  0  0  0  0  0  0  0  0  0
   48.2630   29.9410   46.6760 C   0  0  0  0  0  0  0  0  0  0  0  0
   48.3160   31.0830   47.6390 C   0  0  0  0  0  0  0  0  0  0  0  0
   47.0750   31.9010   47.5620 C   0  0  2  0  0  0  0  0  0  0  0  0
   47.9510   32.8470   45.8660 H   0  0  0  0  0  0  0  0  0  0  0  0
   45.7510   30.8070   45.3020 H   0  0  0  0  0  0  0  0  0  0  0  0
   46.7360   31.7330   44.1720 H   0  0  0  0  0  0  0  0  0  0  0  0
   47.8630   29.5320   44.6040 H   0  0  0  0  0  0  0  0  0  0  0  0
   48.7800   31.0170   44.9290 H   0  0  0  0  0  0  0  0  0  0  0  0
   47.6100   29.1190   46.9800 H   0  0  0  0  0  0  0  0  0  0  0  0
   49.3020   29.5270   46.6110 H   0  0  0  0  0  0  0  0  0  0  0  0
   49.1590   31.7520   47.2970 H   0  0  0  0  0  0  0  0  0  0  0  0
   48.6030   30.7300   48.6300 H   0  0  0  0  0  0  0  0  0  0  0  0
   47.2380   32.7730   48.2300 H   0  0  0  0  0  0  0  0  0  0  0  0
   45.9970   33.5170   46.0610 C   0  0  0  0  0  0  0  0  0  0  0  0
   45.2060   33.8340   47.1960 C   0  0  0  0  0  0  0  0  0  0  0  0
   44.2630   34.8770   47.0630 C   0  0  0  0  0  0  0  0  0  0  0  0
   44.1730   35.5160   45.8400 N   0  0  0  0  0  0  0  0  0  0  0  0
   44.9730   35.1440   44.8040 C   0  0  0  0  0  0  0  0  0  0  0  0
   45.8760   34.1610   44.9010 N   0  0  0  0  0  0  0  0  0  0  0  0
   45.2410   33.3770   48.1450 H   0  0  0  0  0  0  0  0  0  0  0  0
   43.6320   35.1760   47.8690 H   0  0  0  0  0  0  0  0  0  0  0  0
   44.8080   35.8640   43.5370 C   0  0  0  0  0  0  0  0  0  0  0  0
   45.5240   36.9620   43.2320 C   0  0  0  0  0  0  0  0  0  0  0  0
   45.3600   37.6400   42.0310 C   0  0  0  0  0  0  0  0  0  0  0  0
   44.4330   37.1510   41.1500 C   0  0  0  0  0  0  0  0  0  0  0  0
   43.6990   36.0390   41.4460 C   0  0  0  0  0  0  0  0  0  0  0  0
   43.8800   35.3920   42.6350 N   0  0  0  0  0  0  0  0  0  0  0  0
   46.2340   37.2780   43.9840 H   0  0  0  0  0  0  0  0  0  0  0  0
   45.9860   38.5120   41.8820 H   0  0  0  0  0  0  0  0  0  0  0  0
   44.3170   37.6880   40.2230 H   0  0  0  0  0  0  0  0  0  0  0  0
   42.9670   35.6460   40.7610 H   0  0  0  0  0  0  0  0  0  0  0  0
   45.9190   31.1250   47.8860 N   0  0  0  0  0  0  0  0  0  0  0  0
   45.8520   30.3890   47.1430 H   0  0  0  0  0  0  0  0  0  0  0  0
   47.0650   31.7070   50.3320 H   0  0  0  0  0  0  0  0  0  0  0  0
   47.2420   30.8890   49.7100 N   0  0  0  0  0  0  0  0  0  0  0  0
   46.0290   30.3860   49.1300 C   0  0  2  0  0  3  0  0  0  0  0  0
   45.9160   28.9230   49.0290 C   0  0  0  0  0  3  0  0  0  0  0  0
   45.2800   28.4930   49.8600 H   0  0  0  0  0  0  0  0  0  0  0  0
   47.1750   28.2050   49.1620 N   0  0  0  0  0  0  0  0  0  0  0  0
   47.7910   28.4840   48.3940 H   0  0  0  0  0  0  0  0  0  0  0  0
   47.6810   28.5780   50.4810 C   0  0  0  0  0  2  0  0  0  0  0  0
   48.1320   29.9940   50.3170 C   0  0  0  0  0  2  0  0  0  0  0  0
  1  7  1  6  0  0  0
  1  6  1  0  0  0  0
  2  3  1  0  0  0  0
  2  8  1  0  0  0  0
  2  1  1  0  0  0  0
  3  4  1  0  0  0  0
  4 12  1  0  0  0  0
  4  5  1  0  0  0  0
  5 15  1  0  0  0  0
  6  5  1  0  0  0  0
  6 35  1  0  0  0  0
  6 16  1  1  0  0  0
  9  2  1  0  0  0  0
 10  3  1  0  0  0  0
 11  3  1  0  0  0  0
 13  4  1  0  0  0  0
 14  5  1  0  0  0  0
 17  1  1  0  0  0  0
 17 18  1  0  0  0  0
 18 23  1  0  0  0  0
 19 18  2  0  0  0  0
 19 24  1  0  0  0  0
 20 19  1  0  0  0  0
 21 22  1  0  0  0  0
 21 20  2  0  0  0  0
 22 17  2  0  0  0  0
 25 21  1  0  0  0  0
 26 25  1  0  0  0  0
 26 31  1  0  0  0  0
 27 26  2  0  0  0  0
 28 29  2  0  0  0  0
 28 27  1  0  0  0  0
 29 30  1  0  0  0  0
 30 25  2  0  0  0  0
 32 27  1  0  0  0  0
 33 28  1  0  0  0  0
 34 29  1  0  0  0  0
 36 35  1  0  0  0  0
 38 45  1  0  0  0  0
 38 37  1  0  0  0  0
 39 35  1  6  0  0  0
 39 38  1  0  0  0  0
 40 39  1  0  0  0  0
 40 42  1  0  0  0  0
 40 41  1  0  0  0  0
 42 44  1  0  0  0  0
 43 42  1  0  0  0  0
 45 44  1  0  0  0  0
M  END
>  <minimizedAffinity>
9.68905926

>  <minimizedRMSD>
3.02821517

$$$$
