
 OpenBabel03252508433D

 31 33  0  0  0  0  0  0  0  0999 V2000
   45.4970   34.1550   40.9950 C   0  0  0  0  0  0  0  0  0  0  0  0
   44.2880   34.8000   40.9120 C   0  0  0  0  0  0  0  0  0  0  0  0
   43.8650   35.6390   41.9240 C   0  0  0  0  0  0  0  0  0  0  0  0
   44.6910   35.8020   43.0060 C   0  0  0  0  0  0  0  0  0  0  0  0
   45.9110   35.1790   43.1320 C   0  0  0  0  0  0  0  0  0  0  0  0
   46.2780   34.3450   42.0770 C   0  0  0  0  0  0  0  0  0  0  0  0
   42.9080   36.1390   41.8430 H   0  0  0  0  0  0  0  0  0  0  0  0
   44.4150   36.4510   43.8370 H   0  0  0  0  0  0  0  0  0  0  0  0
   46.6120   35.2440   43.9260 H   0  0  0  0  0  0  0  0  0  0  0  0
   47.2180   33.8070   42.0780 H   0  0  0  0  0  0  0  0  0  0  0  0
   47.0790   32.7100   37.8680 C   0  0  0  0  0  0  0  0  0  0  0  0
   46.7990   33.6060   38.9170 C   0  0  0  0  0  0  0  0  0  0  0  0
   45.8520   33.2920   39.8760 C   0  0  0  0  0  0  0  0  0  0  0  0
   45.2350   32.1030   39.7370 N   0  0  0  0  0  0  0  0  0  0  0  0
   45.4910   31.2320   38.7370 C   0  0  0  0  0  0  0  0  0  0  0  0
   46.4130   31.5380   37.8030 N   0  0  0  0  0  0  0  0  0  0  0  0
   47.8210   32.9760   37.1300 H   0  0  0  0  0  0  0  0  0  0  0  0
   47.2990   34.5380   39.0050 H   0  0  0  0  0  0  0  0  0  0  0  0
   44.9740   30.2770   38.6540 H   0  0  0  0  0  0  0  0  0  0  0  0
   43.3920   34.6080   39.7160 C   0  0  0  0  0  0  0  0  0  0  0  0
   43.7040   33.7170   39.1260 H   0  0  0  0  0  0  0  0  0  0  0  0
   43.4200   35.5350   39.0940 H   0  0  0  0  0  0  0  0  0  0  0  0
   42.0760   34.3580   40.2000 N   0  0  0  0  0  0  0  0  0  0  0  0
   41.6860   32.9870   40.3000 C   0  0  0  0  0  0  0  0  0  0  0  0
   42.2650   32.3730   40.9990 H   0  0  0  0  0  0  0  0  0  0  0  0
   41.6810   32.3930   38.9080 C   0  0  0  0  0  0  0  0  0  0  0  0
   42.6950   31.9780   38.7360 H   0  0  0  0  0  0  0  0  0  0  0  0
   41.4400   33.3760   37.8850 N   0  0  0  0  0  0  0  0  0  0  0  0
   40.8790   32.8920   37.1260 H   0  0  0  0  0  0  0  0  0  0  0  0
   40.6260   34.4770   38.3110 C   0  0  0  0  0  0  0  0  0  0  0  0
   41.0230   35.1090   39.6050 C   0  0  0  0  0  0  0  0  0  0  0  0
  1  6  1  0  0  0  0
  2  1  2  0  0  0  0
  2  3  1  0  0  0  0
  3  4  2  0  0  0  0
  4  5  1  0  0  0  0
  4  8  1  0  0  0  0
  5  9  1  0  0  0  0
  6 10  1  0  0  0  0
  6  5  2  0  0  0  0
  7  3  1  0  0  0  0
 11 12  1  0  0  0  0
 12 18  1  0  0  0  0
 12 13  2  0  0  0  0
 13  1  1  0  0  0  0
 14 13  1  0  0  0  0
 15 14  2  0  0  0  0
 16 11  2  0  0  0  0
 16 15  1  0  0  0  0
 17 11  1  0  0  0  0
 19 15  1  0  0  0  0
 20 23  1  0  0  0  0
 20  2  1  0  0  0  0
 21 20  1  0  0  0  0
 22 20  1  0  0  0  0
 23 24  1  0  0  0  0
 24 25  1  0  0  0  0
 26 24  1  0  0  0  0
 27 26  1  0  0  0  0
 28 30  1  0  0  0  0
 28 26  1  0  0  0  0
 29 28  1  0  0  0  0
 30 31  1  0  0  0  0
 31 23  1  0  0  0  0
M  END
>  <minimizedAffinity>
-4.3730278

>  <minimizedRMSD>
7.07755136

$$$$
