
 OpenBabel03252504433D

 45 48  0  0  0  0  0  0  0  0999 V2000
   36.2530   28.3370   38.2880 C   0  0  0  0  0  0  0  0  0  0  0  0
   35.6440   27.1610   37.9670 C   0  0  0  0  0  0  0  0  0  0  0  0
   36.1640   26.2380   38.7830 N   0  0  0  0  0  0  0  0  0  0  0  0
   37.0710   26.7770   39.6030 C   0  0  0  0  0  0  0  0  0  0  0  0
   37.1190   28.0970   39.2830 N   0  0  0  0  0  0  0  0  0  0  0  0
   37.8830   26.2050   40.6350 N   0  0  0  0  0  0  0  0  0  0  0  0
   37.3140   26.1620   42.0000 C   0  0  0  0  0  0  0  0  0  0  0  0
   36.9210   24.6990   42.1960 C   0  0  0  0  0  0  0  0  0  0  0  0
   38.0520   23.7840   41.7750 C   0  0  0  0  0  0  0  0  0  0  0  0
   39.3370   24.5760   41.6700 C   0  0  0  0  0  0  0  0  0  0  0  0
   39.1960   25.6430   40.6080 C   0  0  0  0  0  0  0  0  0  0  0  0
   34.9020   26.9700   37.2250 H   0  0  0  0  0  0  0  0  0  0  0  0
   35.9700   25.2120   38.8660 H   0  0  0  0  0  0  0  0  0  0  0  0
   38.0400   26.5110   42.7450 H   0  0  0  0  0  0  0  0  0  0  0  0
   36.4090   26.7920   42.0640 H   0  0  0  0  0  0  0  0  0  0  0  0
   36.0590   24.5000   41.5530 H   0  0  0  0  0  0  0  0  0  0  0  0
   36.6720   24.5130   43.2600 H   0  0  0  0  0  0  0  0  0  0  0  0
   37.8860   23.3410   40.7660 H   0  0  0  0  0  0  0  0  0  0  0  0
   38.2190   22.9940   42.5370 H   0  0  0  0  0  0  0  0  0  0  0  0
   40.1820   23.8950   41.4630 H   0  0  0  0  0  0  0  0  0  0  0  0
   39.5630   25.1040   42.6200 H   0  0  0  0  0  0  0  0  0  0  0  0
   39.3210   25.1190   39.6150 H   0  0  0  0  0  0  0  0  0  0  0  0
   40.0220   26.3810   40.6780 H   0  0  0  0  0  0  0  0  0  0  0  0
   36.0090   29.6660   37.6520 C   0  0  0  0  0  0  0  0  0  0  0  0
   35.8080   29.6100   36.5760 H   0  0  0  0  0  0  0  0  0  0  0  0
   35.0610   30.0380   38.1280 H   0  0  0  0  0  0  0  0  0  0  0  0
   36.9730   31.4420   39.0560 C   0  0  0  0  0  3  0  0  0  0  0  0
   37.0580   30.6370   38.0190 C   0  0  0  0  0  3  0  0  0  0  0  0
   38.0940   32.3600   39.3070 C   0  0  0  0  0  0  0  0  0  0  0  0
   37.9330   33.5460   40.0480 C   0  0  0  0  0  0  0  0  0  0  0  0
   39.0410   34.3470   40.2320 C   0  0  0  0  0  0  0  0  0  0  0  0
   40.2210   33.9750   39.7090 N   0  0  0  0  0  0  0  0  0  0  0  0
   40.3540   32.8360   39.0030 C   0  0  0  0  0  0  0  0  0  0  0  0
   39.3150   32.0600   38.8140 N   0  0  0  0  0  0  0  0  0  0  0  0
   36.9370   33.7450   40.4220 H   0  0  0  0  0  0  0  0  0  0  0  0
   38.9010   35.2560   40.8040 H   0  0  0  0  0  0  0  0  0  0  0  0
   41.6380   32.5140   38.4820 N   0  0  0  0  0  0  0  0  0  0  0  0
   42.8950   32.9010   39.0950 C   0  0  0  0  0  3  0  0  0  0  0  0
   43.5530   32.0160   39.1980 H   0  0  0  0  0  0  0  0  0  0  0  0
   43.5430   33.8690   38.1090 C   0  0  0  0  0  3  0  0  0  0  0  0
   42.7390   34.6300   37.9020 H   0  0  0  0  0  0  0  0  0  0  0  0
   43.7950   33.1730   36.8840 N   0  0  0  0  0  0  0  0  0  0  0  0
   43.3910   33.6880   36.0580 H   0  0  0  0  0  0  0  0  0  0  0  0
   43.2640   31.8330   36.8530 C   0  0  0  0  0  2  0  0  0  0  0  0
   41.8070   31.7530   37.2590 C   0  0  0  0  0  2  0  0  0  0  0  0
  1  5  1  0  0  0  0
  2  1  2  0  0  0  0
  2  3  1  0  0  0  0
  3 13  1  0  0  0  0
  3  4  1  0  0  0  0
  4  6  1  0  0  0  0
  5  4  2  0  0  0  0
  6  7  1  0  0  0  0
  7 15  1  0  0  0  0
  7  8  1  0  0  0  0
  7 14  1  0  0  0  0
  8 17  1  0  0  0  0
  9  8  1  0  0  0  0
  9 19  1  0  0  0  0
 10  9  1  0  0  0  0
 10 21  1  0  0  0  0
 11  6  1  0  0  0  0
 11 23  1  0  0  0  0
 11 10  1  0  0  0  0
 12  2  1  0  0  0  0
 16  8  1  0  0  0  0
 18  9  1  0  0  0  0
 20 10  1  0  0  0  0
 22 11  1  0  0  0  0
 24 28  1  0  0  0  0
 24 26  1  0  0  0  0
 24  1  1  0  0  0  0
 25 24  1  0  0  0  0
 27 29  1  0  0  0  0
 28 27  2  0  0  0  0
 29 30  1  0  0  0  0
 30 31  2  0  0  0  0
 30 35  1  0  0  0  0
 31 36  1  0  0  0  0
 32 31  1  0  0  0  0
 33 32  2  0  0  0  0
 34 33  1  0  0  0  0
 34 29  2  0  0  0  0
 37 33  1  0  0  0  0
 37 38  1  0  0  0  0
 38 39  1  0  0  0  0
 40 38  1  0  0  0  0
 41 40  1  0  0  0  0
 42 40  1  0  0  0  0
 43 42  1  0  0  0  0
 44 42  1  0  0  0  0
 44 45  1  0  0  0  0
 45 37  1  0  0  0  0
M  END
>  <minimizedAffinity>
-6.19230413

$$$$

 OpenBabel03252504433D

 45 48  0  0  0  0  0  0  0  0999 V2000
   37.0350   31.0780   40.0250 C   0  0  0  0  0  0  0  0  0  0  0  0
   36.1520   30.9640   41.0570 C   0  0  0  0  0  0  0  0  0  0  0  0
   36.1860   29.6810   41.4340 N   0  0  0  0  0  0  0  0  0  0  0  0
   37.0470   28.9830   40.6900 C   0  0  0  0  0  0  0  0  0  0  0  0
   37.5760   29.8710   39.8070 N   0  0  0  0  0  0  0  0  0  0  0  0
   37.4260   27.6020   40.7120 N   0  0  0  0  0  0  0  0  0  0  0  0
   38.5510   27.2210   41.5930 C   0  0  0  0  0  0  0  0  0  0  0  0
   37.8810   26.5350   42.7820 C   0  0  0  0  0  0  0  0  0  0  0  0
   36.8630   25.5200   42.3050 C   0  0  0  0  0  0  0  0  0  0  0  0
   37.0970   25.2110   40.8420 C   0  0  0  0  0  0  0  0  0  0  0  0
   36.9090   26.4650   40.0190 C   0  0  0  0  0  0  0  0  0  0  0  0
   35.5400   31.7150   41.5030 H   0  0  0  0  0  0  0  0  0  0  0  0
   35.6620   29.1770   42.1890 H   0  0  0  0  0  0  0  0  0  0  0  0
   39.2620   26.5680   41.0710 H   0  0  0  0  0  0  0  0  0  0  0  0
   39.0880   28.1180   41.9480 H   0  0  0  0  0  0  0  0  0  0  0  0
   37.3560   27.3060   43.3540 H   0  0  0  0  0  0  0  0  0  0  0  0
   38.6440   26.0280   43.4070 H   0  0  0  0  0  0  0  0  0  0  0  0
   35.8190   25.9030   42.3710 H   0  0  0  0  0  0  0  0  0  0  0  0
   36.9750   24.5650   42.8600 H   0  0  0  0  0  0  0  0  0  0  0  0
   36.4240   24.3970   40.5180 H   0  0  0  0  0  0  0  0  0  0  0  0
   38.1380   24.8700   40.6650 H   0  0  0  0  0  0  0  0  0  0  0  0
   35.7930   26.6090   39.9120 H   0  0  0  0  0  0  0  0  0  0  0  0
   37.3040   26.3240   38.9910 H   0  0  0  0  0  0  0  0  0  0  0  0
   37.3540   32.3220   39.2630 C   0  0  0  0  0  0  0  0  0  0  0  0
   36.7910   32.4240   38.3290 H   0  0  0  0  0  0  0  0  0  0  0  0
   37.0080   33.1600   39.9290 H   0  0  0  0  0  0  0  0  0  0  0  0
   39.5690   33.0930   40.0060 C   0  0  0  0  0  3  0  0  0  0  0  0
   38.8120   32.4990   39.1110 C   0  0  0  0  0  3  0  0  0  0  0  0
   41.0090   33.1990   39.7260 C   0  0  0  0  0  0  0  0  0  0  0  0
   41.8170   34.1740   40.3420 C   0  0  0  0  0  0  0  0  0  0  0  0
   43.1580   34.1990   40.0180 C   0  0  0  0  0  0  0  0  0  0  0  0
   43.6440   33.3060   39.1400 N   0  0  0  0  0  0  0  0  0  0  0  0
   42.8530   32.3810   38.5620 C   0  0  0  0  0  0  0  0  0  0  0  0
   41.5770   32.3380   38.8540 N   0  0  0  0  0  0  0  0  0  0  0  0
   41.3190   34.8410   41.0320 H   0  0  0  0  0  0  0  0  0  0  0  0
   43.7660   34.9550   40.4990 H   0  0  0  0  0  0  0  0  0  0  0  0
   43.4460   31.4710   37.6430 N   0  0  0  0  0  0  0  0  0  0  0  0
   44.8230   31.0190   37.7050 C   0  0  0  0  0  3  0  0  0  0  0  0
   44.8610   29.9120   37.6530 H   0  0  0  0  0  0  0  0  0  0  0  0
   45.4880   31.5810   36.4510 C   0  0  0  0  0  3  0  0  0  0  0  0
   45.2350   32.6780   36.4740 H   0  0  0  0  0  0  0  0  0  0  0  0
   44.8440   31.0200   35.3020 N   0  0  0  0  0  0  0  0  0  0  0  0
   44.5290   31.7700   34.6320 H   0  0  0  0  0  0  0  0  0  0  0  0
   43.6920   30.2120   35.6130 C   0  0  0  0  0  2  0  0  0  0  0  0
   42.7040   30.9010   36.5330 C   0  0  0  0  0  2  0  0  0  0  0  0
  1  2  2  0  0  0  0
  2  3  1  0  0  0  0
  2 12  1  0  0  0  0
  3 13  1  0  0  0  0
  4  6  1  0  0  0  0
  4  3  1  0  0  0  0
  5  1  1  0  0  0  0
  5  4  2  0  0  0  0
  6  7  1  0  0  0  0
  7 15  1  0  0  0  0
  7  8  1  0  0  0  0
  8 16  1  0  0  0  0
  8 17  1  0  0  0  0
  9 18  1  0  0  0  0
  9  8  1  0  0  0  0
  9 19  1  0  0  0  0
 10  9  1  0  0  0  0
 11  6  1  0  0  0  0
 11 10  1  0  0  0  0
 14  7  1  0  0  0  0
 20 10  1  0  0  0  0
 21 10  1  0  0  0  0
 22 11  1  0  0  0  0
 23 11  1  0  0  0  0
 24 26  1  0  0  0  0
 24  1  1  0  0  0  0
 25 24  1  0  0  0  0
 28 24  1  0  0  0  0
 28 27  2  0  0  0  0
 29 27  1  0  0  0  0
 29 30  1  0  0  0  0
 30 35  1  0  0  0  0
 31 30  2  0  0  0  0
 31 36  1  0  0  0  0
 32 31  1  0  0  0  0
 33 34  1  0  0  0  0
 33 32  2  0  0  0  0
 34 29  2  0  0  0  0
 37 38  1  0  0  0  0
 37 33  1  0  0  0  0
 39 38  1  0  0  0  0
 40 41  1  0  0  0  0
 40 38  1  0  0  0  0
 42 44  1  0  0  0  0
 42 40  1  0  0  0  0
 43 42  1  0  0  0  0
 44 45  1  0  0  0  0
 45 37  1  0  0  0  0
M  END
>  <minimizedAffinity>
-6.11830664

$$$$

 OpenBabel03252504433D

 45 48  0  0  0  0  0  0  0  0999 V2000
   37.9410   32.4910   40.0630 C   0  0  0  0  0  0  0  0  0  0  0  0
   38.0070   33.8390   39.8770 C   0  0  0  0  0  0  0  0  0  0  0  0
   39.2680   34.1050   39.5230 N   0  0  0  0  0  0  0  0  0  0  0  0
   40.0000   32.9890   39.4770 C   0  0  0  0  0  0  0  0  0  0  0  0
   39.1560   31.9800   39.8180 N   0  0  0  0  0  0  0  0  0  0  0  0
   41.3780   32.7640   39.1540 N   0  0  0  0  0  0  0  0  0  0  0  0
   41.7100   32.5220   37.7330 C   0  0  0  0  0  0  0  0  0  0  0  0
   42.3380   33.8330   37.2660 C   0  0  0  0  0  0  0  0  0  0  0  0
   43.3790   34.3070   38.2580 C   0  0  0  0  0  0  0  0  0  0  0  0
   43.7590   33.1700   39.1810 C   0  0  0  0  0  0  0  0  0  0  0  0
   42.5490   32.7240   39.9700 C   0  0  0  0  0  0  0  0  0  0  0  0
   37.2360   34.5690   39.9820 H   0  0  0  0  0  0  0  0  0  0  0  0
   39.7360   35.0130   39.2900 H   0  0  0  0  0  0  0  0  0  0  0  0
   42.3860   31.6640   37.6230 H   0  0  0  0  0  0  0  0  0  0  0  0
   40.7940   32.3290   37.1470 H   0  0  0  0  0  0  0  0  0  0  0  0
   41.5410   34.5810   37.2190 H   0  0  0  0  0  0  0  0  0  0  0  0
   42.8100   33.6950   36.2720 H   0  0  0  0  0  0  0  0  0  0  0  0
   42.9960   35.1180   38.9200 H   0  0  0  0  0  0  0  0  0  0  0  0
   44.3040   34.6220   37.7320 H   0  0  0  0  0  0  0  0  0  0  0  0
   44.5910   33.4820   39.8380 H   0  0  0  0  0  0  0  0  0  0  0  0
   44.1060   32.2850   38.6070 H   0  0  0  0  0  0  0  0  0  0  0  0
   42.4140   33.4800   40.7970 H   0  0  0  0  0  0  0  0  0  0  0  0
   42.7400   31.7490   40.4660 H   0  0  0  0  0  0  0  0  0  0  0  0
   36.7350   31.7080   40.4680 C   0  0  0  0  0  0  0  0  0  0  0  0
   36.1140   32.2110   41.2170 H   0  0  0  0  0  0  0  0  0  0  0  0
   36.1110   31.6450   39.5350 H   0  0  0  0  0  0  0  0  0  0  0  0
   37.3790   29.9230   42.0350 C   0  0  0  0  0  3  0  0  0  0  0  0
   37.0910   30.3180   40.8140 C   0  0  0  0  0  3  0  0  0  0  0  0
   37.7150   28.5060   42.2380 C   0  0  0  0  0  0  0  0  0  0  0  0
   38.5810   28.0860   43.2650 C   0  0  0  0  0  0  0  0  0  0  0  0
   38.8390   26.7350   43.3800 C   0  0  0  0  0  0  0  0  0  0  0  0
   38.2650   25.8770   42.5220 N   0  0  0  0  0  0  0  0  0  0  0  0
   37.4390   26.2990   41.5450 C   0  0  0  0  0  0  0  0  0  0  0  0
   37.1800   27.5770   41.4170 N   0  0  0  0  0  0  0  0  0  0  0  0
   38.9850   28.8650   43.8980 H   0  0  0  0  0  0  0  0  0  0  0  0
   39.5070   26.4280   44.1750 H   0  0  0  0  0  0  0  0  0  0  0  0
   36.8710   25.3250   40.6770 N   0  0  0  0  0  0  0  0  0  0  0  0
   36.5760   23.9570   41.0580 C   0  0  0  0  0  3  0  0  0  0  0  0
   35.5320   23.7040   40.7830 H   0  0  0  0  0  0  0  0  0  0  0  0
   37.5150   23.0940   40.2190 C   0  0  0  0  0  3  0  0  0  0  0  0
   38.5340   23.5410   40.4000 H   0  0  0  0  0  0  0  0  0  0  0  0
   37.2030   23.2910   38.8360 N   0  0  0  0  0  0  0  0  0  0  0  0
   38.0610   23.5460   38.2800 H   0  0  0  0  0  0  0  0  0  0  0  0
   36.2190   24.3170   38.5990 C   0  0  0  0  0  2  0  0  0  0  0  0
   36.5300   25.6240   39.2990 C   0  0  0  0  0  2  0  0  0  0  0  0
  1 24  1  0  0  0  0
  2 12  1  0  0  0  0
  2  1  2  0  0  0  0
  3  2  1  0  0  0  0
  4  3  1  0  0  0  0
  4  5  2  0  0  0  0
  5  1  1  0  0  0  0
  6  4  1  0  0  0  0
  6 11  1  0  0  0  0
  7  6  1  0  0  0  0
  8  7  1  0  0  0  0
  8  9  1  0  0  0  0
  9 18  1  0  0  0  0
  9 10  1  0  0  0  0
 10 20  1  0  0  0  0
 10 11  1  0  0  0  0
 11 23  1  0  0  0  0
 11 22  1  0  0  0  0
 13  3  1  0  0  0  0
 14  7  1  0  0  0  0
 15  7  1  0  0  0  0
 16  8  1  0  0  0  0
 17  8  1  0  0  0  0
 19  9  1  0  0  0  0
 21 10  1  0  0  0  0
 24 28  1  0  0  0  0
 24 25  1  0  0  0  0
 26 24  1  0  0  0  0
 27 29  1  0  0  0  0
 28 27  2  0  0  0  0
 29 30  1  0  0  0  0
 30 31  2  0  0  0  0
 30 35  1  0  0  0  0
 31 36  1  0  0  0  0
 32 31  1  0  0  0  0
 33 32  2  0  0  0  0
 34 33  1  0  0  0  0
 34 29  2  0  0  0  0
 37 38  1  0  0  0  0
 37 33  1  0  0  0  0
 39 38  1  0  0  0  0
 40 41  1  0  0  0  0
 40 38  1  0  0  0  0
 42 40  1  0  0  0  0
 43 42  1  0  0  0  0
 44 42  1  0  0  0  0
 44 45  1  0  0  0  0
 45 37  1  0  0  0  0
M  END
>  <minimizedAffinity>
-6.06417942

$$$$

 OpenBabel03252504433D

 45 48  0  0  0  0  0  0  0  0999 V2000
   38.6270   25.8680   42.6890 C   0  0  0  0  0  0  0  0  0  0  0  0
   39.1740   24.6400   42.9100 C   0  0  0  0  0  0  0  0  0  0  0  0
   38.6560   23.8290   41.9810 N   0  0  0  0  0  0  0  0  0  0  0  0
   37.8090   24.4880   41.1860 C   0  0  0  0  0  0  0  0  0  0  0  0
   37.7980   25.7700   41.6400 N   0  0  0  0  0  0  0  0  0  0  0  0
   37.0220   24.0620   40.0680 N   0  0  0  0  0  0  0  0  0  0  0  0
   37.6500   24.1340   38.7310 C   0  0  0  0  0  0  0  0  0  0  0  0
   37.9930   22.6840   38.3980 C   0  0  0  0  0  0  0  0  0  0  0  0
   36.8100   21.7810   38.6750 C   0  0  0  0  0  0  0  0  0  0  0  0
   35.5530   22.6130   38.8100 C   0  0  0  0  0  0  0  0  0  0  0  0
   35.6880   23.5570   39.9830 C   0  0  0  0  0  0  0  0  0  0  0  0
   39.8740   24.3420   43.6580 H   0  0  0  0  0  0  0  0  0  0  0  0
   38.8130   22.8100   41.8000 H   0  0  0  0  0  0  0  0  0  0  0  0
   36.9720   24.5890   37.9970 H   0  0  0  0  0  0  0  0  0  0  0  0
   38.5800   24.7270   38.7690 H   0  0  0  0  0  0  0  0  0  0  0  0
   38.8170   22.3820   39.0520 H   0  0  0  0  0  0  0  0  0  0  0  0
   38.2830   22.5970   37.3320 H   0  0  0  0  0  0  0  0  0  0  0  0
   36.9130   21.2300   39.6380 H   0  0  0  0  0  0  0  0  0  0  0  0
   36.6460   21.0810   37.8290 H   0  0  0  0  0  0  0  0  0  0  0  0
   34.6740   21.9510   38.9100 H   0  0  0  0  0  0  0  0  0  0  0  0
   35.3910   23.2450   37.9120 H   0  0  0  0  0  0  0  0  0  0  0  0
   35.4980   22.9400   40.9100 H   0  0  0  0  0  0  0  0  0  0  0  0
   34.8960   24.3340   39.9570 H   0  0  0  0  0  0  0  0  0  0  0  0
   38.8940   27.1130   43.4710 C   0  0  0  0  0  0  0  0  0  0  0  0
   38.3090   27.1880   44.3940 H   0  0  0  0  0  0  0  0  0  0  0  0
   39.9690   27.0240   43.7870 H   0  0  0  0  0  0  0  0  0  0  0  0
   37.8620   29.2070   42.6940 C   0  0  0  0  0  3  0  0  0  0  0  0
   38.8200   28.3110   42.6110 C   0  0  0  0  0  3  0  0  0  0  0  0
   37.9130   30.3540   41.7750 C   0  0  0  0  0  0  0  0  0  0  0  0
   36.8050   30.7300   40.9910 C   0  0  0  0  0  0  0  0  0  0  0  0
   36.9460   31.8210   40.1580 C   0  0  0  0  0  0  0  0  0  0  0  0
   38.1150   32.4800   40.1210 N   0  0  0  0  0  0  0  0  0  0  0  0
   39.1630   32.1040   40.8790 C   0  0  0  0  0  0  0  0  0  0  0  0
   39.0530   31.0710   41.6780 N   0  0  0  0  0  0  0  0  0  0  0  0
   35.9140   30.1270   41.1030 H   0  0  0  0  0  0  0  0  0  0  0  0
   36.0850   32.0970   39.5610 H   0  0  0  0  0  0  0  0  0  0  0  0
   40.3670   32.8550   40.7810 N   0  0  0  0  0  0  0  0  0  0  0  0
   40.4300   34.2690   40.4630 C   0  0  0  0  0  3  0  0  0  0  0  0
   41.0560   34.7970   41.2110 H   0  0  0  0  0  0  0  0  0  0  0  0
   41.1320   34.3470   39.1100 C   0  0  0  0  0  3  0  0  0  0  0  0
   40.5550   33.6310   38.4590 H   0  0  0  0  0  0  0  0  0  0  0  0
   42.4550   33.8220   39.2500 N   0  0  0  0  0  0  0  0  0  0  0  0
   42.6520   33.0760   38.5330 H   0  0  0  0  0  0  0  0  0  0  0  0
   42.7230   33.2490   40.5460 C   0  0  0  0  0  2  0  0  0  0  0  0
   41.6710   32.2560   40.9950 C   0  0  0  0  0  2  0  0  0  0  0  0
  1  2  2  0  0  0  0
  1 24  1  0  0  0  0
  2 12  1  0  0  0  0
  3  2  1  0  0  0  0
  4  5  2  0  0  0  0
  4  3  1  0  0  0  0
  5  1  1  0  0  0  0
  6  4  1  0  0  0  0
  7 15  1  0  0  0  0
  7  6  1  0  0  0  0
  8  9  1  0  0  0  0
  8  7  1  0  0  0  0
  8 16  1  0  0  0  0
  9 10  1  0  0  0  0
  9 18  1  0  0  0  0
 10 20  1  0  0  0  0
 10 11  1  0  0  0  0
 11  6  1  0  0  0  0
 11 22  1  0  0  0  0
 13  3  1  0  0  0  0
 14  7  1  0  0  0  0
 17  8  1  0  0  0  0
 19  9  1  0  0  0  0
 21 10  1  0  0  0  0
 23 11  1  0  0  0  0
 24 26  1  0  0  0  0
 24 25  1  0  0  0  0
 28 27  2  0  0  0  0
 28 24  1  0  0  0  0
 29 27  1  0  0  0  0
 30 35  1  0  0  0  0
 30 29  2  0  0  0  0
 31 30  1  0  0  0  0
 32 31  2  0  0  0  0
 32 33  1  0  0  0  0
 33 34  2  0  0  0  0
 34 29  1  0  0  0  0
 36 31  1  0  0  0  0
 37 33  1  0  0  0  0
 37 45  1  0  0  0  0
 38 37  1  0  0  0  0
 38 39  1  0  0  0  0
 40 42  1  0  0  0  0
 40 38  1  0  0  0  0
 41 40  1  0  0  0  0
 42 44  1  0  0  0  0
 43 42  1  0  0  0  0
 44 45  1  0  0  0  0
M  END
>  <minimizedAffinity>
-5.92799711

$$$$

 OpenBabel03252504433D

 45 48  0  0  0  0  0  0  0  0999 V2000
   38.3500   28.2460   42.8450 C   0  0  0  0  0  0  0  0  0  0  0  0
   37.1360   28.8060   43.1100 C   0  0  0  0  0  0  0  0  0  0  0  0
   37.0780   29.9290   42.3870 N   0  0  0  0  0  0  0  0  0  0  0  0
   38.1980   30.1040   41.6800 C   0  0  0  0  0  0  0  0  0  0  0  0
   38.9910   29.0400   41.9750 N   0  0  0  0  0  0  0  0  0  0  0  0
   38.6030   31.1360   40.7730 N   0  0  0  0  0  0  0  0  0  0  0  0
   38.2470   30.9640   39.3480 C   0  0  0  0  0  0  0  0  0  0  0  0
   37.0830   31.9300   39.1330 C   0  0  0  0  0  0  0  0  0  0  0  0
   37.4060   33.2900   39.7160 C   0  0  0  0  0  0  0  0  0  0  0  0
   38.8940   33.3960   39.9690 C   0  0  0  0  0  0  0  0  0  0  0  0
   39.3170   32.3560   40.9810 C   0  0  0  0  0  0  0  0  0  0  0  0
   36.3610   28.4540   43.7540 H   0  0  0  0  0  0  0  0  0  0  0  0
   36.3220   30.6490   42.3010 H   0  0  0  0  0  0  0  0  0  0  0  0
   39.1030   31.1790   38.6950 H   0  0  0  0  0  0  0  0  0  0  0  0
   37.9030   29.9330   39.1540 H   0  0  0  0  0  0  0  0  0  0  0  0
   36.2170   31.5240   39.6640 H   0  0  0  0  0  0  0  0  0  0  0  0
   36.8700   32.0330   38.0500 H   0  0  0  0  0  0  0  0  0  0  0  0
   36.9180   33.4550   40.7030 H   0  0  0  0  0  0  0  0  0  0  0  0
   37.1410   34.0950   38.9980 H   0  0  0  0  0  0  0  0  0  0  0  0
   39.1470   34.4200   40.2970 H   0  0  0  0  0  0  0  0  0  0  0  0
   39.4750   33.1920   39.0450 H   0  0  0  0  0  0  0  0  0  0  0  0
   39.0150   32.7580   41.9930 H   0  0  0  0  0  0  0  0  0  0  0  0
   40.4210   32.2530   41.0030 H   0  0  0  0  0  0  0  0  0  0  0  0
   38.8850   26.9740   43.4170 C   0  0  0  0  0  0  0  0  0  0  0  0
   39.9370   27.0330   43.7150 H   0  0  0  0  0  0  0  0  0  0  0  0
   38.3000   26.8210   44.3650 H   0  0  0  0  0  0  0  0  0  0  0  0
   37.5200   25.7770   41.7570 C   0  0  0  0  0  3  0  0  0  0  0  0
   38.5670   25.8220   42.5510 C   0  0  0  0  0  3  0  0  0  0  0  0
   37.3240   24.5650   40.9470 C   0  0  0  0  0  0  0  0  0  0  0  0
   38.1380   23.4270   41.1010 C   0  0  0  0  0  0  0  0  0  0  0  0
   37.8800   22.3350   40.2970 C   0  0  0  0  0  0  0  0  0  0  0  0
   36.8760   22.3920   39.4070 N   0  0  0  0  0  0  0  0  0  0  0  0
   36.1080   23.4900   39.2750 C   0  0  0  0  0  0  0  0  0  0  0  0
   36.3340   24.5390   40.0270 N   0  0  0  0  0  0  0  0  0  0  0  0
   38.9160   23.4940   41.8490 H   0  0  0  0  0  0  0  0  0  0  0  0
   38.5150   21.4680   40.4270 H   0  0  0  0  0  0  0  0  0  0  0  0
   35.0640   23.4690   38.3090 N   0  0  0  0  0  0  0  0  0  0  0  0
   34.3470   22.2760   37.8990 C   0  0  0  0  0  3  0  0  0  0  0  0
   33.2540   22.4520   37.9610 H   0  0  0  0  0  0  0  0  0  0  0  0
   34.7160   22.0670   36.4330 C   0  0  0  0  0  3  0  0  0  0  0  0
   35.8430   22.0990   36.4260 H   0  0  0  0  0  0  0  0  0  0  0  0
   34.2550   23.1930   35.6810 N   0  0  0  0  0  0  0  0  0  0  0  0
   35.0270   23.6110   35.0990 H   0  0  0  0  0  0  0  0  0  0  0  0
   33.7080   24.2540   36.4900 C   0  0  0  0  0  2  0  0  0  0  0  0
   34.6150   24.6700   37.6300 C   0  0  0  0  0  2  0  0  0  0  0  0
  1  2  2  0  0  0  0
  1 24  1  0  0  0  0
  2 12  1  0  0  0  0
  3  2  1  0  0  0  0
  4  5  2  0  0  0  0
  4  3  1  0  0  0  0
  5  1  1  0  0  0  0
  6 11  1  0  0  0  0
  6  4  1  0  0  0  0
  7  6  1  0  0  0  0
  8  7  1  0  0  0  0
  8 16  1  0  0  0  0
  8  9  1  0  0  0  0
  9 10  1  0  0  0  0
  9 18  1  0  0  0  0
 10 20  1  0  0  0  0
 10 11  1  0  0  0  0
 11 23  1  0  0  0  0
 11 22  1  0  0  0  0
 13  3  1  0  0  0  0
 14  7  1  0  0  0  0
 15  7  1  0  0  0  0
 17  8  1  0  0  0  0
 19  9  1  0  0  0  0
 21 10  1  0  0  0  0
 24 25  1  0  0  0  0
 24 26  1  0  0  0  0
 27 28  2  0  0  0  0
 28 24  1  0  0  0  0
 29 30  1  0  0  0  0
 29 27  1  0  0  0  0
 30 35  1  0  0  0  0
 31 36  1  0  0  0  0
 31 30  2  0  0  0  0
 32 31  1  0  0  0  0
 33 32  2  0  0  0  0
 33 34  1  0  0  0  0
 34 29  2  0  0  0  0
 37 33  1  0  0  0  0
 38 39  1  0  0  0  0
 38 37  1  0  0  0  0
 40 38  1  0  0  0  0
 41 40  1  0  0  0  0
 42 40  1  0  0  0  0
 42 44  1  0  0  0  0
 43 42  1  0  0  0  0
 44 45  1  0  0  0  0
 45 37  1  0  0  0  0
M  END
>  <minimizedAffinity>
-5.75541258

$$$$

 OpenBabel03252504433D

 45 48  0  0  0  0  0  0  0  0999 V2000
   32.4570   28.3070   36.1310 C   0  0  0  0  0  0  0  0  0  0  0  0
   31.7350   27.8140   35.0860 C   0  0  0  0  0  0  0  0  0  0  0  0
   30.9380   28.8090   34.6820 N   0  0  0  0  0  0  0  0  0  0  0  0
   31.1250   29.9050   35.4230 C   0  0  0  0  0  0  0  0  0  0  0  0
   32.0830   29.5790   36.3300 N   0  0  0  0  0  0  0  0  0  0  0  0
   30.5190   31.2020   35.3760 N   0  0  0  0  0  0  0  0  0  0  0  0
   31.1490   32.2140   34.5010 C   0  0  0  0  0  0  0  0  0  0  0  0
   30.2220   32.2940   33.2910 C   0  0  0  0  0  0  0  0  0  0  0  0
   28.7780   32.4110   33.7340 C   0  0  0  0  0  0  0  0  0  0  0  0
   28.7230   32.8090   35.1930 C   0  0  0  0  0  0  0  0  0  0  0  0
   29.3730   31.7390   36.0400 C   0  0  0  0  0  0  0  0  0  0  0  0
   31.7650   26.8410   34.6490 H   0  0  0  0  0  0  0  0  0  0  0  0
   30.2300   28.8470   33.9110 H   0  0  0  0  0  0  0  0  0  0  0  0
   31.2560   33.1770   35.0190 H   0  0  0  0  0  0  0  0  0  0  0  0
   32.1470   31.8760   34.1720 H   0  0  0  0  0  0  0  0  0  0  0  0
   30.3350   31.3620   32.7280 H   0  0  0  0  0  0  0  0  0  0  0  0
   30.4890   33.1680   32.6640 H   0  0  0  0  0  0  0  0  0  0  0  0
   28.2330   31.4420   33.6630 H   0  0  0  0  0  0  0  0  0  0  0  0
   28.2580   33.2060   33.1600 H   0  0  0  0  0  0  0  0  0  0  0  0
   27.6760   32.9950   35.4910 H   0  0  0  0  0  0  0  0  0  0  0  0
   29.2910   33.7450   35.3760 H   0  0  0  0  0  0  0  0  0  0  0  0
   28.6140   30.9070   36.1360 H   0  0  0  0  0  0  0  0  0  0  0  0
   29.5600   32.1100   37.0690 H   0  0  0  0  0  0  0  0  0  0  0  0
   33.4890   27.5720   36.9220 C   0  0  0  0  0  0  0  0  0  0  0  0
   33.1060   26.6720   37.4170 H   0  0  0  0  0  0  0  0  0  0  0  0
   34.2330   27.2160   36.1580 H   0  0  0  0  0  0  0  0  0  0  0  0
   35.5260   28.4140   38.0150 C   0  0  0  0  0  3  0  0  0  0  0  0
   34.2280   28.4840   37.8170 C   0  0  0  0  0  3  0  0  0  0  0  0
   36.1350   29.3880   38.9330 C   0  0  0  0  0  0  0  0  0  0  0  0
   35.5130   29.7630   40.1390 C   0  0  0  0  0  0  0  0  0  0  0  0
   36.1590   30.6850   40.9380 C   0  0  0  0  0  0  0  0  0  0  0  0
   37.3410   31.1870   40.5470 N   0  0  0  0  0  0  0  0  0  0  0  0
   37.9200   30.8140   39.3890 C   0  0  0  0  0  0  0  0  0  0  0  0
   37.3250   29.9410   38.6140 N   0  0  0  0  0  0  0  0  0  0  0  0
   34.5620   29.2950   40.3520 H   0  0  0  0  0  0  0  0  0  0  0  0
   35.6680   30.9630   41.8630 H   0  0  0  0  0  0  0  0  0  0  0  0
   39.1740   31.3930   39.0480 N   0  0  0  0  0  0  0  0  0  0  0  0
   40.1650   31.8340   40.0110 C   0  0  0  0  0  3  0  0  0  0  0  0
   41.1550   31.4030   39.7600 H   0  0  0  0  0  0  0  0  0  0  0  0
   40.2460   33.3490   39.8410 C   0  0  0  0  0  3  0  0  0  0  0  0
   39.1740   33.6910   39.9110 H   0  0  0  0  0  0  0  0  0  0  0  0
   40.6970   33.6360   38.5130 N   0  0  0  0  0  0  0  0  0  0  0  0
   40.0510   34.3100   38.0240 H   0  0  0  0  0  0  0  0  0  0  0  0
   40.8180   32.4730   37.6720 C   0  0  0  0  0  2  0  0  0  0  0  0
   39.5800   31.5990   37.6700 C   0  0  0  0  0  2  0  0  0  0  0  0
  1  5  1  0  0  0  0
  1 24  1  0  0  0  0
  2  1  2  0  0  0  0
  3  2  1  0  0  0  0
  3  4  1  0  0  0  0
  4  5  2  0  0  0  0
  6  4  1  0  0  0  0
  6 11  1  0  0  0  0
  7 14  1  0  0  0  0
  7  6  1  0  0  0  0
  8  9  1  0  0  0  0
  8  7  1  0  0  0  0
  9 10  1  0  0  0  0
 10 21  1  0  0  0  0
 10 20  1  0  0  0  0
 10 11  1  0  0  0  0
 11 22  1  0  0  0  0
 11 23  1  0  0  0  0
 12  2  1  0  0  0  0
 13  3  1  0  0  0  0
 15  7  1  0  0  0  0
 16  8  1  0  0  0  0
 17  8  1  0  0  0  0
 18  9  1  0  0  0  0
 19  9  1  0  0  0  0
 24 25  1  0  0  0  0
 24 28  1  0  0  0  0
 26 24  1  0  0  0  0
 27 29  1  0  0  0  0
 28 27  2  0  0  0  0
 29 30  1  0  0  0  0
 30 35  1  0  0  0  0
 30 31  2  0  0  0  0
 31 36  1  0  0  0  0
 32 31  1  0  0  0  0
 33 32  2  0  0  0  0
 34 29  2  0  0  0  0
 34 33  1  0  0  0  0
 37 33  1  0  0  0  0
 37 38  1  0  0  0  0
 39 38  1  0  0  0  0
 40 41  1  0  0  0  0
 40 38  1  0  0  0  0
 42 40  1  0  0  0  0
 43 42  1  0  0  0  0
 44 42  1  0  0  0  0
 45 44  1  0  0  0  0
 45 37  1  0  0  0  0
M  END
>  <minimizedAffinity>
-5.74506474

$$$$

 OpenBabel03252504433D

 45 48  0  0  0  0  0  0  0  0999 V2000
   34.5730   28.8800   36.6030 C   0  0  0  0  0  0  0  0  0  0  0  0
   34.5060   28.9830   35.2460 C   0  0  0  0  0  0  0  0  0  0  0  0
   33.2480   29.3330   34.9610 N   0  0  0  0  0  0  0  0  0  0  0  0
   32.5190   29.4560   36.0730 C   0  0  0  0  0  0  0  0  0  0  0  0
   33.3620   29.1700   37.1000 N   0  0  0  0  0  0  0  0  0  0  0  0
   31.1460   29.8070   36.2800 N   0  0  0  0  0  0  0  0  0  0  0  0
   30.8290   31.2430   36.4340 C   0  0  0  0  0  0  0  0  0  0  0  0
   30.2020   31.6350   35.0980 C   0  0  0  0  0  0  0  0  0  0  0  0
   29.1500   30.6260   34.6880 C   0  0  0  0  0  0  0  0  0  0  0  0
   28.7630   29.7800   35.8810 C   0  0  0  0  0  0  0  0  0  0  0  0
   29.9650   29.0080   36.3730 C   0  0  0  0  0  0  0  0  0  0  0  0
   35.2740   28.8250   34.5230 H   0  0  0  0  0  0  0  0  0  0  0  0
   32.7810   29.5150   34.0410 H   0  0  0  0  0  0  0  0  0  0  0  0
   30.1560   31.4140   37.2850 H   0  0  0  0  0  0  0  0  0  0  0  0
   31.7510   31.8310   36.5890 H   0  0  0  0  0  0  0  0  0  0  0  0
   30.9980   31.6270   34.3470 H   0  0  0  0  0  0  0  0  0  0  0  0
   29.7410   32.6400   35.1740 H   0  0  0  0  0  0  0  0  0  0  0  0
   29.5240   29.9120   33.9190 H   0  0  0  0  0  0  0  0  0  0  0  0
   28.2290   31.1410   34.3420 H   0  0  0  0  0  0  0  0  0  0  0  0
   27.9240   29.1140   35.6120 H   0  0  0  0  0  0  0  0  0  0  0  0
   28.4240   30.4110   36.7290 H   0  0  0  0  0  0  0  0  0  0  0  0
   30.0900   28.1330   35.6690 H   0  0  0  0  0  0  0  0  0  0  0  0
   29.7720   28.5740   37.3760 H   0  0  0  0  0  0  0  0  0  0  0  0
   35.7760   28.5120   37.4080 C   0  0  0  0  0  0  0  0  0  0  0  0
   35.5590   27.8340   38.2410 H   0  0  0  0  0  0  0  0  0  0  0  0
   36.4270   27.9340   36.6960 H   0  0  0  0  0  0  0  0  0  0  0  0
   36.6800   30.1260   39.0300 C   0  0  0  0  0  3  0  0  0  0  0  0
   36.5520   29.7080   37.7900 C   0  0  0  0  0  3  0  0  0  0  0  0
   37.4840   31.3330   39.2690 C   0  0  0  0  0  0  0  0  0  0  0  0
   36.9830   32.4300   39.9950 C   0  0  0  0  0  0  0  0  0  0  0  0
   37.8100   33.5210   40.1690 C   0  0  0  0  0  0  0  0  0  0  0  0
   39.0480   33.5030   39.6490 N   0  0  0  0  0  0  0  0  0  0  0  0
   39.5090   32.4430   38.9570 C   0  0  0  0  0  0  0  0  0  0  0  0
   38.7420   31.3960   38.7790 N   0  0  0  0  0  0  0  0  0  0  0  0
   35.9720   32.3350   40.3670 H   0  0  0  0  0  0  0  0  0  0  0  0
   37.4100   34.3570   40.7290 H   0  0  0  0  0  0  0  0  0  0  0  0
   40.8330   32.5030   38.4390 N   0  0  0  0  0  0  0  0  0  0  0  0
   41.9210   33.2460   39.0460 C   0  0  0  0  0  3  0  0  0  0  0  0
   42.8080   32.5920   39.1600 H   0  0  0  0  0  0  0  0  0  0  0  0
   42.2620   34.3490   38.0480 C   0  0  0  0  0  3  0  0  0  0  0  0
   41.2720   34.8400   37.8320 H   0  0  0  0  0  0  0  0  0  0  0  0
   42.7090   33.7410   36.8310 N   0  0  0  0  0  0  0  0  0  0  0  0
   42.1760   34.1060   35.9990 H   0  0  0  0  0  0  0  0  0  0  0  0
   42.5920   32.3040   36.8170 C   0  0  0  0  0  2  0  0  0  0  0  0
   41.2190   31.8080   37.2250 C   0  0  0  0  0  2  0  0  0  0  0  0
  1  5  1  0  0  0  0
  1 24  1  0  0  0  0
  2  1  2  0  0  0  0
  3  2  1  0  0  0  0
  3  4  1  0  0  0  0
  4  6  1  0  0  0  0
  4  5  2  0  0  0  0
  6 11  1  0  0  0  0
  6  7  1  0  0  0  0
  7 15  1  0  0  0  0
  7 14  1  0  0  0  0
  8 17  1  0  0  0  0
  8  7  1  0  0  0  0
  9  8  1  0  0  0  0
  9 10  1  0  0  0  0
 10 11  1  0  0  0  0
 10 21  1  0  0  0  0
 11 23  1  0  0  0  0
 12  2  1  0  0  0  0
 13  3  1  0  0  0  0
 16  8  1  0  0  0  0
 18  9  1  0  0  0  0
 19  9  1  0  0  0  0
 20 10  1  0  0  0  0
 22 11  1  0  0  0  0
 24 28  1  0  0  0  0
 24 25  1  0  0  0  0
 26 24  1  0  0  0  0
 27 29  1  0  0  0  0
 28 27  2  0  0  0  0
 29 30  1  0  0  0  0
 30 31  2  0  0  0  0
 30 35  1  0  0  0  0
 31 36  1  0  0  0  0
 32 31  1  0  0  0  0
 33 32  2  0  0  0  0
 34 33  1  0  0  0  0
 34 29  2  0  0  0  0
 37 33  1  0  0  0  0
 37 38  1  0  0  0  0
 38 39  1  0  0  0  0
 40 38  1  0  0  0  0
 41 40  1  0  0  0  0
 42 40  1  0  0  0  0
 43 42  1  0  0  0  0
 44 42  1  0  0  0  0
 44 45  1  0  0  0  0
 45 37  1  0  0  0  0
M  END
>  <minimizedAffinity>
-5.73373556

$$$$

 OpenBabel03252504433D

 45 48  0  0  0  0  0  0  0  0999 V2000
   38.3320   32.6000   40.1310 C   0  0  0  0  0  0  0  0  0  0  0  0
   38.8520   33.7280   40.6890 C   0  0  0  0  0  0  0  0  0  0  0  0
   40.1040   33.8280   40.2290 N   0  0  0  0  0  0  0  0  0  0  0  0
   40.3970   32.8160   39.4080 C   0  0  0  0  0  0  0  0  0  0  0  0
   39.2750   32.0500   39.3530 N   0  0  0  0  0  0  0  0  0  0  0  0
   41.5870   32.4910   38.6800 N   0  0  0  0  0  0  0  0  0  0  0  0
   41.7280   33.0610   37.3230 C   0  0  0  0  0  0  0  0  0  0  0  0
   42.7450   34.1880   37.4930 C   0  0  0  0  0  0  0  0  0  0  0  0
   43.9430   33.7070   38.2840 C   0  0  0  0  0  0  0  0  0  0  0  0
   43.9580   32.1940   38.3200 C   0  0  0  0  0  0  0  0  0  0  0  0
   42.7180   31.6870   39.0200 C   0  0  0  0  0  0  0  0  0  0  0  0
   38.3920   34.4190   41.3600 H   0  0  0  0  0  0  0  0  0  0  0  0
   40.8440   34.5470   40.4110 H   0  0  0  0  0  0  0  0  0  0  0  0
   42.0550   32.2990   36.6030 H   0  0  0  0  0  0  0  0  0  0  0  0
   40.7700   33.4870   36.9780 H   0  0  0  0  0  0  0  0  0  0  0  0
   42.2580   34.9880   38.0580 H   0  0  0  0  0  0  0  0  0  0  0  0
   43.0790   34.5510   36.5000 H   0  0  0  0  0  0  0  0  0  0  0  0
   43.9080   34.0350   39.3490 H   0  0  0  0  0  0  0  0  0  0  0  0
   44.8880   34.0290   37.7970 H   0  0  0  0  0  0  0  0  0  0  0  0
   44.8830   31.8390   38.8070 H   0  0  0  0  0  0  0  0  0  0  0  0
   43.9390   31.7680   37.2960 H   0  0  0  0  0  0  0  0  0  0  0  0
   42.9050   31.8140   40.1270 H   0  0  0  0  0  0  0  0  0  0  0  0
   42.5850   30.5990   38.8490 H   0  0  0  0  0  0  0  0  0  0  0  0
   36.9550   32.0590   40.3400 C   0  0  0  0  0  0  0  0  0  0  0  0
   36.5060   32.3540   41.2940 H   0  0  0  0  0  0  0  0  0  0  0  0
   36.3350   32.5460   39.5380 H   0  0  0  0  0  0  0  0  0  0  0  0
   36.1780   30.0720   39.1130 C   0  0  0  0  0  3  0  0  0  0  0  0
   36.9030   30.6080   40.0710 C   0  0  0  0  0  3  0  0  0  0  0  0
   36.2200   28.6110   38.9560 C   0  0  0  0  0  0  0  0  0  0  0  0
   35.4450   27.9440   37.9900 C   0  0  0  0  0  0  0  0  0  0  0  0
   35.5490   26.5700   37.9150 C   0  0  0  0  0  0  0  0  0  0  0  0
   36.3750   25.9220   38.7530 N   0  0  0  0  0  0  0  0  0  0  0  0
   37.1090   26.5790   39.6700 C   0  0  0  0  0  0  0  0  0  0  0  0
   37.0260   27.8840   39.7600 N   0  0  0  0  0  0  0  0  0  0  0  0
   34.8150   28.5670   37.3690 H   0  0  0  0  0  0  0  0  0  0  0  0
   34.9450   26.0700   37.1660 H   0  0  0  0  0  0  0  0  0  0  0  0
   37.9600   25.8190   40.5200 N   0  0  0  0  0  0  0  0  0  0  0  0
   38.5880   24.5660   40.1470 C   0  0  0  0  0  3  0  0  0  0  0  0
   39.6740   24.6070   40.3630 H   0  0  0  0  0  0  0  0  0  0  0  0
   37.9570   23.5130   41.0560 C   0  0  0  0  0  3  0  0  0  0  0  0
   36.8490   23.6690   40.9280 H   0  0  0  0  0  0  0  0  0  0  0  0
   38.2780   23.8310   42.4130 N   0  0  0  0  0  0  0  0  0  0  0  0
   37.4140   23.8690   43.0150 H   0  0  0  0  0  0  0  0  0  0  0  0
   38.9660   25.0880   42.5740 C   0  0  0  0  0  2  0  0  0  0  0  0
   38.2820   26.2420   41.8700 C   0  0  0  0  0  2  0  0  0  0  0  0
  1 24  1  0  0  0  0
  1  2  2  0  0  0  0
  2 12  1  0  0  0  0
  3 13  1  0  0  0  0
  3  2  1  0  0  0  0
  4  3  1  0  0  0  0
  5  4  2  0  0  0  0
  5  1  1  0  0  0  0
  6 11  1  0  0  0  0
  6  4  1  0  0  0  0
  7  8  1  0  0  0  0
  7  6  1  0  0  0  0
  8 16  1  0  0  0  0
  8  9  1  0  0  0  0
  9 10  1  0  0  0  0
  9 18  1  0  0  0  0
 10 20  1  0  0  0  0
 10 11  1  0  0  0  0
 11 22  1  0  0  0  0
 14  7  1  0  0  0  0
 15  7  1  0  0  0  0
 17  8  1  0  0  0  0
 19  9  1  0  0  0  0
 21 10  1  0  0  0  0
 23 11  1  0  0  0  0
 24 25  1  0  0  0  0
 26 24  1  0  0  0  0
 27 28  2  0  0  0  0
 28 24  1  0  0  0  0
 29 27  1  0  0  0  0
 29 34  1  0  0  0  0
 30 29  2  0  0  0  0
 31 30  1  0  0  0  0
 31 32  2  0  0  0  0
 32 33  1  0  0  0  0
 33 34  2  0  0  0  0
 33 37  1  0  0  0  0
 35 30  1  0  0  0  0
 36 31  1  0  0  0  0
 37 45  1  0  0  0  0
 38 39  1  0  0  0  0
 38 37  1  0  0  0  0
 38 40  1  0  0  0  0
 40 42  1  0  0  0  0
 41 40  1  0  0  0  0
 42 44  1  0  0  0  0
 42 43  1  0  0  0  0
 45 44  1  0  0  0  0
M  END
>  <minimizedAffinity>
-5.69929647

$$$$

 OpenBabel03252504433D

 45 48  0  0  0  0  0  0  0  0999 V2000
   33.6190   28.1670   36.0730 C   0  0  0  0  0  0  0  0  0  0  0  0
   34.1420   29.0870   35.2150 C   0  0  0  0  0  0  0  0  0  0  0  0
   33.1350   29.9030   34.8850 N   0  0  0  0  0  0  0  0  0  0  0  0
   32.0030   29.5400   35.4940 C   0  0  0  0  0  0  0  0  0  0  0  0
   32.3190   28.4480   36.2390 N   0  0  0  0  0  0  0  0  0  0  0  0
   30.6820   30.0920   35.4590 N   0  0  0  0  0  0  0  0  0  0  0  0
   30.3620   31.1480   36.4440 C   0  0  0  0  0  0  0  0  0  0  0  0
   30.3770   32.4390   35.6280 C   0  0  0  0  0  0  0  0  0  0  0  0
   29.5790   32.2710   34.3520 C   0  0  0  0  0  0  0  0  0  0  0  0
   28.6990   31.0450   34.4590 C   0  0  0  0  0  0  0  0  0  0  0  0
   29.5580   29.8110   34.6230 C   0  0  0  0  0  0  0  0  0  0  0  0
   35.1420   29.1760   34.8540 H   0  0  0  0  0  0  0  0  0  0  0  0
   33.1110   30.7380   34.2530 H   0  0  0  0  0  0  0  0  0  0  0  0
   29.3940   30.9620   36.9270 H   0  0  0  0  0  0  0  0  0  0  0  0
   31.1420   31.2030   37.2240 H   0  0  0  0  0  0  0  0  0  0  0  0
   31.4180   32.6460   35.3590 H   0  0  0  0  0  0  0  0  0  0  0  0
   29.9500   33.2700   36.2250 H   0  0  0  0  0  0  0  0  0  0  0  0
   30.2300   32.1010   33.4640 H   0  0  0  0  0  0  0  0  0  0  0  0
   28.9070   33.1400   34.1950 H   0  0  0  0  0  0  0  0  0  0  0  0
   28.0420   30.9770   33.5740 H   0  0  0  0  0  0  0  0  0  0  0  0
   28.0450   31.0960   35.3530 H   0  0  0  0  0  0  0  0  0  0  0  0
   29.9520   29.5610   33.5950 H   0  0  0  0  0  0  0  0  0  0  0  0
   28.9440   28.9430   34.9420 H   0  0  0  0  0  0  0  0  0  0  0  0
   34.3530   27.0400   36.7220 C   0  0  0  0  0  0  0  0  0  0  0  0
   33.7420   26.1430   36.8710 H   0  0  0  0  0  0  0  0  0  0  0  0
   35.1490   26.7560   35.9800 H   0  0  0  0  0  0  0  0  0  0  0  0
   34.9980   28.7170   38.4030 C   0  0  0  0  0  3  0  0  0  0  0  0
   35.0670   27.4910   37.9330 C   0  0  0  0  0  3  0  0  0  0  0  0
   35.7610   29.0300   39.6200 C   0  0  0  0  0  0  0  0  0  0  0  0
   35.8740   30.3440   40.1110 C   0  0  0  0  0  0  0  0  0  0  0  0
   36.6110   30.5430   41.2610 C   0  0  0  0  0  0  0  0  0  0  0  0
   37.1870   29.4920   41.8670 N   0  0  0  0  0  0  0  0  0  0  0  0
   37.0660   28.2420   41.3820 C   0  0  0  0  0  0  0  0  0  0  0  0
   36.3720   28.0290   40.2910 N   0  0  0  0  0  0  0  0  0  0  0  0
   35.3680   31.1120   39.5410 H   0  0  0  0  0  0  0  0  0  0  0  0
   36.6890   31.5600   41.6250 H   0  0  0  0  0  0  0  0  0  0  0  0
   37.7070   27.1840   42.0850 N   0  0  0  0  0  0  0  0  0  0  0  0
   37.9410   27.1700   43.5160 C   0  0  0  0  0  3  0  0  0  0  0  0
   37.5740   26.2190   43.9510 H   0  0  0  0  0  0  0  0  0  0  0  0
   39.4580   27.2180   43.6770 C   0  0  0  0  0  3  0  0  0  0  0  0
   39.7740   28.0950   43.0450 H   0  0  0  0  0  0  0  0  0  0  0  0
   40.0170   26.0420   43.0830 N   0  0  0  0  0  0  0  0  0  0  0  0
   40.7760   26.2830   42.3930 H   0  0  0  0  0  0  0  0  0  0  0  0
   39.0550   25.2210   42.3920 C   0  0  0  0  0  2  0  0  0  0  0  0
   38.1970   25.9950   41.4120 C   0  0  0  0  0  2  0  0  0  0  0  0
  1  5  1  0  0  0  0
  1 24  1  0  0  0  0
  2  1  2  0  0  0  0
  3  2  1  0  0  0  0
  3  4  1  0  0  0  0
  4  5  2  0  0  0  0
  6  4  1  0  0  0  0
  6  7  1  0  0  0  0
  7 14  1  0  0  0  0
  7 15  1  0  0  0  0
  8 17  1  0  0  0  0
  8  7  1  0  0  0  0
  9 10  1  0  0  0  0
  9  8  1  0  0  0  0
 10 11  1  0  0  0  0
 10 21  1  0  0  0  0
 11 23  1  0  0  0  0
 11  6  1  0  0  0  0
 12  2  1  0  0  0  0
 13  3  1  0  0  0  0
 16  8  1  0  0  0  0
 18  9  1  0  0  0  0
 19  9  1  0  0  0  0
 20 10  1  0  0  0  0
 22 11  1  0  0  0  0
 24 25  1  0  0  0  0
 24 28  1  0  0  0  0
 26 24  1  0  0  0  0
 27 29  1  0  0  0  0
 28 27  2  0  0  0  0
 29 30  2  0  0  0  0
 29 34  1  0  0  0  0
 30 31  1  0  0  0  0
 31 36  1  0  0  0  0
 31 32  2  0  0  0  0
 33 32  1  0  0  0  0
 33 37  1  0  0  0  0
 34 33  2  0  0  0  0
 35 30  1  0  0  0  0
 37 38  1  0  0  0  0
 38 40  1  0  0  0  0
 38 39  1  0  0  0  0
 41 40  1  0  0  0  0
 42 40  1  0  0  0  0
 43 42  1  0  0  0  0
 44 42  1  0  0  0  0
 45 37  1  0  0  0  0
 45 44  1  0  0  0  0
M  END
>  <minimizedAffinity>
-5.42886877

$$$$
