
 OpenBabel03252507433D

 31 33  0  0  0  0  0  0  0  0999 V2000
   45.6190   34.5020   41.8670 C   0  0  0  0  0  0  0  0  0  0  0  0
   45.7270   33.7380   42.6660 H   0  0  0  0  0  0  0  0  0  0  0  0
   45.8670   35.4790   42.3310 H   0  0  0  0  0  0  0  0  0  0  0  0
   44.2320   34.5740   41.3250 C   0  0  0  0  0  0  0  0  0  0  0  0
   43.4630   35.7780   41.4870 C   0  0  0  0  0  0  0  0  0  0  0  0
   41.8770   35.3510   40.6610 S   0  0  0  0  0  0  0  0  0  0  0  0
   42.5280   33.6140   40.2380 C   0  0  0  0  0  0  0  0  0  0  0  0
   43.5820   33.6350   40.6810 N   0  0  0  0  0  0  0  0  0  0  0  0
   43.7820   36.6730   41.9750 H   0  0  0  0  0  0  0  0  0  0  0  0
   41.7550   32.6440   39.5320 N   0  0  0  0  0  0  0  0  0  0  0  0
   41.7020   31.2790   39.9670 C   0  0  0  0  0  3  0  0  0  0  0  0
   42.1760   30.5950   39.2350 H   0  0  0  0  0  0  0  0  0  0  0  0
   40.2500   30.8810   40.0960 C   0  0  0  0  0  3  0  0  0  0  0  0
   40.1660   29.7870   40.2860 H   0  0  0  0  0  0  0  0  0  0  0  0
   39.4150   31.3390   39.0320 N   0  0  0  0  0  0  0  0  0  0  0  0
   38.9010   30.5220   38.6170 H   0  0  0  0  0  0  0  0  0  0  0  0
   40.0870   31.9990   37.9550 C   0  0  0  0  0  2  0  0  0  0  0  0
   41.0330   33.0760   38.3760 C   0  0  0  0  0  2  0  0  0  0  0  0
   46.6670   34.2650   40.8150 C   0  0  0  0  0  0  0  0  0  0  0  0
   46.6230   35.1760   40.1490 H   0  0  0  0  0  0  0  0  0  0  0  0
   46.3830   33.4250   40.1970 H   0  0  0  0  0  0  0  0  0  0  0  0
   48.0330   34.1480   41.3600 C   0  0  0  0  0  0  0  0  0  0  0  0
   48.7030   32.9490   41.1300 C   0  0  0  0  0  0  0  0  0  0  0  0
   49.9920   32.7890   41.6210 C   0  0  0  0  0  0  0  0  0  0  0  0
   50.5500   33.8160   42.3120 N   0  0  0  0  0  0  0  0  0  0  0  0
   49.8800   34.9560   42.5160 C   0  0  0  0  0  0  0  0  0  0  0  0
   48.6470   35.1040   42.0440 N   0  0  0  0  0  0  0  0  0  0  0  0
   50.5550   31.8620   41.4620 H   0  0  0  0  0  0  0  0  0  0  0  0
   50.4420   35.6900   43.0810 H   0  0  0  0  0  0  0  0  0  0  0  0
   47.9120   31.6190   40.2030 S   0  0  0  0  0  0  0  0  0  0  0  0
   48.9520   30.8390   39.6650 H   0  0  0  0  0  0  0  0  0  0  0  0
  1  3  1  0  0  0  0
  1  2  1  0  0  0  0
  4  5  2  0  0  0  0
  4  1  1  0  0  0  0
  5  9  1  0  0  0  0
  6  5  1  0  0  0  0
  7  6  1  0  0  0  0
  7  8  2  0  0  0  0
  8  4  1  0  0  0  0
 10 11  1  0  0  0  0
 10  7  1  0  0  0  0
 11 13  1  0  0  0  0
 12 11  1  0  0  0  0
 13 14  1  0  0  0  0
 15 13  1  0  0  0  0
 16 15  1  0  0  0  0
 17 18  1  0  0  0  0
 17 15  1  0  0  0  0
 18 10  1  0  0  0  0
 19 22  1  0  0  0  0
 19  1  1  0  0  0  0
 20 19  1  0  0  0  0
 21 19  1  0  0  0  0
 22 27  1  0  0  0  0
 23 22  2  0  0  0  0
 23 24  1  0  0  0  0
 24 25  2  0  0  0  0
 25 26  1  0  0  0  0
 26 29  1  0  0  0  0
 27 26  2  0  0  0  0
 28 24  1  0  0  0  0
 30 23  1  0  0  0  0
 31 30  1  0  0  0  0
M  END
>  <minimizedAffinity>
-4.42924833

>  <minimizedRMSD>
1.25432909

$$$$
