
 OpenBabel03252506503D

 31 34  0  0  0  0  0  0  0  0999 V2000
   47.3790   31.5310   44.8880 C   0  0  0  0  0  0  0  0  0  0  0  0
   47.0000   32.8520   44.7510 C   0  0  0  0  0  0  0  0  0  0  0  0
   46.1770   33.4920   45.6580 C   0  0  0  0  0  0  0  0  0  0  0  0
   45.6940   32.8070   46.7680 C   0  0  0  0  0  0  0  0  0  0  0  0
   44.8950   33.0970   47.8290 N   0  0  0  0  0  0  0  0  0  0  0  0
   44.7890   31.9760   48.5980 C   0  0  0  0  0  0  0  0  0  0  0  0
   45.5250   31.0080   48.0000 N   0  0  0  0  0  0  0  0  0  0  0  0
   46.0860   31.4950   46.8800 C   0  0  0  0  0  0  0  0  0  0  0  0
   46.9020   30.8290   45.9970 C   0  0  0  0  0  0  0  0  0  0  0  0
   48.0230   31.0150   44.1870 H   0  0  0  0  0  0  0  0  0  0  0  0
   45.8920   34.5220   45.5350 H   0  0  0  0  0  0  0  0  0  0  0  0
   44.4570   34.0340   47.9870 H   0  0  0  0  0  0  0  0  0  0  0  0
   44.2030   31.9110   49.5270 H   0  0  0  0  0  0  0  0  0  0  0  0
   47.1560   35.2950   41.9990 C   0  0  0  0  0  0  0  0  0  0  0  0
   48.4160   35.0620   41.4510 C   0  0  0  0  0  0  0  0  0  0  0  0
   49.2130   34.0620   42.0290 C   0  0  0  0  0  0  0  0  0  0  0  0
   48.6910   33.3800   43.1010 N   0  0  0  0  0  0  0  0  0  0  0  0
   47.4730   33.6250   43.6110 C   0  0  0  0  0  0  0  0  0  0  0  0
   46.7280   34.5770   43.0520 N   0  0  0  0  0  0  0  0  0  0  0  0
   46.6000   36.0620   41.5200 H   0  0  0  0  0  0  0  0  0  0  0  0
   48.8810   35.5580   40.6150 H   0  0  0  0  0  0  0  0  0  0  0  0
   50.2110   33.7700   41.7120 H   0  0  0  0  0  0  0  0  0  0  0  0
   47.2760   29.4660   46.1660 N   0  0  0  0  0  0  0  0  0  0  0  0
   46.4310   28.5130   45.4740 C   0  0  0  0  0  3  0  0  0  0  0  0
   45.3740   28.6490   45.7740 H   0  0  0  0  0  0  0  0  0  0  0  0
   46.9230   27.0980   45.6840 C   0  0  0  0  0  3  0  0  0  0  0  0
   47.7030   26.8770   44.9530 H   0  0  0  0  0  0  0  0  0  0  0  0
   47.4810   26.9080   47.0020 N   0  0  0  0  0  0  0  0  0  0  0  0
   46.7960   26.7710   47.7550 H   0  0  0  0  0  0  0  0  0  0  0  0
   48.6070   27.7340   47.2950 C   0  0  0  0  0  2  0  0  0  0  0  0
   48.4350   29.1890   46.9940 C   0  0  0  0  0  2  0  0  0  0  0  0
  1  9  1  0  0  0  0
  2  1  2  0  0  0  0
  2  3  1  0  0  0  0
  3  4  2  0  0  0  0
  4  8  1  0  0  0  0
  4  5  1  0  0  0  0
  5 12  1  0  0  0  0
  5  6  1  0  0  0  0
  6 13  1  0  0  0  0
  7  6  2  0  0  0  0
  8  7  1  0  0  0  0
  9 23  1  0  0  0  0
  9  8  2  0  0  0  0
 10  1  1  0  0  0  0
 11  3  1  0  0  0  0
 14 19  1  0  0  0  0
 15 14  2  0  0  0  0
 15 16  1  0  0  0  0
 16 17  2  0  0  0  0
 17 18  1  0  0  0  0
 18  2  1  0  0  0  0
 19 18  2  0  0  0  0
 20 14  1  0  0  0  0
 21 15  1  0  0  0  0
 22 16  1  0  0  0  0
 23 31  1  0  0  0  0
 24 26  1  0  0  0  0
 24 25  1  0  0  0  0
 24 23  1  0  0  0  0
 26 28  1  0  0  0  0
 27 26  1  0  0  0  0
 28 30  1  0  0  0  0
 28 29  1  0  0  0  0
 31 30  1  0  0  0  0
M  END
>  <minimizedAffinity>
-5.18155003

>  <minimizedRMSD>
0.81717068

$$$$
