
 OpenBabel03242523293D

 21 22  0  0  0  0  0  0  0  0999 V2000
   38.8580   30.2640   42.5170 C   0  0  0  0  0  0  0  0  0  0  0  0
   38.3670   30.8070   43.3370 H   0  0  0  0  0  0  0  0  0  0  0  0
   39.9700   30.2510   42.6560 H   0  0  0  0  0  0  0  0  0  0  0  0
   38.1920   26.7210   41.5820 C   0  0  0  0  0  0  0  0  0  0  0  0
   37.1590   26.3760   42.4550 C   0  0  0  0  0  0  0  0  0  0  0  0
   36.7110   27.3570   43.3430 C   0  0  0  0  0  0  0  0  0  0  0  0
   37.2890   28.5940   43.3260 N   0  0  0  0  0  0  0  0  0  0  0  0
   38.2980   28.8860   42.4520 C   0  0  0  0  0  0  0  0  0  0  0  0
   38.7290   27.9540   41.6030 N   0  0  0  0  0  0  0  0  0  0  0  0
   38.5190   25.9360   40.9030 H   0  0  0  0  0  0  0  0  0  0  0  0
   36.6880   25.3910   42.4800 H   0  0  0  0  0  0  0  0  0  0  0  0
   35.9120   27.1450   44.0420 H   0  0  0  0  0  0  0  0  0  0  0  0
   38.6590   30.9140   41.2320 N   0  0  0  0  0  0  0  0  0  0  0  0
   39.4230   32.0770   41.0560 C   0  0  0  0  0  3  0  0  0  0  0  0
   39.8950   32.3070   42.0580 H   0  0  0  0  0  0  0  0  0  0  0  0
   38.7380   33.3120   40.6060 C   0  0  0  0  0  3  0  0  0  0  0  0
   39.1850   33.6380   39.6310 H   0  0  0  0  0  0  0  0  0  0  0  0
   37.3250   33.2360   40.4100 N   0  0  0  0  0  0  0  0  0  0  0  0
   36.8800   33.2680   41.3740 H   0  0  0  0  0  0  0  0  0  0  0  0
   36.9370   31.9520   39.8280 C   0  0  0  0  0  2  0  0  0  0  0  0
   37.2840   30.9250   40.9090 C   0  0  0  0  0  2  0  0  0  0  0  0
  1  3  1  0  0  0  0
  1  2  1  0  0  0  0
  4  9  2  0  0  0  0
  4  5  1  0  0  0  0
  5 11  1  0  0  0  0
  5  6  2  0  0  0  0
  6 12  1  0  0  0  0
  7  6  1  0  0  0  0
  8  1  1  0  0  0  0
  8  7  2  0  0  0  0
  9  8  1  0  0  0  0
 10  4  1  0  0  0  0
 13  1  1  0  0  0  0
 14 13  1  0  0  0  0
 14 15  1  0  0  0  0
 16 14  1  0  0  0  0
 17 16  1  0  0  0  0
 18 16  1  0  0  0  0
 18 19  1  0  0  0  0
 20 18  1  0  0  0  0
 20 21  1  0  0  0  0
 21 13  1  0  0  0  0
M  END
>  <minimizedAffinity>
-4.16667604

$$$$

 OpenBabel03242523293D

 21 22  0  0  0  0  0  0  0  0999 V2000
   37.3570   28.1140   43.1180 C   0  0  0  0  0  0  0  0  0  0  0  0
   36.3780   27.8620   43.5500 H   0  0  0  0  0  0  0  0  0  0  0  0
   37.8720   28.9010   43.7270 H   0  0  0  0  0  0  0  0  0  0  0  0
   38.5630   24.6880   42.2970 C   0  0  0  0  0  0  0  0  0  0  0  0
   39.7980   24.6470   42.9460 C   0  0  0  0  0  0  0  0  0  0  0  0
   40.1940   25.7880   43.6500 C   0  0  0  0  0  0  0  0  0  0  0  0
   39.3740   26.8800   43.6760 N   0  0  0  0  0  0  0  0  0  0  0  0
   38.1730   26.8720   43.0250 C   0  0  0  0  0  0  0  0  0  0  0  0
   37.7910   25.7870   42.3520 N   0  0  0  0  0  0  0  0  0  0  0  0
   38.2830   23.7850   41.7570 H   0  0  0  0  0  0  0  0  0  0  0  0
   40.4640   23.7820   42.9330 H   0  0  0  0  0  0  0  0  0  0  0  0
   41.1420   25.8120   44.1720 H   0  0  0  0  0  0  0  0  0  0  0  0
   37.2390   28.7000   41.7930 N   0  0  0  0  0  0  0  0  0  0  0  0
   37.9490   29.9000   41.6330 C   0  0  0  0  0  3  0  0  0  0  0  0
   38.3140   30.1960   42.6620 H   0  0  0  0  0  0  0  0  0  0  0  0
   37.2380   31.0730   41.0710 C   0  0  0  0  0  3  0  0  0  0  0  0
   37.7530   31.3860   40.1250 H   0  0  0  0  0  0  0  0  0  0  0  0
   35.8550   30.9030   40.7540 N   0  0  0  0  0  0  0  0  0  0  0  0
   35.3230   30.9460   41.6730 H   0  0  0  0  0  0  0  0  0  0  0  0
   35.5950   29.5760   40.1970 C   0  0  0  0  0  2  0  0  0  0  0  0
   35.9010   28.6150   41.3490 C   0  0  0  0  0  2  0  0  0  0  0  0
  1  2  1  0  0  0  0
  1  3  1  0  0  0  0
  4  9  2  0  0  0  0
  4  5  1  0  0  0  0
  5  6  2  0  0  0  0
  6  7  1  0  0  0  0
  6 12  1  0  0  0  0
  8  1  1  0  0  0  0
  8  7  2  0  0  0  0
  9  8  1  0  0  0  0
 10  4  1  0  0  0  0
 11  5  1  0  0  0  0
 13  1  1  0  0  0  0
 14 13  1  0  0  0  0
 14 15  1  0  0  0  0
 16 14  1  0  0  0  0
 17 16  1  0  0  0  0
 18 16  1  0  0  0  0
 18 19  1  0  0  0  0
 20 18  1  0  0  0  0
 20 21  1  0  0  0  0
 21 13  1  0  0  0  0
M  END
>  <minimizedAffinity>
-4.1206007

$$$$

 OpenBabel03242523293D

 21 22  0  0  0  0  0  0  0  0999 V2000
   38.9150   30.2080   40.6470 C   0  0  0  0  0  0  0  0  0  0  0  0
   39.9980   30.1020   40.8070 H   0  0  0  0  0  0  0  0  0  0  0  0
   38.6500   30.0150   39.5750 H   0  0  0  0  0  0  0  0  0  0  0  0
   37.5160   28.5540   43.6760 C   0  0  0  0  0  0  0  0  0  0  0  0
   36.8350   27.4640   43.1280 C   0  0  0  0  0  0  0  0  0  0  0  0
   36.8680   27.3160   41.7390 C   0  0  0  0  0  0  0  0  0  0  0  0
   37.5510   28.2250   40.9820 N   0  0  0  0  0  0  0  0  0  0  0  0
   38.2020   29.2760   41.5640 C   0  0  0  0  0  0  0  0  0  0  0  0
   38.1740   29.4220   42.8880 N   0  0  0  0  0  0  0  0  0  0  0  0
   37.4720   28.6420   44.7600 H   0  0  0  0  0  0  0  0  0  0  0  0
   36.2850   26.7310   43.7220 H   0  0  0  0  0  0  0  0  0  0  0  0
   36.3580   26.4900   41.2610 H   0  0  0  0  0  0  0  0  0  0  0  0
   38.4520   31.5620   40.8990 N   0  0  0  0  0  0  0  0  0  0  0  0
   37.2800   31.9030   40.2060 C   0  0  0  0  0  3  0  0  0  0  0  0
   37.0780   31.0580   39.4810 H   0  0  0  0  0  0  0  0  0  0  0  0
   37.2610   33.1610   39.4230 C   0  0  0  0  0  3  0  0  0  0  0  0
   36.4530   33.8250   39.8280 H   0  0  0  0  0  0  0  0  0  0  0  0
   38.4630   33.9330   39.4060 N   0  0  0  0  0  0  0  0  0  0  0  0
   39.1260   33.4510   38.7300 H   0  0  0  0  0  0  0  0  0  0  0  0
   39.1280   33.9120   40.7080 C   0  0  0  0  0  2  0  0  0  0  0  0
   39.5490   32.4520   40.8950 C   0  0  0  0  0  2  0  0  0  0  0  0
  1  2  1  0  0  0  0
  1 13  1  0  0  0  0
  1  8  1  0  0  0  0
  3  1  1  0  0  0  0
  4 10  1  0  0  0  0
  5  4  1  0  0  0  0
  5 11  1  0  0  0  0
  6  5  2  0  0  0  0
  7  8  2  0  0  0  0
  7  6  1  0  0  0  0
  8  9  1  0  0  0  0
  9  4  2  0  0  0  0
 12  6  1  0  0  0  0
 14 13  1  0  0  0  0
 15 14  1  0  0  0  0
 16 17  1  0  0  0  0
 16 14  1  0  0  0  0
 18 16  1  0  0  0  0
 18 20  1  0  0  0  0
 19 18  1  0  0  0  0
 20 21  1  0  0  0  0
 21 13  1  0  0  0  0
M  END
>  <minimizedAffinity>
-3.97811341

$$$$

 OpenBabel03242523293D

 21 22  0  0  0  0  0  0  0  0999 V2000
   38.2240   27.9510   42.0190 C   0  0  0  0  0  0  0  0  0  0  0  0
   37.7370   27.9930   43.0030 H   0  0  0  0  0  0  0  0  0  0  0  0
   39.2380   28.4270   42.0540 H   0  0  0  0  0  0  0  0  0  0  0  0
   38.9610   24.8330   40.1200 C   0  0  0  0  0  0  0  0  0  0  0  0
   38.3610   23.8550   40.9150 C   0  0  0  0  0  0  0  0  0  0  0  0
   37.7190   24.2790   42.0820 C   0  0  0  0  0  0  0  0  0  0  0  0
   37.7020   25.6080   42.3950 N   0  0  0  0  0  0  0  0  0  0  0  0
   38.3020   26.5290   41.5850 C   0  0  0  0  0  0  0  0  0  0  0  0
   38.9160   26.1300   40.4710 N   0  0  0  0  0  0  0  0  0  0  0  0
   39.4530   24.4720   39.2180 H   0  0  0  0  0  0  0  0  0  0  0  0
   38.3690   22.7900   40.6770 H   0  0  0  0  0  0  0  0  0  0  0  0
   37.2370   23.5640   42.7370 H   0  0  0  0  0  0  0  0  0  0  0  0
   37.5000   28.7110   41.0140 N   0  0  0  0  0  0  0  0  0  0  0  0
   37.9580   30.0280   40.8530 C   0  0  0  0  0  3  0  0  0  0  0  0
   38.6960   30.2150   41.6900 H   0  0  0  0  0  0  0  0  0  0  0  0
   36.9690   31.1310   40.8920 C   0  0  0  0  0  3  0  0  0  0  0  0
   37.0010   31.6780   39.9140 H   0  0  0  0  0  0  0  0  0  0  0  0
   35.6050   30.7720   41.1220 N   0  0  0  0  0  0  0  0  0  0  0  0
   35.5130   30.5720   42.1620 H   0  0  0  0  0  0  0  0  0  0  0  0
   35.2590   29.5260   40.4380 C   0  0  0  0  0  2  0  0  0  0  0  0
   36.1140   28.4630   41.1320 C   0  0  0  0  0  2  0  0  0  0  0  0
  1  3  1  0  0  0  0
  1  2  1  0  0  0  0
  4  9  2  0  0  0  0
  4  5  1  0  0  0  0
  5  6  2  0  0  0  0
  6  7  1  0  0  0  0
  6 12  1  0  0  0  0
  8  1  1  0  0  0  0
  8  7  2  0  0  0  0
  9  8  1  0  0  0  0
 10  4  1  0  0  0  0
 11  5  1  0  0  0  0
 13 21  1  0  0  0  0
 13  1  1  0  0  0  0
 14 16  1  0  0  0  0
 14 13  1  0  0  0  0
 14 15  1  0  0  0  0
 16 18  1  0  0  0  0
 17 16  1  0  0  0  0
 18 19  1  0  0  0  0
 20 18  1  0  0  0  0
 20 21  1  0  0  0  0
M  END
>  <minimizedAffinity>
-3.83408761

$$$$

 OpenBabel03242523293D

 21 22  0  0  0  0  0  0  0  0999 V2000
   35.8870   29.7850   40.5600 C   0  0  0  0  0  0  0  0  0  0  0  0
   35.0340   29.6610   39.8790 H   0  0  0  0  0  0  0  0  0  0  0  0
   35.6100   30.4260   41.4360 H   0  0  0  0  0  0  0  0  0  0  0  0
   36.9740   26.2230   40.5940 C   0  0  0  0  0  0  0  0  0  0  0  0
   37.2200   26.0030   41.9510 C   0  0  0  0  0  0  0  0  0  0  0  0
   37.0100   27.0730   42.8250 C   0  0  0  0  0  0  0  0  0  0  0  0
   36.5810   28.2710   42.3300 N   0  0  0  0  0  0  0  0  0  0  0  0
   36.3530   28.4380   40.9940 C   0  0  0  0  0  0  0  0  0  0  0  0
   36.5520   27.4210   40.1560 N   0  0  0  0  0  0  0  0  0  0  0  0
   37.1460   25.3700   39.9390 H   0  0  0  0  0  0  0  0  0  0  0  0
   37.5630   25.0510   42.3600 H   0  0  0  0  0  0  0  0  0  0  0  0
   37.1850   26.9590   43.8870 H   0  0  0  0  0  0  0  0  0  0  0  0
   36.9950   30.4860   39.9330 N   0  0  0  0  0  0  0  0  0  0  0  0
   37.5160   31.5370   40.7030 C   0  0  0  0  0  3  0  0  0  0  0  0
   36.8110   31.6740   41.5770 H   0  0  0  0  0  0  0  0  0  0  0  0
   37.6830   32.8650   40.0680 C   0  0  0  0  0  3  0  0  0  0  0  0
   38.7670   33.1490   40.1060 H   0  0  0  0  0  0  0  0  0  0  0  0
   37.2690   32.9900   38.7060 N   0  0  0  0  0  0  0  0  0  0  0  0
   36.2090   33.0600   38.7130 H   0  0  0  0  0  0  0  0  0  0  0  0
   37.5890   31.7860   37.9390 C   0  0  0  0  0  2  0  0  0  0  0  0
   36.7150   30.6960   38.5640 C   0  0  0  0  0  2  0  0  0  0  0  0
  1  8  1  0  0  0  0
  1  3  1  0  0  0  0
  2  1  1  0  0  0  0
  4  5  1  0  0  0  0
  5 11  1  0  0  0  0
  5  6  2  0  0  0  0
  6 12  1  0  0  0  0
  7  6  1  0  0  0  0
  8  7  2  0  0  0  0
  9  4  2  0  0  0  0
  9  8  1  0  0  0  0
 10  4  1  0  0  0  0
 13  1  1  0  0  0  0
 13 14  1  0  0  0  0
 14 15  1  0  0  0  0
 16 17  1  0  0  0  0
 16 14  1  0  0  0  0
 18 19  1  0  0  0  0
 18 16  1  0  0  0  0
 20 21  1  0  0  0  0
 20 18  1  0  0  0  0
 21 13  1  0  0  0  0
M  END
>  <minimizedAffinity>
-3.78357768

$$$$

 OpenBabel03242523293D

 21 22  0  0  0  0  0  0  0  0999 V2000
   39.2110   30.6510   41.8160 C   0  0  0  0  0  0  0  0  0  0  0  0
   39.2450   31.3590   42.6560 H   0  0  0  0  0  0  0  0  0  0  0  0
   40.2340   30.2550   41.5850 H   0  0  0  0  0  0  0  0  0  0  0  0
   36.3680   28.2470   41.7570 C   0  0  0  0  0  0  0  0  0  0  0  0
   36.5980   27.4900   42.9070 C   0  0  0  0  0  0  0  0  0  0  0  0
   37.7180   27.8150   43.6780 C   0  0  0  0  0  0  0  0  0  0  0  0
   38.5300   28.8400   43.2860 N   0  0  0  0  0  0  0  0  0  0  0  0
   38.2620   29.5540   42.1520 C   0  0  0  0  0  0  0  0  0  0  0  0
   37.1960   29.2480   41.4130 N   0  0  0  0  0  0  0  0  0  0  0  0
   35.4880   27.9700   41.1780 H   0  0  0  0  0  0  0  0  0  0  0  0
   35.9580   26.6670   43.2320 H   0  0  0  0  0  0  0  0  0  0  0  0
   37.9460   27.2610   44.5800 H   0  0  0  0  0  0  0  0  0  0  0  0
   38.7790   31.2850   40.5810 N   0  0  0  0  0  0  0  0  0  0  0  0
   39.6520   31.0830   39.5000 C   0  0  0  0  0  3  0  0  0  0  0  0
   40.5810   30.5960   39.9230 H   0  0  0  0  0  0  0  0  0  0  0  0
   40.0980   32.2640   38.7220 C   0  0  0  0  0  3  0  0  0  0  0  0
   39.7720   32.1370   37.6570 H   0  0  0  0  0  0  0  0  0  0  0  0
   39.6240   33.5410   39.1520 N   0  0  0  0  0  0  0  0  0  0  0  0
   40.1990   33.8100   40.0030 H   0  0  0  0  0  0  0  0  0  0  0  0
   38.2360   33.4690   39.6070 C   0  0  0  0  0  2  0  0  0  0  0  0
   38.2920   32.5820   40.8530 C   0  0  0  0  0  2  0  0  0  0  0  0
  1  8  1  0  0  0  0
  1  2  1  0  0  0  0
  3  1  1  0  0  0  0
  4  5  1  0  0  0  0
  5 11  1  0  0  0  0
  5  6  2  0  0  0  0
  6 12  1  0  0  0  0
  7  6  1  0  0  0  0
  8  7  2  0  0  0  0
  9  4  2  0  0  0  0
  9  8  1  0  0  0  0
 10  4  1  0  0  0  0
 13 21  1  0  0  0  0
 13  1  1  0  0  0  0
 14 15  1  0  0  0  0
 14 13  1  0  0  0  0
 16 18  1  0  0  0  0
 16 14  1  0  0  0  0
 17 16  1  0  0  0  0
 18 20  1  0  0  0  0
 18 19  1  0  0  0  0
 20 21  1  0  0  0  0
M  END
>  <minimizedAffinity>
-3.70927238

$$$$

 OpenBabel03242523293D

 21 22  0  0  0  0  0  0  0  0999 V2000
   38.7860   29.7680   40.5310 C   0  0  0  0  0  0  0  0  0  0  0  0
   39.5460   30.3780   41.0390 H   0  0  0  0  0  0  0  0  0  0  0  0
   39.2430   29.1710   39.6990 H   0  0  0  0  0  0  0  0  0  0  0  0
   37.3270   28.4140   43.6780 C   0  0  0  0  0  0  0  0  0  0  0  0
   36.8860   27.1510   43.2790 C   0  0  0  0  0  0  0  0  0  0  0  0
   37.0940   26.7880   41.9460 C   0  0  0  0  0  0  0  0  0  0  0  0
   37.7100   27.6640   41.0990 N   0  0  0  0  0  0  0  0  0  0  0  0
   38.1260   28.8900   41.5360 C   0  0  0  0  0  0  0  0  0  0  0  0
   37.9290   29.2410   42.8060 N   0  0  0  0  0  0  0  0  0  0  0  0
   37.1500   28.6680   44.7230 H   0  0  0  0  0  0  0  0  0  0  0  0
   36.3910   26.4410   43.9450 H   0  0  0  0  0  0  0  0  0  0  0  0
   36.7720   25.8210   41.5810 H   0  0  0  0  0  0  0  0  0  0  0  0
   37.7720   30.5810   39.8790 N   0  0  0  0  0  0  0  0  0  0  0  0
   37.5780   30.2750   38.5240 C   0  0  0  0  0  3  0  0  0  0  0  0
   38.4020   29.5540   38.2360 H   0  0  0  0  0  0  0  0  0  0  0  0
   37.6050   31.3800   37.5370 C   0  0  0  0  0  3  0  0  0  0  0  0
   36.6140   31.4180   37.0120 H   0  0  0  0  0  0  0  0  0  0  0  0
   37.8580   32.6930   38.0410 N   0  0  0  0  0  0  0  0  0  0  0  0
   38.9030   32.7540   38.2260 H   0  0  0  0  0  0  0  0  0  0  0  0
   37.2060   32.9040   39.3320 C   0  0  0  0  0  2  0  0  0  0  0  0
   37.9130   31.9290   40.2770 C   0  0  0  0  0  2  0  0  0  0  0  0
  1  2  1  0  0  0  0
  1  8  1  0  0  0  0
  3  1  1  0  0  0  0
  4 10  1  0  0  0  0
  5  4  1  0  0  0  0
  5 11  1  0  0  0  0
  6  5  2  0  0  0  0
  7  8  2  0  0  0  0
  7  6  1  0  0  0  0
  8  9  1  0  0  0  0
  9  4  2  0  0  0  0
 12  6  1  0  0  0  0
 13 21  1  0  0  0  0
 13  1  1  0  0  0  0
 14 13  1  0  0  0  0
 15 14  1  0  0  0  0
 16 18  1  0  0  0  0
 16 14  1  0  0  0  0
 17 16  1  0  0  0  0
 18 19  1  0  0  0  0
 18 20  1  0  0  0  0
 20 21  1  0  0  0  0
M  END
>  <minimizedAffinity>
-3.67111254

$$$$

 OpenBabel03242523293D

 21 22  0  0  0  0  0  0  0  0999 V2000
   38.8240   29.4430   42.7600 C   0  0  0  0  0  0  0  0  0  0  0  0
   38.0960   29.4270   43.5830 H   0  0  0  0  0  0  0  0  0  0  0  0
   39.6210   30.2080   42.9460 H   0  0  0  0  0  0  0  0  0  0  0  0
   40.5040   26.4110   41.3990 C   0  0  0  0  0  0  0  0  0  0  0  0
   40.4180   25.5200   42.4710 C   0  0  0  0  0  0  0  0  0  0  0  0
   39.7880   25.9720   43.6340 C   0  0  0  0  0  0  0  0  0  0  0  0
   39.2910   27.2430   43.6800 N   0  0  0  0  0  0  0  0  0  0  0  0
   39.3990   28.0780   42.6040 C   0  0  0  0  0  0  0  0  0  0  0  0
   39.9990   27.6530   41.4930 N   0  0  0  0  0  0  0  0  0  0  0  0
   41.0000   26.0300   40.5080 H   0  0  0  0  0  0  0  0  0  0  0  0
   40.8110   24.5020   42.4490 H   0  0  0  0  0  0  0  0  0  0  0  0
   39.6930   25.3240   44.4960 H   0  0  0  0  0  0  0  0  0  0  0  0
   38.2200   29.8450   41.5000 N   0  0  0  0  0  0  0  0  0  0  0  0
   38.7550   31.0250   40.9620 C   0  0  0  0  0  3  0  0  0  0  0  0
   39.4340   31.4620   41.7550 H   0  0  0  0  0  0  0  0  0  0  0  0
   37.8230   32.1010   40.5490 C   0  0  0  0  0  3  0  0  0  0  0  0
   37.9600   32.2950   39.4530 H   0  0  0  0  0  0  0  0  0  0  0  0
   36.4290   31.8670   40.7580 N   0  0  0  0  0  0  0  0  0  0  0  0
   36.2450   32.0230   41.7930 H   0  0  0  0  0  0  0  0  0  0  0  0
   36.0760   30.4740   40.4890 C   0  0  0  0  0  2  0  0  0  0  0  0
   36.8190   29.6800   41.5660 C   0  0  0  0  0  2  0  0  0  0  0  0
  1  3  1  0  0  0  0
  1  2  1  0  0  0  0
  4  9  2  0  0  0  0
  4  5  1  0  0  0  0
  5  6  2  0  0  0  0
  6  7  1  0  0  0  0
  6 12  1  0  0  0  0
  8  1  1  0  0  0  0
  8  7  2  0  0  0  0
  9  8  1  0  0  0  0
 10  4  1  0  0  0  0
 11  5  1  0  0  0  0
 13 21  1  0  0  0  0
 13  1  1  0  0  0  0
 14 13  1  0  0  0  0
 14 15  1  0  0  0  0
 16 18  1  0  0  0  0
 16 14  1  0  0  0  0
 17 16  1  0  0  0  0
 18 19  1  0  0  0  0
 20 18  1  0  0  0  0
 20 21  1  0  0  0  0
M  END
>  <minimizedAffinity>
-3.66154099

$$$$

 OpenBabel03242523293D

 21 22  0  0  0  0  0  0  0  0999 V2000
   39.1400   29.9280   41.1190 C   0  0  0  0  0  0  0  0  0  0  0  0
   39.7310   29.4770   40.3090 H   0  0  0  0  0  0  0  0  0  0  0  0
   39.7430   30.0010   42.0610 H   0  0  0  0  0  0  0  0  0  0  0  0
   38.6920   33.6000   40.6870 C   0  0  0  0  0  0  0  0  0  0  0  0
   37.6600   33.6630   39.7490 C   0  0  0  0  0  0  0  0  0  0  0  0
   37.1390   32.4520   39.2830 C   0  0  0  0  0  0  0  0  0  0  0  0
   37.6480   31.2760   39.7540 N   0  0  0  0  0  0  0  0  0  0  0  0
   38.6590   31.2650   40.6730 C   0  0  0  0  0  0  0  0  0  0  0  0
   39.1600   32.4160   41.1200 N   0  0  0  0  0  0  0  0  0  0  0  0
   39.0770   34.5590   41.0300 H   0  0  0  0  0  0  0  0  0  0  0  0
   37.2450   34.5960   39.3640 H   0  0  0  0  0  0  0  0  0  0  0  0
   36.3380   32.4410   38.5550 H   0  0  0  0  0  0  0  0  0  0  0  0
   37.9930   29.1130   41.4830 N   0  0  0  0  0  0  0  0  0  0  0  0
   37.6360   29.2000   42.8370 C   0  0  0  0  0  3  0  0  0  0  0  0
   38.4610   29.7820   43.3500 H   0  0  0  0  0  0  0  0  0  0  0  0
   37.4510   27.9450   43.6030 C   0  0  0  0  0  3  0  0  0  0  0  0
   36.3980   27.9100   43.9860 H   0  0  0  0  0  0  0  0  0  0  0  0
   37.6790   26.7190   42.9050 N   0  0  0  0  0  0  0  0  0  0  0  0
   38.7320   26.5950   42.8410 H   0  0  0  0  0  0  0  0  0  0  0  0
   37.1970   26.7930   41.5260 C   0  0  0  0  0  2  0  0  0  0  0  0
   38.0930   27.8450   40.8670 C   0  0  0  0  0  2  0  0  0  0  0  0
  1 13  1  0  0  0  0
  1  3  1  0  0  0  0
  2  1  1  0  0  0  0
  4 10  1  0  0  0  0
  4  9  1  0  0  0  0
  5  4  2  0  0  0  0
  6  5  1  0  0  0  0
  6  7  2  0  0  0  0
  7  8  1  0  0  0  0
  8  1  1  0  0  0  0
  8  9  2  0  0  0  0
 11  5  1  0  0  0  0
 12  6  1  0  0  0  0
 13 14  1  0  0  0  0
 14 15  1  0  0  0  0
 14 16  1  0  0  0  0
 16 17  1  0  0  0  0
 18 16  1  0  0  0  0
 19 18  1  0  0  0  0
 20 18  1  0  0  0  0
 21 13  1  0  0  0  0
 21 20  1  0  0  0  0
M  END
>  <minimizedAffinity>
-3.61307716

$$$$
