
     RDKit          3D

 51 54  0  0  0  0  0  0  0  0999 V2000
   46.4411   32.5133   46.6824 C   0  0  2  0  0  0  0  0  0  0  0  0
   46.2637   31.0902   46.1879 C   0  0  0  0  0  0  0  0  0  0  0  0
   46.9414   30.1799   47.1935 C   0  0  0  0  0  0  0  0  0  0  0  0
   46.4931   30.4090   48.6118 C   0  0  0  0  0  0  0  0  0  0  0  0
   46.5188   31.8535   48.9932 C   0  0  0  0  0  0  0  0  0  0  0  0
   45.7829   32.6803   47.9975 C   0  0  2  0  0  0  0  0  0  0  0  0
   46.0531   33.5165   45.7061 C   0  0  0  0  0  0  0  0  0  0  0  0
   45.0070   34.4098   46.0562 C   0  0  0  0  0  0  0  0  0  0  0  0
   44.6215   35.3708   45.0953 C   0  0  0  0  0  0  0  0  0  0  0  0
   45.2858   35.3769   43.8824 N   0  0  0  0  0  0  0  0  0  0  0  0
   46.2790   34.4799   43.6333 C   0  0  0  0  0  0  0  0  0  0  0  0
   46.6661   33.5589   44.5241 N   0  0  0  0  0  0  0  0  0  0  0  0
   46.9258   34.5454   42.3181 C   0  0  0  0  0  0  0  0  0  0  0  0
   48.0256   35.2857   42.0922 C   0  0  0  0  0  0  0  0  0  0  0  0
   48.6319   35.3436   40.8432 C   0  0  0  0  0  0  0  0  0  0  0  0
   48.0691   34.6139   39.8322 C   0  0  0  0  0  0  0  0  0  0  0  0
   46.9526   33.8578   40.0472 C   0  0  0  0  0  0  0  0  0  0  0  0
   46.3773   33.8192   41.2850 N   0  0  0  0  0  0  0  0  0  0  0  0
   44.4111   32.2884   47.9094 N   0  0  0  0  0  0  0  0  0  0  0  0
   47.5542   32.6096   46.8147 H   0  0  0  0  0  0  0  0  0  0  0  0
   45.2493   30.8170   45.9228 H   0  0  0  0  0  0  0  0  0  0  0  0
   46.8663   30.9830   45.2439 H   0  0  0  0  0  0  0  0  0  0  0  0
   46.8892   29.1263   46.9328 H   0  0  0  0  0  0  0  0  0  0  0  0
   48.0268   30.4711   47.1558 H   0  0  0  0  0  0  0  0  0  0  0  0
   45.5377   29.9094   48.7890 H   0  0  0  0  0  0  0  0  0  0  0  0
   47.2563   29.8944   49.2523 H   0  0  0  0  0  0  0  0  0  0  0  0
   47.5987   32.1801   48.9412 H   0  0  0  0  0  0  0  0  0  0  0  0
   46.2250   31.9762   50.0371 H   0  0  0  0  0  0  0  0  0  0  0  0
   45.9353   33.7372   48.3015 H   0  0  0  0  0  0  0  0  0  0  0  0
   44.4748   34.4438   46.9652 H   0  0  0  0  0  0  0  0  0  0  0  0
   43.8447   36.0777   45.2814 H   0  0  0  0  0  0  0  0  0  0  0  0
   48.4052   35.8314   42.9455 H   0  0  0  0  0  0  0  0  0  0  0  0
   49.5141   35.9699   40.7660 H   0  0  0  0  0  0  0  0  0  0  0  0
   48.5505   34.6687   38.8688 H   0  0  0  0  0  0  0  0  0  0  0  0
   46.5007   33.2792   39.2591 H   0  0  0  0  0  0  0  0  0  0  0  0
   44.4198   31.2573   47.7196 H   0  0  0  0  0  0  0  0  0  0  0  0
   44.4668   34.1662   49.9347 H   0  0  0  0  0  0  0  0  0  0  0  0
   44.5862   33.1324   50.0037 N   0  0  0  0  0  0  0  0  0  0  0  0
   43.6709   32.4298   49.1489 C   0  0  2  0  0  0  0  0  0  0  0  0
   43.0822   31.2003   49.6993 C   0  0  1  0  0  0  0  0  0  0  0  0
   42.0342   31.3737   50.0870 H   0  0  0  0  0  0  0  0  0  0  0  0
   43.7822   30.6547   50.8535 N   0  0  0  0  0  0  0  0  0  0  0  0
   44.7300   30.3967   50.5661 H   0  0  0  0  0  0  0  0  0  0  0  0
   43.7422   31.7190   51.8527 C   0  0  0  0  0  0  0  0  0  0  0  0
   44.7081   32.7414   51.3433 C   0  0  0  0  0  0  0  0  0  0  0  0
   42.8421   33.1439   48.9192 H   0  0  0  0  0  0  0  0  0  0  0  0
   42.9546   30.3439   49.0061 H   0  0  0  0  0  0  0  0  0  0  0  0
   44.1070   31.3011   52.7946 H   0  0  0  0  0  0  0  0  0  0  0  0
   42.7193   32.1351   51.8883 H   0  0  0  0  0  0  0  0  0  0  0  0
   45.7289   32.2743   51.4625 H   0  0  0  0  0  0  0  0  0  0  0  0
   44.7305   33.5861   52.0923 H   0  0  0  0  0  0  0  0  0  0  0  0
  1  6  1  0
  2  1  1  0
  2  3  1  0
  3  4  1  0
  4  5  1  0
  6  5  1  0
  7  8  2  0
  7  1  1  0
  9  8  1  0
 10  9  2  0
 11 10  1  0
 11 12  2  0
 12  7  1  0
 13 11  1  0
 14 13  2  0
 15 14  1  0
 16 17  1  0
 16 15  2  0
 17 18  2  0
 18 13  1  0
 19  6  1  0
  1 20  1  1
  2 21  1  0
  2 22  1  0
  3 23  1  0
  3 24  1  0
  4 25  1  0
  4 26  1  0
  5 27  1  0
  5 28  1  0
  6 29  1  1
  8 30  1  0
  9 31  1  0
 14 32  1  0
 15 33  1  0
 16 34  1  0
 17 35  1  0
 19 36  1  0
 37 38  1  0
 38 39  1  0
 39 40  1  0
 40 41  1  1
 40 42  1  0
 42 43  1  0
 42 44  1  0
 44 45  1  0
 45 38  1  0
 39 46  1  6
 40 47  1  0
 44 48  1  0
 44 49  1  0
 45 50  1  0
 45 51  1  0
 19 39  1  0
M  ISO  8  20  13  21  13  22  13  23  13  24  13  25  13  26  13  27  13
M  ISO  8  28  13  29  13  30  14  31  14  32  14  33  14  34  14  35  14
M  ISO  4  36   5  37   5  41   8  43   5
M  END
>  <DihAtoms>  (1) 
5,18,38,37

>  <DihDeg>  (1) 
-171.4349968780827

$$$$
