
 OpenBabel03242523283D

 21 22  0  0  0  0  0  0  0  0999 V2000
   46.7140   32.8490   46.3770 C   0  0  0  0  0  0  0  0  0  0  0  0
   47.3940   32.1970   45.8110 H   0  0  0  0  0  0  0  0  0  0  0  0
   47.2570   33.3670   47.2090 H   0  0  0  0  0  0  0  0  0  0  0  0
   44.5430   35.4810   44.8840 C   0  0  0  0  0  0  0  0  0  0  0  0
   45.0500   35.5800   43.5870 C   0  0  0  0  0  0  0  0  0  0  0  0
   46.1210   34.7470   43.2490 C   0  0  0  0  0  0  0  0  0  0  0  0
   46.6220   33.8850   44.1810 N   0  0  0  0  0  0  0  0  0  0  0  0
   46.0920   33.8230   45.4390 C   0  0  0  0  0  0  0  0  0  0  0  0
   45.0720   34.6150   45.7670 N   0  0  0  0  0  0  0  0  0  0  0  0
   43.7100   36.1420   45.1170 H   0  0  0  0  0  0  0  0  0  0  0  0
   44.6600   36.2650   42.8320 H   0  0  0  0  0  0  0  0  0  0  0  0
   46.5540   34.7810   42.2570 H   0  0  0  0  0  0  0  0  0  0  0  0
   45.6610   32.0990   47.0420 N   0  0  0  0  0  0  0  0  0  0  0  0
   45.4750   32.4470   48.3890 C   0  0  0  0  0  0  0  0  0  0  0  0
   46.3290   33.1350   48.6640 H   0  0  0  0  0  0  0  0  0  0  0  0
   45.4450   31.3650   49.4010 C   0  0  0  0  0  0  0  0  0  0  0  0
   44.4520   31.3860   49.9210 H   0  0  0  0  0  0  0  0  0  0  0  0
   45.6400   30.0300   48.9310 N   0  0  0  0  0  0  0  0  0  0  0  0
   46.6810   29.9170   48.7530 H   0  0  0  0  0  0  0  0  0  0  0  0
   44.9840   29.8190   47.6410 C   0  0  0  0  0  0  0  0  0  0  0  0
   45.7400   30.7370   46.6770 C   0  0  0  0  0  0  0  0  0  0  0  0
  1 13  1  0  0  0  0
  1  3  1  0  0  0  0
  2  1  1  0  0  0  0
  4 10  1  0  0  0  0
  4  9  1  0  0  0  0
  5  4  2  0  0  0  0
  6  5  1  0  0  0  0
  6  7  2  0  0  0  0
  7  8  1  0  0  0  0
  8  9  2  0  0  0  0
  8  1  1  0  0  0  0
 11  5  1  0  0  0  0
 12  6  1  0  0  0  0
 13 14  1  0  0  0  0
 14 15  1  0  0  0  0
 14 16  1  0  0  0  0
 16 17  1  0  0  0  0
 18 16  1  0  0  0  0
 19 18  1  0  0  0  0
 20 18  1  0  0  0  0
 21 13  1  0  0  0  0
 21 20  1  0  0  0  0
M  END
>  <minimizedAffinity>
-4.49116993

>  <minimizedRMSD>
1.68071592

$$$$
