
 OpenBabel03252505333D

 30 32  0  0  0  0  0  0  0  0999 V2000
   46.5600   34.7850   42.0910 C   0  0  0  0  0  0  0  0  0  0  0  0
   47.8820   35.1850   42.0320 C   0  0  0  0  0  0  0  0  0  0  0  0
   48.6780   35.0020   40.9010 C   0  0  0  0  0  0  0  0  0  0  0  0
   48.1140   34.3900   39.7870 C   0  0  0  0  0  0  0  0  0  0  0  0
   46.8050   34.0030   39.8660 C   0  0  0  0  0  0  0  0  0  0  0  0
   46.0200   34.1870   40.9880 C   0  0  0  0  0  0  0  0  0  0  0  0
   48.3410   35.6680   42.9010 H   0  0  0  0  0  0  0  0  0  0  0  0
   49.6980   35.3510   40.9550 H   0  0  0  0  0  0  0  0  0  0  0  0
   48.8030   34.2960   38.9770 H   0  0  0  0  0  0  0  0  0  0  0  0
   46.5240   33.5560   38.9240 H   0  0  0  0  0  0  0  0  0  0  0  0
   44.4180   36.2340   44.8190 C   0  0  0  0  0  0  0  0  0  0  0  0
   45.0610   36.1130   43.5690 C   0  0  0  0  0  0  0  0  0  0  0  0
   45.8580   35.0140   43.3230 C   0  0  0  0  0  0  0  0  0  0  0  0
   45.9890   34.0850   44.3190 N   0  0  0  0  0  0  0  0  0  0  0  0
   45.3520   34.2390   45.5140 C   0  0  0  0  0  0  0  0  0  0  0  0
   44.5740   35.3070   45.7540 N   0  0  0  0  0  0  0  0  0  0  0  0
   45.5240   33.2680   46.5460 N   0  0  0  0  0  0  0  0  0  0  0  0
   43.7820   37.1020   45.0220 H   0  0  0  0  0  0  0  0  0  0  0  0
   44.9450   36.8500   42.8090 H   0  0  0  0  0  0  0  0  0  0  0  0
   45.6070   33.4800   47.5660 H   0  0  0  0  0  0  0  0  0  0  0  0
   45.5800   32.2310   46.3310 H   0  0  0  0  0  0  0  0  0  0  0  0
   44.6790   33.7630   40.9090 N   0  0  0  0  0  0  0  0  0  0  0  0
   44.3040   32.3870   41.1810 C   0  0  0  0  0  3  0  0  0  0  0  0
   43.5230   32.4190   42.0040 H   0  0  0  0  0  0  0  0  0  0  0  0
   43.6500   31.7280   40.0050 C   0  0  0  0  0  3  0  0  0  0  0  0
   43.0610   30.8650   40.4150 H   0  0  0  0  0  0  0  0  0  0  0  0
   42.6720   32.5840   39.3660 N   0  0  0  0  0  0  0  0  0  0  0  0
   43.0240   32.9910   38.4790 H   0  0  0  0  0  0  0  0  0  0  0  0
   42.3000   33.5980   40.3070 C   0  0  0  0  0  2  0  0  0  0  0  0
   43.4930   34.5170   40.5420 C   0  0  0  0  0  2  0  0  0  0  0  0
  1 13  1  0  0  0  0
  2  1  1  0  0  0  0
  2  7  1  0  0  0  0
  3  8  1  0  0  0  0
  3  2  2  0  0  0  0
  4  5  2  0  0  0  0
  4  3  1  0  0  0  0
  5  6  1  0  0  0  0
  6  1  2  0  0  0  0
  9  4  1  0  0  0  0
 10  5  1  0  0  0  0
 11 18  1  0  0  0  0
 11 16  1  0  0  0  0
 12 11  2  0  0  0  0
 13 12  1  0  0  0  0
 13 14  2  0  0  0  0
 14 15  1  0  0  0  0
 15 16  2  0  0  0  0
 15 17  1  0  0  0  0
 17 20  1  0  0  0  0
 19 12  1  0  0  0  0
 21 17  1  0  0  0  0
 22  6  1  0  0  0  0
 22 23  1  0  0  0  0
 23 24  1  0  0  0  0
 25 26  1  0  0  0  0
 25 23  1  0  0  0  0
 27 25  1  0  0  0  0
 27 29  1  0  0  0  0
 28 27  1  0  0  0  0
 29 30  1  0  0  0  0
 30 22  1  0  0  0  0
M  END
>  <minimizedAffinity>
-5.93332148

>  <minimizedRMSD>
1.23146951

$$$$
