REMARK  Name = 
REMARK  2 active torsions:
REMARK  status: ('A' for Active; 'I' for Inactive)
REMARK    1  A    between atoms: C_3  and  C_8
REMARK    2  A    between atoms: C_13  and  N_22
REMARK                            x       y       z     vdW  Elec       q    Type
REMARK                         _______ _______ _______ _____ _____    ______ ____
ROOT
ATOM      1  C   UNL     1      46.613  34.761  42.085  0.00  0.00    +0.000 A 
ATOM      2  C   UNL     1      47.857  35.352  41.964  0.00  0.00    +0.000 A 
ATOM      3  C   UNL     1      48.660  35.201  40.834  0.00  0.00    +0.000 A 
ATOM      4  C   UNL     1      48.186  34.421  39.785  0.00  0.00    +0.000 A 
ATOM      5  C   UNL     1      46.953  33.846  39.924  0.00  0.00    +0.000 A 
ATOM      6  C   UNL     1      46.161  33.999  41.045  0.00  0.00    +0.000 A 
ATOM      7  H   UNL     1      48.245  35.969  42.782  0.00  0.00    +0.000 HD
ATOM      8  H   UNL     1      49.615  35.705  40.837  0.00  0.00    +0.000 HD
ATOM      9  H   UNL     1      48.873  34.368  38.969  0.00  0.00    +0.000 HD
ATOM     10  H   UNL     1      46.735  33.286  39.027  0.00  0.00    +0.000 HD
ENDROOT
BRANCH   1  13
ATOM     11  C   UNL     1      44.417  36.173  44.789  0.00  0.00    +0.000 A 
ATOM     12  C   UNL     1      45.072  36.060  43.544  0.00  0.00    +0.000 A 
ATOM     13  C   UNL     1      45.897  34.980  43.311  0.00  0.00    +0.000 A 
ATOM     14  N   UNL     1      46.043  34.060  44.313  0.00  0.00    +0.000 NA
ATOM     15  C   UNL     1      45.394  34.205  45.502  0.00  0.00    +0.000 A 
ATOM     16  N   UNL     1      44.589  35.255  45.731  0.00  0.00    +0.000 NA
ATOM     17  N   UNL     1      45.582  33.244  46.541  0.00  0.00    +0.000 N 
ATOM     18  H   UNL     1      43.759  37.026  44.982  0.00  0.00    +0.000 HD
ATOM     19  H   UNL     1      44.944  36.790  42.779  0.00  0.00    +0.000 HD
ATOM     20  H   UNL     1      45.653  33.464  47.561  0.00  0.00    +0.000 HD
ATOM     21  H   UNL     1      45.665  32.208  46.333  0.00  0.00    +0.000 HD
ENDBRANCH   1  13
BRANCH   6  22
ATOM     22  N   UNL     1      44.901  33.370  41.031  0.00  0.00    +0.000 N 
ATOM     23  C   UNL     1      44.776  31.925  41.015  0.00  0.00    +0.000 C 
ATOM     24  H   UNL     1      44.137  31.642  41.909  0.00  0.00    +0.000 HD
ATOM     25  C   UNL     1      44.048  31.425  39.804  0.00  0.00    +0.000 C 
ATOM     26  H   UNL     1      43.662  30.404  40.068  0.00  0.00    +0.000 HD
ATOM     27  N   UNL     1      42.868  32.209  39.505  0.00  0.00    +0.000 NA
ATOM     28  H   UNL     1      43.015  32.851  38.703  0.00  0.00    +0.000 HD
ATOM     29  C   UNL     1      42.506  32.920  40.696  0.00  0.00    +0.000 C 
ATOM     30  C   UNL     1      43.574  33.964  40.995  0.00  0.00    +0.000 C 
ENDBRANCH   6  22
TORSDOF 2
