
 OpenBabel03242510083D

 28 30  0  0  0  0  0  0  0  0999 V2000
   44.7060   32.9970   41.1720 Br  0  0  0  0  0  0  0  0  0  0  0  0
   46.3550   33.9210   40.9120 C   0  0  0  0  0  0  0  0  0  0  0  0
   46.8570   34.7220   41.9030 C   0  0  0  0  0  0  0  0  0  0  0  0
   48.0720   35.4110   41.7290 C   0  0  0  0  0  0  0  0  0  0  0  0
   48.7340   35.2580   40.5430 C   0  0  0  0  0  0  0  0  0  0  0  0
   48.1870   34.4390   39.5750 C   0  0  0  0  0  0  0  0  0  0  0  0
   47.0160   33.7650   39.7220 C   0  0  0  0  0  0  0  0  0  0  0  0
   48.4800   36.0410   42.4930 H   0  0  0  0  0  0  0  0  0  0  0  0
   49.6690   35.7730   40.3750 H   0  0  0  0  0  0  0  0  0  0  0  0
   48.7600   34.3560   38.6500 H   0  0  0  0  0  0  0  0  0  0  0  0
   45.6250   34.0520   45.2800 C   0  0  0  0  0  0  0  0  0  0  0  0
   44.7100   35.1030   45.5190 C   0  0  0  0  0  0  0  0  0  0  0  0
   44.5400   36.0290   44.4900 C   0  0  0  0  0  0  0  0  0  0  0  0
   45.2400   35.8850   43.3420 N   0  0  0  0  0  0  0  0  0  0  0  0
   46.1170   34.8540   43.1490 C   0  0  0  0  0  0  0  0  0  0  0  0
   46.2880   33.9520   44.1370 N   0  0  0  0  0  0  0  0  0  0  0  0
   45.7740   33.3180   46.0700 H   0  0  0  0  0  0  0  0  0  0  0  0
   44.1690   35.1790   46.4580 H   0  0  0  0  0  0  0  0  0  0  0  0
   43.8550   36.8570   44.6050 H   0  0  0  0  0  0  0  0  0  0  0  0
   46.5590   32.9520   38.6480 N   0  0  0  0  0  0  0  0  0  0  0  0
   45.6340   33.3030   37.5850 C   0  0  0  0  0  0  0  0  0  0  0  0
   44.9460   34.0680   37.9990 H   0  0  0  0  0  0  0  0  0  0  0  0
   44.7870   32.1230   37.1700 C   0  0  0  0  0  0  0  0  0  0  0  0
   44.2290   31.7900   38.0690 H   0  0  0  0  0  0  0  0  0  0  0  0
   45.5900   31.0560   36.6030 N   0  0  0  0  0  0  0  0  0  0  0  0
   45.2100   30.1520   36.9330 H   0  0  0  0  0  0  0  0  0  0  0  0
   46.9760   31.2680   37.0060 C   0  0  0  0  0  0  0  0  0  0  0  0
   47.0170   31.5630   38.5020 C   0  0  0  0  0  0  0  0  0  0  0  0
  2  1  1  0  0  0  0
  2  3  1  0  0  0  0
  3 15  1  0  0  0  0
  4  3  2  0  0  0  0
  4  8  1  0  0  0  0
  5  4  1  0  0  0  0
  6  7  1  0  0  0  0
  6  5  2  0  0  0  0
  7  2  2  0  0  0  0
  9  5  1  0  0  0  0
 10  6  1  0  0  0  0
 11 12  1  0  0  0  0
 11 17  1  0  0  0  0
 12 18  1  0  0  0  0
 13 19  1  0  0  0  0
 13 12  2  0  0  0  0
 14 13  1  0  0  0  0
 15 14  2  0  0  0  0
 15 16  1  0  0  0  0
 16 11  2  0  0  0  0
 20  7  1  0  0  0  0
 21 22  1  0  0  0  0
 21 20  1  0  0  0  0
 23 21  1  0  0  0  0
 23 24  1  0  0  0  0
 25 26  1  0  0  0  0
 25 27  1  0  0  0  0
 25 23  1  0  0  0  0
 27 28  1  0  0  0  0
 28 20  1  0  0  0  0
M  END
>  <minimizedAffinity>
-5.36608458

>  <minimizedRMSD>
0.524724543

$$$$
