
     RDKit          3D

 36 38  0  0  0  0  0  0  0  0999 V2000
   44.4167   36.1730   44.7895 C   0  0  0  0  0  0  0  0  0  0  0  0
   45.0720   36.0596   43.5445 C   0  0  0  0  0  0  0  0  0  0  0  0
   45.8971   34.9796   43.3111 C   0  0  0  0  0  0  0  0  0  0  0  0
   46.0426   34.0600   44.3131 N   0  0  0  0  0  0  0  0  0  0  0  0
   45.3940   34.2051   45.5020 C   0  0  0  0  0  0  0  0  0  0  0  0
   44.5888   35.2546   45.7306 N   0  0  0  0  0  0  0  0  0  0  0  0
   45.5823   33.2440   46.5408 N   0  0  0  0  0  0  0  0  0  0  0  0
   46.6132   34.7607   42.0847 C   0  0  0  0  0  0  0  0  0  0  0  0
   47.8574   35.3518   41.9635 C   0  0  0  0  0  0  0  0  0  0  0  0
   48.6597   35.2013   40.8344 C   0  0  0  0  0  0  0  0  0  0  0  0
   48.1857   34.4214   39.7854 C   0  0  0  0  0  0  0  0  0  0  0  0
   46.9531   33.8463   39.9244 C   0  0  0  0  0  0  0  0  0  0  0  0
   46.1613   33.9987   41.0449 C   0  0  0  0  0  0  0  0  0  0  0  0
   43.7594   37.0265   44.9824 H   0  0  0  0  0  0  0  0  0  0  0  0
   44.9443   36.7898   42.7794 H   0  0  0  0  0  0  0  0  0  0  0  0
   45.6526   33.4644   47.5607 H   0  0  0  0  0  0  0  0  0  0  0  0
   45.6654   32.2084   46.3331 H   0  0  0  0  0  0  0  0  0  0  0  0
   48.2450   35.9688   42.7815 H   0  0  0  0  0  0  0  0  0  0  0  0
   49.6154   35.7045   40.8369 H   0  0  0  0  0  0  0  0  0  0  0  0
   48.8729   34.3677   38.9690 H   0  0  0  0  0  0  0  0  0  0  0  0
   46.7354   33.2861   39.0266 H   0  0  0  0  0  0  0  0  0  0  0  0
   44.9005   33.3703   41.0311 N   0  0  0  0  0  0  0  0  0  0  0  0
   44.6192   32.2587   40.1417 C   0  0  2  0  0  0  0  0  0  0  0  0
   44.2703   31.3985   40.7950 H   0  0  0  0  0  0  0  0  0  0  0  0
   43.4935   32.5511   39.1966 C   0  0  2  0  0  0  0  0  0  0  0  0
   43.1013   31.5548   38.8562 H   0  0  0  0  0  0  0  0  0  0  0  0
   42.3740   33.1937   39.8517 N   0  0  0  0  0  0  0  0  0  0  0  0
   42.3276   34.2098   39.6459 H   0  0  0  0  0  0  0  0  0  0  0  0
   42.4897   32.9404   41.2578 C   0  0  0  0  0  0  0  0  0  0  0  0
   43.7057   33.6829   41.7971 C   0  0  0  0  0  0  0  0  0  0  0  0
   45.4867   31.8813   39.5899 H   0  0  0  0  0  0  0  0  0  0  0  0
   43.7508   33.1185   38.3050 H   0  0  0  0  0  0  0  0  0  0  0  0
   42.4689   31.8775   41.4821 H   0  0  0  0  0  0  0  0  0  0  0  0
   41.6037   33.4727   41.7313 H   0  0  0  0  0  0  0  0  0  0  0  0
   43.4265   34.7583   41.6715 H   0  0  0  0  0  0  0  0  0  0  0  0
   43.8303   33.3479   42.8221 H   0  0  0  0  0  0  0  0  0  0  0  0
  1  6  2  0
  2  1  1  0
  3  2  2  0
  3  4  1  0
  4  5  2  0
  5  6  1  0
  5  7  1  0
  8  3  1  0
  9  8  2  0
 10  9  1  0
 11 12  1  0
 11 10  2  0
 12 13  2  0
 13  8  1  0
  1 14  1  0
  2 15  1  0
  7 16  1  0
  7 17  1  0
  9 18  1  0
 10 19  1  0
 11 20  1  0
 12 21  1  0
 22 23  1  0
 23 24  1  1
 23 25  1  0
 25 26  1  6
 25 27  1  0
 27 28  1  0
 27 29  1  0
 29 30  1  0
 30 22  1  0
 23 31  1  0
 25 32  1  0
 29 33  1  0
 29 34  1  0
 30 35  1  0
 30 36  1  0
 13 22  1  0
M  ISO  8  14  14  15  14  18  14  19  14  20  14  21  14  24   8  26   8
M  ISO  1  28   5
M  END
>  <DihAtoms>  (1) 
11,12,21,22

>  <DihDeg>  (1) 
21.099695480090976

$$$$
