
 OpenBabel03242518453D

 45 48  0  0  1  0  0  0  0  0999 V2000
   47.4050   32.9670   44.3560 C   0  0  2  0  0  0  0  0  0  0  0  0
   47.3510   33.3720   42.9260 C   0  0  1  0  0  0  0  0  0  0  0  0
   47.3170   32.1620   41.9880 C   0  0  0  0  0  0  0  0  0  0  0  0
   48.4370   31.4130   42.3610 O   0  0  0  0  0  0  0  0  0  0  0  0
   48.2380   30.7730   43.5640 C   0  0  0  0  0  0  0  0  0  0  0  0
   47.2410   31.4390   44.4590 C   0  0  1  0  0  0  0  0  0  0  0  0
   48.3790   33.2100   44.7870 H   0  0  0  0  0  0  0  0  0  0  0  0
   48.2640   33.9760   42.6760 H   0  0  0  0  0  0  0  0  0  0  0  0
   46.3850   31.6080   42.0700 H   0  0  0  0  0  0  0  0  0  0  0  0
   47.4640   32.5030   40.9420 H   0  0  0  0  0  0  0  0  0  0  0  0
   47.8450   29.7520   43.3120 H   0  0  0  0  0  0  0  0  0  0  0  0
   49.1930   30.6060   44.0790 H   0  0  0  0  0  0  0  0  0  0  0  0
   46.1900   31.2590   44.1470 H   0  0  0  0  0  0  0  0  0  0  0  0
   45.0030   36.1730   42.7440 C   0  0  0  0  0  0  0  0  0  0  0  0
   43.9900   35.7210   41.8420 C   0  0  0  0  0  0  0  0  0  0  0  0
   44.1740   34.4150   41.3170 C   0  0  0  0  0  0  0  0  0  0  0  0
   45.2600   33.6990   41.6880 N   0  0  0  0  0  0  0  0  0  0  0  0
   46.1820   34.1850   42.5450 C   0  0  0  0  0  0  0  0  0  0  0  0
   46.0540   35.4260   43.0750 N   0  0  0  0  0  0  0  0  0  0  0  0
   43.1430   36.2970   41.5610 H   0  0  0  0  0  0  0  0  0  0  0  0
   43.4760   33.9810   40.6360 H   0  0  0  0  0  0  0  0  0  0  0  0
   44.8350   37.4220   43.2520 O   0  0  0  0  0  0  0  0  0  0  0  0
   45.4030   37.7610   44.0280 H   0  0  0  0  0  0  0  0  0  0  0  0
   46.4170   33.5600   45.1460 O   0  0  0  0  0  0  0  0  0  0  0  0
   45.5220   33.2720   44.8330 H   0  0  0  0  0  0  0  0  0  0  0  0
   47.3870   31.1150   45.7880 O   0  0  0  0  0  0  0  0  0  0  0  0
   46.9650   28.4450   45.7450 F   0  0  0  0  0  0  0  0  0  0  0  0
   46.4430   29.2960   46.6520 C   0  0  0  0  0  0  0  0  0  0  0  0
   46.6050   30.6620   46.7520 C   0  0  0  0  0  0  0  0  0  0  0  0
   45.9380   31.2600   47.8080 C   0  0  0  0  0  0  0  0  0  0  0  0
   45.1520   30.6260   48.7370 C   0  0  0  0  0  0  0  0  0  0  0  0
   45.0250   29.2750   48.5930 C   0  0  0  0  0  0  0  0  0  0  0  0
   45.6500   28.5820   47.5710 C   0  0  0  0  0  0  0  0  0  0  0  0
   46.1150   32.3500   47.8220 H   0  0  0  0  0  0  0  0  0  0  0  0
   44.6910   31.2240   49.5110 H   0  0  0  0  0  0  0  0  0  0  0  0
   44.3980   28.7590   49.3320 H   0  0  0  0  0  0  0  0  0  0  0  0
   45.4190   27.1760   47.5570 N   0  0  0  0  0  0  0  0  0  0  0  0
   46.3650   26.1650   48.0380 C   0  0  0  0  0  0  0  0  0  0  0  0
   46.9350   25.7040   47.2160 H   0  0  0  0  0  0  0  0  0  0  0  0
   45.6720   25.1620   48.9320 C   0  0  0  0  0  0  0  0  0  0  0  0
   46.3200   24.2600   48.9730 H   0  0  0  0  0  0  0  0  0  0  0  0
   44.3860   24.7720   48.4600 N   0  0  0  0  0  0  0  0  0  0  0  0
   44.3660   24.0060   47.7820 H   0  0  0  0  0  0  0  0  0  0  0  0
   43.5150   25.8610   48.1320 C   0  0  0  0  0  0  0  0  0  0  0  0
   44.1590   26.6790   47.0350 C   0  0  0  0  0  0  0  0  0  0  0  0
  1  6  1  0  0  0  0
  1  7  1  1  0  0  0
  1 24  1  0  0  0  0
  2  8  1  6  0  0  0
  2  1  1  0  0  0  0
  3  9  1  0  0  0  0
  3  4  1  0  0  0  0
  3  2  1  0  0  0  0
  4  5  1  0  0  0  0
  5 12  1  0  0  0  0
  5  6  1  0  0  0  0
  6 13  1  6  0  0  0
  6 26  1  0  0  0  0
 10  3  1  0  0  0  0
 11  5  1  0  0  0  0
 14 19  1  0  0  0  0
 14 22  1  0  0  0  0
 15 14  2  0  0  0  0
 16 17  2  0  0  0  0
 16 15  1  0  0  0  0
 17 18  1  0  0  0  0
 18  2  1  0  0  0  0
 18 19  2  0  0  0  0
 20 15  1  0  0  0  0
 21 16  1  0  0  0  0
 22 23  1  0  0  0  0
 25 24  1  0  0  0  0
 26 29  1  0  0  0  0
 27 28  1  0  0  0  0
 28 29  2  0  0  0  0
 28 33  1  0  0  0  0
 29 30  1  0  0  0  0
 30 34  1  0  0  0  0
 30 31  2  0  0  0  0
 31 35  1  0  0  0  0
 32 31  1  0  0  0  0
 32 36  1  0  0  0  0
 33 32  2  0  0  0  0
 37 33  1  0  0  0  0
 37 38  1  0  0  0  0
 38 40  1  0  0  0  0
 39 38  1  0  0  0  0
 40 41  1  0  0  0  0
 42 40  1  0  0  0  0
 43 42  1  0  0  0  0
 44 42  1  0  0  0  0
 45 37  1  0  0  0  0
 45 44  1  0  0  0  0
M  END
>  <minimizedAffinity>
-5.67572117

>  <minimizedRMSD>
1.54801619

$$$$
