
 OpenBabel03242517103D

 41 44  0  0  1  0  0  0  0  0999 V2000
   46.0420   33.8220   43.2040 C   0  0  2  0  0  0  0  0  0  0  0  0
   45.2310   34.8760   42.5320 C   0  0  2  0  0  0  0  0  0  0  0  0
   45.0690   36.0980   43.3590 C   0  0  0  0  0  0  0  0  0  0  0  0
   44.5730   35.8470   44.7580 C   0  0  0  0  0  0  0  0  0  0  0  0
   45.0780   34.5700   45.3630 C   0  0  0  0  0  0  0  0  0  0  0  0
   46.3230   34.0640   44.6580 C   0  0  0  0  0  0  0  0  0  0  0  0
   45.4780   32.8450   43.1300 H   0  0  0  0  0  0  0  0  0  0  0  0
   45.7530   35.1760   41.6000 H   0  0  0  0  0  0  0  0  0  0  0  0
   44.3520   36.7870   42.8560 H   0  0  0  0  0  0  0  0  0  0  0  0
   46.0140   36.6480   43.4290 H   0  0  0  0  0  0  0  0  0  0  0  0
   44.7350   36.7460   45.3720 H   0  0  0  0  0  0  0  0  0  0  0  0
   43.4600   35.7250   44.6690 H   0  0  0  0  0  0  0  0  0  0  0  0
   44.2980   33.7900   45.4790 H   0  0  0  0  0  0  0  0  0  0  0  0
   45.4020   34.8290   46.4010 H   0  0  0  0  0  0  0  0  0  0  0  0
   47.1400   34.7260   44.9020 H   0  0  0  0  0  0  0  0  0  0  0  0
   46.5110   33.0500   45.1230 H   0  0  0  0  0  0  0  0  0  0  0  0
   42.9570   35.2960   41.5110 C   0  0  1  0  0  0  0  0  0  0  0  0
   43.8880   34.3150   42.1190 C   0  0  1  0  0  0  0  0  0  0  0  0
   44.1110   33.2900   41.2080 O   0  0  0  0  0  0  0  0  0  0  0  0
   43.7700   33.7520   39.9490 C   0  0  0  0  0  0  0  0  0  0  0  0
   42.5040   34.5350   40.2560 C   0  0  2  0  0  0  0  0  0  0  0  0
   43.4020   36.2570   41.2120 H   0  0  0  0  0  0  0  0  0  0  0  0
   43.4210   33.8790   43.0300 H   0  0  0  0  0  0  0  0  0  0  0  0
   43.5840   32.8690   39.3080 H   0  0  0  0  0  0  0  0  0  0  0  0
   44.5630   34.4160   39.6070 H   0  0  0  0  0  0  0  0  0  0  0  0
   41.6740   33.8600   40.4770 H   0  0  0  0  0  0  0  0  0  0  0  0
   41.8440   35.5640   42.2790 O   0  0  0  0  0  0  0  0  0  0  0  0
   41.7650   34.8090   42.9340 H   0  0  0  0  0  0  0  0  0  0  0  0
   42.1960   35.4510   39.2660 O   0  0  0  0  0  0  0  0  0  0  0  0
   40.8510   35.6330   39.0650 C   0  0  0  0  0  0  0  0  0  0  0  0
   40.3460   35.0210   37.7480 C   0  0  0  0  0  0  0  0  0  0  0  0
   39.8860   34.5150   39.0620 C   0  0  0  0  0  0  0  0  0  0  0  0
   47.3230   33.5730   42.5150 C   0  0  0  0  0  0  0  0  0  0  0  0
   48.3930   34.3490   42.9630 C   0  0  0  0  0  0  0  0  0  0  0  0
   49.6630   34.2010   42.3870 C   0  0  0  0  0  0  0  0  0  0  0  0
   49.7580   33.2540   41.3730 N   0  0  0  0  0  0  0  0  0  0  0  0
   48.6960   32.5210   40.9690 C   0  0  0  0  0  0  0  0  0  0  0  0
   47.4740   32.6760   41.5340 N   0  0  0  0  0  0  0  0  0  0  0  0
   48.4730   35.1140   43.7170 H   0  0  0  0  0  0  0  0  0  0  0  0
   50.5580   34.7170   42.6250 H   0  0  0  0  0  0  0  0  0  0  0  0
   48.9010   31.8240   40.1750 H   0  0  0  0  0  0  0  0  0  0  0  0
  1  7  1  6  0  0  0
  1  6  1  0  0  0  0
  2  8  1  6  0  0  0
  2  1  1  0  0  0  0
  2  3  1  0  0  0  0
  3 10  1  0  0  0  0
  3  4  1  0  0  0  0
  4  5  1  0  0  0  0
  4 11  1  0  0  0  0
  5 13  1  0  0  0  0
  5 14  1  0  0  0  0
  6 15  1  0  0  0  0
  6 16  1  0  0  0  0
  6  5  1  0  0  0  0
  9  3  1  0  0  0  0
 12  4  1  0  0  0  0
 17 22  1  6  0  0  0
 17 18  1  0  0  0  0
 17 27  1  0  0  0  0
 18  2  1  0  0  0  0
 18 23  1  1  0  0  0
 19 18  1  0  0  0  0
 20 21  1  0  0  0  0
 20 19  1  0  0  0  0
 21 26  1  1  0  0  0
 21 17  1  0  0  0  0
 24 20  1  0  0  0  0
 25 20  1  0  0  0  0
 27 28  1  0  0  0  0
 29 21  1  0  0  0  0
 30 29  1  0  0  0  0
 31 32  1  0  0  0  0
 31 30  1  0  0  0  0
 32 30  1  0  0  0  0
 33 34  1  0  0  0  0
 33  1  1  0  0  0  0
 34 39  1  0  0  0  0
 35 40  1  0  0  0  0
 35 34  2  0  0  0  0
 36 35  1  0  0  0  0
 37 36  2  0  0  0  0
 37 38  1  0  0  0  0
 38 33  2  0  0  0  0
 41 37  1  0  0  0  0
M  END
>  <minimizedAffinity>
-6.12350368

>  <minimizedRMSD>
0.549005568

$$$$
