
     RDKit          3D

 20 21  0  0  0  0  0  0  0  0999 V2000
   44.5658   36.0060   44.4914 C   0  0  0  0  0  0  0  0  0  0  0  0
   45.3048   35.9221   43.2974 C   0  0  0  0  0  0  0  0  0  0  0  0
   46.1895   34.8581   43.1792 C   0  0  0  0  0  0  0  0  0  0  0  0
   46.3021   33.9653   44.1947 N   0  0  0  0  0  0  0  0  0  0  0  0
   45.5737   34.0803   45.3274 C   0  0  0  0  0  0  0  0  0  0  0  0
   44.7110   35.1057   45.4593 N   0  0  0  0  0  0  0  0  0  0  0  0
   46.9551   34.7776   41.9335 C   0  0  0  0  0  0  0  0  0  0  0  0
   43.8588   36.8135   44.6441 H   0  0  0  0  0  0  0  0  0  0  0  0
   45.1331   36.6809   42.5689 H   0  0  0  0  0  0  0  0  0  0  0  0
   45.6334   33.3934   46.1565 H   0  0  0  0  0  0  0  0  0  0  0  0
   47.4902   35.7302   41.7590 H   0  0  0  0  0  0  0  0  0  0  0  0
   46.2033   34.7143   41.1036 H   0  0  0  0  0  0  0  0  0  0  0  0
   47.8636   33.5849   41.9479 C   0  0  0  0  0  0  0  0  0  0  0  0
   48.1391   32.9909   40.5842 C   0  0  0  0  0  0  0  0  0  0  0  0
   49.2377   33.6461   41.4039 C   0  0  0  0  0  0  0  0  0  0  0  0
   47.6866   32.8836   42.7952 H   0  0  0  0  0  0  0  0  0  0  0  0
   48.1657   31.8831   40.4515 H   0  0  0  0  0  0  0  0  0  0  0  0
   47.8445   33.5695   39.6867 H   0  0  0  0  0  0  0  0  0  0  0  0
   49.7008   34.5726   41.0228 H   0  0  0  0  0  0  0  0  0  0  0  0
   49.9741   32.9234   41.8131 H   0  0  0  0  0  0  0  0  0  0  0  0
  1  6  2  0
  2  1  1  0
  3  2  2  0
  3  4  1  0
  4  5  2  0
  5  6  1  0
  7  3  1  0
  1  8  1  0
  2  9  1  0
  5 10  1  0
  7 11  1  0
  7 12  1  0
 13 14  1  0
 14 15  1  0
 15 13  1  0
 13 16  1  0
 14 17  1  0
 14 18  1  0
 15 19  1  0
 15 20  1  0
  7 13  1  0
M  ISO  5   8  14   9  14  10  14  11   8  12   8
M  END
>  <DihAtoms>  (1) 
2,6,12,13

>  <DihDeg>  (1) 
60.000894131324024

$$$$
