
 OpenBabel03242520443D

 16 17  0  0  0  0  0  0  0  0999 V2000
   44.9050   35.1420   44.1320 C   0  0  0  0  0  0  0  0  0  0  0  0
   45.6820   35.3970   42.9990 C   0  0  0  0  0  0  0  0  0  0  0  0
   46.8800   34.6780   42.8690 C   0  0  0  0  0  0  0  0  0  0  0  0
   47.2230   33.7810   43.8350 N   0  0  0  0  0  0  0  0  0  0  0  0
   46.4320   33.5760   44.9110 C   0  0  0  0  0  0  0  0  0  0  0  0
   45.2920   34.2540   45.0430 N   0  0  0  0  0  0  0  0  0  0  0  0
   43.6890   35.8490   44.2970 N   0  0  0  0  0  0  0  0  0  0  0  0
   45.3350   36.1200   42.2890 H   0  0  0  0  0  0  0  0  0  0  0  0
   46.8370   32.8420   45.5790 H   0  0  0  0  0  0  0  0  0  0  0  0
   43.2740   36.2610   45.1770 H   0  0  0  0  0  0  0  0  0  0  0  0
   42.9510   36.1160   43.6070 H   0  0  0  0  0  0  0  0  0  0  0  0
   47.6610   34.9630   41.6880 C   0  0  0  0  0  0  0  0  0  0  0  0
   48.6230   35.7660   41.6400 O   0  0  0  0  0  0  0  0  0  0  0  0
   47.3470   34.2850   40.4010 C   0  0  0  0  0  0  0  0  0  0  0  0
   48.2170   33.2660   39.7970 C   0  0  0  0  0  0  0  0  0  0  0  0
   48.3530   34.6570   39.3000 C   0  0  0  0  0  0  0  0  0  0  0  0
  1  7  1  0  0  0  0
  1  6  1  0  0  0  0
  2  1  2  0  0  0  0
  3  2  1  0  0  0  0
  3  4  2  0  0  0  0
  4  5  1  0  0  0  0
  5  6  2  0  0  0  0
  5  9  1  0  0  0  0
  7 10  1  0  0  0  0
  8  2  1  0  0  0  0
 11  7  1  0  0  0  0
 12  3  1  0  0  0  0
 13 12  2  0  0  0  0
 14 12  1  0  0  0  0
 15 14  1  0  0  0  0
 16 15  1  0  0  0  0
 16 14  1  0  0  0  0
M  END
>  <minimizedAffinity>
-4.45292187

>  <minimizedRMSD>
0.146714762

$$$$
