
 OpenBabel03252500403D

 15 16  0  0  0  0  0  0  0  0999 V2000
   37.5650   30.2850   41.3590 C   0  0  0  0  0  0  0  0  0  0  0  0
   36.7880   31.1640   40.6070 C   0  0  0  0  0  0  0  0  0  0  0  0
   37.3240   32.4130   40.2600 C   0  0  0  0  0  0  0  0  0  0  0  0
   38.5790   32.6890   40.6800 N   0  0  0  0  0  0  0  0  0  0  0  0
   39.3150   31.8000   41.4180 C   0  0  0  0  0  0  0  0  0  0  0  0
   38.8120   30.5960   41.7590 N   0  0  0  0  0  0  0  0  0  0  0  0
   35.7840   30.9600   40.2630 H   0  0  0  0  0  0  0  0  0  0  0  0
   36.7680   33.1190   39.6860 H   0  0  0  0  0  0  0  0  0  0  0  0
   40.2840   32.1640   41.6710 H   0  0  0  0  0  0  0  0  0  0  0  0
   36.9660   28.9620   41.7140 C   0  0  0  0  0  0  0  0  0  0  0  0
   37.3710   28.2380   40.9810 H   0  0  0  0  0  0  0  0  0  0  0  0
   35.8620   29.0630   41.5480 H   0  0  0  0  0  0  0  0  0  0  0  0
   37.3180   28.6100   43.1340 C   0  0  0  0  0  3  0  0  0  0  0  0
   36.5760   27.4090   43.6790 C   0  0  0  0  0  2  0  0  0  0  0  0
   38.0750   27.3770   43.4360 C   0  0  0  0  0  2  0  0  0  0  0  0
  1 10  1  0  0  0  0
  1  6  1  0  0  0  0
  2  1  2  0  0  0  0
  3  2  1  0  0  0  0
  3  4  2  0  0  0  0
  4  5  1  0  0  0  0
  5  9  1  0  0  0  0
  5  6  2  0  0  0  0
  7  2  1  0  0  0  0
  8  3  1  0  0  0  0
 10 13  1  0  0  0  0
 11 10  1  0  0  0  0
 12 10  1  0  0  0  0
 13 15  1  0  0  0  0
 13 14  1  0  0  0  0
 15 14  1  0  0  0  0
M  END
>  <minimizedAffinity>
-3.4709022

$$$$

 OpenBabel03252500403D

 15 16  0  0  0  0  0  0  0  0999 V2000
   36.9090   29.8530   41.4800 C   0  0  0  0  0  0  0  0  0  0  0  0
   36.2510   28.6250   41.4710 C   0  0  0  0  0  0  0  0  0  0  0  0
   36.7610   27.5790   42.2560 C   0  0  0  0  0  0  0  0  0  0  0  0
   37.8740   27.8320   42.9810 N   0  0  0  0  0  0  0  0  0  0  0  0
   38.4950   29.0520   42.9660 C   0  0  0  0  0  0  0  0  0  0  0  0
   38.0160   30.0660   42.2160 N   0  0  0  0  0  0  0  0  0  0  0  0
   35.3620   28.4050   40.8980 H   0  0  0  0  0  0  0  0  0  0  0  0
   36.2920   26.6210   42.2820 H   0  0  0  0  0  0  0  0  0  0  0  0
   39.3580   29.0930   43.5890 H   0  0  0  0  0  0  0  0  0  0  0  0
   36.3430   30.9470   40.6340 C   0  0  0  0  0  0  0  0  0  0  0  0
   35.6950   31.5450   41.3030 H   0  0  0  0  0  0  0  0  0  0  0  0
   35.7000   30.4480   39.8630 H   0  0  0  0  0  0  0  0  0  0  0  0
   37.4610   31.7560   40.0330 C   0  0  0  0  0  3  0  0  0  0  0  0
   37.3120   32.0180   38.5500 C   0  0  0  0  0  2  0  0  0  0  0  0
   37.2230   33.1390   39.5720 C   0  0  0  0  0  2  0  0  0  0  0  0
  1  6  1  0  0  0  0
  2  1  2  0  0  0  0
  2  3  1  0  0  0  0
  3  8  1  0  0  0  0
  3  4  2  0  0  0  0
  5  4  1  0  0  0  0
  5  9  1  0  0  0  0
  6  5  2  0  0  0  0
  7  2  1  0  0  0  0
 10 11  1  0  0  0  0
 10  1  1  0  0  0  0
 12 10  1  0  0  0  0
 13 10  1  0  0  0  0
 14 15  1  0  0  0  0
 14 13  1  0  0  0  0
 15 13  1  0  0  0  0
M  END
>  <minimizedAffinity>
-3.45929527

$$$$

 OpenBabel03252500403D

 15 16  0  0  0  0  0  0  0  0999 V2000
   36.8940   29.8150   41.5110 C   0  0  0  0  0  0  0  0  0  0  0  0
   38.1160   29.9870   42.1600 C   0  0  0  0  0  0  0  0  0  0  0  0
   38.6530   28.9130   42.8840 C   0  0  0  0  0  0  0  0  0  0  0  0
   37.9430   27.7620   42.9080 N   0  0  0  0  0  0  0  0  0  0  0  0
   36.7450   27.6290   42.2580 C   0  0  0  0  0  0  0  0  0  0  0  0
   36.2170   28.6530   41.5580 N   0  0  0  0  0  0  0  0  0  0  0  0
   38.6960   30.8990   42.1520 H   0  0  0  0  0  0  0  0  0  0  0  0
   39.5840   28.9960   43.3970 H   0  0  0  0  0  0  0  0  0  0  0  0
   36.3100   26.6630   42.3710 H   0  0  0  0  0  0  0  0  0  0  0  0
   36.3470   30.9780   40.7470 C   0  0  0  0  0  0  0  0  0  0  0  0
   35.8010   31.5970   41.4850 H   0  0  0  0  0  0  0  0  0  0  0  0
   35.6110   30.5550   40.0160 H   0  0  0  0  0  0  0  0  0  0  0  0
   37.4730   31.7250   40.0840 C   0  0  0  0  0  3  0  0  0  0  0  0
   37.2770   31.9560   38.6010 C   0  0  0  0  0  2  0  0  0  0  0  0
   37.2720   33.1050   39.5940 C   0  0  0  0  0  2  0  0  0  0  0  0
  1  6  2  0  0  0  0
  1  2  1  0  0  0  0
  2  3  2  0  0  0  0
  3  4  1  0  0  0  0
  3  8  1  0  0  0  0
  5  9  1  0  0  0  0
  5  4  2  0  0  0  0
  6  5  1  0  0  0  0
  7  2  1  0  0  0  0
 10 11  1  0  0  0  0
 10  1  1  0  0  0  0
 12 10  1  0  0  0  0
 13 10  1  0  0  0  0
 14 15  1  0  0  0  0
 14 13  1  0  0  0  0
 15 13  1  0  0  0  0
M  END
>  <minimizedAffinity>
-3.40842366

$$$$

 OpenBabel03252500403D

 15 16  0  0  0  0  0  0  0  0999 V2000
   36.6780   28.5600   41.8730 C   0  0  0  0  0  0  0  0  0  0  0  0
   35.6860   28.5280   40.8940 C   0  0  0  0  0  0  0  0  0  0  0  0
   35.4590   29.6790   40.1240 C   0  0  0  0  0  0  0  0  0  0  0  0
   36.2270   30.7610   40.3810 N   0  0  0  0  0  0  0  0  0  0  0  0
   37.1940   30.7570   41.3520 C   0  0  0  0  0  0  0  0  0  0  0  0
   37.4220   29.6580   42.1000 N   0  0  0  0  0  0  0  0  0  0  0  0
   35.0630   27.6730   40.6750 H   0  0  0  0  0  0  0  0  0  0  0  0
   34.7110   29.7020   39.3630 H   0  0  0  0  0  0  0  0  0  0  0  0
   37.7130   31.6840   41.4330 H   0  0  0  0  0  0  0  0  0  0  0  0
   36.8960   27.3200   42.6780 C   0  0  0  0  0  0  0  0  0  0  0  0
   35.9550   27.1490   43.2350 H   0  0  0  0  0  0  0  0  0  0  0  0
   37.7090   27.5600   43.4110 H   0  0  0  0  0  0  0  0  0  0  0  0
   37.2450   26.1760   41.7640 C   0  0  0  0  0  3  0  0  0  0  0  0
   38.3330   25.2680   42.2930 C   0  0  0  0  0  2  0  0  0  0  0  0
   36.9010   24.7880   42.1340 C   0  0  0  0  0  2  0  0  0  0  0  0
  1  6  1  0  0  0  0
  1 10  1  0  0  0  0
  2  1  2  0  0  0  0
  3  4  2  0  0  0  0
  3  2  1  0  0  0  0
  4  5  1  0  0  0  0
  5  9  1  0  0  0  0
  5  6  2  0  0  0  0
  7  2  1  0  0  0  0
  8  3  1  0  0  0  0
 10 11  1  0  0  0  0
 10 12  1  0  0  0  0
 13 15  1  0  0  0  0
 13 14  1  0  0  0  0
 13 10  1  0  0  0  0
 15 14  1  0  0  0  0
M  END
>  <minimizedAffinity>
-3.39900422

$$$$

 OpenBabel03252500403D

 15 16  0  0  0  0  0  0  0  0999 V2000
   37.3000   28.4840   42.5120 C   0  0  0  0  0  0  0  0  0  0  0  0
   38.5410   28.9170   42.9750 C   0  0  0  0  0  0  0  0  0  0  0  0
   39.0530   30.1330   42.4980 C   0  0  0  0  0  0  0  0  0  0  0  0
   38.3000   30.8190   41.6080 N   0  0  0  0  0  0  0  0  0  0  0  0
   37.0830   30.3620   41.1750 C   0  0  0  0  0  0  0  0  0  0  0  0
   36.5800   29.1940   41.6240 N   0  0  0  0  0  0  0  0  0  0  0  0
   39.1560   28.3830   43.6850 H   0  0  0  0  0  0  0  0  0  0  0  0
   39.9980   30.5070   42.8230 H   0  0  0  0  0  0  0  0  0  0  0  0
   36.6130   31.0140   40.4750 H   0  0  0  0  0  0  0  0  0  0  0  0
   36.7810   27.1840   43.0380 C   0  0  0  0  0  0  0  0  0  0  0  0
   35.7070   27.1550   42.7720 H   0  0  0  0  0  0  0  0  0  0  0  0
   36.8750   27.2370   44.1530 H   0  0  0  0  0  0  0  0  0  0  0  0
   37.5600   26.0450   42.4350 C   0  0  0  0  0  3  0  0  0  0  0  0
   36.7390   24.8020   42.1720 C   0  0  0  0  0  2  0  0  0  0  0  0
   37.3190   25.6290   41.0380 C   0  0  0  0  0  2  0  0  0  0  0  0
  1  2  1  0  0  0  0
  1 10  1  0  0  0  0
  2  7  1  0  0  0  0
  3  8  1  0  0  0  0
  3  2  2  0  0  0  0
  4  3  1  0  0  0  0
  5  4  2  0  0  0  0
  5  6  1  0  0  0  0
  6  1  2  0  0  0  0
  9  5  1  0  0  0  0
 10 12  1  0  0  0  0
 11 10  1  0  0  0  0
 13 10  1  0  0  0  0
 14 13  1  0  0  0  0
 15 14  1  0  0  0  0
 15 13  1  0  0  0  0
M  END
>  <minimizedAffinity>
-3.38203931

$$$$

 OpenBabel03252500403D

 15 16  0  0  0  0  0  0  0  0999 V2000
   37.1260   26.8480   42.3110 C   0  0  0  0  0  0  0  0  0  0  0  0
   37.7330   27.4600   43.4060 C   0  0  0  0  0  0  0  0  0  0  0  0
   37.8470   28.8580   43.4210 C   0  0  0  0  0  0  0  0  0  0  0  0
   37.3530   29.5340   42.3590 N   0  0  0  0  0  0  0  0  0  0  0  0
   36.7620   28.8990   41.2990 C   0  0  0  0  0  0  0  0  0  0  0  0
   36.6470   27.5560   41.2710 N   0  0  0  0  0  0  0  0  0  0  0  0
   38.1330   26.9360   44.2620 H   0  0  0  0  0  0  0  0  0  0  0  0
   38.3030   29.3720   44.2370 H   0  0  0  0  0  0  0  0  0  0  0  0
   36.4230   29.5680   40.5430 H   0  0  0  0  0  0  0  0  0  0  0  0
   37.0210   25.3570   42.3230 C   0  0  0  0  0  0  0  0  0  0  0  0
   36.0400   25.1250   42.7790 H   0  0  0  0  0  0  0  0  0  0  0  0
   37.8310   24.9900   43.0060 H   0  0  0  0  0  0  0  0  0  0  0  0
   37.1500   24.8270   40.9200 C   0  0  0  0  0  3  0  0  0  0  0  0
   37.5630   23.3740   40.8400 C   0  0  0  0  0  2  0  0  0  0  0  0
   36.1840   23.8360   40.4010 C   0  0  0  0  0  2  0  0  0  0  0  0
  1 10  1  0  0  0  0
  1  2  1  0  0  0  0
  2  3  2  0  0  0  0
  2  7  1  0  0  0  0
  3  8  1  0  0  0  0
  4  3  1  0  0  0  0
  5  4  2  0  0  0  0
  6  5  1  0  0  0  0
  6  1  2  0  0  0  0
  9  5  1  0  0  0  0
 10 11  1  0  0  0  0
 10 12  1  0  0  0  0
 13 10  1  0  0  0  0
 14 13  1  0  0  0  0
 15 14  1  0  0  0  0
 15 13  1  0  0  0  0
M  END
>  <minimizedAffinity>
-3.37585235

$$$$

 OpenBabel03252500403D

 15 16  0  0  0  0  0  0  0  0999 V2000
   36.5120   28.8290   41.5870 C   0  0  0  0  0  0  0  0  0  0  0  0
   36.6960   27.5410   42.0860 C   0  0  0  0  0  0  0  0  0  0  0  0
   37.7850   27.2950   42.9350 C   0  0  0  0  0  0  0  0  0  0  0  0
   38.5980   28.3370   43.2220 N   0  0  0  0  0  0  0  0  0  0  0  0
   38.3860   29.5910   42.7140 C   0  0  0  0  0  0  0  0  0  0  0  0
   37.3430   29.8420   41.8950 N   0  0  0  0  0  0  0  0  0  0  0  0
   36.0570   26.6980   41.8670 H   0  0  0  0  0  0  0  0  0  0  0  0
   37.9680   26.3260   43.3420 H   0  0  0  0  0  0  0  0  0  0  0  0
   39.1120   30.3030   43.0330 H   0  0  0  0  0  0  0  0  0  0  0  0
   35.3430   29.0610   40.6840 C   0  0  0  0  0  0  0  0  0  0  0  0
   35.1360   30.1470   40.7260 H   0  0  0  0  0  0  0  0  0  0  0  0
   34.4790   28.5120   41.1410 H   0  0  0  0  0  0  0  0  0  0  0  0
   35.6730   28.5860   39.2940 C   0  0  0  0  0  3  0  0  0  0  0  0
   34.5170   28.6590   38.3210 C   0  0  0  0  0  2  0  0  0  0  0  0
   35.7440   29.5430   38.1710 C   0  0  0  0  0  2  0  0  0  0  0  0
  1  6  2  0  0  0  0
  1  2  1  0  0  0  0
  2  3  2  0  0  0  0
  3  4  1  0  0  0  0
  3  8  1  0  0  0  0
  5  9  1  0  0  0  0
  5  4  2  0  0  0  0
  6  5  1  0  0  0  0
  7  2  1  0  0  0  0
 10 11  1  0  0  0  0
 10 12  1  0  0  0  0
 10  1  1  0  0  0  0
 13 10  1  0  0  0  0
 14 13  1  0  0  0  0
 15 14  1  0  0  0  0
 15 13  1  0  0  0  0
M  END
>  <minimizedAffinity>
-3.31108809

$$$$

 OpenBabel03252500403D

 15 16  0  0  0  0  0  0  0  0999 V2000
   37.8100   26.7080   42.8070 C   0  0  0  0  0  0  0  0  0  0  0  0
   38.8680   27.3190   43.4780 C   0  0  0  0  0  0  0  0  0  0  0  0
   40.0500   26.5910   43.6800 C   0  0  0  0  0  0  0  0  0  0  0  0
   40.0910   25.3260   43.2030 N   0  0  0  0  0  0  0  0  0  0  0  0
   39.0310   24.7580   42.5480 C   0  0  0  0  0  0  0  0  0  0  0  0
   37.8880   25.4450   42.3480 N   0  0  0  0  0  0  0  0  0  0  0  0
   38.8530   28.3280   43.8650 H   0  0  0  0  0  0  0  0  0  0  0  0
   40.8870   27.0150   44.1870 H   0  0  0  0  0  0  0  0  0  0  0  0
   39.2180   23.7570   42.2340 H   0  0  0  0  0  0  0  0  0  0  0  0
   36.5630   27.5090   42.6080 C   0  0  0  0  0  0  0  0  0  0  0  0
   36.4010   28.0600   43.5540 H   0  0  0  0  0  0  0  0  0  0  0  0
   35.7320   26.7680   42.4760 H   0  0  0  0  0  0  0  0  0  0  0  0
   36.7300   28.4230   41.4240 C   0  0  0  0  0  3  0  0  0  0  0  0
   36.3790   27.7900   40.0960 C   0  0  0  0  0  2  0  0  0  0  0  0
   35.5500   28.9170   40.6860 C   0  0  0  0  0  2  0  0  0  0  0  0
  1  2  1  0  0  0  0
  2  3  2  0  0  0  0
  2  7  1  0  0  0  0
  3  8  1  0  0  0  0
  4  3  1  0  0  0  0
  5  4  2  0  0  0  0
  6  5  1  0  0  0  0
  6  1  2  0  0  0  0
  9  5  1  0  0  0  0
 10  1  1  0  0  0  0
 10 11  1  0  0  0  0
 12 10  1  0  0  0  0
 13 10  1  0  0  0  0
 14 15  1  0  0  0  0
 14 13  1  0  0  0  0
 15 13  1  0  0  0  0
M  END
>  <minimizedAffinity>
-3.29293227

$$$$

 OpenBabel03252500403D

 15 16  0  0  0  0  0  0  0  0999 V2000
   36.8900   29.6130   40.4510 C   0  0  0  0  0  0  0  0  0  0  0  0
   36.7070   29.5970   39.0700 C   0  0  0  0  0  0  0  0  0  0  0  0
   36.7820   30.8080   38.3650 C   0  0  0  0  0  0  0  0  0  0  0  0
   37.0310   31.9290   39.0780 N   0  0  0  0  0  0  0  0  0  0  0  0
   37.2060   31.9070   40.4360 C   0  0  0  0  0  0  0  0  0  0  0  0
   37.1360   30.7510   41.1270 N   0  0  0  0  0  0  0  0  0  0  0  0
   36.5070   28.7110   38.4840 H   0  0  0  0  0  0  0  0  0  0  0  0
   36.6480   30.8460   37.3070 H   0  0  0  0  0  0  0  0  0  0  0  0
   37.3950   32.8700   40.8520 H   0  0  0  0  0  0  0  0  0  0  0  0
   36.8040   28.3080   41.1750 C   0  0  0  0  0  0  0  0  0  0  0  0
   37.5510   27.6450   40.6970 H   0  0  0  0  0  0  0  0  0  0  0  0
   35.7800   27.9020   40.9710 H   0  0  0  0  0  0  0  0  0  0  0  0
   37.0710   28.5210   42.6410 C   0  0  0  0  0  3  0  0  0  0  0  0
   36.5300   27.4290   43.5370 C   0  0  0  0  0  2  0  0  0  0  0  0
   38.0220   27.6520   43.3650 C   0  0  0  0  0  2  0  0  0  0  0  0
  1  6  1  0  0  0  0
  1 10  1  0  0  0  0
  2  1  2  0  0  0  0
  3  2  1  0  0  0  0
  3  4  2  0  0  0  0
  4  5  1  0  0  0  0
  5  9  1  0  0  0  0
  5  6  2  0  0  0  0
  7  2  1  0  0  0  0
  8  3  1  0  0  0  0
 10 13  1  0  0  0  0
 11 10  1  0  0  0  0
 12 10  1  0  0  0  0
 13 15  1  0  0  0  0
 13 14  1  0  0  0  0
 15 14  1  0  0  0  0
M  END
>  <minimizedAffinity>
-3.23980021

$$$$
