
 OpenBabel03252503083D

 21 23  0  0  0  0  0  0  0  0999 V2000
   45.1220   36.0500   43.4860 C   0  0  0  0  0  0  0  0  0  0  0  0
   45.8770   34.9130   43.1520 C   0  0  0  0  0  0  0  0  0  0  0  0
   45.9750   33.9480   44.1370 C   0  0  0  0  0  0  0  0  0  0  0  0
   45.3880   34.0860   45.3370 N   0  0  0  0  0  0  0  0  0  0  0  0
   44.6610   35.2090   45.6250 C   0  0  0  0  0  0  0  0  0  0  0  0
   44.5350   36.1840   44.6900 N   0  0  0  0  0  0  0  0  0  0  0  0
   44.9800   36.8640   42.7930 H   0  0  0  0  0  0  0  0  0  0  0  0
   44.2120   35.2610   46.6070 H   0  0  0  0  0  0  0  0  0  0  0  0
   46.7160   32.7990   43.8710 C   0  0  0  0  0  0  0  0  0  0  0  0
   48.0220   32.5460   43.5040 C   0  0  0  0  0  0  0  0  0  0  0  0
   48.5000   31.3190   43.2980 C   0  0  0  0  0  0  0  0  0  0  0  0
   47.5980   30.3100   43.4780 C   0  0  0  0  0  0  0  0  0  0  0  0
   46.0340   31.1500   43.9520 S   0  0  0  0  0  0  0  0  0  0  0  0
   48.8230   33.2550   43.3710 H   0  0  0  0  0  0  0  0  0  0  0  0
   49.4410   30.8950   43.0180 H   0  0  0  0  0  0  0  0  0  0  0  0
   47.5600   29.2460   43.4210 H   0  0  0  0  0  0  0  0  0  0  0  0
   46.4460   34.8280   41.8540 C   0  0  0  0  0  0  0  0  0  0  0  0
   47.6470   35.2690   41.7430 O   0  0  0  0  0  0  0  0  0  0  0  0
   45.5780   34.2380   40.7490 C   0  0  0  0  0  0  0  0  0  0  0  0
   45.3450   32.8070   40.6310 C   0  0  0  0  0  0  0  0  0  0  0  0
   46.3170   33.4080   39.7140 C   0  0  0  0  0  0  0  0  0  0  0  0
  1  6  1  0  0  0  0
  2  1  2  0  0  0  0
  2  3  1  0  0  0  0
  3  4  2  0  0  0  0
  4  5  1  0  0  0  0
  5  8  1  0  0  0  0
  6  5  2  0  0  0  0
  7  1  1  0  0  0  0
  9 13  1  0  0  0  0
  9  3  1  0  0  0  0
 10  9  2  0  0  0  0
 11 12  2  0  0  0  0
 11 10  1  0  0  0  0
 12 13  1  0  0  0  0
 14 10  1  0  0  0  0
 15 11  1  0  0  0  0
 16 12  1  0  0  0  0
 17  2  1  0  0  0  0
 18 17  2  0  0  0  0
 19 17  1  0  0  0  0
 20 19  1  0  0  0  0
 21 20  1  0  0  0  0
 21 19  1  0  0  0  0
M  END
>  <minimizedAffinity>
-4.00615788

>  <minimizedRMSD>
0.763809025

$$$$
