
 OpenBabel03252509293D

 15 16  0  0  0  0  0  0  0  0999 V2000
   44.6360   36.0680   44.2660 C   0  0  0  0  0  0  0  0  0  0  0  0
   45.5320   35.7250   43.2380 C   0  0  0  0  0  0  0  0  0  0  0  0
   46.3220   34.6010   43.4410 C   0  0  0  0  0  0  0  0  0  0  0  0
   46.1990   33.8970   44.5950 N   0  0  0  0  0  0  0  0  0  0  0  0
   45.3250   34.2590   45.5600 C   0  0  0  0  0  0  0  0  0  0  0  0
   44.5520   35.3460   45.3800 N   0  0  0  0  0  0  0  0  0  0  0  0
   43.9920   36.9350   44.1680 H   0  0  0  0  0  0  0  0  0  0  0  0
   45.5410   36.3530   42.3770 H   0  0  0  0  0  0  0  0  0  0  0  0
   45.1970   33.7270   46.4900 H   0  0  0  0  0  0  0  0  0  0  0  0
   47.2520   34.2510   42.3670 C   0  0  0  0  0  0  0  0  0  0  0  0
   47.1450   34.9650   41.5290 H   0  0  0  0  0  0  0  0  0  0  0  0
   46.9030   33.2680   41.9540 H   0  0  0  0  0  0  0  0  0  0  0  0
   48.6550   34.1620   42.8900 C   0  0  0  0  0  3  0  0  0  0  0  0
   49.6700   33.6690   41.8830 C   0  0  0  0  0  2  0  0  0  0  0  0
   49.7170   35.0850   42.4330 C   0  0  0  0  0  2  0  0  0  0  0  0
  1  6  1  0  0  0  0
  2  3  1  0  0  0  0
  2  1  2  0  0  0  0
  3  4  2  0  0  0  0
  4  5  1  0  0  0  0
  5  9  1  0  0  0  0
  6  5  2  0  0  0  0
  7  1  1  0  0  0  0
  8  2  1  0  0  0  0
 10 13  1  0  0  0  0
 10  3  1  0  0  0  0
 11 10  1  0  0  0  0
 12 10  1  0  0  0  0
 14 15  1  0  0  0  0
 14 13  1  0  0  0  0
 15 13  1  0  0  0  0
M  END
>  <minimizedAffinity>
-3.82322812

>  <minimizedRMSD>
0.824246168

$$$$
