
     RDKit          3D

 21 22  0  0  0  0  0  0  0  0999 V2000
   44.5297   36.0481   44.5652 C   0  0  0  0  0  0  0  0  0  0  0  0
   45.2582   36.0105   43.3479 C   0  0  0  0  0  0  0  0  0  0  0  0
   46.1461   34.9504   43.1486 C   0  0  0  0  0  0  0  0  0  0  0  0
   46.2726   34.0178   44.1097 N   0  0  0  0  0  0  0  0  0  0  0  0
   45.5737   34.0603   45.2692 C   0  0  0  0  0  0  0  0  0  0  0  0
   44.7104   35.0730   45.4860 N   0  0  0  0  0  0  0  0  0  0  0  0
   46.3888   34.1838   40.7922 C   0  0  0  0  0  0  0  0  0  0  0  0
   45.2088   33.7292   40.9356 O   0  0  0  0  0  0  0  0  0  0  0  0
   46.8957   34.8679   41.9516 N   0  0  0  0  0  0  0  0  0  0  0  0
   43.8168   36.8569   44.7789 H   0  0  0  0  0  0  0  0  0  0  0  0
   45.1114   36.7890   42.6173 H   0  0  0  0  0  0  0  0  0  0  0  0
   45.7807   33.2432   45.9444 H   0  0  0  0  0  0  0  0  0  0  0  0
   47.8583   35.3074   41.8661 H   0  0  0  0  0  0  0  0  0  0  0  0
   47.2533   34.0771   39.5889 C   0  0  0  0  0  0  0  0  0  0  0  0
   47.7976   32.7406   39.1656 C   0  0  0  0  0  0  0  0  0  0  0  0
   46.6184   33.2747   38.4281 C   0  0  0  0  0  0  0  0  0  0  0  0
   47.7998   34.9870   39.2551 H   0  0  0  0  0  0  0  0  0  0  0  0
   48.7989   32.7555   38.7021 H   0  0  0  0  0  0  0  0  0  0  0  0
   47.5948   31.8640   39.8443 H   0  0  0  0  0  0  0  0  0  0  0  0
   46.7924   33.6751   37.3916 H   0  0  0  0  0  0  0  0  0  0  0  0
   45.6275   32.8175   38.5929 H   0  0  0  0  0  0  0  0  0  0  0  0
  1  6  2  0
  2  1  1  0
  3  2  2  0
  3  4  1  0
  4  5  2  0
  5  6  1  0
  7  8  2  0
  7  9  1  0
  9  3  1  0
  1 10  1  0
  2 11  1  0
  5 12  1  0
  9 13  1  0
 14 15  1  0
 15 16  1  0
 16 14  1  0
 14 17  1  0
 15 18  1  0
 15 19  1  0
 16 20  1  0
 16 21  1  0
  7 14  1  0
M  ISO  3  10  14  11  14  12  14
M  END
>  <DihAtoms>  (1) 
7,6,13,14

>  <DihDeg>  (1) 
-23.32096573198116

$$$$
