
 OpenBabel03252503343D

 16 17  0  0  0  0  0  0  0  0999 V2000
   45.0220   35.8070   43.2860 C   0  0  0  0  0  0  0  0  0  0  0  0
   46.2590   35.4410   42.6970 C   0  0  0  0  0  0  0  0  0  0  0  0
   47.0130   34.4450   43.3240 C   0  0  0  0  0  0  0  0  0  0  0  0
   46.5390   33.8800   44.4480 N   0  0  0  0  0  0  0  0  0  0  0  0
   45.3570   34.2340   45.0040 C   0  0  0  0  0  0  0  0  0  0  0  0
   44.6090   35.1930   44.4190 N   0  0  0  0  0  0  0  0  0  0  0  0
   44.3840   36.5830   42.8400 H   0  0  0  0  0  0  0  0  0  0  0  0
   46.5830   35.9320   41.7940 H   0  0  0  0  0  0  0  0  0  0  0  0
   45.1080   33.6930   45.9060 H   0  0  0  0  0  0  0  0  0  0  0  0
   48.3500   32.9490   41.8490 C   0  0  0  0  0  0  0  0  0  0  0  0
   47.2270   32.4350   41.5400 O   0  0  0  0  0  0  0  0  0  0  0  0
   48.2550   34.0450   42.7760 N   0  0  0  0  0  0  0  0  0  0  0  0
   49.1600   34.5380   43.0280 H   0  0  0  0  0  0  0  0  0  0  0  0
   49.6910   32.5370   41.3610 C   0  0  0  0  0  3  0  0  0  0  0  0
   50.9260   32.9300   42.1240 C   0  0  0  0  0  2  0  0  0  0  0  0
   50.4190   31.5390   42.2940 C   0  0  0  0  0  2  0  0  0  0  0  0
  1  6  1  0  0  0  0
  2  1  2  0  0  0  0
  2  3  1  0  0  0  0
  3  4  2  0  0  0  0
  4  5  1  0  0  0  0
  5  9  1  0  0  0  0
  6  5  2  0  0  0  0
  7  1  1  0  0  0  0
  8  2  1  0  0  0  0
 10 12  1  0  0  0  0
 11 10  2  0  0  0  0
 12 13  1  0  0  0  0
 12  3  1  0  0  0  0
 14 10  1  0  0  0  0
 14 15  1  0  0  0  0
 14 16  1  0  0  0  0
 15 16  1  0  0  0  0
M  END
>  <minimizedAffinity>
-3.34855461

>  <minimizedRMSD>
2.61022019

$$$$
