
 OpenBabel03252500053D

 39 42  0  0  0  0  0  0  0  0999 V2000
   37.3680   29.5030   42.1670 C   0  0  0  0  0  0  0  0  0  0  0  0
   36.6590   29.7560   41.0000 C   0  0  0  0  0  0  0  0  0  0  0  0
   36.1950   28.7000   40.2230 C   0  0  0  0  0  0  0  0  0  0  0  0
   36.5070   27.4750   40.7250 N   0  0  0  0  0  0  0  0  0  0  0  0
   37.1770   27.2320   41.8290 C   0  0  0  0  0  0  0  0  0  0  0  0
   37.6010   28.2600   42.5400 N   0  0  0  0  0  0  0  0  0  0  0  0
   37.7160   30.3500   42.7520 H   0  0  0  0  0  0  0  0  0  0  0  0
   35.4580   28.8000   39.0190 C   0  0  0  0  0  0  0  0  0  0  0  0
   34.0890   28.9760   39.1380 C   0  0  0  0  0  0  0  0  0  0  0  0
   33.2170   29.0940   38.0710 C   0  0  0  0  0  0  0  0  0  0  0  0
   33.6860   29.0390   36.8010 C   0  0  0  0  0  0  0  0  0  0  0  0
   35.0330   28.8660   36.6090 C   0  0  0  0  0  0  0  0  0  0  0  0
   35.5720   28.8020   35.3590 C   0  0  0  0  0  0  0  0  0  0  0  0
   36.9120   28.6310   35.1250 C   0  0  0  0  0  0  0  0  0  0  0  0
   37.7500   28.5170   36.2450 C   0  0  0  0  0  0  0  0  0  0  0  0
   37.1640   28.5870   37.4990 C   0  0  0  0  0  0  0  0  0  0  0  0
   35.8550   28.7550   37.7140 C   0  0  0  0  0  0  0  0  0  0  0  0
   33.5990   29.0350   40.1170 H   0  0  0  0  0  0  0  0  0  0  0  0
   32.1530   29.2300   38.2110 H   0  0  0  0  0  0  0  0  0  0  0  0
   33.0410   29.1260   35.9370 H   0  0  0  0  0  0  0  0  0  0  0  0
   34.9040   28.8920   34.5090 H   0  0  0  0  0  0  0  0  0  0  0  0
   37.3160   28.5820   34.1190 H   0  0  0  0  0  0  0  0  0  0  0  0
   38.7810   28.3850   36.0180 H   0  0  0  0  0  0  0  0  0  0  0  0
   38.1560   28.4440   38.5180 N   0  0  0  0  0  0  0  0  0  0  0  0
   38.5480   29.4300   38.6170 H   0  0  0  0  0  0  0  0  0  0  0  0
   38.5120   27.6500   39.0900 H   0  0  0  0  0  0  0  0  0  0  0  0
   37.3720   25.7760   42.1360 C   0  0  0  0  0  0  0  0  0  0  0  0
   36.3470   25.2850   42.8950 F   0  0  0  0  0  0  0  0  0  0  0  0
   38.5980   25.5830   42.7560 F   0  0  0  0  0  0  0  0  0  0  0  0
   37.5040   25.0720   40.9180 F   0  0  0  0  0  0  0  0  0  0  0  0
   36.3460   31.1080   40.5010 C   0  0  0  0  0  0  0  0  0  0  0  0
   35.4870   30.9890   39.7910 H   0  0  0  0  0  0  0  0  0  0  0  0
   35.9420   31.7300   41.3380 H   0  0  0  0  0  0  0  0  0  0  0  0
   37.4520   31.7720   39.7460 C   0  0  0  0  0  0  0  0  0  0  0  0
   38.1850   31.0310   39.4060 H   0  0  0  0  0  0  0  0  0  0  0  0
   37.0180   32.3520   38.9330 H   0  0  0  0  0  0  0  0  0  0  0  0
   38.2430   32.7250   40.6420 C   0  0  0  0  0  3  0  0  0  0  0  0
   39.5530   33.1560   40.0290 C   0  0  0  0  0  2  0  0  0  0  0  0
   38.4460   34.1480   40.1010 C   0  0  0  0  0  2  0  0  0  0  0  0
  1  6  1  0  0  0  0
  1  7  1  0  0  0  0
  2  1  2  0  0  0  0
  3  4  2  0  0  0  0
  3  2  1  0  0  0  0
  4  5  1  0  0  0  0
  5 27  1  0  0  0  0
  5  6  2  0  0  0  0
  8  9  1  0  0  0  0
  8  3  1  0  0  0  0
  9 18  1  0  0  0  0
 10 19  1  0  0  0  0
 10  9  2  0  0  0  0
 11 10  1  0  0  0  0
 12 11  2  0  0  0  0
 12 17  1  0  0  0  0
 13 12  1  0  0  0  0
 14 13  2  0  0  0  0
 14 15  1  0  0  0  0
 15 16  2  0  0  0  0
 16 17  1  0  0  0  0
 16 24  1  0  0  0  0
 17  8  2  0  0  0  0
 20 11  1  0  0  0  0
 21 13  1  0  0  0  0
 22 14  1  0  0  0  0
 23 15  1  0  0  0  0
 24 25  1  0  0  0  0
 24 26  1  0  0  0  0
 27 29  1  0  0  0  0
 27 28  1  0  0  0  0
 30 27  1  0  0  0  0
 31  2  1  0  0  0  0
 31 33  1  0  0  0  0
 32 31  1  0  0  0  0
 34 31  1  0  0  0  0
 34 37  1  0  0  0  0
 35 34  1  0  0  0  0
 36 34  1  0  0  0  0
 38 39  1  0  0  0  0
 38 37  1  0  0  0  0
 39 37  1  0  0  0  0
M  END
>  <minimizedAffinity>
-5.9737916

$$$$

 OpenBabel03252500053D

 39 42  0  0  0  0  0  0  0  0999 V2000
   37.2100   30.0520   41.9740 C   0  0  0  0  0  0  0  0  0  0  0  0
   36.9550   30.1600   40.6120 C   0  0  0  0  0  0  0  0  0  0  0  0
   36.7350   29.0170   39.8520 C   0  0  0  0  0  0  0  0  0  0  0  0
   36.7980   27.8630   40.5700 N   0  0  0  0  0  0  0  0  0  0  0  0
   37.0380   27.7570   41.8580 C   0  0  0  0  0  0  0  0  0  0  0  0
   37.2420   28.8650   42.5460 N   0  0  0  0  0  0  0  0  0  0  0  0
   37.3780   30.9640   42.5400 H   0  0  0  0  0  0  0  0  0  0  0  0
   36.4590   28.9680   38.4650 C   0  0  0  0  0  0  0  0  0  0  0  0
   37.5490   28.8720   37.6150 C   0  0  0  0  0  0  0  0  0  0  0  0
   37.4660   28.8120   36.2360 C   0  0  0  0  0  0  0  0  0  0  0  0
   36.2570   28.8470   35.6250 C   0  0  0  0  0  0  0  0  0  0  0  0
   35.1330   28.9410   36.4060 C   0  0  0  0  0  0  0  0  0  0  0  0
   33.8860   28.9820   35.8600 C   0  0  0  0  0  0  0  0  0  0  0  0
   32.7390   29.0750   36.6040 C   0  0  0  0  0  0  0  0  0  0  0  0
   32.8830   29.1330   38.0000 C   0  0  0  0  0  0  0  0  0  0  0  0
   34.1680   29.0900   38.5180 C   0  0  0  0  0  0  0  0  0  0  0  0
   35.2790   28.9980   37.7800 C   0  0  0  0  0  0  0  0  0  0  0  0
   38.5760   28.8360   37.9970 H   0  0  0  0  0  0  0  0  0  0  0  0
   38.3450   28.7380   35.6100 H   0  0  0  0  0  0  0  0  0  0  0  0
   36.1450   28.8030   34.5510 H   0  0  0  0  0  0  0  0  0  0  0  0
   33.8000   28.9360   34.7790 H   0  0  0  0  0  0  0  0  0  0  0  0
   31.7570   29.1060   36.1440 H   0  0  0  0  0  0  0  0  0  0  0  0
   31.9690   29.2050   38.5390 H   0  0  0  0  0  0  0  0  0  0  0  0
   34.1290   29.1680   39.9440 N   0  0  0  0  0  0  0  0  0  0  0  0
   33.9480   28.1610   40.2400 H   0  0  0  0  0  0  0  0  0  0  0  0
   34.2270   29.9360   40.6410 H   0  0  0  0  0  0  0  0  0  0  0  0
   37.0470   26.3510   42.3810 C   0  0  0  0  0  0  0  0  0  0  0  0
   36.1940   26.2080   43.4380 F   0  0  0  0  0  0  0  0  0  0  0  0
   38.3410   25.9800   42.7190 F   0  0  0  0  0  0  0  0  0  0  0  0
   36.7190   25.4740   41.3210 F   0  0  0  0  0  0  0  0  0  0  0  0
   36.8970   31.4400   39.8830 C   0  0  0  0  0  0  0  0  0  0  0  0
   36.3260   31.2370   38.9390 H   0  0  0  0  0  0  0  0  0  0  0  0
   36.2620   32.1640   40.4510 H   0  0  0  0  0  0  0  0  0  0  0  0
   38.2240   31.9980   39.4820 C   0  0  0  0  0  0  0  0  0  0  0  0
   38.9730   31.2000   39.4180 H   0  0  0  0  0  0  0  0  0  0  0  0
   38.1020   32.5480   38.5500 H   0  0  0  0  0  0  0  0  0  0  0  0
   38.7640   32.9610   40.5380 C   0  0  0  0  0  3  0  0  0  0  0  0
   40.2720   32.9850   40.5950 C   0  0  0  0  0  2  0  0  0  0  0  0
   39.5680   34.1590   40.0110 C   0  0  0  0  0  2  0  0  0  0  0  0
  1  7  1  0  0  0  0
  1  6  1  0  0  0  0
  2  1  2  0  0  0  0
  3  4  2  0  0  0  0
  3  2  1  0  0  0  0
  4  5  1  0  0  0  0
  5 27  1  0  0  0  0
  5  6  2  0  0  0  0
  8  3  1  0  0  0  0
  9 18  1  0  0  0  0
  9  8  2  0  0  0  0
 10  9  1  0  0  0  0
 11 10  2  0  0  0  0
 11 12  1  0  0  0  0
 12 17  1  0  0  0  0
 13 12  2  0  0  0  0
 13 14  1  0  0  0  0
 14 15  2  0  0  0  0
 15 16  1  0  0  0  0
 15 23  1  0  0  0  0
 16 24  1  0  0  0  0
 17  8  1  0  0  0  0
 17 16  2  0  0  0  0
 19 10  1  0  0  0  0
 20 11  1  0  0  0  0
 21 13  1  0  0  0  0
 22 14  1  0  0  0  0
 24 25  1  0  0  0  0
 24 26  1  0  0  0  0
 27 29  1  0  0  0  0
 27 28  1  0  0  0  0
 30 27  1  0  0  0  0
 31 33  1  0  0  0  0
 31  2  1  0  0  0  0
 32 31  1  0  0  0  0
 34 31  1  0  0  0  0
 34 37  1  0  0  0  0
 35 34  1  0  0  0  0
 36 34  1  0  0  0  0
 37 38  1  0  0  0  0
 39 37  1  0  0  0  0
 39 38  1  0  0  0  0
M  END
>  <minimizedAffinity>
-5.84505415

$$$$

 OpenBabel03252500053D

 39 42  0  0  0  0  0  0  0  0999 V2000
   40.0800   30.0530   40.4010 C   0  0  0  0  0  0  0  0  0  0  0  0
   38.8990   29.4620   39.9690 C   0  0  0  0  0  0  0  0  0  0  0  0
   37.8080   30.2550   39.6290 C   0  0  0  0  0  0  0  0  0  0  0  0
   38.0370   31.5890   39.7670 N   0  0  0  0  0  0  0  0  0  0  0  0
   39.1530   32.1500   40.1760 C   0  0  0  0  0  0  0  0  0  0  0  0
   40.1670   31.3650   40.4890 N   0  0  0  0  0  0  0  0  0  0  0  0
   40.9140   29.4060   40.6590 H   0  0  0  0  0  0  0  0  0  0  0  0
   36.5480   29.8020   39.1690 C   0  0  0  0  0  0  0  0  0  0  0  0
   35.6030   29.5000   40.1360 C   0  0  0  0  0  0  0  0  0  0  0  0
   34.3240   29.0470   39.8700 C   0  0  0  0  0  0  0  0  0  0  0  0
   33.9190   28.8700   38.5890 C   0  0  0  0  0  0  0  0  0  0  0  0
   34.8050   29.1490   37.5790 C   0  0  0  0  0  0  0  0  0  0  0  0
   34.4650   28.9920   36.2690 C   0  0  0  0  0  0  0  0  0  0  0  0
   35.3200   29.2610   35.2320 C   0  0  0  0  0  0  0  0  0  0  0  0
   36.6060   29.7180   35.5610 C   0  0  0  0  0  0  0  0  0  0  0  0
   36.9140   29.8640   36.9050 C   0  0  0  0  0  0  0  0  0  0  0  0
   36.0700   29.5990   37.9080 C   0  0  0  0  0  0  0  0  0  0  0  0
   35.8190   29.6060   41.2060 H   0  0  0  0  0  0  0  0  0  0  0  0
   33.6170   28.8230   40.6580 H   0  0  0  0  0  0  0  0  0  0  0  0
   32.9290   28.5170   38.3340 H   0  0  0  0  0  0  0  0  0  0  0  0
   33.4660   28.6380   36.0390 H   0  0  0  0  0  0  0  0  0  0  0  0
   35.0240   29.1270   34.1960 H   0  0  0  0  0  0  0  0  0  0  0  0
   37.2360   29.9130   34.7280 H   0  0  0  0  0  0  0  0  0  0  0  0
   38.2570   30.3250   37.0570 N   0  0  0  0  0  0  0  0  0  0  0  0
   38.1690   31.3800   36.9360 H   0  0  0  0  0  0  0  0  0  0  0  0
   39.1760   29.8670   37.2350 H   0  0  0  0  0  0  0  0  0  0  0  0
   39.1170   33.6490   40.2300 C   0  0  0  0  0  0  0  0  0  0  0  0
   38.2260   34.1590   39.3280 F   0  0  0  0  0  0  0  0  0  0  0  0
   40.3910   34.1600   40.0280 F   0  0  0  0  0  0  0  0  0  0  0  0
   38.8090   34.0450   41.5510 F   0  0  0  0  0  0  0  0  0  0  0  0
   38.7040   28.0070   39.8350 C   0  0  0  0  0  0  0  0  0  0  0  0
   37.7140   27.8680   39.3280 H   0  0  0  0  0  0  0  0  0  0  0  0
   39.4550   27.5950   39.1170 H   0  0  0  0  0  0  0  0  0  0  0  0
   38.6440   27.2590   41.1280 C   0  0  0  0  0  0  0  0  0  0  0  0
   39.2360   26.3370   41.0670 H   0  0  0  0  0  0  0  0  0  0  0  0
   38.9630   27.9230   41.9290 H   0  0  0  0  0  0  0  0  0  0  0  0
   37.2210   26.7920   41.4340 C   0  0  0  0  0  3  0  0  0  0  0  0
   37.1720   25.6920   42.4650 C   0  0  0  0  0  2  0  0  0  0  0  0
   36.7170   27.0520   42.8610 C   0  0  0  0  0  2  0  0  0  0  0  0
  1  6  1  0  0  0  0
  1  7  1  0  0  0  0
  2  1  2  0  0  0  0
  3  4  2  0  0  0  0
  3  2  1  0  0  0  0
  4  5  1  0  0  0  0
  5 27  1  0  0  0  0
  5  6  2  0  0  0  0
  8  3  1  0  0  0  0
  8  9  1  0  0  0  0
  9 18  1  0  0  0  0
 10  9  2  0  0  0  0
 10 19  1  0  0  0  0
 11 10  1  0  0  0  0
 12 17  1  0  0  0  0
 12 11  2  0  0  0  0
 13 12  1  0  0  0  0
 14 15  1  0  0  0  0
 14 13  2  0  0  0  0
 15 16  2  0  0  0  0
 16 24  1  0  0  0  0
 16 17  1  0  0  0  0
 17  8  2  0  0  0  0
 20 11  1  0  0  0  0
 21 13  1  0  0  0  0
 22 14  1  0  0  0  0
 23 15  1  0  0  0  0
 24 26  1  0  0  0  0
 25 24  1  0  0  0  0
 27 30  1  0  0  0  0
 28 27  1  0  0  0  0
 29 27  1  0  0  0  0
 31  2  1  0  0  0  0
 31 34  1  0  0  0  0
 32 31  1  0  0  0  0
 33 31  1  0  0  0  0
 34 37  1  0  0  0  0
 34 36  1  0  0  0  0
 35 34  1  0  0  0  0
 37 38  1  0  0  0  0
 37 39  1  0  0  0  0
 38 39  1  0  0  0  0
M  END
>  <minimizedAffinity>
-5.83727407

$$$$

 OpenBabel03252500053D

 39 42  0  0  0  0  0  0  0  0999 V2000
   38.2440   28.9360   43.1470 C   0  0  0  0  0  0  0  0  0  0  0  0
   37.6740   28.1960   42.1190 C   0  0  0  0  0  0  0  0  0  0  0  0
   37.7270   28.6640   40.8110 C   0  0  0  0  0  0  0  0  0  0  0  0
   38.3650   29.8590   40.6840 N   0  0  0  0  0  0  0  0  0  0  0  0
   38.9050   30.5620   41.6550 C   0  0  0  0  0  0  0  0  0  0  0  0
   38.8350   30.0840   42.8830 N   0  0  0  0  0  0  0  0  0  0  0  0
   38.1860   28.5420   44.1590 H   0  0  0  0  0  0  0  0  0  0  0  0
   37.2000   28.0230   39.6640 C   0  0  0  0  0  0  0  0  0  0  0  0
   38.0180   27.1000   39.0350 C   0  0  0  0  0  0  0  0  0  0  0  0
   37.6670   26.3810   37.9060 C   0  0  0  0  0  0  0  0  0  0  0  0
   36.4490   26.5570   37.3400 C   0  0  0  0  0  0  0  0  0  0  0  0
   35.5870   27.4570   37.9120 C   0  0  0  0  0  0  0  0  0  0  0  0
   34.3470   27.6850   37.3940 C   0  0  0  0  0  0  0  0  0  0  0  0
   33.4560   28.5740   37.9360 C   0  0  0  0  0  0  0  0  0  0  0  0
   33.8650   29.2770   39.0810 C   0  0  0  0  0  0  0  0  0  0  0  0
   35.1330   29.0180   39.5770 C   0  0  0  0  0  0  0  0  0  0  0  0
   35.9930   28.1460   39.0390 C   0  0  0  0  0  0  0  0  0  0  0  0
   39.0250   26.8760   39.4050 H   0  0  0  0  0  0  0  0  0  0  0  0
   38.3400   25.6690   37.4460 H   0  0  0  0  0  0  0  0  0  0  0  0
   36.1330   26.0180   36.4580 H   0  0  0  0  0  0  0  0  0  0  0  0
   34.0530   27.1310   36.5090 H   0  0  0  0  0  0  0  0  0  0  0  0
   32.4740   28.7370   37.5030 H   0  0  0  0  0  0  0  0  0  0  0  0
   33.1450   29.9560   39.4680 H   0  0  0  0  0  0  0  0  0  0  0  0
   35.3870   29.8210   40.7310 N   0  0  0  0  0  0  0  0  0  0  0  0
   34.9360   29.2650   41.5200 H   0  0  0  0  0  0  0  0  0  0  0  0
   35.8630   30.7310   40.9020 H   0  0  0  0  0  0  0  0  0  0  0  0
   39.5440   31.8470   41.2170 C   0  0  0  0  0  0  0  0  0  0  0  0
   38.7570   32.9220   41.5170 F   0  0  0  0  0  0  0  0  0  0  0  0
   39.8340   31.7930   39.8610 F   0  0  0  0  0  0  0  0  0  0  0  0
   40.8180   31.9460   41.8220 F   0  0  0  0  0  0  0  0  0  0  0  0
   36.9940   26.9020   42.3130 C   0  0  0  0  0  0  0  0  0  0  0  0
   36.4800   26.9640   43.3080 H   0  0  0  0  0  0  0  0  0  0  0  0
   36.1660   26.8010   41.5680 H   0  0  0  0  0  0  0  0  0  0  0  0
   37.9000   25.7150   42.3600 C   0  0  0  0  0  0  0  0  0  0  0  0
   38.6480   25.7690   41.5600 H   0  0  0  0  0  0  0  0  0  0  0  0
   38.3400   25.6530   43.3540 H   0  0  0  0  0  0  0  0  0  0  0  0
   37.1350   24.4190   42.0960 C   0  0  0  0  0  3  0  0  0  0  0  0
   36.3780   24.4390   40.7900 C   0  0  0  0  0  2  0  0  0  0  0  0
   37.5990   23.5940   40.8870 C   0  0  0  0  0  2  0  0  0  0  0  0
  1  7  1  0  0  0  0
  2 31  1  0  0  0  0
  2  1  2  0  0  0  0
  3  2  1  0  0  0  0
  4  3  2  0  0  0  0
  4  5  1  0  0  0  0
  5  6  2  0  0  0  0
  6  1  1  0  0  0  0
  8  3  1  0  0  0  0
  9 18  1  0  0  0  0
  9  8  2  0  0  0  0
 10  9  1  0  0  0  0
 11 10  2  0  0  0  0
 11 12  1  0  0  0  0
 12 17  1  0  0  0  0
 13 12  2  0  0  0  0
 13 14  1  0  0  0  0
 14 15  2  0  0  0  0
 15 23  1  0  0  0  0
 15 16  1  0  0  0  0
 16 24  1  0  0  0  0
 17 16  2  0  0  0  0
 17  8  1  0  0  0  0
 19 10  1  0  0  0  0
 20 11  1  0  0  0  0
 21 13  1  0  0  0  0
 22 14  1  0  0  0  0
 24 26  1  0  0  0  0
 24 25  1  0  0  0  0
 27 28  1  0  0  0  0
 27  5  1  0  0  0  0
 27 30  1  0  0  0  0
 29 27  1  0  0  0  0
 31 34  1  0  0  0  0
 31 32  1  0  0  0  0
 33 31  1  0  0  0  0
 34 36  1  0  0  0  0
 35 34  1  0  0  0  0
 37 34  1  0  0  0  0
 38 39  1  0  0  0  0
 38 37  1  0  0  0  0
 39 37  1  0  0  0  0
M  END
>  <minimizedAffinity>
-5.78633928

$$$$

 OpenBabel03252500053D

 39 42  0  0  0  0  0  0  0  0999 V2000
   38.3110   32.3970   40.6840 C   0  0  0  0  0  0  0  0  0  0  0  0
   37.7110   31.1800   40.9810 C   0  0  0  0  0  0  0  0  0  0  0  0
   38.4500   30.1670   41.5820 C   0  0  0  0  0  0  0  0  0  0  0  0
   39.7460   30.5050   41.8220 N   0  0  0  0  0  0  0  0  0  0  0  0
   40.3170   31.6550   41.5420 C   0  0  0  0  0  0  0  0  0  0  0  0
   39.5830   32.5920   40.9720 N   0  0  0  0  0  0  0  0  0  0  0  0
   37.7070   33.1680   40.2140 H   0  0  0  0  0  0  0  0  0  0  0  0
   37.9780   28.8840   41.9490 C   0  0  0  0  0  0  0  0  0  0  0  0
   37.3220   28.7840   43.1650 C   0  0  0  0  0  0  0  0  0  0  0  0
   36.7970   27.6130   43.6800 C   0  0  0  0  0  0  0  0  0  0  0  0
   36.9060   26.4560   42.9830 C   0  0  0  0  0  0  0  0  0  0  0  0
   37.5440   26.4810   41.7690 C   0  0  0  0  0  0  0  0  0  0  0  0
   37.6910   25.3550   41.0170 C   0  0  0  0  0  0  0  0  0  0  0  0
   38.3210   25.3390   39.8000 C   0  0  0  0  0  0  0  0  0  0  0  0
   38.8350   26.5560   39.3260 C   0  0  0  0  0  0  0  0  0  0  0  0
   38.6670   27.6790   40.1210 C   0  0  0  0  0  0  0  0  0  0  0  0
   38.0490   27.6820   41.3070 C   0  0  0  0  0  0  0  0  0  0  0  0
   37.1750   29.6560   43.8130 H   0  0  0  0  0  0  0  0  0  0  0  0
   36.2920   27.5810   44.6360 H   0  0  0  0  0  0  0  0  0  0  0  0
   36.5110   25.5170   43.3470 H   0  0  0  0  0  0  0  0  0  0  0  0
   37.2850   24.4260   41.4030 H   0  0  0  0  0  0  0  0  0  0  0  0
   38.4240   24.4270   39.2200 H   0  0  0  0  0  0  0  0  0  0  0  0
   39.3160   26.4980   38.3800 H   0  0  0  0  0  0  0  0  0  0  0  0
   39.2560   28.8210   39.4950 N   0  0  0  0  0  0  0  0  0  0  0  0
   38.4970   29.1500   38.8230 H   0  0  0  0  0  0  0  0  0  0  0  0
   40.1720   29.3090   39.5700 H   0  0  0  0  0  0  0  0  0  0  0  0
   41.7660   31.7450   41.9220 C   0  0  0  0  0  0  0  0  0  0  0  0
   42.3050   32.9430   41.5490 F   0  0  0  0  0  0  0  0  0  0  0  0
   42.4650   30.6800   41.3710 F   0  0  0  0  0  0  0  0  0  0  0  0
   41.8810   31.5300   43.3140 F   0  0  0  0  0  0  0  0  0  0  0  0
   36.2980   30.8670   40.7000 C   0  0  0  0  0  0  0  0  0  0  0  0
   35.9900   30.1000   41.4580 H   0  0  0  0  0  0  0  0  0  0  0  0
   35.6660   31.7610   40.9240 H   0  0  0  0  0  0  0  0  0  0  0  0
   36.0400   30.2780   39.3510 C   0  0  0  0  0  0  0  0  0  0  0  0
   35.4760   30.9810   38.7260 H   0  0  0  0  0  0  0  0  0  0  0  0
   36.9910   29.9820   38.9130 H   0  0  0  0  0  0  0  0  0  0  0  0
   35.1520   29.0380   39.4460 C   0  0  0  0  0  3  0  0  0  0  0  0
   34.2990   28.8300   38.2180 C   0  0  0  0  0  2  0  0  0  0  0  0
   35.4500   27.9150   38.4420 C   0  0  0  0  0  2  0  0  0  0  0  0
  1  6  2  0  0  0  0
  1  2  1  0  0  0  0
  2  3  2  0  0  0  0
  3  4  1  0  0  0  0
  3  8  1  0  0  0  0
  5  4  2  0  0  0  0
  5 27  1  0  0  0  0
  6  5  1  0  0  0  0
  7  1  1  0  0  0  0
  8  9  1  0  0  0  0
  9 10  2  0  0  0  0
  9 18  1  0  0  0  0
 10 19  1  0  0  0  0
 11 20  1  0  0  0  0
 11 10  1  0  0  0  0
 12 11  2  0  0  0  0
 13 21  1  0  0  0  0
 13 12  1  0  0  0  0
 14 13  2  0  0  0  0
 15 14  1  0  0  0  0
 15 16  2  0  0  0  0
 16 17  1  0  0  0  0
 17 12  1  0  0  0  0
 17  8  2  0  0  0  0
 22 14  1  0  0  0  0
 23 15  1  0  0  0  0
 24 26  1  0  0  0  0
 24 16  1  0  0  0  0
 25 24  1  0  0  0  0
 27 30  1  0  0  0  0
 28 27  1  0  0  0  0
 29 27  1  0  0  0  0
 31 33  1  0  0  0  0
 31  2  1  0  0  0  0
 31 32  1  0  0  0  0
 34 37  1  0  0  0  0
 34 31  1  0  0  0  0
 35 34  1  0  0  0  0
 36 34  1  0  0  0  0
 38 39  1  0  0  0  0
 38 37  1  0  0  0  0
 39 37  1  0  0  0  0
M  END
>  <minimizedAffinity>
-5.74297094

$$$$

 OpenBabel03252500053D

 39 42  0  0  0  0  0  0  0  0999 V2000
   37.0460   29.8050   37.5430 C   0  0  0  0  0  0  0  0  0  0  0  0
   37.3830   29.1720   38.7330 C   0  0  0  0  0  0  0  0  0  0  0  0
   36.4410   28.3970   39.4000 C   0  0  0  0  0  0  0  0  0  0  0  0
   35.2330   28.3460   38.7760 N   0  0  0  0  0  0  0  0  0  0  0  0
   34.9120   28.9440   37.6500 C   0  0  0  0  0  0  0  0  0  0  0  0
   35.8330   29.6710   37.0460 N   0  0  0  0  0  0  0  0  0  0  0  0
   37.8050   30.4040   37.0460 H   0  0  0  0  0  0  0  0  0  0  0  0
   36.6360   27.6900   40.6110 C   0  0  0  0  0  0  0  0  0  0  0  0
   36.4930   28.4120   41.7850 C   0  0  0  0  0  0  0  0  0  0  0  0
   36.6450   27.8850   43.0550 C   0  0  0  0  0  0  0  0  0  0  0  0
   36.9570   26.5760   43.2140 C   0  0  0  0  0  0  0  0  0  0  0  0
   37.1150   25.8010   42.0930 C   0  0  0  0  0  0  0  0  0  0  0  0
   37.4290   24.4780   42.1800 C   0  0  0  0  0  0  0  0  0  0  0  0
   37.5940   23.6700   41.0860 C   0  0  0  0  0  0  0  0  0  0  0  0
   37.4270   24.2580   39.8210 C   0  0  0  0  0  0  0  0  0  0  0  0
   37.1080   25.6060   39.7750 C   0  0  0  0  0  0  0  0  0  0  0  0
   36.9490   26.3840   40.8510 C   0  0  0  0  0  0  0  0  0  0  0  0
   36.2410   29.4790   41.7770 H   0  0  0  0  0  0  0  0  0  0  0  0
   36.5240   28.4880   43.9450 H   0  0  0  0  0  0  0  0  0  0  0  0
   37.0870   26.1220   44.1860 H   0  0  0  0  0  0  0  0  0  0  0  0
   37.5530   24.0460   43.1670 H   0  0  0  0  0  0  0  0  0  0  0  0
   37.8450   22.6190   41.1820 H   0  0  0  0  0  0  0  0  0  0  0  0
   37.5640   23.5960   39.0010 H   0  0  0  0  0  0  0  0  0  0  0  0
   36.9860   26.0390   38.4190 N   0  0  0  0  0  0  0  0  0  0  0  0
   35.9880   25.7670   38.1640 H   0  0  0  0  0  0  0  0  0  0  0  0
   37.6210   26.5020   37.7350 H   0  0  0  0  0  0  0  0  0  0  0  0
   33.5010   28.7090   37.1960 C   0  0  0  0  0  0  0  0  0  0  0  0
   33.2510   27.3780   37.0190 F   0  0  0  0  0  0  0  0  0  0  0  0
   33.2510   29.4300   36.0370 F   0  0  0  0  0  0  0  0  0  0  0  0
   32.6220   29.2860   38.1400 F   0  0  0  0  0  0  0  0  0  0  0  0
   38.7110   29.2590   39.3680 C   0  0  0  0  0  0  0  0  0  0  0  0
   38.6120   28.7700   40.3720 H   0  0  0  0  0  0  0  0  0  0  0  0
   39.4340   28.6180   38.8060 H   0  0  0  0  0  0  0  0  0  0  0  0
   39.2060   30.6500   39.6040 C   0  0  0  0  0  0  0  0  0  0  0  0
   40.2130   30.6310   40.0370 H   0  0  0  0  0  0  0  0  0  0  0  0
   39.1520   31.2010   38.6670 H   0  0  0  0  0  0  0  0  0  0  0  0
   38.3470   31.3780   40.6370 C   0  0  0  0  0  3  0  0  0  0  0  0
   38.8400   32.7730   40.9330 C   0  0  0  0  0  2  0  0  0  0  0  0
   37.5930   32.6180   40.1350 C   0  0  0  0  0  2  0  0  0  0  0  0
  1  2  1  0  0  0  0
  2 31  1  0  0  0  0
  2  3  2  0  0  0  0
  3  8  1  0  0  0  0
  4  3  1  0  0  0  0
  5  4  2  0  0  0  0
  6  1  2  0  0  0  0
  6  5  1  0  0  0  0
  7  1  1  0  0  0  0
  8 17  2  0  0  0  0
  8  9  1  0  0  0  0
  9 10  2  0  0  0  0
 10 11  1  0  0  0  0
 10 19  1  0  0  0  0
 11 20  1  0  0  0  0
 12 13  1  0  0  0  0
 12 11  2  0  0  0  0
 13 21  1  0  0  0  0
 14 22  1  0  0  0  0
 14 13  2  0  0  0  0
 15 14  1  0  0  0  0
 16 15  2  0  0  0  0
 16 17  1  0  0  0  0
 17 12  1  0  0  0  0
 18  9  1  0  0  0  0
 23 15  1  0  0  0  0
 24 16  1  0  0  0  0
 25 24  1  0  0  0  0
 26 24  1  0  0  0  0
 27  5  1  0  0  0  0
 27 30  1  0  0  0  0
 28 27  1  0  0  0  0
 29 27  1  0  0  0  0
 31 34  1  0  0  0  0
 31 32  1  0  0  0  0
 33 31  1  0  0  0  0
 34 35  1  0  0  0  0
 34 37  1  0  0  0  0
 36 34  1  0  0  0  0
 37 38  1  0  0  0  0
 39 37  1  0  0  0  0
 39 38  1  0  0  0  0
M  END
>  <minimizedAffinity>
-5.73711157

$$$$

 OpenBabel03252500053D

 39 42  0  0  0  0  0  0  0  0999 V2000
   34.9330   28.7020   38.4310 C   0  0  0  0  0  0  0  0  0  0  0  0
   35.7370   29.5620   39.1680 C   0  0  0  0  0  0  0  0  0  0  0  0
   36.6880   30.3470   38.5260 C   0  0  0  0  0  0  0  0  0  0  0  0
   36.7240   30.1710   37.1780 N   0  0  0  0  0  0  0  0  0  0  0  0
   35.9650   29.3570   36.4780 C   0  0  0  0  0  0  0  0  0  0  0  0
   35.0730   28.6290   37.1220 N   0  0  0  0  0  0  0  0  0  0  0  0
   34.1990   28.1020   38.9620 H   0  0  0  0  0  0  0  0  0  0  0  0
   37.5710   31.2700   39.1380 C   0  0  0  0  0  0  0  0  0  0  0  0
   37.0840   32.5490   39.3550 C   0  0  0  0  0  0  0  0  0  0  0  0
   37.8040   33.5740   39.9400 C   0  0  0  0  0  0  0  0  0  0  0  0
   39.0800   33.3630   40.3460 C   0  0  0  0  0  0  0  0  0  0  0  0
   39.6270   32.1190   40.1610 C   0  0  0  0  0  0  0  0  0  0  0  0
   40.9040   31.8370   40.5440 C   0  0  0  0  0  0  0  0  0  0  0  0
   41.4860   30.6080   40.3780 C   0  0  0  0  0  0  0  0  0  0  0  0
   40.7080   29.6040   39.7780 C   0  0  0  0  0  0  0  0  0  0  0  0
   39.4150   29.9300   39.4020 C   0  0  0  0  0  0  0  0  0  0  0  0
   38.8580   31.1330   39.5710 C   0  0  0  0  0  0  0  0  0  0  0  0
   36.0650   32.8340   39.0680 H   0  0  0  0  0  0  0  0  0  0  0  0
   37.3840   34.5600   40.0900 H   0  0  0  0  0  0  0  0  0  0  0  0
   39.6800   34.1350   40.8070 H   0  0  0  0  0  0  0  0  0  0  0  0
   41.4850   32.6280   41.0050 H   0  0  0  0  0  0  0  0  0  0  0  0
   42.5060   30.4090   40.6920 H   0  0  0  0  0  0  0  0  0  0  0  0
   41.1980   28.6670   39.6680 H   0  0  0  0  0  0  0  0  0  0  0  0
   38.7750   28.8010   38.8040 N   0  0  0  0  0  0  0  0  0  0  0  0
   38.4200   28.2480   39.6430 H   0  0  0  0  0  0  0  0  0  0  0  0
   38.6250   28.4730   37.8260 H   0  0  0  0  0  0  0  0  0  0  0  0
   36.2270   29.3720   35.0000 C   0  0  0  0  0  0  0  0  0  0  0  0
   35.1600   28.8830   34.3010 F   0  0  0  0  0  0  0  0  0  0  0  0
   37.3860   28.6630   34.7190 F   0  0  0  0  0  0  0  0  0  0  0  0
   36.5460   30.6930   34.6120 F   0  0  0  0  0  0  0  0  0  0  0  0
   35.6550   29.7160   40.6320 C   0  0  0  0  0  0  0  0  0  0  0  0
   36.1520   30.6930   40.8720 H   0  0  0  0  0  0  0  0  0  0  0  0
   34.5880   29.8550   40.9330 H   0  0  0  0  0  0  0  0  0  0  0  0
   36.3630   28.6590   41.4160 C   0  0  0  0  0  0  0  0  0  0  0  0
   35.6500   28.0880   42.0230 H   0  0  0  0  0  0  0  0  0  0  0  0
   36.9350   28.0400   40.7280 H   0  0  0  0  0  0  0  0  0  0  0  0
   37.3350   29.2720   42.4250 C   0  0  0  0  0  3  0  0  0  0  0  0
   37.4790   28.4450   43.6790 C   0  0  0  0  0  2  0  0  0  0  0  0
   38.6090   28.4650   42.7110 C   0  0  0  0  0  2  0  0  0  0  0  0
  1  7  1  0  0  0  0
  1  2  1  0  0  0  0
  2 31  1  0  0  0  0
  3  8  1  0  0  0  0
  3  2  2  0  0  0  0
  4  3  1  0  0  0  0
  5  6  1  0  0  0  0
  5  4  2  0  0  0  0
  6  1  2  0  0  0  0
  8  9  2  0  0  0  0
  8 17  1  0  0  0  0
  9 10  1  0  0  0  0
 10 19  1  0  0  0  0
 10 11  2  0  0  0  0
 11 20  1  0  0  0  0
 12 11  1  0  0  0  0
 12 13  1  0  0  0  0
 13 21  1  0  0  0  0
 14 13  2  0  0  0  0
 14 22  1  0  0  0  0
 15 14  1  0  0  0  0
 16 17  1  0  0  0  0
 16 15  2  0  0  0  0
 17 12  2  0  0  0  0
 18  9  1  0  0  0  0
 23 15  1  0  0  0  0
 24 16  1  0  0  0  0
 24 25  1  0  0  0  0
 26 24  1  0  0  0  0
 27  5  1  0  0  0  0
 28 27  1  0  0  0  0
 29 27  1  0  0  0  0
 30 27  1  0  0  0  0
 31 32  1  0  0  0  0
 31 33  1  0  0  0  0
 31 34  1  0  0  0  0
 34 35  1  0  0  0  0
 34 37  1  0  0  0  0
 36 34  1  0  0  0  0
 37 39  1  0  0  0  0
 37 38  1  0  0  0  0
 39 38  1  0  0  0  0
M  END
>  <minimizedAffinity>
-5.72796679

$$$$

 OpenBabel03252500053D

 39 42  0  0  0  0  0  0  0  0999 V2000
   37.2060   29.8690   37.7940 C   0  0  0  0  0  0  0  0  0  0  0  0
   37.4950   29.1700   38.9590 C   0  0  0  0  0  0  0  0  0  0  0  0
   36.5280   28.3630   39.5450 C   0  0  0  0  0  0  0  0  0  0  0  0
   35.3450   28.3510   38.8720 N   0  0  0  0  0  0  0  0  0  0  0  0
   35.0690   29.0100   37.7700 C   0  0  0  0  0  0  0  0  0  0  0  0
   36.0130   29.7660   37.2430 N   0  0  0  0  0  0  0  0  0  0  0  0
   37.9850   30.4910   37.3600 H   0  0  0  0  0  0  0  0  0  0  0  0
   36.6740   27.5900   40.7220 C   0  0  0  0  0  0  0  0  0  0  0  0
   36.4510   28.2380   41.9260 C   0  0  0  0  0  0  0  0  0  0  0  0
   36.5490   27.6410   43.1700 C   0  0  0  0  0  0  0  0  0  0  0  0
   36.8830   26.3310   43.2700 C   0  0  0  0  0  0  0  0  0  0  0  0
   37.1180   25.6270   42.1160 C   0  0  0  0  0  0  0  0  0  0  0  0
   37.4590   24.3080   42.1430 C   0  0  0  0  0  0  0  0  0  0  0  0
   37.7010   23.5690   41.0150 C   0  0  0  0  0  0  0  0  0  0  0  0
   37.5880   24.2270   39.7800 C   0  0  0  0  0  0  0  0  0  0  0  0
   37.2400   25.5690   39.7940 C   0  0  0  0  0  0  0  0  0  0  0  0
   37.0060   26.2780   40.9030 C   0  0  0  0  0  0  0  0  0  0  0  0
   36.1750   29.2990   41.9670 H   0  0  0  0  0  0  0  0  0  0  0  0
   36.3660   28.1870   44.0850 H   0  0  0  0  0  0  0  0  0  0  0  0
   36.9710   25.8230   44.2200 H   0  0  0  0  0  0  0  0  0  0  0  0
   37.5400   23.8210   43.1090 H   0  0  0  0  0  0  0  0  0  0  0  0
   37.9720   22.5190   41.0640 H   0  0  0  0  0  0  0  0  0  0  0  0
   37.7850   23.6180   38.9310 H   0  0  0  0  0  0  0  0  0  0  0  0
   37.1810   26.0790   38.4600 N   0  0  0  0  0  0  0  0  0  0  0  0
   36.2040   25.8010   38.1360 H   0  0  0  0  0  0  0  0  0  0  0  0
   37.8390   26.5940   37.8400 H   0  0  0  0  0  0  0  0  0  0  0  0
   33.6760   28.8050   37.2490 C   0  0  0  0  0  0  0  0  0  0  0  0
   33.4990   29.4260   36.0450 F   0  0  0  0  0  0  0  0  0  0  0  0
   32.7520   29.2430   38.1860 F   0  0  0  0  0  0  0  0  0  0  0  0
   33.4270   27.4160   37.1630 F   0  0  0  0  0  0  0  0  0  0  0  0
   38.7980   29.2180   39.6480 C   0  0  0  0  0  0  0  0  0  0  0  0
   38.7200   28.5100   40.5150 H   0  0  0  0  0  0  0  0  0  0  0  0
   39.5850   28.7770   38.9880 H   0  0  0  0  0  0  0  0  0  0  0  0
   39.1670   30.5550   40.2050 C   0  0  0  0  0  0  0  0  0  0  0  0
   40.2200   30.7820   39.9960 H   0  0  0  0  0  0  0  0  0  0  0  0
   38.4800   31.2990   39.8060 H   0  0  0  0  0  0  0  0  0  0  0  0
   39.0560   30.5730   41.7290 C   0  0  0  0  0  3  0  0  0  0  0  0
   39.8820   29.4970   42.3910 C   0  0  0  0  0  2  0  0  0  0  0  0
   40.3440   30.9080   42.4960 C   0  0  0  0  0  2  0  0  0  0  0  0
  1  2  1  0  0  0  0
  2  3  2  0  0  0  0
  2 31  1  0  0  0  0
  3  8  1  0  0  0  0
  4  3  1  0  0  0  0
  5  4  2  0  0  0  0
  6  5  1  0  0  0  0
  6  1  2  0  0  0  0
  7  1  1  0  0  0  0
  8 17  2  0  0  0  0
  8  9  1  0  0  0  0
  9 18  1  0  0  0  0
  9 10  2  0  0  0  0
 10 11  1  0  0  0  0
 10 19  1  0  0  0  0
 11 20  1  0  0  0  0
 12 13  1  0  0  0  0
 12 11  2  0  0  0  0
 13 21  1  0  0  0  0
 14 22  1  0  0  0  0
 14 13  2  0  0  0  0
 15 16  2  0  0  0  0
 15 14  1  0  0  0  0
 16 17  1  0  0  0  0
 17 12  1  0  0  0  0
 23 15  1  0  0  0  0
 24 16  1  0  0  0  0
 25 24  1  0  0  0  0
 26 24  1  0  0  0  0
 27  5  1  0  0  0  0
 27 29  1  0  0  0  0
 28 27  1  0  0  0  0
 30 27  1  0  0  0  0
 31 34  1  0  0  0  0
 31 32  1  0  0  0  0
 33 31  1  0  0  0  0
 34 37  1  0  0  0  0
 35 34  1  0  0  0  0
 36 34  1  0  0  0  0
 37 38  1  0  0  0  0
 37 39  1  0  0  0  0
 38 39  1  0  0  0  0
M  END
>  <minimizedAffinity>
-5.62200165

$$$$

 OpenBabel03252500053D

 39 42  0  0  0  0  0  0  0  0999 V2000
   36.8620   27.1530   39.3520 C   0  0  0  0  0  0  0  0  0  0  0  0
   37.1730   28.4710   39.0390 C   0  0  0  0  0  0  0  0  0  0  0  0
   37.5720   29.3490   40.0390 C   0  0  0  0  0  0  0  0  0  0  0  0
   37.6140   28.7850   41.2770 N   0  0  0  0  0  0  0  0  0  0  0  0
   37.3210   27.5390   41.5760 C   0  0  0  0  0  0  0  0  0  0  0  0
   36.9460   26.7350   40.5990 N   0  0  0  0  0  0  0  0  0  0  0  0
   36.5530   26.4920   38.5460 H   0  0  0  0  0  0  0  0  0  0  0  0
   37.9250   30.7100   39.8750 C   0  0  0  0  0  0  0  0  0  0  0  0
   36.8900   31.6300   39.9060 C   0  0  0  0  0  0  0  0  0  0  0  0
   37.0500   32.9970   39.7640 C   0  0  0  0  0  0  0  0  0  0  0  0
   38.2860   33.5200   39.5790 C   0  0  0  0  0  0  0  0  0  0  0  0
   39.3580   32.6660   39.5380 C   0  0  0  0  0  0  0  0  0  0  0  0
   40.6290   33.1240   39.3550 C   0  0  0  0  0  0  0  0  0  0  0  0
   41.7250   32.3040   39.3090 C   0  0  0  0  0  0  0  0  0  0  0  0
   41.5040   30.9250   39.4590 C   0  0  0  0  0  0  0  0  0  0  0  0
   40.1980   30.4990   39.6430 C   0  0  0  0  0  0  0  0  0  0  0  0
   39.1360   31.3100   39.6860 C   0  0  0  0  0  0  0  0  0  0  0  0
   35.8480   31.3210   40.0490 H   0  0  0  0  0  0  0  0  0  0  0  0
   36.2120   33.6800   39.7930 H   0  0  0  0  0  0  0  0  0  0  0  0
   38.4580   34.5810   39.4630 H   0  0  0  0  0  0  0  0  0  0  0  0
   40.7750   34.1920   39.2420 H   0  0  0  0  0  0  0  0  0  0  0  0
   42.7270   32.6940   39.1610 H   0  0  0  0  0  0  0  0  0  0  0  0
   42.3810   30.3260   39.4170 H   0  0  0  0  0  0  0  0  0  0  0  0
   40.1550   29.0760   39.7670 N   0  0  0  0  0  0  0  0  0  0  0  0
   40.3810   28.9130   40.7950 H   0  0  0  0  0  0  0  0  0  0  0  0
   39.9730   28.2860   39.1120 H   0  0  0  0  0  0  0  0  0  0  0  0
   37.4580   27.1950   43.0300 C   0  0  0  0  0  0  0  0  0  0  0  0
   36.2370   27.0250   43.6190 F   0  0  0  0  0  0  0  0  0  0  0  0
   38.2020   28.1700   43.6790 F   0  0  0  0  0  0  0  0  0  0  0  0
   38.2610   26.0360   43.1460 F   0  0  0  0  0  0  0  0  0  0  0  0
   37.1110   29.0320   37.6760 C   0  0  0  0  0  0  0  0  0  0  0  0
   37.7600   29.9460   37.6840 H   0  0  0  0  0  0  0  0  0  0  0  0
   37.6110   28.3320   36.9620 H   0  0  0  0  0  0  0  0  0  0  0  0
   35.7510   29.4630   37.2330 C   0  0  0  0  0  0  0  0  0  0  0  0
   35.5780   30.5150   37.4900 H   0  0  0  0  0  0  0  0  0  0  0  0
   35.6510   29.2590   36.1690 H   0  0  0  0  0  0  0  0  0  0  0  0
   34.6560   28.6930   37.9710 C   0  0  0  0  0  3  0  0  0  0  0  0
   33.2710   29.0050   37.4590 C   0  0  0  0  0  2  0  0  0  0  0  0
   33.8630   27.6780   37.1350 C   0  0  0  0  0  2  0  0  0  0  0  0
  1  6  1  0  0  0  0
  2  1  2  0  0  0  0
  2  3  1  0  0  0  0
  3  4  2  0  0  0  0
  4  5  1  0  0  0  0
  5 27  1  0  0  0  0
  6  5  2  0  0  0  0
  7  1  1  0  0  0  0
  8  9  1  0  0  0  0
  8  3  1  0  0  0  0
  9 18  1  0  0  0  0
 10 19  1  0  0  0  0
 10  9  2  0  0  0  0
 11 10  1  0  0  0  0
 12 11  2  0  0  0  0
 12 17  1  0  0  0  0
 13 12  1  0  0  0  0
 14 13  2  0  0  0  0
 14 15  1  0  0  0  0
 15 16  2  0  0  0  0
 16 17  1  0  0  0  0
 16 24  1  0  0  0  0
 17  8  2  0  0  0  0
 20 11  1  0  0  0  0
 21 13  1  0  0  0  0
 22 14  1  0  0  0  0
 23 15  1  0  0  0  0
 24 25  1  0  0  0  0
 26 24  1  0  0  0  0
 27 30  1  0  0  0  0
 27 28  1  0  0  0  0
 27 29  1  0  0  0  0
 31 32  1  0  0  0  0
 31  2  1  0  0  0  0
 33 31  1  0  0  0  0
 34 35  1  0  0  0  0
 34 31  1  0  0  0  0
 34 37  1  0  0  0  0
 36 34  1  0  0  0  0
 38 37  1  0  0  0  0
 39 38  1  0  0  0  0
 39 37  1  0  0  0  0
M  END
>  <minimizedAffinity>
-5.62171698

$$$$
