
 OpenBabel03252509343D

 37 39  0  0  1  0  0  0  0  0999 V2000
   46.2870   33.4990   42.0070 C   0  0  1  0  0  0  0  0  0  0  0  0
   45.8970   34.3160   40.7960 C   0  0  0  0  0  0  0  0  0  0  0  0
   45.9280   33.2680   39.7150 C   0  0  0  0  0  0  0  0  0  0  0  0
   46.9080   32.2070   40.1800 C   0  0  0  0  0  0  0  0  0  0  0  0
   47.5140   32.7560   41.4720 C   0  0  1  0  0  0  0  0  0  0  0  0
   45.4970   32.7800   42.2090 H   0  0  0  0  0  0  0  0  0  0  0  0
   44.8050   34.5970   40.8990 H   0  0  0  0  0  0  0  0  0  0  0  0
   46.5240   35.1850   40.6250 H   0  0  0  0  0  0  0  0  0  0  0  0
   46.2970   33.7400   38.7820 H   0  0  0  0  0  0  0  0  0  0  0  0
   44.9330   32.8240   39.5010 H   0  0  0  0  0  0  0  0  0  0  0  0
   47.5880   31.9370   39.4130 H   0  0  0  0  0  0  0  0  0  0  0  0
   46.3020   31.3160   40.5480 H   0  0  0  0  0  0  0  0  0  0  0  0
   47.7130   31.9600   42.1960 H   0  0  0  0  0  0  0  0  0  0  0  0
   48.6850   33.6530   41.2800 C   0  0  0  0  0  0  0  0  0  0  0  0
   48.6530   34.4250   42.1140 H   0  0  0  0  0  0  0  0  0  0  0  0
   48.6090   34.2390   40.3240 H   0  0  0  0  0  0  0  0  0  0  0  0
   49.9850   32.9450   41.4040 C   0  0  0  0  0  3  0  0  0  0  0  0
   51.0390   33.2460   42.3820 C   0  0  0  0  0  2  0  0  0  0  0  0
   50.3170   31.8840   42.3490 C   0  0  0  0  0  2  0  0  0  0  0  0
   46.6130   34.2940   43.1010 O   0  0  0  0  0  0  0  0  0  0  0  0
   44.6480   35.3160   44.4580 O   0  0  0  0  0  0  0  0  0  0  0  0
   45.4800   34.0760   44.3270 P   0  0  1  0  0  0  0  0  0  0  0  0
   44.5350   32.7140   44.0240 O   0  0  0  0  0  0  0  0  0  0  0  0
   44.1210   32.8430   43.1490 H   0  0  0  0  0  0  0  0  0  0  0  0
   46.2910   33.7530   45.7660 O   0  0  0  0  0  0  0  0  0  0  0  0
   46.6560   32.4550   45.7900 C   0  0  0  0  0  0  0  0  0  0  0  0
   46.4880   31.8360   44.9140 H   0  0  0  0  0  0  0  0  0  0  0  0
   47.7750   32.4330   45.9440 H   0  0  0  0  0  0  0  0  0  0  0  0
   45.5380   31.6570   49.2480 C   0  0  0  0  0  0  0  0  0  0  0  0
   46.0700   32.3580   48.1560 C   0  0  0  0  0  0  0  0  0  0  0  0
   46.0960   31.7230   46.9380 C   0  0  0  0  0  0  0  0  0  0  0  0
   45.6070   30.4510   46.8580 N   0  0  0  0  0  0  0  0  0  0  0  0
   45.1030   29.7990   47.9140 C   0  0  0  0  0  0  0  0  0  0  0  0
   45.0720   30.4030   49.0970 N   0  0  0  0  0  0  0  0  0  0  0  0
   45.5390   32.2030   50.1880 H   0  0  0  0  0  0  0  0  0  0  0  0
   46.4430   33.3730   48.2960 H   0  0  0  0  0  0  0  0  0  0  0  0
   44.7180   28.7890   47.8400 H   0  0  0  0  0  0  0  0  0  0  0  0
  1  6  1  1  0  0  0
  1 20  1  0  0  0  0
  2  7  1  0  0  0  0
  2  1  1  0  0  0  0
  3  4  1  0  0  0  0
  3  2  1  0  0  0  0
  4 12  1  0  0  0  0
  4  5  1  0  0  0  0
  5  1  1  0  0  0  0
  5 13  1  1  0  0  0
  8  2  1  0  0  0  0
  9  3  1  0  0  0  0
 10  3  1  0  0  0  0
 11  4  1  0  0  0  0
 14 17  1  0  0  0  0
 14  5  1  0  0  0  0
 14 15  1  0  0  0  0
 16 14  1  0  0  0  0
 17 19  1  0  0  0  0
 17 18  1  0  0  0  0
 19 18  1  0  0  0  0
 20 22  1  0  0  0  0
 22 21  2  1  0  0  0
 22 25  1  0  0  0  0
 23 22  1  0  0  0  0
 24 23  1  0  0  0  0
 25 26  1  0  0  0  0
 26 28  1  0  0  0  0
 26 31  1  0  0  0  0
 27 26  1  0  0  0  0
 29 35  1  0  0  0  0
 30 36  1  0  0  0  0
 30 29  2  0  0  0  0
 31 30  1  0  0  0  0
 32 31  2  0  0  0  0
 32 33  1  0  0  0  0
 33 34  2  0  0  0  0
 34 29  1  0  0  0  0
 37 33  1  0  0  0  0
M  END
>  <minimizedAffinity>
-4.59185219

>  <minimizedRMSD>
1.4815222

$$$$
