
 OpenBabel03242519483D

 32 34  0  0  1  0  0  0  0  0999 V2000
   46.6090   32.9130   46.7470 C   0  0  2  0  0  0  0  0  0  0  0  0
   47.0600   32.7920   45.3430 C   0  0  1  0  0  0  0  0  0  0  0  0
   46.6130   31.4490   44.9480 O   0  0  0  0  0  0  0  0  0  0  0  0
   47.2530   30.7630   46.0010 C   0  0  0  0  0  0  0  0  0  0  0  0
   46.5700   31.4660   47.2180 C   0  0  2  0  0  0  0  0  0  0  0  0
   47.2670   33.5290   47.3860 H   0  0  0  0  0  0  0  0  0  0  0  0
   48.1760   32.7470   45.2620 H   0  0  0  0  0  0  0  0  0  0  0  0
   47.0760   29.7010   45.9810 H   0  0  0  0  0  0  0  0  0  0  0  0
   48.3310   30.9800   45.9880 H   0  0  0  0  0  0  0  0  0  0  0  0
   47.2160   31.2610   48.0940 H   0  0  0  0  0  0  0  0  0  0  0  0
   44.7180   35.2290   43.9930 C   0  0  0  0  0  0  0  0  0  0  0  0
   45.3410   35.6850   42.8240 C   0  0  0  0  0  0  0  0  0  0  0  0
   46.5900   35.1450   42.4740 C   0  0  0  0  0  0  0  0  0  0  0  0
   47.1380   34.2050   43.2890 N   0  0  0  0  0  0  0  0  0  0  0  0
   46.5170   33.7810   44.4110 C   0  0  0  0  0  0  0  0  0  0  0  0
   45.3040   34.2850   44.7750 N   0  0  0  0  0  0  0  0  0  0  0  0
   44.8710   36.4320   42.2080 H   0  0  0  0  0  0  0  0  0  0  0  0
   47.1050   35.4580   41.5970 H   0  0  0  0  0  0  0  0  0  0  0  0
   43.4750   35.7420   44.3790 O   0  0  0  0  0  0  0  0  0  0  0  0
   43.5070   36.3280   45.2190 H   0  0  0  0  0  0  0  0  0  0  0  0
   45.2690   33.4230   46.7760 O   0  0  0  0  0  0  0  0  0  0  0  0
   44.6210   32.7310   46.9740 H   0  0  0  0  0  0  0  0  0  0  0  0
   45.3100   30.9700   47.2530 O   0  0  0  0  0  0  0  0  0  0  0  0
   45.0390   29.8580   48.0060 C   0  0  0  0  0  0  0  0  0  0  0  0
   45.6000   29.7830   48.9420 H   0  0  0  0  0  0  0  0  0  0  0  0
   43.9690   30.1120   48.4450 H   0  0  0  0  0  0  0  0  0  0  0  0
   44.7810   28.6140   47.2440 C   0  0  0  0  0  0  0  0  0  0  0  0
   43.7870   28.5770   46.7580 H   0  0  0  0  0  0  0  0  0  0  0  0
   45.6300   28.4600   46.5230 H   0  0  0  0  0  0  0  0  0  0  0  0
   44.7590   27.3850   48.1680 C   0  0  0  0  0  0  0  0  0  0  0  0
   43.9150   26.2620   47.5960 C   0  0  0  0  0  0  0  0  0  0  0  0
   45.3840   26.1230   47.7640 C   0  0  0  0  0  0  0  0  0  0  0  0
  1 21  1  0  0  0  0
  1  5  1  0  0  0  0
  1  6  1  1  0  0  0
  2  7  1  6  0  0  0
  2  1  1  0  0  0  0
  3  2  1  0  0  0  0
  3  4  1  0  0  0  0
  4  5  1  0  0  0  0
  5 23  1  0  0  0  0
  5 10  1  1  0  0  0
  8  4  1  0  0  0  0
  9  4  1  0  0  0  0
 11 19  1  0  0  0  0
 11 16  1  0  0  0  0
 12 11  2  0  0  0  0
 13 12  1  0  0  0  0
 13 14  2  0  0  0  0
 14 15  1  0  0  0  0
 15 16  2  0  0  0  0
 15  2  1  0  0  0  0
 17 12  1  0  0  0  0
 18 13  1  0  0  0  0
 19 20  1  0  0  0  0
 21 22  1  0  0  0  0
 23 24  1  0  0  0  0
 24 26  1  0  0  0  0
 24 25  1  0  0  0  0
 27 24  1  0  0  0  0
 27 30  1  0  0  0  0
 28 27  1  0  0  0  0
 29 27  1  0  0  0  0
 31 32  1  0  0  0  0
 31 30  1  0  0  0  0
 32 30  1  0  0  0  0
M  END
>  <minimizedAffinity>
-5.0827446

>  <minimizedRMSD>
1.02857339

$$$$
