
 OpenBabel03252508503D

 22 24  0  0  0  0  0  0  0  0999 V2000
   45.9750   34.2000   41.0330 C   0  0  0  0  0  0  0  0  0  0  0  0
   46.5520   34.8130   42.1410 C   0  0  0  0  0  0  0  0  0  0  0  0
   47.9050   35.1780   42.0410 C   0  0  0  0  0  0  0  0  0  0  0  0
   48.5600   34.9110   40.8730 N   0  0  0  0  0  0  0  0  0  0  0  0
   47.9480   34.3160   39.8320 C   0  0  0  0  0  0  0  0  0  0  0  0
   46.6500   33.9510   39.8940 N   0  0  0  0  0  0  0  0  0  0  0  0
   48.3700   35.6560   42.8950 H   0  0  0  0  0  0  0  0  0  0  0  0
   48.5180   34.1260   38.9210 H   0  0  0  0  0  0  0  0  0  0  0  0
   45.7660   35.0520   43.3390 C   0  0  0  0  0  0  0  0  0  0  0  0
   45.0720   36.2230   43.5620 C   0  0  0  0  0  0  0  0  0  0  0  0
   44.4820   36.0240   44.7900 C   0  0  0  0  0  0  0  0  0  0  0  0
   44.7960   34.8080   45.2880 N   0  0  0  0  0  0  0  0  0  0  0  0
   45.5710   34.2410   44.3930 N   0  0  0  0  0  0  0  0  0  0  0  0
   45.0070   37.0960   42.9190 H   0  0  0  0  0  0  0  0  0  0  0  0
   43.8440   36.7740   45.2800 H   0  0  0  0  0  0  0  0  0  0  0  0
   44.4790   34.3990   46.2100 H   0  0  0  0  0  0  0  0  0  0  0  0
   44.6370   33.8350   41.1200 O   0  0  0  0  0  0  0  0  0  0  0  0
   43.5870   34.4750   40.5210 C   0  0  0  0  0  0  0  0  0  0  0  0
   43.1570   35.6550   40.7260 O   0  0  0  0  0  0  0  0  0  0  0  0
   42.5670   34.1210   39.4610 C   0  0  0  0  0  3  0  0  0  0  0  0
   41.5820   33.0210   39.7520 C   0  0  0  0  0  2  0  0  0  0  0  0
   41.1570   34.4530   39.6530 C   0  0  0  0  0  2  0  0  0  0  0  0
  1 17  1  0  0  0  0
  1  2  1  0  0  0  0
  2  9  1  0  0  0  0
  3  2  2  0  0  0  0
  3  7  1  0  0  0  0
  4  3  1  0  0  0  0
  5  6  1  0  0  0  0
  5  4  2  0  0  0  0
  6  1  2  0  0  0  0
  8  5  1  0  0  0  0
  9 10  1  0  0  0  0
  9 13  2  0  0  0  0
 10 11  2  0  0  0  0
 11 15  1  0  0  0  0
 11 12  1  0  0  0  0
 12 16  1  0  0  0  0
 13 12  1  0  0  0  0
 14 10  1  0  0  0  0
 18 19  2  0  0  0  0
 18 17  1  0  0  0  0
 20 22  1  0  0  0  0
 20 21  1  0  0  0  0
 20 18  1  0  0  0  0
 22 21  1  0  0  0  0
M  END
>  <minimizedAffinity>
-4.72951031

>  <minimizedRMSD>
0.2370985

$$$$
