
 OpenBabel03242521423D

 28 30  0  0  1  0  0  0  0  0999 V2000
   45.1550   34.3870   41.2570 C   0  0  0  0  0  0  0  0  0  0  0  0
   46.3530   33.6560   41.3960 C   0  0  0  0  0  0  0  0  0  0  0  0
   47.1960   33.9860   42.4580 C   0  0  0  0  0  0  0  0  0  0  0  0
   46.8270   34.9730   43.2880 N   0  0  0  0  0  0  0  0  0  0  0  0
   45.6600   35.6530   43.1180 C   0  0  0  0  0  0  0  0  0  0  0  0
   44.8340   35.3640   42.1150 N   0  0  0  0  0  0  0  0  0  0  0  0
   46.5430   32.8790   40.6610 H   0  0  0  0  0  0  0  0  0  0  0  0
   45.4450   36.4280   43.8320 H   0  0  0  0  0  0  0  0  0  0  0  0
   49.6810   33.9900   42.2900 C   0  0  2  0  0  0  0  0  0  0  0  0
   48.4240   33.2170   42.5780 C   0  0  2  0  0  0  0  0  0  0  0  0
   48.5530   32.1690   41.6400 O   0  0  0  0  0  0  0  0  0  0  0  0
   49.8300   31.6970   41.8670 C   0  0  0  0  0  0  0  0  0  0  0  0
   50.6860   32.8240   42.3670 C   0  0  1  0  0  0  0  0  0  0  0  0
   49.7480   34.3240   41.2360 H   0  0  0  0  0  0  0  0  0  0  0  0
   48.5050   32.7690   43.5890 H   0  0  0  0  0  0  0  0  0  0  0  0
   50.2520   31.1520   41.0250 H   0  0  0  0  0  0  0  0  0  0  0  0
   49.7290   30.9640   42.7110 H   0  0  0  0  0  0  0  0  0  0  0  0
   50.9950   32.7320   43.4190 H   0  0  0  0  0  0  0  0  0  0  0  0
   49.9300   34.9850   43.2010 O   0  0  0  0  0  0  0  0  0  0  0  0
   50.5310   35.6610   42.8030 H   0  0  0  0  0  0  0  0  0  0  0  0
   51.7780   33.1050   41.5740 O   0  0  0  0  0  0  0  0  0  0  0  0
   52.5660   33.3990   42.0910 H   0  0  0  0  0  0  0  0  0  0  0  0
   44.2480   34.0280   40.0950 C   0  0  0  0  0  0  0  0  0  0  0  0
   43.9050   32.9810   40.1800 H   0  0  0  0  0  0  0  0  0  0  0  0
   44.8090   34.2140   39.1650 H   0  0  0  0  0  0  0  0  0  0  0  0
   42.9980   34.9110   40.1390 C   0  0  0  0  0  0  0  0  0  0  0  0
   42.2720   35.1730   38.8190 C   0  0  0  0  0  0  0  0  0  0  0  0
   41.6810   34.2700   39.8450 C   0  0  0  0  0  0  0  0  0  0  0  0
  1  2  2  0  0  0  0
  1  6  1  0  0  0  0
  2  3  1  0  0  0  0
  3 10  1  0  0  0  0
  3  4  2  0  0  0  0
  5  4  1  0  0  0  0
  5  8  1  0  0  0  0
  6  5  2  0  0  0  0
  7  2  1  0  0  0  0
  9 14  1  6  0  0  0
  9 13  1  0  0  0  0
  9 10  1  0  0  0  0
  9 19  1  0  0  0  0
 10 15  1  1  0  0  0
 11 12  1  0  0  0  0
 11 10  1  0  0  0  0
 12 13  1  0  0  0  0
 12 17  1  0  0  0  0
 13 18  1  1  0  0  0
 16 12  1  0  0  0  0
 20 19  1  0  0  0  0
 21 22  1  0  0  0  0
 21 13  1  0  0  0  0
 23 26  1  0  0  0  0
 23 24  1  0  0  0  0
 23  1  1  0  0  0  0
 25 23  1  0  0  0  0
 27 28  1  0  0  0  0
 27 26  1  0  0  0  0
 28 26  1  0  0  0  0
M  END
>  <minimizedAffinity>
-4.78402042

>  <minimizedRMSD>
3.2669518

$$$$
