
 OpenBabel03252509293D

 15 16  0  0  0  0  0  0  0  0999 V2000
   44.5500   36.0170   44.4950 C   0  0  0  0  0  0  0  0  0  0  0  0
   45.2960   35.9170   43.3070 C   0  0  0  0  0  0  0  0  0  0  0  0
   46.1790   34.8500   43.2070 C   0  0  0  0  0  0  0  0  0  0  0  0
   46.2820   33.9690   44.2340 N   0  0  0  0  0  0  0  0  0  0  0  0
   45.5480   34.0990   45.3600 C   0  0  0  0  0  0  0  0  0  0  0  0
   44.6860   35.1280   45.4740 N   0  0  0  0  0  0  0  0  0  0  0  0
   43.8440   36.8280   44.6340 H   0  0  0  0  0  0  0  0  0  0  0  0
   45.1310   36.6680   42.5690 H   0  0  0  0  0  0  0  0  0  0  0  0
   45.6000   33.4210   46.1980 H   0  0  0  0  0  0  0  0  0  0  0  0
   46.9520   34.7530   41.9680 C   0  0  0  0  0  0  0  0  0  0  0  0
   47.3550   35.7470   41.6970 H   0  0  0  0  0  0  0  0  0  0  0  0
   46.2180   34.5100   41.1550 H   0  0  0  0  0  0  0  0  0  0  0  0
   48.0120   33.6990   42.0870 C   0  0  0  0  0  3  0  0  0  0  0  0
   47.7710   32.4700   41.2390 C   0  0  0  0  0  2  0  0  0  0  0  0
   48.9420   33.4010   40.9760 C   0  0  0  0  0  2  0  0  0  0  0  0
  1  7  1  0  0  0  0
  1  6  1  0  0  0  0
  2  1  2  0  0  0  0
  3  2  1  0  0  0  0
  3  4  2  0  0  0  0
  4  5  1  0  0  0  0
  5  6  2  0  0  0  0
  5  9  1  0  0  0  0
  8  2  1  0  0  0  0
 10 13  1  0  0  0  0
 10  3  1  0  0  0  0
 11 10  1  0  0  0  0
 12 10  1  0  0  0  0
 14 13  1  0  0  0  0
 15 14  1  0  0  0  0
 15 13  1  0  0  0  0
M  END
>  <minimizedAffinity>
-3.31810689

>  <minimizedRMSD>
0.298774928

$$$$
