
 OpenBabel03242510503D

 16 17  0  0  0  0  0  0  0  0999 V2000
   44.5610   35.9540   44.6240 C   0  0  0  0  0  0  0  0  0  0  0  0
   45.3110   35.5400   43.4970 C   0  0  0  0  0  0  0  0  0  0  0  0
   46.0610   34.3550   43.6200 C   0  0  0  0  0  0  0  0  0  0  0  0
   46.0320   33.6780   44.7870 N   0  0  0  0  0  0  0  0  0  0  0  0
   45.3020   34.1020   45.8460 C   0  0  0  0  0  0  0  0  0  0  0  0
   44.5690   35.2460   45.7500 N   0  0  0  0  0  0  0  0  0  0  0  0
   46.3280   32.3660   47.1630 C   0  0  0  0  0  0  0  0  0  0  0  0
   47.2120   32.1060   46.3010 O   0  0  0  0  0  0  0  0  0  0  0  0
   45.3080   33.3480   47.0560 N   0  0  0  0  0  0  0  0  0  0  0  0
   44.0300   36.8560   44.4320 H   0  0  0  0  0  0  0  0  0  0  0  0
   45.3700   36.0350   42.5520 H   0  0  0  0  0  0  0  0  0  0  0  0
   46.6590   33.9730   42.8070 H   0  0  0  0  0  0  0  0  0  0  0  0
   44.5860   33.5430   47.7860 H   0  0  0  0  0  0  0  0  0  0  0  0
   46.3980   31.5370   48.3980 C   0  0  0  0  0  0  0  0  0  0  0  0
   45.1970   31.6060   49.2820 C   0  0  0  0  0  0  0  0  0  0  0  0
   45.4580   30.3610   48.5120 C   0  0  0  0  0  0  0  0  0  0  0  0
  1  6  1  0  0  0  0
  2  3  1  0  0  0  0
  2  1  2  0  0  0  0
  3  4  2  0  0  0  0
  4  5  1  0  0  0  0
  5  9  1  0  0  0  0
  6  5  2  0  0  0  0
  7 14  1  0  0  0  0
  8  7  2  0  0  0  0
  9  7  1  0  0  0  0
  9 13  1  0  0  0  0
 10  1  1  0  0  0  0
 11  2  1  0  0  0  0
 12  3  1  0  0  0  0
 14 16  1  0  0  0  0
 14 15  1  0  0  0  0
 16 15  1  0  0  0  0
M  END
>  <minimizedAffinity>
-4.88385391

>  <minimizedRMSD>
0.468533099

$$$$
