
 OpenBabel03252508153D

 31 34  0  0  1  0  0  0  0  0999 V2000
   47.2230   31.1380   46.8220 C   0  0  0  0  0  0  0  0  0  0  0  0
   46.5540   30.2680   46.6550 H   0  0  0  0  0  0  0  0  0  0  0  0
   48.2820   30.8880   46.7500 H   0  0  0  0  0  0  0  0  0  0  0  0
   46.8850   31.7060   48.1800 C   0  0  1  0  0  0  0  0  0  0  0  0
   46.2480   30.7690   49.1450 C   0  0  0  0  0  0  0  0  0  0  0  0
   47.6090   31.2120   49.3760 C   0  0  1  0  0  0  0  0  0  0  0  0
   46.5930   32.7760   48.2140 H   0  0  0  0  0  0  0  0  0  0  0  0
   46.0520   29.7250   48.8190 H   0  0  0  0  0  0  0  0  0  0  0  0
   45.4070   31.1680   49.7710 H   0  0  0  0  0  0  0  0  0  0  0  0
   47.7250   31.9430   50.2340 H   0  0  0  0  0  0  0  0  0  0  0  0
   48.8240   30.3920   49.1650 C   0  0  0  0  0  0  0  0  0  0  0  0
   49.7100   30.2240   50.4270 C   0  0  0  0  0  0  0  0  0  0  0  0
   50.1740   31.1060   49.3350 C   0  0  0  0  0  0  0  0  0  0  0  0
   48.8060   29.5340   48.4620 H   0  0  0  0  0  0  0  0  0  0  0  0
   49.2970   30.5910   51.3750 H   0  0  0  0  0  0  0  0  0  0  0  0
   50.2070   29.2240   50.4930 H   0  0  0  0  0  0  0  0  0  0  0  0
   50.1000   32.2030   49.5820 H   0  0  0  0  0  0  0  0  0  0  0  0
   50.9960   30.7660   48.6920 H   0  0  0  0  0  0  0  0  0  0  0  0
   46.0690   33.0830   46.1150 C   0  0  0  0  0  3  0  0  0  0  0  0
   46.8320   32.1320   45.7360 C   0  0  0  0  0  3  0  0  0  0  0  0
   44.4430   35.9910   44.5460 C   0  0  0  0  0  0  0  0  0  0  0  0
   44.8080   35.8820   43.2110 C   0  0  0  0  0  0  0  0  0  0  0  0
   45.6200   34.8100   42.8800 C   0  0  0  0  0  0  0  0  0  0  0  0
   45.9950   33.9610   43.8460 N   0  0  0  0  0  0  0  0  0  0  0  0
   45.6370   34.0720   45.1320 C   0  0  0  0  0  0  0  0  0  0  0  0
   44.8620   35.0960   45.4560 N   0  0  0  0  0  0  0  0  0  0  0  0
   43.8090   36.8250   44.8170 H   0  0  0  0  0  0  0  0  0  0  0  0
   44.4950   36.5730   42.4620 H   0  0  0  0  0  0  0  0  0  0  0  0
   46.0580   34.6270   41.4520 C   0  0  0  0  0  3  0  0  0  0  0  0
   46.1410   33.1220   41.0570 C   0  0  0  0  0  2  0  0  0  0  0  0
   45.1450   34.0860   40.4430 C   0  0  0  0  0  2  0  0  0  0  0  0
  1  4  1  0  0  0  0
  2  1  1  0  0  0  0
  3  1  1  0  0  0  0
  4  7  1  1  0  0  0
  4  5  1  0  0  0  0
  4  6  1  0  0  0  0
  5  6  1  0  0  0  0
  5  9  1  0  0  0  0
  6 10  1  1  0  0  0
  8  5  1  0  0  0  0
 11 13  1  0  0  0  0
 11  6  1  0  0  0  0
 11 12  1  0  0  0  0
 12 16  1  0  0  0  0
 12 15  1  0  0  0  0
 13 17  1  0  0  0  0
 13 12  1  0  0  0  0
 14 11  1  0  0  0  0
 18 13  1  0  0  0  0
 20 19  2  0  0  0  0
 20  1  1  0  0  0  0
 21 27  1  0  0  0  0
 21 26  1  0  0  0  0
 22 21  2  0  0  0  0
 23 22  1  0  0  0  0
 23 24  2  0  0  0  0
 24 25  1  0  0  0  0
 25 26  2  0  0  0  0
 25 19  1  0  0  0  0
 28 22  1  0  0  0  0
 29 23  1  0  0  0  0
 30 29  1  0  0  0  0
 31 30  1  0  0  0  0
 31 29  1  0  0  0  0
M  END
>  <minimizedAffinity>
-4.84506559

>  <minimizedRMSD>
0.512981653

$$$$
