
 OpenBabel03252509293D

 15 16  0  0  0  0  0  0  0  0999 V2000
   44.5850   35.7800   44.4420 C   0  0  0  0  0  0  0  0  0  0  0  0
   45.3550   35.9820   43.2820 C   0  0  0  0  0  0  0  0  0  0  0  0
   46.3860   35.0820   43.0480 C   0  0  0  0  0  0  0  0  0  0  0  0
   46.6030   34.0690   43.9250 N   0  0  0  0  0  0  0  0  0  0  0  0
   45.8410   33.9090   45.0290 C   0  0  0  0  0  0  0  0  0  0  0  0
   44.8360   34.7730   45.2730 N   0  0  0  0  0  0  0  0  0  0  0  0
   43.7660   36.4480   44.6810 H   0  0  0  0  0  0  0  0  0  0  0  0
   45.0910   36.8110   42.6670 H   0  0  0  0  0  0  0  0  0  0  0  0
   45.9800   33.1180   45.7510 H   0  0  0  0  0  0  0  0  0  0  0  0
   47.1820   35.2990   41.8390 C   0  0  0  0  0  0  0  0  0  0  0  0
   48.1680   35.7210   42.1090 H   0  0  0  0  0  0  0  0  0  0  0  0
   46.6680   36.1130   41.2640 H   0  0  0  0  0  0  0  0  0  0  0  0
   47.2810   34.0350   41.0380 C   0  0  0  0  0  3  0  0  0  0  0  0
   47.9500   34.1990   39.6910 C   0  0  0  0  0  2  0  0  0  0  0  0
   48.5780   33.3650   40.7960 C   0  0  0  0  0  2  0  0  0  0  0  0
  1  7  1  0  0  0  0
  1  6  1  0  0  0  0
  2  1  2  0  0  0  0
  3  2  1  0  0  0  0
  3  4  2  0  0  0  0
  4  5  1  0  0  0  0
  5  6  2  0  0  0  0
  5  9  1  0  0  0  0
  8  2  1  0  0  0  0
 10 11  1  0  0  0  0
 10  3  1  0  0  0  0
 12 10  1  0  0  0  0
 13 10  1  0  0  0  0
 14 15  1  0  0  0  0
 14 13  1  0  0  0  0
 15 13  1  0  0  0  0
M  END
>  <minimizedAffinity>
-3.4218421

>  <minimizedRMSD>
1.33331406

$$$$
