
     RDKit          3D

 44 46  0  0  0  0  0  0  0  0999 V2000
   47.1714   34.1570   43.0872 N   0  0  0  0  0  0  0  0  0  0  0  0
   46.6624   35.3617   42.5309 C   0  0  0  0  0  0  0  0  0  0  0  0
   45.1833   35.5900   42.7405 C   0  0  0  0  0  0  0  0  0  0  0  0
   44.6489   35.0509   44.0400 C   0  0  0  0  0  0  0  0  0  0  0  0
   45.7455   34.4681   44.8971 C   0  0  0  0  0  0  0  0  0  0  0  0
   46.4036   33.3970   43.9566 C   0  0  2  0  0  0  0  0  0  0  0  0
   48.1406   33.4956   42.2646 C   0  0  0  0  0  0  0  0  0  0  0  0
   47.4364   32.6544   41.2556 C   0  0  0  0  0  0  0  0  0  0  0  0
   49.3301   32.2808   38.0287 C   0  0  0  0  0  0  0  0  0  0  0  0
   48.8026   32.0150   39.3063 C   0  0  0  0  0  0  0  0  0  0  0  0
   47.9865   32.9485   39.9060 C   0  0  0  0  0  0  0  0  0  0  0  0
   47.7331   34.0774   39.2329 N   0  0  0  0  0  0  0  0  0  0  0  0
   48.2435   34.3219   38.0097 C   0  0  0  0  0  0  0  0  0  0  0  0
   49.0426   33.4310   37.3988 N   0  0  0  0  0  0  0  0  0  0  0  0
   47.2047   32.6939   44.8572 O   0  0  0  0  0  0  0  0  0  0  0  0
   45.9990   30.5435   43.8670 O   0  0  0  0  0  0  0  0  0  0  0  0
   46.6664   31.1244   45.1180 P   0  0  2  0  0  0  0  0  0  0  0  0
   45.4057   31.2407   46.2681 O   0  0  0  0  0  0  0  0  0  0  0  0
   47.8497   30.1361   45.7319 O   0  0  0  0  0  0  0  0  0  0  0  0
   47.1661   36.2070   43.0591 H   0  0  0  0  0  0  0  0  0  0  0  0
   46.8664   35.5226   41.4709 H   0  0  0  0  0  0  0  0  0  0  0  0
   44.6589   35.1632   41.8573 H   0  0  0  0  0  0  0  0  0  0  0  0
   44.9930   36.6850   42.6842 H   0  0  0  0  0  0  0  0  0  0  0  0
   43.9128   34.2674   43.7985 H   0  0  0  0  0  0  0  0  0  0  0  0
   44.1713   35.8711   44.6321 H   0  0  0  0  0  0  0  0  0  0  0  0
   46.5170   35.1994   45.1365 H   0  0  0  0  0  0  0  0  0  0  0  0
   45.2770   33.9687   45.7478 H   0  0  0  0  0  0  0  0  0  0  0  0
   45.5672   32.8014   43.5534 H   0  0  0  0  0  0  0  0  0  0  0  0
   48.8046   34.2593   41.8254 H   0  0  0  0  0  0  0  0  0  0  0  0
   48.7345   32.8203   42.9271 H   0  0  0  0  0  0  0  0  0  0  0  0
   47.4535   31.5739   41.4473 H   0  0  0  0  0  0  0  0  0  0  0  0
   46.3559   32.9339   41.2023 H   0  0  0  0  0  0  0  0  0  0  0  0
   49.9705   31.5494   37.5568 H   0  0  0  0  0  0  0  0  0  0  0  0
   49.0542   31.0760   39.7883 H   0  0  0  0  0  0  0  0  0  0  0  0
   48.0283   35.2383   37.4814 H   0  0  0  0  0  0  0  0  0  0  0  0
   45.6945   31.7932   47.0320 H   0  0  0  0  0  0  0  0  0  0  0  0
   47.5190   29.4230   46.8552 C   0  0  0  0  0  0  0  0  0  0  0  0
   47.6896   27.9559   46.9434 C   0  0  0  0  0  0  0  0  0  0  0  0
   48.7256   28.8175   47.5826 C   0  0  0  0  0  0  0  0  0  0  0  0
   46.7804   29.9016   47.5219 H   0  0  0  0  0  0  0  0  0  0  0  0
   47.9457   27.3491   46.0618 H   0  0  0  0  0  0  0  0  0  0  0  0
   47.0243   27.4221   47.6652 H   0  0  0  0  0  0  0  0  0  0  0  0
   49.7019   28.8220   47.0638 H   0  0  0  0  0  0  0  0  0  0  0  0
   48.8013   28.9254   48.6795 H   0  0  0  0  0  0  0  0  0  0  0  0
  1  6  1  0
  2  3  1  0
  2  1  1  0
  3  4  1  0
  4  5  1  0
  6 15  1  0
  6  5  1  0
  7  1  1  0
  8  7  1  0
  9 10  2  0
 10 11  1  0
 11  8  1  0
 12 11  2  0
 13 12  1  0
 14 13  2  0
 14  9  1  0
 17 15  1  6
 16 17  2  0
 17 19  1  0
 17 18  1  0
  2 20  1  0
  2 21  1  0
  3 22  1  0
  3 23  1  0
  4 24  1  0
  4 25  1  0
  5 26  1  0
  5 27  1  0
  6 28  1  6
  7 29  1  0
  7 30  1  0
  8 31  1  0
  8 32  1  0
  9 33  1  0
 10 34  1  0
 13 35  1  0
 18 36  1  0
 37 38  1  0
 38 39  1  0
 39 37  1  0
 37 40  1  0
 38 41  1  0
 38 42  1  0
 39 43  1  0
 39 44  1  0
 19 37  1  0
M  ISO  8  20  13  21  13  22  13  23  13  24  13  25  13  26  13  27  13
M  ISO  8  28  13  29   8  30   8  31   8  32   8  33  14  34  14  35  14
M  ISO  1  36   3
M  END
>  <DihAtoms>  (1) 
16,18,36,37

>  <DihDeg>  (1) 
157.22415230831263

$$$$
