
 OpenBabel03252503353D

 16 17  0  0  0  0  0  0  0  0999 V2000
   44.5160   36.1180   44.6040 C   0  0  0  0  0  0  0  0  0  0  0  0
   45.2010   35.9940   43.3680 C   0  0  0  0  0  0  0  0  0  0  0  0
   46.0270   34.8810   43.1870 C   0  0  0  0  0  0  0  0  0  0  0  0
   46.1390   33.9840   44.1820 N   0  0  0  0  0  0  0  0  0  0  0  0
   45.4810   34.1090   45.3590 C   0  0  0  0  0  0  0  0  0  0  0  0
   44.6770   35.1740   45.5600 N   0  0  0  0  0  0  0  0  0  0  0  0
   43.8520   36.9710   44.8050 H   0  0  0  0  0  0  0  0  0  0  0  0
   45.0690   36.7480   42.6090 H   0  0  0  0  0  0  0  0  0  0  0  0
   45.6690   33.3110   46.0620 H   0  0  0  0  0  0  0  0  0  0  0  0
   46.1610   33.9920   40.8650 C   0  0  0  0  0  0  0  0  0  0  0  0
   44.9710   33.5910   41.0690 O   0  0  0  0  0  0  0  0  0  0  0  0
   46.7320   34.7120   41.9720 N   0  0  0  0  0  0  0  0  0  0  0  0
   47.7060   35.1090   41.8330 H   0  0  0  0  0  0  0  0  0  0  0  0
   46.9790   33.7930   39.6410 C   0  0  0  0  0  3  0  0  0  0  0  0
   48.4490   33.4940   39.7550 C   0  0  0  0  0  2  0  0  0  0  0  0
   47.5280   32.3560   39.4790 C   0  0  0  0  0  2  0  0  0  0  0  0
  1  7  1  0  0  0  0
  1  6  1  0  0  0  0
  2  1  2  0  0  0  0
  3  2  1  0  0  0  0
  3  4  2  0  0  0  0
  4  5  1  0  0  0  0
  5  6  2  0  0  0  0
  5  9  1  0  0  0  0
  8  2  1  0  0  0  0
 10 11  2  0  0  0  0
 10 12  1  0  0  0  0
 12  3  1  0  0  0  0
 13 12  1  0  0  0  0
 14 15  1  0  0  0  0
 14 10  1  0  0  0  0
 16 14  1  0  0  0  0
 16 15  1  0  0  0  0
M  END
>  <minimizedAffinity>
-3.5750463

>  <minimizedRMSD>
0.240503356

$$$$
