
 OpenBabel03242514193D

 43 45  0  0  0  0  0  0  0  0999 V2000
   46.1590   34.5680   43.6090 C   0  0  0  0  0  0  0  0  0  0  0  0
   46.1600   33.7970   44.7470 C   0  0  0  0  0  0  0  0  0  0  0  0
   45.3250   34.1900   45.7600 C   0  0  0  0  0  0  0  0  0  0  0  0
   44.5520   35.2890   45.6110 N   0  0  0  0  0  0  0  0  0  0  0  0
   44.5530   36.0320   44.5080 C   0  0  0  0  0  0  0  0  0  0  0  0
   45.3580   35.6510   43.5350 N   0  0  0  0  0  0  0  0  0  0  0  0
   45.1800   33.7270   46.7250 H   0  0  0  0  0  0  0  0  0  0  0  0
   43.9440   36.9150   44.3620 H   0  0  0  0  0  0  0  0  0  0  0  0
   47.0010   34.1130   42.4960 C   0  0  0  0  0  0  0  0  0  0  0  0
   48.3860   34.6870   42.5860 C   0  0  0  0  0  0  0  0  0  0  0  0
   48.7020   35.5700   41.4650 C   0  0  0  0  0  0  0  0  0  0  0  0
   48.5060   34.8850   40.1300 C   0  0  0  0  0  0  0  0  0  0  0  0
   47.2560   34.0990   40.0430 C   0  0  0  0  0  0  0  0  0  0  0  0
   46.3290   34.3920   41.2000 C   0  0  0  0  0  0  0  0  0  0  0  0
   47.1870   33.0300   42.6220 H   0  0  0  0  0  0  0  0  0  0  0  0
   48.4420   35.2730   43.5270 H   0  0  0  0  0  0  0  0  0  0  0  0
   49.1720   33.9160   42.6760 H   0  0  0  0  0  0  0  0  0  0  0  0
   48.0400   36.4670   41.4790 H   0  0  0  0  0  0  0  0  0  0  0  0
   49.7790   35.8400   41.5030 H   0  0  0  0  0  0  0  0  0  0  0  0
   49.3920   34.2540   39.8760 H   0  0  0  0  0  0  0  0  0  0  0  0
   48.5120   35.7010   39.3550 H   0  0  0  0  0  0  0  0  0  0  0  0
   46.7080   34.3690   39.1100 H   0  0  0  0  0  0  0  0  0  0  0  0
   47.4500   32.9990   39.9450 H   0  0  0  0  0  0  0  0  0  0  0  0
   46.0600   35.4650   41.1150 H   0  0  0  0  0  0  0  0  0  0  0  0
   45.4360   33.7320   41.1080 H   0  0  0  0  0  0  0  0  0  0  0  0
   46.8370   32.6980   45.0790 O   0  0  0  0  0  0  0  0  0  0  0  0
   47.2450   32.1500   46.2630 C   0  0  0  0  0  0  0  0  0  0  0  0
   48.3520   32.3460   46.3710 H   0  0  0  0  0  0  0  0  0  0  0  0
   46.8090   32.5160   47.1950 H   0  0  0  0  0  0  0  0  0  0  0  0
   47.1330   30.6360   46.3060 C   0  0  0  0  0  0  0  0  0  0  0  0
   48.0190   30.1510   45.8270 H   0  0  0  0  0  0  0  0  0  0  0  0
   47.1030   30.2820   47.3440 H   0  0  0  0  0  0  0  0  0  0  0  0
   45.9840   30.1550   45.5700 N   0  0  0  0  0  0  0  0  0  0  0  0
   46.1770   29.4240   44.8800 H   0  0  0  0  0  0  0  0  0  0  0  0
   44.8280   29.5820   46.7410 S   0  0  0  0  0  0  0  0  0  0  0  0
   43.5860   29.0890   46.0620 O   0  0  0  0  0  0  0  0  0  0  0  0
   42.6520   29.3660   46.3170 H   0  0  0  0  0  0  0  0  0  0  0  0
   44.5050   30.7390   47.6420 O   0  0  0  0  0  0  0  0  0  0  0  0
   43.5910   31.1520   47.6100 H   0  0  0  0  0  0  0  0  0  0  0  0
   45.4780   28.3670   47.6890 O   0  0  0  0  0  0  0  0  0  0  0  0
   44.8170   27.1630   47.5230 C   0  0  0  0  0  0  0  0  0  0  0  0
   45.5780   25.9840   48.1520 C   0  0  0  0  0  0  0  0  0  0  0  0
   44.3720   26.5020   48.8230 C   0  0  0  0  0  0  0  0  0  0  0  0
  1  2  1  0  0  0  0
  2 26  1  0  0  0  0
  2  3  2  0  0  0  0
  3  7  1  0  0  0  0
  4  3  1  0  0  0  0
  5  4  2  0  0  0  0
  6  1  2  0  0  0  0
  6  5  1  0  0  0  0
  8  5  1  0  0  0  0
  9 10  1  0  0  0  0
  9 15  1  0  0  0  0
  9  1  1  0  0  0  0
 10 17  1  0  0  0  0
 10 16  1  0  0  0  0
 11 18  1  0  0  0  0
 11 19  1  0  0  0  0
 11 10  1  0  0  0  0
 12 11  1  0  0  0  0
 13 12  1  0  0  0  0
 13 14  1  0  0  0  0
 14  9  1  0  0  0  0
 20 12  1  0  0  0  0
 21 12  1  0  0  0  0
 22 13  1  0  0  0  0
 23 13  1  0  0  0  0
 24 14  1  0  0  0  0
 25 14  1  0  0  0  0
 26 27  1  0  0  0  0
 27 30  1  0  0  0  0
 27 28  1  0  0  0  0
 27 29  1  0  0  0  0
 30 32  1  0  0  0  0
 31 30  1  0  0  0  0
 33 30  1  0  0  0  0
 33 35  1  0  0  0  0
 34 33  1  0  0  0  0
 35 38  1  0  0  0  0
 35 40  1  0  0  0  0
 36 37  1  0  0  0  0
 36 35  1  0  0  0  0
 39 38  1  0  0  0  0
 41 40  1  0  0  0  0
 41 42  1  0  0  0  0
 41 43  1  0  0  0  0
 42 43  1  0  0  0  0
M  END
>  <minimizedAffinity>
-5.52826118

>  <minimizedRMSD>
1.34145153

$$$$
