REMARK  Name = 
REMARK  4 active torsions:
REMARK  status: ('A' for Active; 'I' for Inactive)
REMARK    1  A    between atoms: C_2  and  N_11
REMARK    2  A    between atoms: C_3  and  C_7
REMARK    3  A    between atoms: C_9  and  C_10
REMARK    4  A    between atoms: C_10  and  C_22
REMARK                            x       y       z     vdW  Elec       q    Type
REMARK                         _______ _______ _______ _____ _____    ______ ____
ROOT
ATOM      1  C   UNL     1      46.567  35.059  41.924  0.00  0.00    +0.000 C 
ATOM      2  C   UNL     1      48.101  35.313  41.922  0.00  0.00    +0.000 C 
ATOM      3  C   UNL     1      47.366  34.081  41.311  0.00  0.00    +0.000 C 
ATOM      4  H   UNL     1      45.989  35.816  41.365  0.00  0.00    +0.000 HD
ATOM      5  H   UNL     1      48.402  36.093  41.226  0.00  0.00    +0.000 HD
ATOM      6  H   UNL     1      48.667  35.148  42.842  0.00  0.00    +0.000 HD
ATOM      7  H   UNL     1      47.660  33.119  41.833  0.00  0.00    +0.000 HD
ENDROOT
BRANCH   1  10
ATOM      8  C   UNL     1      44.671  35.378  45.143  0.00  0.00    +0.000 A 
ATOM      9  C   UNL     1      45.132  35.694  43.838  0.00  0.00    +0.000 A 
ATOM     10  C   UNL     1      46.075  34.860  43.337  0.00  0.00    +0.000 A 
ATOM     11  N   UNL     1      46.554  33.778  44.058  0.00  0.00    +0.000 NA
ATOM     12  C   UNL     1      46.089  33.514  45.296  0.00  0.00    +0.000 A 
ATOM     13  N   UNL     1      45.143  34.319  45.838  0.00  0.00    +0.000 NA
ATOM     14  H   UNL     1      43.917  36.025  45.568  0.00  0.00    +0.000 HD
ATOM     15  H   UNL     1      46.539  32.644  45.755  0.00  0.00    +0.000 HD
BRANCH   9  16
ATOM     16  N   UNL     1      44.674  36.815  43.129  0.00  0.00    +0.000 N 
ATOM     17  H   UNL     1      45.297  37.365  42.498  0.00  0.00    +0.000 HD
ATOM     18  H   UNL     1      43.671  37.136  43.215  0.00  0.00    +0.000 HD
ENDBRANCH   9  16
ENDBRANCH   1  10
BRANCH   3  19
ATOM     19  C   UNL     1      47.387  33.897  39.814  0.00  0.00    +0.000 C 
ATOM     20  H   UNL     1      46.352  33.670  39.508  0.00  0.00    +0.000 HD
ATOM     21  H   UNL     1      47.627  34.879  39.362  0.00  0.00    +0.000 HD
BRANCH  19  22
ATOM     22  C   UNL     1      48.306  32.797  39.354  0.00  0.00    +0.000 C 
ATOM     23  C   UNL     1      49.435  33.013  38.458  0.00  0.00    +0.000 C 
ATOM     24  C   UNL     1      48.148  32.480  37.853  0.00  0.00    +0.000 C 
ENDBRANCH  19  22
ENDBRANCH   3  19
TORSDOF 4
