
 OpenBabel03242512403D

 13 14  0  0  0  0  0  0  0  0999 V2000
   37.5730   30.3920   41.5090 C   0  0  0  0  0  0  0  0  0  0  0  0
   36.7220   31.1710   40.7090 C   0  0  0  0  0  0  0  0  0  0  0  0
   37.2610   32.3540   40.1640 C   0  0  0  0  0  0  0  0  0  0  0  0
   38.5570   32.6750   40.4370 N   0  0  0  0  0  0  0  0  0  0  0  0
   39.3270   31.8780   41.2190 C   0  0  0  0  0  0  0  0  0  0  0  0
   38.8360   30.7560   41.7440 N   0  0  0  0  0  0  0  0  0  0  0  0
   35.7060   30.8850   40.5150 H   0  0  0  0  0  0  0  0  0  0  0  0
   36.6080   32.9510   39.5500 H   0  0  0  0  0  0  0  0  0  0  0  0
   40.3040   32.2920   41.3180 H   0  0  0  0  0  0  0  0  0  0  0  0
   37.0560   29.2480   42.0360 O   0  0  0  0  0  0  0  0  0  0  0  0
   37.3790   28.6470   43.2510 C   0  0  0  0  0  3  0  0  0  0  0  0
   37.9980   27.2740   43.2620 C   0  0  0  0  0  2  0  0  0  0  0  0
   36.5590   27.3990   43.5560 C   0  0  0  0  0  2  0  0  0  0  0  0
  1  6  1  0  0  0  0
  1 10  1  0  0  0  0
  2  1  2  0  0  0  0
  3  4  2  0  0  0  0
  3  2  1  0  0  0  0
  4  5  1  0  0  0  0
  5  9  1  0  0  0  0
  5  6  2  0  0  0  0
  7  2  1  0  0  0  0
  8  3  1  0  0  0  0
 10 11  1  0  0  0  0
 11 12  1  0  0  0  0
 11 13  1  0  0  0  0
 12 13  1  0  0  0  0
M  END
>  <minimizedAffinity>
-3.34984756

$$$$

 OpenBabel03242512403D

 13 14  0  0  0  0  0  0  0  0999 V2000
   37.5350   30.3710   41.5350 C   0  0  0  0  0  0  0  0  0  0  0  0
   38.8910   30.6340   41.7880 C   0  0  0  0  0  0  0  0  0  0  0  0
   39.4310   31.8080   41.2260 C   0  0  0  0  0  0  0  0  0  0  0  0
   38.6240   32.6150   40.4790 N   0  0  0  0  0  0  0  0  0  0  0  0
   37.3200   32.3030   40.2730 C   0  0  0  0  0  0  0  0  0  0  0  0
   36.7910   31.1970   40.7960 N   0  0  0  0  0  0  0  0  0  0  0  0
   39.4960   29.9750   42.3820 H   0  0  0  0  0  0  0  0  0  0  0  0
   40.4710   32.0090   41.4200 H   0  0  0  0  0  0  0  0  0  0  0  0
   36.8550   33.0470   39.6690 H   0  0  0  0  0  0  0  0  0  0  0  0
   37.0100   29.2380   42.0770 O   0  0  0  0  0  0  0  0  0  0  0  0
   37.3850   28.6080   43.2610 C   0  0  0  0  0  3  0  0  0  0  0  0
   37.9450   27.2090   43.2180 C   0  0  0  0  0  2  0  0  0  0  0  0
   36.5340   27.3900   43.6060 C   0  0  0  0  0  2  0  0  0  0  0  0
  1  2  1  0  0  0  0
  1 10  1  0  0  0  0
  2  7  1  0  0  0  0
  3  8  1  0  0  0  0
  3  2  2  0  0  0  0
  4  3  1  0  0  0  0
  5  4  2  0  0  0  0
  5  6  1  0  0  0  0
  6  1  2  0  0  0  0
  9  5  1  0  0  0  0
 10 11  1  0  0  0  0
 11 13  1  0  0  0  0
 12 11  1  0  0  0  0
 12 13  1  0  0  0  0
M  END
>  <minimizedAffinity>
-3.29091787

$$$$

 OpenBabel03242512403D

 13 14  0  0  0  0  0  0  0  0999 V2000
   37.6000   30.1310   41.6250 C   0  0  0  0  0  0  0  0  0  0  0  0
   36.5610   29.3010   41.1760 C   0  0  0  0  0  0  0  0  0  0  0  0
   36.3790   28.0790   41.8550 C   0  0  0  0  0  0  0  0  0  0  0  0
   37.2060   27.7720   42.8940 N   0  0  0  0  0  0  0  0  0  0  0  0
   38.1930   28.6200   43.2780 C   0  0  0  0  0  0  0  0  0  0  0  0
   38.3810   29.7800   42.6480 N   0  0  0  0  0  0  0  0  0  0  0  0
   35.9280   29.5770   40.3540 H   0  0  0  0  0  0  0  0  0  0  0  0
   35.5820   27.4420   41.5110 H   0  0  0  0  0  0  0  0  0  0  0  0
   38.7310   28.2100   44.1010 H   0  0  0  0  0  0  0  0  0  0  0  0
   37.7770   31.3130   40.9710 O   0  0  0  0  0  0  0  0  0  0  0  0
   36.9250   31.9110   40.0460 C   0  0  0  0  0  3  0  0  0  0  0  0
   37.3990   32.1420   38.6350 C   0  0  0  0  0  2  0  0  0  0  0  0
   37.3960   33.2800   39.5710 C   0  0  0  0  0  2  0  0  0  0  0  0
  1  6  1  0  0  0  0
  2  1  2  0  0  0  0
  2  3  1  0  0  0  0
  3  4  2  0  0  0  0
  4  5  1  0  0  0  0
  5  9  1  0  0  0  0
  6  5  2  0  0  0  0
  7  2  1  0  0  0  0
  8  3  1  0  0  0  0
 10  1  1  0  0  0  0
 11 10  1  0  0  0  0
 12 13  1  0  0  0  0
 12 11  1  0  0  0  0
 13 11  1  0  0  0  0
M  END
>  <minimizedAffinity>
-3.23941207

$$$$

 OpenBabel03242512403D

 13 14  0  0  0  0  0  0  0  0999 V2000
   36.4880   29.8350   40.5070 C   0  0  0  0  0  0  0  0  0  0  0  0
   36.7260   31.2020   40.7190 C   0  0  0  0  0  0  0  0  0  0  0  0
   37.0070   31.9870   39.5820 C   0  0  0  0  0  0  0  0  0  0  0  0
   37.0330   31.3890   38.3570 N   0  0  0  0  0  0  0  0  0  0  0  0
   36.7940   30.0610   38.2210 C   0  0  0  0  0  0  0  0  0  0  0  0
   36.5270   29.3020   39.2840 N   0  0  0  0  0  0  0  0  0  0  0  0
   36.6960   31.6390   41.6990 H   0  0  0  0  0  0  0  0  0  0  0  0
   37.1890   33.0360   39.7450 H   0  0  0  0  0  0  0  0  0  0  0  0
   36.8590   29.7780   37.1960 H   0  0  0  0  0  0  0  0  0  0  0  0
   36.2150   29.0750   41.6030 O   0  0  0  0  0  0  0  0  0  0  0  0
   37.0330   28.1190   42.2020 C   0  0  0  0  0  3  0  0  0  0  0  0
   36.5030   27.2960   43.3480 C   0  0  0  0  0  2  0  0  0  0  0  0
   37.3900   28.4350   43.6500 C   0  0  0  0  0  2  0  0  0  0  0  0
  1  2  1  0  0  0  0
  1 10  1  0  0  0  0
  2  7  1  0  0  0  0
  3  8  1  0  0  0  0
  3  2  2  0  0  0  0
  4  3  1  0  0  0  0
  5  4  2  0  0  0  0
  5  6  1  0  0  0  0
  6  1  2  0  0  0  0
  9  5  1  0  0  0  0
 10 11  1  0  0  0  0
 11 12  1  0  0  0  0
 11 13  1  0  0  0  0
 12 13  1  0  0  0  0
M  END
>  <minimizedAffinity>
-3.21516418

$$$$

 OpenBabel03242512403D

 13 14  0  0  0  0  0  0  0  0999 V2000
   37.3890   29.2070   42.2400 C   0  0  0  0  0  0  0  0  0  0  0  0
   38.6750   29.1060   42.7940 C   0  0  0  0  0  0  0  0  0  0  0  0
   39.0830   27.8310   43.2370 C   0  0  0  0  0  0  0  0  0  0  0  0
   38.2230   26.7810   43.1080 N   0  0  0  0  0  0  0  0  0  0  0  0
   36.9920   26.9480   42.5620 C   0  0  0  0  0  0  0  0  0  0  0  0
   36.5890   28.1450   42.1380 N   0  0  0  0  0  0  0  0  0  0  0  0
   39.3260   29.9560   42.8790 H   0  0  0  0  0  0  0  0  0  0  0  0
   40.0690   27.7540   43.6630 H   0  0  0  0  0  0  0  0  0  0  0  0
   36.4680   26.0200   42.5460 H   0  0  0  0  0  0  0  0  0  0  0  0
   36.9940   30.4370   41.8100 O   0  0  0  0  0  0  0  0  0  0  0  0
   36.2560   30.7440   40.6690 C   0  0  0  0  0  3  0  0  0  0  0  0
   36.8410   30.4740   39.3070 C   0  0  0  0  0  2  0  0  0  0  0  0
   36.8670   31.8550   39.8220 C   0  0  0  0  0  2  0  0  0  0  0  0
  1  2  1  0  0  0  0
  2  7  1  0  0  0  0
  2  3  2  0  0  0  0
  3  8  1  0  0  0  0
  4  3  1  0  0  0  0
  5  4  2  0  0  0  0
  6  1  2  0  0  0  0
  6  5  1  0  0  0  0
  9  5  1  0  0  0  0
 10  1  1  0  0  0  0
 11 10  1  0  0  0  0
 12 13  1  0  0  0  0
 12 11  1  0  0  0  0
 13 11  1  0  0  0  0
M  END
>  <minimizedAffinity>
-3.1934309

$$$$

 OpenBabel03242512403D

 13 14  0  0  0  0  0  0  0  0999 V2000
   36.7610   28.3500   41.7230 C   0  0  0  0  0  0  0  0  0  0  0  0
   35.6900   28.7530   40.9100 C   0  0  0  0  0  0  0  0  0  0  0  0
   35.7120   30.0810   40.4350 C   0  0  0  0  0  0  0  0  0  0  0  0
   36.7520   30.8900   40.7840 N   0  0  0  0  0  0  0  0  0  0  0  0
   37.7560   30.4370   41.5750 C   0  0  0  0  0  0  0  0  0  0  0  0
   37.7540   29.1860   42.0340 N   0  0  0  0  0  0  0  0  0  0  0  0
   34.8880   28.0870   40.6550 H   0  0  0  0  0  0  0  0  0  0  0  0
   34.8910   30.3900   39.8110 H   0  0  0  0  0  0  0  0  0  0  0  0
   38.4730   31.2080   41.7370 H   0  0  0  0  0  0  0  0  0  0  0  0
   36.7430   27.0680   42.1830 O   0  0  0  0  0  0  0  0  0  0  0  0
   37.5140   25.9950   41.7420 C   0  0  0  0  0  3  0  0  0  0  0  0
   36.9570   25.0520   40.7060 C   0  0  0  0  0  2  0  0  0  0  0  0
   36.9430   24.6320   42.1190 C   0  0  0  0  0  2  0  0  0  0  0  0
  1  6  1  0  0  0  0
  1 10  1  0  0  0  0
  2  1  2  0  0  0  0
  3  4  2  0  0  0  0
  3  2  1  0  0  0  0
  4  5  1  0  0  0  0
  5  9  1  0  0  0  0
  5  6  2  0  0  0  0
  7  2  1  0  0  0  0
  8  3  1  0  0  0  0
 11 13  1  0  0  0  0
 11 10  1  0  0  0  0
 12 11  1  0  0  0  0
 12 13  1  0  0  0  0
M  END
>  <minimizedAffinity>
-3.10243297

$$$$

 OpenBabel03242512403D

 13 14  0  0  0  0  0  0  0  0999 V2000
   37.0990   26.8600   42.2990 C   0  0  0  0  0  0  0  0  0  0  0  0
   37.7690   27.4220   43.3970 C   0  0  0  0  0  0  0  0  0  0  0  0
   37.8950   28.8260   43.4200 C   0  0  0  0  0  0  0  0  0  0  0  0
   37.3690   29.5530   42.3930 N   0  0  0  0  0  0  0  0  0  0  0  0
   36.7320   28.9460   41.3600 C   0  0  0  0  0  0  0  0  0  0  0  0
   36.6030   27.6210   41.3210 N   0  0  0  0  0  0  0  0  0  0  0  0
   38.1700   26.8180   44.1890 H   0  0  0  0  0  0  0  0  0  0  0  0
   38.4090   29.2580   44.2620 H   0  0  0  0  0  0  0  0  0  0  0  0
   36.3920   29.6730   40.6590 H   0  0  0  0  0  0  0  0  0  0  0  0
   36.9740   25.5050   42.2750 O   0  0  0  0  0  0  0  0  0  0  0  0
   37.9940   24.5570   42.2150 C   0  0  0  0  0  3  0  0  0  0  0  0
   38.8720   24.4820   40.9930 C   0  0  0  0  0  2  0  0  0  0  0  0
   37.7850   23.4970   41.1390 C   0  0  0  0  0  2  0  0  0  0  0  0
  1  2  1  0  0  0  0
  2  3  2  0  0  0  0
  2  7  1  0  0  0  0
  3  8  1  0  0  0  0
  4  3  1  0  0  0  0
  5  4  2  0  0  0  0
  6  5  1  0  0  0  0
  6  1  2  0  0  0  0
  9  5  1  0  0  0  0
 10  1  1  0  0  0  0
 11 10  1  0  0  0  0
 12 13  1  0  0  0  0
 12 11  1  0  0  0  0
 13 11  1  0  0  0  0
M  END
>  <minimizedAffinity>
-3.10126829

$$$$

 OpenBabel03242512403D

 13 14  0  0  0  0  0  0  0  0999 V2000
   36.5990   28.3510   41.6590 C   0  0  0  0  0  0  0  0  0  0  0  0
   36.9620   27.0180   41.9070 C   0  0  0  0  0  0  0  0  0  0  0  0
   37.9930   26.7990   42.8440 C   0  0  0  0  0  0  0  0  0  0  0  0
   38.5740   27.8740   43.4490 N   0  0  0  0  0  0  0  0  0  0  0  0
   38.1760   29.1390   43.1630 C   0  0  0  0  0  0  0  0  0  0  0  0
   37.2030   29.3660   42.2810 N   0  0  0  0  0  0  0  0  0  0  0  0
   36.4810   26.1960   41.4120 H   0  0  0  0  0  0  0  0  0  0  0  0
   38.2720   25.7770   43.0340 H   0  0  0  0  0  0  0  0  0  0  0  0
   38.7430   29.8400   43.7300 H   0  0  0  0  0  0  0  0  0  0  0  0
   35.6030   28.5660   40.7560 O   0  0  0  0  0  0  0  0  0  0  0  0
   35.6410   28.3530   39.3790 C   0  0  0  0  0  3  0  0  0  0  0  0
   35.7350   29.5310   38.4440 C   0  0  0  0  0  2  0  0  0  0  0  0
   34.4210   28.8920   38.6410 C   0  0  0  0  0  2  0  0  0  0  0  0
  1  2  2  0  0  0  0
  1  6  1  0  0  0  0
  2  3  1  0  0  0  0
  3  8  1  0  0  0  0
  3  4  2  0  0  0  0
  5  4  1  0  0  0  0
  5  9  1  0  0  0  0
  6  5  2  0  0  0  0
  7  2  1  0  0  0  0
 10  1  1  0  0  0  0
 11 10  1  0  0  0  0
 12 13  1  0  0  0  0
 12 11  1  0  0  0  0
 13 11  1  0  0  0  0
M  END
>  <minimizedAffinity>
-3.08438206

$$$$

 OpenBabel03242512403D

 13 14  0  0  0  0  0  0  0  0999 V2000
   36.6590   31.1190   40.1300 C   0  0  0  0  0  0  0  0  0  0  0  0
   36.6940   30.8610   38.7500 C   0  0  0  0  0  0  0  0  0  0  0  0
   35.9960   29.7250   38.2930 C   0  0  0  0  0  0  0  0  0  0  0  0
   35.3340   28.9490   39.1970 N   0  0  0  0  0  0  0  0  0  0  0  0
   35.3400   29.2540   40.5190 C   0  0  0  0  0  0  0  0  0  0  0  0
   35.9940   30.3230   40.9710 N   0  0  0  0  0  0  0  0  0  0  0  0
   37.2260   31.4960   38.0670 H   0  0  0  0  0  0  0  0  0  0  0  0
   36.0230   29.5280   37.2350 H   0  0  0  0  0  0  0  0  0  0  0  0
   34.7730   28.5360   41.0650 H   0  0  0  0  0  0  0  0  0  0  0  0
   37.3310   32.2160   40.5740 O   0  0  0  0  0  0  0  0  0  0  0  0
   37.9380   33.2110   39.8110 C   0  0  0  0  0  3  0  0  0  0  0  0
   39.4370   33.2230   39.6560 C   0  0  0  0  0  2  0  0  0  0  0  0
   38.8210   34.1540   40.6190 C   0  0  0  0  0  2  0  0  0  0  0  0
  1 10  1  0  0  0  0
  1  6  1  0  0  0  0
  2  1  2  0  0  0  0
  3  2  1  0  0  0  0
  3  4  2  0  0  0  0
  4  5  1  0  0  0  0
  5  6  2  0  0  0  0
  5  9  1  0  0  0  0
  7  2  1  0  0  0  0
  8  3  1  0  0  0  0
 11 10  1  0  0  0  0
 11 13  1  0  0  0  0
 12 11  1  0  0  0  0
 12 13  1  0  0  0  0
M  END
>  <minimizedAffinity>
-3.01686239

$$$$
