
 OpenBabel03252500063D

 43 46  0  0  0  0  0  0  0  0999 V2000
   44.6350   35.2390   45.2240 C   0  0  0  0  0  0  0  0  0  0  0  0
   45.2030   35.3750   43.9590 C   0  0  0  0  0  0  0  0  0  0  0  0
   46.2290   34.5100   43.5780 C   0  0  0  0  0  0  0  0  0  0  0  0
   46.5690   33.5980   44.5210 N   0  0  0  0  0  0  0  0  0  0  0  0
   46.0310   33.4770   45.7040 C   0  0  0  0  0  0  0  0  0  0  0  0
   45.0670   34.3030   46.0430 N   0  0  0  0  0  0  0  0  0  0  0  0
   43.8410   35.9240   45.4960 H   0  0  0  0  0  0  0  0  0  0  0  0
   46.9070   34.5180   42.3320 C   0  0  0  0  0  0  0  0  0  0  0  0
   47.9520   35.4340   42.1930 C   0  0  0  0  0  0  0  0  0  0  0  0
   48.7180   35.5810   41.0580 C   0  0  0  0  0  0  0  0  0  0  0  0
   48.4800   34.8070   39.9720 C   0  0  0  0  0  0  0  0  0  0  0  0
   47.4660   33.8840   40.0390 C   0  0  0  0  0  0  0  0  0  0  0  0
   47.1710   33.0750   38.9880 C   0  0  0  0  0  0  0  0  0  0  0  0
   46.1700   32.1450   39.0100 C   0  0  0  0  0  0  0  0  0  0  0  0
   45.4230   32.0380   40.1900 C   0  0  0  0  0  0  0  0  0  0  0  0
   45.7520   32.8780   41.2390 C   0  0  0  0  0  0  0  0  0  0  0  0
   46.7250   33.7780   41.2060 C   0  0  0  0  0  0  0  0  0  0  0  0
   48.2220   36.1090   43.0220 H   0  0  0  0  0  0  0  0  0  0  0  0
   49.5160   36.3100   41.0110 H   0  0  0  0  0  0  0  0  0  0  0  0
   49.0710   34.9180   39.0890 H   0  0  0  0  0  0  0  0  0  0  0  0
   47.7770   33.1910   38.0870 H   0  0  0  0  0  0  0  0  0  0  0  0
   45.9620   31.5120   38.1470 H   0  0  0  0  0  0  0  0  0  0  0  0
   44.6500   31.2970   40.1670 H   0  0  0  0  0  0  0  0  0  0  0  0
   44.8760   32.6370   42.3500 N   0  0  0  0  0  0  0  0  0  0  0  0
   45.3000   31.7910   42.8360 H   0  0  0  0  0  0  0  0  0  0  0  0
   44.0130   33.0930   42.6970 H   0  0  0  0  0  0  0  0  0  0  0  0
   46.6110   32.3680   46.5390 C   0  0  0  0  0  0  0  0  0  0  0  0
   45.6200   31.6070   47.1150 F   0  0  0  0  0  0  0  0  0  0  0  0
   47.4520   32.8680   47.4950 F   0  0  0  0  0  0  0  0  0  0  0  0
   47.4420   31.5670   45.7230 F   0  0  0  0  0  0  0  0  0  0  0  0
   44.8100   36.3660   42.9650 C   0  0  0  0  0  0  0  0  0  0  0  0
   44.1680   37.1220   43.4680 H   0  0  0  0  0  0  0  0  0  0  0  0
   45.7170   36.9360   42.6430 H   0  0  0  0  0  0  0  0  0  0  0  0
   44.0810   35.8720   41.7870 C   0  0  0  0  0  0  0  0  0  0  0  0
   43.8850   36.8130   41.1710 H   0  0  0  0  0  0  0  0  0  0  0  0
   44.4880   35.1900   41.0970 H   0  0  0  0  0  0  0  0  0  0  0  0
   41.8220   34.8320   41.3850 C   0  0  0  0  0  0  0  0  0  0  0  0
   42.2550   34.3960   40.2590 O   0  0  0  0  0  0  0  0  0  0  0  0
   42.7010   35.5510   42.2430 N   0  0  0  0  0  0  0  0  0  0  0  0
   42.2820   35.8040   43.1670 H   0  0  0  0  0  0  0  0  0  0  0  0
   40.4010   34.5690   41.7600 C   0  0  0  0  0  0  0  0  0  0  0  0
   39.8430   33.2120   41.6970 C   0  0  0  0  0  0  0  0  0  0  0  0
   39.5440   34.1830   40.5620 C   0  0  0  0  0  0  0  0  0  0  0  0
  1  7  1  0  0  0  0
  1  6  1  0  0  0  0
  2  1  2  0  0  0  0
  3  2  1  0  0  0  0
  3  4  2  0  0  0  0
  4  5  1  0  0  0  0
  5  6  2  0  0  0  0
  5 27  1  0  0  0  0
  8  3  1  0  0  0  0
  9  8  1  0  0  0  0
  9 18  1  0  0  0  0
 10  9  2  0  0  0  0
 11 12  2  0  0  0  0
 11 10  1  0  0  0  0
 12 17  1  0  0  0  0
 13 14  2  0  0  0  0
 13 12  1  0  0  0  0
 14 15  1  0  0  0  0
 15 16  2  0  0  0  0
 16 24  1  0  0  0  0
 17 16  1  0  0  0  0
 17  8  2  0  0  0  0
 19 10  1  0  0  0  0
 20 11  1  0  0  0  0
 21 13  1  0  0  0  0
 22 14  1  0  0  0  0
 23 15  1  0  0  0  0
 24 26  1  0  0  0  0
 24 25  1  0  0  0  0
 27 28  1  0  0  0  0
 27 29  1  0  0  0  0
 30 27  1  0  0  0  0
 31 32  1  0  0  0  0
 31  2  1  0  0  0  0
 33 31  1  0  0  0  0
 34 39  1  0  0  0  0
 34 31  1  0  0  0  0
 35 34  1  0  0  0  0
 36 34  1  0  0  0  0
 37 41  1  0  0  0  0
 37 39  1  0  0  0  0
 38 37  2  0  0  0  0
 39 40  1  0  0  0  0
 42 41  1  0  0  0  0
 43 42  1  0  0  0  0
 43 41  1  0  0  0  0
M  END
>  <minimizedAffinity>
-7.33220053

>  <minimizedRMSD>
0.498717427

$$$$
