
 OpenBabel03252508433D

 25 27  0  0  0  0  0  0  0  0999 V2000
   45.0790   34.0010   41.5470 C   0  0  0  0  0  0  0  0  0  0  0  0
   46.3410   33.7480   41.0570 C   0  0  0  0  0  0  0  0  0  0  0  0
   46.5100   33.3360   39.7580 C   0  0  0  0  0  0  0  0  0  0  0  0
   45.3880   33.1830   38.9630 C   0  0  0  0  0  0  0  0  0  0  0  0
   44.1230   33.4230   39.4080 C   0  0  0  0  0  0  0  0  0  0  0  0
   43.9990   33.8420   40.7410 C   0  0  0  0  0  0  0  0  0  0  0  0
   47.5020   33.1300   39.3520 H   0  0  0  0  0  0  0  0  0  0  0  0
   45.5680   32.8580   37.9460 H   0  0  0  0  0  0  0  0  0  0  0  0
   43.2600   33.2860   38.7660 H   0  0  0  0  0  0  0  0  0  0  0  0
   43.0000   34.0360   41.1010 H   0  0  0  0  0  0  0  0  0  0  0  0
   44.5380   35.9840   44.7210 C   0  0  0  0  0  0  0  0  0  0  0  0
   44.5850   35.6890   43.3450 C   0  0  0  0  0  0  0  0  0  0  0  0
   44.9860   34.4310   42.9360 C   0  0  0  0  0  0  0  0  0  0  0  0
   45.3040   33.5750   43.9170 N   0  0  0  0  0  0  0  0  0  0  0  0
   45.2650   33.8380   45.2340 C   0  0  0  0  0  0  0  0  0  0  0  0
   44.8770   35.0590   45.6340 N   0  0  0  0  0  0  0  0  0  0  0  0
   44.2240   36.9810   45.0470 H   0  0  0  0  0  0  0  0  0  0  0  0
   44.3180   36.4030   42.6010 H   0  0  0  0  0  0  0  0  0  0  0  0
   45.5610   33.0020   45.8560 H   0  0  0  0  0  0  0  0  0  0  0  0
   47.5390   33.9160   41.9470 C   0  0  0  0  0  0  0  0  0  0  0  0
   48.3060   33.1490   41.7640 H   0  0  0  0  0  0  0  0  0  0  0  0
   47.1930   33.7990   42.9840 H   0  0  0  0  0  0  0  0  0  0  0  0
   48.0330   35.3310   41.7840 C   0  0  0  0  0  3  0  0  0  0  0  0
   49.4360   35.6790   42.0710 C   0  0  0  0  0  2  0  0  0  0  0  0
   48.9250   35.6500   40.6490 C   0  0  0  0  0  2  0  0  0  0  0  0
  1 13  1  0  0  0  0
  2  1  1  0  0  0  0
  2 20  1  0  0  0  0
  3  2  2  0  0  0  0
  4  5  2  0  0  0  0
  4  3  1  0  0  0  0
  5  6  1  0  0  0  0
  6 10  1  0  0  0  0
  6  1  2  0  0  0  0
  7  3  1  0  0  0  0
  8  4  1  0  0  0  0
  9  5  1  0  0  0  0
 11 17  1  0  0  0  0
 11 16  1  0  0  0  0
 12 11  2  0  0  0  0
 13 12  1  0  0  0  0
 13 14  2  0  0  0  0
 14 15  1  0  0  0  0
 15 16  2  0  0  0  0
 15 19  1  0  0  0  0
 18 12  1  0  0  0  0
 20 22  1  0  0  0  0
 21 20  1  0  0  0  0
 23 20  1  0  0  0  0
 23 24  1  0  0  0  0
 25 23  1  0  0  0  0
 25 24  1  0  0  0  0
M  END
>  <minimizedAffinity>
-4.7179141

>  <minimizedRMSD>
1.69745791

$$$$
