
 OpenBabel03252508443D

 33 35  0  0  0  0  0  0  0  0999 V2000
   42.4040   34.4420   40.8960 C   0  0  0  0  0  0  0  0  0  0  0  0
   42.8650   33.1810   41.2800 C   0  0  0  0  0  0  0  0  0  0  0  0
   43.9870   33.1120   42.0650 C   0  0  0  0  0  0  0  0  0  0  0  0
   44.6300   34.2530   42.4550 C   0  0  0  0  0  0  0  0  0  0  0  0
   44.2110   35.4930   42.1010 C   0  0  0  0  0  0  0  0  0  0  0  0
   43.0690   35.5360   41.3030 C   0  0  0  0  0  0  0  0  0  0  0  0
   44.3570   32.1420   42.3720 H   0  0  0  0  0  0  0  0  0  0  0  0
   45.5200   34.1240   43.0810 H   0  0  0  0  0  0  0  0  0  0  0  0
   44.7270   36.3860   42.4140 H   0  0  0  0  0  0  0  0  0  0  0  0
   42.7020   36.5150   40.9990 H   0  0  0  0  0  0  0  0  0  0  0  0
   38.8340   34.4820   39.6720 C   0  0  0  0  0  0  0  0  0  0  0  0
   39.9230   34.4580   40.5610 C   0  0  0  0  0  0  0  0  0  0  0  0
   41.2080   34.4650   40.0620 C   0  0  0  0  0  0  0  0  0  0  0  0
   41.3530   34.4950   38.7100 N   0  0  0  0  0  0  0  0  0  0  0  0
   40.3030   34.5190   37.8590 C   0  0  0  0  0  0  0  0  0  0  0  0
   39.0450   34.5120   38.3460 N   0  0  0  0  0  0  0  0  0  0  0  0
   37.8370   34.4760   40.0740 H   0  0  0  0  0  0  0  0  0  0  0  0
   39.7880   34.4330   41.6370 H   0  0  0  0  0  0  0  0  0  0  0  0
   40.4690   34.5430   36.7920 H   0  0  0  0  0  0  0  0  0  0  0  0
   42.1450   31.9520   40.8400 C   0  0  0  0  0  0  0  0  0  0  0  0
   42.3190   31.8610   39.7480 H   0  0  0  0  0  0  0  0  0  0  0  0
   41.0410   32.1360   40.9430 H   0  0  0  0  0  0  0  0  0  0  0  0
   42.5740   30.7550   41.5020 N   0  0  0  0  0  0  0  0  0  0  0  0
   43.5280   30.9310   41.8790 H   0  0  0  0  0  0  0  0  0  0  0  0
   41.4990   30.2750   42.7460 S   0  0  0  0  0  0  0  0  0  0  0  0
   40.6440   31.4210   43.1900 O   0  0  0  0  0  0  0  0  0  0  0  0
   39.8070   31.6270   42.6960 H   0  0  0  0  0  0  0  0  0  0  0  0
   42.2350   29.6870   43.9020 O   0  0  0  0  0  0  0  0  0  0  0  0
   41.9630   29.7170   44.8440 H   0  0  0  0  0  0  0  0  0  0  0  0
   40.5160   29.0790   42.0770 O   0  0  0  0  0  0  0  0  0  0  0  0
   41.1380   28.4520   41.0190 C   0  0  0  0  0  3  0  0  0  0  0  0
   40.4950   28.3640   39.6730 C   0  0  0  0  0  2  0  0  0  0  0  0
   40.5350   27.1280   40.5520 C   0  0  0  0  0  2  0  0  0  0  0  0
  1  2  2  0  0  0  0
  1  6  1  0  0  0  0
  2  3  1  0  0  0  0
  3  7  1  0  0  0  0
  3  4  2  0  0  0  0
  4  8  1  0  0  0  0
  5  9  1  0  0  0  0
  5  4  1  0  0  0  0
  6  5  2  0  0  0  0
 10  6  1  0  0  0  0
 11 17  1  0  0  0  0
 11 12  1  0  0  0  0
 12 18  1  0  0  0  0
 13 12  2  0  0  0  0
 13  1  1  0  0  0  0
 14 13  1  0  0  0  0
 15 16  1  0  0  0  0
 15 14  2  0  0  0  0
 16 11  2  0  0  0  0
 19 15  1  0  0  0  0
 20 22  1  0  0  0  0
 20  2  1  0  0  0  0
 20 23  1  0  0  0  0
 21 20  1  0  0  0  0
 23 24  1  0  0  0  0
 23 25  1  0  0  0  0
 25 26  1  0  0  0  0
 25 28  1  0  0  0  0
 27 26  1  0  0  0  0
 28 29  1  0  0  0  0
 30 25  1  0  0  0  0
 31 30  1  0  0  0  0
 32 33  1  0  0  0  0
 32 31  1  0  0  0  0
 33 31  1  0  0  0  0
M  END
>  <minimizedAffinity>
-4.17211962

>  <minimizedRMSD>
6.69331455

$$$$
