
 OpenBabel03252509343D

 37 39  0  0  1  0  0  0  0  0999 V2000
   45.8400   33.7160   41.8600 C   0  0  1  0  0  0  0  0  0  0  0  0
   44.8870   34.3820   40.8930 C   0  0  0  0  0  0  0  0  0  0  0  0
   44.9690   33.4480   39.7140 C   0  0  0  0  0  0  0  0  0  0  0  0
   46.3320   32.7860   39.7900 C   0  0  0  0  0  0  0  0  0  0  0  0
   47.0490   33.4720   40.9540 C   0  0  1  0  0  0  0  0  0  0  0  0
   45.4190   32.7570   42.1560 H   0  0  0  0  0  0  0  0  0  0  0  0
   43.8350   34.2560   41.2930 H   0  0  0  0  0  0  0  0  0  0  0  0
   45.1200   35.4210   40.6850 H   0  0  0  0  0  0  0  0  0  0  0  0
   44.8920   34.0510   38.7860 H   0  0  0  0  0  0  0  0  0  0  0  0
   44.1590   32.6900   39.6940 H   0  0  0  0  0  0  0  0  0  0  0  0
   46.8280   32.7990   38.8520 H   0  0  0  0  0  0  0  0  0  0  0  0
   46.1800   31.7280   40.1790 H   0  0  0  0  0  0  0  0  0  0  0  0
   47.6890   32.7730   41.5020 H   0  0  0  0  0  0  0  0  0  0  0  0
   47.7580   34.7290   40.5980 C   0  0  0  0  0  0  0  0  0  0  0  0
   47.1520   35.5870   41.0320 H   0  0  0  0  0  0  0  0  0  0  0  0
   47.7700   34.9010   39.4870 H   0  0  0  0  0  0  0  0  0  0  0  0
   49.1150   34.8200   41.1950 C   0  0  0  0  0  3  0  0  0  0  0  0
   49.5110   35.7050   42.3000 C   0  0  0  0  0  2  0  0  0  0  0  0
   49.5780   34.1680   42.4150 C   0  0  0  0  0  2  0  0  0  0  0  0
   46.1680   34.5370   42.9330 O   0  0  0  0  0  0  0  0  0  0  0  0
   44.7860   34.9480   45.0940 O   0  0  0  0  0  0  0  0  0  0  0  0
   45.5540   33.8900   44.3610 P   0  0  1  0  0  0  0  0  0  0  0  0
   44.6050   32.5360   44.0370 O   0  0  0  0  0  0  0  0  0  0  0  0
   43.9020   32.8200   43.4220 H   0  0  0  0  0  0  0  0  0  0  0  0
   46.8340   33.3310   45.2990 O   0  0  0  0  0  0  0  0  0  0  0  0
   46.7500   31.9910   45.4160 C   0  0  0  0  0  0  0  0  0  0  0  0
   46.1990   31.4230   44.6720 H   0  0  0  0  0  0  0  0  0  0  0  0
   47.8040   31.5900   45.3580 H   0  0  0  0  0  0  0  0  0  0  0  0
   46.0520   31.9370   49.0710 C   0  0  0  0  0  0  0  0  0  0  0  0
   46.5300   32.3520   47.8180 C   0  0  0  0  0  0  0  0  0  0  0  0
   46.2480   31.5600   46.7320 C   0  0  0  0  0  0  0  0  0  0  0  0
   45.5220   30.4210   46.9290 N   0  0  0  0  0  0  0  0  0  0  0  0
   45.0750   30.0430   48.1340 C   0  0  0  0  0  0  0  0  0  0  0  0
   45.3420   30.8000   49.1920 N   0  0  0  0  0  0  0  0  0  0  0  0
   46.3020   32.5980   49.8970 H   0  0  0  0  0  0  0  0  0  0  0  0
   47.1040   33.2750   47.7380 H   0  0  0  0  0  0  0  0  0  0  0  0
   44.5000   29.1360   48.2790 H   0  0  0  0  0  0  0  0  0  0  0  0
  1  6  1  1  0  0  0
  1 20  1  0  0  0  0
  2  7  1  0  0  0  0
  2  1  1  0  0  0  0
  3  4  1  0  0  0  0
  3  2  1  0  0  0  0
  4 12  1  0  0  0  0
  4  5  1  0  0  0  0
  5 13  1  1  0  0  0
  5  1  1  0  0  0  0
  8  2  1  0  0  0  0
  9  3  1  0  0  0  0
 10  3  1  0  0  0  0
 11  4  1  0  0  0  0
 14  5  1  0  0  0  0
 14 15  1  0  0  0  0
 14 17  1  0  0  0  0
 16 14  1  0  0  0  0
 17 18  1  0  0  0  0
 17 19  1  0  0  0  0
 18 19  1  0  0  0  0
 20 22  1  0  0  0  0
 22 21  2  1  0  0  0
 22 25  1  0  0  0  0
 23 22  1  0  0  0  0
 24 23  1  0  0  0  0
 25 26  1  0  0  0  0
 26 31  1  0  0  0  0
 27 26  1  0  0  0  0
 28 26  1  0  0  0  0
 29 34  1  0  0  0  0
 29 35  1  0  0  0  0
 30 29  2  0  0  0  0
 31 32  2  0  0  0  0
 31 30  1  0  0  0  0
 32 33  1  0  0  0  0
 33 37  1  0  0  0  0
 33 34  2  0  0  0  0
 36 30  1  0  0  0  0
M  END
>  <minimizedAffinity>
-4.95355606

>  <minimizedRMSD>
1.29434133

$$$$
