
     RDKit          3D

 27 29  0  0  0  0  0  0  0  0999 V2000
   44.5558   35.4160   45.1360 C   0  0  0  0  0  0  0  0  0  0  0  0
   45.2440   35.2686   43.9407 C   0  0  0  0  0  0  0  0  0  0  0  0
   46.2015   34.2729   43.7850 C   0  0  0  0  0  0  0  0  0  0  0  0
   46.4203   33.4573   44.8710 N   0  0  0  0  0  0  0  0  0  0  0  0
   45.7601   33.6000   46.0154 C   0  0  0  0  0  0  0  0  0  0  0  0
   44.8376   34.5732   46.1386 N   0  0  0  0  0  0  0  0  0  0  0  0
   46.0160   32.7224   47.1399 C   0  0  0  0  0  0  0  0  0  0  0  0
   47.2560   32.2562   47.4366 C   0  0  0  0  0  0  0  0  0  0  0  0
   47.5669   31.4294   48.4770 C   0  0  0  0  0  0  0  0  0  0  0  0
   46.5111   31.0671   49.2576 N   0  0  0  0  0  0  0  0  0  0  0  0
   45.2804   31.5191   48.9777 C   0  0  0  0  0  0  0  0  0  0  0  0
   44.9779   32.3410   47.9416 N   0  0  0  0  0  0  0  0  0  0  0  0
   44.9396   36.1849   42.8463 C   0  0  0  0  0  0  0  0  0  0  0  0
   44.1397   35.7929   41.9694 O   0  0  0  0  0  0  0  0  0  0  0  0
   43.8140   36.1617   45.3052 H   0  0  0  0  0  0  0  0  0  0  0  0
   46.7386   34.1476   42.8718 H   0  0  0  0  0  0  0  0  0  0  0  0
   48.0520   32.5939   46.7602 H   0  0  0  0  0  0  0  0  0  0  0  0
   48.6053   31.1397   48.5885 H   0  0  0  0  0  0  0  0  0  0  0  0
   44.5051   31.1644   49.6716 H   0  0  0  0  0  0  0  0  0  0  0  0
   45.5903   37.5119   42.8399 C   0  0  0  0  0  0  0  0  0  0  0  0
   44.7745   38.6991   43.3062 C   0  0  0  0  0  0  0  0  0  0  0  0
   45.9791   38.1719   44.1147 C   0  0  0  0  0  0  0  0  0  0  0  0
   46.2420   37.7771   41.9641 H   0  0  0  0  0  0  0  0  0  0  0  0
   44.9131   39.6895   42.8516 H   0  0  0  0  0  0  0  0  0  0  0  0
   43.7695   38.5492   43.7482 H   0  0  0  0  0  0  0  0  0  0  0  0
   45.7126   37.6032   45.0499 H   0  0  0  0  0  0  0  0  0  0  0  0
   46.8862   38.8148   44.1628 H   0  0  0  0  0  0  0  0  0  0  0  0
  1  6  2  0
  2  1  1  0
  3  2  2  0
  3  4  1  0
  4  5  2  0
  5  6  1  0
  5  7  1  0
  7  8  2  0
  7 12  1  0
  8  9  1  0
  9 10  2  0
 11 10  1  0
 12 11  2  0
 13  2  1  0
 14 13  2  0
  1 15  1  0
  3 16  1  0
  8 17  1  0
  9 18  1  0
 11 19  1  0
 20 21  1  0
 21 22  1  0
 22 20  1  0
 20 23  1  0
 21 24  1  0
 21 25  1  0
 22 26  1  0
 22 27  1  0
 13 20  1  0
M  ISO  5  15  14  16  14  17  14  18  14  19  14
M  END
>  <DihAtoms>  (1) 
1,12,19,20

>  <DihDeg>  (1) 
138.70096984498852

$$$$
