
 OpenBabel03252509293D

 15 16  0  0  0  0  0  0  0  0999 V2000
   44.4980   36.0100   44.8180 C   0  0  0  0  0  0  0  0  0  0  0  0
   45.0130   36.0500   43.5100 C   0  0  0  0  0  0  0  0  0  0  0  0
   45.8350   34.9980   43.1250 C   0  0  0  0  0  0  0  0  0  0  0  0
   46.1000   34.0000   44.0050 N   0  0  0  0  0  0  0  0  0  0  0  0
   45.5850   33.9970   45.2540 C   0  0  0  0  0  0  0  0  0  0  0  0
   44.7860   35.0090   45.6450 N   0  0  0  0  0  0  0  0  0  0  0  0
   43.8500   36.8010   45.1790 H   0  0  0  0  0  0  0  0  0  0  0  0
   44.7360   36.8850   42.9080 H   0  0  0  0  0  0  0  0  0  0  0  0
   45.7710   33.2230   45.9830 H   0  0  0  0  0  0  0  0  0  0  0  0
   46.3670   35.0480   41.7630 C   0  0  0  0  0  0  0  0  0  0  0  0
   46.1250   36.0230   41.2990 H   0  0  0  0  0  0  0  0  0  0  0  0
   45.7850   34.2950   41.1680 H   0  0  0  0  0  0  0  0  0  0  0  0
   47.8350   34.7410   41.7570 C   0  0  0  0  0  3  0  0  0  0  0  0
   48.5050   34.9100   40.4110 C   0  0  0  0  0  2  0  0  0  0  0  0
   48.8520   35.8020   41.5920 C   0  0  0  0  0  2  0  0  0  0  0  0
  1  7  1  0  0  0  0
  1  6  1  0  0  0  0
  2  1  2  0  0  0  0
  3  2  1  0  0  0  0
  3  4  2  0  0  0  0
  4  5  1  0  0  0  0
  5  6  2  0  0  0  0
  5  9  1  0  0  0  0
  8  2  1  0  0  0  0
 10  3  1  0  0  0  0
 11 10  1  0  0  0  0
 12 10  1  0  0  0  0
 13 10  1  0  0  0  0
 14 15  1  0  0  0  0
 14 13  1  0  0  0  0
 15 13  1  0  0  0  0
M  END
>  <minimizedAffinity>
-4.16736841

>  <minimizedRMSD>
1.20290852

$$$$
