
 OpenBabel03252508443D

 33 35  0  0  0  0  0  0  0  0999 V2000
   42.4110   34.3830   40.8720 C   0  0  0  0  0  0  0  0  0  0  0  0
   43.3500   33.6050   40.1920 C   0  0  0  0  0  0  0  0  0  0  0  0
   44.6790   33.8140   40.4550 C   0  0  0  0  0  0  0  0  0  0  0  0
   45.0640   34.7620   41.3620 C   0  0  0  0  0  0  0  0  0  0  0  0
   44.1810   35.5350   42.0400 C   0  0  0  0  0  0  0  0  0  0  0  0
   42.8370   35.3030   41.7540 C   0  0  0  0  0  0  0  0  0  0  0  0
   45.4200   33.2180   39.9360 H   0  0  0  0  0  0  0  0  0  0  0  0
   46.1420   34.8760   41.5220 H   0  0  0  0  0  0  0  0  0  0  0  0
   44.4970   36.2800   42.7510 H   0  0  0  0  0  0  0  0  0  0  0  0
   42.0970   35.9060   42.2790 H   0  0  0  0  0  0  0  0  0  0  0  0
   38.8700   33.0760   40.8890 C   0  0  0  0  0  0  0  0  0  0  0  0
   40.2120   33.2570   41.2720 C   0  0  0  0  0  0  0  0  0  0  0  0
   41.0100   34.1250   40.5590 C   0  0  0  0  0  0  0  0  0  0  0  0
   40.4450   34.7710   39.5040 N   0  0  0  0  0  0  0  0  0  0  0  0
   39.1550   34.5950   39.1410 C   0  0  0  0  0  0  0  0  0  0  0  0
   38.3720   33.7460   39.8370 N   0  0  0  0  0  0  0  0  0  0  0  0
   38.2580   32.3960   41.4540 H   0  0  0  0  0  0  0  0  0  0  0  0
   40.6450   32.7310   42.1170 H   0  0  0  0  0  0  0  0  0  0  0  0
   38.7510   35.1310   38.2950 H   0  0  0  0  0  0  0  0  0  0  0  0
   42.9030   32.5770   39.2080 C   0  0  0  0  0  0  0  0  0  0  0  0
   41.8910   32.8860   38.8720 H   0  0  0  0  0  0  0  0  0  0  0  0
   42.7430   31.6110   39.7590 H   0  0  0  0  0  0  0  0  0  0  0  0
   43.7690   32.4370   38.0750 N   0  0  0  0  0  0  0  0  0  0  0  0
   44.3710   33.2850   38.0350 H   0  0  0  0  0  0  0  0  0  0  0  0
   44.7160   31.0120   38.1510 S   0  0  0  0  0  0  0  0  0  0  0  0
   44.3480   30.1830   39.3410 O   0  0  0  0  0  0  0  0  0  0  0  0
   43.5890   29.5440   39.2770 H   0  0  0  0  0  0  0  0  0  0  0  0
   46.1730   31.3290   38.1590 O   0  0  0  0  0  0  0  0  0  0  0  0
   46.8830   30.8060   38.5900 H   0  0  0  0  0  0  0  0  0  0  0  0
   44.3690   30.1470   36.7450 O   0  0  0  0  0  0  0  0  0  0  0  0
   43.7520   30.9430   35.8050 C   0  0  0  0  0  3  0  0  0  0  0  0
   43.1000   30.3640   34.5920 C   0  0  0  0  0  2  0  0  0  0  0  0
   44.4390   31.0620   34.4450 C   0  0  0  0  0  2  0  0  0  0  0  0
  1  6  1  0  0  0  0
  2  3  1  0  0  0  0
  2  1  2  0  0  0  0
  3  4  2  0  0  0  0
  4  8  1  0  0  0  0
  4  5  1  0  0  0  0
  5  9  1  0  0  0  0
  6  5  2  0  0  0  0
  6 10  1  0  0  0  0
  7  3  1  0  0  0  0
 11 12  1  0  0  0  0
 11 17  1  0  0  0  0
 12 18  1  0  0  0  0
 13  1  1  0  0  0  0
 13 12  2  0  0  0  0
 14 13  1  0  0  0  0
 15 14  2  0  0  0  0
 15 16  1  0  0  0  0
 16 11  2  0  0  0  0
 19 15  1  0  0  0  0
 20 22  1  0  0  0  0
 20  2  1  0  0  0  0
 21 20  1  0  0  0  0
 23 25  1  0  0  0  0
 23 20  1  0  0  0  0
 24 23  1  0  0  0  0
 25 28  1  0  0  0  0
 25 26  1  0  0  0  0
 27 26  1  0  0  0  0
 28 29  1  0  0  0  0
 30 25  1  0  0  0  0
 31 30  1  0  0  0  0
 32 31  1  0  0  0  0
 33 32  1  0  0  0  0
 33 31  1  0  0  0  0
M  END
>  <minimizedAffinity>
-3.91677237

>  <minimizedRMSD>
7.09495163

$$$$
