
 OpenBabel03242520343D

 22 24  0  0  1  0  0  0  0  0999 V2000
   47.5060   33.1910   41.1660 C   0  0  1  0  0  0  0  0  0  0  0  0
   46.9520   34.1730   40.2590 C   0  0  0  0  0  0  0  0  0  0  0  0
   48.3420   34.3910   40.7330 C   0  0  1  0  0  0  0  0  0  0  0  0
   47.8500   32.2020   40.7440 H   0  0  0  0  0  0  0  0  0  0  0  0
   46.1850   34.8690   40.6820 H   0  0  0  0  0  0  0  0  0  0  0  0
   46.7520   33.9600   39.1840 H   0  0  0  0  0  0  0  0  0  0  0  0
   49.1340   34.1890   39.9780 H   0  0  0  0  0  0  0  0  0  0  0  0
   45.8620   33.7660   43.0220 C   0  0  0  0  0  0  0  0  0  0  0  0
   47.0640   33.1230   42.5760 C   0  0  0  0  0  0  0  0  0  0  0  0
   47.8020   32.4480   43.5280 C   0  0  0  0  0  0  0  0  0  0  0  0
   47.3690   32.4220   44.8120 N   0  0  0  0  0  0  0  0  0  0  0  0
   46.2360   33.0350   45.2010 C   0  0  0  0  0  0  0  0  0  0  0  0
   45.4890   33.7070   44.2920 N   0  0  0  0  0  0  0  0  0  0  0  0
   45.2640   34.3020   42.2980 H   0  0  0  0  0  0  0  0  0  0  0  0
   48.7140   31.9510   43.2340 H   0  0  0  0  0  0  0  0  0  0  0  0
   45.8320   32.9570   46.6350 C   0  0  0  0  0  0  0  0  0  0  0  0
   46.9860   32.5050   47.5420 C   0  0  0  0  0  0  0  0  0  0  0  0
   45.7800   31.6540   47.3270 C   0  0  0  0  0  0  0  0  0  0  0  0
   48.6750   35.4660   41.7050 C   0  0  0  0  0  0  0  0  0  0  0  0
   49.3530   36.5180   41.1150 F   0  0  0  0  0  0  0  0  0  0  0  0
   49.4360   34.9800   42.7710 F   0  0  0  0  0  0  0  0  0  0  0  0
   47.4970   35.9770   42.1960 F   0  0  0  0  0  0  0  0  0  0  0  0
  1  4  1  6  0  0  0
  1  9  1  0  0  0  0
  2  5  1  0  0  0  0
  2  3  1  0  0  0  0
  2  1  1  0  0  0  0
  3  7  1  6  0  0  0
  3  1  1  0  0  0  0
  3 19  1  0  0  0  0
  6  2  1  0  0  0  0
  8 13  1  0  0  0  0
  9  8  2  0  0  0  0
  9 10  1  0  0  0  0
 10 11  2  0  0  0  0
 11 12  1  0  0  0  0
 12 16  1  0  0  0  0
 13 12  2  0  0  0  0
 14  8  1  0  0  0  0
 15 10  1  0  0  0  0
 16 18  1  0  0  0  0
 16 17  1  0  0  0  0
 18 17  1  0  0  0  0
 19 22  1  0  0  0  0
 19 21  1  0  0  0  0
 20 19  1  0  0  0  0
M  END
>  <minimizedAffinity>
-4.77934504

>  <minimizedRMSD>
0.904953837

$$$$
