REMARK  Name = 
REMARK  3 active torsions:
REMARK  status: ('A' for Active; 'I' for Inactive)
REMARK    1  A    between atoms: C_2  and  C_13
REMARK    2  A    between atoms: C_5  and  C_7
REMARK    3  A    between atoms: C_13  and  C_20
REMARK                            x       y       z     vdW  Elec       q    Type
REMARK                         _______ _______ _______ _____ _____    ______ ____
ROOT
ATOM      1  C   UNL     1      44.556  35.416  45.136  0.00  0.00    +0.000 A 
ATOM      2  C   UNL     1      45.244  35.269  43.941  0.00  0.00    +0.000 A 
ATOM      3  C   UNL     1      46.202  34.273  43.785  0.00  0.00    +0.000 A 
ATOM      4  N   UNL     1      46.420  33.457  44.871  0.00  0.00    +0.000 NA
ATOM      5  C   UNL     1      45.760  33.600  46.015  0.00  0.00    +0.000 A 
ATOM      6  N   UNL     1      44.838  34.573  46.139  0.00  0.00    +0.000 NA
ATOM      7  H   UNL     1      43.814  36.162  45.305  0.00  0.00    +0.000 HD
ATOM      8  H   UNL     1      46.739  34.148  42.872  0.00  0.00    +0.000 HD
ENDROOT
BRANCH   5   9
ATOM      9  C   UNL     1      46.016  32.722  47.140  0.00  0.00    +0.000 A 
ATOM     10  C   UNL     1      47.256  32.256  47.437  0.00  0.00    +0.000 A 
ATOM     11  C   UNL     1      47.567  31.429  48.477  0.00  0.00    +0.000 A 
ATOM     12  N   UNL     1      46.511  31.067  49.258  0.00  0.00    +0.000 NA
ATOM     13  C   UNL     1      45.280  31.519  48.978  0.00  0.00    +0.000 A 
ATOM     14  N   UNL     1      44.978  32.341  47.942  0.00  0.00    +0.000 NA
ATOM     15  H   UNL     1      48.052  32.594  46.760  0.00  0.00    +0.000 HD
ATOM     16  H   UNL     1      48.605  31.140  48.589  0.00  0.00    +0.000 HD
ATOM     17  H   UNL     1      44.505  31.164  49.672  0.00  0.00    +0.000 HD
ENDBRANCH   5   9
BRANCH   2  18
ATOM     18  C   UNL     1      44.940  36.185  42.846  0.00  0.00    +0.000 C 
ATOM     19  O   UNL     1      44.140  35.793  41.969  0.00  0.00    +0.000 OA
BRANCH  18  20
ATOM     20  C   UNL     1      45.590  37.512  42.840  0.00  0.00    +0.000 C 
ATOM     21  C   UNL     1      44.775  38.699  43.306  0.00  0.00    +0.000 C 
ATOM     22  C   UNL     1      45.979  38.172  44.115  0.00  0.00    +0.000 C 
ENDBRANCH  18  20
ENDBRANCH   2  18
TORSDOF 3
