
 OpenBabel03252508443D

 33 35  0  0  0  0  0  0  0  0999 V2000
   42.5190   34.5080   40.9350 C   0  0  0  0  0  0  0  0  0  0  0  0
   42.9210   33.2410   41.3610 C   0  0  0  0  0  0  0  0  0  0  0  0
   44.0370   33.1460   42.1510 C   0  0  0  0  0  0  0  0  0  0  0  0
   44.7300   34.2690   42.5080 C   0  0  0  0  0  0  0  0  0  0  0  0
   44.3690   35.5150   42.1130 C   0  0  0  0  0  0  0  0  0  0  0  0
   43.2320   35.5830   41.3100 C   0  0  0  0  0  0  0  0  0  0  0  0
   44.3620   32.1700   42.4910 H   0  0  0  0  0  0  0  0  0  0  0  0
   45.6120   34.1190   43.1410 H   0  0  0  0  0  0  0  0  0  0  0  0
   44.9250   36.3920   42.4000 H   0  0  0  0  0  0  0  0  0  0  0  0
   42.9110   36.5680   40.9730 H   0  0  0  0  0  0  0  0  0  0  0  0
   38.9580   34.6860   39.6960 C   0  0  0  0  0  0  0  0  0  0  0  0
   40.0440   34.6430   40.5900 C   0  0  0  0  0  0  0  0  0  0  0  0
   41.3270   34.5590   40.0960 C   0  0  0  0  0  0  0  0  0  0  0  0
   41.4760   34.5230   38.7440 N   0  0  0  0  0  0  0  0  0  0  0  0
   40.4300   34.5660   37.8890 C   0  0  0  0  0  0  0  0  0  0  0  0
   39.1730   34.6470   38.3710 N   0  0  0  0  0  0  0  0  0  0  0  0
   37.9620   34.7510   40.0940 H   0  0  0  0  0  0  0  0  0  0  0  0
   39.9050   34.6720   41.6650 H   0  0  0  0  0  0  0  0  0  0  0  0
   40.5990   34.5340   36.8220 H   0  0  0  0  0  0  0  0  0  0  0  0
   42.1470   32.0320   40.9570 C   0  0  0  0  0  0  0  0  0  0  0  0
   42.1630   32.0060   39.8480 H   0  0  0  0  0  0  0  0  0  0  0  0
   41.0690   32.2000   41.2280 H   0  0  0  0  0  0  0  0  0  0  0  0
   42.6680   30.8030   41.4790 N   0  0  0  0  0  0  0  0  0  0  0  0
   43.6540   30.9780   41.7640 H   0  0  0  0  0  0  0  0  0  0  0  0
   41.7440   30.2070   42.7920 S   0  0  0  0  0  0  0  0  0  0  0  0
   40.7010   31.1970   43.2090 O   0  0  0  0  0  0  0  0  0  0  0  0
   39.8250   31.2120   42.7410 H   0  0  0  0  0  0  0  0  0  0  0  0
   42.6140   29.8400   43.9460 O   0  0  0  0  0  0  0  0  0  0  0  0
   42.3720   29.8760   44.8960 H   0  0  0  0  0  0  0  0  0  0  0  0
   40.9860   28.8090   42.2320 O   0  0  0  0  0  0  0  0  0  0  0  0
   40.6950   28.9000   40.8880 C   0  0  0  0  0  3  0  0  0  0  0  0
   39.3980   29.4610   40.4030 C   0  0  0  0  0  2  0  0  0  0  0  0
   39.6150   27.9610   40.3510 C   0  0  0  0  0  2  0  0  0  0  0  0
  1  6  2  0  0  0  0
  1  2  1  0  0  0  0
  2  3  2  0  0  0  0
  3  7  1  0  0  0  0
  3  4  1  0  0  0  0
  4  8  1  0  0  0  0
  5  9  1  0  0  0  0
  5  4  2  0  0  0  0
  6  5  1  0  0  0  0
 10  6  1  0  0  0  0
 11 17  1  0  0  0  0
 11 12  1  0  0  0  0
 12 18  1  0  0  0  0
 13 12  2  0  0  0  0
 13  1  1  0  0  0  0
 14 13  1  0  0  0  0
 15 16  1  0  0  0  0
 15 14  2  0  0  0  0
 16 11  2  0  0  0  0
 19 15  1  0  0  0  0
 20 22  1  0  0  0  0
 20  2  1  0  0  0  0
 20 23  1  0  0  0  0
 21 20  1  0  0  0  0
 23 24  1  0  0  0  0
 23 25  1  0  0  0  0
 25 26  1  0  0  0  0
 25 28  1  0  0  0  0
 27 26  1  0  0  0  0
 28 29  1  0  0  0  0
 30 25  1  0  0  0  0
 31 30  1  0  0  0  0
 32 31  1  0  0  0  0
 33 32  1  0  0  0  0
 33 31  1  0  0  0  0
M  END
>  <minimizedAffinity>
-4.26544666

>  <minimizedRMSD>
6.48451042

$$$$
