
 OpenBabel03242520023D

 19 21  0  0  0  0  0  0  0  0999 V2000
   46.1910   33.0290   45.6960 C   0  0  0  0  0  0  0  0  0  0  0  0
   47.0660   32.0090   45.2950 C   0  0  0  0  0  0  0  0  0  0  0  0
   47.1930   31.1580   46.3710 C   0  0  0  0  0  0  0  0  0  0  0  0
   46.4220   31.6470   47.3820 N   0  0  0  0  0  0  0  0  0  0  0  0
   45.8250   32.7800   46.9530 N   0  0  0  0  0  0  0  0  0  0  0  0
   47.5370   31.9320   44.3210 H   0  0  0  0  0  0  0  0  0  0  0  0
   47.8050   30.2680   46.3740 H   0  0  0  0  0  0  0  0  0  0  0  0
   44.4960   36.0300   44.4520 C   0  0  0  0  0  0  0  0  0  0  0  0
   45.0980   36.1950   43.1720 C   0  0  0  0  0  0  0  0  0  0  0  0
   46.0740   35.2820   42.7440 C   0  0  0  0  0  0  0  0  0  0  0  0
   46.3600   34.2970   43.6220 N   0  0  0  0  0  0  0  0  0  0  0  0
   45.8050   34.1320   44.8220 C   0  0  0  0  0  0  0  0  0  0  0  0
   44.8610   35.0030   45.2500 N   0  0  0  0  0  0  0  0  0  0  0  0
   43.7480   36.7660   44.7300 H   0  0  0  0  0  0  0  0  0  0  0  0
   44.8190   37.0120   42.5130 H   0  0  0  0  0  0  0  0  0  0  0  0
   46.5480   35.3780   41.7840 H   0  0  0  0  0  0  0  0  0  0  0  0
   46.3000   31.0250   48.6710 C   0  0  0  0  0  0  0  0  0  0  0  0
   45.2180   31.3170   49.6180 C   0  0  0  0  0  0  0  0  0  0  0  0
   45.1000   30.1090   48.8050 C   0  0  0  0  0  0  0  0  0  0  0  0
  1  5  2  0  0  0  0
  2  1  1  0  0  0  0
  2  3  2  0  0  0  0
  3  7  1  0  0  0  0
  3  4  1  0  0  0  0
  4 17  1  0  0  0  0
  5  4  1  0  0  0  0
  6  2  1  0  0  0  0
  8 14  1  0  0  0  0
  8 13  1  0  0  0  0
  9  8  2  0  0  0  0
 10  9  1  0  0  0  0
 10 11  2  0  0  0  0
 11 12  1  0  0  0  0
 12 13  2  0  0  0  0
 12  1  1  0  0  0  0
 15  9  1  0  0  0  0
 16 10  1  0  0  0  0
 17 19  1  0  0  0  0
 17 18  1  0  0  0  0
 19 18  1  0  0  0  0
M  END
>  <minimizedAffinity>
-4.81038094

>  <minimizedRMSD>
1.43582308

$$$$
