
 OpenBabel03252504293D

 21 22  0  0  0  0  0  0  0  0999 V2000
   44.5350   35.1140   41.7700 C   0  0  0  0  0  0  0  0  0  0  0  0
   44.7050   34.2730   41.0750 H   0  0  0  0  0  0  0  0  0  0  0  0
   45.3520   35.8550   41.4900 H   0  0  0  0  0  0  0  0  0  0  0  0
   44.4430   35.6290   44.1060 C   0  0  0  0  0  0  0  0  0  0  0  0
   44.8330   34.6950   43.1340 C   0  0  0  0  0  0  0  0  0  0  0  0
   45.4240   33.5420   43.5800 C   0  0  0  0  0  0  0  0  0  0  0  0
   45.5900   33.3780   44.9040 N   0  0  0  0  0  0  0  0  0  0  0  0
   45.2110   34.2780   45.8120 C   0  0  0  0  0  0  0  0  0  0  0  0
   44.6080   35.4720   45.4480 N   0  0  0  0  0  0  0  0  0  0  0  0
   43.9680   36.5770   43.8770 H   0  0  0  0  0  0  0  0  0  0  0  0
   45.7070   32.8520   42.7970 H   0  0  0  0  0  0  0  0  0  0  0  0
   45.4570   33.9070   46.8150 H   0  0  0  0  0  0  0  0  0  0  0  0
   43.3210   35.7600   41.6020 O   0  0  0  0  0  0  0  0  0  0  0  0
   42.3030   35.3430   40.8000 C   0  0  0  0  0  0  0  0  0  0  0  0
   41.0730   35.8300   40.9500 C   0  0  0  0  0  0  0  0  0  0  0  0
   39.8100   35.5860   40.2170 C   0  0  0  0  0  0  0  0  0  0  0  0
   39.0130   35.2050   40.9050 H   0  0  0  0  0  0  0  0  0  0  0  0
   39.4570   36.5290   39.7230 H   0  0  0  0  0  0  0  0  0  0  0  0
   40.0450   34.5170   39.1850 C   0  0  0  0  0  0  0  0  0  0  0  0
   40.0850   34.8540   37.7160 C   0  0  0  0  0  0  0  0  0  0  0  0
   38.9570   34.0750   38.2810 C   0  0  0  0  0  0  0  0  0  0  0  0
  1  5  1  0  0  0  0
  2  1  1  0  0  0  0
  3  1  1  0  0  0  0
  4  9  1  0  0  0  0
  5  6  1  0  0  0  0
  5  4  2  0  0  0  0
  6  7  2  0  0  0  0
  7  8  1  0  0  0  0
  8 12  1  0  0  0  0
  9  8  2  0  0  0  0
 10  4  1  0  0  0  0
 11  6  1  0  0  0  0
 13  1  1  0  0  0  0
 14 15  2  0  0  0  0
 14 13  1  0  0  0  0
 16 17  1  0  0  0  0
 16 15  1  0  0  0  0
 18 16  1  0  0  0  0
 19 16  1  0  0  0  0
 20 21  1  0  0  0  0
 20 19  1  0  0  0  0
 21 19  1  0  0  0  0
M  END
>  <minimizedAffinity>
-4.48024511

>  <minimizedRMSD>
0.776211679

$$$$
