
 OpenBabel03242520473D

 22 23  0  0  0  0  0  0  0  0999 V2000
   44.9110   35.1160   44.0600 C   0  0  0  0  0  0  0  0  0  0  0  0
   45.7650   35.3840   42.9630 C   0  0  0  0  0  0  0  0  0  0  0  0
   46.9660   34.6720   42.9070 C   0  0  0  0  0  0  0  0  0  0  0  0
   47.2570   33.7770   43.8790 N   0  0  0  0  0  0  0  0  0  0  0  0
   46.3890   33.5620   44.9130 C   0  0  0  0  0  0  0  0  0  0  0  0
   45.2540   34.2320   44.9710 N   0  0  0  0  0  0  0  0  0  0  0  0
   43.6800   35.8390   44.1170 N   0  0  0  0  0  0  0  0  0  0  0  0
   45.4780   36.1130   42.2150 H   0  0  0  0  0  0  0  0  0  0  0  0
   46.6520   32.8380   45.6760 H   0  0  0  0  0  0  0  0  0  0  0  0
   43.7570   36.7990   44.5510 H   0  0  0  0  0  0  0  0  0  0  0  0
   42.7670   35.4390   43.7500 H   0  0  0  0  0  0  0  0  0  0  0  0
   47.8200   34.9650   41.7750 C   0  0  0  0  0  0  0  0  0  0  0  0
   48.6260   35.9040   41.6920 O   0  0  0  0  0  0  0  0  0  0  0  0
   47.6260   34.0300   40.7460 O   0  0  0  0  0  0  0  0  0  0  0  0
   49.9150   32.7240   41.2860 O   0  0  0  0  0  0  0  0  0  0  0  0
   48.6610   32.6970   40.4710 P   0  0  1  0  0  0  0  0  0  0  0  0
   47.7730   31.3120   40.9540 O   0  0  0  0  0  0  0  0  0  0  0  0
   47.1460   31.5430   41.6850 H   0  0  0  0  0  0  0  0  0  0  0  0
   48.9800   32.5940   38.8310 O   0  0  0  0  0  0  0  0  0  0  0  0
   48.1080   33.3090   38.0310 C   0  0  0  0  0  0  0  0  0  0  0  0
   48.5350   33.3800   36.5740 C   0  0  0  0  0  0  0  0  0  0  0  0
   48.4820   34.5970   37.4180 C   0  0  0  0  0  0  0  0  0  0  0  0
  1  7  1  0  0  0  0
  1  6  1  0  0  0  0
  2  1  2  0  0  0  0
  3  2  1  0  0  0  0
  3  4  2  0  0  0  0
  4  5  1  0  0  0  0
  5  6  2  0  0  0  0
  5  9  1  0  0  0  0
  7 10  1  0  0  0  0
  8  2  1  0  0  0  0
 11  7  1  0  0  0  0
 12  3  1  0  0  0  0
 13 12  2  0  0  0  0
 14 12  1  0  0  0  0
 16 14  1  0  0  0  0
 16 17  1  0  0  0  0
 16 15  2  1  0  0  0
 17 18  1  0  0  0  0
 19 16  1  0  0  0  0
 20 19  1  0  0  0  0
 21 22  1  0  0  0  0
 21 20  1  0  0  0  0
 22 20  1  0  0  0  0
M  END
>  <minimizedAffinity>
-4.63907385

>  <minimizedRMSD>
1.72974169

$$$$
