
 OpenBabel03242512333D

 14 15  0  0  0  0  0  0  0  0999 V2000
   46.6770   34.2690   43.5650 C   0  0  0  0  0  0  0  0  0  0  0  0
   46.1860   35.2690   42.7100 C   0  0  0  0  0  0  0  0  0  0  0  0
   45.0940   36.0010   43.1610 C   0  0  0  0  0  0  0  0  0  0  0  0
   44.5560   35.7230   44.3880 N   0  0  0  0  0  0  0  0  0  0  0  0
   45.0610   34.7590   45.1660 C   0  0  0  0  0  0  0  0  0  0  0  0
   46.1090   34.0470   44.7520 N   0  0  0  0  0  0  0  0  0  0  0  0
   46.5840   35.5170   41.7350 H   0  0  0  0  0  0  0  0  0  0  0  0
   44.6930   36.7860   42.5110 H   0  0  0  0  0  0  0  0  0  0  0  0
   44.6050   34.5670   46.1390 H   0  0  0  0  0  0  0  0  0  0  0  0
   47.8030   33.5160   43.1010 C   0  0  0  0  0  0  0  0  0  0  0  0
   48.0520   32.3220   43.4870 O   0  0  0  0  0  0  0  0  0  0  0  0
   48.7650   34.0970   42.1180 C   0  0  0  0  0  0  0  0  0  0  0  0
   50.2160   33.7960   42.3820 C   0  0  0  0  0  0  0  0  0  0  0  0
   49.6940   35.1720   42.5170 C   0  0  0  0  0  0  0  0  0  0  0  0
  1  6  1  0  0  0  0
  2  3  1  0  0  0  0
  2  1  2  0  0  0  0
  3  4  2  0  0  0  0
  4  5  1  0  0  0  0
  5  9  1  0  0  0  0
  6  5  2  0  0  0  0
  7  2  1  0  0  0  0
  8  3  1  0  0  0  0
 10 11  2  0  0  0  0
 10  1  1  0  0  0  0
 12 13  1  0  0  0  0
 12 14  1  0  0  0  0
 12 10  1  0  0  0  0
 13 14  1  0  0  0  0
M  END
>  <minimizedAffinity>
-3.92178798

>  <minimizedRMSD>
2.63332176

$$$$
