
 OpenBabel03242521423D

 28 30  0  0  1  0  0  0  0  0999 V2000
   36.6690   28.4560   41.8000 C   0  0  0  0  0  0  0  0  0  0  0  0
   37.6250   29.4920   41.8340 C   0  0  0  0  0  0  0  0  0  0  0  0
   37.3910   30.6180   41.0450 C   0  0  0  0  0  0  0  0  0  0  0  0
   36.2770   30.6600   40.2990 N   0  0  0  0  0  0  0  0  0  0  0  0
   35.3790   29.6370   40.2950 C   0  0  0  0  0  0  0  0  0  0  0  0
   35.5720   28.5480   41.0370 N   0  0  0  0  0  0  0  0  0  0  0  0
   38.4880   29.3430   42.4780 H   0  0  0  0  0  0  0  0  0  0  0  0
   34.5140   29.7560   39.6680 H   0  0  0  0  0  0  0  0  0  0  0  0
   38.2460   32.7340   40.0450 C   0  0  2  0  0  0  0  0  0  0  0  0
   38.3920   31.6710   41.0990 C   0  0  2  0  0  0  0  0  0  0  0  0
   39.7110   31.2400   40.8400 O   0  0  0  0  0  0  0  0  0  0  0  0
   40.4300   32.4180   40.8130 C   0  0  0  0  0  0  0  0  0  0  0  0
   39.5330   33.5270   40.3440 C   0  0  1  0  0  0  0  0  0  0  0  0
   38.4080   32.3480   39.0210 H   0  0  0  0  0  0  0  0  0  0  0  0
   38.3920   32.1560   42.0970 H   0  0  0  0  0  0  0  0  0  0  0  0
   41.3730   32.3450   40.2740 H   0  0  0  0  0  0  0  0  0  0  0  0
   40.6840   32.6350   41.8850 H   0  0  0  0  0  0  0  0  0  0  0  0
   39.2840   34.2710   41.1150 H   0  0  0  0  0  0  0  0  0  0  0  0
   37.1030   33.4810   40.1800 O   0  0  0  0  0  0  0  0  0  0  0  0
   36.8750   33.9040   39.3160 H   0  0  0  0  0  0  0  0  0  0  0  0
   39.9610   34.1590   39.1950 O   0  0  0  0  0  0  0  0  0  0  0  0
   39.7500   35.1230   39.1830 H   0  0  0  0  0  0  0  0  0  0  0  0
   36.9350   27.2310   42.6540 C   0  0  0  0  0  0  0  0  0  0  0  0
   36.0360   26.9640   43.2390 H   0  0  0  0  0  0  0  0  0  0  0  0
   37.8040   27.4520   43.2940 H   0  0  0  0  0  0  0  0  0  0  0  0
   37.2430   26.0380   41.7440 C   0  0  0  0  0  3  0  0  0  0  0  0
   38.2870   25.0320   42.2290 C   0  0  0  0  0  2  0  0  0  0  0  0
   36.8410   24.6790   42.2150 C   0  0  0  0  0  2  0  0  0  0  0  0
  1  2  1  0  0  0  0
  1 23  1  0  0  0  0
  2  7  1  0  0  0  0
  3 10  1  0  0  0  0
  3  2  2  0  0  0  0
  4  3  1  0  0  0  0
  5  4  2  0  0  0  0
  5  6  1  0  0  0  0
  6  1  2  0  0  0  0
  8  5  1  0  0  0  0
  9 14  1  6  0  0  0
  9 19  1  0  0  0  0
  9 13  1  0  0  0  0
  9 10  1  0  0  0  0
 10 15  1  1  0  0  0
 11 10  1  0  0  0  0
 12 11  1  0  0  0  0
 12 17  1  0  0  0  0
 13 12  1  0  0  0  0
 13 18  1  1  0  0  0
 16 12  1  0  0  0  0
 20 19  1  0  0  0  0
 21 13  1  0  0  0  0
 22 21  1  0  0  0  0
 23 24  1  0  0  0  0
 23 25  1  0  0  0  0
 26 28  1  0  0  0  0
 26 27  1  0  0  0  0
 26 23  1  0  0  0  0
 28 27  1  0  0  0  0
M  END
>  <minimizedAffinity>
-5.34087372

$$$$

 OpenBabel03242521423D

 28 30  0  0  1  0  0  0  0  0999 V2000
   38.3820   24.9110   42.0410 C   0  0  0  0  0  0  0  0  0  0  0  0
   38.0550   26.2210   41.6340 C   0  0  0  0  0  0  0  0  0  0  0  0
   38.7440   27.2770   42.2300 C   0  0  0  0  0  0  0  0  0  0  0  0
   39.6770   26.9970   43.1530 N   0  0  0  0  0  0  0  0  0  0  0  0
   39.9630   25.7170   43.5160 C   0  0  0  0  0  0  0  0  0  0  0  0
   39.3240   24.6860   42.9670 N   0  0  0  0  0  0  0  0  0  0  0  0
   37.2820   26.3210   40.8780 H   0  0  0  0  0  0  0  0  0  0  0  0
   40.7260   25.5860   44.2630 H   0  0  0  0  0  0  0  0  0  0  0  0
   37.0730   29.1220   42.3200 C   0  0  2  0  0  0  0  0  0  0  0  0
   38.3880   28.6170   41.7920 C   0  0  2  0  0  0  0  0  0  0  0  0
   38.1650   28.7390   40.4040 O   0  0  0  0  0  0  0  0  0  0  0  0
   37.7160   30.0370   40.2680 C   0  0  0  0  0  0  0  0  0  0  0  0
   37.0040   30.4420   41.5260 C   0  0  1  0  0  0  0  0  0  0  0  0
   36.2080   28.5440   41.9420 H   0  0  0  0  0  0  0  0  0  0  0  0
   39.1830   29.3400   42.0660 H   0  0  0  0  0  0  0  0  0  0  0  0
   37.1490   30.2120   39.3560 H   0  0  0  0  0  0  0  0  0  0  0  0
   38.6430   30.6660   40.2010 H   0  0  0  0  0  0  0  0  0  0  0  0
   37.5250   31.2050   42.1220 H   0  0  0  0  0  0  0  0  0  0  0  0
   37.0650   29.3030   43.6800 O   0  0  0  0  0  0  0  0  0  0  0  0
   36.1340   29.2920   44.0140 H   0  0  0  0  0  0  0  0  0  0  0  0
   35.6840   30.8000   41.3450 O   0  0  0  0  0  0  0  0  0  0  0  0
   35.3920   31.5210   41.9520 H   0  0  0  0  0  0  0  0  0  0  0  0
   37.6230   23.7670   41.3950 C   0  0  0  0  0  0  0  0  0  0  0  0
   37.1000   23.1680   42.1630 H   0  0  0  0  0  0  0  0  0  0  0  0
   38.3460   23.1720   40.8160 H   0  0  0  0  0  0  0  0  0  0  0  0
   36.5470   24.3370   40.4670 C   0  0  0  0  0  3  0  0  0  0  0  0
   36.5890   23.9160   38.9970 C   0  0  0  0  0  2  0  0  0  0  0  0
   35.5360   23.3900   39.9080 C   0  0  0  0  0  2  0  0  0  0  0  0
  1  6  1  0  0  0  0
  2  1  2  0  0  0  0
  2  3  1  0  0  0  0
  3  4  2  0  0  0  0
  4  5  1  0  0  0  0
  5  8  1  0  0  0  0
  6  5  2  0  0  0  0
  7  2  1  0  0  0  0
  9 14  1  6  0  0  0
  9 19  1  0  0  0  0
 10 15  1  1  0  0  0
 10  3  1  0  0  0  0
 10  9  1  0  0  0  0
 11 10  1  0  0  0  0
 12 11  1  0  0  0  0
 12 13  1  0  0  0  0
 13 18  1  1  0  0  0
 13  9  1  0  0  0  0
 16 12  1  0  0  0  0
 17 12  1  0  0  0  0
 19 20  1  0  0  0  0
 21 13  1  0  0  0  0
 21 22  1  0  0  0  0
 23  1  1  0  0  0  0
 23 24  1  0  0  0  0
 25 23  1  0  0  0  0
 26 23  1  0  0  0  0
 27 28  1  0  0  0  0
 27 26  1  0  0  0  0
 28 26  1  0  0  0  0
M  END
>  <minimizedAffinity>
-5.18024826

$$$$

 OpenBabel03242521423D

 28 30  0  0  1  0  0  0  0  0999 V2000
   37.4550   27.1560   41.4970 C   0  0  0  0  0  0  0  0  0  0  0  0
   37.6970   28.4480   40.9870 C   0  0  0  0  0  0  0  0  0  0  0  0
   37.9040   29.4800   41.9030 C   0  0  0  0  0  0  0  0  0  0  0  0
   37.8650   29.1930   43.2130 N   0  0  0  0  0  0  0  0  0  0  0  0
   37.6300   27.9310   43.6630 C   0  0  0  0  0  0  0  0  0  0  0  0
   37.4270   26.9240   42.8160 N   0  0  0  0  0  0  0  0  0  0  0  0
   37.7050   28.5560   39.9060 H   0  0  0  0  0  0  0  0  0  0  0  0
   37.6160   27.7930   44.7300 H   0  0  0  0  0  0  0  0  0  0  0  0
   37.0530   31.3310   40.4700 C   0  0  2  0  0  0  0  0  0  0  0  0
   38.1510   30.8010   41.3500 C   0  0  2  0  0  0  0  0  0  0  0  0
   39.2430   30.8680   40.4570 O   0  0  0  0  0  0  0  0  0  0  0  0
   39.1810   32.1610   39.9780 C   0  0  0  0  0  0  0  0  0  0  0  0
   37.7510   32.6180   39.9880 C   0  0  1  0  0  0  0  0  0  0  0  0
   36.9230   30.7400   39.5430 H   0  0  0  0  0  0  0  0  0  0  0  0
   38.3420   31.5330   42.1620 H   0  0  0  0  0  0  0  0  0  0  0  0
   39.6900   32.3010   39.0260 H   0  0  0  0  0  0  0  0  0  0  0  0
   39.7280   32.7840   40.7340 H   0  0  0  0  0  0  0  0  0  0  0  0
   37.5270   33.4040   40.7240 H   0  0  0  0  0  0  0  0  0  0  0  0
   35.8810   31.5670   41.1440 O   0  0  0  0  0  0  0  0  0  0  0  0
   35.1240   31.5720   40.5080 H   0  0  0  0  0  0  0  0  0  0  0  0
   37.2570   32.9720   38.7500 O   0  0  0  0  0  0  0  0  0  0  0  0
   36.6110   33.7180   38.7900 H   0  0  0  0  0  0  0  0  0  0  0  0
   37.2220   26.0410   40.4950 C   0  0  0  0  0  0  0  0  0  0  0  0
   38.1550   25.8080   39.9510 H   0  0  0  0  0  0  0  0  0  0  0  0
   36.4110   26.3620   39.8230 H   0  0  0  0  0  0  0  0  0  0  0  0
   36.8140   24.7680   41.2420 C   0  0  0  0  0  3  0  0  0  0  0  0
   36.3250   23.5860   40.4050 C   0  0  0  0  0  2  0  0  0  0  0  0
   37.6610   23.5510   41.0620 C   0  0  0  0  0  2  0  0  0  0  0  0
  1  6  1  0  0  0  0
  2  1  2  0  0  0  0
  2  3  1  0  0  0  0
  3  4  2  0  0  0  0
  4  5  1  0  0  0  0
  5  8  1  0  0  0  0
  6  5  2  0  0  0  0
  7  2  1  0  0  0  0
  9 14  1  6  0  0  0
  9 19  1  0  0  0  0
  9 10  1  0  0  0  0
 10  3  1  0  0  0  0
 10 15  1  1  0  0  0
 11 10  1  0  0  0  0
 12 13  1  0  0  0  0
 12 11  1  0  0  0  0
 12 17  1  0  0  0  0
 13  9  1  0  0  0  0
 13 18  1  1  0  0  0
 16 12  1  0  0  0  0
 20 19  1  0  0  0  0
 21 22  1  0  0  0  0
 21 13  1  0  0  0  0
 23 26  1  0  0  0  0
 23  1  1  0  0  0  0
 24 23  1  0  0  0  0
 25 23  1  0  0  0  0
 27 28  1  0  0  0  0
 27 26  1  0  0  0  0
 28 26  1  0  0  0  0
M  END
>  <minimizedAffinity>
-5.12085152

$$$$

 OpenBabel03242521423D

 28 30  0  0  1  0  0  0  0  0999 V2000
   37.9470   29.3340   40.2750 C   0  0  0  0  0  0  0  0  0  0  0  0
   38.9670   30.2700   40.0070 C   0  0  0  0  0  0  0  0  0  0  0  0
   38.6860   31.2970   39.1060 C   0  0  0  0  0  0  0  0  0  0  0  0
   37.4690   31.3440   38.5440 N   0  0  0  0  0  0  0  0  0  0  0  0
   36.5120   30.4200   38.8310 C   0  0  0  0  0  0  0  0  0  0  0  0
   36.7470   29.4270   39.6850 N   0  0  0  0  0  0  0  0  0  0  0  0
   39.9120   30.1280   40.5250 H   0  0  0  0  0  0  0  0  0  0  0  0
   35.5650   30.5350   38.3340 H   0  0  0  0  0  0  0  0  0  0  0  0
   40.4020   32.1200   37.4970 C   0  0  2  0  0  0  0  0  0  0  0  0
   39.7550   32.2490   38.8490 C   0  0  2  0  0  0  0  0  0  0  0  0
   40.8850   32.1000   39.6830 O   0  0  0  0  0  0  0  0  0  0  0  0
   41.7870   33.0030   39.1590 C   0  0  0  0  0  0  0  0  0  0  0  0
   41.5290   33.1520   37.6870 C   0  0  1  0  0  0  0  0  0  0  0  0
   40.9420   31.1620   37.3700 H   0  0  0  0  0  0  0  0  0  0  0  0
   39.3880   33.2880   38.9710 H   0  0  0  0  0  0  0  0  0  0  0  0
   42.8220   32.7880   39.4140 H   0  0  0  0  0  0  0  0  0  0  0  0
   41.5320   33.9870   39.6360 H   0  0  0  0  0  0  0  0  0  0  0  0
   41.1260   34.1320   37.3900 H   0  0  0  0  0  0  0  0  0  0  0  0
   39.5570   32.4200   36.4590 O   0  0  0  0  0  0  0  0  0  0  0  0
   39.8880   32.0030   35.6260 H   0  0  0  0  0  0  0  0  0  0  0  0
   42.6000   32.8160   36.8850 O   0  0  0  0  0  0  0  0  0  0  0  0
   42.6620   33.3720   36.0710 H   0  0  0  0  0  0  0  0  0  0  0  0
   38.2630   28.2150   41.2490 C   0  0  0  0  0  0  0  0  0  0  0  0
   38.8150   28.6060   42.1220 H   0  0  0  0  0  0  0  0  0  0  0  0
   38.8300   27.4460   40.7000 H   0  0  0  0  0  0  0  0  0  0  0  0
   36.9540   27.6230   41.7790 C   0  0  0  0  0  3  0  0  0  0  0  0
   37.0320   26.2830   42.5110 C   0  0  0  0  0  2  0  0  0  0  0  0
   36.7740   27.5440   43.2600 C   0  0  0  0  0  2  0  0  0  0  0  0
  1 23  1  0  0  0  0
  2  1  1  0  0  0  0
  2  7  1  0  0  0  0
  3  2  2  0  0  0  0
  4  5  2  0  0  0  0
  4  3  1  0  0  0  0
  5  6  1  0  0  0  0
  6  1  2  0  0  0  0
  8  5  1  0  0  0  0
  9 14  1  6  0  0  0
  9 13  1  0  0  0  0
  9 10  1  0  0  0  0
 10 15  1  1  0  0  0
 10  3  1  0  0  0  0
 10 11  1  0  0  0  0
 12 16  1  0  0  0  0
 12 17  1  0  0  0  0
 12 11  1  0  0  0  0
 13 18  1  6  0  0  0
 13 12  1  0  0  0  0
 19  9  1  0  0  0  0
 20 19  1  0  0  0  0
 21 13  1  0  0  0  0
 22 21  1  0  0  0  0
 23 26  1  0  0  0  0
 23 24  1  0  0  0  0
 25 23  1  0  0  0  0
 26 27  1  0  0  0  0
 26 28  1  0  0  0  0
 27 28  1  0  0  0  0
M  END
>  <minimizedAffinity>
-4.89774704

$$$$

 OpenBabel03242521423D

 28 30  0  0  1  0  0  0  0  0999 V2000
   41.7220   32.7910   38.3520 C   0  0  0  0  0  0  0  0  0  0  0  0
   40.4950   32.0970   38.4020 C   0  0  0  0  0  0  0  0  0  0  0  0
   39.6980   32.2660   39.5340 C   0  0  0  0  0  0  0  0  0  0  0  0
   40.1340   33.0750   40.5120 N   0  0  0  0  0  0  0  0  0  0  0  0
   41.3250   33.7270   40.4230 C   0  0  0  0  0  0  0  0  0  0  0  0
   42.1100   33.5880   39.3570 N   0  0  0  0  0  0  0  0  0  0  0  0
   40.2500   31.4710   37.5480 H   0  0  0  0  0  0  0  0  0  0  0  0
   41.5940   34.3550   41.2540 H   0  0  0  0  0  0  0  0  0  0  0  0
   37.3950   32.1200   40.4730 C   0  0  2  0  0  0  0  0  0  0  0  0
   38.4390   31.5400   39.5590 C   0  0  2  0  0  0  0  0  0  0  0  0
   38.5280   30.2300   40.0790 O   0  0  0  0  0  0  0  0  0  0  0  0
   37.2120   29.8170   40.1240 C   0  0  0  0  0  0  0  0  0  0  0  0
   36.3310   31.0150   40.3310 C   0  0  1  0  0  0  0  0  0  0  0  0
   37.6840   32.0700   41.5410 H   0  0  0  0  0  0  0  0  0  0  0  0
   38.0150   31.4630   38.5370 H   0  0  0  0  0  0  0  0  0  0  0  0
   37.0320   29.0010   40.8210 H   0  0  0  0  0  0  0  0  0  0  0  0
   36.9900   29.4220   39.0970 H   0  0  0  0  0  0  0  0  0  0  0  0
   35.7050   31.2780   39.4650 H   0  0  0  0  0  0  0  0  0  0  0  0
   36.9530   33.3570   40.0790 O   0  0  0  0  0  0  0  0  0  0  0  0
   36.5580   33.8340   40.8500 H   0  0  0  0  0  0  0  0  0  0  0  0
   35.5630   30.9670   41.4760 O   0  0  0  0  0  0  0  0  0  0  0  0
   34.6780   31.3900   41.3660 H   0  0  0  0  0  0  0  0  0  0  0  0
   42.5870   32.5950   37.1220 C   0  0  0  0  0  0  0  0  0  0  0  0
   43.4060   33.3380   37.1030 H   0  0  0  0  0  0  0  0  0  0  0  0
   41.9330   32.6660   36.2390 H   0  0  0  0  0  0  0  0  0  0  0  0
   43.2430   31.2130   37.1800 C   0  0  0  0  0  3  0  0  0  0  0  0
   43.1070   30.3150   35.9490 C   0  0  0  0  0  2  0  0  0  0  0  0
   44.4100   30.9550   36.2850 C   0  0  0  0  0  2  0  0  0  0  0  0
  1  2  2  0  0  0  0
  1  6  1  0  0  0  0
  2  3  1  0  0  0  0
  3 10  1  0  0  0  0
  3  4  2  0  0  0  0
  5  4  1  0  0  0  0
  5  8  1  0  0  0  0
  6  5  2  0  0  0  0
  7  2  1  0  0  0  0
  9 14  1  1  0  0  0
 10 15  1  6  0  0  0
 10 11  1  0  0  0  0
 10  9  1  0  0  0  0
 11 12  1  0  0  0  0
 12 13  1  0  0  0  0
 12 16  1  0  0  0  0
 13 18  1  6  0  0  0
 13  9  1  0  0  0  0
 13 21  1  0  0  0  0
 17 12  1  0  0  0  0
 19  9  1  0  0  0  0
 19 20  1  0  0  0  0
 22 21  1  0  0  0  0
 23 26  1  0  0  0  0
 23  1  1  0  0  0  0
 24 23  1  0  0  0  0
 25 23  1  0  0  0  0
 27 28  1  0  0  0  0
 27 26  1  0  0  0  0
 28 26  1  0  0  0  0
M  END
>  <minimizedAffinity>
-4.84616232

$$$$

 OpenBabel03242521423D

 28 30  0  0  1  0  0  0  0  0999 V2000
   37.0820   29.1200   40.8770 C   0  0  0  0  0  0  0  0  0  0  0  0
   38.3210   29.5450   40.3540 C   0  0  0  0  0  0  0  0  0  0  0  0
   38.4740   30.9020   40.0700 C   0  0  0  0  0  0  0  0  0  0  0  0
   37.4450   31.7290   40.3090 N   0  0  0  0  0  0  0  0  0  0  0  0
   36.2660   31.2770   40.8170 C   0  0  0  0  0  0  0  0  0  0  0  0
   36.0860   29.9880   41.0970 N   0  0  0  0  0  0  0  0  0  0  0  0
   39.0790   28.7810   40.2040 H   0  0  0  0  0  0  0  0  0  0  0  0
   35.4960   32.0100   40.9770 H   0  0  0  0  0  0  0  0  0  0  0  0
   39.7210   32.5560   38.6850 C   0  0  2  0  0  0  0  0  0  0  0  0
   39.7610   31.3140   39.5320 C   0  0  2  0  0  0  0  0  0  0  0  0
   40.3310   30.4030   38.6170 O   0  0  0  0  0  0  0  0  0  0  0  0
   41.4480   31.0720   38.1580 C   0  0  0  0  0  0  0  0  0  0  0  0
   41.1860   32.5500   38.2070 C   0  0  1  0  0  0  0  0  0  0  0  0
   39.1400   32.4200   37.7520 H   0  0  0  0  0  0  0  0  0  0  0  0
   40.4940   31.4640   40.3510 H   0  0  0  0  0  0  0  0  0  0  0  0
   41.8120   30.7120   37.1980 H   0  0  0  0  0  0  0  0  0  0  0  0
   42.2520   30.8580   38.9110 H   0  0  0  0  0  0  0  0  0  0  0  0
   41.7750   33.0940   38.9600 H   0  0  0  0  0  0  0  0  0  0  0  0
   39.3810   33.6840   39.3870 O   0  0  0  0  0  0  0  0  0  0  0  0
   39.0350   34.3730   38.7690 H   0  0  0  0  0  0  0  0  0  0  0  0
   41.2730   33.1850   36.9850 O   0  0  0  0  0  0  0  0  0  0  0  0
   41.6320   34.1020   37.0510 H   0  0  0  0  0  0  0  0  0  0  0  0
   36.9190   27.6410   41.1740 C   0  0  0  0  0  0  0  0  0  0  0  0
   37.4900   27.0350   40.4460 H   0  0  0  0  0  0  0  0  0  0  0  0
   35.8420   27.4150   41.1590 H   0  0  0  0  0  0  0  0  0  0  0  0
   37.5000   27.3360   42.5570 C   0  0  0  0  0  3  0  0  0  0  0  0
   37.2990   28.3840   43.6530 C   0  0  0  0  0  2  0  0  0  0  0  0
   36.5440   27.1010   43.6800 C   0  0  0  0  0  2  0  0  0  0  0  0
  1  6  1  0  0  0  0
  1 23  1  0  0  0  0
  2  1  2  0  0  0  0
  3  4  2  0  0  0  0
  3  2  1  0  0  0  0
  4  5  1  0  0  0  0
  5  8  1  0  0  0  0
  5  6  2  0  0  0  0
  7  2  1  0  0  0  0
  9 14  1  6  0  0  0
  9 19  1  0  0  0  0
  9 10  1  0  0  0  0
 10  3  1  0  0  0  0
 10 15  1  1  0  0  0
 11 10  1  0  0  0  0
 12 13  1  0  0  0  0
 12 11  1  0  0  0  0
 12 17  1  0  0  0  0
 13  9  1  0  0  0  0
 13 18  1  1  0  0  0
 16 12  1  0  0  0  0
 20 19  1  0  0  0  0
 21 22  1  0  0  0  0
 21 13  1  0  0  0  0
 23 26  1  0  0  0  0
 24 23  1  0  0  0  0
 25 23  1  0  0  0  0
 26 27  1  0  0  0  0
 26 28  1  0  0  0  0
 27 28  1  0  0  0  0
M  END
>  <minimizedAffinity>
-4.66971064

$$$$

 OpenBabel03242521423D

 28 30  0  0  1  0  0  0  0  0999 V2000
   36.8870   28.8880   41.7750 C   0  0  0  0  0  0  0  0  0  0  0  0
   36.6700   27.5730   41.3130 C   0  0  0  0  0  0  0  0  0  0  0  0
   37.2600   26.5290   42.0260 C   0  0  0  0  0  0  0  0  0  0  0  0
   37.9970   26.8260   43.1070 N   0  0  0  0  0  0  0  0  0  0  0  0
   38.1790   28.1100   43.5200 C   0  0  0  0  0  0  0  0  0  0  0  0
   37.6320   29.1290   42.8620 N   0  0  0  0  0  0  0  0  0  0  0  0
   36.0550   27.4600   40.4250 H   0  0  0  0  0  0  0  0  0  0  0  0
   38.7850   28.2540   44.3970 H   0  0  0  0  0  0  0  0  0  0  0  0
   38.2390   24.3030   41.4860 C   0  0  2  0  0  0  0  0  0  0  0  0
   37.0210   25.1850   41.5290 C   0  0  2  0  0  0  0  0  0  0  0  0
   36.6180   25.1230   40.1770 O   0  0  0  0  0  0  0  0  0  0  0  0
   36.5940   23.7670   39.9160 C   0  0  0  0  0  0  0  0  0  0  0  0
   37.6100   23.0840   40.7840 C   0  0  1  0  0  0  0  0  0  0  0  0
   39.0000   24.6580   40.7650 H   0  0  0  0  0  0  0  0  0  0  0  0
   36.2380   24.6810   42.1320 H   0  0  0  0  0  0  0  0  0  0  0  0
   36.6690   23.5230   38.8580 H   0  0  0  0  0  0  0  0  0  0  0  0
   35.5830   23.4180   40.2590 H   0  0  0  0  0  0  0  0  0  0  0  0
   37.1850   22.4410   41.5680 H   0  0  0  0  0  0  0  0  0  0  0  0
   38.7460   24.0140   42.7280 O   0  0  0  0  0  0  0  0  0  0  0  0
   39.6950   23.7480   42.6490 H   0  0  0  0  0  0  0  0  0  0  0  0
   38.5860   22.4010   40.0880 O   0  0  0  0  0  0  0  0  0  0  0  0
   38.8860   21.5800   40.5470 H   0  0  0  0  0  0  0  0  0  0  0  0
   36.2500   30.0190   40.9890 C   0  0  0  0  0  0  0  0  0  0  0  0
   36.0340   30.8770   41.6510 H   0  0  0  0  0  0  0  0  0  0  0  0
   35.3440   29.6200   40.5060 H   0  0  0  0  0  0  0  0  0  0  0  0
   37.2360   30.5140   39.9270 C   0  0  0  0  0  3  0  0  0  0  0  0
   36.7140   30.6710   38.4990 C   0  0  0  0  0  2  0  0  0  0  0  0
   37.0050   31.8670   39.3370 C   0  0  0  0  0  2  0  0  0  0  0  0
  1  6  1  0  0  0  0
  2  1  2  0  0  0  0
  2  3  1  0  0  0  0
  3  4  2  0  0  0  0
  4  5  1  0  0  0  0
  5  8  1  0  0  0  0
  6  5  2  0  0  0  0
  7  2  1  0  0  0  0
  9 14  1  6  0  0  0
  9 10  1  0  0  0  0
  9 19  1  0  0  0  0
 10  3  1  0  0  0  0
 10 15  1  1  0  0  0
 11 10  1  0  0  0  0
 12 11  1  0  0  0  0
 12 17  1  0  0  0  0
 12 13  1  0  0  0  0
 13  9  1  0  0  0  0
 13 18  1  1  0  0  0
 16 12  1  0  0  0  0
 20 19  1  0  0  0  0
 21 22  1  0  0  0  0
 21 13  1  0  0  0  0
 23 24  1  0  0  0  0
 23  1  1  0  0  0  0
 25 23  1  0  0  0  0
 26 23  1  0  0  0  0
 27 28  1  0  0  0  0
 27 26  1  0  0  0  0
 28 26  1  0  0  0  0
M  END
>  <minimizedAffinity>
-4.60532188

$$$$

 OpenBabel03242521423D

 28 30  0  0  1  0  0  0  0  0999 V2000
   37.3260   26.7600   42.0560 C   0  0  0  0  0  0  0  0  0  0  0  0
   37.3250   27.7770   41.0790 C   0  0  0  0  0  0  0  0  0  0  0  0
   37.6790   29.0650   41.4820 C   0  0  0  0  0  0  0  0  0  0  0  0
   38.0010   29.2710   42.7680 N   0  0  0  0  0  0  0  0  0  0  0  0
   37.9900   28.2600   43.6790 C   0  0  0  0  0  0  0  0  0  0  0  0
   37.6570   27.0200   43.3280 N   0  0  0  0  0  0  0  0  0  0  0  0
   37.0460   27.4880   40.0700 H   0  0  0  0  0  0  0  0  0  0  0  0
   38.2630   28.5160   44.6870 H   0  0  0  0  0  0  0  0  0  0  0  0
   37.7600   31.5030   40.9740 C   0  0  2  0  0  0  0  0  0  0  0  0
   37.6700   30.0940   40.4550 C   0  0  2  0  0  0  0  0  0  0  0  0
   36.4680   30.1750   39.7170 O   0  0  0  0  0  0  0  0  0  0  0  0
   36.6580   31.2890   38.9250 C   0  0  0  0  0  0  0  0  0  0  0  0
   37.5650   32.2480   39.6390 C   0  0  1  0  0  0  0  0  0  0  0  0
   36.8750   31.7980   41.5700 H   0  0  0  0  0  0  0  0  0  0  0  0
   38.4930   29.9280   39.7300 H   0  0  0  0  0  0  0  0  0  0  0  0
   35.7320   31.7320   38.5620 H   0  0  0  0  0  0  0  0  0  0  0  0
   37.2160   30.9210   38.0230 H   0  0  0  0  0  0  0  0  0  0  0  0
   38.5600   32.3620   39.1830 H   0  0  0  0  0  0  0  0  0  0  0  0
   38.9560   31.7830   41.5840 O   0  0  0  0  0  0  0  0  0  0  0  0
   38.8500   32.5540   42.1930 H   0  0  0  0  0  0  0  0  0  0  0  0
   37.0090   33.4870   39.8810 O   0  0  0  0  0  0  0  0  0  0  0  0
   37.6650   34.2220   39.8300 H   0  0  0  0  0  0  0  0  0  0  0  0
   36.9320   25.3640   41.6130 C   0  0  0  0  0  0  0  0  0  0  0  0
   36.7930   25.3310   40.5170 H   0  0  0  0  0  0  0  0  0  0  0  0
   36.0190   25.0850   42.1630 H   0  0  0  0  0  0  0  0  0  0  0  0
   38.0650   24.3900   41.9460 C   0  0  0  0  0  3  0  0  0  0  0  0
   38.4180   23.3340   40.8980 C   0  0  0  0  0  2  0  0  0  0  0  0
   39.3260   24.4870   41.1520 C   0  0  0  0  0  2  0  0  0  0  0  0
  1  6  1  0  0  0  0
  2  3  1  0  0  0  0
  2  1  2  0  0  0  0
  3  4  2  0  0  0  0
  4  5  1  0  0  0  0
  5  8  1  0  0  0  0
  6  5  2  0  0  0  0
  7  2  1  0  0  0  0
  9 14  1  1  0  0  0
  9 19  1  0  0  0  0
 10 15  1  6  0  0  0
 10  9  1  0  0  0  0
 10  3  1  0  0  0  0
 11 10  1  0  0  0  0
 12 13  1  0  0  0  0
 12 11  1  0  0  0  0
 13 18  1  6  0  0  0
 13 21  1  0  0  0  0
 13  9  1  0  0  0  0
 16 12  1  0  0  0  0
 17 12  1  0  0  0  0
 19 20  1  0  0  0  0
 22 21  1  0  0  0  0
 23 26  1  0  0  0  0
 23  1  1  0  0  0  0
 23 25  1  0  0  0  0
 24 23  1  0  0  0  0
 27 28  1  0  0  0  0
 27 26  1  0  0  0  0
 28 26  1  0  0  0  0
M  END
>  <minimizedAffinity>
-4.59826374

$$$$

 OpenBabel03242521423D

 28 30  0  0  1  0  0  0  0  0999 V2000
   40.5240   32.9770   40.5880 C   0  0  0  0  0  0  0  0  0  0  0  0
   39.8230   31.7540   40.5490 C   0  0  0  0  0  0  0  0  0  0  0  0
   38.4460   31.8000   40.3300 C   0  0  0  0  0  0  0  0  0  0  0  0
   37.8620   32.9960   40.1670 N   0  0  0  0  0  0  0  0  0  0  0  0
   38.5750   34.1540   40.2100 C   0  0  0  0  0  0  0  0  0  0  0  0
   39.8900   34.1460   40.4180 N   0  0  0  0  0  0  0  0  0  0  0  0
   40.4070   30.8490   40.6940 H   0  0  0  0  0  0  0  0  0  0  0  0
   38.0240   35.0670   40.0690 H   0  0  0  0  0  0  0  0  0  0  0  0
   36.7860   30.3020   41.4280 C   0  0  2  0  0  0  0  0  0  0  0  0
   37.7490   30.5250   40.2940 C   0  0  2  0  0  0  0  0  0  0  0  0
   38.5840   29.3960   40.4490 O   0  0  0  0  0  0  0  0  0  0  0  0
   37.6890   28.3480   40.5190 C   0  0  0  0  0  0  0  0  0  0  0  0
   36.4030   28.8420   41.1140 C   0  0  1  0  0  0  0  0  0  0  0  0
   37.2890   30.2350   42.4120 H   0  0  0  0  0  0  0  0  0  0  0  0
   37.2050   30.4060   39.3350 H   0  0  0  0  0  0  0  0  0  0  0  0
   38.0930   27.4580   40.9980 H   0  0  0  0  0  0  0  0  0  0  0  0
   37.4710   28.0720   39.4530 H   0  0  0  0  0  0  0  0  0  0  0  0
   35.5560   28.8730   40.4130 H   0  0  0  0  0  0  0  0  0  0  0  0
   35.7170   31.1610   41.4110 O   0  0  0  0  0  0  0  0  0  0  0  0
   35.3190   31.2200   42.3140 H   0  0  0  0  0  0  0  0  0  0  0  0
   36.0320   28.2040   42.2800 O   0  0  0  0  0  0  0  0  0  0  0  0
   35.0540   28.1060   42.3730 H   0  0  0  0  0  0  0  0  0  0  0  0
   42.0190   32.9190   40.8350 C   0  0  0  0  0  0  0  0  0  0  0  0
   42.3260   33.7150   41.5390 H   0  0  0  0  0  0  0  0  0  0  0  0
   42.5220   33.0030   39.8590 H   0  0  0  0  0  0  0  0  0  0  0  0
   42.3710   31.5830   41.4950 C   0  0  0  0  0  3  0  0  0  0  0  0
   43.7640   31.4450   42.1100 C   0  0  0  0  0  2  0  0  0  0  0  0
   42.5600   31.5650   42.9770 C   0  0  0  0  0  2  0  0  0  0  0  0
  1 23  1  0  0  0  0
  2  1  1  0  0  0  0
  2  7  1  0  0  0  0
  3  2  2  0  0  0  0
  4  5  2  0  0  0  0
  4  3  1  0  0  0  0
  5  6  1  0  0  0  0
  6  1  2  0  0  0  0
  8  5  1  0  0  0  0
  9 14  1  1  0  0  0
 10 15  1  6  0  0  0
 10  3  1  0  0  0  0
 10 11  1  0  0  0  0
 10  9  1  0  0  0  0
 11 12  1  0  0  0  0
 12 16  1  0  0  0  0
 12 13  1  0  0  0  0
 13 18  1  6  0  0  0
 13  9  1  0  0  0  0
 13 21  1  0  0  0  0
 17 12  1  0  0  0  0
 19  9  1  0  0  0  0
 19 20  1  0  0  0  0
 21 22  1  0  0  0  0
 23 26  1  0  0  0  0
 23 24  1  0  0  0  0
 25 23  1  0  0  0  0
 26 27  1  0  0  0  0
 26 28  1  0  0  0  0
 27 28  1  0  0  0  0
M  END
>  <minimizedAffinity>
-4.57559538

$$$$
