
 OpenBabel03252507493D

 37 39  0  0  0  0  0  0  0  0999 V2000
   36.6500   27.0960   42.7560 C   0  0  0  0  0  0  0  0  0  0  0  0
   35.7910   26.7360   43.3180 H   0  0  0  0  0  0  0  0  0  0  0  0
   36.2600   27.8350   42.0020 H   0  0  0  0  0  0  0  0  0  0  0  0
   37.3070   26.0320   41.9660 C   0  0  0  0  0  0  0  0  0  0  0  0
   37.3200   26.1980   40.5850 C   0  0  0  0  0  0  0  0  0  0  0  0
   37.9070   25.2630   39.7630 C   0  0  0  0  0  0  0  0  0  0  0  0
   38.4760   24.1680   40.3630 N   0  0  0  0  0  0  0  0  0  0  0  0
   38.4440   24.0390   41.7170 C   0  0  0  0  0  0  0  0  0  0  0  0
   37.8680   24.9630   42.4790 N   0  0  0  0  0  0  0  0  0  0  0  0
   37.8880   25.4400   38.7050 H   0  0  0  0  0  0  0  0  0  0  0  0
   38.9170   23.1460   42.0950 H   0  0  0  0  0  0  0  0  0  0  0  0
   36.5550   27.6610   39.8420 S   0  0  0  0  0  0  0  0  0  0  0  0
   36.6280   27.5480   38.0510 C   0  0  0  0  0  0  0  0  0  0  0  0
   37.1790   26.5960   37.8000 H   0  0  0  0  0  0  0  0  0  0  0  0
   37.1550   28.3530   37.5440 H   0  0  0  0  0  0  0  0  0  0  0  0
   35.2280   27.3580   37.5090 C   0  0  0  0  0  0  0  0  0  0  0  0
   35.2470   26.7840   36.5720 H   0  0  0  0  0  0  0  0  0  0  0  0
   34.6240   26.8980   38.3190 H   0  0  0  0  0  0  0  0  0  0  0  0
   34.6580   28.7520   37.3100 C   0  0  0  0  0  3  0  0  0  0  0  0
   33.2240   28.9380   37.7800 C   0  0  0  0  0  2  0  0  0  0  0  0
   33.6120   29.0230   36.3250 C   0  0  0  0  0  2  0  0  0  0  0  0
   37.5810   27.8170   43.6640 C   0  0  0  0  0  0  0  0  0  0  0  0
   37.0350   28.3520   44.4960 H   0  0  0  0  0  0  0  0  0  0  0  0
   38.2400   27.0800   44.2040 H   0  0  0  0  0  0  0  0  0  0  0  0
   38.5060   28.7500   42.9520 C   0  0  0  0  0  0  0  0  0  0  0  0
   39.9010   28.4760   42.9070 C   0  0  0  0  0  0  0  0  0  0  0  0
   40.5700   29.8880   41.9410 S   0  0  0  0  0  0  0  0  0  0  0  0
   38.8360   30.6250   41.7530 C   0  0  0  0  0  0  0  0  0  0  0  0
   38.2130   29.8500   42.3240 N   0  0  0  0  0  0  0  0  0  0  0  0
   40.4070   27.6040   43.3640 H   0  0  0  0  0  0  0  0  0  0  0  0
   38.5890   31.8100   41.0660 O   0  0  0  0  0  0  0  0  0  0  0  0
   37.2290   31.0870   38.9060 O   0  0  0  0  0  0  0  0  0  0  0  0
   37.1470   31.9160   40.1830 P   0  0  0  0  0  0  0  0  0  0  0  0
   35.9050   31.2860   41.1530 O   0  0  0  0  0  0  0  0  0  0  0  0
   35.6550   31.9610   41.8350 H   0  0  0  0  0  0  0  0  0  0  0  0
   36.7920   33.5480   39.8520 O   0  0  0  0  0  0  0  0  0  0  0  0
   36.1640   33.8840   40.5410 H   0  0  0  0  0  0  0  0  0  0  0  0
  1  2  1  0  0  0  0
  1 22  1  0  0  0  0
  3  1  1  0  0  0  0
  4  9  1  0  0  0  0
  4  1  1  0  0  0  0
  5  4  2  0  0  0  0
  6  7  2  0  0  0  0
  6  5  1  0  0  0  0
  7  8  1  0  0  0  0
  8 11  1  0  0  0  0
  8  9  2  0  0  0  0
 10  6  1  0  0  0  0
 12  5  1  0  0  0  0
 13 12  1  0  0  0  0
 14 13  1  0  0  0  0
 15 13  1  0  0  0  0
 16 13  1  0  0  0  0
 16 18  1  0  0  0  0
 17 16  1  0  0  0  0
 19 16  1  0  0  0  0
 19 20  1  0  0  0  0
 21 19  1  0  0  0  0
 21 20  1  0  0  0  0
 22 24  1  0  0  0  0
 22 23  1  0  0  0  0
 25 22  1  0  0  0  0
 26 25  2  0  0  0  0
 26 30  1  0  0  0  0
 27 26  1  0  0  0  0
 28 27  1  0  0  0  0
 28 29  2  0  0  0  0
 29 25  1  0  0  0  0
 31 28  1  0  0  0  0
 32 33  2  0  0  0  0
 33 31  1  0  0  0  0
 33 34  1  0  0  0  0
 34 35  1  0  0  0  0
 36 33  1  0  0  0  0
 36 37  1  0  0  0  0
M  END
>  <minimizedAffinity>
-5.14576101

$$$$

 OpenBabel03252507493D

 37 39  0  0  0  0  0  0  0  0999 V2000
   36.0990   29.8760   40.2920 C   0  0  0  0  0  0  0  0  0  0  0  0
   35.5140   30.6900   40.7140 H   0  0  0  0  0  0  0  0  0  0  0  0
   35.3640   29.1150   39.9050 H   0  0  0  0  0  0  0  0  0  0  0  0
   36.9120   29.1660   41.3030 C   0  0  0  0  0  0  0  0  0  0  0  0
   37.1280   27.8090   41.0880 C   0  0  0  0  0  0  0  0  0  0  0  0
   37.8710   27.0600   41.9720 C   0  0  0  0  0  0  0  0  0  0  0  0
   38.3860   27.7090   43.0660 N   0  0  0  0  0  0  0  0  0  0  0  0
   38.1540   29.0380   43.2430 C   0  0  0  0  0  0  0  0  0  0  0  0
   37.4310   29.7280   42.3670 N   0  0  0  0  0  0  0  0  0  0  0  0
   38.0070   26.0180   41.7600 H   0  0  0  0  0  0  0  0  0  0  0  0
   38.6000   29.4580   44.1310 H   0  0  0  0  0  0  0  0  0  0  0  0
   36.4270   26.9990   39.6290 S   0  0  0  0  0  0  0  0  0  0  0  0
   37.6450   25.9060   38.8890 C   0  0  0  0  0  0  0  0  0  0  0  0
   38.5700   25.9570   39.5300 H   0  0  0  0  0  0  0  0  0  0  0  0
   37.9550   26.1540   37.8770 H   0  0  0  0  0  0  0  0  0  0  0  0
   37.1590   24.4770   38.9980 C   0  0  0  0  0  0  0  0  0  0  0  0
   36.2360   24.4230   39.5930 H   0  0  0  0  0  0  0  0  0  0  0  0
   37.0640   24.0840   37.9640 H   0  0  0  0  0  0  0  0  0  0  0  0
   38.2920   23.6910   39.6370 C   0  0  0  0  0  3  0  0  0  0  0  0
   37.8880   22.3640   40.2600 C   0  0  0  0  0  2  0  0  0  0  0  0
   38.3910   23.5220   41.0860 C   0  0  0  0  0  2  0  0  0  0  0  0
   36.8940   30.3710   39.1370 C   0  0  0  0  0  0  0  0  0  0  0  0
   37.5140   29.5520   38.6660 H   0  0  0  0  0  0  0  0  0  0  0  0
   36.2050   30.6980   38.3080 H   0  0  0  0  0  0  0  0  0  0  0  0
   37.7400   31.5580   39.4600 C   0  0  0  0  0  0  0  0  0  0  0  0
   37.1950   32.6440   40.2000 C   0  0  0  0  0  0  0  0  0  0  0  0
   38.6070   33.8130   40.3230 S   0  0  0  0  0  0  0  0  0  0  0  0
   39.7160   32.6300   39.3440 C   0  0  0  0  0  0  0  0  0  0  0  0
   38.9850   31.7680   39.1480 N   0  0  0  0  0  0  0  0  0  0  0  0
   36.1600   32.7140   40.5840 H   0  0  0  0  0  0  0  0  0  0  0  0
   41.0440   32.9150   39.0420 O   0  0  0  0  0  0  0  0  0  0  0  0
   42.4930   31.4640   37.3590 O   0  0  0  0  0  0  0  0  0  0  0  0
   41.5550   32.6630   37.4460 P   0  0  0  0  0  0  0  0  0  0  0  0
   40.1770   32.3340   36.5130 O   0  0  0  0  0  0  0  0  0  0  0  0
   39.6990   33.1830   36.3320 H   0  0  0  0  0  0  0  0  0  0  0  0
   42.2840   34.0780   36.8430 O   0  0  0  0  0  0  0  0  0  0  0  0
   41.6080   34.5940   36.3360 H   0  0  0  0  0  0  0  0  0  0  0  0
  1  2  1  0  0  0  0
  1  4  1  0  0  0  0
  3  1  1  0  0  0  0
  4  9  1  0  0  0  0
  5  4  2  0  0  0  0
  5  6  1  0  0  0  0
  6  7  2  0  0  0  0
  7  8  1  0  0  0  0
  8 11  1  0  0  0  0
  9  8  2  0  0  0  0
 10  6  1  0  0  0  0
 12  5  1  0  0  0  0
 13 16  1  0  0  0  0
 13 14  1  0  0  0  0
 13 12  1  0  0  0  0
 15 13  1  0  0  0  0
 16 17  1  0  0  0  0
 16 19  1  0  0  0  0
 18 16  1  0  0  0  0
 19 20  1  0  0  0  0
 19 21  1  0  0  0  0
 20 21  1  0  0  0  0
 22 25  1  0  0  0  0
 22  1  1  0  0  0  0
 23 22  1  0  0  0  0
 24 22  1  0  0  0  0
 25 26  2  0  0  0  0
 26 27  1  0  0  0  0
 26 30  1  0  0  0  0
 28 27  1  0  0  0  0
 29 28  2  0  0  0  0
 29 25  1  0  0  0  0
 31 28  1  0  0  0  0
 32 33  2  0  0  0  0
 33 31  1  0  0  0  0
 34 33  1  0  0  0  0
 35 34  1  0  0  0  0
 36 33  1  0  0  0  0
 37 36  1  0  0  0  0
M  END
>  <minimizedAffinity>
-5.12308359

$$$$

 OpenBabel03252507493D

 37 39  0  0  0  0  0  0  0  0999 V2000
   37.2870   29.9630   37.4420 C   0  0  0  0  0  0  0  0  0  0  0  0
   37.4150   30.6420   36.6010 H   0  0  0  0  0  0  0  0  0  0  0  0
   38.3110   29.5780   37.7080 H   0  0  0  0  0  0  0  0  0  0  0  0
   36.4880   28.7670   37.0990 C   0  0  0  0  0  0  0  0  0  0  0  0
   36.8620   27.5720   37.7070 C   0  0  0  0  0  0  0  0  0  0  0  0
   36.1820   26.4030   37.4520 C   0  0  0  0  0  0  0  0  0  0  0  0
   35.1250   26.4690   36.5790 N   0  0  0  0  0  0  0  0  0  0  0  0
   34.7880   27.6550   36.0040 C   0  0  0  0  0  0  0  0  0  0  0  0
   35.4690   28.7640   36.2740 N   0  0  0  0  0  0  0  0  0  0  0  0
   36.5120   25.5100   37.9470 H   0  0  0  0  0  0  0  0  0  0  0  0
   33.9450   27.6060   35.3330 H   0  0  0  0  0  0  0  0  0  0  0  0
   38.2640   27.5380   38.8520 S   0  0  0  0  0  0  0  0  0  0  0  0
   37.8130   26.6530   40.3480 C   0  0  0  0  0  0  0  0  0  0  0  0
   38.7600   26.4910   40.9370 H   0  0  0  0  0  0  0  0  0  0  0  0
   37.3650   25.6720   40.2040 H   0  0  0  0  0  0  0  0  0  0  0  0
   36.9500   27.5480   41.2110 C   0  0  0  0  0  0  0  0  0  0  0  0
   37.2310   28.6020   41.0820 H   0  0  0  0  0  0  0  0  0  0  0  0
   35.8920   27.3190   40.9660 H   0  0  0  0  0  0  0  0  0  0  0  0
   37.1520   27.0780   42.6430 C   0  0  0  0  0  3  0  0  0  0  0  0
   37.2470   28.1860   43.6800 C   0  0  0  0  0  2  0  0  0  0  0  0
   38.4140   27.2880   43.3520 C   0  0  0  0  0  2  0  0  0  0  0  0
   36.7590   30.7080   38.6150 C   0  0  0  0  0  0  0  0  0  0  0  0
   35.8080   31.2680   38.3710 H   0  0  0  0  0  0  0  0  0  0  0  0
   36.4480   29.9850   39.4210 H   0  0  0  0  0  0  0  0  0  0  0  0
   37.7620   31.6180   39.2450 C   0  0  0  0  0  0  0  0  0  0  0  0
   37.3990   32.4160   40.3660 C   0  0  0  0  0  0  0  0  0  0  0  0
   38.9480   33.3260   40.7480 S   0  0  0  0  0  0  0  0  0  0  0  0
   39.8440   32.4710   39.3150 C   0  0  0  0  0  0  0  0  0  0  0  0
   39.0030   31.8080   38.9050 N   0  0  0  0  0  0  0  0  0  0  0  0
   36.4040   32.4400   40.8500 H   0  0  0  0  0  0  0  0  0  0  0  0
   41.1770   32.7200   39.0020 O   0  0  0  0  0  0  0  0  0  0  0  0
   42.6150   31.4610   37.1630 O   0  0  0  0  0  0  0  0  0  0  0  0
   41.6320   32.6070   37.3730 P   0  0  0  0  0  0  0  0  0  0  0  0
   40.2310   32.2860   36.4710 O   0  0  0  0  0  0  0  0  0  0  0  0
   39.7120   33.1240   36.3720 H   0  0  0  0  0  0  0  0  0  0  0  0
   42.2770   34.0930   36.8500 O   0  0  0  0  0  0  0  0  0  0  0  0
   41.5590   34.6150   36.4090 H   0  0  0  0  0  0  0  0  0  0  0  0
  1  3  1  0  0  0  0
  1 22  1  0  0  0  0
  2  1  1  0  0  0  0
  4  1  1  0  0  0  0
  4  5  1  0  0  0  0
  5 12  1  0  0  0  0
  6  5  2  0  0  0  0
  6 10  1  0  0  0  0
  7  6  1  0  0  0  0
  8  9  1  0  0  0  0
  8  7  2  0  0  0  0
  9  4  2  0  0  0  0
 11  8  1  0  0  0  0
 12 13  1  0  0  0  0
 13 14  1  0  0  0  0
 13 16  1  0  0  0  0
 15 13  1  0  0  0  0
 16 19  1  0  0  0  0
 17 16  1  0  0  0  0
 18 16  1  0  0  0  0
 19 21  1  0  0  0  0
 19 20  1  0  0  0  0
 21 20  1  0  0  0  0
 22 25  1  0  0  0  0
 22 24  1  0  0  0  0
 23 22  1  0  0  0  0
 25 26  2  0  0  0  0
 26 27  1  0  0  0  0
 26 30  1  0  0  0  0
 28 27  1  0  0  0  0
 29 25  1  0  0  0  0
 29 28  2  0  0  0  0
 31 28  1  0  0  0  0
 32 33  2  0  0  0  0
 33 31  1  0  0  0  0
 34 33  1  0  0  0  0
 35 34  1  0  0  0  0
 36 33  1  0  0  0  0
 37 36  1  0  0  0  0
M  END
>  <minimizedAffinity>
-5.00024557

$$$$

 OpenBabel03252507493D

 37 39  0  0  0  0  0  0  0  0999 V2000
   39.2220   28.8740   42.7220 C   0  0  0  0  0  0  0  0  0  0  0  0
   39.1500   29.3860   43.6790 H   0  0  0  0  0  0  0  0  0  0  0  0
   38.2510   29.0570   42.1820 H   0  0  0  0  0  0  0  0  0  0  0  0
   39.3280   27.4060   42.8610 C   0  0  0  0  0  0  0  0  0  0  0  0
   38.3310   26.6480   42.2550 C   0  0  0  0  0  0  0  0  0  0  0  0
   38.3410   25.2730   42.3290 C   0  0  0  0  0  0  0  0  0  0  0  0
   39.3730   24.6890   43.0200 N   0  0  0  0  0  0  0  0  0  0  0  0
   40.3300   25.4620   43.5980 C   0  0  0  0  0  0  0  0  0  0  0  0
   40.2870   26.7870   43.5070 N   0  0  0  0  0  0  0  0  0  0  0  0
   37.5480   24.7370   41.8450 H   0  0  0  0  0  0  0  0  0  0  0  0
   41.0990   24.9120   44.1180 H   0  0  0  0  0  0  0  0  0  0  0  0
   36.9910   27.4670   41.3550 S   0  0  0  0  0  0  0  0  0  0  0  0
   37.4790   27.7450   39.6490 C   0  0  0  0  0  0  0  0  0  0  0  0
   37.1790   26.8290   39.0640 H   0  0  0  0  0  0  0  0  0  0  0  0
   38.5430   27.8890   39.4760 H   0  0  0  0  0  0  0  0  0  0  0  0
   36.6530   28.8760   39.0760 C   0  0  0  0  0  0  0  0  0  0  0  0
   35.5810   28.6960   39.2360 H   0  0  0  0  0  0  0  0  0  0  0  0
   37.0340   29.8180   39.5230 H   0  0  0  0  0  0  0  0  0  0  0  0
   37.0020   28.9490   37.5980 C   0  0  0  0  0  3  0  0  0  0  0  0
   37.1290   30.3550   37.0330 C   0  0  0  0  0  2  0  0  0  0  0  0
   36.0360   29.4090   36.6010 C   0  0  0  0  0  2  0  0  0  0  0  0
   40.3160   29.4710   41.9110 C   0  0  0  0  0  0  0  0  0  0  0  0
   41.2490   29.6490   42.5220 H   0  0  0  0  0  0  0  0  0  0  0  0
   40.6480   28.7420   41.1180 H   0  0  0  0  0  0  0  0  0  0  0  0
   39.9130   30.7120   41.1850 C   0  0  0  0  0  0  0  0  0  0  0  0
   38.5610   31.1550   41.2240 C   0  0  0  0  0  0  0  0  0  0  0  0
   38.5950   32.6810   40.2020 S   0  0  0  0  0  0  0  0  0  0  0  0
   40.4510   32.4690   39.8850 C   0  0  0  0  0  0  0  0  0  0  0  0
   40.6570   31.5060   40.4730 N   0  0  0  0  0  0  0  0  0  0  0  0
   37.7300   30.6580   41.7590 H   0  0  0  0  0  0  0  0  0  0  0  0
   41.1920   33.3570   39.1120 O   0  0  0  0  0  0  0  0  0  0  0  0
   42.5360   31.6450   37.5970 O   0  0  0  0  0  0  0  0  0  0  0  0
   41.6220   32.8640   37.5490 P   0  0  0  0  0  0  0  0  0  0  0  0
   40.1940   32.4330   36.7380 O   0  0  0  0  0  0  0  0  0  0  0  0
   39.7220   33.2580   36.4560 H   0  0  0  0  0  0  0  0  0  0  0  0
   42.3430   34.1590   36.7130 O   0  0  0  0  0  0  0  0  0  0  0  0
   41.6510   34.6110   36.1660 H   0  0  0  0  0  0  0  0  0  0  0  0
  1  4  1  0  0  0  0
  1  2  1  0  0  0  0
  3  1  1  0  0  0  0
  4  9  1  0  0  0  0
  5  6  1  0  0  0  0
  5  4  2  0  0  0  0
  6  7  2  0  0  0  0
  7  8  1  0  0  0  0
  8 11  1  0  0  0  0
  9  8  2  0  0  0  0
 10  6  1  0  0  0  0
 12  5  1  0  0  0  0
 13 12  1  0  0  0  0
 14 13  1  0  0  0  0
 15 13  1  0  0  0  0
 16 17  1  0  0  0  0
 16 18  1  0  0  0  0
 16 13  1  0  0  0  0
 19 16  1  0  0  0  0
 20 19  1  0  0  0  0
 21 20  1  0  0  0  0
 21 19  1  0  0  0  0
 22 23  1  0  0  0  0
 22  1  1  0  0  0  0
 24 22  1  0  0  0  0
 25 26  2  0  0  0  0
 25 22  1  0  0  0  0
 26 30  1  0  0  0  0
 27 26  1  0  0  0  0
 28 27  1  0  0  0  0
 28 29  2  0  0  0  0
 29 25  1  0  0  0  0
 31 28  1  0  0  0  0
 33 32  2  0  0  0  0
 33 31  1  0  0  0  0
 34 33  1  0  0  0  0
 35 34  1  0  0  0  0
 36 33  1  0  0  0  0
 37 36  1  0  0  0  0
M  END
>  <minimizedAffinity>
-4.9927187

$$$$

 OpenBabel03252507493D

 37 39  0  0  0  0  0  0  0  0999 V2000
   37.3900   29.6780   39.9310 C   0  0  0  0  0  0  0  0  0  0  0  0
   36.8050   29.3980   39.0580 H   0  0  0  0  0  0  0  0  0  0  0  0
   38.4700   29.6780   39.6120 H   0  0  0  0  0  0  0  0  0  0  0  0
   37.2990   28.6870   41.0260 C   0  0  0  0  0  0  0  0  0  0  0  0
   37.2880   27.3470   40.6550 C   0  0  0  0  0  0  0  0  0  0  0  0
   37.2050   26.3490   41.6000 C   0  0  0  0  0  0  0  0  0  0  0  0
   37.1370   26.7350   42.9150 N   0  0  0  0  0  0  0  0  0  0  0  0
   37.1510   28.0560   43.2400 C   0  0  0  0  0  0  0  0  0  0  0  0
   37.2310   28.9910   42.2990 N   0  0  0  0  0  0  0  0  0  0  0  0
   37.2000   25.3320   41.2600 H   0  0  0  0  0  0  0  0  0  0  0  0
   37.0930   28.2590   44.2980 H   0  0  0  0  0  0  0  0  0  0  0  0
   37.3810   26.8900   38.9050 S   0  0  0  0  0  0  0  0  0  0  0  0
   35.9420   25.9160   38.4490 C   0  0  0  0  0  0  0  0  0  0  0  0
   35.2270   25.9510   39.3200 H   0  0  0  0  0  0  0  0  0  0  0  0
   36.1260   24.8640   38.2420 H   0  0  0  0  0  0  0  0  0  0  0  0
   35.2220   26.6010   37.3080 C   0  0  0  0  0  0  0  0  0  0  0  0
   35.7150   26.3830   36.3500 H   0  0  0  0  0  0  0  0  0  0  0  0
   34.1570   26.2910   37.3610 H   0  0  0  0  0  0  0  0  0  0  0  0
   35.2360   28.0870   37.6290 C   0  0  0  0  0  3  0  0  0  0  0  0
   33.8940   28.6730   38.0360 C   0  0  0  0  0  2  0  0  0  0  0  0
   34.5920   29.0690   36.7580 C   0  0  0  0  0  2  0  0  0  0  0  0
   37.0390   31.0590   40.3540 C   0  0  0  0  0  0  0  0  0  0  0  0
   36.0910   31.4270   39.8590 H   0  0  0  0  0  0  0  0  0  0  0  0
   36.7920   31.0730   41.4530 H   0  0  0  0  0  0  0  0  0  0  0  0
   38.1480   32.0410   40.1690 C   0  0  0  0  0  0  0  0  0  0  0  0
   37.9840   33.3910   40.5870 C   0  0  0  0  0  0  0  0  0  0  0  0
   39.5940   34.1600   40.1490 S   0  0  0  0  0  0  0  0  0  0  0  0
   40.2340   32.5130   39.4660 C   0  0  0  0  0  0  0  0  0  0  0  0
   39.3240   31.8400   39.6500 N   0  0  0  0  0  0  0  0  0  0  0  0
   37.0790   33.8200   41.0570 H   0  0  0  0  0  0  0  0  0  0  0  0
   41.5060   32.3640   38.9220 O   0  0  0  0  0  0  0  0  0  0  0  0
   42.4370   31.2040   36.7260 O   0  0  0  0  0  0  0  0  0  0  0  0
   41.6450   32.4030   37.2340 P   0  0  0  0  0  0  0  0  0  0  0  0
   40.0770   32.3240   36.5900 O   0  0  0  0  0  0  0  0  0  0  0  0
   39.6470   33.2120   36.6750 H   0  0  0  0  0  0  0  0  0  0  0  0
   42.3490   33.8750   36.7470 O   0  0  0  0  0  0  0  0  0  0  0  0
   41.6280   34.5090   36.5050 H   0  0  0  0  0  0  0  0  0  0  0  0
  1 22  1  0  0  0  0
  1  4  1  0  0  0  0
  2  1  1  0  0  0  0
  3  1  1  0  0  0  0
  4  9  1  0  0  0  0
  5  4  2  0  0  0  0
  5  6  1  0  0  0  0
  6  7  2  0  0  0  0
  7  8  1  0  0  0  0
  8 11  1  0  0  0  0
  9  8  2  0  0  0  0
 10  6  1  0  0  0  0
 12  5  1  0  0  0  0
 13 12  1  0  0  0  0
 13 14  1  0  0  0  0
 15 13  1  0  0  0  0
 16 18  1  0  0  0  0
 16 19  1  0  0  0  0
 16 13  1  0  0  0  0
 17 16  1  0  0  0  0
 19 20  1  0  0  0  0
 21 19  1  0  0  0  0
 21 20  1  0  0  0  0
 22 24  1  0  0  0  0
 23 22  1  0  0  0  0
 25 22  1  0  0  0  0
 25 26  2  0  0  0  0
 26 30  1  0  0  0  0
 27 26  1  0  0  0  0
 28 29  2  0  0  0  0
 28 27  1  0  0  0  0
 29 25  1  0  0  0  0
 31 28  1  0  0  0  0
 32 33  2  0  0  0  0
 33 31  1  0  0  0  0
 34 35  1  0  0  0  0
 34 33  1  0  0  0  0
 36 33  1  0  0  0  0
 37 36  1  0  0  0  0
M  END
>  <minimizedAffinity>
-4.98593521

$$$$

 OpenBabel03252507493D

 37 39  0  0  0  0  0  0  0  0999 V2000
   36.6810   30.3130   39.8250 C   0  0  0  0  0  0  0  0  0  0  0  0
   35.6720   30.3200   40.2330 H   0  0  0  0  0  0  0  0  0  0  0  0
   37.2400   29.4930   40.3570 H   0  0  0  0  0  0  0  0  0  0  0  0
   37.4280   31.5550   40.1150 C   0  0  0  0  0  0  0  0  0  0  0  0
   38.5610   31.4310   40.9130 C   0  0  0  0  0  0  0  0  0  0  0  0
   39.3230   32.5300   41.2390 C   0  0  0  0  0  0  0  0  0  0  0  0
   38.9200   33.7440   40.7430 N   0  0  0  0  0  0  0  0  0  0  0  0
   37.8070   33.8270   39.9650 C   0  0  0  0  0  0  0  0  0  0  0  0
   37.0950   32.7440   39.6720 N   0  0  0  0  0  0  0  0  0  0  0  0
   40.1860   32.3780   41.8580 H   0  0  0  0  0  0  0  0  0  0  0  0
   37.5710   34.8230   39.6230 H   0  0  0  0  0  0  0  0  0  0  0  0
   39.0510   29.8060   41.5430 S   0  0  0  0  0  0  0  0  0  0  0  0
   38.0230   29.3560   42.9450 C   0  0  0  0  0  0  0  0  0  0  0  0
   36.9510   29.5100   42.6340 H   0  0  0  0  0  0  0  0  0  0  0  0
   38.1710   29.9410   43.8500 H   0  0  0  0  0  0  0  0  0  0  0  0
   38.1590   27.8710   43.2020 C   0  0  0  0  0  0  0  0  0  0  0  0
   39.0940   27.4850   42.7730 H   0  0  0  0  0  0  0  0  0  0  0  0
   38.0540   27.7170   44.2960 H   0  0  0  0  0  0  0  0  0  0  0  0
   36.9370   27.2190   42.5740 C   0  0  0  0  0  3  0  0  0  0  0  0
   37.0640   25.7270   42.3110 C   0  0  0  0  0  2  0  0  0  0  0  0
   36.9450   26.7340   41.1950 C   0  0  0  0  0  2  0  0  0  0  0  0
   36.6380   29.9730   38.3790 C   0  0  0  0  0  0  0  0  0  0  0  0
   35.7340   29.3470   38.1160 H   0  0  0  0  0  0  0  0  0  0  0  0
   36.5040   30.9100   37.7680 H   0  0  0  0  0  0  0  0  0  0  0  0
   37.8900   29.3320   37.8780 C   0  0  0  0  0  0  0  0  0  0  0  0
   37.8670   27.9870   37.4130 C   0  0  0  0  0  0  0  0  0  0  0  0
   39.6120   27.6880   36.9220 S   0  0  0  0  0  0  0  0  0  0  0  0
   40.0930   29.4480   37.4310 C   0  0  0  0  0  0  0  0  0  0  0  0
   39.0810   29.8470   37.7950 N   0  0  0  0  0  0  0  0  0  0  0  0
   36.9800   27.3270   37.3780 H   0  0  0  0  0  0  0  0  0  0  0  0
   41.3890   29.9400   37.3170 O   0  0  0  0  0  0  0  0  0  0  0  0
   41.8320   32.0090   38.9170 O   0  0  0  0  0  0  0  0  0  0  0  0
   41.6070   31.6150   37.4620 P   0  0  0  0  0  0  0  0  0  0  0  0
   42.9910   32.0290   36.5730 O   0  0  0  0  0  0  0  0  0  0  0  0
   42.7630   32.0410   35.6080 H   0  0  0  0  0  0  0  0  0  0  0  0
   40.2730   32.4300   36.7880 O   0  0  0  0  0  0  0  0  0  0  0  0
   40.4910   32.6810   35.8540 H   0  0  0  0  0  0  0  0  0  0  0  0
  1  4  1  0  0  0  0
  1  2  1  0  0  0  0
  1  3  1  0  0  0  0
  4  5  1  0  0  0  0
  5  6  2  0  0  0  0
  5 12  1  0  0  0  0
  6 10  1  0  0  0  0
  7  6  1  0  0  0  0
  8  7  2  0  0  0  0
  9  8  1  0  0  0  0
  9  4  2  0  0  0  0
 11  8  1  0  0  0  0
 12 13  1  0  0  0  0
 13 16  1  0  0  0  0
 13 15  1  0  0  0  0
 14 13  1  0  0  0  0
 16 18  1  0  0  0  0
 17 16  1  0  0  0  0
 19 16  1  0  0  0  0
 20 19  1  0  0  0  0
 21 20  1  0  0  0  0
 21 19  1  0  0  0  0
 22  1  1  0  0  0  0
 23 22  1  0  0  0  0
 24 22  1  0  0  0  0
 25 22  1  0  0  0  0
 26 25  2  0  0  0  0
 27 26  1  0  0  0  0
 27 28  1  0  0  0  0
 28 29  2  0  0  0  0
 29 25  1  0  0  0  0
 30 26  1  0  0  0  0
 31 28  1  0  0  0  0
 31 33  1  0  0  0  0
 33 32  2  0  0  0  0
 34 33  1  0  0  0  0
 35 34  1  0  0  0  0
 36 33  1  0  0  0  0
 37 36  1  0  0  0  0
M  END
>  <minimizedAffinity>
-4.96293068

$$$$

 OpenBabel03252507493D

 37 39  0  0  0  0  0  0  0  0999 V2000
   37.3350   29.5610   38.9860 C   0  0  0  0  0  0  0  0  0  0  0  0
   38.0900   28.8700   39.3550 H   0  0  0  0  0  0  0  0  0  0  0  0
   37.4190   29.5640   37.8630 H   0  0  0  0  0  0  0  0  0  0  0  0
   37.5770   30.9580   39.4060 C   0  0  0  0  0  0  0  0  0  0  0  0
   38.5420   31.1560   40.3880 C   0  0  0  0  0  0  0  0  0  0  0  0
   38.8390   32.4190   40.8470 C   0  0  0  0  0  0  0  0  0  0  0  0
   38.1470   33.4670   40.2940 N   0  0  0  0  0  0  0  0  0  0  0  0
   37.2110   33.2350   39.3350 C   0  0  0  0  0  0  0  0  0  0  0  0
   36.9500   32.0000   38.9170 N   0  0  0  0  0  0  0  0  0  0  0  0
   39.5910   32.5150   41.6060 H   0  0  0  0  0  0  0  0  0  0  0  0
   36.7210   34.1210   38.9610 H   0  0  0  0  0  0  0  0  0  0  0  0
   39.4270   29.7390   41.0870 S   0  0  0  0  0  0  0  0  0  0  0  0
   38.8530   29.4210   42.7580 C   0  0  0  0  0  0  0  0  0  0  0  0
   37.7270   29.4640   42.7370 H   0  0  0  0  0  0  0  0  0  0  0  0
   39.1770   30.1310   43.5160 H   0  0  0  0  0  0  0  0  0  0  0  0
   39.1930   27.9950   43.1350 C   0  0  0  0  0  0  0  0  0  0  0  0
   39.7050   27.4850   42.3080 H   0  0  0  0  0  0  0  0  0  0  0  0
   39.7730   28.0370   44.0810 H   0  0  0  0  0  0  0  0  0  0  0  0
   37.8760   27.3240   43.4880 C   0  0  0  0  0  3  0  0  0  0  0  0
   37.3220   26.3880   42.4260 C   0  0  0  0  0  2  0  0  0  0  0  0
   36.6280   27.6710   42.8100 C   0  0  0  0  0  2  0  0  0  0  0  0
   35.9800   29.0640   39.3420 C   0  0  0  0  0  0  0  0  0  0  0  0
   36.0200   28.0780   39.8940 H   0  0  0  0  0  0  0  0  0  0  0  0
   35.4940   29.7650   40.0780 H   0  0  0  0  0  0  0  0  0  0  0  0
   35.0490   28.9810   38.1770 C   0  0  0  0  0  0  0  0  0  0  0  0
   33.6410   28.9950   38.3860 C   0  0  0  0  0  0  0  0  0  0  0  0
   32.9680   28.8760   36.6810 S   0  0  0  0  0  0  0  0  0  0  0  0
   34.7170   28.8260   35.9560 C   0  0  0  0  0  0  0  0  0  0  0  0
   35.3450   28.8930   36.9140 N   0  0  0  0  0  0  0  0  0  0  0  0
   33.1310   29.0640   39.3640 H   0  0  0  0  0  0  0  0  0  0  0  0
   34.9680   28.7300   34.5910 O   0  0  0  0  0  0  0  0  0  0  0  0
   36.3810   30.9280   34.1350 O   0  0  0  0  0  0  0  0  0  0  0  0
   36.4070   29.4090   34.0090 P   0  0  0  0  0  0  0  0  0  0  0  0
   37.6770   28.8120   34.9650 O   0  0  0  0  0  0  0  0  0  0  0  0
   37.8830   27.8850   34.6840 H   0  0  0  0  0  0  0  0  0  0  0  0
   36.6700   28.9150   32.4020 O   0  0  0  0  0  0  0  0  0  0  0  0
   37.2730   28.1290   32.4040 H   0  0  0  0  0  0  0  0  0  0  0  0
  1 22  1  0  0  0  0
  1  2  1  0  0  0  0
  1  4  1  0  0  0  0
  3  1  1  0  0  0  0
  4  5  1  0  0  0  0
  5  6  2  0  0  0  0
  5 12  1  0  0  0  0
  6 10  1  0  0  0  0
  7  6  1  0  0  0  0
  8  7  2  0  0  0  0
  9  8  1  0  0  0  0
  9  4  2  0  0  0  0
 11  8  1  0  0  0  0
 12 13  1  0  0  0  0
 13 16  1  0  0  0  0
 13 15  1  0  0  0  0
 14 13  1  0  0  0  0
 16 19  1  0  0  0  0
 16 18  1  0  0  0  0
 17 16  1  0  0  0  0
 20 21  1  0  0  0  0
 20 19  1  0  0  0  0
 21 19  1  0  0  0  0
 22 23  1  0  0  0  0
 22 24  1  0  0  0  0
 25 26  2  0  0  0  0
 25 22  1  0  0  0  0
 26 30  1  0  0  0  0
 27 26  1  0  0  0  0
 28 27  1  0  0  0  0
 28 29  2  0  0  0  0
 29 25  1  0  0  0  0
 31 28  1  0  0  0  0
 33 32  2  0  0  0  0
 33 31  1  0  0  0  0
 33 34  1  0  0  0  0
 35 34  1  0  0  0  0
 36 37  1  0  0  0  0
 36 33  1  0  0  0  0
M  END
>  <minimizedAffinity>
-4.94441652

$$$$

 OpenBabel03252507493D

 37 39  0  0  0  0  0  0  0  0999 V2000
   38.4500   28.6560   38.5780 C   0  0  0  0  0  0  0  0  0  0  0  0
   38.4140   28.6230   37.4910 H   0  0  0  0  0  0  0  0  0  0  0  0
   37.7400   27.8660   38.9510 H   0  0  0  0  0  0  0  0  0  0  0  0
   37.9480   29.9330   39.1310 C   0  0  0  0  0  0  0  0  0  0  0  0
   36.9810   29.8440   40.1270 C   0  0  0  0  0  0  0  0  0  0  0  0
   36.4510   30.9760   40.7050 C   0  0  0  0  0  0  0  0  0  0  0  0
   36.9170   32.1870   40.2570 N   0  0  0  0  0  0  0  0  0  0  0  0
   37.8640   32.2340   39.2820 C   0  0  0  0  0  0  0  0  0  0  0  0
   38.3520   31.1200   38.7470 N   0  0  0  0  0  0  0  0  0  0  0  0
   35.7080   30.8510   41.4680 H   0  0  0  0  0  0  0  0  0  0  0  0
   38.1670   33.2300   38.9980 H   0  0  0  0  0  0  0  0  0  0  0  0
   36.3980   28.2230   40.6820 S   0  0  0  0  0  0  0  0  0  0  0  0
   36.7420   28.0130   42.4320 C   0  0  0  0  0  0  0  0  0  0  0  0
   35.7520   27.8760   42.9520 H   0  0  0  0  0  0  0  0  0  0  0  0
   37.2370   28.8490   42.9230 H   0  0  0  0  0  0  0  0  0  0  0  0
   37.4890   26.7130   42.6380 C   0  0  0  0  0  0  0  0  0  0  0  0
   38.5660   26.8970   42.7540 H   0  0  0  0  0  0  0  0  0  0  0  0
   37.0130   26.1960   43.4970 H   0  0  0  0  0  0  0  0  0  0  0  0
   37.1880   25.8540   41.4210 C   0  0  0  0  0  3  0  0  0  0  0  0
   36.8430   24.4040   41.7220 C   0  0  0  0  0  2  0  0  0  0  0  0
   38.0960   24.7970   40.9810 C   0  0  0  0  0  2  0  0  0  0  0  0
   39.8150   28.3050   39.0500 C   0  0  0  0  0  0  0  0  0  0  0  0
   40.0320   28.7280   40.0750 H   0  0  0  0  0  0  0  0  0  0  0  0
   39.8960   27.1900   39.1940 H   0  0  0  0  0  0  0  0  0  0  0  0
   40.8940   28.6740   38.0850 C   0  0  0  0  0  0  0  0  0  0  0  0
   41.4650   27.6820   37.2390 C   0  0  0  0  0  0  0  0  0  0  0  0
   42.7090   28.6280   36.2730 S   0  0  0  0  0  0  0  0  0  0  0  0
   42.2480   30.2260   37.1790 C   0  0  0  0  0  0  0  0  0  0  0  0
   41.4290   29.8420   37.8840 N   0  0  0  0  0  0  0  0  0  0  0  0
   41.1870   26.6120   37.2140 H   0  0  0  0  0  0  0  0  0  0  0  0
   42.8610   31.4470   36.9160 O   0  0  0  0  0  0  0  0  0  0  0  0
   42.2570   33.0810   38.9170 O   0  0  0  0  0  0  0  0  0  0  0  0
   42.0580   32.8510   37.4230 P   0  0  0  0  0  0  0  0  0  0  0  0
   42.7370   34.1600   36.5830 O   0  0  0  0  0  0  0  0  0  0  0  0
   42.3810   34.1690   35.6580 H   0  0  0  0  0  0  0  0  0  0  0  0
   40.4080   32.7510   37.0150 O   0  0  0  0  0  0  0  0  0  0  0  0
   40.2640   33.2170   36.1530 H   0  0  0  0  0  0  0  0  0  0  0  0
  1  3  1  0  0  0  0
  1 22  1  0  0  0  0
  1  4  1  0  0  0  0
  2  1  1  0  0  0  0
  4  5  1  0  0  0  0
  5 12  1  0  0  0  0
  5  6  2  0  0  0  0
  6 10  1  0  0  0  0
  7  6  1  0  0  0  0
  8  7  2  0  0  0  0
  9  4  2  0  0  0  0
  9  8  1  0  0  0  0
 11  8  1  0  0  0  0
 12 13  1  0  0  0  0
 13 16  1  0  0  0  0
 13 15  1  0  0  0  0
 13 14  1  0  0  0  0
 16 17  1  0  0  0  0
 16 18  1  0  0  0  0
 19 20  1  0  0  0  0
 19 16  1  0  0  0  0
 21 19  1  0  0  0  0
 21 20  1  0  0  0  0
 22 24  1  0  0  0  0
 22 23  1  0  0  0  0
 25 22  1  0  0  0  0
 26 25  2  0  0  0  0
 27 28  1  0  0  0  0
 27 26  1  0  0  0  0
 28 29  2  0  0  0  0
 29 25  1  0  0  0  0
 30 26  1  0  0  0  0
 31 28  1  0  0  0  0
 31 33  1  0  0  0  0
 33 32  2  0  0  0  0
 34 33  1  0  0  0  0
 35 34  1  0  0  0  0
 36 33  1  0  0  0  0
 37 36  1  0  0  0  0
M  END
>  <minimizedAffinity>
-4.86799145

$$$$

 OpenBabel03252507493D

 37 39  0  0  0  0  0  0  0  0999 V2000
   35.3380   28.7190   38.8710 C   0  0  0  0  0  0  0  0  0  0  0  0
   34.4110   29.1120   39.2830 H   0  0  0  0  0  0  0  0  0  0  0  0
   35.8580   28.1720   39.7060 H   0  0  0  0  0  0  0  0  0  0  0  0
   36.2750   29.7810   38.4480 C   0  0  0  0  0  0  0  0  0  0  0  0
   36.7520   30.6270   39.4440 C   0  0  0  0  0  0  0  0  0  0  0  0
   37.6290   31.6470   39.1510 C   0  0  0  0  0  0  0  0  0  0  0  0
   38.0090   31.7900   37.8400 N   0  0  0  0  0  0  0  0  0  0  0  0
   37.5230   30.9440   36.8920 C   0  0  0  0  0  0  0  0  0  0  0  0
   36.6770   29.9700   37.2140 N   0  0  0  0  0  0  0  0  0  0  0  0
   37.9650   32.2690   39.9570 H   0  0  0  0  0  0  0  0  0  0  0  0
   37.8800   31.1350   35.8930 H   0  0  0  0  0  0  0  0  0  0  0  0
   36.2190   30.3960   41.1590 S   0  0  0  0  0  0  0  0  0  0  0  0
   37.3240   29.2540   41.9960 C   0  0  0  0  0  0  0  0  0  0  0  0
   37.5220   29.6750   43.0230 H   0  0  0  0  0  0  0  0  0  0  0  0
   38.2950   29.1030   41.5300 H   0  0  0  0  0  0  0  0  0  0  0  0
   36.5990   27.9470   42.2310 C   0  0  0  0  0  0  0  0  0  0  0  0
   36.3330   27.8330   43.2910 H   0  0  0  0  0  0  0  0  0  0  0  0
   35.7360   27.9210   41.5340 H   0  0  0  0  0  0  0  0  0  0  0  0
   37.5410   26.8500   41.7620 C   0  0  0  0  0  3  0  0  0  0  0  0
   36.9380   25.8550   40.7820 C   0  0  0  0  0  2  0  0  0  0  0  0
   37.3660   25.4570   42.1720 C   0  0  0  0  0  2  0  0  0  0  0  0
   35.0370   27.7350   37.7980 C   0  0  0  0  0  0  0  0  0  0  0  0
   35.8670   27.6720   37.0350 H   0  0  0  0  0  0  0  0  0  0  0  0
   34.9890   26.6970   38.2310 H   0  0  0  0  0  0  0  0  0  0  0  0
   33.7200   27.9630   37.1310 C   0  0  0  0  0  0  0  0  0  0  0  0
   33.1530   26.9530   36.3050 C   0  0  0  0  0  0  0  0  0  0  0  0
   31.5770   27.7110   35.7430 S   0  0  0  0  0  0  0  0  0  0  0  0
   31.9460   29.2880   36.7270 C   0  0  0  0  0  0  0  0  0  0  0  0
   32.9580   29.0160   37.1920 N   0  0  0  0  0  0  0  0  0  0  0  0
   33.6010   25.9650   36.0890 H   0  0  0  0  0  0  0  0  0  0  0  0
   31.0860   30.3820   36.7500 O   0  0  0  0  0  0  0  0  0  0  0  0
   28.7120   29.8680   37.8160 O   0  0  0  0  0  0  0  0  0  0  0  0
   30.0550   30.5380   38.0860 P   0  0  0  0  0  0  0  0  0  0  0  0
   30.7930   29.7530   39.3970 O   0  0  0  0  0  0  0  0  0  0  0  0
   31.5110   30.3330   39.7570 H   0  0  0  0  0  0  0  0  0  0  0  0
   29.8690   32.1830   38.4820 O   0  0  0  0  0  0  0  0  0  0  0  0
   30.5110   32.4120   39.2010 H   0  0  0  0  0  0  0  0  0  0  0  0
  1  2  1  0  0  0  0
  1  3  1  0  0  0  0
  4  1  1  0  0  0  0
  4  5  1  0  0  0  0
  5 12  1  0  0  0  0
  6  5  2  0  0  0  0
  6 10  1  0  0  0  0
  7  6  1  0  0  0  0
  8  9  1  0  0  0  0
  8  7  2  0  0  0  0
  9  4  2  0  0  0  0
 11  8  1  0  0  0  0
 12 13  1  0  0  0  0
 13 16  1  0  0  0  0
 13 14  1  0  0  0  0
 15 13  1  0  0  0  0
 16 17  1  0  0  0  0
 18 16  1  0  0  0  0
 19 21  1  0  0  0  0
 19 16  1  0  0  0  0
 20 19  1  0  0  0  0
 20 21  1  0  0  0  0
 22 24  1  0  0  0  0
 22  1  1  0  0  0  0
 23 22  1  0  0  0  0
 25 29  1  0  0  0  0
 25 22  1  0  0  0  0
 26 25  2  0  0  0  0
 27 26  1  0  0  0  0
 27 28  1  0  0  0  0
 28 31  1  0  0  0  0
 28 29  2  0  0  0  0
 30 26  1  0  0  0  0
 31 33  1  0  0  0  0
 32 33  2  0  0  0  0
 33 36  1  0  0  0  0
 33 34  1  0  0  0  0
 34 35  1  0  0  0  0
 36 37  1  0  0  0  0
M  END
>  <minimizedAffinity>
-4.83743668

$$$$
