
 OpenBabel03242520533D

 21 22  0  0  0  0  0  0  0  0999 V2000
   41.7130   31.8680   41.0170 C   0  0  0  0  0  0  0  0  0  0  0  0
   40.7610   32.8350   40.6430 C   0  0  0  0  0  0  0  0  0  0  0  0
   39.4330   32.6310   40.9420 C   0  0  0  0  0  0  0  0  0  0  0  0
   39.1180   31.4940   41.5880 N   0  0  0  0  0  0  0  0  0  0  0  0
   40.0110   30.5750   41.9440 C   0  0  0  0  0  0  0  0  0  0  0  0
   41.3180   30.7530   41.6610 N   0  0  0  0  0  0  0  0  0  0  0  0
   42.7420   32.0890   40.7520 H   0  0  0  0  0  0  0  0  0  0  0  0
   41.0140   33.7610   40.1190 H   0  0  0  0  0  0  0  0  0  0  0  0
   39.6120   29.3550   42.6490 C   0  0  0  0  0  3  0  0  0  0  0  0
   38.3750   29.0610   42.9150 C   0  0  0  0  0  3  0  0  0  0  0  0
   37.9790   27.8300   43.6200 C   0  0  0  0  0  0  0  0  0  0  0  0
   38.8630   27.1440   43.6540 H   0  0  0  0  0  0  0  0  0  0  0  0
   37.6740   28.0450   44.6850 H   0  0  0  0  0  0  0  0  0  0  0  0
   36.8790   27.0940   42.9150 C   0  0  0  0  0  3  0  0  0  0  0  0
   37.0010   26.8510   41.4300 C   0  0  0  0  0  2  0  0  0  0  0  0
   37.2270   25.7170   42.3550 C   0  0  0  0  0  2  0  0  0  0  0  0
   38.4250   33.4990   40.6290 O   0  0  0  0  0  0  0  0  0  0  0  0
   37.5060   33.0880   39.6030 C   0  0  0  0  0  0  0  0  0  0  0  0
   38.2110   32.4770   38.5770 F   0  0  0  0  0  0  0  0  0  0  0  0
   36.6250   32.1630   40.1790 F   0  0  0  0  0  0  0  0  0  0  0  0
   36.7560   34.1610   39.1280 F   0  0  0  0  0  0  0  0  0  0  0  0
  1  6  1  0  0  0  0
  2  3  1  0  0  0  0
  2  1  2  0  0  0  0
  3  4  2  0  0  0  0
  4  5  1  0  0  0  0
  5  9  1  0  0  0  0
  6  5  2  0  0  0  0
  7  1  1  0  0  0  0
  8  2  1  0  0  0  0
  9 10  2  0  0  0  0
 10 11  1  0  0  0  0
 11 12  1  0  0  0  0
 11 13  1  0  0  0  0
 14 11  1  0  0  0  0
 15 16  1  0  0  0  0
 15 14  1  0  0  0  0
 16 14  1  0  0  0  0
 17  3  1  0  0  0  0
 18 20  1  0  0  0  0
 18 17  1  0  0  0  0
 19 18  1  0  0  0  0
 21 18  1  0  0  0  0
M  END
>  <minimizedAffinity>
-4.58680153

$$$$

 OpenBabel03242520533D

 21 22  0  0  0  0  0  0  0  0999 V2000
   35.5730   29.0080   40.5890 C   0  0  0  0  0  0  0  0  0  0  0  0
   35.9700   30.3300   40.3080 C   0  0  0  0  0  0  0  0  0  0  0  0
   37.0660   30.8600   40.9480 C   0  0  0  0  0  0  0  0  0  0  0  0
   37.7070   30.0660   41.8250 N   0  0  0  0  0  0  0  0  0  0  0  0
   37.3390   28.8180   42.0970 C   0  0  0  0  0  0  0  0  0  0  0  0
   36.2670   28.2770   41.4820 N   0  0  0  0  0  0  0  0  0  0  0  0
   34.7010   28.6510   40.0510 H   0  0  0  0  0  0  0  0  0  0  0  0
   35.4510   30.9770   39.5960 H   0  0  0  0  0  0  0  0  0  0  0  0
   38.0770   27.9960   43.0590 C   0  0  0  0  0  3  0  0  0  0  0  0
   38.8540   27.0170   42.7060 C   0  0  0  0  0  3  0  0  0  0  0  0
   39.5990   26.1970   43.6780 C   0  0  0  0  0  0  0  0  0  0  0  0
   40.2990   26.8650   44.2390 H   0  0  0  0  0  0  0  0  0  0  0  0
   38.9070   25.7210   44.4310 H   0  0  0  0  0  0  0  0  0  0  0  0
   40.4330   25.1410   43.0170 C   0  0  0  0  0  3  0  0  0  0  0  0
   41.2870   25.5250   41.8310 C   0  0  0  0  0  2  0  0  0  0  0  0
   41.9480   25.2930   43.1360 C   0  0  0  0  0  2  0  0  0  0  0  0
   37.5400   32.1270   40.7550 O   0  0  0  0  0  0  0  0  0  0  0  0
   38.1800   32.3990   39.4960 C   0  0  0  0  0  0  0  0  0  0  0  0
   38.8940   31.2790   39.0960 F   0  0  0  0  0  0  0  0  0  0  0  0
   37.1690   32.6660   38.5640 F   0  0  0  0  0  0  0  0  0  0  0  0
   39.0030   33.5200   39.5730 F   0  0  0  0  0  0  0  0  0  0  0  0
  1  6  1  0  0  0  0
  2  1  2  0  0  0  0
  2  3  1  0  0  0  0
  3  4  2  0  0  0  0
  4  5  1  0  0  0  0
  5  9  1  0  0  0  0
  6  5  2  0  0  0  0
  7  1  1  0  0  0  0
  8  2  1  0  0  0  0
 10  9  2  0  0  0  0
 10 11  1  0  0  0  0
 11 12  1  0  0  0  0
 11 13  1  0  0  0  0
 14 16  1  0  0  0  0
 14 11  1  0  0  0  0
 15 14  1  0  0  0  0
 15 16  1  0  0  0  0
 17  3  1  0  0  0  0
 18 21  1  0  0  0  0
 18 17  1  0  0  0  0
 19 18  1  0  0  0  0
 20 18  1  0  0  0  0
M  END
>  <minimizedAffinity>
-4.39048481

$$$$

 OpenBabel03242520533D

 21 22  0  0  0  0  0  0  0  0999 V2000
   34.6970   28.5540   35.9670 C   0  0  0  0  0  0  0  0  0  0  0  0
   35.1070   28.7910   34.6410 C   0  0  0  0  0  0  0  0  0  0  0  0
   36.1720   29.6270   34.3980 C   0  0  0  0  0  0  0  0  0  0  0  0
   36.7720   30.1820   35.4680 N   0  0  0  0  0  0  0  0  0  0  0  0
   36.3910   29.9630   36.7230 C   0  0  0  0  0  0  0  0  0  0  0  0
   35.3490   29.1470   36.9850 N   0  0  0  0  0  0  0  0  0  0  0  0
   33.8510   27.8850   36.0900 H   0  0  0  0  0  0  0  0  0  0  0  0
   34.6220   28.3420   33.7700 H   0  0  0  0  0  0  0  0  0  0  0  0
   37.0830   30.5910   37.8510 C   0  0  0  0  0  3  0  0  0  0  0  0
   36.5600   30.6940   39.0360 C   0  0  0  0  0  3  0  0  0  0  0  0
   37.2630   31.3220   40.1690 C   0  0  0  0  0  0  0  0  0  0  0  0
   36.5010   31.7990   40.8350 H   0  0  0  0  0  0  0  0  0  0  0  0
   37.8200   30.5570   40.7830 H   0  0  0  0  0  0  0  0  0  0  0  0
   38.2040   32.4040   39.7310 C   0  0  0  0  0  3  0  0  0  0  0  0
   37.7490   33.8430   39.8160 C   0  0  0  0  0  2  0  0  0  0  0  0
   38.7180   33.3440   40.8200 C   0  0  0  0  0  2  0  0  0  0  0  0
   36.6550   29.9290   33.1570 O   0  0  0  0  0  0  0  0  0  0  0  0
   36.4520   31.2720   32.6860 C   0  0  0  0  0  0  0  0  0  0  0  0
   36.2650   31.2510   31.3130 F   0  0  0  0  0  0  0  0  0  0  0  0
   35.2950   31.7600   33.3080 F   0  0  0  0  0  0  0  0  0  0  0  0
   37.5130   32.1030   33.0380 F   0  0  0  0  0  0  0  0  0  0  0  0
  1  7  1  0  0  0  0
  1  6  1  0  0  0  0
  2  1  2  0  0  0  0
  3  2  1  0  0  0  0
  3  4  2  0  0  0  0
  4  5  1  0  0  0  0
  5  6  2  0  0  0  0
  5  9  1  0  0  0  0
  8  2  1  0  0  0  0
  9 10  2  0  0  0  0
 10 11  1  0  0  0  0
 11 13  1  0  0  0  0
 11 12  1  0  0  0  0
 14 15  1  0  0  0  0
 14 11  1  0  0  0  0
 14 16  1  0  0  0  0
 15 16  1  0  0  0  0
 17  3  1  0  0  0  0
 18 21  1  0  0  0  0
 18 17  1  0  0  0  0
 18 20  1  0  0  0  0
 19 18  1  0  0  0  0
M  END
>  <minimizedAffinity>
-4.36063337

$$$$

 OpenBabel03242520533D

 21 22  0  0  0  0  0  0  0  0999 V2000
   38.0060   28.2250   43.5880 C   0  0  0  0  0  0  0  0  0  0  0  0
   38.1680   29.4520   42.9170 C   0  0  0  0  0  0  0  0  0  0  0  0
   37.9330   29.5220   41.5630 C   0  0  0  0  0  0  0  0  0  0  0  0
   37.5530   28.3880   40.9470 N   0  0  0  0  0  0  0  0  0  0  0  0
   37.3970   27.2250   41.5730 C   0  0  0  0  0  0  0  0  0  0  0  0
   37.6230   27.1320   42.9000 N   0  0  0  0  0  0  0  0  0  0  0  0
   38.2080   28.2370   44.6540 H   0  0  0  0  0  0  0  0  0  0  0  0
   38.4770   30.3750   43.4140 H   0  0  0  0  0  0  0  0  0  0  0  0
   36.9770   26.0210   40.8540 C   0  0  0  0  0  3  0  0  0  0  0  0
   37.0790   24.8250   41.3510 C   0  0  0  0  0  3  0  0  0  0  0  0
   36.6500   23.6160   40.6250 C   0  0  0  0  0  0  0  0  0  0  0  0
   37.5560   23.1320   40.1820 H   0  0  0  0  0  0  0  0  0  0  0  0
   36.1690   22.8680   41.3180 H   0  0  0  0  0  0  0  0  0  0  0  0
   35.7200   23.9290   39.4900 C   0  0  0  0  0  3  0  0  0  0  0  0
   35.6700   22.9880   38.3090 C   0  0  0  0  0  2  0  0  0  0  0  0
   34.5510   22.9690   39.2800 C   0  0  0  0  0  2  0  0  0  0  0  0
   38.0590   30.6560   40.8110 O   0  0  0  0  0  0  0  0  0  0  0  0
   36.8460   31.3380   40.4500 C   0  0  0  0  0  0  0  0  0  0  0  0
   35.8910   31.1210   41.4320 F   0  0  0  0  0  0  0  0  0  0  0  0
   37.1420   32.7050   40.3810 F   0  0  0  0  0  0  0  0  0  0  0  0
   36.3840   30.9320   39.2000 F   0  0  0  0  0  0  0  0  0  0  0  0
  1  7  1  0  0  0  0
  2  8  1  0  0  0  0
  2  1  1  0  0  0  0
  3  2  2  0  0  0  0
  4  3  1  0  0  0  0
  4  5  2  0  0  0  0
  5  6  1  0  0  0  0
  6  1  2  0  0  0  0
  9 10  2  0  0  0  0
  9  5  1  0  0  0  0
 11 13  1  0  0  0  0
 11 10  1  0  0  0  0
 12 11  1  0  0  0  0
 14 11  1  0  0  0  0
 15 16  1  0  0  0  0
 15 14  1  0  0  0  0
 16 14  1  0  0  0  0
 17  3  1  0  0  0  0
 18 17  1  0  0  0  0
 18 19  1  0  0  0  0
 20 18  1  0  0  0  0
 21 18  1  0  0  0  0
M  END
>  <minimizedAffinity>
-4.35791636

$$$$

 OpenBabel03242520533D

 21 22  0  0  0  0  0  0  0  0999 V2000
   33.6720   28.4030   35.9750 C   0  0  0  0  0  0  0  0  0  0  0  0
   34.4740   28.7910   34.8850 C   0  0  0  0  0  0  0  0  0  0  0  0
   35.6830   29.4060   35.1160 C   0  0  0  0  0  0  0  0  0  0  0  0
   36.0350   29.6040   36.4000 N   0  0  0  0  0  0  0  0  0  0  0  0
   35.2840   29.2400   37.4350 C   0  0  0  0  0  0  0  0  0  0  0  0
   34.0940   28.6360   37.2330 N   0  0  0  0  0  0  0  0  0  0  0  0
   32.7310   27.9240   35.7250 H   0  0  0  0  0  0  0  0  0  0  0  0
   34.1910   28.6320   33.8410 H   0  0  0  0  0  0  0  0  0  0  0  0
   35.7170   29.4770   38.8130 C   0  0  0  0  0  3  0  0  0  0  0  0
   35.6460   28.5740   39.7450 C   0  0  0  0  0  3  0  0  0  0  0  0
   36.0890   28.8160   41.1300 C   0  0  0  0  0  0  0  0  0  0  0  0
   36.8650   29.6220   41.1150 H   0  0  0  0  0  0  0  0  0  0  0  0
   35.2390   29.1740   41.7780 H   0  0  0  0  0  0  0  0  0  0  0  0
   36.7240   27.6060   41.7470 C   0  0  0  0  0  3  0  0  0  0  0  0
   37.8800   27.7970   42.7020 C   0  0  0  0  0  2  0  0  0  0  0  0
   36.5530   27.4400   43.2560 C   0  0  0  0  0  2  0  0  0  0  0  0
   36.5400   29.8250   34.1380 O   0  0  0  0  0  0  0  0  0  0  0  0
   36.3820   31.1730   33.6640 C   0  0  0  0  0  0  0  0  0  0  0  0
   35.0310   31.4500   33.5200 F   0  0  0  0  0  0  0  0  0  0  0  0
   36.9320   32.0220   34.6340 F   0  0  0  0  0  0  0  0  0  0  0  0
   37.0680   31.3790   32.4700 F   0  0  0  0  0  0  0  0  0  0  0  0
  1  6  1  0  0  0  0
  2  3  1  0  0  0  0
  2  1  2  0  0  0  0
  3  4  2  0  0  0  0
  4  5  1  0  0  0  0
  5  9  1  0  0  0  0
  6  5  2  0  0  0  0
  7  1  1  0  0  0  0
  8  2  1  0  0  0  0
  9 10  2  0  0  0  0
 10 11  1  0  0  0  0
 11 14  1  0  0  0  0
 11 13  1  0  0  0  0
 12 11  1  0  0  0  0
 14 15  1  0  0  0  0
 14 16  1  0  0  0  0
 15 16  1  0  0  0  0
 17  3  1  0  0  0  0
 18 17  1  0  0  0  0
 18 20  1  0  0  0  0
 19 18  1  0  0  0  0
 21 18  1  0  0  0  0
M  END
>  <minimizedAffinity>
-4.35728264

$$$$

 OpenBabel03242520533D

 21 22  0  0  0  0  0  0  0  0999 V2000
   39.5950   26.8520   43.6800 C   0  0  0  0  0  0  0  0  0  0  0  0
   39.2980   25.7200   42.8970 C   0  0  0  0  0  0  0  0  0  0  0  0
   38.5730   25.8690   41.7360 C   0  0  0  0  0  0  0  0  0  0  0  0
   38.1830   27.1150   41.4130 N   0  0  0  0  0  0  0  0  0  0  0  0
   38.4590   28.1890   42.1460 C   0  0  0  0  0  0  0  0  0  0  0  0
   39.1680   28.0680   43.2880 N   0  0  0  0  0  0  0  0  0  0  0  0
   40.1690   26.6670   44.5820 H   0  0  0  0  0  0  0  0  0  0  0  0
   39.6140   24.7070   43.1570 H   0  0  0  0  0  0  0  0  0  0  0  0
   38.0120   29.5240   41.7440 C   0  0  0  0  0  3  0  0  0  0  0  0
   36.8530   29.7520   41.2040 C   0  0  0  0  0  3  0  0  0  0  0  0
   36.4060   31.0980   40.8050 C   0  0  0  0  0  0  0  0  0  0  0  0
   35.6680   30.9910   39.9710 H   0  0  0  0  0  0  0  0  0  0  0  0
   35.8840   31.6270   41.6540 H   0  0  0  0  0  0  0  0  0  0  0  0
   37.5300   31.9470   40.2920 C   0  0  0  0  0  3  0  0  0  0  0  0
   37.7260   32.0720   38.8000 C   0  0  0  0  0  2  0  0  0  0  0  0
   37.1390   33.2160   39.5360 C   0  0  0  0  0  2  0  0  0  0  0  0
   38.2280   24.8450   40.9010 O   0  0  0  0  0  0  0  0  0  0  0  0
   36.8640   24.3910   40.9540 C   0  0  0  0  0  0  0  0  0  0  0  0
   36.1120   25.1010   40.0300 F   0  0  0  0  0  0  0  0  0  0  0  0
   36.8640   23.0330   40.6110 F   0  0  0  0  0  0  0  0  0  0  0  0
   36.3340   24.5130   42.2350 F   0  0  0  0  0  0  0  0  0  0  0  0
  1  7  1  0  0  0  0
  2  8  1  0  0  0  0
  2  1  2  0  0  0  0
  3  2  1  0  0  0  0
  4  3  2  0  0  0  0
  4  5  1  0  0  0  0
  5  6  2  0  0  0  0
  6  1  1  0  0  0  0
  9  5  1  0  0  0  0
 10  9  2  0  0  0  0
 11 10  1  0  0  0  0
 11 13  1  0  0  0  0
 12 11  1  0  0  0  0
 14 11  1  0  0  0  0
 15 16  1  0  0  0  0
 15 14  1  0  0  0  0
 16 14  1  0  0  0  0
 17 18  1  0  0  0  0
 17  3  1  0  0  0  0
 18 21  1  0  0  0  0
 19 18  1  0  0  0  0
 20 18  1  0  0  0  0
M  END
>  <minimizedAffinity>
-4.34132433

$$$$

 OpenBabel03242520533D

 21 22  0  0  0  0  0  0  0  0999 V2000
   36.9600   29.8350   36.8730 C   0  0  0  0  0  0  0  0  0  0  0  0
   37.4850   31.0710   37.2950 C   0  0  0  0  0  0  0  0  0  0  0  0
   37.9940   31.1940   38.5670 C   0  0  0  0  0  0  0  0  0  0  0  0
   37.9600   30.0990   39.3490 N   0  0  0  0  0  0  0  0  0  0  0  0
   37.4660   28.9280   38.9580 C   0  0  0  0  0  0  0  0  0  0  0  0
   36.9610   28.7850   37.7150 N   0  0  0  0  0  0  0  0  0  0  0  0
   36.5740   29.8050   35.8580 H   0  0  0  0  0  0  0  0  0  0  0  0
   37.5140   31.9620   36.6620 H   0  0  0  0  0  0  0  0  0  0  0  0
   37.4570   27.7670   39.8510 C   0  0  0  0  0  3  0  0  0  0  0  0
   37.0820   27.8300   41.0930 C   0  0  0  0  0  3  0  0  0  0  0  0
   37.0690   26.6570   41.9850 C   0  0  0  0  0  0  0  0  0  0  0  0
   37.7420   26.8700   42.8540 H   0  0  0  0  0  0  0  0  0  0  0  0
   36.0370   26.4620   42.3940 H   0  0  0  0  0  0  0  0  0  0  0  0
   37.5940   25.4220   41.3160 C   0  0  0  0  0  3  0  0  0  0  0  0
   37.8980   24.2090   42.1630 C   0  0  0  0  0  2  0  0  0  0  0  0
   36.6770   24.2000   41.3230 C   0  0  0  0  0  2  0  0  0  0  0  0
   38.5260   32.3420   39.0830 O   0  0  0  0  0  0  0  0  0  0  0  0
   37.6710   33.1400   39.9180 C   0  0  0  0  0  0  0  0  0  0  0  0
   38.4500   33.9740   40.7050 F   0  0  0  0  0  0  0  0  0  0  0  0
   36.8670   33.9150   39.0700 F   0  0  0  0  0  0  0  0  0  0  0  0
   36.8340   32.3470   40.7000 F   0  0  0  0  0  0  0  0  0  0  0  0
  1  2  2  0  0  0  0
  1  6  1  0  0  0  0
  2  3  1  0  0  0  0
  3 17  1  0  0  0  0
  3  4  2  0  0  0  0
  5  4  1  0  0  0  0
  5  9  1  0  0  0  0
  6  5  2  0  0  0  0
  7  1  1  0  0  0  0
  8  2  1  0  0  0  0
  9 10  2  0  0  0  0
 10 11  1  0  0  0  0
 11 13  1  0  0  0  0
 11 12  1  0  0  0  0
 14 16  1  0  0  0  0
 14 11  1  0  0  0  0
 14 15  1  0  0  0  0
 16 15  1  0  0  0  0
 17 18  1  0  0  0  0
 18 21  1  0  0  0  0
 18 19  1  0  0  0  0
 20 18  1  0  0  0  0
M  END
>  <minimizedAffinity>
-4.28951263

$$$$

 OpenBabel03242520533D

 21 22  0  0  0  0  0  0  0  0999 V2000
   39.9720   25.1840   43.2880 C   0  0  0  0  0  0  0  0  0  0  0  0
   39.6610   26.5000   43.6800 C   0  0  0  0  0  0  0  0  0  0  0  0
   38.4530   27.0500   43.3170 C   0  0  0  0  0  0  0  0  0  0  0  0
   37.6220   26.2780   42.5920 N   0  0  0  0  0  0  0  0  0  0  0  0
   37.9080   25.0340   42.2180 C   0  0  0  0  0  0  0  0  0  0  0  0
   39.0860   24.4750   42.5620 N   0  0  0  0  0  0  0  0  0  0  0  0
   40.9400   24.8110   43.6060 H   0  0  0  0  0  0  0  0  0  0  0  0
   40.3340   27.1290   44.2690 H   0  0  0  0  0  0  0  0  0  0  0  0
   36.9630   24.2380   41.4320 C   0  0  0  0  0  3  0  0  0  0  0  0
   37.3090   23.5660   40.3760 C   0  0  0  0  0  3  0  0  0  0  0  0
   36.3560   22.7610   39.5910 C   0  0  0  0  0  0  0  0  0  0  0  0
   36.7770   22.6200   38.5640 H   0  0  0  0  0  0  0  0  0  0  0  0
   36.2110   21.7380   40.0430 H   0  0  0  0  0  0  0  0  0  0  0  0
   35.0280   23.4390   39.4330 C   0  0  0  0  0  3  0  0  0  0  0  0
   34.2260   23.1850   38.1780 C   0  0  0  0  0  2  0  0  0  0  0  0
   33.7950   22.5380   39.4390 C   0  0  0  0  0  2  0  0  0  0  0  0
   38.0470   28.3130   43.6400 O   0  0  0  0  0  0  0  0  0  0  0  0
   38.2550   29.3380   42.6530 C   0  0  0  0  0  0  0  0  0  0  0  0
   37.0260   29.8230   42.2320 F   0  0  0  0  0  0  0  0  0  0  0  0
   38.9780   30.3680   43.2700 F   0  0  0  0  0  0  0  0  0  0  0  0
   39.0060   28.8680   41.5780 F   0  0  0  0  0  0  0  0  0  0  0  0
  1  7  1  0  0  0  0
  1  2  1  0  0  0  0
  2  8  1  0  0  0  0
  3 17  1  0  0  0  0
  3  2  2  0  0  0  0
  4  3  1  0  0  0  0
  5  6  1  0  0  0  0
  5  4  2  0  0  0  0
  6  1  2  0  0  0  0
  9  5  1  0  0  0  0
 10  9  2  0  0  0  0
 11 13  1  0  0  0  0
 11 10  1  0  0  0  0
 12 11  1  0  0  0  0
 14 16  1  0  0  0  0
 14 11  1  0  0  0  0
 15 14  1  0  0  0  0
 15 16  1  0  0  0  0
 18 20  1  0  0  0  0
 18 17  1  0  0  0  0
 19 18  1  0  0  0  0
 21 18  1  0  0  0  0
M  END
>  <minimizedAffinity>
-4.2740078

$$$$

 OpenBabel03242520533D

 21 22  0  0  0  0  0  0  0  0999 V2000
   39.6260   30.2810   42.5320 C   0  0  0  0  0  0  0  0  0  0  0  0
   38.7570   31.0330   41.7190 C   0  0  0  0  0  0  0  0  0  0  0  0
   37.6160   30.4470   41.2200 C   0  0  0  0  0  0  0  0  0  0  0  0
   37.3950   29.1600   41.5460 N   0  0  0  0  0  0  0  0  0  0  0  0
   38.2110   28.4430   42.3130 C   0  0  0  0  0  0  0  0  0  0  0  0
   39.3350   28.9960   42.8130 N   0  0  0  0  0  0  0  0  0  0  0  0
   40.5070   30.8020   42.8930 H   0  0  0  0  0  0  0  0  0  0  0  0
   38.9340   32.0780   41.4520 H   0  0  0  0  0  0  0  0  0  0  0  0
   37.9190   27.0460   42.6400 C   0  0  0  0  0  3  0  0  0  0  0  0
   37.2070   26.2720   41.8770 C   0  0  0  0  0  3  0  0  0  0  0  0
   36.9210   24.8650   42.2080 C   0  0  0  0  0  0  0  0  0  0  0  0
   37.8260   24.4280   42.6990 H   0  0  0  0  0  0  0  0  0  0  0  0
   36.0640   24.7790   42.9370 H   0  0  0  0  0  0  0  0  0  0  0  0
   36.6370   24.0360   40.9910 C   0  0  0  0  0  3  0  0  0  0  0  0
   37.5530   24.1600   39.7960 C   0  0  0  0  0  2  0  0  0  0  0  0
   37.6580   22.9530   40.6480 C   0  0  0  0  0  2  0  0  0  0  0  0
   36.7040   31.0790   40.4230 O   0  0  0  0  0  0  0  0  0  0  0  0
   36.9250   31.0190   39.0040 C   0  0  0  0  0  0  0  0  0  0  0  0
   35.8950   30.3060   38.4110 F   0  0  0  0  0  0  0  0  0  0  0  0
   36.9170   32.3370   38.5260 F   0  0  0  0  0  0  0  0  0  0  0  0
   38.1640   30.4590   38.7020 F   0  0  0  0  0  0  0  0  0  0  0  0
  1  6  1  0  0  0  0
  1  7  1  0  0  0  0
  2  1  2  0  0  0  0
  3  4  2  0  0  0  0
  3  2  1  0  0  0  0
  4  5  1  0  0  0  0
  5  9  1  0  0  0  0
  5  6  2  0  0  0  0
  8  2  1  0  0  0  0
 10 11  1  0  0  0  0
 10  9  2  0  0  0  0
 11 12  1  0  0  0  0
 11 13  1  0  0  0  0
 14 11  1  0  0  0  0
 15 16  1  0  0  0  0
 15 14  1  0  0  0  0
 16 14  1  0  0  0  0
 17  3  1  0  0  0  0
 18 17  1  0  0  0  0
 19 18  1  0  0  0  0
 20 18  1  0  0  0  0
 21 18  1  0  0  0  0
M  END
>  <minimizedAffinity>
-4.24909449

$$$$
