
 OpenBabel03252509103D

 35 38  0  0  0  0  0  0  0  0999 V2000
   39.5440   30.7760   42.7510 Cl  0  0  0  0  0  0  0  0  0  0  0  0
   38.2920   29.5780   42.5610 C   0  0  0  0  0  0  0  0  0  0  0  0
   37.6110   29.4410   41.4030 C   0  0  0  0  0  0  0  0  0  0  0  0
   36.6300   28.4690   41.3510 C   0  0  0  0  0  0  0  0  0  0  0  0
   36.3400   27.6620   42.4230 C   0  0  0  0  0  0  0  0  0  0  0  0
   37.0310   27.8090   43.5820 C   0  0  0  0  0  0  0  0  0  0  0  0
   38.0150   28.7760   43.6460 C   0  0  0  0  0  0  0  0  0  0  0  0
   35.5620   26.9200   42.3320 H   0  0  0  0  0  0  0  0  0  0  0  0
   36.8350   27.1980   44.4410 H   0  0  0  0  0  0  0  0  0  0  0  0
   38.5650   28.8870   44.5730 H   0  0  0  0  0  0  0  0  0  0  0  0
   36.1580   27.3220   39.1780 C   0  0  0  0  0  0  0  0  0  0  0  0
   35.8830   28.2770   40.1100 C   0  0  0  0  0  0  0  0  0  0  0  0
   34.8250   29.1400   39.8940 C   0  0  0  0  0  0  0  0  0  0  0  0
   34.0620   29.0330   38.7540 C   0  0  0  0  0  0  0  0  0  0  0  0
   34.3250   28.0660   37.7930 C   0  0  0  0  0  0  0  0  0  0  0  0
   35.3920   27.2030   38.0190 C   0  0  0  0  0  0  0  0  0  0  0  0
   34.5820   29.9050   40.6080 H   0  0  0  0  0  0  0  0  0  0  0  0
   33.2480   29.7170   38.6150 H   0  0  0  0  0  0  0  0  0  0  0  0
   33.7330   27.9820   36.9100 H   0  0  0  0  0  0  0  0  0  0  0  0
   35.5790   26.4640   37.2680 H   0  0  0  0  0  0  0  0  0  0  0  0
   37.4060   26.2180   39.3970 S   0  0  0  0  0  0  0  0  0  0  0  0
   37.0770   25.1150   40.3710 O   0  0  0  0  0  0  0  0  0  0  0  0
   37.5080   25.4680   38.0340 O   0  0  0  0  0  0  0  0  0  0  0  0
   39.0540   26.5870   39.6470 C   0  0  0  0  0  3  0  0  0  0  0  0
   39.4790   26.2490   41.1000 C   0  0  0  0  0  2  0  0  0  0  0  0
   40.1470   25.6230   39.9740 C   0  0  0  0  0  2  0  0  0  0  0  0
   37.6390   32.4000   39.0410 C   0  0  0  0  0  0  0  0  0  0  0  0
   37.3220   31.5610   40.1150 C   0  0  0  0  0  0  0  0  0  0  0  0
   37.9350   30.3230   40.2880 C   0  0  0  0  0  0  0  0  0  0  0  0
   38.8380   30.0070   39.3550 N   0  0  0  0  0  0  0  0  0  0  0  0
   39.1480   30.8020   38.3250 C   0  0  0  0  0  0  0  0  0  0  0  0
   38.5540   31.9880   38.1700 N   0  0  0  0  0  0  0  0  0  0  0  0
   37.1120   33.3490   38.9840 H   0  0  0  0  0  0  0  0  0  0  0  0
   36.5790   31.8700   40.8420 H   0  0  0  0  0  0  0  0  0  0  0  0
   39.8880   30.5260   37.5760 H   0  0  0  0  0  0  0  0  0  0  0  0
  2  1  1  0  0  0  0
  2  7  1  0  0  0  0
  3  2  2  0  0  0  0
  4  3  1  0  0  0  0
  4  5  2  0  0  0  0
  5  6  1  0  0  0  0
  6  7  2  0  0  0  0
  6  9  1  0  0  0  0
  7 10  1  0  0  0  0
  8  5  1  0  0  0  0
 11 21  1  0  0  0  0
 11 12  1  0  0  0  0
 12  4  1  0  0  0  0
 13 12  2  0  0  0  0
 13 17  1  0  0  0  0
 14 13  1  0  0  0  0
 15 16  1  0  0  0  0
 15 14  2  0  0  0  0
 16 11  2  0  0  0  0
 18 14  1  0  0  0  0
 19 15  1  0  0  0  0
 20 16  1  0  0  0  0
 21 24  1  0  0  0  0
 21 22  2  0  0  0  0
 23 21  2  0  0  0  0
 24 26  1  0  0  0  0
 24 25  1  0  0  0  0
 26 25  1  0  0  0  0
 27 28  1  0  0  0  0
 28 29  2  0  0  0  0
 28 34  1  0  0  0  0
 29  3  1  0  0  0  0
 30 29  1  0  0  0  0
 31 30  2  0  0  0  0
 32 31  1  0  0  0  0
 32 27  2  0  0  0  0
 33 27  1  0  0  0  0
 35 31  1  0  0  0  0
M  END
>  <minimizedAffinity>
-5.87090254

$$$$

 OpenBabel03252509103D

 35 38  0  0  0  0  0  0  0  0999 V2000
   35.7990   26.3650   36.6990 Cl  0  0  0  0  0  0  0  0  0  0  0  0
   35.4150   27.4640   37.9970 C   0  0  0  0  0  0  0  0  0  0  0  0
   36.1840   27.5490   39.1040 C   0  0  0  0  0  0  0  0  0  0  0  0
   35.7940   28.4430   40.0840 C   0  0  0  0  0  0  0  0  0  0  0  0
   34.6710   29.2230   39.9600 C   0  0  0  0  0  0  0  0  0  0  0  0
   33.9070   29.1290   38.8420 C   0  0  0  0  0  0  0  0  0  0  0  0
   34.2870   28.2410   37.8560 C   0  0  0  0  0  0  0  0  0  0  0  0
   34.4100   29.9040   40.7550 H   0  0  0  0  0  0  0  0  0  0  0  0
   33.0240   29.7220   38.7070 H   0  0  0  0  0  0  0  0  0  0  0  0
   33.6730   28.1710   36.9650 H   0  0  0  0  0  0  0  0  0  0  0  0
   37.5370   29.5540   41.4930 C   0  0  0  0  0  0  0  0  0  0  0  0
   36.6090   28.5780   41.2900 C   0  0  0  0  0  0  0  0  0  0  0  0
   36.3990   27.6340   42.2780 C   0  0  0  0  0  0  0  0  0  0  0  0
   37.1190   27.6840   43.4490 C   0  0  0  0  0  0  0  0  0  0  0  0
   38.0680   28.6710   43.6770 C   0  0  0  0  0  0  0  0  0  0  0  0
   38.2720   29.6150   42.6760 C   0  0  0  0  0  0  0  0  0  0  0  0
   35.6770   26.8510   42.1480 H   0  0  0  0  0  0  0  0  0  0  0  0
   36.9340   26.9380   44.1970 H   0  0  0  0  0  0  0  0  0  0  0  0
   38.6250   28.7100   44.5860 H   0  0  0  0  0  0  0  0  0  0  0  0
   39.0070   30.3680   42.8700 H   0  0  0  0  0  0  0  0  0  0  0  0
   37.8140   30.7530   40.3480 S   0  0  0  0  0  0  0  0  0  0  0  0
   36.7200   31.7880   40.2770 O   0  0  0  0  0  0  0  0  0  0  0  0
   39.0260   31.5560   40.9090 O   0  0  0  0  0  0  0  0  0  0  0  0
   38.3420   30.5190   38.7420 C   0  0  0  0  0  3  0  0  0  0  0  0
   37.1950   30.8090   37.7380 C   0  0  0  0  0  2  0  0  0  0  0  0
   38.4380   31.5550   37.6700 C   0  0  0  0  0  2  0  0  0  0  0  0
   38.4390   24.5950   39.8280 C   0  0  0  0  0  0  0  0  0  0  0  0
   37.3020   25.4060   39.7290 C   0  0  0  0  0  0  0  0  0  0  0  0
   37.3620   26.6960   39.2110 C   0  0  0  0  0  0  0  0  0  0  0  0
   38.5780   27.0900   38.8210 N   0  0  0  0  0  0  0  0  0  0  0  0
   39.6690   26.3230   38.9110 C   0  0  0  0  0  0  0  0  0  0  0  0
   39.6000   25.0870   39.4100 N   0  0  0  0  0  0  0  0  0  0  0  0
   38.3000   23.6010   40.2460 H   0  0  0  0  0  0  0  0  0  0  0  0
   36.3400   25.0310   40.0630 H   0  0  0  0  0  0  0  0  0  0  0  0
   40.6500   26.6630   38.5870 H   0  0  0  0  0  0  0  0  0  0  0  0
  1  2  1  0  0  0  0
  2  3  1  0  0  0  0
  3 29  1  0  0  0  0
  3  4  2  0  0  0  0
  4 12  1  0  0  0  0
  5  4  1  0  0  0  0
  5  8  1  0  0  0  0
  6  5  2  0  0  0  0
  7  2  2  0  0  0  0
  7  6  1  0  0  0  0
  9  6  1  0  0  0  0
 10  7  1  0  0  0  0
 11 16  1  0  0  0  0
 12 11  2  0  0  0  0
 12 13  1  0  0  0  0
 13 14  2  0  0  0  0
 14 15  1  0  0  0  0
 14 18  1  0  0  0  0
 15 19  1  0  0  0  0
 16 20  1  0  0  0  0
 16 15  2  0  0  0  0
 17 13  1  0  0  0  0
 21 23  2  0  0  0  0
 21 11  1  0  0  0  0
 22 21  2  0  0  0  0
 24 21  1  0  0  0  0
 25 24  1  0  0  0  0
 26 25  1  0  0  0  0
 26 24  1  0  0  0  0
 27 33  1  0  0  0  0
 28 27  1  0  0  0  0
 28 34  1  0  0  0  0
 29 28  2  0  0  0  0
 30 31  2  0  0  0  0
 30 29  1  0  0  0  0
 31 32  1  0  0  0  0
 32 27  2  0  0  0  0
 35 31  1  0  0  0  0
M  END
>  <minimizedAffinity>
-5.71513271

$$$$

 OpenBabel03252509103D

 35 38  0  0  0  0  0  0  0  0999 V2000
   37.5020   31.5690   37.2970 Cl  0  0  0  0  0  0  0  0  0  0  0  0
   36.8440   30.2250   38.1910 C   0  0  0  0  0  0  0  0  0  0  0  0
   37.4220   29.7790   39.3270 C   0  0  0  0  0  0  0  0  0  0  0  0
   36.8320   28.7010   39.9620 C   0  0  0  0  0  0  0  0  0  0  0  0
   35.7040   28.0900   39.4740 C   0  0  0  0  0  0  0  0  0  0  0  0
   35.1320   28.5470   38.3310 C   0  0  0  0  0  0  0  0  0  0  0  0
   35.7110   29.6240   37.6890 C   0  0  0  0  0  0  0  0  0  0  0  0
   35.2850   27.2510   40.0060 H   0  0  0  0  0  0  0  0  0  0  0  0
   34.2510   28.0990   37.9180 H   0  0  0  0  0  0  0  0  0  0  0  0
   35.2490   29.9870   36.7770 H   0  0  0  0  0  0  0  0  0  0  0  0
   38.1660   27.0670   41.3070 C   0  0  0  0  0  0  0  0  0  0  0  0
   37.4170   28.2000   41.2040 C   0  0  0  0  0  0  0  0  0  0  0  0
   37.1780   28.9520   42.3390 C   0  0  0  0  0  0  0  0  0  0  0  0
   37.6920   28.5600   43.5530 C   0  0  0  0  0  0  0  0  0  0  0  0
   38.4590   27.4100   43.6800 C   0  0  0  0  0  0  0  0  0  0  0  0
   38.6930   26.6590   42.5330 C   0  0  0  0  0  0  0  0  0  0  0  0
   36.5910   29.8500   42.2920 H   0  0  0  0  0  0  0  0  0  0  0  0
   37.4890   29.1650   44.4160 H   0  0  0  0  0  0  0  0  0  0  0  0
   38.8580   27.1060   44.6210 H   0  0  0  0  0  0  0  0  0  0  0  0
   39.2860   25.7760   42.6500 H   0  0  0  0  0  0  0  0  0  0  0  0
   38.5240   26.1270   39.9610 S   0  0  0  0  0  0  0  0  0  0  0  0
   38.8870   26.9320   38.7380 O   0  0  0  0  0  0  0  0  0  0  0  0
   39.8620   25.4160   40.3260 O   0  0  0  0  0  0  0  0  0  0  0  0
   37.6320   24.7880   39.3920 C   0  0  0  0  0  3  0  0  0  0  0  0
   36.5530   24.3670   40.4240 C   0  0  0  0  0  2  0  0  0  0  0  0
   36.1720   24.7520   39.0780 C   0  0  0  0  0  2  0  0  0  0  0  0
   41.0560   30.6360   39.9570 C   0  0  0  0  0  0  0  0  0  0  0  0
   39.9040   29.9940   39.4880 C   0  0  0  0  0  0  0  0  0  0  0  0
   38.6270   30.4420   39.8120 C   0  0  0  0  0  0  0  0  0  0  0  0
   38.5920   31.5210   40.5990 N   0  0  0  0  0  0  0  0  0  0  0  0
   39.6860   32.1420   41.0520 C   0  0  0  0  0  0  0  0  0  0  0  0
   40.9060   31.7040   40.7340 N   0  0  0  0  0  0  0  0  0  0  0  0
   42.0120   30.2180   39.6540 H   0  0  0  0  0  0  0  0  0  0  0  0
   39.9940   29.1200   38.8510 H   0  0  0  0  0  0  0  0  0  0  0  0
   39.6360   33.0210   41.6920 H   0  0  0  0  0  0  0  0  0  0  0  0
  1  2  1  0  0  0  0
  2  3  1  0  0  0  0
  3 29  1  0  0  0  0
  3  4  2  0  0  0  0
  4 12  1  0  0  0  0
  5  4  1  0  0  0  0
  5  8  1  0  0  0  0
  6  5  2  0  0  0  0
  7  2  2  0  0  0  0
  7  6  1  0  0  0  0
  9  6  1  0  0  0  0
 10  7  1  0  0  0  0
 11 16  1  0  0  0  0
 12 11  2  0  0  0  0
 12 13  1  0  0  0  0
 13 14  2  0  0  0  0
 14 15  1  0  0  0  0
 14 18  1  0  0  0  0
 15 19  1  0  0  0  0
 16 20  1  0  0  0  0
 16 15  2  0  0  0  0
 17 13  1  0  0  0  0
 21 23  2  0  0  0  0
 21 11  1  0  0  0  0
 22 21  2  0  0  0  0
 24 21  1  0  0  0  0
 24 25  1  0  0  0  0
 26 24  1  0  0  0  0
 26 25  1  0  0  0  0
 27 32  1  0  0  0  0
 28 29  1  0  0  0  0
 28 27  2  0  0  0  0
 29 30  2  0  0  0  0
 30 31  1  0  0  0  0
 31 35  1  0  0  0  0
 32 31  2  0  0  0  0
 33 27  1  0  0  0  0
 34 28  1  0  0  0  0
M  END
>  <minimizedAffinity>
-5.40975809

$$$$

 OpenBabel03252509103D

 35 38  0  0  0  0  0  0  0  0999 V2000
   35.6560   25.1810   37.3370 Cl  0  0  0  0  0  0  0  0  0  0  0  0
   36.2000   25.2380   38.9930 C   0  0  0  0  0  0  0  0  0  0  0  0
   36.7540   26.3520   39.5180 C   0  0  0  0  0  0  0  0  0  0  0  0
   37.1640   26.2990   40.8380 C   0  0  0  0  0  0  0  0  0  0  0  0
   37.0240   25.1690   41.6030 C   0  0  0  0  0  0  0  0  0  0  0  0
   36.4650   24.0550   41.0640 C   0  0  0  0  0  0  0  0  0  0  0  0
   36.0510   24.0960   39.7480 C   0  0  0  0  0  0  0  0  0  0  0  0
   37.3620   25.1790   42.6270 H   0  0  0  0  0  0  0  0  0  0  0  0
   36.3380   23.1530   41.6300 H   0  0  0  0  0  0  0  0  0  0  0  0
   35.6040   23.2050   39.3230 H   0  0  0  0  0  0  0  0  0  0  0  0
   39.0850   27.6750   41.6590 C   0  0  0  0  0  0  0  0  0  0  0  0
   37.7520   27.4890   41.4490 C   0  0  0  0  0  0  0  0  0  0  0  0
   36.8680   28.4820   41.8270 C   0  0  0  0  0  0  0  0  0  0  0  0
   37.3310   29.6400   42.4070 C   0  0  0  0  0  0  0  0  0  0  0  0
   38.6850   29.8500   42.6290 C   0  0  0  0  0  0  0  0  0  0  0  0
   39.5670   28.8450   42.2450 C   0  0  0  0  0  0  0  0  0  0  0  0
   35.8110   28.3660   41.6760 H   0  0  0  0  0  0  0  0  0  0  0  0
   36.6200   30.3930   42.6900 H   0  0  0  0  0  0  0  0  0  0  0  0
   39.0440   30.7490   43.0770 H   0  0  0  0  0  0  0  0  0  0  0  0
   40.6060   29.0250   42.4240 H   0  0  0  0  0  0  0  0  0  0  0  0
   40.2150   26.5240   41.1880 S   0  0  0  0  0  0  0  0  0  0  0  0
   40.0150   26.0160   39.7830 O   0  0  0  0  0  0  0  0  0  0  0  0
   41.5580   27.3110   41.0930 O   0  0  0  0  0  0  0  0  0  0  0  0
   40.7350   25.1800   42.1030 C   0  0  0  0  0  3  0  0  0  0  0  0
   40.5800   25.4540   43.6220 C   0  0  0  0  0  2  0  0  0  0  0  0
   39.8980   24.3320   43.0040 C   0  0  0  0  0  2  0  0  0  0  0  0
   36.0380   29.6060   37.7190 C   0  0  0  0  0  0  0  0  0  0  0  0
   35.8890   28.4760   38.5320 C   0  0  0  0  0  0  0  0  0  0  0  0
   36.9010   27.5320   38.6730 C   0  0  0  0  0  0  0  0  0  0  0  0
   38.0120   27.7890   37.9770 N   0  0  0  0  0  0  0  0  0  0  0  0
   38.1650   28.8650   37.1980 C   0  0  0  0  0  0  0  0  0  0  0  0
   37.1870   29.7650   37.0700 N   0  0  0  0  0  0  0  0  0  0  0  0
   35.1960   30.2910   37.6680 H   0  0  0  0  0  0  0  0  0  0  0  0
   34.9620   28.3200   39.0740 H   0  0  0  0  0  0  0  0  0  0  0  0
   39.0790   29.0570   36.6390 H   0  0  0  0  0  0  0  0  0  0  0  0
  1  2  1  0  0  0  0
  2  3  2  0  0  0  0
  2  7  1  0  0  0  0
  3  4  1  0  0  0  0
  4 12  1  0  0  0  0
  4  5  2  0  0  0  0
  5  8  1  0  0  0  0
  6  5  1  0  0  0  0
  6  9  1  0  0  0  0
  7  6  2  0  0  0  0
 10  7  1  0  0  0  0
 11 16  1  0  0  0  0
 12 11  2  0  0  0  0
 12 13  1  0  0  0  0
 13 14  2  0  0  0  0
 14 15  1  0  0  0  0
 14 18  1  0  0  0  0
 15 19  1  0  0  0  0
 16 20  1  0  0  0  0
 16 15  2  0  0  0  0
 17 13  1  0  0  0  0
 21 11  1  0  0  0  0
 21 24  1  0  0  0  0
 22 21  2  0  0  0  0
 23 21  2  0  0  0  0
 24 26  1  0  0  0  0
 24 25  1  0  0  0  0
 26 25  1  0  0  0  0
 27 28  1  0  0  0  0
 28 29  2  0  0  0  0
 28 34  1  0  0  0  0
 29  3  1  0  0  0  0
 30 29  1  0  0  0  0
 31 30  2  0  0  0  0
 32 31  1  0  0  0  0
 32 27  2  0  0  0  0
 33 27  1  0  0  0  0
 35 31  1  0  0  0  0
M  END
>  <minimizedAffinity>
-5.40342331

$$$$

 OpenBabel03252509103D

 35 38  0  0  0  0  0  0  0  0999 V2000
   41.0470   31.9980   39.0050 Cl  0  0  0  0  0  0  0  0  0  0  0  0
   39.4180   31.6190   39.4960 C   0  0  0  0  0  0  0  0  0  0  0  0
   39.1410   30.5450   40.2670 C   0  0  0  0  0  0  0  0  0  0  0  0
   37.8170   30.3210   40.5970 C   0  0  0  0  0  0  0  0  0  0  0  0
   36.8060   31.1430   40.1690 C   0  0  0  0  0  0  0  0  0  0  0  0
   37.0960   32.2200   39.3950 C   0  0  0  0  0  0  0  0  0  0  0  0
   38.4140   32.4550   39.0590 C   0  0  0  0  0  0  0  0  0  0  0  0
   35.7890   30.9230   40.4530 H   0  0  0  0  0  0  0  0  0  0  0  0
   36.3340   32.8870   39.0410 H   0  0  0  0  0  0  0  0  0  0  0  0
   38.6410   33.3170   38.4420 H   0  0  0  0  0  0  0  0  0  0  0  0
   37.0140   27.9840   40.9870 C   0  0  0  0  0  0  0  0  0  0  0  0
   37.4790   29.1790   41.4450 C   0  0  0  0  0  0  0  0  0  0  0  0
   37.6570   29.3540   42.8050 C   0  0  0  0  0  0  0  0  0  0  0  0
   37.3680   28.3330   43.6800 C   0  0  0  0  0  0  0  0  0  0  0  0
   36.8950   27.1060   43.2330 C   0  0  0  0  0  0  0  0  0  0  0  0
   36.7190   26.9400   41.8640 C   0  0  0  0  0  0  0  0  0  0  0  0
   38.0200   30.2840   43.1980 H   0  0  0  0  0  0  0  0  0  0  0  0
   37.5150   28.4990   44.7290 H   0  0  0  0  0  0  0  0  0  0  0  0
   36.6720   26.3140   43.9120 H   0  0  0  0  0  0  0  0  0  0  0  0
   36.3540   25.9880   41.5390 H   0  0  0  0  0  0  0  0  0  0  0  0
   36.8120   27.6930   39.3440 S   0  0  0  0  0  0  0  0  0  0  0  0
   37.9270   28.2410   38.4890 O   0  0  0  0  0  0  0  0  0  0  0  0
   36.9770   26.1500   39.1970 O   0  0  0  0  0  0  0  0  0  0  0  0
   35.3790   27.9160   38.4430 C   0  0  0  0  0  3  0  0  0  0  0  0
   34.4660   28.9760   39.1160 C   0  0  0  0  0  2  0  0  0  0  0  0
   34.9380   29.1680   37.7570 C   0  0  0  0  0  2  0  0  0  0  0  0
   42.0050   29.0820   42.2660 C   0  0  0  0  0  0  0  0  0  0  0  0
   40.9540   29.9150   41.8640 C   0  0  0  0  0  0  0  0  0  0  0  0
   40.2380   29.6840   40.6940 C   0  0  0  0  0  0  0  0  0  0  0  0
   40.6320   28.6150   39.9950 N   0  0  0  0  0  0  0  0  0  0  0  0
   41.6340   27.8130   40.3700 C   0  0  0  0  0  0  0  0  0  0  0  0
   42.3140   28.0450   41.4950 N   0  0  0  0  0  0  0  0  0  0  0  0
   42.5090   29.3380   43.1940 H   0  0  0  0  0  0  0  0  0  0  0  0
   40.6780   30.7690   42.4730 H   0  0  0  0  0  0  0  0  0  0  0  0
   41.9400   26.9470   39.7860 H   0  0  0  0  0  0  0  0  0  0  0  0
  1  2  1  0  0  0  0
  2  3  1  0  0  0  0
  3  4  2  0  0  0  0
  3 29  1  0  0  0  0
  4 12  1  0  0  0  0
  5  8  1  0  0  0  0
  5  4  1  0  0  0  0
  6  5  2  0  0  0  0
  7  6  1  0  0  0  0
  7  2  2  0  0  0  0
  9  6  1  0  0  0  0
 10  7  1  0  0  0  0
 11 12  2  0  0  0  0
 11 16  1  0  0  0  0
 12 13  1  0  0  0  0
 13 17  1  0  0  0  0
 13 14  2  0  0  0  0
 14 18  1  0  0  0  0
 15 14  1  0  0  0  0
 15 19  1  0  0  0  0
 16 15  2  0  0  0  0
 20 16  1  0  0  0  0
 21 11  1  0  0  0  0
 22 21  2  0  0  0  0
 23 21  2  0  0  0  0
 24 25  1  0  0  0  0
 24 21  1  0  0  0  0
 26 24  1  0  0  0  0
 26 25  1  0  0  0  0
 27 33  1  0  0  0  0
 28 27  1  0  0  0  0
 28 34  1  0  0  0  0
 29 28  2  0  0  0  0
 30 31  2  0  0  0  0
 30 29  1  0  0  0  0
 31 32  1  0  0  0  0
 32 27  2  0  0  0  0
 35 31  1  0  0  0  0
M  END
>  <minimizedAffinity>
-5.26913404

$$$$

 OpenBabel03252509103D

 35 38  0  0  0  0  0  0  0  0999 V2000
   38.0310   24.7790   41.2150 Cl  0  0  0  0  0  0  0  0  0  0  0  0
   37.8680   26.3280   41.9990 C   0  0  0  0  0  0  0  0  0  0  0  0
   38.6350   27.3830   41.6500 C   0  0  0  0  0  0  0  0  0  0  0  0
   38.4390   28.5690   42.3350 C   0  0  0  0  0  0  0  0  0  0  0  0
   37.5080   28.6910   43.3360 C   0  0  0  0  0  0  0  0  0  0  0  0
   36.7430   27.6240   43.6780 C   0  0  0  0  0  0  0  0  0  0  0  0
   36.9280   26.4350   43.0000 C   0  0  0  0  0  0  0  0  0  0  0  0
   37.3970   29.6380   43.8410 H   0  0  0  0  0  0  0  0  0  0  0  0
   36.0050   27.6790   44.4530 H   0  0  0  0  0  0  0  0  0  0  0  0
   36.3140   25.5860   43.2770 H   0  0  0  0  0  0  0  0  0  0  0  0
   38.8340   30.7170   41.1160 C   0  0  0  0  0  0  0  0  0  0  0  0
   39.2370   29.7390   41.9740 C   0  0  0  0  0  0  0  0  0  0  0  0
   40.4830   29.8340   42.5640 C   0  0  0  0  0  0  0  0  0  0  0  0
   41.3030   30.9040   42.2870 C   0  0  0  0  0  0  0  0  0  0  0  0
   40.9110   31.9120   41.4170 C   0  0  0  0  0  0  0  0  0  0  0  0
   39.6560   31.8070   40.8270 C   0  0  0  0  0  0  0  0  0  0  0  0
   40.8310   29.0800   43.2440 H   0  0  0  0  0  0  0  0  0  0  0  0
   42.2650   30.9500   42.7600 H   0  0  0  0  0  0  0  0  0  0  0  0
   41.5460   32.7420   41.2030 H   0  0  0  0  0  0  0  0  0  0  0  0
   39.3720   32.5930   40.1600 H   0  0  0  0  0  0  0  0  0  0  0  0
   37.3170   30.6800   40.3940 S   0  0  0  0  0  0  0  0  0  0  0  0
   36.1990   31.1140   41.3090 O   0  0  0  0  0  0  0  0  0  0  0  0
   37.3640   31.8170   39.3290 O   0  0  0  0  0  0  0  0  0  0  0  0
   36.6780   29.4180   39.4400 C   0  0  0  0  0  3  0  0  0  0  0  0
   35.5190   28.7010   40.1810 C   0  0  0  0  0  2  0  0  0  0  0  0
   35.2920   29.3240   38.8900 C   0  0  0  0  0  2  0  0  0  0  0  0
   41.8550   26.5970   39.8200 C   0  0  0  0  0  0  0  0  0  0  0  0
   40.9120   26.7540   40.8430 C   0  0  0  0  0  0  0  0  0  0  0  0
   39.6240   27.2160   40.5910 C   0  0  0  0  0  0  0  0  0  0  0  0
   39.3650   27.4930   39.3100 N   0  0  0  0  0  0  0  0  0  0  0  0
   40.2580   27.3450   38.3260 C   0  0  0  0  0  0  0  0  0  0  0  0
   41.4920   26.9010   38.5780 N   0  0  0  0  0  0  0  0  0  0  0  0
   42.8370   26.2300   40.1070 H   0  0  0  0  0  0  0  0  0  0  0  0
   41.1800   26.5130   41.8660 H   0  0  0  0  0  0  0  0  0  0  0  0
   40.0270   27.5760   37.2880 H   0  0  0  0  0  0  0  0  0  0  0  0
  1  2  1  0  0  0  0
  2  7  1  0  0  0  0
  3  2  2  0  0  0  0
  3  4  1  0  0  0  0
  4  5  2  0  0  0  0
  5  6  1  0  0  0  0
  5  8  1  0  0  0  0
  6  9  1  0  0  0  0
  7 10  1  0  0  0  0
  7  6  2  0  0  0  0
 11 12  1  0  0  0  0
 12  4  1  0  0  0  0
 12 13  2  0  0  0  0
 13 17  1  0  0  0  0
 14 13  1  0  0  0  0
 14 18  1  0  0  0  0
 15 14  2  0  0  0  0
 16 11  2  0  0  0  0
 16 15  1  0  0  0  0
 19 15  1  0  0  0  0
 20 16  1  0  0  0  0
 21 11  1  0  0  0  0
 21 22  2  0  0  0  0
 23 21  2  0  0  0  0
 24 25  1  0  0  0  0
 24 21  1  0  0  0  0
 26 24  1  0  0  0  0
 26 25  1  0  0  0  0
 27 33  1  0  0  0  0
 27 28  1  0  0  0  0
 28 34  1  0  0  0  0
 29 28  2  0  0  0  0
 29  3  1  0  0  0  0
 30 29  1  0  0  0  0
 31 32  1  0  0  0  0
 31 30  2  0  0  0  0
 32 27  2  0  0  0  0
 35 31  1  0  0  0  0
M  END
>  <minimizedAffinity>
-5.24782038

$$$$

 OpenBabel03252509103D

 35 38  0  0  0  0  0  0  0  0999 V2000
   35.4640   29.2280   36.9560 Cl  0  0  0  0  0  0  0  0  0  0  0  0
   35.8430   27.8570   37.9650 C   0  0  0  0  0  0  0  0  0  0  0  0
   36.5180   27.9970   39.1260 C   0  0  0  0  0  0  0  0  0  0  0  0
   36.7800   26.8510   39.8540 C   0  0  0  0  0  0  0  0  0  0  0  0
   36.3810   25.6070   39.4310 C   0  0  0  0  0  0  0  0  0  0  0  0
   35.7030   25.4790   38.2620 C   0  0  0  0  0  0  0  0  0  0  0  0
   35.4340   26.6170   37.5280 C   0  0  0  0  0  0  0  0  0  0  0  0
   36.6120   24.7440   40.0350 H   0  0  0  0  0  0  0  0  0  0  0  0
   35.3730   24.5270   37.8980 H   0  0  0  0  0  0  0  0  0  0  0  0
   34.8910   26.5100   36.5950 H   0  0  0  0  0  0  0  0  0  0  0  0
   38.8170   26.6970   41.2980 C   0  0  0  0  0  0  0  0  0  0  0  0
   37.4920   26.9620   41.1250 C   0  0  0  0  0  0  0  0  0  0  0  0
   36.7420   27.3700   42.2120 C   0  0  0  0  0  0  0  0  0  0  0  0
   37.3280   27.5060   43.4490 C   0  0  0  0  0  0  0  0  0  0  0  0
   38.6770   27.2430   43.6460 C   0  0  0  0  0  0  0  0  0  0  0  0
   39.4230   26.8320   42.5460 C   0  0  0  0  0  0  0  0  0  0  0  0
   35.6950   27.5850   42.1100 H   0  0  0  0  0  0  0  0  0  0  0  0
   36.7200   27.8240   44.2740 H   0  0  0  0  0  0  0  0  0  0  0  0
   39.1320   27.3500   44.6040 H   0  0  0  0  0  0  0  0  0  0  0  0
   40.4610   26.6340   42.7180 H   0  0  0  0  0  0  0  0  0  0  0  0
   39.7930   26.2330   40.0110 S   0  0  0  0  0  0  0  0  0  0  0  0
   39.5220   26.9960   38.7380 O   0  0  0  0  0  0  0  0  0  0  0  0
   41.2220   26.7110   40.4120 O   0  0  0  0  0  0  0  0  0  0  0  0
   40.1490   24.6340   39.5320 C   0  0  0  0  0  3  0  0  0  0  0  0
   39.0870   23.6460   40.0840 C   0  0  0  0  0  2  0  0  0  0  0  0
   39.3170   23.7560   38.6550 C   0  0  0  0  0  2  0  0  0  0  0  0
   36.5340   31.4510   40.6790 C   0  0  0  0  0  0  0  0  0  0  0  0
   36.1210   30.1720   40.2870 C   0  0  0  0  0  0  0  0  0  0  0  0
   36.9400   29.3300   39.5400 C   0  0  0  0  0  0  0  0  0  0  0  0
   38.1370   29.8380   39.2330 N   0  0  0  0  0  0  0  0  0  0  0  0
   38.5420   31.0570   39.6040 C   0  0  0  0  0  0  0  0  0  0  0  0
   37.7480   31.8560   40.3200 N   0  0  0  0  0  0  0  0  0  0  0  0
   35.8300   32.0400   41.2610 H   0  0  0  0  0  0  0  0  0  0  0  0
   35.1360   29.8130   40.5650 H   0  0  0  0  0  0  0  0  0  0  0  0
   39.5220   31.4520   39.3440 H   0  0  0  0  0  0  0  0  0  0  0  0
  1  2  1  0  0  0  0
  2  3  1  0  0  0  0
  3 29  1  0  0  0  0
  3  4  2  0  0  0  0
  4 12  1  0  0  0  0
  5  4  1  0  0  0  0
  5  8  1  0  0  0  0
  6  5  2  0  0  0  0
  7  2  2  0  0  0  0
  7  6  1  0  0  0  0
  9  6  1  0  0  0  0
 10  7  1  0  0  0  0
 11 16  1  0  0  0  0
 12 11  2  0  0  0  0
 12 13  1  0  0  0  0
 13 14  2  0  0  0  0
 14 15  1  0  0  0  0
 14 18  1  0  0  0  0
 15 19  1  0  0  0  0
 16 20  1  0  0  0  0
 16 15  2  0  0  0  0
 17 13  1  0  0  0  0
 21 23  2  0  0  0  0
 21 11  1  0  0  0  0
 22 21  2  0  0  0  0
 24 21  1  0  0  0  0
 24 25  1  0  0  0  0
 26 24  1  0  0  0  0
 26 25  1  0  0  0  0
 27 33  1  0  0  0  0
 28 34  1  0  0  0  0
 28 27  2  0  0  0  0
 29 28  1  0  0  0  0
 30 29  2  0  0  0  0
 30 31  1  0  0  0  0
 31 32  2  0  0  0  0
 32 27  1  0  0  0  0
 35 31  1  0  0  0  0
M  END
>  <minimizedAffinity>
-5.19706726

$$$$

 OpenBabel03252509103D

 35 38  0  0  0  0  0  0  0  0999 V2000
   35.1520   28.8870   37.2710 Cl  0  0  0  0  0  0  0  0  0  0  0  0
   35.7510   27.5520   38.2180 C   0  0  0  0  0  0  0  0  0  0  0  0
   36.4830   27.7480   39.3360 C   0  0  0  0  0  0  0  0  0  0  0  0
   36.9220   26.6270   40.0170 C   0  0  0  0  0  0  0  0  0  0  0  0
   36.6380   25.3540   39.5910 C   0  0  0  0  0  0  0  0  0  0  0  0
   35.9010   25.1690   38.4660 C   0  0  0  0  0  0  0  0  0  0  0  0
   35.4560   26.2800   37.7790 C   0  0  0  0  0  0  0  0  0  0  0  0
   37.0060   24.5130   40.1570 H   0  0  0  0  0  0  0  0  0  0  0  0
   35.6570   24.1900   38.1020 H   0  0  0  0  0  0  0  0  0  0  0  0
   34.8660   26.1270   36.8820 H   0  0  0  0  0  0  0  0  0  0  0  0
   39.0430   26.5850   41.3420 C   0  0  0  0  0  0  0  0  0  0  0  0
   37.7020   26.7980   41.2410 C   0  0  0  0  0  0  0  0  0  0  0  0
   37.0010   27.2080   42.3600 C   0  0  0  0  0  0  0  0  0  0  0  0
   37.6520   27.3990   43.5560 C   0  0  0  0  0  0  0  0  0  0  0  0
   39.0190   27.1890   43.6800 C   0  0  0  0  0  0  0  0  0  0  0  0
   39.7150   26.7760   42.5490 C   0  0  0  0  0  0  0  0  0  0  0  0
   35.9430   27.3830   42.3140 H   0  0  0  0  0  0  0  0  0  0  0  0
   37.0810   27.7170   44.4070 H   0  0  0  0  0  0  0  0  0  0  0  0
   39.5250   27.3380   44.6070 H   0  0  0  0  0  0  0  0  0  0  0  0
   40.7680   26.6200   42.6640 H   0  0  0  0  0  0  0  0  0  0  0  0
   39.9600   26.1230   40.0110 S   0  0  0  0  0  0  0  0  0  0  0  0
   39.5630   24.7870   39.4350 O   0  0  0  0  0  0  0  0  0  0  0  0
   39.5550   27.1260   38.8900 O   0  0  0  0  0  0  0  0  0  0  0  0
   41.6590   26.2060   39.8720 C   0  0  0  0  0  3  0  0  0  0  0  0
   42.3420   25.2830   40.9160 C   0  0  0  0  0  2  0  0  0  0  0  0
   42.5830   25.0930   39.4980 C   0  0  0  0  0  2  0  0  0  0  0  0
   36.1950   31.1690   40.9340 C   0  0  0  0  0  0  0  0  0  0  0  0
   35.9030   29.8590   40.5380 C   0  0  0  0  0  0  0  0  0  0  0  0
   36.7780   29.1140   39.7530 C   0  0  0  0  0  0  0  0  0  0  0  0
   37.9060   29.7460   39.4140 N   0  0  0  0  0  0  0  0  0  0  0  0
   38.1940   30.9970   39.7870 C   0  0  0  0  0  0  0  0  0  0  0  0
   37.3470   31.7020   40.5400 N   0  0  0  0  0  0  0  0  0  0  0  0
   35.4540   31.6760   41.5470 H   0  0  0  0  0  0  0  0  0  0  0  0
   34.9700   29.3960   40.8450 H   0  0  0  0  0  0  0  0  0  0  0  0
   39.1190   31.4940   39.5000 H   0  0  0  0  0  0  0  0  0  0  0  0
  1  2  1  0  0  0  0
  2  3  1  0  0  0  0
  3 29  1  0  0  0  0
  3  4  2  0  0  0  0
  4 12  1  0  0  0  0
  5  4  1  0  0  0  0
  5  8  1  0  0  0  0
  6  5  2  0  0  0  0
  7  2  2  0  0  0  0
  7  6  1  0  0  0  0
  9  6  1  0  0  0  0
 10  7  1  0  0  0  0
 11 16  1  0  0  0  0
 12 11  2  0  0  0  0
 12 13  1  0  0  0  0
 13 14  2  0  0  0  0
 14 15  1  0  0  0  0
 14 18  1  0  0  0  0
 15 19  1  0  0  0  0
 16 20  1  0  0  0  0
 16 15  2  0  0  0  0
 17 13  1  0  0  0  0
 21 11  1  0  0  0  0
 22 21  2  0  0  0  0
 23 21  2  0  0  0  0
 24 21  1  0  0  0  0
 24 25  1  0  0  0  0
 26 24  1  0  0  0  0
 26 25  1  0  0  0  0
 27 33  1  0  0  0  0
 28 34  1  0  0  0  0
 28 27  2  0  0  0  0
 29 28  1  0  0  0  0
 30 29  2  0  0  0  0
 30 31  1  0  0  0  0
 31 32  2  0  0  0  0
 32 27  1  0  0  0  0
 35 31  1  0  0  0  0
M  END
>  <minimizedAffinity>
-5.19631529

$$$$

 OpenBabel03252509103D

 35 38  0  0  0  0  0  0  0  0999 V2000
   39.6600   31.3100   39.4390 Cl  0  0  0  0  0  0  0  0  0  0  0  0
   38.2260   30.4620   39.9530 C   0  0  0  0  0  0  0  0  0  0  0  0
   37.9850   29.1860   39.5810 C   0  0  0  0  0  0  0  0  0  0  0  0
   36.8160   28.6000   40.0310 C   0  0  0  0  0  0  0  0  0  0  0  0
   35.9200   29.2690   40.8260 C   0  0  0  0  0  0  0  0  0  0  0  0
   36.1730   30.5510   41.1940 C   0  0  0  0  0  0  0  0  0  0  0  0
   37.3370   31.1470   40.7510 C   0  0  0  0  0  0  0  0  0  0  0  0
   35.0210   28.7670   41.1480 H   0  0  0  0  0  0  0  0  0  0  0  0
   35.4980   31.1070   41.8140 H   0  0  0  0  0  0  0  0  0  0  0  0
   37.5350   32.1700   41.0500 H   0  0  0  0  0  0  0  0  0  0  0  0
   36.8400   26.1300   40.4270 C   0  0  0  0  0  0  0  0  0  0  0  0
   36.5280   27.2150   39.6650 C   0  0  0  0  0  0  0  0  0  0  0  0
   35.8900   27.0230   38.4530 C   0  0  0  0  0  0  0  0  0  0  0  0
   35.5760   25.7540   38.0270 C   0  0  0  0  0  0  0  0  0  0  0  0
   35.8830   24.6350   38.7900 C   0  0  0  0  0  0  0  0  0  0  0  0
   36.5250   24.8380   40.0070 C   0  0  0  0  0  0  0  0  0  0  0  0
   35.6330   27.8570   37.8280 H   0  0  0  0  0  0  0  0  0  0  0  0
   35.0810   25.6370   37.0820 H   0  0  0  0  0  0  0  0  0  0  0  0
   35.6370   23.6510   38.4600 H   0  0  0  0  0  0  0  0  0  0  0  0
   36.7530   23.9640   40.5800 H   0  0  0  0  0  0  0  0  0  0  0  0
   37.5810   26.2960   41.9260 S   0  0  0  0  0  0  0  0  0  0  0  0
   36.6580   26.7990   43.0070 O   0  0  0  0  0  0  0  0  0  0  0  0
   37.8870   24.8350   42.3750 O   0  0  0  0  0  0  0  0  0  0  0  0
   39.0980   27.0150   42.2340 C   0  0  0  0  0  3  0  0  0  0  0  0
   38.9290   28.3380   43.0270 C   0  0  0  0  0  2  0  0  0  0  0  0
   39.7220   27.2520   43.5700 C   0  0  0  0  0  2  0  0  0  0  0  0
   39.7820   27.8600   36.5230 C   0  0  0  0  0  0  0  0  0  0  0  0
   38.8500   28.5140   37.3370 C   0  0  0  0  0  0  0  0  0  0  0  0
   38.9510   28.5080   38.7250 C   0  0  0  0  0  0  0  0  0  0  0  0
   39.9990   27.8340   39.2090 N   0  0  0  0  0  0  0  0  0  0  0  0
   40.8950   27.2060   38.4410 C   0  0  0  0  0  0  0  0  0  0  0  0
   40.7880   27.2190   37.1100 N   0  0  0  0  0  0  0  0  0  0  0  0
   39.6250   27.9160   35.4490 H   0  0  0  0  0  0  0  0  0  0  0  0
   38.0180   29.0450   36.8860 H   0  0  0  0  0  0  0  0  0  0  0  0
   41.7420   26.6640   38.8560 H   0  0  0  0  0  0  0  0  0  0  0  0
  1  2  1  0  0  0  0
  2  7  1  0  0  0  0
  3  2  2  0  0  0  0
  3  4  1  0  0  0  0
  4  5  2  0  0  0  0
  5  8  1  0  0  0  0
  5  6  1  0  0  0  0
  6  9  1  0  0  0  0
  7 10  1  0  0  0  0
  7  6  2  0  0  0  0
 11 21  1  0  0  0  0
 12  4  1  0  0  0  0
 12 11  2  0  0  0  0
 13 12  1  0  0  0  0
 14 13  2  0  0  0  0
 14 15  1  0  0  0  0
 15 16  2  0  0  0  0
 16 11  1  0  0  0  0
 16 20  1  0  0  0  0
 17 13  1  0  0  0  0
 18 14  1  0  0  0  0
 19 15  1  0  0  0  0
 21 24  1  0  0  0  0
 21 23  2  0  0  0  0
 21 22  2  0  0  0  0
 24 25  1  0  0  0  0
 24 26  1  0  0  0  0
 25 26  1  0  0  0  0
 27 32  2  0  0  0  0
 27 28  1  0  0  0  0
 28 29  2  0  0  0  0
 29 30  1  0  0  0  0
 29  3  1  0  0  0  0
 31 35  1  0  0  0  0
 31 30  2  0  0  0  0
 32 31  1  0  0  0  0
 33 27  1  0  0  0  0
 34 28  1  0  0  0  0
M  END
>  <minimizedAffinity>
-5.13278866

$$$$
