
 OpenBabel03252508503D

 22 24  0  0  0  0  0  0  0  0999 V2000
   45.7810   34.2320   41.0340 C   0  0  0  0  0  0  0  0  0  0  0  0
   46.4180   34.7990   42.1330 C   0  0  0  0  0  0  0  0  0  0  0  0
   47.7910   35.0710   42.0110 C   0  0  0  0  0  0  0  0  0  0  0  0
   48.4050   34.7660   40.8300 N   0  0  0  0  0  0  0  0  0  0  0  0
   47.7360   34.2190   39.7980 C   0  0  0  0  0  0  0  0  0  0  0  0
   46.4180   33.9430   39.8820 N   0  0  0  0  0  0  0  0  0  0  0  0
   48.3030   35.5130   42.8580 H   0  0  0  0  0  0  0  0  0  0  0  0
   48.2760   33.9950   38.8770 H   0  0  0  0  0  0  0  0  0  0  0  0
   45.6720   35.0850   43.3460 C   0  0  0  0  0  0  0  0  0  0  0  0
   45.0800   36.3060   43.5950 C   0  0  0  0  0  0  0  0  0  0  0  0
   44.4930   36.1400   44.8300 C   0  0  0  0  0  0  0  0  0  0  0  0
   44.7120   34.8940   45.3060 N   0  0  0  0  0  0  0  0  0  0  0  0
   45.4250   34.2790   44.3930 N   0  0  0  0  0  0  0  0  0  0  0  0
   45.0780   37.1910   42.9640 H   0  0  0  0  0  0  0  0  0  0  0  0
   43.9260   36.9320   45.3380 H   0  0  0  0  0  0  0  0  0  0  0  0
   44.3750   34.5000   46.2280 H   0  0  0  0  0  0  0  0  0  0  0  0
   44.4240   33.9580   41.1440 O   0  0  0  0  0  0  0  0  0  0  0  0
   43.4060   34.7090   40.6220 C   0  0  0  0  0  0  0  0  0  0  0  0
   42.7250   35.6240   41.1870 O   0  0  0  0  0  0  0  0  0  0  0  0
   42.6990   34.7930   39.2870 C   0  0  0  0  0  3  0  0  0  0  0  0
   42.0520   33.5500   38.7380 C   0  0  0  0  0  2  0  0  0  0  0  0
   41.2410   34.7130   39.2180 C   0  0  0  0  0  2  0  0  0  0  0  0
  1 17  1  0  0  0  0
  1  2  1  0  0  0  0
  2  9  1  0  0  0  0
  3  2  2  0  0  0  0
  3  7  1  0  0  0  0
  4  3  1  0  0  0  0
  5  6  1  0  0  0  0
  5  4  2  0  0  0  0
  6  1  2  0  0  0  0
  8  5  1  0  0  0  0
  9 10  1  0  0  0  0
  9 13  2  0  0  0  0
 10 11  2  0  0  0  0
 11 12  1  0  0  0  0
 11 15  1  0  0  0  0
 12 16  1  0  0  0  0
 13 12  1  0  0  0  0
 14 10  1  0  0  0  0
 18 17  1  0  0  0  0
 18 19  2  0  0  0  0
 20 18  1  0  0  0  0
 21 22  1  0  0  0  0
 21 20  1  0  0  0  0
 22 20  1  0  0  0  0
M  END
>  <minimizedAffinity>
-4.78811312

>  <minimizedRMSD>
0.768272221

$$$$
