
 OpenBabel03252508503D

 22 24  0  0  0  0  0  0  0  0999 V2000
   45.9750   34.2000   41.0330 C   0  0  0  0  0  0  0  0  0  0  0  0
   46.5520   34.8130   42.1410 C   0  0  0  0  0  0  0  0  0  0  0  0
   47.9050   35.1790   42.0410 C   0  0  0  0  0  0  0  0  0  0  0  0
   48.5600   34.9120   40.8730 N   0  0  0  0  0  0  0  0  0  0  0  0
   47.9480   34.3160   39.8320 C   0  0  0  0  0  0  0  0  0  0  0  0
   46.6510   33.9510   39.8940 N   0  0  0  0  0  0  0  0  0  0  0  0
   48.3700   35.6570   42.8950 H   0  0  0  0  0  0  0  0  0  0  0  0
   48.5190   34.1260   38.9210 H   0  0  0  0  0  0  0  0  0  0  0  0
   45.7660   35.0520   43.3390 C   0  0  0  0  0  0  0  0  0  0  0  0
   45.0720   36.2230   43.5620 C   0  0  0  0  0  0  0  0  0  0  0  0
   44.4820   36.0250   44.7900 C   0  0  0  0  0  0  0  0  0  0  0  0
   44.7960   34.8080   45.2880 N   0  0  0  0  0  0  0  0  0  0  0  0
   45.5710   34.2420   44.3930 N   0  0  0  0  0  0  0  0  0  0  0  0
   45.0080   37.0970   42.9190 H   0  0  0  0  0  0  0  0  0  0  0  0
   43.8450   36.7740   45.2800 H   0  0  0  0  0  0  0  0  0  0  0  0
   44.4790   34.3990   46.2100 H   0  0  0  0  0  0  0  0  0  0  0  0
   44.6380   33.8340   41.1200 O   0  0  0  0  0  0  0  0  0  0  0  0
   43.5870   34.4750   40.5220 C   0  0  0  0  0  0  0  0  0  0  0  0
   43.1570   35.6540   40.7280 O   0  0  0  0  0  0  0  0  0  0  0  0
   42.5680   34.1210   39.4610 C   0  0  0  0  0  3  0  0  0  0  0  0
   41.5820   33.0220   39.7510 C   0  0  0  0  0  2  0  0  0  0  0  0
   41.1580   34.4540   39.6510 C   0  0  0  0  0  2  0  0  0  0  0  0
  1 17  1  0  0  0  0
  1  2  1  0  0  0  0
  2  9  1  0  0  0  0
  3  2  2  0  0  0  0
  3  7  1  0  0  0  0
  4  3  1  0  0  0  0
  5  6  1  0  0  0  0
  5  4  2  0  0  0  0
  6  1  2  0  0  0  0
  8  5  1  0  0  0  0
  9 10  1  0  0  0  0
  9 13  2  0  0  0  0
 10 11  2  0  0  0  0
 11 15  1  0  0  0  0
 11 12  1  0  0  0  0
 12 16  1  0  0  0  0
 13 12  1  0  0  0  0
 14 10  1  0  0  0  0
 18 19  2  0  0  0  0
 18 17  1  0  0  0  0
 20 22  1  0  0  0  0
 20 21  1  0  0  0  0
 20 18  1  0  0  0  0
 22 21  1  0  0  0  0
M  END
>  <minimizedAffinity>
-4.72996283

>  <minimizedRMSD>
0.242089584

$$$$
