
 OpenBabel03242521203D

 20 22  0  0  0  0  0  0  0  0999 V2000
   37.3830   30.7420   40.9250 C   0  0  0  0  0  0  0  0  0  0  0  0
   36.2610   30.5030   40.1890 C   0  0  0  0  0  0  0  0  0  0  0  0
   35.4510   29.4130   40.3720 C   0  0  0  0  0  0  0  0  0  0  0  0
   35.8200   28.5430   41.3500 N   0  0  0  0  0  0  0  0  0  0  0  0
   36.9200   28.7730   42.0730 C   0  0  0  0  0  0  0  0  0  0  0  0
   37.7290   29.8520   41.8990 N   0  0  0  0  0  0  0  0  0  0  0  0
   35.9770   31.2060   39.4110 H   0  0  0  0  0  0  0  0  0  0  0  0
   34.5600   29.2540   39.7650 H   0  0  0  0  0  0  0  0  0  0  0  0
   38.3810   34.1550   40.0610 C   0  0  0  0  0  0  0  0  0  0  0  0
   39.7670   34.1350   40.2670 C   0  0  0  0  0  0  0  0  0  0  0  0
   40.3650   32.9390   40.7060 C   0  0  0  0  0  0  0  0  0  0  0  0
   39.5490   31.8450   40.9110 N   0  0  0  0  0  0  0  0  0  0  0  0
   38.2250   31.9240   40.6970 C   0  0  0  0  0  0  0  0  0  0  0  0
   37.6280   33.0500   40.2790 N   0  0  0  0  0  0  0  0  0  0  0  0
   37.8610   35.0340   39.7270 H   0  0  0  0  0  0  0  0  0  0  0  0
   40.3530   35.0080   40.0940 H   0  0  0  0  0  0  0  0  0  0  0  0
   41.4300   32.8720   40.8790 H   0  0  0  0  0  0  0  0  0  0  0  0
   37.2960   27.7950   43.1420 C   0  0  0  0  0  3  0  0  0  0  0  0
   38.0150   26.5230   42.6450 C   0  0  0  0  0  2  0  0  0  0  0  0
   38.7210   27.5610   43.4630 C   0  0  0  0  0  2  0  0  0  0  0  0
  1  6  1  0  0  0  0
  2  3  1  0  0  0  0
  2  1  2  0  0  0  0
  3  4  2  0  0  0  0
  4  5  1  0  0  0  0
  5 18  1  0  0  0  0
  6  5  2  0  0  0  0
  7  2  1  0  0  0  0
  8  3  1  0  0  0  0
  9 10  2  0  0  0  0
  9 14  1  0  0  0  0
 10 11  1  0  0  0  0
 11 17  1  0  0  0  0
 11 12  2  0  0  0  0
 13 12  1  0  0  0  0
 13  1  1  0  0  0  0
 14 13  2  0  0  0  0
 15  9  1  0  0  0  0
 16 10  1  0  0  0  0
 18 20  1  0  0  0  0
 19 18  1  0  0  0  0
 19 20  1  0  0  0  0
M  END
>  <minimizedAffinity>
-4.65040398

$$$$

 OpenBabel03242521203D

 20 22  0  0  0  0  0  0  0  0999 V2000
   37.4060   30.7160   40.9430 C   0  0  0  0  0  0  0  0  0  0  0  0
   36.2880   30.4740   40.2010 C   0  0  0  0  0  0  0  0  0  0  0  0
   35.4700   29.3930   40.3920 C   0  0  0  0  0  0  0  0  0  0  0  0
   35.8230   28.5340   41.3850 N   0  0  0  0  0  0  0  0  0  0  0  0
   36.9190   28.7660   42.1150 C   0  0  0  0  0  0  0  0  0  0  0  0
   37.7370   29.8370   41.9330 N   0  0  0  0  0  0  0  0  0  0  0  0
   36.0170   31.1680   39.4110 H   0  0  0  0  0  0  0  0  0  0  0  0
   34.5820   29.2310   39.7800 H   0  0  0  0  0  0  0  0  0  0  0  0
   40.3900   32.8190   40.6880 C   0  0  0  0  0  0  0  0  0  0  0  0
   39.8670   34.0510   40.2740 C   0  0  0  0  0  0  0  0  0  0  0  0
   38.4770   34.1610   40.0820 C   0  0  0  0  0  0  0  0  0  0  0  0
   37.7000   33.0430   40.3110 N   0  0  0  0  0  0  0  0  0  0  0  0
   38.2590   31.8880   40.7070 C   0  0  0  0  0  0  0  0  0  0  0  0
   39.5800   31.7530   40.8990 N   0  0  0  0  0  0  0  0  0  0  0  0
   41.4400   32.6650   40.8540 H   0  0  0  0  0  0  0  0  0  0  0  0
   40.5100   34.8840   40.1110 H   0  0  0  0  0  0  0  0  0  0  0  0
   38.0250   35.0910   39.7630 H   0  0  0  0  0  0  0  0  0  0  0  0
   37.2780   27.8000   43.2010 C   0  0  0  0  0  3  0  0  0  0  0  0
   38.0440   26.5440   42.7360 C   0  0  0  0  0  2  0  0  0  0  0  0
   38.6960   27.6010   43.5750 C   0  0  0  0  0  2  0  0  0  0  0  0
  1  6  1  0  0  0  0
  2  3  1  0  0  0  0
  2  1  2  0  0  0  0
  3  4  2  0  0  0  0
  4  5  1  0  0  0  0
  5 18  1  0  0  0  0
  6  5  2  0  0  0  0
  7  2  1  0  0  0  0
  8  3  1  0  0  0  0
  9 15  1  0  0  0  0
  9 14  1  0  0  0  0
 10  9  2  0  0  0  0
 11 10  1  0  0  0  0
 11 12  2  0  0  0  0
 12 13  1  0  0  0  0
 13 14  2  0  0  0  0
 13  1  1  0  0  0  0
 16 10  1  0  0  0  0
 17 11  1  0  0  0  0
 18 20  1  0  0  0  0
 19 18  1  0  0  0  0
 19 20  1  0  0  0  0
M  END
>  <minimizedAffinity>
-4.62361956

$$$$

 OpenBabel03242521203D

 20 22  0  0  0  0  0  0  0  0999 V2000
   37.5240   28.5720   41.6380 C   0  0  0  0  0  0  0  0  0  0  0  0
   36.2360   28.3300   41.2650 C   0  0  0  0  0  0  0  0  0  0  0  0
   35.4250   29.2670   40.6810 C   0  0  0  0  0  0  0  0  0  0  0  0
   35.9700   30.4960   40.4780 N   0  0  0  0  0  0  0  0  0  0  0  0
   37.2330   30.7390   40.8430 C   0  0  0  0  0  0  0  0  0  0  0  0
   38.0450   29.8150   41.4220 N   0  0  0  0  0  0  0  0  0  0  0  0
   35.8130   27.3440   41.4320 H   0  0  0  0  0  0  0  0  0  0  0  0
   34.3990   29.0380   40.3950 H   0  0  0  0  0  0  0  0  0  0  0  0
   40.1350   27.0060   43.6680 C   0  0  0  0  0  0  0  0  0  0  0  0
   39.9320   25.6400   43.4350 C   0  0  0  0  0  0  0  0  0  0  0  0
   38.8890   25.2520   42.5730 C   0  0  0  0  0  0  0  0  0  0  0  0
   38.1190   26.2440   42.0010 N   0  0  0  0  0  0  0  0  0  0  0  0
   38.3610   27.5390   42.2620 C   0  0  0  0  0  0  0  0  0  0  0  0
   39.3480   27.9390   43.0790 N   0  0  0  0  0  0  0  0  0  0  0  0
   40.9120   27.3710   44.3140 H   0  0  0  0  0  0  0  0  0  0  0  0
   40.5550   24.9130   43.9010 H   0  0  0  0  0  0  0  0  0  0  0  0
   38.6920   24.2100   42.3610 H   0  0  0  0  0  0  0  0  0  0  0  0
   37.8010   32.1030   40.6050 C   0  0  0  0  0  3  0  0  0  0  0  0
   38.5370   32.2830   39.2610 C   0  0  0  0  0  2  0  0  0  0  0  0
   37.2340   32.9670   39.5460 C   0  0  0  0  0  2  0  0  0  0  0  0
  1 13  1  0  0  0  0
  2  7  1  0  0  0  0
  2  1  2  0  0  0  0
  3  2  1  0  0  0  0
  4  3  2  0  0  0  0
  4  5  1  0  0  0  0
  5  6  2  0  0  0  0
  6  1  1  0  0  0  0
  8  3  1  0  0  0  0
  9 15  1  0  0  0  0
 10  9  1  0  0  0  0
 10 16  1  0  0  0  0
 11 10  2  0  0  0  0
 12 13  2  0  0  0  0
 12 11  1  0  0  0  0
 13 14  1  0  0  0  0
 14  9  2  0  0  0  0
 17 11  1  0  0  0  0
 18  5  1  0  0  0  0
 19 20  1  0  0  0  0
 19 18  1  0  0  0  0
 20 18  1  0  0  0  0
M  END
>  <minimizedAffinity>
-4.36624336

$$$$

 OpenBabel03242521203D

 20 22  0  0  0  0  0  0  0  0999 V2000
   38.4370   28.7060   42.1000 C   0  0  0  0  0  0  0  0  0  0  0  0
   39.5420   28.5190   42.8780 C   0  0  0  0  0  0  0  0  0  0  0  0
   39.8730   27.3200   43.4500 C   0  0  0  0  0  0  0  0  0  0  0  0
   39.0310   26.2800   43.2080 N   0  0  0  0  0  0  0  0  0  0  0  0
   37.9470   26.4590   42.4460 C   0  0  0  0  0  0  0  0  0  0  0  0
   37.6100   27.6450   41.8730 N   0  0  0  0  0  0  0  0  0  0  0  0
   40.2060   29.3580   43.0640 H   0  0  0  0  0  0  0  0  0  0  0  0
   40.7660   27.2070   44.0670 H   0  0  0  0  0  0  0  0  0  0  0  0
   36.5340   31.4110   40.5350 C   0  0  0  0  0  0  0  0  0  0  0  0
   37.4920   32.4230   40.3930 C   0  0  0  0  0  0  0  0  0  0  0  0
   38.8040   32.1740   40.8380 C   0  0  0  0  0  0  0  0  0  0  0  0
   39.0770   30.9410   41.3930 N   0  0  0  0  0  0  0  0  0  0  0  0
   38.1160   30.0090   41.5040 C   0  0  0  0  0  0  0  0  0  0  0  0
   36.8580   30.2170   41.0890 N   0  0  0  0  0  0  0  0  0  0  0  0
   35.5150   31.5330   40.2170 H   0  0  0  0  0  0  0  0  0  0  0  0
   37.2300   33.3590   39.9560 H   0  0  0  0  0  0  0  0  0  0  0  0
   39.5790   32.9240   40.7500 H   0  0  0  0  0  0  0  0  0  0  0  0
   37.0420   25.2920   42.1990 C   0  0  0  0  0  3  0  0  0  0  0  0
   36.9890   24.7980   40.7390 C   0  0  0  0  0  2  0  0  0  0  0  0
   37.6120   23.9780   41.8270 C   0  0  0  0  0  2  0  0  0  0  0  0
  1  2  1  0  0  0  0
  2  7  1  0  0  0  0
  2  3  2  0  0  0  0
  3  8  1  0  0  0  0
  4  3  1  0  0  0  0
  5  4  2  0  0  0  0
  6  1  2  0  0  0  0
  6  5  1  0  0  0  0
  9 14  1  0  0  0  0
 10  9  2  0  0  0  0
 10 11  1  0  0  0  0
 11 12  2  0  0  0  0
 12 13  1  0  0  0  0
 13  1  1  0  0  0  0
 14 13  2  0  0  0  0
 15  9  1  0  0  0  0
 16 10  1  0  0  0  0
 17 11  1  0  0  0  0
 18  5  1  0  0  0  0
 19 20  1  0  0  0  0
 19 18  1  0  0  0  0
 20 18  1  0  0  0  0
M  END
>  <minimizedAffinity>
-4.35092497

$$$$

 OpenBabel03242521203D

 20 22  0  0  0  0  0  0  0  0999 V2000
   37.5570   29.2030   41.5700 C   0  0  0  0  0  0  0  0  0  0  0  0
   37.7300   29.1830   42.9220 C   0  0  0  0  0  0  0  0  0  0  0  0
   37.6740   28.0420   43.6780 C   0  0  0  0  0  0  0  0  0  0  0  0
   37.4290   26.8840   43.0090 N   0  0  0  0  0  0  0  0  0  0  0  0
   37.2570   26.8990   41.6830 C   0  0  0  0  0  0  0  0  0  0  0  0
   37.3120   28.0260   40.9250 N   0  0  0  0  0  0  0  0  0  0  0  0
   37.9250   30.1150   43.4450 H   0  0  0  0  0  0  0  0  0  0  0  0
   37.8180   28.0640   44.7590 H   0  0  0  0  0  0  0  0  0  0  0  0
   38.4880   32.5950   40.5630 C   0  0  0  0  0  0  0  0  0  0  0  0
   37.7700   32.7740   39.3740 C   0  0  0  0  0  0  0  0  0  0  0  0
   36.9570   31.7210   38.9130 C   0  0  0  0  0  0  0  0  0  0  0  0
   36.9130   30.5630   39.6620 N   0  0  0  0  0  0  0  0  0  0  0  0
   37.6250   30.4490   40.7950 C   0  0  0  0  0  0  0  0  0  0  0  0
   38.4070   31.4350   41.2590 N   0  0  0  0  0  0  0  0  0  0  0  0
   39.1260   33.3570   40.9710 H   0  0  0  0  0  0  0  0  0  0  0  0
   37.8380   33.6900   38.8330 H   0  0  0  0  0  0  0  0  0  0  0  0
   36.3830   31.8110   38.0010 H   0  0  0  0  0  0  0  0  0  0  0  0
   36.9890   25.6060   40.9780 C   0  0  0  0  0  3  0  0  0  0  0  0
   38.2000   24.6560   40.8640 C   0  0  0  0  0  2  0  0  0  0  0  0
   37.0210   24.3320   41.7310 C   0  0  0  0  0  2  0  0  0  0  0  0
  1  2  1  0  0  0  0
  2  7  1  0  0  0  0
  2  3  2  0  0  0  0
  3  8  1  0  0  0  0
  4  3  1  0  0  0  0
  5  4  2  0  0  0  0
  6  1  2  0  0  0  0
  6  5  1  0  0  0  0
  9 15  1  0  0  0  0
  9 14  1  0  0  0  0
 10  9  2  0  0  0  0
 11 10  1  0  0  0  0
 11 12  2  0  0  0  0
 12 13  1  0  0  0  0
 13 14  2  0  0  0  0
 13  1  1  0  0  0  0
 16 10  1  0  0  0  0
 17 11  1  0  0  0  0
 18  5  1  0  0  0  0
 18 20  1  0  0  0  0
 19 18  1  0  0  0  0
 19 20  1  0  0  0  0
M  END
>  <minimizedAffinity>
-4.26413393

$$$$

 OpenBabel03242521203D

 20 22  0  0  0  0  0  0  0  0999 V2000
   36.3150   29.6840   39.2290 C   0  0  0  0  0  0  0  0  0  0  0  0
   36.8100   30.8610   39.7050 C   0  0  0  0  0  0  0  0  0  0  0  0
   37.1650   31.0630   41.0120 C   0  0  0  0  0  0  0  0  0  0  0  0
   37.0000   30.0070   41.8530 N   0  0  0  0  0  0  0  0  0  0  0  0
   36.5140   28.8500   41.3910 C   0  0  0  0  0  0  0  0  0  0  0  0
   36.1600   28.6410   40.0950 N   0  0  0  0  0  0  0  0  0  0  0  0
   36.9360   31.6970   39.0230 H   0  0  0  0  0  0  0  0  0  0  0  0
   37.5580   32.0190   41.3580 H   0  0  0  0  0  0  0  0  0  0  0  0
   34.3550   28.8580   36.2500 C   0  0  0  0  0  0  0  0  0  0  0  0
   35.2330   29.1730   35.2050 C   0  0  0  0  0  0  0  0  0  0  0  0
   36.5090   29.6720   35.5240 C   0  0  0  0  0  0  0  0  0  0  0  0
   36.8290   29.8270   36.8580 N   0  0  0  0  0  0  0  0  0  0  0  0
   35.9450   29.5080   37.8180 C   0  0  0  0  0  0  0  0  0  0  0  0
   34.7220   29.0300   37.5440 N   0  0  0  0  0  0  0  0  0  0  0  0
   33.3670   28.4730   36.0780 H   0  0  0  0  0  0  0  0  0  0  0  0
   34.9370   29.0350   34.1900 H   0  0  0  0  0  0  0  0  0  0  0  0
   37.2220   29.9290   34.7530 H   0  0  0  0  0  0  0  0  0  0  0  0
   36.3470   27.7080   42.3450 C   0  0  0  0  0  3  0  0  0  0  0  0
   37.6280   26.9000   42.6350 C   0  0  0  0  0  2  0  0  0  0  0  0
   36.9830   27.7590   43.6790 C   0  0  0  0  0  2  0  0  0  0  0  0
  1  2  2  0  0  0  0
  1  6  1  0  0  0  0
  2  3  1  0  0  0  0
  3  8  1  0  0  0  0
  3  4  2  0  0  0  0
  5  4  1  0  0  0  0
  5 18  1  0  0  0  0
  6  5  2  0  0  0  0
  7  2  1  0  0  0  0
  9 14  1  0  0  0  0
 10 11  1  0  0  0  0
 10  9  2  0  0  0  0
 11 12  2  0  0  0  0
 12 13  1  0  0  0  0
 13  1  1  0  0  0  0
 14 13  2  0  0  0  0
 15  9  1  0  0  0  0
 16 10  1  0  0  0  0
 17 11  1  0  0  0  0
 18 19  1  0  0  0  0
 18 20  1  0  0  0  0
 19 20  1  0  0  0  0
M  END
>  <minimizedAffinity>
-4.11803961

$$$$

 OpenBabel03242521203D

 20 22  0  0  0  0  0  0  0  0999 V2000
   37.1760   26.9960   41.5670 C   0  0  0  0  0  0  0  0  0  0  0  0
   37.8080   27.0690   42.7730 C   0  0  0  0  0  0  0  0  0  0  0  0
   37.9830   28.2360   43.4700 C   0  0  0  0  0  0  0  0  0  0  0  0
   37.4860   29.3630   42.8950 N   0  0  0  0  0  0  0  0  0  0  0  0
   36.8660   29.2970   41.7130 C   0  0  0  0  0  0  0  0  0  0  0  0
   36.6870   28.1440   41.0150 N   0  0  0  0  0  0  0  0  0  0  0  0
   38.2010   26.1610   43.2210 H   0  0  0  0  0  0  0  0  0  0  0  0
   38.4930   28.2560   44.4330 H   0  0  0  0  0  0  0  0  0  0  0  0
   37.3260   23.4210   40.8010 C   0  0  0  0  0  0  0  0  0  0  0  0
   36.7120   23.3470   39.5450 C   0  0  0  0  0  0  0  0  0  0  0  0
   36.2420   24.5350   38.9540 C   0  0  0  0  0  0  0  0  0  0  0  0
   36.4130   25.7150   39.6490 N   0  0  0  0  0  0  0  0  0  0  0  0
   37.0090   25.7250   40.8520 C   0  0  0  0  0  0  0  0  0  0  0  0
   37.4670   24.6090   41.4390 N   0  0  0  0  0  0  0  0  0  0  0  0
   37.7070   22.5550   41.3080 H   0  0  0  0  0  0  0  0  0  0  0  0
   36.6050   22.4100   39.0490 H   0  0  0  0  0  0  0  0  0  0  0  0
   35.7610   24.5310   37.9850 H   0  0  0  0  0  0  0  0  0  0  0  0
   36.3300   30.5580   41.1100 C   0  0  0  0  0  3  0  0  0  0  0  0
   37.3940   31.5130   40.5310 C   0  0  0  0  0  2  0  0  0  0  0  0
   36.4290   30.7800   39.6500 C   0  0  0  0  0  2  0  0  0  0  0  0
  1  2  1  0  0  0  0
  2  7  1  0  0  0  0
  2  3  2  0  0  0  0
  3  8  1  0  0  0  0
  4  3  1  0  0  0  0
  5  4  2  0  0  0  0
  6  1  2  0  0  0  0
  6  5  1  0  0  0  0
  9 15  1  0  0  0  0
  9 14  1  0  0  0  0
 10  9  2  0  0  0  0
 11 10  1  0  0  0  0
 11 12  2  0  0  0  0
 12 13  1  0  0  0  0
 13 14  2  0  0  0  0
 13  1  1  0  0  0  0
 16 10  1  0  0  0  0
 17 11  1  0  0  0  0
 18  5  1  0  0  0  0
 19 18  1  0  0  0  0
 20 19  1  0  0  0  0
 20 18  1  0  0  0  0
M  END
>  <minimizedAffinity>
-4.10781145

$$$$

 OpenBabel03242521203D

 20 22  0  0  0  0  0  0  0  0999 V2000
   37.2300   27.9630   41.5930 C   0  0  0  0  0  0  0  0  0  0  0  0
   37.4950   29.1910   42.1220 C   0  0  0  0  0  0  0  0  0  0  0  0
   36.8790   30.3440   41.7110 C   0  0  0  0  0  0  0  0  0  0  0  0
   35.9600   30.2170   40.7180 N   0  0  0  0  0  0  0  0  0  0  0  0
   35.6970   29.0150   40.1950 C   0  0  0  0  0  0  0  0  0  0  0  0
   36.3020   27.8660   40.5970 N   0  0  0  0  0  0  0  0  0  0  0  0
   38.2310   29.2780   42.9150 H   0  0  0  0  0  0  0  0  0  0  0  0
   37.1150   31.3100   42.1580 H   0  0  0  0  0  0  0  0  0  0  0  0
   39.6490   25.7970   43.2800 C   0  0  0  0  0  0  0  0  0  0  0  0
   39.2000   24.5120   42.9470 C   0  0  0  0  0  0  0  0  0  0  0  0
   38.0570   24.3880   42.1350 C   0  0  0  0  0  0  0  0  0  0  0  0
   37.4370   25.5450   41.7100 N   0  0  0  0  0  0  0  0  0  0  0  0
   37.9130   26.7500   42.0620 C   0  0  0  0  0  0  0  0  0  0  0  0
   39.0000   26.9000   42.8330 N   0  0  0  0  0  0  0  0  0  0  0  0
   40.5140   25.9640   43.8950 H   0  0  0  0  0  0  0  0  0  0  0  0
   39.7160   23.6500   43.3020 H   0  0  0  0  0  0  0  0  0  0  0  0
   37.6720   23.4180   41.8500 H   0  0  0  0  0  0  0  0  0  0  0  0
   34.6780   28.9130   39.1030 C   0  0  0  0  0  3  0  0  0  0  0  0
   35.1850   29.2860   37.6940 C   0  0  0  0  0  2  0  0  0  0  0  0
   34.8190   27.8780   38.0540 C   0  0  0  0  0  2  0  0  0  0  0  0
  1 13  1  0  0  0  0
  1  2  1  0  0  0  0
  2  7  1  0  0  0  0
  3  2  2  0  0  0  0
  3  8  1  0  0  0  0
  4  3  1  0  0  0  0
  5  6  1  0  0  0  0
  5  4  2  0  0  0  0
  6  1  2  0  0  0  0
  9 15  1  0  0  0  0
 10  9  1  0  0  0  0
 10 16  1  0  0  0  0
 11 10  2  0  0  0  0
 12 13  2  0  0  0  0
 12 11  1  0  0  0  0
 13 14  1  0  0  0  0
 14  9  2  0  0  0  0
 17 11  1  0  0  0  0
 18  5  1  0  0  0  0
 19 20  1  0  0  0  0
 19 18  1  0  0  0  0
 20 18  1  0  0  0  0
M  END
>  <minimizedAffinity>
-4.08224964

$$$$

 OpenBabel03242521203D

 20 22  0  0  0  0  0  0  0  0999 V2000
   37.2530   27.9080   41.5670 C   0  0  0  0  0  0  0  0  0  0  0  0
   37.5220   29.1330   42.1010 C   0  0  0  0  0  0  0  0  0  0  0  0
   36.9060   30.2880   41.7000 C   0  0  0  0  0  0  0  0  0  0  0  0
   35.9800   30.1680   40.7120 N   0  0  0  0  0  0  0  0  0  0  0  0
   35.7130   28.9700   40.1840 C   0  0  0  0  0  0  0  0  0  0  0  0
   36.3190   27.8170   40.5760 N   0  0  0  0  0  0  0  0  0  0  0  0
   38.2640   29.2140   42.8900 H   0  0  0  0  0  0  0  0  0  0  0  0
   37.1460   31.2510   42.1510 H   0  0  0  0  0  0  0  0  0  0  0  0
   38.0100   24.3680   42.1040 C   0  0  0  0  0  0  0  0  0  0  0  0
   39.1870   24.4140   42.8620 C   0  0  0  0  0  0  0  0  0  0  0  0
   39.7250   25.6720   43.1940 C   0  0  0  0  0  0  0  0  0  0  0  0
   39.0610   26.7980   42.7500 N   0  0  0  0  0  0  0  0  0  0  0  0
   37.9360   26.6910   42.0250 C   0  0  0  0  0  0  0  0  0  0  0  0
   37.4000   25.5070   41.6940 N   0  0  0  0  0  0  0  0  0  0  0  0
   37.5460   23.4430   41.8160 H   0  0  0  0  0  0  0  0  0  0  0  0
   39.6610   23.5150   43.1810 H   0  0  0  0  0  0  0  0  0  0  0  0
   40.6310   25.7600   43.7780 H   0  0  0  0  0  0  0  0  0  0  0  0
   34.6870   28.8740   39.0980 C   0  0  0  0  0  3  0  0  0  0  0  0
   35.1800   29.2740   37.6920 C   0  0  0  0  0  2  0  0  0  0  0  0
   34.8290   27.8570   38.0330 C   0  0  0  0  0  2  0  0  0  0  0  0
  1 13  1  0  0  0  0
  1  2  1  0  0  0  0
  2  7  1  0  0  0  0
  3  2  2  0  0  0  0
  3  8  1  0  0  0  0
  4  3  1  0  0  0  0
  5  6  1  0  0  0  0
  5  4  2  0  0  0  0
  6  1  2  0  0  0  0
  9 10  1  0  0  0  0
 10 16  1  0  0  0  0
 10 11  2  0  0  0  0
 11 17  1  0  0  0  0
 12 11  1  0  0  0  0
 13 12  2  0  0  0  0
 14 13  1  0  0  0  0
 14  9  2  0  0  0  0
 15  9  1  0  0  0  0
 18  5  1  0  0  0  0
 19 20  1  0  0  0  0
 19 18  1  0  0  0  0
 20 18  1  0  0  0  0
M  END
>  <minimizedAffinity>
-4.07711935

$$$$
