
 OpenBabel03252507153D

 23 25  0  0  0  0  0  0  0  0999 V2000
   44.7910   35.9230   43.4050 C   0  0  0  0  0  0  0  0  0  0  0  0
   45.4650   34.7330   43.0390 C   0  0  0  0  0  0  0  0  0  0  0  0
   45.7400   33.8230   44.0350 C   0  0  0  0  0  0  0  0  0  0  0  0
   45.3680   34.0820   45.3030 N   0  0  0  0  0  0  0  0  0  0  0  0
   44.7170   35.2390   45.6390 C   0  0  0  0  0  0  0  0  0  0  0  0
   44.4490   36.1240   44.6780 N   0  0  0  0  0  0  0  0  0  0  0  0
   44.5490   36.6780   42.6580 H   0  0  0  0  0  0  0  0  0  0  0  0
   44.4860   35.2990   46.7030 H   0  0  0  0  0  0  0  0  0  0  0  0
   46.4330   32.5930   43.6720 C   0  0  0  0  0  0  0  0  0  0  0  0
   45.7130   31.4410   43.4210 C   0  0  0  0  0  0  0  0  0  0  0  0
   46.3960   30.2970   43.0830 C   0  0  0  0  0  0  0  0  0  0  0  0
   47.7870   30.2380   42.9770 C   0  0  0  0  0  0  0  0  0  0  0  0
   48.4500   31.4180   43.2390 C   0  0  0  0  0  0  0  0  0  0  0  0
   47.7740   32.5390   43.5730 N   0  0  0  0  0  0  0  0  0  0  0  0
   44.6340   31.4430   43.4910 H   0  0  0  0  0  0  0  0  0  0  0  0
   45.8280   29.3950   42.8860 H   0  0  0  0  0  0  0  0  0  0  0  0
   48.3260   29.3370   42.7100 H   0  0  0  0  0  0  0  0  0  0  0  0
   49.5400   31.4020   43.1660 H   0  0  0  0  0  0  0  0  0  0  0  0
   45.8310   34.5190   41.6740 C   0  0  0  0  0  0  0  0  0  0  0  0
   46.9700   34.9260   41.3030 O   0  0  0  0  0  0  0  0  0  0  0  0
   44.9450   33.8500   40.6910 C   0  0  0  0  0  3  0  0  0  0  0  0
   43.5720   33.4340   41.1370 C   0  0  0  0  0  2  0  0  0  0  0  0
   43.6870   34.5730   40.2220 C   0  0  0  0  0  2  0  0  0  0  0  0
  1  6  1  0  0  0  0
  2  1  2  0  0  0  0
  2  3  1  0  0  0  0
  3  4  2  0  0  0  0
  4  5  1  0  0  0  0
  5  8  1  0  0  0  0
  6  5  2  0  0  0  0
  7  1  1  0  0  0  0
  9  3  1  0  0  0  0
 10 15  1  0  0  0  0
 10  9  2  0  0  0  0
 11 10  1  0  0  0  0
 12 11  2  0  0  0  0
 12 13  1  0  0  0  0
 13 14  2  0  0  0  0
 14  9  1  0  0  0  0
 16 11  1  0  0  0  0
 17 12  1  0  0  0  0
 18 13  1  0  0  0  0
 19  2  1  0  0  0  0
 20 19  2  0  0  0  0
 21 22  1  0  0  0  0
 21 19  1  0  0  0  0
 23 21  1  0  0  0  0
 23 22  1  0  0  0  0
M  END
>  <minimizedAffinity>
-3.89603686

>  <minimizedRMSD>
0.584960043

$$$$
