
     RDKit          3D

 29 30  0  0  0  0  0  0  0  0999 V2000
   42.4937   33.8005   41.1277 S   0  0  0  0  0  0  0  0  0  0  0  0
   39.8212   34.0726   40.4231 C   0  0  0  0  0  0  0  0  0  0  0  0
   41.1313   34.0599   39.9620 C   0  0  0  0  0  0  0  0  0  0  0  0
   41.4222   34.2430   38.6158 C   0  0  0  0  0  0  0  0  0  0  0  0
   40.3529   34.4356   37.7746 N   0  0  0  0  0  0  0  0  0  0  0  0
   39.1160   34.4386   38.2706 C   0  0  0  0  0  0  0  0  0  0  0  0
   38.8105   34.2676   39.5414 N   0  0  0  0  0  0  0  0  0  0  0  0
   43.7280   35.0683   40.8965 C   0  0  0  0  0  0  0  0  0  0  0  0
   43.5705   36.0586   41.9746 N   0  0  0  0  0  0  0  0  0  0  0  0
   44.8390   35.9325   43.1326 S   0  0  0  0  0  0  0  0  0  0  0  0
   45.9790   35.1251   42.6180 O   0  0  0  0  0  0  0  0  0  0  0  0
   45.2848   37.3487   43.4157 O   0  0  0  0  0  0  0  0  0  0  0  0
   44.2269   35.3430   44.5714 O   0  0  0  0  0  0  0  0  0  0  0  0
   39.6058   33.9290   41.4738 H   0  0  0  0  0  0  0  0  0  0  0  0
   42.4522   34.2346   38.2421 H   0  0  0  0  0  0  0  0  0  0  0  0
   38.3807   34.6031   37.4773 H   0  0  0  0  0  0  0  0  0  0  0  0
   44.7391   34.6005   41.0674 H   0  0  0  0  0  0  0  0  0  0  0  0
   43.7224   35.5633   39.9051 H   0  0  0  0  0  0  0  0  0  0  0  0
   43.4811   37.0266   41.6083 H   0  0  0  0  0  0  0  0  0  0  0  0
   46.8296   35.5607   42.3433 H   0  0  0  0  0  0  0  0  0  0  0  0
   45.3754   37.9811   42.6376 H   0  0  0  0  0  0  0  0  0  0  0  0
   43.9859   33.9860   44.5498 C   0  0  0  0  0  0  0  0  0  0  0  0
   45.0729   33.1549   45.1983 C   0  0  0  0  0  0  0  0  0  0  0  0
   44.8796   33.1080   43.7208 C   0  0  0  0  0  0  0  0  0  0  0  0
   42.9386   33.6391   44.7299 H   0  0  0  0  0  0  0  0  0  0  0  0
   44.8101   32.2916   45.8432 H   0  0  0  0  0  0  0  0  0  0  0  0
   46.0281   33.6459   45.5124 H   0  0  0  0  0  0  0  0  0  0  0  0
   45.5771   33.6433   43.0656 H   0  0  0  0  0  0  0  0  0  0  0  0
   44.4642   32.1405   43.3458 H   0  0  0  0  0  0  0  0  0  0  0  0
  3  2  2  0
  3  1  1  0
  4  3  1  0
  5  6  1  0
  5  4  2  0
  6  7  2  0
  7  2  1  0
  8  1  1  0
  8  9  1  0
  9 10  1  0
 10 12  1  0
 10 13  1  0
 11 10  1  0
  2 14  1  0
  4 15  1  0
  6 16  1  0
  8 17  1  0
  8 18  1  0
  9 19  1  0
 11 20  1  0
 12 21  1  0
 22 23  1  0
 23 24  1  0
 24 22  1  0
 22 25  1  0
 23 26  1  0
 23 27  1  0
 24 28  1  0
 24 29  1  0
 13 22  1  0
M  ISO  8  14  14  15  14  16  14  17   8  18   8  19   5  20   3  21   3
M  END
>  <DihAtoms>  (1) 
9,12,21,22

>  <DihDeg>  (1) 
-140.58224291814463

$$$$
