
 OpenBabel03242523433D

 18 19  0  0  1  0  0  0  0  0999 V2000
   38.8530   26.4430   42.2250 C   0  0  0  0  0  0  0  0  0  0  0  0
   37.4620   26.3120   42.3180 C   0  0  0  0  0  0  0  0  0  0  0  0
   36.9410   25.0270   42.1660 C   0  0  0  0  0  0  0  0  0  0  0  0
   37.7990   23.9970   41.9390 N   0  0  0  0  0  0  0  0  0  0  0  0
   39.1360   24.1710   41.8580 C   0  0  0  0  0  0  0  0  0  0  0  0
   39.6730   25.4060   42.0020 N   0  0  0  0  0  0  0  0  0  0  0  0
   39.3640   27.4020   42.3290 H   0  0  0  0  0  0  0  0  0  0  0  0
   35.8880   24.9060   42.2320 H   0  0  0  0  0  0  0  0  0  0  0  0
   39.6020   23.2030   41.6740 H   0  0  0  0  0  0  0  0  0  0  0  0
   36.6620   27.4850   42.5690 C   0  0  1  0  0  0  0  0  0  0  0  0
   35.6290   27.1980   42.7880 H   0  0  0  0  0  0  0  0  0  0  0  0
   37.3100   28.2840   43.6790 C   0  0  0  0  0  0  0  0  0  0  0  0
   38.3970   28.3260   43.5960 H   0  0  0  0  0  0  0  0  0  0  0  0
   36.8120   29.2780   43.7680 H   0  0  0  0  0  0  0  0  0  0  0  0
   37.0110   27.7620   44.6350 H   0  0  0  0  0  0  0  0  0  0  0  0
   36.7520   28.3520   41.3100 C   0  0  0  0  0  3  0  0  0  0  0  0
   36.1980   27.8360   40.0350 C   0  0  0  0  0  2  0  0  0  0  0  0
   35.4890   28.9330   40.7500 C   0  0  0  0  0  2  0  0  0  0  0  0
  1  2  1  0  0  0  0
  1  7  1  0  0  0  0
  2 10  1  0  0  0  0
  3  8  1  0  0  0  0
  3  2  2  0  0  0  0
  4  3  1  0  0  0  0
  5  4  2  0  0  0  0
  5  6  1  0  0  0  0
  6  1  2  0  0  0  0
  9  5  1  0  0  0  0
 10 11  1  1  0  0  0
 10 12  1  0  0  0  0
 12 14  1  0  0  0  0
 12 15  1  0  0  0  0
 13 12  1  0  0  0  0
 16 10  1  0  0  0  0
 17 18  1  0  0  0  0
 17 16  1  0  0  0  0
 18 16  1  0  0  0  0
M  END
>  <minimizedAffinity>
-3.6428442

$$$$

 OpenBabel03242523433D

 18 19  0  0  1  0  0  0  0  0999 V2000
   38.1860   29.5320   40.2140 C   0  0  0  0  0  0  0  0  0  0  0  0
   36.9250   29.5770   40.8240 C   0  0  0  0  0  0  0  0  0  0  0  0
   36.3580   30.8400   40.9980 C   0  0  0  0  0  0  0  0  0  0  0  0
   37.0510   31.9310   40.5750 N   0  0  0  0  0  0  0  0  0  0  0  0
   38.2650   31.8380   39.9920 C   0  0  0  0  0  0  0  0  0  0  0  0
   38.8420   30.6260   39.8070 N   0  0  0  0  0  0  0  0  0  0  0  0
   38.7180   28.5970   40.0300 H   0  0  0  0  0  0  0  0  0  0  0  0
   35.4040   30.8970   41.4590 H   0  0  0  0  0  0  0  0  0  0  0  0
   38.6090   32.8420   39.7430 H   0  0  0  0  0  0  0  0  0  0  0  0
   36.2930   28.3440   41.2210 C   0  0  1  0  0  0  0  0  0  0  0  0
   35.2700   28.5360   41.5610 H   0  0  0  0  0  0  0  0  0  0  0  0
   36.3660   27.3680   40.0660 C   0  0  0  0  0  0  0  0  0  0  0  0
   37.3270   27.3920   39.5480 H   0  0  0  0  0  0  0  0  0  0  0  0
   36.0460   26.3560   40.4070 H   0  0  0  0  0  0  0  0  0  0  0  0
   35.5380   27.6760   39.3630 H   0  0  0  0  0  0  0  0  0  0  0  0
   37.1570   27.7500   42.3370 C   0  0  0  0  0  3  0  0  0  0  0  0
   37.3550   28.5230   43.5870 C   0  0  0  0  0  2  0  0  0  0  0  0
   36.4870   27.3130   43.6050 C   0  0  0  0  0  2  0  0  0  0  0  0
  1  2  1  0  0  0  0
  2  3  2  0  0  0  0
  2 10  1  0  0  0  0
  3  8  1  0  0  0  0
  4  3  1  0  0  0  0
  5  4  2  0  0  0  0
  6  5  1  0  0  0  0
  6  1  2  0  0  0  0
  7  1  1  0  0  0  0
  9  5  1  0  0  0  0
 10 11  1  1  0  0  0
 10 16  1  0  0  0  0
 12 14  1  0  0  0  0
 12 10  1  0  0  0  0
 13 12  1  0  0  0  0
 15 12  1  0  0  0  0
 16 17  1  0  0  0  0
 16 18  1  0  0  0  0
 17 18  1  0  0  0  0
M  END
>  <minimizedAffinity>
-3.60944891

$$$$

 OpenBabel03242523433D

 18 19  0  0  1  0  0  0  0  0999 V2000
   37.5460   29.1710   41.4410 C   0  0  0  0  0  0  0  0  0  0  0  0
   38.3300   29.1720   42.6020 C   0  0  0  0  0  0  0  0  0  0  0  0
   39.1880   30.2580   42.7790 C   0  0  0  0  0  0  0  0  0  0  0  0
   39.2120   31.2320   41.8310 N   0  0  0  0  0  0  0  0  0  0  0  0
   38.4360   31.1890   40.7270 C   0  0  0  0  0  0  0  0  0  0  0  0
   37.5920   30.1490   40.5260 N   0  0  0  0  0  0  0  0  0  0  0  0
   36.8430   28.3710   41.2060 H   0  0  0  0  0  0  0  0  0  0  0  0
   39.7920   30.2780   43.6520 H   0  0  0  0  0  0  0  0  0  0  0  0
   38.6340   32.0780   40.1270 H   0  0  0  0  0  0  0  0  0  0  0  0
   38.2050   28.0800   43.5340 C   0  0  1  0  0  0  0  0  0  0  0  0
   38.6850   28.3360   44.4830 H   0  0  0  0  0  0  0  0  0  0  0  0
   36.7390   27.7320   43.6790 C   0  0  0  0  0  0  0  0  0  0  0  0
   36.2000   27.7550   42.7310 H   0  0  0  0  0  0  0  0  0  0  0  0
   36.6320   26.7810   44.2520 H   0  0  0  0  0  0  0  0  0  0  0  0
   36.3190   28.5060   44.3860 H   0  0  0  0  0  0  0  0  0  0  0  0
   38.8690   26.8660   42.8750 C   0  0  0  0  0  3  0  0  0  0  0  0
   40.3160   26.9180   42.5550 C   0  0  0  0  0  2  0  0  0  0  0  0
   39.8450   26.0610   43.6790 C   0  0  0  0  0  2  0  0  0  0  0  0
  1  2  1  0  0  0  0
  2  3  2  0  0  0  0
  2 10  1  0  0  0  0
  3  8  1  0  0  0  0
  4  3  1  0  0  0  0
  5  4  2  0  0  0  0
  6  5  1  0  0  0  0
  6  1  2  0  0  0  0
  7  1  1  0  0  0  0
  9  5  1  0  0  0  0
 10 12  1  0  0  0  0
 10 11  1  1  0  0  0
 12 14  1  0  0  0  0
 12 15  1  0  0  0  0
 13 12  1  0  0  0  0
 16 10  1  0  0  0  0
 16 18  1  0  0  0  0
 17 16  1  0  0  0  0
 17 18  1  0  0  0  0
M  END
>  <minimizedAffinity>
-3.44539857

$$$$

 OpenBabel03242523433D

 18 19  0  0  1  0  0  0  0  0999 V2000
   36.5780   30.3370   38.6190 C   0  0  0  0  0  0  0  0  0  0  0  0
   36.3000   30.4870   39.9840 C   0  0  0  0  0  0  0  0  0  0  0  0
   36.7890   31.6400   40.6000 C   0  0  0  0  0  0  0  0  0  0  0  0
   37.4940   32.5310   39.8520 N   0  0  0  0  0  0  0  0  0  0  0  0
   37.7360   32.3440   38.5380 C   0  0  0  0  0  0  0  0  0  0  0  0
   37.2750   31.2350   37.9100 N   0  0  0  0  0  0  0  0  0  0  0  0
   36.2430   29.4740   38.0420 H   0  0  0  0  0  0  0  0  0  0  0  0
   36.5910   31.7730   41.6340 H   0  0  0  0  0  0  0  0  0  0  0  0
   38.3140   33.1910   38.1660 H   0  0  0  0  0  0  0  0  0  0  0  0
   35.5360   29.4710   40.6610 C   0  0  1  0  0  0  0  0  0  0  0  0
   35.1900   29.8410   41.6310 H   0  0  0  0  0  0  0  0  0  0  0  0
   34.4080   29.0280   39.7530 C   0  0  0  0  0  0  0  0  0  0  0  0
   34.7130   28.9310   38.7100 H   0  0  0  0  0  0  0  0  0  0  0  0
   33.9140   28.1240   40.1790 H   0  0  0  0  0  0  0  0  0  0  0  0
   33.6140   29.8250   39.8550 H   0  0  0  0  0  0  0  0  0  0  0  0
   36.4600   28.2590   40.8160 C   0  0  0  0  0  3  0  0  0  0  0  0
   37.7330   28.4110   41.5610 C   0  0  0  0  0  2  0  0  0  0  0  0
   36.6130   27.6450   42.1750 C   0  0  0  0  0  2  0  0  0  0  0  0
  1  2  1  0  0  0  0
  2  3  2  0  0  0  0
  2 10  1  0  0  0  0
  3  8  1  0  0  0  0
  4  3  1  0  0  0  0
  5  4  2  0  0  0  0
  6  5  1  0  0  0  0
  6  1  2  0  0  0  0
  7  1  1  0  0  0  0
  9  5  1  0  0  0  0
 10 16  1  0  0  0  0
 10 11  1  1  0  0  0
 12 15  1  0  0  0  0
 12 14  1  0  0  0  0
 12 10  1  0  0  0  0
 13 12  1  0  0  0  0
 16 17  1  0  0  0  0
 16 18  1  0  0  0  0
 17 18  1  0  0  0  0
M  END
>  <minimizedAffinity>
-3.40127397

$$$$

 OpenBabel03242523433D

 18 19  0  0  1  0  0  0  0  0999 V2000
   39.1510   31.8400   38.8250 C   0  0  0  0  0  0  0  0  0  0  0  0
   37.8070   32.1470   39.0730 C   0  0  0  0  0  0  0  0  0  0  0  0
   37.5490   33.3600   39.7120 C   0  0  0  0  0  0  0  0  0  0  0  0
   38.5980   34.1570   40.0500 N   0  0  0  0  0  0  0  0  0  0  0  0
   39.8790   33.8190   39.7890 C   0  0  0  0  0  0  0  0  0  0  0  0
   40.1630   32.6480   39.1700 N   0  0  0  0  0  0  0  0  0  0  0  0
   39.4640   30.9170   38.3320 H   0  0  0  0  0  0  0  0  0  0  0  0
   36.5370   33.6120   39.9100 H   0  0  0  0  0  0  0  0  0  0  0  0
   40.5300   34.6150   40.1520 H   0  0  0  0  0  0  0  0  0  0  0  0
   36.7870   31.2180   38.6580 C   0  0  1  0  0  0  0  0  0  0  0  0
   35.8190   31.7240   38.5920 H   0  0  0  0  0  0  0  0  0  0  0  0
   37.2160   30.5770   37.3550 C   0  0  0  0  0  0  0  0  0  0  0  0
   38.2780   30.3260   37.3330 H   0  0  0  0  0  0  0  0  0  0  0  0
   36.5330   29.7310   37.1080 H   0  0  0  0  0  0  0  0  0  0  0  0
   36.9790   31.3400   36.5560 H   0  0  0  0  0  0  0  0  0  0  0  0
   36.7680   30.0950   39.7000 C   0  0  0  0  0  3  0  0  0  0  0  0
   36.1640   30.3530   41.0300 C   0  0  0  0  0  2  0  0  0  0  0  0
   35.4510   29.4760   40.0600 C   0  0  0  0  0  2  0  0  0  0  0  0
  1  2  2  0  0  0  0
  1  6  1  0  0  0  0
  2  3  1  0  0  0  0
  3  8  1  0  0  0  0
  3  4  2  0  0  0  0
  5  4  1  0  0  0  0
  5  9  1  0  0  0  0
  6  5  2  0  0  0  0
  7  1  1  0  0  0  0
 10 11  1  6  0  0  0
 10  2  1  0  0  0  0
 10 16  1  0  0  0  0
 12 10  1  0  0  0  0
 13 12  1  0  0  0  0
 14 12  1  0  0  0  0
 15 12  1  0  0  0  0
 16 18  1  0  0  0  0
 16 17  1  0  0  0  0
 18 17  1  0  0  0  0
M  END
>  <minimizedAffinity>
-3.38272285

$$$$

 OpenBabel03242523433D

 18 19  0  0  1  0  0  0  0  0999 V2000
   37.9820   27.2330   43.4120 C   0  0  0  0  0  0  0  0  0  0  0  0
   38.6150   26.8350   42.2270 C   0  0  0  0  0  0  0  0  0  0  0  0
   38.7470   27.8030   41.2310 C   0  0  0  0  0  0  0  0  0  0  0  0
   38.2600   29.0510   41.4650 N   0  0  0  0  0  0  0  0  0  0  0  0
   37.6570   29.3890   42.6240 C   0  0  0  0  0  0  0  0  0  0  0  0
   37.5150   28.4720   43.6120 N   0  0  0  0  0  0  0  0  0  0  0  0
   37.8280   26.5550   44.2540 H   0  0  0  0  0  0  0  0  0  0  0  0
   39.2230   27.5220   40.3240 H   0  0  0  0  0  0  0  0  0  0  0  0
   37.3590   30.4360   42.5690 H   0  0  0  0  0  0  0  0  0  0  0  0
   39.0930   25.4810   42.1070 C   0  0  1  0  0  0  0  0  0  0  0  0
   39.6670   25.3630   41.1830 H   0  0  0  0  0  0  0  0  0  0  0  0
   39.8840   25.1340   43.3510 C   0  0  0  0  0  0  0  0  0  0  0  0
   39.4260   25.5130   44.2660 H   0  0  0  0  0  0  0  0  0  0  0  0
   40.1100   24.0420   43.3620 H   0  0  0  0  0  0  0  0  0  0  0  0
   40.8990   25.6050   43.1990 H   0  0  0  0  0  0  0  0  0  0  0  0
   37.8560   24.5780   42.1230 C   0  0  0  0  0  3  0  0  0  0  0  0
   36.8920   24.6540   40.9980 C   0  0  0  0  0  2  0  0  0  0  0  0
   37.7740   23.4600   41.1270 C   0  0  0  0  0  2  0  0  0  0  0  0
  1  6  1  0  0  0  0
  1  7  1  0  0  0  0
  2  1  2  0  0  0  0
  3  4  2  0  0  0  0
  3  2  1  0  0  0  0
  4  5  1  0  0  0  0
  5  6  2  0  0  0  0
  8  3  1  0  0  0  0
  9  5  1  0  0  0  0
 10 11  1  6  0  0  0
 10 16  1  0  0  0  0
 10  2  1  0  0  0  0
 10 12  1  0  0  0  0
 12 14  1  0  0  0  0
 12 13  1  0  0  0  0
 15 12  1  0  0  0  0
 17 18  1  0  0  0  0
 17 16  1  0  0  0  0
 18 16  1  0  0  0  0
M  END
>  <minimizedAffinity>
-3.36724734

$$$$

 OpenBabel03242523433D

 18 19  0  0  1  0  0  0  0  0999 V2000
   38.3470   29.4090   39.5600 C   0  0  0  0  0  0  0  0  0  0  0  0
   38.0520   29.9140   40.8330 C   0  0  0  0  0  0  0  0  0  0  0  0
   37.1480   30.9750   40.8920 C   0  0  0  0  0  0  0  0  0  0  0  0
   36.6190   31.4470   39.7310 N   0  0  0  0  0  0  0  0  0  0  0  0
   36.9330   30.9270   38.5260 C   0  0  0  0  0  0  0  0  0  0  0  0
   37.8070   29.8960   38.4350 N   0  0  0  0  0  0  0  0  0  0  0  0
   39.0410   28.5810   39.4000 H   0  0  0  0  0  0  0  0  0  0  0  0
   36.9120   31.3740   41.8470 H   0  0  0  0  0  0  0  0  0  0  0  0
   36.3820   31.4710   37.7580 H   0  0  0  0  0  0  0  0  0  0  0  0
   38.6780   29.3190   41.9860 C   0  0  1  0  0  0  0  0  0  0  0  0
   39.2810   28.4570   41.6860 H   0  0  0  0  0  0  0  0  0  0  0  0
   39.4740   30.3840   42.7100 C   0  0  0  0  0  0  0  0  0  0  0  0
   38.9570   31.3440   42.7560 H   0  0  0  0  0  0  0  0  0  0  0  0
   39.8180   29.9930   43.6960 H   0  0  0  0  0  0  0  0  0  0  0  0
   40.4340   30.4860   42.1250 H   0  0  0  0  0  0  0  0  0  0  0  0
   37.5460   28.9130   42.9360 C   0  0  0  0  0  3  0  0  0  0  0  0
   36.6750   27.7680   42.5750 C   0  0  0  0  0  2  0  0  0  0  0  0
   37.6650   27.6160   43.6780 C   0  0  0  0  0  2  0  0  0  0  0  0
  1  2  1  0  0  0  0
  2  3  2  0  0  0  0
  2 10  1  0  0  0  0
  3  8  1  0  0  0  0
  4  3  1  0  0  0  0
  5  4  2  0  0  0  0
  6  5  1  0  0  0  0
  6  1  2  0  0  0  0
  7  1  1  0  0  0  0
  9  5  1  0  0  0  0
 10 11  1  6  0  0  0
 10 12  1  0  0  0  0
 10 16  1  0  0  0  0
 12 13  1  0  0  0  0
 12 14  1  0  0  0  0
 15 12  1  0  0  0  0
 16 18  1  0  0  0  0
 17 16  1  0  0  0  0
 17 18  1  0  0  0  0
M  END
>  <minimizedAffinity>
-3.31661415

$$$$

 OpenBabel03242523433D

 18 19  0  0  1  0  0  0  0  0999 V2000
   38.9000   31.4210   41.1360 C   0  0  0  0  0  0  0  0  0  0  0  0
   37.6170   31.3200   40.5820 C   0  0  0  0  0  0  0  0  0  0  0  0
   36.7560   30.3860   41.1580 C   0  0  0  0  0  0  0  0  0  0  0  0
   37.2060   29.6420   42.2040 N   0  0  0  0  0  0  0  0  0  0  0  0
   38.4520   29.7750   42.7070 C   0  0  0  0  0  0  0  0  0  0  0  0
   39.3120   30.6730   42.1690 N   0  0  0  0  0  0  0  0  0  0  0  0
   39.6510   32.1190   40.7620 H   0  0  0  0  0  0  0  0  0  0  0  0
   35.7800   30.2920   40.7530 H   0  0  0  0  0  0  0  0  0  0  0  0
   38.5700   29.0750   43.5350 H   0  0  0  0  0  0  0  0  0  0  0  0
   37.2620   32.1730   39.4760 C   0  0  1  0  0  0  0  0  0  0  0  0
   36.2120   32.0230   39.2050 H   0  0  0  0  0  0  0  0  0  0  0  0
   37.5850   33.6050   39.8450 C   0  0  0  0  0  0  0  0  0  0  0  0
   38.5320   33.7040   40.3780 H   0  0  0  0  0  0  0  0  0  0  0  0
   37.4870   34.2580   38.9460 H   0  0  0  0  0  0  0  0  0  0  0  0
   36.7310   33.9430   40.5020 H   0  0  0  0  0  0  0  0  0  0  0  0
   38.2010   31.8070   38.3230 C   0  0  0  0  0  3  0  0  0  0  0  0
   38.0710   30.4770   37.6780 C   0  0  0  0  0  2  0  0  0  0  0  0
   37.6280   31.6940   36.9420 C   0  0  0  0  0  2  0  0  0  0  0  0
  1  6  1  0  0  0  0
  2  1  2  0  0  0  0
  2  3  1  0  0  0  0
  3  4  2  0  0  0  0
  4  5  1  0  0  0  0
  5  9  1  0  0  0  0
  6  5  2  0  0  0  0
  7  1  1  0  0  0  0
  8  3  1  0  0  0  0
 10 11  1  6  0  0  0
 10 12  1  0  0  0  0
 10  2  1  0  0  0  0
 12 13  1  0  0  0  0
 12 15  1  0  0  0  0
 14 12  1  0  0  0  0
 16 10  1  0  0  0  0
 17 16  1  0  0  0  0
 18 17  1  0  0  0  0
 18 16  1  0  0  0  0
M  END
>  <minimizedAffinity>
-3.31269956

$$$$

 OpenBabel03242523433D

 18 19  0  0  1  0  0  0  0  0999 V2000
   37.5260   25.1650   42.2800 C   0  0  0  0  0  0  0  0  0  0  0  0
   37.1730   26.3650   41.6500 C   0  0  0  0  0  0  0  0  0  0  0  0
   36.8330   26.2870   40.2990 C   0  0  0  0  0  0  0  0  0  0  0  0
   36.8650   25.0740   39.6860 N   0  0  0  0  0  0  0  0  0  0  0  0
   37.2110   23.9420   40.3360 C   0  0  0  0  0  0  0  0  0  0  0  0
   37.5460   23.9840   41.6480 N   0  0  0  0  0  0  0  0  0  0  0  0
   37.8080   25.1130   43.3330 H   0  0  0  0  0  0  0  0  0  0  0  0
   36.5640   27.1860   39.8010 H   0  0  0  0  0  0  0  0  0  0  0  0
   37.1590   23.1080   39.6350 H   0  0  0  0  0  0  0  0  0  0  0  0
   37.1720   27.5860   42.4150 C   0  0  1  0  0  0  0  0  0  0  0  0
   36.8030   28.4150   41.8040 H   0  0  0  0  0  0  0  0  0  0  0  0
   36.3650   27.3660   43.6770 C   0  0  0  0  0  0  0  0  0  0  0  0
   36.5440   26.3920   44.1330 H   0  0  0  0  0  0  0  0  0  0  0  0
   36.4980   28.2340   44.3650 H   0  0  0  0  0  0  0  0  0  0  0  0
   35.2850   27.4560   43.3580 H   0  0  0  0  0  0  0  0  0  0  0  0
   38.6170   27.8180   42.8680 C   0  0  0  0  0  3  0  0  0  0  0  0
   39.6420   28.1820   41.8590 C   0  0  0  0  0  2  0  0  0  0  0  0
   39.1650   29.2130   42.8230 C   0  0  0  0  0  2  0  0  0  0  0  0
  1  7  1  0  0  0  0
  2  1  1  0  0  0  0
  2 10  1  0  0  0  0
  3  2  2  0  0  0  0
  4  3  1  0  0  0  0
  4  5  2  0  0  0  0
  5  6  1  0  0  0  0
  6  1  2  0  0  0  0
  8  3  1  0  0  0  0
  9  5  1  0  0  0  0
 10 11  1  6  0  0  0
 10 16  1  0  0  0  0
 10 12  1  0  0  0  0
 12 13  1  0  0  0  0
 12 14  1  0  0  0  0
 15 12  1  0  0  0  0
 17 18  1  0  0  0  0
 17 16  1  0  0  0  0
 18 16  1  0  0  0  0
M  END
>  <minimizedAffinity>
-3.30680418

$$$$
