
 OpenBabel03252501223D

 27 28  0  0  0  0  0  0  0  0999 V2000
   44.8870   36.1670   43.1800 C   0  0  0  0  0  0  0  0  0  0  0  0
   45.3090   36.4720   42.2280 H   0  0  0  0  0  0  0  0  0  0  0  0
   43.8270   35.8690   42.9780 H   0  0  0  0  0  0  0  0  0  0  0  0
   45.0900   34.7370   45.1530 C   0  0  0  0  0  0  0  0  0  0  0  0
   45.5310   35.0720   43.8810 C   0  0  0  0  0  0  0  0  0  0  0  0
   46.5630   34.3260   43.3600 C   0  0  0  0  0  0  0  0  0  0  0  0
   47.1040   33.3010   44.1030 N   0  0  0  0  0  0  0  0  0  0  0  0
   46.6580   33.0130   45.3300 C   0  0  0  0  0  0  0  0  0  0  0  0
   45.6210   33.7380   45.8670 N   0  0  0  0  0  0  0  0  0  0  0  0
   44.2740   35.2910   45.5950 H   0  0  0  0  0  0  0  0  0  0  0  0
   47.0320   32.1410   45.8290 H   0  0  0  0  0  0  0  0  0  0  0  0
   46.9970   34.6950   42.0050 C   0  0  0  0  0  0  0  0  0  0  0  0
   47.8970   33.7440   41.5430 F   0  0  0  0  0  0  0  0  0  0  0  0
   47.6890   35.8710   42.1350 F   0  0  0  0  0  0  0  0  0  0  0  0
   45.9690   34.6960   41.1330 F   0  0  0  0  0  0  0  0  0  0  0  0
   44.8070   37.3500   44.0320 N   0  0  0  0  0  0  0  0  0  0  0  0
   45.0100   37.1250   45.0330 H   0  0  0  0  0  0  0  0  0  0  0  0
   45.7850   38.2840   43.5280 C   0  0  0  0  0  0  0  0  0  0  0  0
   46.0790   38.1050   42.4850 H   0  0  0  0  0  0  0  0  0  0  0  0
   46.7060   38.1370   44.1470 H   0  0  0  0  0  0  0  0  0  0  0  0
   45.3560   39.7180   43.6890 C   0  0  0  0  0  0  0  0  0  0  0  0
   46.0960   40.3520   43.1790 H   0  0  0  0  0  0  0  0  0  0  0  0
   44.3500   39.8130   43.2220 H   0  0  0  0  0  0  0  0  0  0  0  0
   45.3100   40.0960   45.4700 S   0  0  0  0  0  0  0  0  0  0  0  0
   44.0980   41.4130   45.7010 C   0  0  0  0  0  0  0  0  0  0  0  0
   44.3940   42.8120   45.3540 C   0  0  0  0  0  0  0  0  0  0  0  0
   44.4170   42.4470   46.7780 C   0  0  0  0  0  0  0  0  0  0  0  0
  1  5  1  0  0  0  0
  1 16  1  0  0  0  0
  2  1  1  0  0  0  0
  3  1  1  0  0  0  0
  4 10  1  0  0  0  0
  4  9  1  0  0  0  0
  5  4  2  0  0  0  0
  6  5  1  0  0  0  0
  6  7  2  0  0  0  0
  7  8  1  0  0  0  0
  8 11  1  0  0  0  0
  8  9  2  0  0  0  0
 12 14  1  0  0  0  0
 12  6  1  0  0  0  0
 13 12  1  0  0  0  0
 15 12  1  0  0  0  0
 16 17  1  0  0  0  0
 18 21  1  0  0  0  0
 18 16  1  0  0  0  0
 18 20  1  0  0  0  0
 19 18  1  0  0  0  0
 21 24  1  0  0  0  0
 22 21  1  0  0  0  0
 23 21  1  0  0  0  0
 24 25  1  0  0  0  0
 25 27  1  0  0  0  0
 26 25  1  0  0  0  0
 26 27  1  0  0  0  0
M  END
>  <minimizedAffinity>
-3.81576443

>  <minimizedRMSD>
1.20952308

$$$$
