
 OpenBabel03252509003D

 39 41  0  0  1  0  0  0  0  0999 V2000
   46.5740   34.5850   43.5740 N   0  0  0  0  0  0  0  0  0  0  0  0
   46.0690   35.4670   42.5810 C   0  0  0  0  0  0  0  0  0  0  0  0
   44.5630   35.5730   42.5230 C   0  0  0  0  0  0  0  0  0  0  0  0
   43.8790   35.4360   43.8570 C   0  0  0  0  0  0  0  0  0  0  0  0
   44.8720   35.3060   44.9850 C   0  0  0  0  0  0  0  0  0  0  0  0
   45.7410   34.0710   44.5560 C   0  0  2  0  0  0  0  0  0  0  0  0
   46.4250   36.4940   42.8400 H   0  0  0  0  0  0  0  0  0  0  0  0
   46.4190   35.2910   41.5620 H   0  0  0  0  0  0  0  0  0  0  0  0
   44.2110   34.8180   41.7860 H   0  0  0  0  0  0  0  0  0  0  0  0
   44.3050   36.5560   42.0710 H   0  0  0  0  0  0  0  0  0  0  0  0
   43.2470   34.5340   43.8150 H   0  0  0  0  0  0  0  0  0  0  0  0
   43.2590   36.3420   44.0690 H   0  0  0  0  0  0  0  0  0  0  0  0
   45.5440   36.1620   45.0460 H   0  0  0  0  0  0  0  0  0  0  0  0
   44.3180   35.0650   45.8940 H   0  0  0  0  0  0  0  0  0  0  0  0
   45.0210   33.2790   44.2870 H   0  0  0  0  0  0  0  0  0  0  0  0
   47.7030   33.8100   43.1500 C   0  0  0  0  0  0  0  0  0  0  0  0
   48.3950   34.4710   42.6020 H   0  0  0  0  0  0  0  0  0  0  0  0
   48.2040   33.4220   44.0690 H   0  0  0  0  0  0  0  0  0  0  0  0
   47.2240   32.6420   42.3560 C   0  0  0  0  0  0  0  0  0  0  0  0
   47.4120   31.6580   42.8030 H   0  0  0  0  0  0  0  0  0  0  0  0
   46.1190   32.7000   42.2060 H   0  0  0  0  0  0  0  0  0  0  0  0
   49.4610   31.9680   39.4090 C   0  0  0  0  0  0  0  0  0  0  0  0
   48.8970   31.9150   40.6970 C   0  0  0  0  0  0  0  0  0  0  0  0
   47.8100   32.7100   40.9900 C   0  0  0  0  0  0  0  0  0  0  0  0
   47.3410   33.5030   40.0210 N   0  0  0  0  0  0  0  0  0  0  0  0
   47.8880   33.5470   38.7910 C   0  0  0  0  0  0  0  0  0  0  0  0
   48.9490   32.7840   38.4740 N   0  0  0  0  0  0  0  0  0  0  0  0
   50.3130   31.3450   39.1770 H   0  0  0  0  0  0  0  0  0  0  0  0
   49.3340   31.2440   41.4290 H   0  0  0  0  0  0  0  0  0  0  0  0
   47.4960   34.1940   38.0200 H   0  0  0  0  0  0  0  0  0  0  0  0
   46.4460   33.8070   45.7310 O   0  0  0  0  0  0  0  0  0  0  0  0
   45.6790   31.3210   45.1940 O   0  0  0  0  0  0  0  0  0  0  0  0
   46.2030   32.2440   46.2980 P   0  0  2  0  0  0  0  0  0  0  0  0
   44.9220   32.3440   47.4260 O   0  0  0  0  0  0  0  0  0  0  0  0
   45.0880   33.0760   48.0650 H   0  0  0  0  0  0  0  0  0  0  0  0
   47.5380   31.6300   47.0690 O   0  0  0  0  0  0  0  0  0  0  0  0
   47.5950   31.8240   48.4250 C   0  0  0  0  0  3  0  0  0  0  0  0
   47.8460   30.7190   49.3760 C   0  0  0  0  0  2  0  0  0  0  0  0
   48.9900   31.6080   49.0240 C   0  0  0  0  0  2  0  0  0  0  0  0
  1  6  1  0  0  0  0
  2  7  1  0  0  0  0
  2  1  1  0  0  0  0
  3  2  1  0  0  0  0
  3  4  1  0  0  0  0
  4 12  1  0  0  0  0
  4  5  1  0  0  0  0
  5 13  1  0  0  0  0
  5 14  1  0  0  0  0
  6 15  1  6  0  0  0
  6  5  1  0  0  0  0
  6 31  1  0  0  0  0
  8  2  1  0  0  0  0
  9  3  1  0  0  0  0
 10  3  1  0  0  0  0
 11  4  1  0  0  0  0
 16  1  1  0  0  0  0
 16 18  1  0  0  0  0
 17 16  1  0  0  0  0
 19 20  1  0  0  0  0
 19 16  1  0  0  0  0
 21 19  1  0  0  0  0
 22 23  1  0  0  0  0
 23 24  2  0  0  0  0
 23 29  1  0  0  0  0
 24 19  1  0  0  0  0
 25 24  1  0  0  0  0
 26 25  2  0  0  0  0
 27 26  1  0  0  0  0
 27 22  2  0  0  0  0
 28 22  1  0  0  0  0
 30 26  1  0  0  0  0
 31 33  1  0  0  0  0
 33 32  2  6  0  0  0
 33 36  1  0  0  0  0
 33 34  1  0  0  0  0
 34 35  1  0  0  0  0
 36 37  1  0  0  0  0
 37 39  1  0  0  0  0
 37 38  1  0  0  0  0
 39 38  1  0  0  0  0
M  END
>  <minimizedAffinity>
-4.39576387

>  <minimizedRMSD>
1.49844515

$$$$
