
 OpenBabel03252500553D

 24 25  0  0  0  0  0  0  0  0999 V2000
   38.3640   27.2790   42.9500 C   0  0  0  0  0  0  0  0  0  0  0  0
   38.5930   28.6310   42.7510 C   0  0  0  0  0  0  0  0  0  0  0  0
   39.9410   29.0720   42.7660 C   0  0  0  0  0  0  0  0  0  0  0  0
   40.8930   28.1540   42.9730 N   0  0  0  0  0  0  0  0  0  0  0  0
   40.6360   26.8390   43.1640 C   0  0  0  0  0  0  0  0  0  0  0  0
   39.3710   26.4370   43.1480 N   0  0  0  0  0  0  0  0  0  0  0  0
   40.0760   30.1130   42.6100 H   0  0  0  0  0  0  0  0  0  0  0  0
   41.4980   26.1960   43.3210 H   0  0  0  0  0  0  0  0  0  0  0  0
   36.9990   26.7580   42.9470 C   0  0  0  0  0  0  0  0  0  0  0  0
   36.7220   26.5420   43.9990 H   0  0  0  0  0  0  0  0  0  0  0  0
   36.2480   27.4720   42.5740 H   0  0  0  0  0  0  0  0  0  0  0  0
   36.9770   25.4410   42.2140 C   0  0  0  0  0  0  0  0  0  0  0  0
   36.6870   25.6460   41.1600 H   0  0  0  0  0  0  0  0  0  0  0  0
   36.2970   24.7200   42.6860 H   0  0  0  0  0  0  0  0  0  0  0  0
   37.9740   24.9610   42.1950 H   0  0  0  0  0  0  0  0  0  0  0  0
   37.4870   29.4470   42.5520 O   0  0  0  0  0  0  0  0  0  0  0  0
   36.6420   28.9720   40.1190 O   0  0  0  0  0  0  0  0  0  0  0  0
   36.9680   30.1000   41.0980 P   0  0  1  0  0  0  0  0  0  0  0  0
   35.5530   30.9850   41.3890 O   0  0  0  0  0  0  0  0  0  0  0  0
   35.8130   31.6750   42.0540 H   0  0  0  0  0  0  0  0  0  0  0  0
   38.0790   31.1570   40.3850 O   0  0  0  0  0  0  0  0  0  0  0  0
   37.7270   32.4830   40.5510 C   0  0  0  0  0  3  0  0  0  0  0  0
   37.2840   33.1670   39.2770 C   0  0  0  0  0  2  0  0  0  0  0  0
   38.5890   33.5400   39.8880 C   0  0  0  0  0  2  0  0  0  0  0  0
  1  6  1  0  0  0  0
  2  3  1  0  0  0  0
  2  1  2  0  0  0  0
  3  4  2  0  0  0  0
  4  5  1  0  0  0  0
  5  8  1  0  0  0  0
  6  5  2  0  0  0  0
  7  3  1  0  0  0  0
  9  1  1  0  0  0  0
  9 10  1  0  0  0  0
 11  9  1  0  0  0  0
 12 14  1  0  0  0  0
 12  9  1  0  0  0  0
 13 12  1  0  0  0  0
 15 12  1  0  0  0  0
 16  2  1  0  0  0  0
 18 17  2  6  0  0  0
 18 19  1  0  0  0  0
 18 16  1  0  0  0  0
 19 20  1  0  0  0  0
 21 22  1  0  0  0  0
 21 18  1  0  0  0  0
 23 24  1  0  0  0  0
 23 22  1  0  0  0  0
 24 22  1  0  0  0  0
M  END
>  <minimizedAffinity>
-4.56419468

$$$$

 OpenBabel03252500553D

 24 25  0  0  0  0  0  0  0  0999 V2000
   37.7980   26.7040   42.3840 C   0  0  0  0  0  0  0  0  0  0  0  0
   37.4530   28.0370   42.2270 C   0  0  0  0  0  0  0  0  0  0  0  0
   38.4180   29.0080   42.6000 C   0  0  0  0  0  0  0  0  0  0  0  0
   39.5890   28.5680   43.0760 N   0  0  0  0  0  0  0  0  0  0  0  0
   39.8950   27.2580   43.2180 C   0  0  0  0  0  0  0  0  0  0  0  0
   38.9850   26.3580   42.8660 N   0  0  0  0  0  0  0  0  0  0  0  0
   38.1170   30.0170   42.4650 H   0  0  0  0  0  0  0  0  0  0  0  0
   40.8810   27.0320   43.6170 H   0  0  0  0  0  0  0  0  0  0  0  0
   36.8500   25.6530   42.0190 C   0  0  0  0  0  0  0  0  0  0  0  0
   36.0870   25.6000   42.8230 H   0  0  0  0  0  0  0  0  0  0  0  0
   36.2970   25.8520   41.0880 H   0  0  0  0  0  0  0  0  0  0  0  0
   37.5660   24.3270   42.0110 C   0  0  0  0  0  0  0  0  0  0  0  0
   37.8850   24.1230   40.9660 H   0  0  0  0  0  0  0  0  0  0  0  0
   36.9360   23.5190   42.4050 H   0  0  0  0  0  0  0  0  0  0  0  0
   38.4780   24.3450   42.6380 H   0  0  0  0  0  0  0  0  0  0  0  0
   36.1920   28.3180   41.7170 O   0  0  0  0  0  0  0  0  0  0  0  0
   34.4840   29.0930   39.8890 O   0  0  0  0  0  0  0  0  0  0  0  0
   35.8090   29.4640   40.5560 P   0  0  1  0  0  0  0  0  0  0  0  0
   35.6220   30.9600   41.3290 O   0  0  0  0  0  0  0  0  0  0  0  0
   36.4940   31.1320   41.7720 H   0  0  0  0  0  0  0  0  0  0  0  0
   36.9970   29.6620   39.3690 O   0  0  0  0  0  0  0  0  0  0  0  0
   36.6490   30.6110   38.4270 C   0  0  0  0  0  3  0  0  0  0  0  0
   36.9670   30.2120   37.0040 C   0  0  0  0  0  2  0  0  0  0  0  0
   37.7620   31.2910   37.6520 C   0  0  0  0  0  2  0  0  0  0  0  0
  1  6  1  0  0  0  0
  2  1  2  0  0  0  0
  2  3  1  0  0  0  0
  3  4  2  0  0  0  0
  4  5  1  0  0  0  0
  5  8  1  0  0  0  0
  6  5  2  0  0  0  0
  7  3  1  0  0  0  0
  9  1  1  0  0  0  0
  9 10  1  0  0  0  0
 11  9  1  0  0  0  0
 12  9  1  0  0  0  0
 12 14  1  0  0  0  0
 12 15  1  0  0  0  0
 13 12  1  0  0  0  0
 16  2  1  0  0  0  0
 18 17  2  6  0  0  0
 18 19  1  0  0  0  0
 18 16  1  0  0  0  0
 19 20  1  0  0  0  0
 21 18  1  0  0  0  0
 22 21  1  0  0  0  0
 23 24  1  0  0  0  0
 23 22  1  0  0  0  0
 24 22  1  0  0  0  0
M  END
>  <minimizedAffinity>
-4.5479331

$$$$

 OpenBabel03252500553D

 24 25  0  0  0  0  0  0  0  0999 V2000
   36.2170   28.9780   41.1590 C   0  0  0  0  0  0  0  0  0  0  0  0
   37.0120   30.0670   41.4830 C   0  0  0  0  0  0  0  0  0  0  0  0
   38.1410   29.8260   42.3070 C   0  0  0  0  0  0  0  0  0  0  0  0
   38.3580   28.5700   42.7130 N   0  0  0  0  0  0  0  0  0  0  0  0
   37.5620   27.5280   42.3790 C   0  0  0  0  0  0  0  0  0  0  0  0
   36.5080   27.7630   41.6070 N   0  0  0  0  0  0  0  0  0  0  0  0
   38.7240   30.6850   42.5330 H   0  0  0  0  0  0  0  0  0  0  0  0
   37.8480   26.5550   42.7740 H   0  0  0  0  0  0  0  0  0  0  0  0
   35.0390   29.1550   40.3140 C   0  0  0  0  0  0  0  0  0  0  0  0
   34.2030   28.5990   40.7870 H   0  0  0  0  0  0  0  0  0  0  0  0
   34.7000   30.2000   40.2320 H   0  0  0  0  0  0  0  0  0  0  0  0
   35.2900   28.5080   38.9770 C   0  0  0  0  0  0  0  0  0  0  0  0
   35.6570   29.2960   38.2840 H   0  0  0  0  0  0  0  0  0  0  0  0
   34.3920   28.0130   38.5850 H   0  0  0  0  0  0  0  0  0  0  0  0
   36.0740   27.7280   39.0350 H   0  0  0  0  0  0  0  0  0  0  0  0
   36.6410   31.3060   40.9760 O   0  0  0  0  0  0  0  0  0  0  0  0
   36.9220   31.5740   38.3860 O   0  0  0  0  0  0  0  0  0  0  0  0
   37.3820   32.1440   39.7290 P   0  0  1  0  0  0  0  0  0  0  0  0
   36.8980   33.7650   39.8190 O   0  0  0  0  0  0  0  0  0  0  0  0
   37.1880   34.0710   40.7190 H   0  0  0  0  0  0  0  0  0  0  0  0
   39.0720   32.1240   39.7970 O   0  0  0  0  0  0  0  0  0  0  0  0
   39.5840   33.1990   40.4970 C   0  0  0  0  0  3  0  0  0  0  0  0
   40.3890   34.1590   39.6480 C   0  0  0  0  0  2  0  0  0  0  0  0
   41.0900   33.3040   40.6440 C   0  0  0  0  0  2  0  0  0  0  0  0
  1  2  2  0  0  0  0
  1  6  1  0  0  0  0
  2  3  1  0  0  0  0
  3  7  1  0  0  0  0
  3  4  2  0  0  0  0
  5  4  1  0  0  0  0
  5  8  1  0  0  0  0
  6  5  2  0  0  0  0
  9 10  1  0  0  0  0
  9  1  1  0  0  0  0
 11  9  1  0  0  0  0
 12 15  1  0  0  0  0
 12  9  1  0  0  0  0
 13 12  1  0  0  0  0
 14 12  1  0  0  0  0
 16  2  1  0  0  0  0
 18 17  2  6  0  0  0
 18 21  1  0  0  0  0
 18 19  1  0  0  0  0
 18 16  1  0  0  0  0
 19 20  1  0  0  0  0
 21 22  1  0  0  0  0
 22 24  1  0  0  0  0
 23 22  1  0  0  0  0
 23 24  1  0  0  0  0
M  END
>  <minimizedAffinity>
-4.41668844

$$$$

 OpenBabel03252500553D

 24 25  0  0  0  0  0  0  0  0999 V2000
   37.0800   30.3180   40.0080 C   0  0  0  0  0  0  0  0  0  0  0  0
   38.1220   30.1110   40.8980 C   0  0  0  0  0  0  0  0  0  0  0  0
   38.8470   31.2520   41.3290 C   0  0  0  0  0  0  0  0  0  0  0  0
   38.4760   32.4430   40.8460 N   0  0  0  0  0  0  0  0  0  0  0  0
   37.4520   32.6120   39.9760 C   0  0  0  0  0  0  0  0  0  0  0  0
   36.7800   31.5380   39.5790 N   0  0  0  0  0  0  0  0  0  0  0  0
   39.6370   31.0520   42.0090 H   0  0  0  0  0  0  0  0  0  0  0  0
   37.2500   33.6320   39.6590 H   0  0  0  0  0  0  0  0  0  0  0  0
   36.2930   29.1870   39.5240 C   0  0  0  0  0  0  0  0  0  0  0  0
   36.0260   29.3950   38.4670 H   0  0  0  0  0  0  0  0  0  0  0  0
   36.8400   28.2310   39.5170 H   0  0  0  0  0  0  0  0  0  0  0  0
   34.9990   29.1220   40.2940 C   0  0  0  0  0  0  0  0  0  0  0  0
   35.1410   28.4060   41.1320 H   0  0  0  0  0  0  0  0  0  0  0  0
   34.1550   28.8320   39.6540 H   0  0  0  0  0  0  0  0  0  0  0  0
   34.7320   30.1010   40.7370 H   0  0  0  0  0  0  0  0  0  0  0  0
   38.3750   28.8050   41.2980 O   0  0  0  0  0  0  0  0  0  0  0  0
   39.2810   27.7850   43.5330 O   0  0  0  0  0  0  0  0  0  0  0  0
   37.9930   28.1150   42.7770 P   0  0  1  0  0  0  0  0  0  0  0  0
   37.1150   29.2480   43.6790 O   0  0  0  0  0  0  0  0  0  0  0  0
   36.3140   29.4510   43.1280 H   0  0  0  0  0  0  0  0  0  0  0  0
   37.0400   26.7230   42.6590 O   0  0  0  0  0  0  0  0  0  0  0  0
   37.6220   25.7500   41.8690 C   0  0  0  0  0  3  0  0  0  0  0  0
   36.9280   25.5390   40.5420 C   0  0  0  0  0  2  0  0  0  0  0  0
   36.8300   24.4870   41.5910 C   0  0  0  0  0  2  0  0  0  0  0  0
  1  2  1  0  0  0  0
  2 16  1  0  0  0  0
  2  3  2  0  0  0  0
  3  7  1  0  0  0  0
  4  3  1  0  0  0  0
  5  4  2  0  0  0  0
  6  5  1  0  0  0  0
  6  1  2  0  0  0  0
  8  5  1  0  0  0  0
  9  1  1  0  0  0  0
  9 12  1  0  0  0  0
 10  9  1  0  0  0  0
 11  9  1  0  0  0  0
 12 15  1  0  0  0  0
 12 13  1  0  0  0  0
 14 12  1  0  0  0  0
 16 18  1  0  0  0  0
 18 17  2  1  0  0  0
 18 19  1  0  0  0  0
 20 19  1  0  0  0  0
 21 18  1  0  0  0  0
 22 21  1  0  0  0  0
 23 24  1  0  0  0  0
 23 22  1  0  0  0  0
 24 22  1  0  0  0  0
M  END
>  <minimizedAffinity>
-4.30219269

$$$$

 OpenBabel03252500553D

 24 25  0  0  0  0  0  0  0  0999 V2000
   38.3000   27.8520   42.9640 C   0  0  0  0  0  0  0  0  0  0  0  0
   37.2630   27.2480   42.2710 C   0  0  0  0  0  0  0  0  0  0  0  0
   37.3630   25.8530   42.0350 C   0  0  0  0  0  0  0  0  0  0  0  0
   38.4490   25.2210   42.4950 N   0  0  0  0  0  0  0  0  0  0  0  0
   39.4460   25.8400   43.1690 C   0  0  0  0  0  0  0  0  0  0  0  0
   39.3420   27.1460   43.3850 N   0  0  0  0  0  0  0  0  0  0  0  0
   36.5500   25.4280   41.5010 H   0  0  0  0  0  0  0  0  0  0  0  0
   40.2740   25.2140   43.4910 H   0  0  0  0  0  0  0  0  0  0  0  0
   38.2600   29.2860   43.2410 C   0  0  0  0  0  0  0  0  0  0  0  0
   37.3610   29.6970   42.7380 H   0  0  0  0  0  0  0  0  0  0  0  0
   38.1510   29.5330   44.3090 H   0  0  0  0  0  0  0  0  0  0  0  0
   39.4550   29.9440   42.6010 C   0  0  0  0  0  0  0  0  0  0  0  0
   40.2520   30.0210   43.3730 H   0  0  0  0  0  0  0  0  0  0  0  0
   39.2060   30.9260   42.1800 H   0  0  0  0  0  0  0  0  0  0  0  0
   39.8620   29.3420   41.7660 H   0  0  0  0  0  0  0  0  0  0  0  0
   36.2080   28.0550   41.8630 O   0  0  0  0  0  0  0  0  0  0  0  0
   35.9980   27.5830   39.2960 O   0  0  0  0  0  0  0  0  0  0  0  0
   35.9700   28.7030   40.3370 P   0  0  1  0  0  0  0  0  0  0  0  0
   34.4410   29.4320   40.3020 O   0  0  0  0  0  0  0  0  0  0  0  0
   34.4680   30.1210   41.0170 H   0  0  0  0  0  0  0  0  0  0  0  0
   37.0980   29.8900   39.9120 O   0  0  0  0  0  0  0  0  0  0  0  0
   36.6010   31.1700   40.0700 C   0  0  0  0  0  3  0  0  0  0  0  0
   37.0880   32.1520   39.0280 C   0  0  0  0  0  2  0  0  0  0  0  0
   37.5760   32.2750   40.4290 C   0  0  0  0  0  2  0  0  0  0  0  0
  1  9  1  0  0  0  0
  1  6  1  0  0  0  0
  2  1  2  0  0  0  0
  3  2  1  0  0  0  0
  3  4  2  0  0  0  0
  4  5  1  0  0  0  0
  5  6  2  0  0  0  0
  5  8  1  0  0  0  0
  7  3  1  0  0  0  0
  9 11  1  0  0  0  0
 10  9  1  0  0  0  0
 12  9  1  0  0  0  0
 12 13  1  0  0  0  0
 14 12  1  0  0  0  0
 15 12  1  0  0  0  0
 16  2  1  0  0  0  0
 18 17  2  6  0  0  0
 18 16  1  0  0  0  0
 19 18  1  0  0  0  0
 19 20  1  0  0  0  0
 21 22  1  0  0  0  0
 21 18  1  0  0  0  0
 22 24  1  0  0  0  0
 23 22  1  0  0  0  0
 23 24  1  0  0  0  0
M  END
>  <minimizedAffinity>
-4.27705145

$$$$

 OpenBabel03252500553D

 24 25  0  0  0  0  0  0  0  0999 V2000
   37.9250   25.5980   42.4060 C   0  0  0  0  0  0  0  0  0  0  0  0
   37.7710   26.9560   42.6340 C   0  0  0  0  0  0  0  0  0  0  0  0
   38.8240   27.6270   43.3070 C   0  0  0  0  0  0  0  0  0  0  0  0
   39.8870   26.9030   43.6740 N   0  0  0  0  0  0  0  0  0  0  0  0
   40.0080   25.5760   43.4360 C   0  0  0  0  0  0  0  0  0  0  0  0
   39.0160   24.9570   42.8050 N   0  0  0  0  0  0  0  0  0  0  0  0
   38.6690   28.6660   43.4620 H   0  0  0  0  0  0  0  0  0  0  0  0
   40.9220   25.1030   43.7850 H   0  0  0  0  0  0  0  0  0  0  0  0
   36.8770   24.8460   41.7180 C   0  0  0  0  0  0  0  0  0  0  0  0
   36.1290   24.5450   42.4800 H   0  0  0  0  0  0  0  0  0  0  0  0
   36.3270   25.4310   40.9650 H   0  0  0  0  0  0  0  0  0  0  0  0
   37.4680   23.5760   41.1640 C   0  0  0  0  0  0  0  0  0  0  0  0
   37.7460   23.7670   40.1050 H   0  0  0  0  0  0  0  0  0  0  0  0
   36.7740   22.7290   41.2510 H   0  0  0  0  0  0  0  0  0  0  0  0
   38.3900   23.2790   41.7000 H   0  0  0  0  0  0  0  0  0  0  0  0
   36.5990   27.5540   42.1860 O   0  0  0  0  0  0  0  0  0  0  0  0
   36.5130   27.7550   39.5770 O   0  0  0  0  0  0  0  0  0  0  0  0
   36.4310   28.5720   40.8660 P   0  0  1  0  0  0  0  0  0  0  0  0
   34.9030   29.2980   40.9480 O   0  0  0  0  0  0  0  0  0  0  0  0
   34.8930   29.7810   41.8150 H   0  0  0  0  0  0  0  0  0  0  0  0
   37.5730   29.8190   40.8120 O   0  0  0  0  0  0  0  0  0  0  0  0
   36.9900   31.0700   40.8740 C   0  0  0  0  0  3  0  0  0  0  0  0
   36.8810   31.7660   39.5360 C   0  0  0  0  0  2  0  0  0  0  0  0
   37.8500   32.2760   40.5440 C   0  0  0  0  0  2  0  0  0  0  0  0
  1  2  2  0  0  0  0
  1  6  1  0  0  0  0
  2  3  1  0  0  0  0
  3  7  1  0  0  0  0
  3  4  2  0  0  0  0
  5  4  1  0  0  0  0
  5  8  1  0  0  0  0
  6  5  2  0  0  0  0
  9  1  1  0  0  0  0
  9 10  1  0  0  0  0
 11  9  1  0  0  0  0
 12 14  1  0  0  0  0
 12 15  1  0  0  0  0
 12  9  1  0  0  0  0
 13 12  1  0  0  0  0
 16  2  1  0  0  0  0
 18 17  2  6  0  0  0
 18 19  1  0  0  0  0
 18 16  1  0  0  0  0
 19 20  1  0  0  0  0
 21 18  1  0  0  0  0
 21 22  1  0  0  0  0
 23 24  1  0  0  0  0
 23 22  1  0  0  0  0
 24 22  1  0  0  0  0
M  END
>  <minimizedAffinity>
-4.24990845

$$$$

 OpenBabel03252500553D

 24 25  0  0  0  0  0  0  0  0999 V2000
   39.4700   31.8670   40.7080 C   0  0  0  0  0  0  0  0  0  0  0  0
   38.2240   31.4480   40.2680 C   0  0  0  0  0  0  0  0  0  0  0  0
   37.3120   32.4490   39.8470 C   0  0  0  0  0  0  0  0  0  0  0  0
   37.7160   33.7220   39.9060 N   0  0  0  0  0  0  0  0  0  0  0  0
   38.9410   34.1000   40.3410 C   0  0  0  0  0  0  0  0  0  0  0  0
   39.7880   33.1550   40.7330 N   0  0  0  0  0  0  0  0  0  0  0  0
   36.3690   32.0880   39.5180 H   0  0  0  0  0  0  0  0  0  0  0  0
   39.1470   35.1670   40.3400 H   0  0  0  0  0  0  0  0  0  0  0  0
   40.4580   30.8880   41.1560 C   0  0  0  0  0  0  0  0  0  0  0  0
   40.0390   29.8790   40.9610 H   0  0  0  0  0  0  0  0  0  0  0  0
   41.4120   30.9320   40.6090 H   0  0  0  0  0  0  0  0  0  0  0  0
   40.6260   31.0070   42.6490 C   0  0  0  0  0  0  0  0  0  0  0  0
   41.4960   31.6720   42.8380 H   0  0  0  0  0  0  0  0  0  0  0  0
   40.7570   30.0260   43.1260 H   0  0  0  0  0  0  0  0  0  0  0  0
   39.7440   31.4710   43.1290 H   0  0  0  0  0  0  0  0  0  0  0  0
   37.9680   30.0820   40.2730 O   0  0  0  0  0  0  0  0  0  0  0  0
   37.3830   29.5250   42.7640 O   0  0  0  0  0  0  0  0  0  0  0  0
   36.9570   29.2530   41.3210 P   0  0  1  0  0  0  0  0  0  0  0  0
   35.3800   29.8350   41.1070 O   0  0  0  0  0  0  0  0  0  0  0  0
   35.1710   29.6670   40.1510 H   0  0  0  0  0  0  0  0  0  0  0  0
   36.9130   27.5830   41.0550 O   0  0  0  0  0  0  0  0  0  0  0  0
   37.0370   26.8600   42.2250 C   0  0  0  0  0  3  0  0  0  0  0  0
   38.3450   26.1120   42.3510 C   0  0  0  0  0  2  0  0  0  0  0  0
   37.0880   25.3470   42.1280 C   0  0  0  0  0  2  0  0  0  0  0  0
  1  6  1  0  0  0  0
  1  9  1  0  0  0  0
  2 16  1  0  0  0  0
  2  1  2  0  0  0  0
  3  4  2  0  0  0  0
  3  2  1  0  0  0  0
  4  5  1  0  0  0  0
  5  6  2  0  0  0  0
  7  3  1  0  0  0  0
  8  5  1  0  0  0  0
  9 12  1  0  0  0  0
 10  9  1  0  0  0  0
 11  9  1  0  0  0  0
 12 13  1  0  0  0  0
 12 14  1  0  0  0  0
 12 15  1  0  0  0  0
 16 18  1  0  0  0  0
 18 17  2  1  0  0  0
 19 18  1  0  0  0  0
 20 19  1  0  0  0  0
 21 18  1  0  0  0  0
 21 22  1  0  0  0  0
 22 23  1  0  0  0  0
 24 22  1  0  0  0  0
 24 23  1  0  0  0  0
M  END
>  <minimizedAffinity>
-4.10765553

$$$$

 OpenBabel03252500553D

 24 25  0  0  0  0  0  0  0  0999 V2000
   37.0190   26.0490   39.8800 C   0  0  0  0  0  0  0  0  0  0  0  0
   37.3860   26.6730   41.0620 C   0  0  0  0  0  0  0  0  0  0  0  0
   37.2990   25.9100   42.2550 C   0  0  0  0  0  0  0  0  0  0  0  0
   36.8700   24.6470   42.1540 N   0  0  0  0  0  0  0  0  0  0  0  0
   36.5190   24.0660   40.9840 C   0  0  0  0  0  0  0  0  0  0  0  0
   36.6040   24.7890   39.8730 N   0  0  0  0  0  0  0  0  0  0  0  0
   37.5880   26.4230   43.1380 H   0  0  0  0  0  0  0  0  0  0  0  0
   36.1870   23.0330   41.0370 H   0  0  0  0  0  0  0  0  0  0  0  0
   37.0850   26.7770   38.6150 C   0  0  0  0  0  0  0  0  0  0  0  0
   37.6430   27.7180   38.8010 H   0  0  0  0  0  0  0  0  0  0  0  0
   37.6360   26.2490   37.8210 H   0  0  0  0  0  0  0  0  0  0  0  0
   35.6900   27.1740   38.2030 C   0  0  0  0  0  0  0  0  0  0  0  0
   35.3110   26.3970   37.5040 H   0  0  0  0  0  0  0  0  0  0  0  0
   35.6660   28.1730   37.7470 H   0  0  0  0  0  0  0  0  0  0  0  0
   34.9980   27.2090   39.0660 H   0  0  0  0  0  0  0  0  0  0  0  0
   37.8090   27.9940   40.9860 O   0  0  0  0  0  0  0  0  0  0  0  0
   35.5200   29.2650   41.0300 O   0  0  0  0  0  0  0  0  0  0  0  0
   36.9710   29.3500   41.5040 P   0  0  1  0  0  0  0  0  0  0  0  0
   36.9830   29.3650   43.1980 O   0  0  0  0  0  0  0  0  0  0  0  0
   37.9440   29.3830   43.4490 H   0  0  0  0  0  0  0  0  0  0  0  0
   37.6440   30.8120   40.9870 O   0  0  0  0  0  0  0  0  0  0  0  0
   36.7750   31.5450   40.2020 C   0  0  0  0  0  3  0  0  0  0  0  0
   37.0740   31.4740   38.7220 C   0  0  0  0  0  2  0  0  0  0  0  0
   37.3250   32.7450   39.4550 C   0  0  0  0  0  2  0  0  0  0  0  0
  1  2  1  0  0  0  0
  2  3  2  0  0  0  0
  3  7  1  0  0  0  0
  4  3  1  0  0  0  0
  5  8  1  0  0  0  0
  5  4  2  0  0  0  0
  6  1  2  0  0  0  0
  6  5  1  0  0  0  0
  9 10  1  0  0  0  0
  9  1  1  0  0  0  0
 11  9  1  0  0  0  0
 12  9  1  0  0  0  0
 12 15  1  0  0  0  0
 13 12  1  0  0  0  0
 14 12  1  0  0  0  0
 16  2  1  0  0  0  0
 16 18  1  0  0  0  0
 18 17  2  6  0  0  0
 18 19  1  0  0  0  0
 19 20  1  0  0  0  0
 21 18  1  0  0  0  0
 22 21  1  0  0  0  0
 23 24  1  0  0  0  0
 23 22  1  0  0  0  0
 24 22  1  0  0  0  0
M  END
>  <minimizedAffinity>
-4.08857584

$$$$

 OpenBabel03252500553D

 24 25  0  0  0  0  0  0  0  0999 V2000
   36.3460   29.0600   41.2930 C   0  0  0  0  0  0  0  0  0  0  0  0
   37.1530   30.1500   41.5800 C   0  0  0  0  0  0  0  0  0  0  0  0
   38.2720   29.9270   42.4230 C   0  0  0  0  0  0  0  0  0  0  0  0
   38.4680   28.6850   42.8800 N   0  0  0  0  0  0  0  0  0  0  0  0
   37.6600   27.6410   42.5810 C   0  0  0  0  0  0  0  0  0  0  0  0
   36.6150   27.8600   41.7920 N   0  0  0  0  0  0  0  0  0  0  0  0
   38.8660   30.7850   42.6190 H   0  0  0  0  0  0  0  0  0  0  0  0
   37.9280   26.6820   43.0170 H   0  0  0  0  0  0  0  0  0  0  0  0
   35.1760   29.2200   40.4320 C   0  0  0  0  0  0  0  0  0  0  0  0
   34.3930   28.5260   40.8010 H   0  0  0  0  0  0  0  0  0  0  0  0
   34.7300   30.2270   40.4640 H   0  0  0  0  0  0  0  0  0  0  0  0
   35.5290   28.7750   39.0360 C   0  0  0  0  0  0  0  0  0  0  0  0
   35.8270   29.6770   38.4590 H   0  0  0  0  0  0  0  0  0  0  0  0
   34.6980   28.2440   38.5530 H   0  0  0  0  0  0  0  0  0  0  0  0
   36.3900   28.0780   39.0290 H   0  0  0  0  0  0  0  0  0  0  0  0
   36.8040   31.3730   41.0210 O   0  0  0  0  0  0  0  0  0  0  0  0
   36.9760   32.7610   38.8070 O   0  0  0  0  0  0  0  0  0  0  0  0
   37.7640   32.3450   40.0500 P   0  0  1  0  0  0  0  0  0  0  0  0
   38.1630   33.7390   40.9260 O   0  0  0  0  0  0  0  0  0  0  0  0
   38.6360   33.4090   41.7340 H   0  0  0  0  0  0  0  0  0  0  0  0
   39.2170   31.6210   39.5760 O   0  0  0  0  0  0  0  0  0  0  0  0
   39.5540   31.9200   38.2710 C   0  0  0  0  0  3  0  0  0  0  0  0
   40.7270   31.1280   37.7400 C   0  0  0  0  0  2  0  0  0  0  0  0
   40.8950   32.5810   38.0130 C   0  0  0  0  0  2  0  0  0  0  0  0
  1  2  2  0  0  0  0
  1  6  1  0  0  0  0
  2  3  1  0  0  0  0
  3  7  1  0  0  0  0
  3  4  2  0  0  0  0
  5  4  1  0  0  0  0
  5  8  1  0  0  0  0
  6  5  2  0  0  0  0
  9 11  1  0  0  0  0
  9 10  1  0  0  0  0
  9  1  1  0  0  0  0
 12  9  1  0  0  0  0
 13 12  1  0  0  0  0
 14 12  1  0  0  0  0
 15 12  1  0  0  0  0
 16  2  1  0  0  0  0
 18 17  2  6  0  0  0
 18 19  1  0  0  0  0
 18 16  1  0  0  0  0
 19 20  1  0  0  0  0
 21 18  1  0  0  0  0
 22 21  1  0  0  0  0
 23 24  1  0  0  0  0
 23 22  1  0  0  0  0
 24 22  1  0  0  0  0
M  END
>  <minimizedAffinity>
-4.07618618

$$$$
