
 OpenBabel03242519183D

 37 40  0  0  1  0  0  0  0  0999 V2000
   47.2840   34.7260   41.4190 C   0  0  0  0  0  0  0  0  0  0  0  0
   47.9020   34.7010   42.3570 H   0  0  0  0  0  0  0  0  0  0  0  0
   47.2480   35.8120   41.1300 H   0  0  0  0  0  0  0  0  0  0  0  0
   47.9120   33.8790   40.4130 C   0  0  0  0  0  0  0  0  0  0  0  0
   48.0990   34.2880   39.1130 C   0  0  0  0  0  0  0  0  0  0  0  0
   48.6870   33.4820   38.1360 C   0  0  0  0  0  0  0  0  0  0  0  0
   49.0710   32.2490   38.5550 N   0  0  0  0  0  0  0  0  0  0  0  0
   48.8870   31.8570   39.8210 C   0  0  0  0  0  0  0  0  0  0  0  0
   48.3220   32.6660   40.7140 N   0  0  0  0  0  0  0  0  0  0  0  0
   47.7820   35.2860   38.7930 H   0  0  0  0  0  0  0  0  0  0  0  0
   48.8260   33.8110   37.1290 H   0  0  0  0  0  0  0  0  0  0  0  0
   49.2780   30.4910   40.2710 C   0  0  2  0  0  0  0  0  0  0  0  0
   49.6150   30.2560   41.6870 C   0  0  0  0  0  0  0  0  0  0  0  0
   50.7220   30.2900   40.6310 C   0  0  2  0  0  0  0  0  0  0  0  0
   48.8990   29.7130   39.5770 H   0  0  0  0  0  0  0  0  0  0  0  0
   49.2890   29.2470   42.0660 H   0  0  0  0  0  0  0  0  0  0  0  0
   49.5160   31.0850   42.4040 H   0  0  0  0  0  0  0  0  0  0  0  0
   51.1780   29.2850   40.4510 H   0  0  0  0  0  0  0  0  0  0  0  0
   51.8680   31.6360   40.7500 S   0  0  0  0  0  0  0  0  0  0  0  0
   52.8310   31.3480   41.7380 H   0  0  0  0  0  0  0  0  0  0  0  0
   45.9350   34.2540   41.7310 C   0  0  0  0  0  0  0  0  0  0  0  0
   45.8690   33.1320   41.6370 H   0  0  0  0  0  0  0  0  0  0  0  0
   45.1550   34.6400   41.0570 H   0  0  0  0  0  0  0  0  0  0  0  0
   46.6170   32.1580   43.7180 Cl  0  0  0  0  0  0  0  0  0  0  0  0
   45.8060   33.6340   44.1650 C   0  0  0  0  0  0  0  0  0  0  0  0
   45.5190   34.5290   43.1410 C   0  0  0  0  0  0  0  0  0  0  0  0
   44.8560   35.6770   43.4630 C   0  0  0  0  0  0  0  0  0  0  0  0
   44.4820   35.9440   44.7530 C   0  0  0  0  0  0  0  0  0  0  0  0
   44.7810   35.0310   45.7770 C   0  0  0  0  0  0  0  0  0  0  0  0
   45.4450   33.8780   45.4630 C   0  0  0  0  0  0  0  0  0  0  0  0
   44.5650   36.4580   42.7880 H   0  0  0  0  0  0  0  0  0  0  0  0
   43.9450   36.8590   45.0540 H   0  0  0  0  0  0  0  0  0  0  0  0
   44.4660   35.2890   46.7710 H   0  0  0  0  0  0  0  0  0  0  0  0
   45.7930   32.9160   46.3880 O   0  0  0  0  0  0  0  0  0  0  0  0
   45.2070   32.8420   47.6500 C   0  0  0  0  0  0  0  0  0  0  0  0
   44.9590   31.4560   48.1600 C   0  0  0  0  0  0  0  0  0  0  0  0
   45.9780   32.3330   48.8180 C   0  0  0  0  0  0  0  0  0  0  0  0
  1 21  1  0  0  0  0
  1  2  1  0  0  0  0
  3  1  1  0  0  0  0
  4  9  1  0  0  0  0
  4  1  1  0  0  0  0
  5  4  2  0  0  0  0
  6  7  2  0  0  0  0
  6  5  1  0  0  0  0
  7  8  1  0  0  0  0
  8 12  1  0  0  0  0
  8  9  2  0  0  0  0
 10  5  1  0  0  0  0
 11  6  1  0  0  0  0
 12 15  1  6  0  0  0
 12 14  1  0  0  0  0
 12 13  1  0  0  0  0
 13 16  1  0  0  0  0
 13 17  1  0  0  0  0
 14 18  1  6  0  0  0
 14 19  1  0  0  0  0
 14 13  1  0  0  0  0
 19 20  1  0  0  0  0
 21 26  1  0  0  0  0
 22 21  1  0  0  0  0
 23 21  1  0  0  0  0
 24 25  1  0  0  0  0
 25 30  1  0  0  0  0
 26 27  1  0  0  0  0
 26 25  2  0  0  0  0
 27 28  2  0  0  0  0
 28 32  1  0  0  0  0
 28 29  1  0  0  0  0
 29 33  1  0  0  0  0
 30 29  2  0  0  0  0
 30 34  1  0  0  0  0
 31 27  1  0  0  0  0
 34 35  1  0  0  0  0
 35 36  1  0  0  0  0
 35 37  1  0  0  0  0
 36 37  1  0  0  0  0
M  END
>  <minimizedAffinity>
-5.15426731

>  <minimizedRMSD>
2.14109111

$$$$
