
 OpenBabel03242516223D

 23 25  0  0  0  0  0  0  0  0999 V2000
   46.0360   32.7160   47.0020 C   0  0  0  0  0  0  0  0  0  0  0  0
   47.2450   32.1090   47.2840 C   0  0  0  0  0  0  0  0  0  0  0  0
   47.3890   31.2990   48.4020 C   0  0  0  0  0  0  0  0  0  0  0  0
   46.3310   31.0720   49.2710 C   0  0  0  0  0  0  0  0  0  0  0  0
   45.1230   31.6700   49.0020 C   0  0  0  0  0  0  0  0  0  0  0  0
   45.0010   32.4720   47.8840 C   0  0  0  0  0  0  0  0  0  0  0  0
   48.0840   32.2650   46.6300 H   0  0  0  0  0  0  0  0  0  0  0  0
   46.5280   30.4280   50.1170 H   0  0  0  0  0  0  0  0  0  0  0  0
   44.3210   31.4770   49.6900 H   0  0  0  0  0  0  0  0  0  0  0  0
   44.0230   32.9310   47.7020 H   0  0  0  0  0  0  0  0  0  0  0  0
   44.7220   35.3620   44.8680 C   0  0  0  0  0  0  0  0  0  0  0  0
   45.4660   35.2580   43.7010 C   0  0  0  0  0  0  0  0  0  0  0  0
   46.4450   34.2560   43.6420 C   0  0  0  0  0  0  0  0  0  0  0  0
   46.6470   33.4140   44.7130 N   0  0  0  0  0  0  0  0  0  0  0  0
   45.8830   33.5710   45.8280 C   0  0  0  0  0  0  0  0  0  0  0  0
   44.9370   34.5320   45.8960 N   0  0  0  0  0  0  0  0  0  0  0  0
   43.9480   36.1030   45.0030 H   0  0  0  0  0  0  0  0  0  0  0  0
   45.2900   35.9290   42.8760 H   0  0  0  0  0  0  0  0  0  0  0  0
   47.0300   34.1590   42.7520 H   0  0  0  0  0  0  0  0  0  0  0  0
   48.9740   30.5770   48.7050 S   0  0  0  0  0  0  0  0  0  0  0  0
   49.9320   31.8420   49.6230 C   0  0  0  0  0  0  0  0  0  0  0  0
   50.6340   31.4840   50.8740 C   0  0  0  0  0  0  0  0  0  0  0  0
   51.4160   31.6380   49.5810 C   0  0  0  0  0  0  0  0  0  0  0  0
  1  2  2  0  0  0  0
  1  6  1  0  0  0  0
  2  3  1  0  0  0  0
  3 20  1  0  0  0  0
  3  4  2  0  0  0  0
  4  8  1  0  0  0  0
  5  4  1  0  0  0  0
  5  9  1  0  0  0  0
  6  5  2  0  0  0  0
  7  2  1  0  0  0  0
 10  6  1  0  0  0  0
 11 17  1  0  0  0  0
 11 16  1  0  0  0  0
 12 11  2  0  0  0  0
 13 12  1  0  0  0  0
 13 14  2  0  0  0  0
 14 15  1  0  0  0  0
 15 16  2  0  0  0  0
 15  1  1  0  0  0  0
 18 12  1  0  0  0  0
 19 13  1  0  0  0  0
 20 21  1  0  0  0  0
 21 22  1  0  0  0  0
 23 21  1  0  0  0  0
 23 22  1  0  0  0  0
M  END
>  <minimizedAffinity>
-5.18288803

>  <minimizedRMSD>
0.623729885

$$$$
