
 OpenBabel03252509003D

 39 41  0  0  1  0  0  0  0  0999 V2000
   46.5570   34.6010   43.5510 N   0  0  0  0  0  0  0  0  0  0  0  0
   46.0390   35.5500   42.6280 C   0  0  0  0  0  0  0  0  0  0  0  0
   44.5330   35.6740   42.6130 C   0  0  0  0  0  0  0  0  0  0  0  0
   43.8790   35.4600   43.9520 C   0  0  0  0  0  0  0  0  0  0  0  0
   44.8960   35.2480   45.0450 C   0  0  0  0  0  0  0  0  0  0  0  0
   45.7410   34.0340   44.5190 C   0  0  2  0  0  0  0  0  0  0  0  0
   46.4120   36.5540   42.9430 H   0  0  0  0  0  0  0  0  0  0  0  0
   46.3620   35.4350   41.5920 H   0  0  0  0  0  0  0  0  0  0  0  0
   44.1550   34.9710   41.8390 H   0  0  0  0  0  0  0  0  0  0  0  0
   44.2760   36.6870   42.2310 H   0  0  0  0  0  0  0  0  0  0  0  0
   43.2350   34.5690   43.8690 H   0  0  0  0  0  0  0  0  0  0  0  0
   43.2740   36.3570   44.2360 H   0  0  0  0  0  0  0  0  0  0  0  0
   45.5790   36.0910   45.1440 H   0  0  0  0  0  0  0  0  0  0  0  0
   44.3610   34.9560   45.9510 H   0  0  0  0  0  0  0  0  0  0  0  0
   45.0050   33.2680   44.2180 H   0  0  0  0  0  0  0  0  0  0  0  0
   47.6660   33.8430   43.0530 C   0  0  0  0  0  0  0  0  0  0  0  0
   48.3560   34.5320   42.5360 H   0  0  0  0  0  0  0  0  0  0  0  0
   48.1800   33.3870   43.9320 H   0  0  0  0  0  0  0  0  0  0  0  0
   47.1560   32.7380   42.1910 C   0  0  0  0  0  0  0  0  0  0  0  0
   47.3250   31.7240   42.5730 H   0  0  0  0  0  0  0  0  0  0  0  0
   46.0510   32.8290   42.0540 H   0  0  0  0  0  0  0  0  0  0  0  0
   49.0930   31.9920   39.0550 C   0  0  0  0  0  0  0  0  0  0  0  0
   48.5400   31.8720   40.3430 C   0  0  0  0  0  0  0  0  0  0  0  0
   47.7330   32.8790   40.8270 C   0  0  0  0  0  0  0  0  0  0  0  0
   47.5130   33.9340   40.0340 N   0  0  0  0  0  0  0  0  0  0  0  0
   48.0470   34.0390   38.8020 C   0  0  0  0  0  0  0  0  0  0  0  0
   48.8390   33.0740   38.3020 N   0  0  0  0  0  0  0  0  0  0  0  0
   49.7260   31.2030   38.6740 H   0  0  0  0  0  0  0  0  0  0  0  0
   48.7650   30.9850   40.9260 H   0  0  0  0  0  0  0  0  0  0  0  0
   47.8590   34.8980   38.1750 H   0  0  0  0  0  0  0  0  0  0  0  0
   46.4700   33.6890   45.6570 O   0  0  0  0  0  0  0  0  0  0  0  0
   45.6570   31.2560   44.9680 O   0  0  0  0  0  0  0  0  0  0  0  0
   46.2460   32.0870   46.1120 P   0  0  2  0  0  0  0  0  0  0  0  0
   45.0270   32.1020   47.3110 O   0  0  0  0  0  0  0  0  0  0  0  0
   45.2320   32.7810   47.9950 H   0  0  0  0  0  0  0  0  0  0  0  0
   47.6150   31.4100   46.7610 O   0  0  0  0  0  0  0  0  0  0  0  0
   47.4250   30.5560   47.8160 C   0  0  0  0  0  3  0  0  0  0  0  0
   48.4960   29.6720   48.3260 C   0  0  0  0  0  2  0  0  0  0  0  0
   48.2210   30.9350   49.0710 C   0  0  0  0  0  2  0  0  0  0  0  0
  1  6  1  0  0  0  0
  2  7  1  0  0  0  0
  2  1  1  0  0  0  0
  3  2  1  0  0  0  0
  3  4  1  0  0  0  0
  4 12  1  0  0  0  0
  4  5  1  0  0  0  0
  5 13  1  0  0  0  0
  5 14  1  0  0  0  0
  6 15  1  6  0  0  0
  6  5  1  0  0  0  0
  6 31  1  0  0  0  0
  8  2  1  0  0  0  0
  9  3  1  0  0  0  0
 10  3  1  0  0  0  0
 11  4  1  0  0  0  0
 16  1  1  0  0  0  0
 16 18  1  0  0  0  0
 17 16  1  0  0  0  0
 19 20  1  0  0  0  0
 19 16  1  0  0  0  0
 21 19  1  0  0  0  0
 22 23  1  0  0  0  0
 23 24  2  0  0  0  0
 23 29  1  0  0  0  0
 24 19  1  0  0  0  0
 25 24  1  0  0  0  0
 26 25  2  0  0  0  0
 27 26  1  0  0  0  0
 27 22  2  0  0  0  0
 28 22  1  0  0  0  0
 30 26  1  0  0  0  0
 31 33  1  0  0  0  0
 33 32  2  6  0  0  0
 33 36  1  0  0  0  0
 33 34  1  0  0  0  0
 34 35  1  0  0  0  0
 36 37  1  0  0  0  0
 37 38  1  0  0  0  0
 37 39  1  0  0  0  0
 38 39  1  0  0  0  0
M  END
>  <minimizedAffinity>
-4.28951597

>  <minimizedRMSD>
1.18005323

$$$$
