
     RDKit          3D

 38 41  0  0  0  0  0  0  0  0999 V2000
   47.1376   31.2735   46.7211 C   0  0  0  0  0  0  0  0  0  0  0  0
   46.7784   31.7811   48.0971 C   0  0  1  0  0  0  0  0  0  0  0  0
   46.1796   30.7869   49.0292 C   0  0  0  0  0  0  0  0  0  0  0  0
   47.5223   31.2765   49.2756 C   0  0  1  0  0  0  0  0  0  0  0  0
   48.7685   30.5127   49.0386 C   0  0  0  0  0  0  0  0  0  0  0  0
   49.5993   30.2287   50.3182 C   0  0  0  0  0  0  0  0  0  0  0  0
   50.0876   31.2362   49.3517 C   0  0  0  0  0  0  0  0  0  0  0  0
   45.9269   33.1425   45.9120 C   0  0  0  0  0  0  0  0  0  0  0  0
   46.9255   32.3770   45.6929 C   0  0  0  0  0  0  0  0  0  0  0  0
   44.4846   36.1456   44.3444 C   0  0  0  0  0  0  0  0  0  0  0  0
   45.1175   36.1992   43.1093 C   0  0  0  0  0  0  0  0  0  0  0  0
   46.0397   35.2011   42.8462 C   0  0  0  0  0  0  0  0  0  0  0  0
   46.2613   34.2636   43.7770 N   0  0  0  0  0  0  0  0  0  0  0  0
   45.6459   34.2185   44.9659 C   0  0  0  0  0  0  0  0  0  0  0  0
   44.7632   35.1710   45.2248 N   0  0  0  0  0  0  0  0  0  0  0  0
   46.3910   30.4970   46.4529 H   0  0  0  0  0  0  0  0  0  0  0  0
   48.1667   30.9122   46.6890 H   0  0  0  0  0  0  0  0  0  0  0  0
   46.4444   32.8373   48.1674 H   0  0  0  0  0  0  0  0  0  0  0  0
   46.0252   29.7483   48.6679 H   0  0  0  0  0  0  0  0  0  0  0  0
   45.3244   31.1311   49.6677 H   0  0  0  0  0  0  0  0  0  0  0  0
   47.6088   31.9819   50.1594 H   0  0  0  0  0  0  0  0  0  0  0  0
   48.8090   29.7369   48.2470 H   0  0  0  0  0  0  0  0  0  0  0  0
   49.1306   30.4800   51.2778 H   0  0  0  0  0  0  0  0  0  0  0  0
   50.1208   29.2400   50.3003 H   0  0  0  0  0  0  0  0  0  0  0  0
   49.9714   32.2965   49.7119 H   0  0  0  0  0  0  0  0  0  0  0  0
   50.9488   30.9878   48.7178 H   0  0  0  0  0  0  0  0  0  0  0  0
   45.1996   33.1119   46.7417 H   0  0  0  0  0  0  0  0  0  0  0  0
   47.5613   32.5265   44.8260 H   0  0  0  0  0  0  0  0  0  0  0  0
   43.7621   36.9209   44.5609 H   0  0  0  0  0  0  0  0  0  0  0  0
   44.9217   36.9575   42.3851 H   0  0  0  0  0  0  0  0  0  0  0  0
   46.7671   35.1936   41.5275 C   0  0  0  0  0  0  0  0  0  0  0  0
   46.9462   33.7493   40.9704 C   0  0  0  0  0  0  0  0  0  0  0  0
   46.0894   34.7999   40.2916 C   0  0  0  0  0  0  0  0  0  0  0  0
   47.7065   35.7601   41.5459 H   0  0  0  0  0  0  0  0  0  0  0  0
   47.9297   33.4982   40.5370 H   0  0  0  0  0  0  0  0  0  0  0  0
   46.3747   32.9430   41.4548 H   0  0  0  0  0  0  0  0  0  0  0  0
   46.5356   35.2159   39.3533 H   0  0  0  0  0  0  0  0  0  0  0  0
   44.9882   34.6698   40.2938 H   0  0  0  0  0  0  0  0  0  0  0  0
  1  2  1  0
  2  3  1  0
  2  4  1  0
  3  4  1  0
  5  4  1  0
  5  7  1  0
  5  6  1  0
  7  6  1  0
  9  8  2  0
  9  1  1  0
 10 15  2  0
 11 10  1  0
 12 11  2  0
 12 13  1  0
 13 14  2  0
 14 15  1  0
 14  8  1  0
  1 16  1  0
  1 17  1  0
  2 18  1  6
  3 19  1  0
  3 20  1  0
  4 21  1  1
  5 22  1  0
  6 23  1  0
  6 24  1  0
  7 25  1  0
  7 26  1  0
  8 27  1  0
  9 28  1  0
 10 29  1  0
 11 30  1  0
 31 32  1  0
 32 33  1  0
 33 31  1  0
 31 34  1  0
 32 35  1  0
 32 36  1  0
 33 37  1  0
 33 38  1  0
 12 31  1  0
M  ISO  8  16   8  17   8  18  13  19  13  20  13  21  13  22  13  23  13
M  ISO  5  24  13  25  13  26  13  29  14  30  14
M  END
>  <DihAtoms>  (1) 
10,11,30,31

>  <DihDeg>  (1) 
128.827100545324

$$$$
