
 OpenBabel03242519123D

 41 44  0  0  1  0  0  0  0  0999 V2000
   37.6920   29.6570   40.2470 N   0  0  0  0  0  0  0  0  0  0  0  0
   38.8300   30.4650   39.8500 C   0  0  0  0  0  0  0  0  0  0  0  0
   38.0960   31.6580   39.3140 C   0  0  2  0  0  0  0  0  0  0  0  0
   37.0430   31.0200   38.4280 C   0  0  0  0  0  0  0  0  0  0  0  0
   36.7580   29.7320   39.1540 C   0  0  0  0  0  0  0  0  0  0  0  0
   39.4820   29.9800   39.1060 H   0  0  0  0  0  0  0  0  0  0  0  0
   39.3440   30.7770   40.7780 H   0  0  0  0  0  0  0  0  0  0  0  0
   37.6380   32.1910   40.1530 H   0  0  0  0  0  0  0  0  0  0  0  0
   36.1100   31.6420   38.4850 H   0  0  0  0  0  0  0  0  0  0  0  0
   37.3770   30.8850   37.3910 H   0  0  0  0  0  0  0  0  0  0  0  0
   35.7130   29.6040   39.4390 H   0  0  0  0  0  0  0  0  0  0  0  0
   37.0030   28.8980   38.4370 H   0  0  0  0  0  0  0  0  0  0  0  0
   36.6070   27.0360   42.6620 C   0  0  0  0  0  0  0  0  0  0  0  0
   36.7980   27.6930   41.4520 C   0  0  0  0  0  0  0  0  0  0  0  0
   37.4530   28.9190   41.4190 C   0  0  0  0  0  0  0  0  0  0  0  0
   37.8770   29.4130   42.6030 N   0  0  0  0  0  0  0  0  0  0  0  0
   37.7090   28.8050   43.7790 C   0  0  0  0  0  0  0  0  0  0  0  0
   37.0630   27.6010   43.7980 N   0  0  0  0  0  0  0  0  0  0  0  0
   36.0970   26.0790   42.7010 H   0  0  0  0  0  0  0  0  0  0  0  0
   36.4430   27.2680   40.5050 H   0  0  0  0  0  0  0  0  0  0  0  0
   38.0850   29.2880   44.6500 H   0  0  0  0  0  0  0  0  0  0  0  0
   38.9030   32.5020   38.4870 N   0  0  0  0  0  0  0  0  0  0  0  0
   38.4400   33.0130   37.6790 H   0  0  0  0  0  0  0  0  0  0  0  0
   40.8280   33.8160   39.3420 C   0  0  0  0  0  0  0  0  0  0  0  0
   40.2710   32.8290   38.5070 C   0  0  0  0  0  0  0  0  0  0  0  0
   41.1790   32.2070   37.7060 C   0  0  0  0  0  0  0  0  0  0  0  0
   42.5330   32.4550   37.6520 C   0  0  0  0  0  0  0  0  0  0  0  0
   43.0440   33.4250   38.4820 C   0  0  0  0  0  0  0  0  0  0  0  0
   42.1710   34.0970   39.3220 C   0  0  0  0  0  0  0  0  0  0  0  0
   40.8310   31.4300   37.0280 H   0  0  0  0  0  0  0  0  0  0  0  0
   43.2160   31.9480   37.0130 H   0  0  0  0  0  0  0  0  0  0  0  0
   44.0920   33.6730   38.4940 H   0  0  0  0  0  0  0  0  0  0  0  0
   43.2470   34.7050   41.4310 C   0  0  0  0  0  0  0  0  0  0  0  0
   43.2700   33.4740   41.7780 O   0  0  0  0  0  0  0  0  0  0  0  0
   42.7330   35.1050   40.1770 N   0  0  0  0  0  0  0  0  0  0  0  0
   42.8030   36.1230   39.9660 H   0  0  0  0  0  0  0  0  0  0  0  0
   43.7780   35.6690   42.3990 C   0  0  0  0  0  3  0  0  0  0  0  0
   45.2900   35.8480   42.4230 C   0  0  0  0  0  2  0  0  0  0  0  0
   44.5620   35.2290   43.5750 C   0  0  0  0  0  2  0  0  0  0  0  0
   39.2170   35.0860   40.9320 N   0  0  0  0  0  0  0  0  0  0  0  0
   39.9290   34.5250   40.2250 C   0  0  0  0  0  0  0  0  0  0  0  0
  1 15  1  0  0  0  0
  2  1  1  0  0  0  0
  2  7  1  0  0  0  0
  3  2  1  0  0  0  0
  3  8  1  1  0  0  0
  4  9  1  0  0  0  0
  4  5  1  0  0  0  0
  4  3  1  0  0  0  0
  5 11  1  0  0  0  0
  5  1  1  0  0  0  0
  6  2  1  0  0  0  0
 10  4  1  0  0  0  0
 12  5  1  0  0  0  0
 13 19  1  0  0  0  0
 13 18  1  0  0  0  0
 14 13  2  0  0  0  0
 15 14  1  0  0  0  0
 15 16  2  0  0  0  0
 16 17  1  0  0  0  0
 17 18  2  0  0  0  0
 17 21  1  0  0  0  0
 20 14  1  0  0  0  0
 22 25  1  0  0  0  0
 22  3  1  0  0  0  0
 23 22  1  0  0  0  0
 24 41  1  0  0  0  0
 25 24  2  0  0  0  0
 26 25  1  0  0  0  0
 27 26  2  0  0  0  0
 27 28  1  0  0  0  0
 28 32  1  0  0  0  0
 28 29  2  0  0  0  0
 29 24  1  0  0  0  0
 29 35  1  0  0  0  0
 30 26  1  0  0  0  0
 31 27  1  0  0  0  0
 33 34  2  0  0  0  0
 33 37  1  0  0  0  0
 35 33  1  0  0  0  0
 36 35  1  0  0  0  0
 37 38  1  0  0  0  0
 37 39  1  0  0  0  0
 38 39  1  0  0  0  0
 41 40  3  0  0  0  0
M  END
>  <minimizedAffinity>
-5.93585825

$$$$

 OpenBabel03242519123D

 41 44  0  0  1  0  0  0  0  0999 V2000
   38.0240   32.6870   39.6380 N   0  0  0  0  0  0  0  0  0  0  0  0
   37.3790   31.8880   40.6630 C   0  0  0  0  0  0  0  0  0  0  0  0
   37.4530   30.5460   39.9970 C   0  0  2  0  0  0  0  0  0  0  0  0
   36.9600   30.8510   38.5960 C   0  0  0  0  0  0  0  0  0  0  0  0
   37.4490   32.2600   38.3890 C   0  0  0  0  0  0  0  0  0  0  0  0
   36.3500   32.2070   40.8940 H   0  0  0  0  0  0  0  0  0  0  0  0
   38.0610   31.8680   41.5330 H   0  0  0  0  0  0  0  0  0  0  0  0
   38.4980   30.2190   39.9870 H   0  0  0  0  0  0  0  0  0  0  0  0
   37.5210   30.1990   37.8750 H   0  0  0  0  0  0  0  0  0  0  0  0
   35.8730   30.7340   38.4870 H   0  0  0  0  0  0  0  0  0  0  0  0
   38.1000   32.3810   37.5230 H   0  0  0  0  0  0  0  0  0  0  0  0
   36.5360   32.8920   38.1990 H   0  0  0  0  0  0  0  0  0  0  0  0
   39.8460   35.8480   40.3870 C   0  0  0  0  0  0  0  0  0  0  0  0
   38.8110   34.9220   40.3400 C   0  0  0  0  0  0  0  0  0  0  0  0
   39.0080   33.6860   39.7340 C   0  0  0  0  0  0  0  0  0  0  0  0
   40.2320   33.4550   39.2110 N   0  0  0  0  0  0  0  0  0  0  0  0
   41.2430   34.3240   39.2410 C   0  0  0  0  0  0  0  0  0  0  0  0
   41.0370   35.5350   39.8390 N   0  0  0  0  0  0  0  0  0  0  0  0
   39.7050   36.8160   40.8570 H   0  0  0  0  0  0  0  0  0  0  0  0
   37.8270   35.1370   40.7730 H   0  0  0  0  0  0  0  0  0  0  0  0
   42.1660   34.0340   38.7970 H   0  0  0  0  0  0  0  0  0  0  0  0
   36.5680   29.5760   40.5660 N   0  0  0  0  0  0  0  0  0  0  0  0
   35.5290   29.6580   40.3640 H   0  0  0  0  0  0  0  0  0  0  0  0
   36.8170   27.1310   40.9200 C   0  0  0  0  0  0  0  0  0  0  0  0
   36.7840   28.4570   41.3910 C   0  0  0  0  0  0  0  0  0  0  0  0
   36.9790   28.5710   42.7330 C   0  0  0  0  0  0  0  0  0  0  0  0
   37.1970   27.5420   43.6230 C   0  0  0  0  0  0  0  0  0  0  0  0
   37.2240   26.2590   43.1290 C   0  0  0  0  0  0  0  0  0  0  0  0
   37.0310   26.0750   41.7690 C   0  0  0  0  0  0  0  0  0  0  0  0
   36.9670   29.5640   43.1800 H   0  0  0  0  0  0  0  0  0  0  0  0
   37.3460   27.6680   44.6690 H   0  0  0  0  0  0  0  0  0  0  0  0
   37.3890   25.4050   43.7650 H   0  0  0  0  0  0  0  0  0  0  0  0
   38.3250   24.1410   41.0210 C   0  0  0  0  0  0  0  0  0  0  0  0
   39.4130   24.7690   41.2660 O   0  0  0  0  0  0  0  0  0  0  0  0
   37.0650   24.7240   41.2820 N   0  0  0  0  0  0  0  0  0  0  0  0
   36.2400   24.1160   41.0960 H   0  0  0  0  0  0  0  0  0  0  0  0
   38.4590   22.7930   40.4590 C   0  0  0  0  0  3  0  0  0  0  0  0
   38.5420   22.6930   38.9420 C   0  0  0  0  0  2  0  0  0  0  0  0
   37.3600   22.1640   39.6930 C   0  0  0  0  0  2  0  0  0  0  0  0
   36.4580   26.7640   38.3760 N   0  0  0  0  0  0  0  0  0  0  0  0
   36.6180   26.9230   39.5030 C   0  0  0  0  0  0  0  0  0  0  0  0
  1 15  1  0  0  0  0
  1  2  1  0  0  0  0
  2  6  1  0  0  0  0
  2  7  1  0  0  0  0
  3  8  1  6  0  0  0
  3 22  1  0  0  0  0
  3  2  1  0  0  0  0
  4  3  1  0  0  0  0
  5  4  1  0  0  0  0
  5  1  1  0  0  0  0
  9  4  1  0  0  0  0
 10  4  1  0  0  0  0
 11  5  1  0  0  0  0
 12  5  1  0  0  0  0
 13 19  1  0  0  0  0
 14 13  1  0  0  0  0
 14 20  1  0  0  0  0
 15 14  2  0  0  0  0
 16 17  2  0  0  0  0
 16 15  1  0  0  0  0
 17 18  1  0  0  0  0
 18 13  2  0  0  0  0
 21 17  1  0  0  0  0
 22 25  1  0  0  0  0
 23 22  1  0  0  0  0
 24 25  2  0  0  0  0
 24 29  1  0  0  0  0
 25 26  1  0  0  0  0
 26 30  1  0  0  0  0
 26 27  2  0  0  0  0
 27 31  1  0  0  0  0
 28 27  1  0  0  0  0
 28 32  1  0  0  0  0
 29 28  2  0  0  0  0
 33 34  2  0  0  0  0
 33 35  1  0  0  0  0
 35 29  1  0  0  0  0
 36 35  1  0  0  0  0
 37 33  1  0  0  0  0
 38 39  1  0  0  0  0
 38 37  1  0  0  0  0
 39 37  1  0  0  0  0
 40 41  3  0  0  0  0
 41 24  1  0  0  0  0
M  END
>  <minimizedAffinity>
-5.65747547

$$$$

 OpenBabel03242519123D

 41 44  0  0  1  0  0  0  0  0999 V2000
   39.7040   31.6300   40.8500 N   0  0  0  0  0  0  0  0  0  0  0  0
   38.6740   30.9800   41.6390 C   0  0  0  0  0  0  0  0  0  0  0  0
   39.5450   30.1090   42.4930 C   0  0  2  0  0  0  0  0  0  0  0  0
   40.4800   29.4850   41.4730 C   0  0  0  0  0  0  0  0  0  0  0  0
   40.6100   30.5840   40.4520 C   0  0  0  0  0  0  0  0  0  0  0  0
   37.9430   30.4160   41.0370 H   0  0  0  0  0  0  0  0  0  0  0  0
   38.2320   31.7550   42.2930 H   0  0  0  0  0  0  0  0  0  0  0  0
   40.0930   30.7460   43.1950 H   0  0  0  0  0  0  0  0  0  0  0  0
   41.4890   29.3600   41.9500 H   0  0  0  0  0  0  0  0  0  0  0  0
   40.1030   28.5380   41.0660 H   0  0  0  0  0  0  0  0  0  0  0  0
   41.6360   30.9120   40.2800 H   0  0  0  0  0  0  0  0  0  0  0  0
   40.2380   30.1620   39.4760 H   0  0  0  0  0  0  0  0  0  0  0  0
   41.1340   34.8630   39.6740 C   0  0  0  0  0  0  0  0  0  0  0  0
   41.0610   33.5140   40.0020 C   0  0  0  0  0  0  0  0  0  0  0  0
   39.8750   32.9790   40.4920 C   0  0  0  0  0  0  0  0  0  0  0  0
   38.8330   33.8290   40.6230 N   0  0  0  0  0  0  0  0  0  0  0  0
   38.8740   35.1270   40.3160 C   0  0  0  0  0  0  0  0  0  0  0  0
   40.0460   35.6410   39.8370 N   0  0  0  0  0  0  0  0  0  0  0  0
   42.0540   35.2930   39.2910 H   0  0  0  0  0  0  0  0  0  0  0  0
   41.9230   32.8460   39.8850 H   0  0  0  0  0  0  0  0  0  0  0  0
   37.9910   35.7030   40.4610 H   0  0  0  0  0  0  0  0  0  0  0  0
   38.8360   29.0450   43.1360 N   0  0  0  0  0  0  0  0  0  0  0  0
   38.0760   29.2930   43.8360 H   0  0  0  0  0  0  0  0  0  0  0  0
   38.0410   26.8520   42.2850 C   0  0  0  0  0  0  0  0  0  0  0  0
   38.9260   27.6450   43.0400 C   0  0  0  0  0  0  0  0  0  0  0  0
   39.8940   26.9330   43.6810 C   0  0  0  0  0  0  0  0  0  0  0  0
   40.0660   25.5670   43.6500 C   0  0  0  0  0  0  0  0  0  0  0  0
   39.1830   24.8230   42.9030 C   0  0  0  0  0  0  0  0  0  0  0  0
   38.1740   25.4880   42.2250 C   0  0  0  0  0  0  0  0  0  0  0  0
   40.6210   27.4700   44.2880 H   0  0  0  0  0  0  0  0  0  0  0  0
   40.8350   25.0420   44.1650 H   0  0  0  0  0  0  0  0  0  0  0  0
   39.2560   23.7510   42.8320 H   0  0  0  0  0  0  0  0  0  0  0  0
   37.6150   24.3850   40.1170 C   0  0  0  0  0  0  0  0  0  0  0  0
   38.7320   24.7620   39.6190 O   0  0  0  0  0  0  0  0  0  0  0  0
   37.2680   24.6860   41.4530 N   0  0  0  0  0  0  0  0  0  0  0  0
   36.3600   24.2930   41.7810 H   0  0  0  0  0  0  0  0  0  0  0  0
   36.7240   23.6310   39.2300 C   0  0  0  0  0  3  0  0  0  0  0  0
   35.5890   24.4110   38.5810 C   0  0  0  0  0  2  0  0  0  0  0  0
   35.3200   23.3510   39.6030 C   0  0  0  0  0  2  0  0  0  0  0  0
   36.1460   28.0780   41.0020 N   0  0  0  0  0  0  0  0  0  0  0  0
   36.9830   27.5330   41.5720 C   0  0  0  0  0  0  0  0  0  0  0  0
  1  2  1  0  0  0  0
  2  7  1  0  0  0  0
  2  3  1  0  0  0  0
  3 22  1  0  0  0  0
  3  8  1  1  0  0  0
  4  9  1  0  0  0  0
  4  3  1  0  0  0  0
  5  1  1  0  0  0  0
  5  4  1  0  0  0  0
  6  2  1  0  0  0  0
 10  4  1  0  0  0  0
 11  5  1  0  0  0  0
 12  5  1  0  0  0  0
 13 18  2  0  0  0  0
 13 14  1  0  0  0  0
 14 15  2  0  0  0  0
 15 16  1  0  0  0  0
 15  1  1  0  0  0  0
 17 21  1  0  0  0  0
 17 16  2  0  0  0  0
 18 17  1  0  0  0  0
 19 13  1  0  0  0  0
 20 14  1  0  0  0  0
 22 23  1  0  0  0  0
 24 25  1  0  0  0  0
 25 22  1  0  0  0  0
 25 26  2  0  0  0  0
 26 30  1  0  0  0  0
 27 26  1  0  0  0  0
 27 31  1  0  0  0  0
 28 27  2  0  0  0  0
 29 24  2  0  0  0  0
 29 28  1  0  0  0  0
 32 28  1  0  0  0  0
 33 35  1  0  0  0  0
 34 33  2  0  0  0  0
 35 36  1  0  0  0  0
 35 29  1  0  0  0  0
 37 39  1  0  0  0  0
 37 33  1  0  0  0  0
 38 37  1  0  0  0  0
 38 39  1  0  0  0  0
 40 41  3  0  0  0  0
 41 24  1  0  0  0  0
M  END
>  <minimizedAffinity>
-5.60609579

$$$$

 OpenBabel03242519123D

 41 44  0  0  1  0  0  0  0  0999 V2000
   36.3410   30.5220   38.9500 N   0  0  0  0  0  0  0  0  0  0  0  0
   37.1380   31.7180   39.1520 C   0  0  0  0  0  0  0  0  0  0  0  0
   37.9280   31.2760   40.3480 C   0  0  2  0  0  0  0  0  0  0  0  0
   36.8540   30.6990   41.2520 C   0  0  0  0  0  0  0  0  0  0  0  0
   35.8730   30.1390   40.2560 C   0  0  0  0  0  0  0  0  0  0  0  0
   36.5400   32.6260   39.3330 H   0  0  0  0  0  0  0  0  0  0  0  0
   37.8360   31.7890   38.2970 H   0  0  0  0  0  0  0  0  0  0  0  0
   38.6360   30.5030   40.0310 H   0  0  0  0  0  0  0  0  0  0  0  0
   37.2920   29.8280   41.8070 H   0  0  0  0  0  0  0  0  0  0  0  0
   36.4230   31.4420   41.9360 H   0  0  0  0  0  0  0  0  0  0  0  0
   35.6800   29.0730   40.3760 H   0  0  0  0  0  0  0  0  0  0  0  0
   34.8940   30.6670   40.4380 H   0  0  0  0  0  0  0  0  0  0  0  0
   34.6960   28.3220   36.4350 C   0  0  0  0  0  0  0  0  0  0  0  0
   34.9220   28.9840   37.6350 C   0  0  0  0  0  0  0  0  0  0  0  0
   36.0300   29.8120   37.7780 C   0  0  0  0  0  0  0  0  0  0  0  0
   36.8460   29.9240   36.7070 N   0  0  0  0  0  0  0  0  0  0  0  0
   36.6550   29.3000   35.5430 C   0  0  0  0  0  0  0  0  0  0  0  0
   35.5630   28.4900   35.4160 N   0  0  0  0  0  0  0  0  0  0  0  0
   33.8350   27.6730   36.3110 H   0  0  0  0  0  0  0  0  0  0  0  0
   34.2420   28.8750   38.4890 H   0  0  0  0  0  0  0  0  0  0  0  0
   37.3640   29.4630   34.7660 H   0  0  0  0  0  0  0  0  0  0  0  0
   38.5520   32.3540   41.0520 N   0  0  0  0  0  0  0  0  0  0  0  0
   38.4890   32.3710   42.1120 H   0  0  0  0  0  0  0  0  0  0  0  0
   40.6640   33.4520   40.3430 C   0  0  0  0  0  0  0  0  0  0  0  0
   39.2840   33.4750   40.6220 C   0  0  0  0  0  0  0  0  0  0  0  0
   38.7050   34.6940   40.4390 C   0  0  0  0  0  0  0  0  0  0  0  0
   39.3330   35.8480   40.0220 C   0  0  0  0  0  0  0  0  0  0  0  0
   40.6810   35.7880   39.7590 C   0  0  0  0  0  0  0  0  0  0  0  0
   41.3300   34.5760   39.9270 C   0  0  0  0  0  0  0  0  0  0  0  0
   37.6390   34.8000   40.6330 H   0  0  0  0  0  0  0  0  0  0  0  0
   38.8480   36.7860   39.8890 H   0  0  0  0  0  0  0  0  0  0  0  0
   41.2370   36.6500   39.4300 H   0  0  0  0  0  0  0  0  0  0  0  0
   43.1460   34.2590   38.3220 C   0  0  0  0  0  0  0  0  0  0  0  0
   42.2930   34.0920   37.3830 O   0  0  0  0  0  0  0  0  0  0  0  0
   42.7370   34.5440   39.6440 N   0  0  0  0  0  0  0  0  0  0  0  0
   43.5070   34.7130   40.3260 H   0  0  0  0  0  0  0  0  0  0  0  0
   44.5600   34.1390   37.9510 C   0  0  0  0  0  3  0  0  0  0  0  0
   45.2350   32.8100   38.2630 C   0  0  0  0  0  2  0  0  0  0  0  0
   45.6230   34.0670   38.9770 C   0  0  0  0  0  2  0  0  0  0  0  0
   41.9050   31.1930   40.6540 N   0  0  0  0  0  0  0  0  0  0  0  0
   41.3550   32.1920   40.5130 C   0  0  0  0  0  0  0  0  0  0  0  0
  1  2  1  0  0  0  0
  1  5  1  0  0  0  0
  2  6  1  0  0  0  0
  2  3  1  0  0  0  0
  3  8  1  6  0  0  0
  3 22  1  0  0  0  0
  3  4  1  0  0  0  0
  4  9  1  0  0  0  0
  4 10  1  0  0  0  0
  5 11  1  0  0  0  0
  5 12  1  0  0  0  0
  5  4  1  0  0  0  0
  7  2  1  0  0  0  0
 13 14  1  0  0  0  0
 14 15  2  0  0  0  0
 14 20  1  0  0  0  0
 15  1  1  0  0  0  0
 16 15  1  0  0  0  0
 17 16  2  0  0  0  0
 18 17  1  0  0  0  0
 18 13  2  0  0  0  0
 19 13  1  0  0  0  0
 21 17  1  0  0  0  0
 22 23  1  0  0  0  0
 24 41  1  0  0  0  0
 24 25  1  0  0  0  0
 25 22  1  0  0  0  0
 26 25  2  0  0  0  0
 26 30  1  0  0  0  0
 27 26  1  0  0  0  0
 28 29  1  0  0  0  0
 28 27  2  0  0  0  0
 29 24  2  0  0  0  0
 31 27  1  0  0  0  0
 32 28  1  0  0  0  0
 33 35  1  0  0  0  0
 34 33  2  0  0  0  0
 35 29  1  0  0  0  0
 35 36  1  0  0  0  0
 37 38  1  0  0  0  0
 37 33  1  0  0  0  0
 37 39  1  0  0  0  0
 38 39  1  0  0  0  0
 41 40  3  0  0  0  0
M  END
>  <minimizedAffinity>
-5.53291845

$$$$

 OpenBabel03242519123D

 41 44  0  0  1  0  0  0  0  0999 V2000
   39.1880   32.8200   39.9060 N   0  0  0  0  0  0  0  0  0  0  0  0
   39.1560   31.8370   40.9730 C   0  0  0  0  0  0  0  0  0  0  0  0
   37.9730   31.0350   40.5200 C   0  0  2  0  0  0  0  0  0  0  0  0
   36.9520   32.1120   40.2040 C   0  0  0  0  0  0  0  0  0  0  0  0
   37.8240   33.2410   39.7200 C   0  0  0  0  0  0  0  0  0  0  0  0
   39.0310   32.2750   41.9770 H   0  0  0  0  0  0  0  0  0  0  0  0
   40.0550   31.2040   40.8560 H   0  0  0  0  0  0  0  0  0  0  0  0
   38.2540   30.4800   39.6190 H   0  0  0  0  0  0  0  0  0  0  0  0
   36.3400   31.7720   39.3270 H   0  0  0  0  0  0  0  0  0  0  0  0
   36.3200   32.3720   41.0630 H   0  0  0  0  0  0  0  0  0  0  0  0
   37.5870   33.5850   38.7130 H   0  0  0  0  0  0  0  0  0  0  0  0
   37.6370   34.1110   40.4120 H   0  0  0  0  0  0  0  0  0  0  0  0
   41.9630   34.9430   38.6140 C   0  0  0  0  0  0  0  0  0  0  0  0
   40.9070   34.5270   39.4160 C   0  0  0  0  0  0  0  0  0  0  0  0
   40.2630   33.3240   39.1530 C   0  0  0  0  0  0  0  0  0  0  0  0
   40.7160   32.6110   38.0980 N   0  0  0  0  0  0  0  0  0  0  0  0
   41.7260   32.9850   37.3110 C   0  0  0  0  0  0  0  0  0  0  0  0
   42.3510   34.1690   37.5810 N   0  0  0  0  0  0  0  0  0  0  0  0
   42.4740   35.8810   38.8100 H   0  0  0  0  0  0  0  0  0  0  0  0
   40.5610   35.1270   40.2670 H   0  0  0  0  0  0  0  0  0  0  0  0
   41.9980   32.3430   36.5070 H   0  0  0  0  0  0  0  0  0  0  0  0
   37.4200   30.2030   41.5430 N   0  0  0  0  0  0  0  0  0  0  0  0
   36.5970   30.5690   42.1060 H   0  0  0  0  0  0  0  0  0  0  0  0
   37.2820   27.7270   41.4030 C   0  0  0  0  0  0  0  0  0  0  0  0
   37.7460   28.9140   42.0020 C   0  0  0  0  0  0  0  0  0  0  0  0
   38.5480   28.7090   43.0830 C   0  0  0  0  0  0  0  0  0  0  0  0
   38.9240   27.4920   43.6080 C   0  0  0  0  0  0  0  0  0  0  0  0
   38.4540   26.3540   42.9980 C   0  0  0  0  0  0  0  0  0  0  0  0
   37.6310   26.4940   41.8910 C   0  0  0  0  0  0  0  0  0  0  0  0
   38.9490   29.5750   43.6070 H   0  0  0  0  0  0  0  0  0  0  0  0
   39.5550   27.3680   44.4570 H   0  0  0  0  0  0  0  0  0  0  0  0
   38.7060   25.3690   43.3530 H   0  0  0  0  0  0  0  0  0  0  0  0
   37.9840   24.6550   40.3210 C   0  0  0  0  0  0  0  0  0  0  0  0
   39.1520   25.1030   40.0530 O   0  0  0  0  0  0  0  0  0  0  0  0
   37.1560   25.2880   41.2750 N   0  0  0  0  0  0  0  0  0  0  0  0
   36.2430   24.8200   41.4590 H   0  0  0  0  0  0  0  0  0  0  0  0
   37.5580   23.4580   39.5890 C   0  0  0  0  0  3  0  0  0  0  0  0
   37.8940   22.1150   40.2230 C   0  0  0  0  0  2  0  0  0  0  0  0
   38.5400   22.5560   38.9460 C   0  0  0  0  0  2  0  0  0  0  0  0
   35.7380   27.9670   39.3310 N   0  0  0  0  0  0  0  0  0  0  0  0
   36.4230   27.8580   40.2470 C   0  0  0  0  0  0  0  0  0  0  0  0
  1  2  1  0  0  0  0
  2  6  1  0  0  0  0
  3  8  1  6  0  0  0
  3  2  1  0  0  0  0
  3 22  1  0  0  0  0
  4  3  1  0  0  0  0
  4 10  1  0  0  0  0
  5  1  1  0  0  0  0
  5  4  1  0  0  0  0
  5 12  1  0  0  0  0
  7  2  1  0  0  0  0
  9  4  1  0  0  0  0
 11  5  1  0  0  0  0
 13 19  1  0  0  0  0
 13 14  1  0  0  0  0
 14 20  1  0  0  0  0
 15 14  2  0  0  0  0
 15  1  1  0  0  0  0
 16 15  1  0  0  0  0
 17 18  1  0  0  0  0
 17 16  2  0  0  0  0
 18 13  2  0  0  0  0
 21 17  1  0  0  0  0
 22 25  1  0  0  0  0
 22 23  1  0  0  0  0
 24 29  2  0  0  0  0
 24 25  1  0  0  0  0
 25 26  2  0  0  0  0
 26 30  1  0  0  0  0
 26 27  1  0  0  0  0
 27 31  1  0  0  0  0
 28 32  1  0  0  0  0
 28 27  2  0  0  0  0
 29 28  1  0  0  0  0
 33 35  1  0  0  0  0
 34 33  2  0  0  0  0
 35 36  1  0  0  0  0
 35 29  1  0  0  0  0
 37 38  1  0  0  0  0
 37 33  1  0  0  0  0
 39 37  1  0  0  0  0
 39 38  1  0  0  0  0
 40 41  3  0  0  0  0
 41 24  1  0  0  0  0
M  END
>  <minimizedAffinity>
-5.52363968

$$$$

 OpenBabel03242519123D

 41 44  0  0  1  0  0  0  0  0999 V2000
   38.4040   24.6170   42.0830 N   0  0  0  0  0  0  0  0  0  0  0  0
   38.2470   25.9780   42.5620 C   0  0  0  0  0  0  0  0  0  0  0  0
   39.6850   26.4030   42.5400 C   0  0  2  0  0  0  0  0  0  0  0  0
   40.3780   25.2410   43.2260 C   0  0  0  0  0  0  0  0  0  0  0  0
   39.5220   24.0740   42.8090 C   0  0  0  0  0  0  0  0  0  0  0  0
   37.7830   26.0470   43.5590 H   0  0  0  0  0  0  0  0  0  0  0  0
   37.7190   26.5400   41.7680 H   0  0  0  0  0  0  0  0  0  0  0  0
   40.0050   26.4950   41.4970 H   0  0  0  0  0  0  0  0  0  0  0  0
   41.3830   25.0990   42.7480 H   0  0  0  0  0  0  0  0  0  0  0  0
   40.4590   25.3700   44.3130 H   0  0  0  0  0  0  0  0  0  0  0  0
   40.0680   23.2890   42.2840 H   0  0  0  0  0  0  0  0  0  0  0  0
   39.1240   23.6120   43.7570 H   0  0  0  0  0  0  0  0  0  0  0  0
   35.8330   23.5250   39.6190 C   0  0  0  0  0  0  0  0  0  0  0  0
   36.4790   24.3140   40.5630 C   0  0  0  0  0  0  0  0  0  0  0  0
   37.6780   23.8890   41.1240 C   0  0  0  0  0  0  0  0  0  0  0  0
   38.1570   22.6970   40.7040 N   0  0  0  0  0  0  0  0  0  0  0  0
   37.5590   21.9190   39.8010 C   0  0  0  0  0  0  0  0  0  0  0  0
   36.3810   22.3480   39.2570 N   0  0  0  0  0  0  0  0  0  0  0  0
   34.8960   23.8450   39.1740 H   0  0  0  0  0  0  0  0  0  0  0  0
   36.0680   25.2780   40.8850 H   0  0  0  0  0  0  0  0  0  0  0  0
   38.0270   20.9990   39.5450 H   0  0  0  0  0  0  0  0  0  0  0  0
   39.9450   27.5780   43.3130 N   0  0  0  0  0  0  0  0  0  0  0  0
   39.6160   27.6050   44.3230 H   0  0  0  0  0  0  0  0  0  0  0  0
   39.9150   29.9400   42.5460 C   0  0  0  0  0  0  0  0  0  0  0  0
   40.5860   28.7940   43.0130 C   0  0  0  0  0  0  0  0  0  0  0  0
   41.9300   28.9600   43.1530 C   0  0  0  0  0  0  0  0  0  0  0  0
   42.6490   30.1050   42.8860 C   0  0  0  0  0  0  0  0  0  0  0  0
   41.9620   31.2050   42.4320 C   0  0  0  0  0  0  0  0  0  0  0  0
   40.5900   31.1020   42.2680 C   0  0  0  0  0  0  0  0  0  0  0  0
   42.5260   28.1210   43.5080 H   0  0  0  0  0  0  0  0  0  0  0  0
   43.7020   30.2000   43.0070 H   0  0  0  0  0  0  0  0  0  0  0  0
   42.4570   32.1340   42.2030 H   0  0  0  0  0  0  0  0  0  0  0  0
   39.9320   32.5440   40.4070 C   0  0  0  0  0  0  0  0  0  0  0  0
   40.5080   31.7520   39.5840 O   0  0  0  0  0  0  0  0  0  0  0  0
   39.8990   32.2670   41.7920 N   0  0  0  0  0  0  0  0  0  0  0  0
   39.3650   32.9460   42.3740 H   0  0  0  0  0  0  0  0  0  0  0  0
   39.3150   33.7460   39.8370 C   0  0  0  0  0  3  0  0  0  0  0  0
   40.1510   35.0180   39.8630 C   0  0  0  0  0  2  0  0  0  0  0  0
   38.9110   34.8850   40.6910 C   0  0  0  0  0  2  0  0  0  0  0  0
   37.3440   29.7730   42.2370 N   0  0  0  0  0  0  0  0  0  0  0  0
   38.4830   29.8460   42.3710 C   0  0  0  0  0  0  0  0  0  0  0  0
  1  2  1  0  0  0  0
  1  5  1  0  0  0  0
  2  6  1  0  0  0  0
  3  8  1  6  0  0  0
  3  2  1  0  0  0  0
  3  4  1  0  0  0  0
  3 22  1  0  0  0  0
  4 10  1  0  0  0  0
  5  4  1  0  0  0  0
  5 12  1  0  0  0  0
  7  2  1  0  0  0  0
  9  4  1  0  0  0  0
 11  5  1  0  0  0  0
 13 14  1  0  0  0  0
 14 20  1  0  0  0  0
 14 15  2  0  0  0  0
 15  1  1  0  0  0  0
 16 15  1  0  0  0  0
 17 16  2  0  0  0  0
 18 13  2  0  0  0  0
 18 17  1  0  0  0  0
 19 13  1  0  0  0  0
 21 17  1  0  0  0  0
 22 23  1  0  0  0  0
 24 25  1  0  0  0  0
 25 26  2  0  0  0  0
 25 22  1  0  0  0  0
 26 30  1  0  0  0  0
 27 31  1  0  0  0  0
 27 26  1  0  0  0  0
 28 27  2  0  0  0  0
 29 28  1  0  0  0  0
 29 24  2  0  0  0  0
 32 28  1  0  0  0  0
 33 35  1  0  0  0  0
 34 33  2  0  0  0  0
 35 29  1  0  0  0  0
 35 36  1  0  0  0  0
 37 38  1  0  0  0  0
 37 33  1  0  0  0  0
 37 39  1  0  0  0  0
 38 39  1  0  0  0  0
 40 41  3  0  0  0  0
 41 24  1  0  0  0  0
M  END
>  <minimizedAffinity>
-5.49008322

$$$$

 OpenBabel03242519123D

 41 44  0  0  1  0  0  0  0  0999 V2000
   40.7120   33.7360   40.0670 N   0  0  0  0  0  0  0  0  0  0  0  0
   39.9920   32.5590   40.5190 C   0  0  0  0  0  0  0  0  0  0  0  0
   38.6690   32.8260   39.8650 C   0  0  2  0  0  0  0  0  0  0  0  0
   38.4160   34.2780   40.2250 C   0  0  0  0  0  0  0  0  0  0  0  0
   39.8120   34.8430   40.2590 C   0  0  0  0  0  0  0  0  0  0  0  0
   39.9300   32.4700   41.6160 H   0  0  0  0  0  0  0  0  0  0  0  0
   40.4470   31.6880   40.0120 H   0  0  0  0  0  0  0  0  0  0  0  0
   38.7850   32.7010   38.7830 H   0  0  0  0  0  0  0  0  0  0  0  0
   37.8850   34.7670   39.3650 H   0  0  0  0  0  0  0  0  0  0  0  0
   37.8620   34.3980   41.1650 H   0  0  0  0  0  0  0  0  0  0  0  0
   39.9680   35.6800   39.5770 H   0  0  0  0  0  0  0  0  0  0  0  0
   39.9730   35.2390   41.3010 H   0  0  0  0  0  0  0  0  0  0  0  0
   43.6100   34.1280   37.7590 C   0  0  0  0  0  0  0  0  0  0  0  0
   42.2940   33.9930   38.1860 C   0  0  0  0  0  0  0  0  0  0  0  0
   42.0080   33.8750   39.5410 C   0  0  0  0  0  0  0  0  0  0  0  0
   43.0610   33.8990   40.3880 N   0  0  0  0  0  0  0  0  0  0  0  0
   44.3330   34.0260   40.0080 C   0  0  0  0  0  0  0  0  0  0  0  0
   44.6010   34.1410   38.6730 N   0  0  0  0  0  0  0  0  0  0  0  0
   43.8450   34.2210   36.7040 H   0  0  0  0  0  0  0  0  0  0  0  0
   41.4580   33.9780   37.4760 H   0  0  0  0  0  0  0  0  0  0  0  0
   45.0830   34.0320   40.7630 H   0  0  0  0  0  0  0  0  0  0  0  0
   37.5960   32.0520   40.4080 N   0  0  0  0  0  0  0  0  0  0  0  0
   37.0790   32.4280   41.2570 H   0  0  0  0  0  0  0  0  0  0  0  0
   37.1830   29.6340   40.7920 C   0  0  0  0  0  0  0  0  0  0  0  0
   37.0320   30.8170   40.0430 C   0  0  0  0  0  0  0  0  0  0  0  0
   36.2830   30.6640   38.9160 C   0  0  0  0  0  0  0  0  0  0  0  0
   35.6910   29.5010   38.4750 C   0  0  0  0  0  0  0  0  0  0  0  0
   35.8590   28.3650   39.2300 C   0  0  0  0  0  0  0  0  0  0  0  0
   36.6110   28.4540   40.3910 C   0  0  0  0  0  0  0  0  0  0  0  0
   36.1180   31.5300   38.2780 H   0  0  0  0  0  0  0  0  0  0  0  0
   35.1100   29.4180   37.5860 H   0  0  0  0  0  0  0  0  0  0  0  0
   35.4250   27.4210   38.9470 H   0  0  0  0  0  0  0  0  0  0  0  0
   37.7960   26.3540   40.7930 C   0  0  0  0  0  0  0  0  0  0  0  0
   38.6080   26.6250   39.8410 O   0  0  0  0  0  0  0  0  0  0  0  0
   36.7690   27.2510   41.1590 N   0  0  0  0  0  0  0  0  0  0  0  0
   36.1910   26.9640   41.9780 H   0  0  0  0  0  0  0  0  0  0  0  0
   37.9910   25.0700   41.4740 C   0  0  0  0  0  3  0  0  0  0  0  0
   37.2910   23.8630   40.8650 C   0  0  0  0  0  2  0  0  0  0  0  0
   36.8860   24.4070   42.2000 C   0  0  0  0  0  2  0  0  0  0  0  0
   38.5830   29.7730   42.9730 N   0  0  0  0  0  0  0  0  0  0  0  0
   37.9660   29.7110   42.0060 C   0  0  0  0  0  0  0  0  0  0  0  0
  1  5  1  0  0  0  0
  1  2  1  0  0  0  0
  2  6  1  0  0  0  0
  3  8  1  6  0  0  0
  3  4  1  0  0  0  0
  3 22  1  0  0  0  0
  3  2  1  0  0  0  0
  4  5  1  0  0  0  0
  4 10  1  0  0  0  0
  5 12  1  0  0  0  0
  7  2  1  0  0  0  0
  9  4  1  0  0  0  0
 11  5  1  0  0  0  0
 13 14  2  0  0  0  0
 13 18  1  0  0  0  0
 14 15  1  0  0  0  0
 15  1  1  0  0  0  0
 15 16  2  0  0  0  0
 17 16  1  0  0  0  0
 17 21  1  0  0  0  0
 18 17  2  0  0  0  0
 19 13  1  0  0  0  0
 20 14  1  0  0  0  0
 22 23  1  0  0  0  0
 24 41  1  0  0  0  0
 25 22  1  0  0  0  0
 25 24  2  0  0  0  0
 26 25  1  0  0  0  0
 27 26  2  0  0  0  0
 27 28  1  0  0  0  0
 28 29  2  0  0  0  0
 29 24  1  0  0  0  0
 29 35  1  0  0  0  0
 30 26  1  0  0  0  0
 31 27  1  0  0  0  0
 32 28  1  0  0  0  0
 33 35  1  0  0  0  0
 33 37  1  0  0  0  0
 34 33  2  0  0  0  0
 35 36  1  0  0  0  0
 37 39  1  0  0  0  0
 38 37  1  0  0  0  0
 38 39  1  0  0  0  0
 41 40  3  0  0  0  0
M  END
>  <minimizedAffinity>
-5.45806217

$$$$

 OpenBabel03242519123D

 41 44  0  0  1  0  0  0  0  0999 V2000
   39.9580   27.8850   43.1750 N   0  0  0  0  0  0  0  0  0  0  0  0
   39.3300   28.8320   42.2720 C   0  0  0  0  0  0  0  0  0  0  0  0
   38.1370   29.1950   43.1040 C   0  0  2  0  0  0  0  0  0  0  0  0
   37.6240   27.8380   43.5470 C   0  0  0  0  0  0  0  0  0  0  0  0
   38.8970   27.0410   43.6570 C   0  0  0  0  0  0  0  0  0  0  0  0
   39.0680   28.4040   41.2910 H   0  0  0  0  0  0  0  0  0  0  0  0
   39.9890   29.7190   42.2260 H   0  0  0  0  0  0  0  0  0  0  0  0
   38.4770   29.7880   43.9590 H   0  0  0  0  0  0  0  0  0  0  0  0
   37.2090   27.9390   44.5850 H   0  0  0  0  0  0  0  0  0  0  0  0
   36.8860   27.4100   42.8550 H   0  0  0  0  0  0  0  0  0  0  0  0
   39.0680   26.6130   44.6450 H   0  0  0  0  0  0  0  0  0  0  0  0
   38.7960   26.1750   42.9420 H   0  0  0  0  0  0  0  0  0  0  0  0
   43.1000   26.7250   44.8060 C   0  0  0  0  0  0  0  0  0  0  0  0
   41.7500   26.7960   44.4840 C   0  0  0  0  0  0  0  0  0  0  0  0
   41.3010   27.7370   43.5640 C   0  0  0  0  0  0  0  0  0  0  0  0
   42.2350   28.5500   43.0220 N   0  0  0  0  0  0  0  0  0  0  0  0
   43.5360   28.5040   43.3120 C   0  0  0  0  0  0  0  0  0  0  0  0
   43.9640   27.5760   44.2180 N   0  0  0  0  0  0  0  0  0  0  0  0
   43.4630   25.9950   45.5230 H   0  0  0  0  0  0  0  0  0  0  0  0
   41.0140   26.1230   44.9400 H   0  0  0  0  0  0  0  0  0  0  0  0
   44.1820   29.1950   42.8230 H   0  0  0  0  0  0  0  0  0  0  0  0
   37.0930   29.8300   42.3600 N   0  0  0  0  0  0  0  0  0  0  0  0
   36.1300   29.9070   42.8020 H   0  0  0  0  0  0  0  0  0  0  0  0
   36.7350   29.7170   39.9060 C   0  0  0  0  0  0  0  0  0  0  0  0
   37.0550   30.4190   41.0830 C   0  0  0  0  0  0  0  0  0  0  0  0
   37.3310   31.7370   40.8820 C   0  0  0  0  0  0  0  0  0  0  0  0
   37.3200   32.4040   39.6760 C   0  0  0  0  0  0  0  0  0  0  0  0
   37.0030   31.6870   38.5470 C   0  0  0  0  0  0  0  0  0  0  0  0
   36.7130   30.3390   38.6840 C   0  0  0  0  0  0  0  0  0  0  0  0
   37.5890   32.3540   41.7410 H   0  0  0  0  0  0  0  0  0  0  0  0
   37.5410   33.4380   39.5550 H   0  0  0  0  0  0  0  0  0  0  0  0
   36.9750   32.1420   37.5700 H   0  0  0  0  0  0  0  0  0  0  0  0
   37.4440   29.0990   36.7080 C   0  0  0  0  0  0  0  0  0  0  0  0
   38.6620   29.2120   37.0830 O   0  0  0  0  0  0  0  0  0  0  0  0
   36.3850   29.6180   37.4870 N   0  0  0  0  0  0  0  0  0  0  0  0
   35.4260   29.4320   37.1220 H   0  0  0  0  0  0  0  0  0  0  0  0
   37.2120   28.4080   35.4360 C   0  0  0  0  0  3  0  0  0  0  0  0
   36.6520   29.2480   34.2970 C   0  0  0  0  0  2  0  0  0  0  0  0
   35.8430   28.1600   34.9310 C   0  0  0  0  0  2  0  0  0  0  0  0
   36.1800   27.1920   40.1350 N   0  0  0  0  0  0  0  0  0  0  0  0
   36.4290   28.3090   40.0340 C   0  0  0  0  0  0  0  0  0  0  0  0
  1 15  1  0  0  0  0
  1  5  1  0  0  0  0
  2  3  1  0  0  0  0
  2  1  1  0  0  0  0
  3  4  1  0  0  0  0
  3  8  1  1  0  0  0
  4  5  1  0  0  0  0
  4  9  1  0  0  0  0
  5 11  1  0  0  0  0
  6  2  1  0  0  0  0
  7  2  1  0  0  0  0
 10  4  1  0  0  0  0
 12  5  1  0  0  0  0
 13 19  1  0  0  0  0
 14 13  1  0  0  0  0
 14 20  1  0  0  0  0
 15 14  2  0  0  0  0
 16 17  2  0  0  0  0
 16 15  1  0  0  0  0
 17 18  1  0  0  0  0
 18 13  2  0  0  0  0
 21 17  1  0  0  0  0
 22 23  1  0  0  0  0
 22  3  1  0  0  0  0
 24 41  1  0  0  0  0
 24 25  1  0  0  0  0
 25 22  1  0  0  0  0
 26 25  2  0  0  0  0
 26 30  1  0  0  0  0
 27 26  1  0  0  0  0
 28 29  1  0  0  0  0
 28 27  2  0  0  0  0
 29 24  2  0  0  0  0
 31 27  1  0  0  0  0
 32 28  1  0  0  0  0
 33 34  2  0  0  0  0
 33 35  1  0  0  0  0
 35 29  1  0  0  0  0
 36 35  1  0  0  0  0
 37 33  1  0  0  0  0
 38 39  1  0  0  0  0
 38 37  1  0  0  0  0
 39 37  1  0  0  0  0
 41 40  3  0  0  0  0
M  END
>  <minimizedAffinity>
-5.42512655

$$$$

 OpenBabel03242519123D

 41 44  0  0  1  0  0  0  0  0999 V2000
   37.5560   29.3000   39.9310 N   0  0  0  0  0  0  0  0  0  0  0  0
   38.6860   30.1880   39.7250 C   0  0  0  0  0  0  0  0  0  0  0  0
   37.9430   31.4800   39.5600 C   0  0  2  0  0  0  0  0  0  0  0  0
   36.8520   31.1040   38.5750 C   0  0  0  0  0  0  0  0  0  0  0  0
   36.5840   29.6670   38.9360 C   0  0  0  0  0  0  0  0  0  0  0  0
   39.3060   29.9230   38.8530 H   0  0  0  0  0  0  0  0  0  0  0  0
   39.2360   30.2380   40.6830 H   0  0  0  0  0  0  0  0  0  0  0  0
   37.5210   31.7650   40.5290 H   0  0  0  0  0  0  0  0  0  0  0  0
   35.9280   31.6860   38.8340 H   0  0  0  0  0  0  0  0  0  0  0  0
   37.1470   31.2550   37.5280 H   0  0  0  0  0  0  0  0  0  0  0  0
   35.5490   29.4660   39.2140 H   0  0  0  0  0  0  0  0  0  0  0  0
   36.7940   29.0590   38.0110 H   0  0  0  0  0  0  0  0  0  0  0  0
   36.7880   27.3990   43.0420 C   0  0  0  0  0  0  0  0  0  0  0  0
   36.9650   28.4810   42.1870 C   0  0  0  0  0  0  0  0  0  0  0  0
   37.3540   28.2720   40.8690 C   0  0  0  0  0  0  0  0  0  0  0  0
   37.5430   26.9900   40.4870 N   0  0  0  0  0  0  0  0  0  0  0  0
   37.3810   25.9330   41.2840 C   0  0  0  0  0  0  0  0  0  0  0  0
   36.9990   26.1520   42.5780 N   0  0  0  0  0  0  0  0  0  0  0  0
   36.4850   27.5490   44.0730 H   0  0  0  0  0  0  0  0  0  0  0  0
   36.8030   29.5120   42.5240 H   0  0  0  0  0  0  0  0  0  0  0  0
   37.5590   24.9660   40.8760 H   0  0  0  0  0  0  0  0  0  0  0  0
   38.7270   32.5170   38.9620 N   0  0  0  0  0  0  0  0  0  0  0  0
   38.8160   32.5400   37.9040 H   0  0  0  0  0  0  0  0  0  0  0  0
   40.8620   33.6820   39.4650 C   0  0  0  0  0  0  0  0  0  0  0  0
   39.4570   33.5910   39.5020 C   0  0  0  0  0  0  0  0  0  0  0  0
   38.8530   34.6460   40.1150 C   0  0  0  0  0  0  0  0  0  0  0  0
   39.4770   35.7400   40.6720 C   0  0  0  0  0  0  0  0  0  0  0  0
   40.8490   35.7960   40.6180 C   0  0  0  0  0  0  0  0  0  0  0  0
   41.5250   34.7520   40.0070 C   0  0  0  0  0  0  0  0  0  0  0  0
   37.7660   34.6550   40.1880 H   0  0  0  0  0  0  0  0  0  0  0  0
   38.9710   36.5490   41.1450 H   0  0  0  0  0  0  0  0  0  0  0  0
   41.4040   36.6210   41.0330 H   0  0  0  0  0  0  0  0  0  0  0  0
   43.6870   34.3850   41.0860 C   0  0  0  0  0  0  0  0  0  0  0  0
   43.1000   33.8550   42.0920 O   0  0  0  0  0  0  0  0  0  0  0  0
   42.9580   34.8390   39.9650 N   0  0  0  0  0  0  0  0  0  0  0  0
   43.5290   35.2100   39.1760 H   0  0  0  0  0  0  0  0  0  0  0  0
   45.1470   34.4950   41.1640 C   0  0  0  0  0  3  0  0  0  0  0  0
   45.9480   33.2970   40.6740 C   0  0  0  0  0  2  0  0  0  0  0  0
   45.9320   33.6830   42.1210 C   0  0  0  0  0  2  0  0  0  0  0  0
   42.1500   31.7350   38.3290 N   0  0  0  0  0  0  0  0  0  0  0  0
   41.5800   32.5990   38.8290 C   0  0  0  0  0  0  0  0  0  0  0  0
  1 15  1  0  0  0  0
  2  1  1  0  0  0  0
  2  7  1  0  0  0  0
  3  2  1  0  0  0  0
  3  8  1  1  0  0  0
  4  9  1  0  0  0  0
  4  5  1  0  0  0  0
  4  3  1  0  0  0  0
  5 11  1  0  0  0  0
  5  1  1  0  0  0  0
  6  2  1  0  0  0  0
 10  4  1  0  0  0  0
 12  5  1  0  0  0  0
 13 19  1  0  0  0  0
 14 20  1  0  0  0  0
 14 13  2  0  0  0  0
 15 14  1  0  0  0  0
 16 15  2  0  0  0  0
 16 17  1  0  0  0  0
 17 18  2  0  0  0  0
 18 13  1  0  0  0  0
 21 17  1  0  0  0  0
 22 25  1  0  0  0  0
 22  3  1  0  0  0  0
 23 22  1  0  0  0  0
 24 25  2  0  0  0  0
 24 29  1  0  0  0  0
 25 26  1  0  0  0  0
 26 30  1  0  0  0  0
 26 27  2  0  0  0  0
 27 31  1  0  0  0  0
 28 27  1  0  0  0  0
 28 32  1  0  0  0  0
 29 28  2  0  0  0  0
 33 37  1  0  0  0  0
 33 34  2  0  0  0  0
 35 29  1  0  0  0  0
 35 33  1  0  0  0  0
 36 35  1  0  0  0  0
 37 39  1  0  0  0  0
 38 37  1  0  0  0  0
 38 39  1  0  0  0  0
 40 41  3  0  0  0  0
 41 24  1  0  0  0  0
M  END
>  <minimizedAffinity>
-5.41288757

$$$$
