
 OpenBabel03242519193D

 37 40  0  0  1  0  0  0  0  0999 V2000
   36.5620   27.0410   43.0170 C   0  0  0  0  0  0  0  0  0  0  0  0
   35.7140   27.1960   42.2970 H   0  0  0  0  0  0  0  0  0  0  0  0
   36.0640   26.8310   44.0030 H   0  0  0  0  0  0  0  0  0  0  0  0
   37.3950   25.9440   42.5430 C   0  0  0  0  0  0  0  0  0  0  0  0
   36.9010   24.9230   41.7630 C   0  0  0  0  0  0  0  0  0  0  0  0
   37.6850   23.8590   41.3120 C   0  0  0  0  0  0  0  0  0  0  0  0
   38.9860   23.8930   41.6970 N   0  0  0  0  0  0  0  0  0  0  0  0
   39.4610   24.8880   42.4550 C   0  0  0  0  0  0  0  0  0  0  0  0
   38.6710   25.8810   42.8570 N   0  0  0  0  0  0  0  0  0  0  0  0
   35.8480   24.9120   41.4640 H   0  0  0  0  0  0  0  0  0  0  0  0
   37.2900   23.0720   40.7080 H   0  0  0  0  0  0  0  0  0  0  0  0
   40.8820   24.9070   42.9040 C   0  0  2  0  0  0  0  0  0  0  0  0
   41.4990   26.1780   43.3250 C   0  0  0  0  0  0  0  0  0  0  0  0
   41.8710   25.5550   41.9780 C   0  0  2  0  0  0  0  0  0  0  0  0
   41.2110   23.9040   43.2460 H   0  0  0  0  0  0  0  0  0  0  0  0
   42.2340   26.0630   44.1710 H   0  0  0  0  0  0  0  0  0  0  0  0
   40.8800   27.0870   43.3560 H   0  0  0  0  0  0  0  0  0  0  0  0
   42.9170   25.1590   41.9590 H   0  0  0  0  0  0  0  0  0  0  0  0
   41.3730   26.4610   40.5390 S   0  0  0  0  0  0  0  0  0  0  0  0
   42.2890   27.5040   40.3000 H   0  0  0  0  0  0  0  0  0  0  0  0
   37.3340   28.2810   43.1100 C   0  0  0  0  0  0  0  0  0  0  0  0
   38.4410   28.0680   43.0990 H   0  0  0  0  0  0  0  0  0  0  0  0
   37.1650   28.8490   44.0380 H   0  0  0  0  0  0  0  0  0  0  0  0
   39.4510   30.3130   42.6670 Cl  0  0  0  0  0  0  0  0  0  0  0  0
   38.0610   30.1750   41.6250 C   0  0  0  0  0  0  0  0  0  0  0  0
   37.1260   29.2000   41.9490 C   0  0  0  0  0  0  0  0  0  0  0  0
   36.0140   29.0950   41.1660 C   0  0  0  0  0  0  0  0  0  0  0  0
   35.8200   29.9240   40.0920 C   0  0  0  0  0  0  0  0  0  0  0  0
   36.7750   30.9030   39.7770 C   0  0  0  0  0  0  0  0  0  0  0  0
   37.8930   31.0150   40.5560 C   0  0  0  0  0  0  0  0  0  0  0  0
   35.2080   28.3980   41.2880 H   0  0  0  0  0  0  0  0  0  0  0  0
   34.9360   29.8720   39.4360 H   0  0  0  0  0  0  0  0  0  0  0  0
   36.5750   31.5260   38.9250 H   0  0  0  0  0  0  0  0  0  0  0  0
   38.8940   31.9360   40.3350 O   0  0  0  0  0  0  0  0  0  0  0  0
   38.8500   33.2310   40.8470 C   0  0  0  0  0  3  0  0  0  0  0  0
   39.7680   34.2120   40.1860 C   0  0  0  0  0  2  0  0  0  0  0  0
   38.2840   34.3490   40.0410 C   0  0  0  0  0  2  0  0  0  0  0  0
  1 21  1  0  0  0  0
  1  3  1  0  0  0  0
  2  1  1  0  0  0  0
  4  9  1  0  0  0  0
  4  1  1  0  0  0  0
  5  4  2  0  0  0  0
  6  7  2  0  0  0  0
  6  5  1  0  0  0  0
  7  8  1  0  0  0  0
  8  9  2  0  0  0  0
  8 12  1  0  0  0  0
 10  5  1  0  0  0  0
 11  6  1  0  0  0  0
 12 15  1  1  0  0  0
 12 13  1  0  0  0  0
 13 17  1  0  0  0  0
 13 16  1  0  0  0  0
 14 18  1  6  0  0  0
 14 12  1  0  0  0  0
 14 13  1  0  0  0  0
 19 14  1  0  0  0  0
 20 19  1  0  0  0  0
 21 23  1  0  0  0  0
 22 21  1  0  0  0  0
 25 26  1  0  0  0  0
 25 24  1  0  0  0  0
 26 21  1  0  0  0  0
 27 31  1  0  0  0  0
 27 26  2  0  0  0  0
 28 27  1  0  0  0  0
 29 28  2  0  0  0  0
 29 30  1  0  0  0  0
 30 25  2  0  0  0  0
 32 28  1  0  0  0  0
 33 29  1  0  0  0  0
 34 30  1  0  0  0  0
 34 35  1  0  0  0  0
 36 35  1  0  0  0  0
 37 36  1  0  0  0  0
 37 35  1  0  0  0  0
M  END
>  <minimizedAffinity>
-5.49075365

$$$$

 OpenBabel03242519193D

 37 40  0  0  1  0  0  0  0  0999 V2000
   36.0950   27.1760   38.8060 C   0  0  0  0  0  0  0  0  0  0  0  0
   36.9490   27.3130   38.0890 H   0  0  0  0  0  0  0  0  0  0  0  0
   35.3130   26.6240   38.2150 H   0  0  0  0  0  0  0  0  0  0  0  0
   36.5670   26.4400   39.9720 C   0  0  0  0  0  0  0  0  0  0  0  0
   36.6710   25.0690   39.9900 C   0  0  0  0  0  0  0  0  0  0  0  0
   37.1090   24.3500   41.1040 C   0  0  0  0  0  0  0  0  0  0  0  0
   37.4320   25.1010   42.1880 N   0  0  0  0  0  0  0  0  0  0  0  0
   37.3290   26.4350   42.1650 C   0  0  0  0  0  0  0  0  0  0  0  0
   36.9070   27.0710   41.0750 N   0  0  0  0  0  0  0  0  0  0  0  0
   36.4040   24.4800   39.1060 H   0  0  0  0  0  0  0  0  0  0  0  0
   37.1850   23.2850   41.1060 H   0  0  0  0  0  0  0  0  0  0  0  0
   37.6530   27.2570   43.3660 C   0  0  2  0  0  0  0  0  0  0  0  0
   38.0030   28.6790   43.2060 C   0  0  0  0  0  0  0  0  0  0  0  0
   39.0900   27.6550   43.5400 C   0  0  2  0  0  0  0  0  0  0  0  0
   37.2180   26.8140   44.2860 H   0  0  0  0  0  0  0  0  0  0  0  0
   37.6290   29.3320   44.0450 H   0  0  0  0  0  0  0  0  0  0  0  0
   37.9640   29.1290   42.2030 H   0  0  0  0  0  0  0  0  0  0  0  0
   39.4860   27.7680   44.5790 H   0  0  0  0  0  0  0  0  0  0  0  0
   40.3110   27.3810   42.2860 S   0  0  0  0  0  0  0  0  0  0  0  0
   41.2750   28.4080   42.3350 H   0  0  0  0  0  0  0  0  0  0  0  0
   35.5850   28.4920   39.1890 C   0  0  0  0  0  0  0  0  0  0  0  0
   35.7780   28.6970   40.2820 H   0  0  0  0  0  0  0  0  0  0  0  0
   34.4960   28.6070   39.0690 H   0  0  0  0  0  0  0  0  0  0  0  0
   36.1490   30.9020   40.8280 Cl  0  0  0  0  0  0  0  0  0  0  0  0
   36.6000   30.7930   39.1470 C   0  0  0  0  0  0  0  0  0  0  0  0
   36.2610   29.6230   38.4800 C   0  0  0  0  0  0  0  0  0  0  0  0
   36.5750   29.5280   37.1560 C   0  0  0  0  0  0  0  0  0  0  0  0
   37.2060   30.5520   36.5000 C   0  0  0  0  0  0  0  0  0  0  0  0
   37.5430   31.7280   37.1890 C   0  0  0  0  0  0  0  0  0  0  0  0
   37.2320   31.8310   38.5170 C   0  0  0  0  0  0  0  0  0  0  0  0
   36.3790   28.6940   36.5100 H   0  0  0  0  0  0  0  0  0  0  0  0
   37.4760   30.5150   35.4320 H   0  0  0  0  0  0  0  0  0  0  0  0
   38.0370   32.5000   36.6280 H   0  0  0  0  0  0  0  0  0  0  0  0
   37.5210   32.9360   39.2890 O   0  0  0  0  0  0  0  0  0  0  0  0
   38.8190   33.2680   39.6680 C   0  0  0  0  0  3  0  0  0  0  0  0
   38.9280   34.3460   40.7020 C   0  0  0  0  0  2  0  0  0  0  0  0
   39.3210   32.9400   41.0310 C   0  0  0  0  0  2  0  0  0  0  0  0
  1 21  1  0  0  0  0
  1  4  1  0  0  0  0
  2  1  1  0  0  0  0
  3  1  1  0  0  0  0
  4  5  2  0  0  0  0
  4  9  1  0  0  0  0
  5  6  1  0  0  0  0
  6 11  1  0  0  0  0
  6  7  2  0  0  0  0
  8  7  1  0  0  0  0
  8 12  1  0  0  0  0
  9  8  2  0  0  0  0
 10  5  1  0  0  0  0
 12 14  1  0  0  0  0
 12 15  1  1  0  0  0
 13 12  1  0  0  0  0
 13 14  1  0  0  0  0
 13 16  1  0  0  0  0
 14 18  1  1  0  0  0
 17 13  1  0  0  0  0
 19 20  1  0  0  0  0
 19 14  1  0  0  0  0
 21 22  1  0  0  0  0
 23 21  1  0  0  0  0
 25 24  1  0  0  0  0
 26 25  2  0  0  0  0
 26 21  1  0  0  0  0
 27 26  1  0  0  0  0
 28 27  2  0  0  0  0
 28 29  1  0  0  0  0
 29 30  2  0  0  0  0
 30 25  1  0  0  0  0
 30 34  1  0  0  0  0
 31 27  1  0  0  0  0
 32 28  1  0  0  0  0
 33 29  1  0  0  0  0
 34 35  1  0  0  0  0
 35 36  1  0  0  0  0
 35 37  1  0  0  0  0
 36 37  1  0  0  0  0
M  END
>  <minimizedAffinity>
-5.37779713

$$$$

 OpenBabel03242519193D

 37 40  0  0  1  0  0  0  0  0999 V2000
   39.9610   30.8120   42.7590 C   0  0  0  0  0  0  0  0  0  0  0  0
   40.8550   31.2730   43.2600 H   0  0  0  0  0  0  0  0  0  0  0  0
   39.1280   30.9240   43.5050 H   0  0  0  0  0  0  0  0  0  0  0  0
   39.7120   31.5040   41.5010 C   0  0  0  0  0  0  0  0  0  0  0  0
   40.6020   32.4040   40.9620 C   0  0  0  0  0  0  0  0  0  0  0  0
   40.3690   33.0840   39.7650 C   0  0  0  0  0  0  0  0  0  0  0  0
   39.1910   32.7980   39.1550 N   0  0  0  0  0  0  0  0  0  0  0  0
   38.3290   31.9220   39.6830 C   0  0  0  0  0  0  0  0  0  0  0  0
   38.6000   31.2990   40.8280 N   0  0  0  0  0  0  0  0  0  0  0  0
   41.5470   32.6230   41.4700 H   0  0  0  0  0  0  0  0  0  0  0  0
   41.0680   33.7810   39.3570 H   0  0  0  0  0  0  0  0  0  0  0  0
   37.0210   31.6330   39.0290 C   0  0  2  0  0  0  0  0  0  0  0  0
   36.3090   30.3810   39.3390 C   0  0  0  0  0  0  0  0  0  0  0  0
   37.0140   30.5480   37.9920 C   0  0  2  0  0  0  0  0  0  0  0  0
   36.5320   32.5650   38.6770 H   0  0  0  0  0  0  0  0  0  0  0  0
   35.1880   30.4920   39.3570 H   0  0  0  0  0  0  0  0  0  0  0  0
   36.7290   29.7010   40.0960 H   0  0  0  0  0  0  0  0  0  0  0  0
   36.2980   30.6370   37.1370 H   0  0  0  0  0  0  0  0  0  0  0  0
   38.4100   29.4950   37.7080 S   0  0  0  0  0  0  0  0  0  0  0  0
   37.9630   28.2200   37.3060 H   0  0  0  0  0  0  0  0  0  0  0  0
   40.2290   29.3910   42.5290 C   0  0  0  0  0  0  0  0  0  0  0  0
   40.9230   28.9800   43.3180 H   0  0  0  0  0  0  0  0  0  0  0  0
   40.7290   29.1760   41.5730 H   0  0  0  0  0  0  0  0  0  0  0  0
   40.0380   27.1730   40.5670 Cl  0  0  0  0  0  0  0  0  0  0  0  0
   38.8200   27.4470   41.7840 C   0  0  0  0  0  0  0  0  0  0  0  0
   39.0100   28.5320   42.6300 C   0  0  0  0  0  0  0  0  0  0  0  0
   38.0530   28.7840   43.5700 C   0  0  0  0  0  0  0  0  0  0  0  0
   36.9380   27.9950   43.6790 C   0  0  0  0  0  0  0  0  0  0  0  0
   36.7620   26.9010   42.8170 C   0  0  0  0  0  0  0  0  0  0  0  0
   37.7170   26.6410   41.8720 C   0  0  0  0  0  0  0  0  0  0  0  0
   38.0570   29.5790   44.2900 H   0  0  0  0  0  0  0  0  0  0  0  0
   36.1430   28.1660   44.4230 H   0  0  0  0  0  0  0  0  0  0  0  0
   35.8710   26.3150   42.9450 H   0  0  0  0  0  0  0  0  0  0  0  0
   37.6470   25.5920   40.9800 O   0  0  0  0  0  0  0  0  0  0  0  0
   37.1270   24.3470   41.3240 C   0  0  0  0  0  3  0  0  0  0  0  0
   36.3370   23.6650   40.2500 C   0  0  0  0  0  2  0  0  0  0  0  0
   37.6520   23.1030   40.6940 C   0  0  0  0  0  2  0  0  0  0  0  0
  1  2  1  0  0  0  0
  1  3  1  0  0  0  0
  4  1  1  0  0  0  0
  5 10  1  0  0  0  0
  5  4  1  0  0  0  0
  6  5  2  0  0  0  0
  7  8  2  0  0  0  0
  7  6  1  0  0  0  0
  8  9  1  0  0  0  0
  9  4  2  0  0  0  0
 11  6  1  0  0  0  0
 12 15  1  6  0  0  0
 12 13  1  0  0  0  0
 12  8  1  0  0  0  0
 13 16  1  0  0  0  0
 13 17  1  0  0  0  0
 14 18  1  6  0  0  0
 14 12  1  0  0  0  0
 14 13  1  0  0  0  0
 19 14  1  0  0  0  0
 20 19  1  0  0  0  0
 21 26  1  0  0  0  0
 21  1  1  0  0  0  0
 21 22  1  0  0  0  0
 23 21  1  0  0  0  0
 24 25  1  0  0  0  0
 25 30  2  0  0  0  0
 25 26  1  0  0  0  0
 26 27  2  0  0  0  0
 27 28  1  0  0  0  0
 27 31  1  0  0  0  0
 28 32  1  0  0  0  0
 29 33  1  0  0  0  0
 29 28  2  0  0  0  0
 30 29  1  0  0  0  0
 34 35  1  0  0  0  0
 34 30  1  0  0  0  0
 36 37  1  0  0  0  0
 36 35  1  0  0  0  0
 37 35  1  0  0  0  0
M  END
>  <minimizedAffinity>
-5.32765102

$$$$

 OpenBabel03242519193D

 37 40  0  0  1  0  0  0  0  0999 V2000
   37.9130   28.7830   43.4250 C   0  0  0  0  0  0  0  0  0  0  0  0
   36.9050   28.9130   42.9460 H   0  0  0  0  0  0  0  0  0  0  0  0
   37.7510   29.0520   44.5050 H   0  0  0  0  0  0  0  0  0  0  0  0
   38.3580   27.4090   43.2300 C   0  0  0  0  0  0  0  0  0  0  0  0
   39.5760   26.9550   43.6800 C   0  0  0  0  0  0  0  0  0  0  0  0
   40.0210   25.6460   43.4880 C   0  0  0  0  0  0  0  0  0  0  0  0
   39.1630   24.8330   42.8190 N   0  0  0  0  0  0  0  0  0  0  0  0
   37.9800   25.2810   42.3840 C   0  0  0  0  0  0  0  0  0  0  0  0
   37.6030   26.5390   42.5950 N   0  0  0  0  0  0  0  0  0  0  0  0
   40.2550   27.6250   44.2170 H   0  0  0  0  0  0  0  0  0  0  0  0
   40.9690   25.3050   43.8410 H   0  0  0  0  0  0  0  0  0  0  0  0
   37.0530   24.3970   41.6200 C   0  0  2  0  0  0  0  0  0  0  0  0
   37.5870   23.2360   40.8880 C   0  0  0  0  0  0  0  0  0  0  0  0
   37.1290   24.4780   40.1230 C   0  0  2  0  0  0  0  0  0  0  0  0
   36.0130   24.4780   42.0010 H   0  0  0  0  0  0  0  0  0  0  0  0
   36.8980   22.3440   40.8930 H   0  0  0  0  0  0  0  0  0  0  0  0
   38.6600   23.0040   40.9640 H   0  0  0  0  0  0  0  0  0  0  0  0
   36.1930   24.3030   39.5350 H   0  0  0  0  0  0  0  0  0  0  0  0
   38.3960   25.3870   39.2830 S   0  0  0  0  0  0  0  0  0  0  0  0
   38.6960   24.7540   38.0600 H   0  0  0  0  0  0  0  0  0  0  0  0
   38.8500   29.7280   42.8180 C   0  0  0  0  0  0  0  0  0  0  0  0
   39.7630   29.1940   42.4270 H   0  0  0  0  0  0  0  0  0  0  0  0
   39.2420   30.4850   43.5140 H   0  0  0  0  0  0  0  0  0  0  0  0
   40.8010   31.2650   41.1940 Cl  0  0  0  0  0  0  0  0  0  0  0  0
   39.1140   31.1600   40.7680 C   0  0  0  0  0  0  0  0  0  0  0  0
   38.2950   30.4300   41.6200 C   0  0  0  0  0  0  0  0  0  0  0  0
   36.9650   30.3610   41.3230 C   0  0  0  0  0  0  0  0  0  0  0  0
   36.4480   30.9890   40.2220 C   0  0  0  0  0  0  0  0  0  0  0  0
   37.2890   31.7220   39.3690 C   0  0  0  0  0  0  0  0  0  0  0  0
   38.6240   31.7960   39.6590 C   0  0  0  0  0  0  0  0  0  0  0  0
   36.2110   29.8400   41.8810 H   0  0  0  0  0  0  0  0  0  0  0  0
   35.3810   30.9580   39.9480 H   0  0  0  0  0  0  0  0  0  0  0  0
   36.8340   32.1950   38.5190 H   0  0  0  0  0  0  0  0  0  0  0  0
   39.5390   32.4830   38.8890 O   0  0  0  0  0  0  0  0  0  0  0  0
   39.9880   32.0120   37.6570 C   0  0  0  0  0  3  0  0  0  0  0  0
   41.3960   32.3820   37.3050 C   0  0  0  0  0  2  0  0  0  0  0  0
   41.0350   30.9560   37.5820 C   0  0  0  0  0  2  0  0  0  0  0  0
  1  3  1  0  0  0  0
  2  1  1  0  0  0  0
  4  1  1  0  0  0  0
  4  5  1  0  0  0  0
  5 10  1  0  0  0  0
  6  5  2  0  0  0  0
  6 11  1  0  0  0  0
  7  6  1  0  0  0  0
  8  9  1  0  0  0  0
  8  7  2  0  0  0  0
  9  4  2  0  0  0  0
 12 15  1  1  0  0  0
 12  8  1  0  0  0  0
 13 16  1  0  0  0  0
 13 17  1  0  0  0  0
 13 12  1  0  0  0  0
 14 18  1  6  0  0  0
 14 13  1  0  0  0  0
 14 12  1  0  0  0  0
 19 14  1  0  0  0  0
 20 19  1  0  0  0  0
 21  1  1  0  0  0  0
 21 23  1  0  0  0  0
 22 21  1  0  0  0  0
 25 24  1  0  0  0  0
 25 26  1  0  0  0  0
 26 21  1  0  0  0  0
 27 26  2  0  0  0  0
 27 31  1  0  0  0  0
 28 27  1  0  0  0  0
 29 30  1  0  0  0  0
 29 28  2  0  0  0  0
 30 25  2  0  0  0  0
 32 28  1  0  0  0  0
 33 29  1  0  0  0  0
 34 30  1  0  0  0  0
 35 34  1  0  0  0  0
 36 37  1  0  0  0  0
 36 35  1  0  0  0  0
 37 35  1  0  0  0  0
M  END
>  <minimizedAffinity>
-5.31260157

$$$$

 OpenBabel03242519193D

 37 40  0  0  1  0  0  0  0  0999 V2000
   39.4410   29.9040   42.4830 C   0  0  0  0  0  0  0  0  0  0  0  0
   40.2100   29.3110   41.9180 H   0  0  0  0  0  0  0  0  0  0  0  0
   40.0390   30.5860   43.1480 H   0  0  0  0  0  0  0  0  0  0  0  0
   38.5950   30.6140   41.5330 C   0  0  0  0  0  0  0  0  0  0  0  0
   38.7950   31.9360   41.2080 C   0  0  0  0  0  0  0  0  0  0  0  0
   37.9850   32.6330   40.3100 C   0  0  0  0  0  0  0  0  0  0  0  0
   36.9700   31.9130   39.7660 N   0  0  0  0  0  0  0  0  0  0  0  0
   36.7800   30.6280   40.0860 C   0  0  0  0  0  0  0  0  0  0  0  0
   37.5830   30.0100   40.9480 N   0  0  0  0  0  0  0  0  0  0  0  0
   39.6190   32.5000   41.6580 H   0  0  0  0  0  0  0  0  0  0  0  0
   38.1490   33.6590   40.0650 H   0  0  0  0  0  0  0  0  0  0  0  0
   35.6450   29.8480   39.5140 C   0  0  2  0  0  0  0  0  0  0  0  0
   35.7830   28.3950   39.3150 C   0  0  0  0  0  0  0  0  0  0  0  0
   35.8190   29.3390   38.1120 C   0  0  2  0  0  0  0  0  0  0  0  0
   34.6790   30.3750   39.6600 H   0  0  0  0  0  0  0  0  0  0  0  0
   34.8300   27.8220   39.4980 H   0  0  0  0  0  0  0  0  0  0  0  0
   36.7060   27.8960   39.6470 H   0  0  0  0  0  0  0  0  0  0  0  0
   34.9110   29.2500   37.4650 H   0  0  0  0  0  0  0  0  0  0  0  0
   37.3620   29.4410   37.2480 S   0  0  0  0  0  0  0  0  0  0  0  0
   37.4870   28.3400   36.3770 H   0  0  0  0  0  0  0  0  0  0  0  0
   38.6490   28.9870   43.3040 C   0  0  0  0  0  0  0  0  0  0  0  0
   37.5770   28.9590   42.9560 H   0  0  0  0  0  0  0  0  0  0  0  0
   38.5930   29.2680   44.3680 H   0  0  0  0  0  0  0  0  0  0  0  0
   36.5710   27.0100   42.5440 Cl  0  0  0  0  0  0  0  0  0  0  0  0
   38.2260   26.5520   42.8420 C   0  0  0  0  0  0  0  0  0  0  0  0
   39.1010   27.5650   43.2140 C   0  0  0  0  0  0  0  0  0  0  0  0
   40.3950   27.2250   43.4830 C   0  0  0  0  0  0  0  0  0  0  0  0
   40.8230   25.9270   43.3900 C   0  0  0  0  0  0  0  0  0  0  0  0
   39.9270   24.9150   43.0110 C   0  0  0  0  0  0  0  0  0  0  0  0
   38.6280   25.2470   42.7390 C   0  0  0  0  0  0  0  0  0  0  0  0
   41.1830   27.8890   43.7800 H   0  0  0  0  0  0  0  0  0  0  0  0
   41.8580   25.6110   43.6000 H   0  0  0  0  0  0  0  0  0  0  0  0
   40.3130   23.9140   42.9530 H   0  0  0  0  0  0  0  0  0  0  0  0
   37.6670   24.3360   42.3550 O   0  0  0  0  0  0  0  0  0  0  0  0
   37.6180   23.7930   41.0730 C   0  0  0  0  0  3  0  0  0  0  0  0
   36.2780   23.8490   40.4050 C   0  0  0  0  0  2  0  0  0  0  0  0
   37.4190   24.6670   39.8840 C   0  0  0  0  0  2  0  0  0  0  0  0
  1  3  1  0  0  0  0
  1 21  1  0  0  0  0
  2  1  1  0  0  0  0
  4  1  1  0  0  0  0
  5  4  1  0  0  0  0
  5 10  1  0  0  0  0
  6  5  2  0  0  0  0
  7  8  2  0  0  0  0
  7  6  1  0  0  0  0
  8  9  1  0  0  0  0
  9  4  2  0  0  0  0
 11  6  1  0  0  0  0
 12 15  1  1  0  0  0
 12  8  1  0  0  0  0
 13 16  1  0  0  0  0
 13 12  1  0  0  0  0
 13 17  1  0  0  0  0
 14 18  1  6  0  0  0
 14 13  1  0  0  0  0
 14 12  1  0  0  0  0
 19 14  1  0  0  0  0
 20 19  1  0  0  0  0
 21 23  1  0  0  0  0
 22 21  1  0  0  0  0
 24 25  1  0  0  0  0
 25 26  1  0  0  0  0
 26 21  1  0  0  0  0
 26 27  2  0  0  0  0
 27 31  1  0  0  0  0
 28 27  1  0  0  0  0
 28 32  1  0  0  0  0
 29 28  2  0  0  0  0
 30 25  2  0  0  0  0
 30 29  1  0  0  0  0
 33 29  1  0  0  0  0
 34 30  1  0  0  0  0
 35 34  1  0  0  0  0
 36 35  1  0  0  0  0
 37 36  1  0  0  0  0
 37 35  1  0  0  0  0
M  END
>  <minimizedAffinity>
-5.2471242

$$$$

 OpenBabel03242519193D

 37 40  0  0  1  0  0  0  0  0999 V2000
   37.6200   30.1750   39.2730 C   0  0  0  0  0  0  0  0  0  0  0  0
   37.2910   30.1490   38.1990 H   0  0  0  0  0  0  0  0  0  0  0  0
   38.4290   29.3970   39.3420 H   0  0  0  0  0  0  0  0  0  0  0  0
   38.0780   31.5190   39.5980 C   0  0  0  0  0  0  0  0  0  0  0  0
   37.2660   32.6240   39.4900 C   0  0  0  0  0  0  0  0  0  0  0  0
   37.6960   33.9190   39.7850 C   0  0  0  0  0  0  0  0  0  0  0  0
   38.9860   34.0240   40.1920 N   0  0  0  0  0  0  0  0  0  0  0  0
   39.7720   32.9460   40.2950 C   0  0  0  0  0  0  0  0  0  0  0  0
   39.3120   31.7320   40.0020 N   0  0  0  0  0  0  0  0  0  0  0  0
   36.2270   32.5200   39.1590 H   0  0  0  0  0  0  0  0  0  0  0  0
   37.0560   34.7700   39.6970 H   0  0  0  0  0  0  0  0  0  0  0  0
   41.1990   33.0650   40.7100 C   0  0  2  0  0  0  0  0  0  0  0  0
   41.9040   34.3480   40.5410 C   0  0  0  0  0  0  0  0  0  0  0  0
   42.2120   33.1760   39.6070 C   0  0  2  0  0  0  0  0  0  0  0  0
   41.4670   32.2930   41.4610 H   0  0  0  0  0  0  0  0  0  0  0  0
   42.6440   34.5670   41.3620 H   0  0  0  0  0  0  0  0  0  0  0  0
   41.3460   35.2180   40.1630 H   0  0  0  0  0  0  0  0  0  0  0  0
   43.2290   32.7440   39.7780 H   0  0  0  0  0  0  0  0  0  0  0  0
   41.7510   33.3920   37.9110 S   0  0  0  0  0  0  0  0  0  0  0  0
   42.7290   34.1630   37.2520 H   0  0  0  0  0  0  0  0  0  0  0  0
   36.4920   29.7880   40.1210 C   0  0  0  0  0  0  0  0  0  0  0  0
   35.7460   29.1710   39.5420 H   0  0  0  0  0  0  0  0  0  0  0  0
   35.9110   30.6370   40.5140 H   0  0  0  0  0  0  0  0  0  0  0  0
   36.2260   26.8670   39.6700 Cl  0  0  0  0  0  0  0  0  0  0  0  0
   36.8260   27.5260   41.1680 C   0  0  0  0  0  0  0  0  0  0  0  0
   36.8820   28.9100   41.2680 C   0  0  0  0  0  0  0  0  0  0  0  0
   37.3180   29.4490   42.4430 C   0  0  0  0  0  0  0  0  0  0  0  0
   37.6900   28.6550   43.4950 C   0  0  0  0  0  0  0  0  0  0  0  0
   37.6290   27.2570   43.3780 C   0  0  0  0  0  0  0  0  0  0  0  0
   37.1930   26.7080   42.2030 C   0  0  0  0  0  0  0  0  0  0  0  0
   37.4150   30.4930   42.6710 H   0  0  0  0  0  0  0  0  0  0  0  0
   38.0460   29.0500   44.4600 H   0  0  0  0  0  0  0  0  0  0  0  0
   37.9320   26.6800   44.2320 H   0  0  0  0  0  0  0  0  0  0  0  0
   37.0990   25.3510   41.9780 O   0  0  0  0  0  0  0  0  0  0  0  0
   38.2130   24.5160   41.9460 C   0  0  0  0  0  3  0  0  0  0  0  0
   38.1390   23.3870   40.9640 C   0  0  0  0  0  2  0  0  0  0  0  0
   39.1180   24.5010   40.7630 C   0  0  0  0  0  2  0  0  0  0  0  0
  1  3  1  0  0  0  0
  1  4  1  0  0  0  0
  1 21  1  0  0  0  0
  2  1  1  0  0  0  0
  4  9  1  0  0  0  0
  5  4  2  0  0  0  0
  5  6  1  0  0  0  0
  6  7  2  0  0  0  0
  7  8  1  0  0  0  0
  8 12  1  0  0  0  0
  9  8  2  0  0  0  0
 10  5  1  0  0  0  0
 11  6  1  0  0  0  0
 12 15  1  1  0  0  0
 13 12  1  0  0  0  0
 13 16  1  0  0  0  0
 14 18  1  1  0  0  0
 14 13  1  0  0  0  0
 14 12  1  0  0  0  0
 17 13  1  0  0  0  0
 19 14  1  0  0  0  0
 20 19  1  0  0  0  0
 21 23  1  0  0  0  0
 21 26  1  0  0  0  0
 22 21  1  0  0  0  0
 24 25  1  0  0  0  0
 25 26  2  0  0  0  0
 25 30  1  0  0  0  0
 26 27  1  0  0  0  0
 27 31  1  0  0  0  0
 27 28  2  0  0  0  0
 28 32  1  0  0  0  0
 29 28  1  0  0  0  0
 29 33  1  0  0  0  0
 30 29  2  0  0  0  0
 34 30  1  0  0  0  0
 35 34  1  0  0  0  0
 36 35  1  0  0  0  0
 37 36  1  0  0  0  0
 37 35  1  0  0  0  0
M  END
>  <minimizedAffinity>
-5.24487829

$$$$

 OpenBabel03242519193D

 37 40  0  0  1  0  0  0  0  0999 V2000
   36.3300   30.1900   39.0620 C   0  0  0  0  0  0  0  0  0  0  0  0
   35.3840   30.0450   38.4740 H   0  0  0  0  0  0  0  0  0  0  0  0
   36.0440   30.8900   39.8940 H   0  0  0  0  0  0  0  0  0  0  0  0
   36.8020   28.8930   39.5310 C   0  0  0  0  0  0  0  0  0  0  0  0
   37.2550   27.9170   38.6750 C   0  0  0  0  0  0  0  0  0  0  0  0
   37.6970   26.6650   39.1090 C   0  0  0  0  0  0  0  0  0  0  0  0
   37.6520   26.4680   40.4520 N   0  0  0  0  0  0  0  0  0  0  0  0
   37.2090   27.4210   41.2800 C   0  0  0  0  0  0  0  0  0  0  0  0
   36.8000   28.5990   40.8130 N   0  0  0  0  0  0  0  0  0  0  0  0
   37.2840   28.0940   37.5950 H   0  0  0  0  0  0  0  0  0  0  0  0
   38.0470   25.9150   38.4350 H   0  0  0  0  0  0  0  0  0  0  0  0
   37.1280   27.1910   42.7510 C   0  0  2  0  0  0  0  0  0  0  0  0
   37.2980   28.3240   43.6780 C   0  0  0  0  0  0  0  0  0  0  0  0
   38.4150   27.2920   43.5180 C   0  0  2  0  0  0  0  0  0  0  0  0
   36.5630   26.2660   42.9840 H   0  0  0  0  0  0  0  0  0  0  0  0
   36.6530   28.2530   44.5990 H   0  0  0  0  0  0  0  0  0  0  0  0
   37.4250   29.3370   43.2660 H   0  0  0  0  0  0  0  0  0  0  0  0
   38.5430   26.6490   44.4240 H   0  0  0  0  0  0  0  0  0  0  0  0
   39.9170   27.8780   42.7830 S   0  0  0  0  0  0  0  0  0  0  0  0
   40.6860   28.5470   43.7560 H   0  0  0  0  0  0  0  0  0  0  0  0
   37.3270   30.8280   38.2020 C   0  0  0  0  0  0  0  0  0  0  0  0
   36.8470   31.2470   37.2710 H   0  0  0  0  0  0  0  0  0  0  0  0
   38.1090   30.1460   37.8340 H   0  0  0  0  0  0  0  0  0  0  0  0
   40.2940   30.8390   38.1410 Cl  0  0  0  0  0  0  0  0  0  0  0  0
   39.3730   32.1410   38.8460 C   0  0  0  0  0  0  0  0  0  0  0  0
   37.9900   32.0100   38.8350 C   0  0  0  0  0  0  0  0  0  0  0  0
   37.2500   33.0020   39.4090 C   0  0  0  0  0  0  0  0  0  0  0  0
   37.8470   34.0940   39.9800 C   0  0  0  0  0  0  0  0  0  0  0  0
   39.2460   34.2130   39.9820 C   0  0  0  0  0  0  0  0  0  0  0  0
   39.9950   33.2230   39.4080 C   0  0  0  0  0  0  0  0  0  0  0  0
   36.1800   33.0430   39.4790 H   0  0  0  0  0  0  0  0  0  0  0  0
   37.2860   34.9160   40.4550 H   0  0  0  0  0  0  0  0  0  0  0  0
   39.6630   35.0890   40.4420 H   0  0  0  0  0  0  0  0  0  0  0  0
   41.3730   33.2400   39.3490 O   0  0  0  0  0  0  0  0  0  0  0  0
   42.0860   34.2630   38.7280 C   0  0  0  0  0  3  0  0  0  0  0  0
   43.5570   34.0210   38.5830 C   0  0  0  0  0  2  0  0  0  0  0  0
   42.6750   34.0650   37.3740 C   0  0  0  0  0  2  0  0  0  0  0  0
  1  4  1  0  0  0  0
  1  3  1  0  0  0  0
  2  1  1  0  0  0  0
  4  9  1  0  0  0  0
  5  6  1  0  0  0  0
  5  4  2  0  0  0  0
  6  7  2  0  0  0  0
  7  8  1  0  0  0  0
  8 12  1  0  0  0  0
  9  8  2  0  0  0  0
 10  5  1  0  0  0  0
 11  6  1  0  0  0  0
 12 15  1  1  0  0  0
 12 14  1  0  0  0  0
 12 13  1  0  0  0  0
 13 16  1  0  0  0  0
 14 13  1  0  0  0  0
 14 18  1  1  0  0  0
 17 13  1  0  0  0  0
 19 14  1  0  0  0  0
 19 20  1  0  0  0  0
 21 26  1  0  0  0  0
 21  1  1  0  0  0  0
 22 21  1  0  0  0  0
 23 21  1  0  0  0  0
 24 25  1  0  0  0  0
 25 30  1  0  0  0  0
 26 25  2  0  0  0  0
 26 27  1  0  0  0  0
 27 31  1  0  0  0  0
 27 28  2  0  0  0  0
 28 29  1  0  0  0  0
 28 32  1  0  0  0  0
 29 33  1  0  0  0  0
 30 29  2  0  0  0  0
 34 30  1  0  0  0  0
 35 34  1  0  0  0  0
 36 35  1  0  0  0  0
 37 36  1  0  0  0  0
 37 35  1  0  0  0  0
M  END
>  <minimizedAffinity>
-5.18525553

$$$$

 OpenBabel03242519193D

 37 40  0  0  1  0  0  0  0  0999 V2000
   36.4500   29.8230   40.1570 C   0  0  0  0  0  0  0  0  0  0  0  0
   35.7070   29.3180   39.4830 H   0  0  0  0  0  0  0  0  0  0  0  0
   35.9020   30.7150   40.5680 H   0  0  0  0  0  0  0  0  0  0  0  0
   36.8780   28.8820   41.1830 C   0  0  0  0  0  0  0  0  0  0  0  0
   37.3980   29.2880   42.3900 C   0  0  0  0  0  0  0  0  0  0  0  0
   37.8240   28.3970   43.3770 C   0  0  0  0  0  0  0  0  0  0  0  0
   37.6910   27.0810   43.0670 N   0  0  0  0  0  0  0  0  0  0  0  0
   37.1850   26.6920   41.8910 C   0  0  0  0  0  0  0  0  0  0  0  0
   36.7920   27.5840   40.9850 N   0  0  0  0  0  0  0  0  0  0  0  0
   37.4980   30.3530   42.6220 H   0  0  0  0  0  0  0  0  0  0  0  0
   38.2260   28.7240   44.3100 H   0  0  0  0  0  0  0  0  0  0  0  0
   37.0710   25.2480   41.5390 C   0  0  2  0  0  0  0  0  0  0  0  0
   37.9030   24.2560   42.2420 C   0  0  0  0  0  0  0  0  0  0  0  0
   38.2290   24.6440   40.7990 C   0  0  2  0  0  0  0  0  0  0  0  0
   36.0950   25.0250   41.0600 H   0  0  0  0  0  0  0  0  0  0  0  0
   37.3830   23.2700   42.4110 H   0  0  0  0  0  0  0  0  0  0  0  0
   38.5570   24.5920   43.0610 H   0  0  0  0  0  0  0  0  0  0  0  0
   38.0210   23.8190   40.0720 H   0  0  0  0  0  0  0  0  0  0  0  0
   39.7550   25.5090   40.5510 S   0  0  0  0  0  0  0  0  0  0  0  0
   40.8200   24.5870   40.5360 H   0  0  0  0  0  0  0  0  0  0  0  0
   37.5880   30.2720   39.3520 C   0  0  0  0  0  0  0  0  0  0  0  0
   37.3340   30.2580   38.2530 H   0  0  0  0  0  0  0  0  0  0  0  0
   38.4830   29.6380   39.4440 H   0  0  0  0  0  0  0  0  0  0  0  0
   40.3540   30.6850   40.3440 Cl  0  0  0  0  0  0  0  0  0  0  0  0
   39.2600   32.0120   40.0600 C   0  0  0  0  0  0  0  0  0  0  0  0
   37.9830   31.6900   39.6180 C   0  0  0  0  0  0  0  0  0  0  0  0
   37.0980   32.7100   39.4200 C   0  0  0  0  0  0  0  0  0  0  0  0
   37.4540   34.0130   39.6490 C   0  0  0  0  0  0  0  0  0  0  0  0
   38.7490   34.3220   40.0940 C   0  0  0  0  0  0  0  0  0  0  0  0
   39.6420   33.3060   40.2940 C   0  0  0  0  0  0  0  0  0  0  0  0
   36.0840   32.6210   39.0840 H   0  0  0  0  0  0  0  0  0  0  0  0
   36.7700   34.8650   39.5020 H   0  0  0  0  0  0  0  0  0  0  0  0
   38.9770   35.3590   40.2570 H   0  0  0  0  0  0  0  0  0  0  0  0
   40.9380   33.4960   40.7240 O   0  0  0  0  0  0  0  0  0  0  0  0
   41.8270   34.3480   40.0730 C   0  0  0  0  0  3  0  0  0  0  0  0
   43.1030   33.7100   39.6140 C   0  0  0  0  0  2  0  0  0  0  0  0
   42.0970   34.1950   38.6160 C   0  0  0  0  0  2  0  0  0  0  0  0
  1  3  1  0  0  0  0
  1  4  1  0  0  0  0
  2  1  1  0  0  0  0
  4  5  1  0  0  0  0
  5 10  1  0  0  0  0
  5  6  2  0  0  0  0
  6 11  1  0  0  0  0
  7  6  1  0  0  0  0
  8  7  2  0  0  0  0
  9  4  2  0  0  0  0
  9  8  1  0  0  0  0
 12 15  1  6  0  0  0
 12  8  1  0  0  0  0
 12 13  1  0  0  0  0
 13 16  1  0  0  0  0
 13 17  1  0  0  0  0
 14 18  1  6  0  0  0
 14 12  1  0  0  0  0
 14 13  1  0  0  0  0
 19 14  1  0  0  0  0
 20 19  1  0  0  0  0
 21 23  1  0  0  0  0
 21 26  1  0  0  0  0
 21  1  1  0  0  0  0
 22 21  1  0  0  0  0
 25 30  1  0  0  0  0
 25 24  1  0  0  0  0
 26 25  2  0  0  0  0
 27 26  1  0  0  0  0
 27 28  2  0  0  0  0
 28 29  1  0  0  0  0
 29 33  1  0  0  0  0
 29 30  2  0  0  0  0
 30 34  1  0  0  0  0
 31 27  1  0  0  0  0
 32 28  1  0  0  0  0
 35 34  1  0  0  0  0
 36 35  1  0  0  0  0
 37 36  1  0  0  0  0
 37 35  1  0  0  0  0
M  END
>  <minimizedAffinity>
-5.17416859

$$$$

 OpenBabel03242519193D

 37 40  0  0  1  0  0  0  0  0999 V2000
   36.6200   30.1840   41.7750 C   0  0  0  0  0  0  0  0  0  0  0  0
   35.9230   30.4900   42.6020 H   0  0  0  0  0  0  0  0  0  0  0  0
   37.2620   31.0890   41.5940 H   0  0  0  0  0  0  0  0  0  0  0  0
   37.3750   29.0120   42.1990 C   0  0  0  0  0  0  0  0  0  0  0  0
   38.6160   29.1040   42.7840 C   0  0  0  0  0  0  0  0  0  0  0  0
   39.3560   27.9890   43.1820 C   0  0  0  0  0  0  0  0  0  0  0  0
   38.7660   26.7880   42.9540 N   0  0  0  0  0  0  0  0  0  0  0  0
   37.5580   26.7050   42.3840 C   0  0  0  0  0  0  0  0  0  0  0  0
   36.8930   27.8010   42.0240 N   0  0  0  0  0  0  0  0  0  0  0  0
   39.0770   30.0810   42.9600 H   0  0  0  0  0  0  0  0  0  0  0  0
   40.3200   28.0720   43.6360 H   0  0  0  0  0  0  0  0  0  0  0  0
   36.9240   25.3850   42.1030 C   0  0  2  0  0  0  0  0  0  0  0  0
   37.7610   24.1750   42.0250 C   0  0  0  0  0  0  0  0  0  0  0  0
   37.1850   24.7900   40.7490 C   0  0  2  0  0  0  0  0  0  0  0  0
   35.8470   25.3900   42.3670 H   0  0  0  0  0  0  0  0  0  0  0  0
   37.2570   23.2520   42.4310 H   0  0  0  0  0  0  0  0  0  0  0  0
   38.8380   24.2560   42.2350 H   0  0  0  0  0  0  0  0  0  0  0  0
   36.3870   24.1580   40.2860 H   0  0  0  0  0  0  0  0  0  0  0  0
   38.3610   25.4790   39.6180 S   0  0  0  0  0  0  0  0  0  0  0  0
   38.9360   24.4470   38.8510 H   0  0  0  0  0  0  0  0  0  0  0  0
   35.8310   29.8930   40.5770 C   0  0  0  0  0  0  0  0  0  0  0  0
   34.8380   30.4280   40.6090 H   0  0  0  0  0  0  0  0  0  0  0  0
   35.5740   28.8290   40.4540 H   0  0  0  0  0  0  0  0  0  0  0  0
   35.8720   27.9620   38.3240 Cl  0  0  0  0  0  0  0  0  0  0  0  0
   36.5240   29.5730   38.1810 C   0  0  0  0  0  0  0  0  0  0  0  0
   36.4670   30.3760   39.3130 C   0  0  0  0  0  0  0  0  0  0  0  0
   36.9990   31.6300   39.2340 C   0  0  0  0  0  0  0  0  0  0  0  0
   37.5730   32.0870   38.0770 C   0  0  0  0  0  0  0  0  0  0  0  0
   37.6210   31.2630   36.9420 C   0  0  0  0  0  0  0  0  0  0  0  0
   37.0890   30.0050   37.0120 C   0  0  0  0  0  0  0  0  0  0  0  0
   37.0320   32.3620   40.0170 H   0  0  0  0  0  0  0  0  0  0  0  0
   38.0150   33.0910   37.9730 H   0  0  0  0  0  0  0  0  0  0  0  0
   38.0810   31.6700   36.0600 H   0  0  0  0  0  0  0  0  0  0  0  0
   37.0780   29.1160   35.9580 O   0  0  0  0  0  0  0  0  0  0  0  0
   36.3210   29.3260   34.8080 C   0  0  0  0  0  3  0  0  0  0  0  0
   35.5720   28.1280   34.3080 C   0  0  0  0  0  2  0  0  0  0  0  0
   34.8330   29.3060   34.8630 C   0  0  0  0  0  2  0  0  0  0  0  0
  1  4  1  0  0  0  0
  1  2  1  0  0  0  0
  3  1  1  0  0  0  0
  4  5  1  0  0  0  0
  5 10  1  0  0  0  0
  5  6  2  0  0  0  0
  6 11  1  0  0  0  0
  7  6  1  0  0  0  0
  8  7  2  0  0  0  0
  9  4  2  0  0  0  0
  9  8  1  0  0  0  0
 12 15  1  1  0  0  0
 12  8  1  0  0  0  0
 13 12  1  0  0  0  0
 13 17  1  0  0  0  0
 13 16  1  0  0  0  0
 14 18  1  6  0  0  0
 14 13  1  0  0  0  0
 14 12  1  0  0  0  0
 19 14  1  0  0  0  0
 20 19  1  0  0  0  0
 21 22  1  0  0  0  0
 21  1  1  0  0  0  0
 23 21  1  0  0  0  0
 25 24  1  0  0  0  0
 25 26  1  0  0  0  0
 26 21  1  0  0  0  0
 27 26  2  0  0  0  0
 27 31  1  0  0  0  0
 28 27  1  0  0  0  0
 29 30  1  0  0  0  0
 29 28  2  0  0  0  0
 30 25  2  0  0  0  0
 32 28  1  0  0  0  0
 33 29  1  0  0  0  0
 34 30  1  0  0  0  0
 35 37  1  0  0  0  0
 35 34  1  0  0  0  0
 36 35  1  0  0  0  0
 36 37  1  0  0  0  0
M  END
>  <minimizedAffinity>
-5.15099525

$$$$
