
 OpenBabel03252508163D

 31 34  0  0  1  0  0  0  0  0999 V2000
   39.1960   26.8340   43.6060 C   0  0  0  0  0  0  0  0  0  0  0  0
   39.9140   27.0630   44.4210 H   0  0  0  0  0  0  0  0  0  0  0  0
   38.2120   26.5320   43.9680 H   0  0  0  0  0  0  0  0  0  0  0  0
   39.8210   25.7550   42.7540 C   0  0  1  0  0  0  0  0  0  0  0  0
   39.7450   24.3680   43.2890 C   0  0  0  0  0  0  0  0  0  0  0  0
   38.9530   24.7280   42.1290 C   0  0  1  0  0  0  0  0  0  0  0  0
   40.7130   26.0420   42.1600 H   0  0  0  0  0  0  0  0  0  0  0  0
   39.2510   24.2050   44.2700 H   0  0  0  0  0  0  0  0  0  0  0  0
   40.6560   23.7220   43.1760 H   0  0  0  0  0  0  0  0  0  0  0  0
   39.3200   24.2810   41.1540 H   0  0  0  0  0  0  0  0  0  0  0  0
   37.4900   24.9580   42.1290 C   0  0  0  0  0  0  0  0  0  0  0  0
   36.7060   24.0980   41.1030 C   0  0  0  0  0  0  0  0  0  0  0  0
   36.8860   25.5430   40.8430 C   0  0  0  0  0  0  0  0  0  0  0  0
   36.9600   25.1960   43.0740 H   0  0  0  0  0  0  0  0  0  0  0  0
   37.2680   23.3100   40.5860 H   0  0  0  0  0  0  0  0  0  0  0  0
   35.6940   23.7880   41.4630 H   0  0  0  0  0  0  0  0  0  0  0  0
   37.6320   25.7630   40.0280 H   0  0  0  0  0  0  0  0  0  0  0  0
   36.0260   26.2140   40.9630 H   0  0  0  0  0  0  0  0  0  0  0  0
   37.9240   28.6090   42.6870 C   0  0  0  0  0  3  0  0  0  0  0  0
   39.1000   28.1280   42.8080 C   0  0  0  0  0  3  0  0  0  0  0  0
   36.4170   31.3030   40.6790 C   0  0  0  0  0  0  0  0  0  0  0  0
   37.4810   32.1630   40.4450 C   0  0  0  0  0  0  0  0  0  0  0  0
   38.6980   31.8020   40.9970 C   0  0  0  0  0  0  0  0  0  0  0  0
   38.7750   30.6680   41.7050 N   0  0  0  0  0  0  0  0  0  0  0  0
   37.7440   29.8420   41.9250 C   0  0  0  0  0  0  0  0  0  0  0  0
   36.5760   30.1820   41.4020 N   0  0  0  0  0  0  0  0  0  0  0  0
   35.4600   31.5750   40.2530 H   0  0  0  0  0  0  0  0  0  0  0  0
   37.3910   33.0620   39.8760 H   0  0  0  0  0  0  0  0  0  0  0  0
   39.8970   32.6870   40.7870 C   0  0  0  0  0  3  0  0  0  0  0  0
   40.6780   32.3120   39.4910 C   0  0  0  0  0  2  0  0  0  0  0  0
   39.9550   33.6330   39.6710 C   0  0  0  0  0  2  0  0  0  0  0  0
  1  3  1  0  0  0  0
  1  2  1  0  0  0  0
  4  7  1  6  0  0  0
  4  5  1  0  0  0  0
  4  1  1  0  0  0  0
  5  8  1  0  0  0  0
  6 10  1  6  0  0  0
  6  4  1  0  0  0  0
  6  5  1  0  0  0  0
  9  5  1  0  0  0  0
 11  6  1  0  0  0  0
 11 14  1  0  0  0  0
 12 16  1  0  0  0  0
 12 11  1  0  0  0  0
 13 18  1  0  0  0  0
 13 12  1  0  0  0  0
 13 11  1  0  0  0  0
 15 12  1  0  0  0  0
 17 13  1  0  0  0  0
 19 20  2  0  0  0  0
 20  1  1  0  0  0  0
 21 26  1  0  0  0  0
 22 21  2  0  0  0  0
 22 23  1  0  0  0  0
 23 24  2  0  0  0  0
 24 25  1  0  0  0  0
 25 19  1  0  0  0  0
 26 25  2  0  0  0  0
 27 21  1  0  0  0  0
 28 22  1  0  0  0  0
 29 23  1  0  0  0  0
 30 31  1  0  0  0  0
 30 29  1  0  0  0  0
 31 29  1  0  0  0  0
M  END
>  <minimizedAffinity>
-4.88424826

$$$$

 OpenBabel03252508163D

 31 34  0  0  1  0  0  0  0  0999 V2000
   36.6650   31.2840   40.8370 C   0  0  0  0  0  0  0  0  0  0  0  0
   35.5630   31.2060   40.7230 H   0  0  0  0  0  0  0  0  0  0  0  0
   36.9690   31.9360   41.6570 H   0  0  0  0  0  0  0  0  0  0  0  0
   37.2150   31.7700   39.5170 C   0  0  1  0  0  0  0  0  0  0  0  0
   37.0880   33.2280   39.2480 C   0  0  0  0  0  0  0  0  0  0  0  0
   38.3980   32.6640   39.5070 C   0  0  1  0  0  0  0  0  0  0  0  0
   37.1480   31.0680   38.6600 H   0  0  0  0  0  0  0  0  0  0  0  0
   36.5980   33.8670   40.0130 H   0  0  0  0  0  0  0  0  0  0  0  0
   36.7990   33.5370   38.2090 H   0  0  0  0  0  0  0  0  0  0  0  0
   39.0710   32.6020   38.5970 H   0  0  0  0  0  0  0  0  0  0  0  0
   39.1640   32.8190   40.7650 C   0  0  0  0  0  0  0  0  0  0  0  0
   40.6060   33.3590   40.5740 C   0  0  0  0  0  0  0  0  0  0  0  0
   40.4110   31.9360   40.9250 C   0  0  0  0  0  0  0  0  0  0  0  0
   38.6500   33.1180   41.7020 H   0  0  0  0  0  0  0  0  0  0  0  0
   40.8750   33.7090   39.5700 H   0  0  0  0  0  0  0  0  0  0  0  0
   40.9460   34.0250   41.4060 H   0  0  0  0  0  0  0  0  0  0  0  0
   40.6040   31.2320   40.0670 H   0  0  0  0  0  0  0  0  0  0  0  0
   40.6520   31.6020   41.9430 H   0  0  0  0  0  0  0  0  0  0  0  0
   37.7370   29.6650   42.1940 C   0  0  0  0  0  3  0  0  0  0  0  0
   37.1230   29.8540   41.0900 C   0  0  0  0  0  3  0  0  0  0  0  0
   39.8550   26.8800   43.3430 C   0  0  0  0  0  0  0  0  0  0  0  0
   39.1080   25.7550   43.0250 C   0  0  0  0  0  0  0  0  0  0  0  0
   37.8780   25.9800   42.4290 C   0  0  0  0  0  0  0  0  0  0  0  0
   37.4940   27.2420   42.1990 N   0  0  0  0  0  0  0  0  0  0  0  0
   38.2210   28.3240   42.5070 C   0  0  0  0  0  0  0  0  0  0  0  0
   39.3980   28.1150   43.0790 N   0  0  0  0  0  0  0  0  0  0  0  0
   40.8180   26.7170   43.8090 H   0  0  0  0  0  0  0  0  0  0  0  0
   39.4380   24.7590   43.2200 H   0  0  0  0  0  0  0  0  0  0  0  0
   37.0100   24.8080   42.0570 C   0  0  0  0  0  3  0  0  0  0  0  0
   36.7920   24.7110   40.5170 C   0  0  0  0  0  2  0  0  0  0  0  0
   37.5520   23.6690   41.3150 C   0  0  0  0  0  2  0  0  0  0  0  0
  1 20  1  0  0  0  0
  1  3  1  0  0  0  0
  2  1  1  0  0  0  0
  4  7  1  6  0  0  0
  4  1  1  0  0  0  0
  5  6  1  0  0  0  0
  5  4  1  0  0  0  0
  5  8  1  0  0  0  0
  6 10  1  6  0  0  0
  6  4  1  0  0  0  0
  6 11  1  0  0  0  0
  9  5  1  0  0  0  0
 11 13  1  0  0  0  0
 11 14  1  0  0  0  0
 12 11  1  0  0  0  0
 12 13  1  0  0  0  0
 12 16  1  0  0  0  0
 13 18  1  0  0  0  0
 15 12  1  0  0  0  0
 17 13  1  0  0  0  0
 19 25  1  0  0  0  0
 20 19  2  0  0  0  0
 21 27  1  0  0  0  0
 22 28  1  0  0  0  0
 22 21  2  0  0  0  0
 23 22  1  0  0  0  0
 24 23  2  0  0  0  0
 24 25  1  0  0  0  0
 25 26  2  0  0  0  0
 26 21  1  0  0  0  0
 29 23  1  0  0  0  0
 30 31  1  0  0  0  0
 30 29  1  0  0  0  0
 31 29  1  0  0  0  0
M  END
>  <minimizedAffinity>
-4.74172306

$$$$

 OpenBabel03252508163D

 31 34  0  0  1  0  0  0  0  0999 V2000
   36.1640   29.8210   37.6810 C   0  0  0  0  0  0  0  0  0  0  0  0
   35.9140   29.1570   36.8270 H   0  0  0  0  0  0  0  0  0  0  0  0
   35.4260   30.6080   37.8470 H   0  0  0  0  0  0  0  0  0  0  0  0
   37.5320   30.4000   37.4090 C   0  0  1  0  0  0  0  0  0  0  0  0
   37.5700   31.6350   36.5800 C   0  0  0  0  0  0  0  0  0  0  0  0
   37.8920   31.7160   37.9910 C   0  0  1  0  0  0  0  0  0  0  0  0
   38.3700   29.6790   37.3200 H   0  0  0  0  0  0  0  0  0  0  0  0
   36.6110   32.0510   36.2040 H   0  0  0  0  0  0  0  0  0  0  0  0
   38.3800   31.7110   35.8070 H   0  0  0  0  0  0  0  0  0  0  0  0
   38.9910   31.8870   38.2120 H   0  0  0  0  0  0  0  0  0  0  0  0
   37.0120   32.2800   39.0400 C   0  0  0  0  0  0  0  0  0  0  0  0
   37.6160   33.4870   39.8030 C   0  0  0  0  0  0  0  0  0  0  0  0
   37.5160   32.1800   40.4880 C   0  0  0  0  0  0  0  0  0  0  0  0
   35.9110   32.2890   38.9010 H   0  0  0  0  0  0  0  0  0  0  0  0
   38.5540   33.9010   39.4110 H   0  0  0  0  0  0  0  0  0  0  0  0
   36.8570   34.2530   40.0980 H   0  0  0  0  0  0  0  0  0  0  0  0
   38.5070   31.6590   40.6080 H   0  0  0  0  0  0  0  0  0  0  0  0
   36.7540   32.0470   41.2670 H   0  0  0  0  0  0  0  0  0  0  0  0
   36.7200   27.7310   38.6490 C   0  0  0  0  0  3  0  0  0  0  0  0
   36.2300   28.8860   38.8820 C   0  0  0  0  0  3  0  0  0  0  0  0
   36.7070   24.5870   40.5660 C   0  0  0  0  0  0  0  0  0  0  0  0
   36.9270   25.0050   41.8720 C   0  0  0  0  0  0  0  0  0  0  0  0
   37.0880   26.3670   42.0630 C   0  0  0  0  0  0  0  0  0  0  0  0
   37.0210   27.1810   41.0010 N   0  0  0  0  0  0  0  0  0  0  0  0
   36.8070   26.7700   39.7450 C   0  0  0  0  0  0  0  0  0  0  0  0
   36.6540   25.4680   39.5540 N   0  0  0  0  0  0  0  0  0  0  0  0
   36.5810   23.5250   40.4040 H   0  0  0  0  0  0  0  0  0  0  0  0
   36.9760   24.3350   42.7000 H   0  0  0  0  0  0  0  0  0  0  0  0
   37.3310   26.8960   43.4510 C   0  0  0  0  0  3  0  0  0  0  0  0
   38.8290   27.2630   43.6790 C   0  0  0  0  0  2  0  0  0  0  0  0
   37.7130   28.2910   43.6750 C   0  0  0  0  0  2  0  0  0  0  0  0
  1  3  1  0  0  0  0
  1 20  1  0  0  0  0
  2  1  1  0  0  0  0
  4  7  1  6  0  0  0
  4  1  1  0  0  0  0
  4  6  1  0  0  0  0
  5  4  1  0  0  0  0
  5  6  1  0  0  0  0
  6 10  1  1  0  0  0
  6 11  1  0  0  0  0
  8  5  1  0  0  0  0
  9  5  1  0  0  0  0
 11 12  1  0  0  0  0
 11 13  1  0  0  0  0
 12 16  1  0  0  0  0
 12 13  1  0  0  0  0
 13 17  1  0  0  0  0
 13 18  1  0  0  0  0
 14 11  1  0  0  0  0
 15 12  1  0  0  0  0
 19 20  2  0  0  0  0
 19 25  1  0  0  0  0
 21 22  1  0  0  0  0
 22 23  2  0  0  0  0
 22 28  1  0  0  0  0
 23 29  1  0  0  0  0
 24 23  1  0  0  0  0
 25 24  2  0  0  0  0
 26 25  1  0  0  0  0
 26 21  2  0  0  0  0
 27 21  1  0  0  0  0
 29 31  1  0  0  0  0
 29 30  1  0  0  0  0
 31 30  1  0  0  0  0
M  END
>  <minimizedAffinity>
-4.72268915

$$$$

 OpenBabel03252508163D

 31 34  0  0  1  0  0  0  0  0999 V2000
   33.4710   28.0530   37.1410 C   0  0  0  0  0  0  0  0  0  0  0  0
   33.8610   27.2660   36.4620 H   0  0  0  0  0  0  0  0  0  0  0  0
   32.5310   27.7810   37.6240 H   0  0  0  0  0  0  0  0  0  0  0  0
   33.3220   29.3140   36.3220 C   0  0  1  0  0  0  0  0  0  0  0  0
   32.5620   29.1850   35.0500 C   0  0  0  0  0  0  0  0  0  0  0  0
   31.9790   29.9180   36.1560 C   0  0  1  0  0  0  0  0  0  0  0  0
   34.1630   30.0370   36.3630 H   0  0  0  0  0  0  0  0  0  0  0  0
   32.1600   28.1880   34.7710 H   0  0  0  0  0  0  0  0  0  0  0  0
   32.9610   29.7310   34.1540 H   0  0  0  0  0  0  0  0  0  0  0  0
   31.9450   31.0420   36.0080 H   0  0  0  0  0  0  0  0  0  0  0  0
   30.8820   29.4300   37.0240 C   0  0  0  0  0  0  0  0  0  0  0  0
   29.7490   30.4610   37.2660 C   0  0  0  0  0  0  0  0  0  0  0  0
   30.6910   30.1560   38.3640 C   0  0  0  0  0  0  0  0  0  0  0  0
   30.5760   28.3640   36.9940 H   0  0  0  0  0  0  0  0  0  0  0  0
   29.7830   31.3820   36.6710 H   0  0  0  0  0  0  0  0  0  0  0  0
   28.7350   29.9970   37.3480 H   0  0  0  0  0  0  0  0  0  0  0  0
   31.4310   30.9820   38.5640 H   0  0  0  0  0  0  0  0  0  0  0  0
   30.3410   29.5480   39.2090 H   0  0  0  0  0  0  0  0  0  0  0  0
   34.3390   29.1230   39.0690 C   0  0  0  0  0  3  0  0  0  0  0  0
   34.5720   28.2400   38.1770 C   0  0  0  0  0  3  0  0  0  0  0  0
   36.9620   30.7370   41.0870 C   0  0  0  0  0  0  0  0  0  0  0  0
   37.2950   29.7640   42.0200 C   0  0  0  0  0  0  0  0  0  0  0  0
   36.5960   28.5710   41.9420 C   0  0  0  0  0  0  0  0  0  0  0  0
   35.6640   28.4300   40.9900 N   0  0  0  0  0  0  0  0  0  0  0  0
   35.3500   29.3730   40.0920 C   0  0  0  0  0  0  0  0  0  0  0  0
   36.0130   30.5170   40.1630 N   0  0  0  0  0  0  0  0  0  0  0  0
   37.5010   31.6740   41.1390 H   0  0  0  0  0  0  0  0  0  0  0  0
   38.0420   29.9030   42.7690 H   0  0  0  0  0  0  0  0  0  0  0  0
   36.9000   27.4700   42.9210 C   0  0  0  0  0  3  0  0  0  0  0  0
   37.9160   26.4390   42.3420 C   0  0  0  0  0  2  0  0  0  0  0  0
   38.2270   27.3370   43.5250 C   0  0  0  0  0  2  0  0  0  0  0  0
  1  3  1  0  0  0  0
  1 20  1  0  0  0  0
  2  1  1  0  0  0  0
  4  7  1  6  0  0  0
  4  1  1  0  0  0  0
  5  6  1  0  0  0  0
  5  4  1  0  0  0  0
  6 10  1  6  0  0  0
  6  4  1  0  0  0  0
  6 11  1  0  0  0  0
  8  5  1  0  0  0  0
  9  5  1  0  0  0  0
 11 12  1  0  0  0  0
 11 13  1  0  0  0  0
 12 16  1  0  0  0  0
 12 13  1  0  0  0  0
 13 17  1  0  0  0  0
 13 18  1  0  0  0  0
 14 11  1  0  0  0  0
 15 12  1  0  0  0  0
 19 25  1  0  0  0  0
 20 19  2  0  0  0  0
 21 27  1  0  0  0  0
 21 22  1  0  0  0  0
 22 28  1  0  0  0  0
 23 22  2  0  0  0  0
 23 29  1  0  0  0  0
 24 23  1  0  0  0  0
 25 26  1  0  0  0  0
 25 24  2  0  0  0  0
 26 21  2  0  0  0  0
 29 31  1  0  0  0  0
 30 29  1  0  0  0  0
 30 31  1  0  0  0  0
M  END
>  <minimizedAffinity>
-4.57021952

$$$$

 OpenBabel03252508163D

 31 34  0  0  1  0  0  0  0  0999 V2000
   38.6190   27.0060   43.6790 C   0  0  0  0  0  0  0  0  0  0  0  0
   39.1210   27.2000   44.6500 H   0  0  0  0  0  0  0  0  0  0  0  0
   37.6770   26.4640   43.7800 H   0  0  0  0  0  0  0  0  0  0  0  0
   39.5980   26.2470   42.8150 C   0  0  1  0  0  0  0  0  0  0  0  0
   40.0420   24.9240   43.3320 C   0  0  0  0  0  0  0  0  0  0  0  0
   39.1720   24.9800   42.1740 C   0  0  1  0  0  0  0  0  0  0  0  0
   40.3190   26.8530   42.2290 H   0  0  0  0  0  0  0  0  0  0  0  0
   39.6450   24.5760   44.3090 H   0  0  0  0  0  0  0  0  0  0  0  0
   41.1270   24.6640   43.2140 H   0  0  0  0  0  0  0  0  0  0  0  0
   39.6760   24.7150   41.1940 H   0  0  0  0  0  0  0  0  0  0  0  0
   37.7270   24.6520   42.1710 C   0  0  0  0  0  0  0  0  0  0  0  0
   37.2870   23.7070   41.0220 C   0  0  0  0  0  0  0  0  0  0  0  0
   36.9140   25.1370   40.9610 C   0  0  0  0  0  0  0  0  0  0  0  0
   37.1740   24.5500   43.1280 H   0  0  0  0  0  0  0  0  0  0  0  0
   38.0850   23.2580   40.4180 H   0  0  0  0  0  0  0  0  0  0  0  0
   36.4710   23.0010   41.3150 H   0  0  0  0  0  0  0  0  0  0  0  0
   37.5030   25.7220   40.2000 H   0  0  0  0  0  0  0  0  0  0  0  0
   35.8710   25.4200   41.1500 H   0  0  0  0  0  0  0  0  0  0  0  0
   39.0520   28.6610   42.0400 C   0  0  0  0  0  3  0  0  0  0  0  0
   38.3800   28.3910   43.0920 C   0  0  0  0  0  3  0  0  0  0  0  0
   39.3170   32.2680   41.3470 C   0  0  0  0  0  0  0  0  0  0  0  0
   38.5000   32.4440   40.2390 C   0  0  0  0  0  0  0  0  0  0  0  0
   37.8810   31.3080   39.7440 C   0  0  0  0  0  0  0  0  0  0  0  0
   38.1010   30.1360   40.3520 N   0  0  0  0  0  0  0  0  0  0  0  0
   38.8900   29.9740   41.4220 C   0  0  0  0  0  0  0  0  0  0  0  0
   39.4870   31.0560   41.9000 N   0  0  0  0  0  0  0  0  0  0  0  0
   39.8070   33.1480   41.7420 H   0  0  0  0  0  0  0  0  0  0  0  0
   38.3420   33.3910   39.7730 H   0  0  0  0  0  0  0  0  0  0  0  0
   36.9810   31.4200   38.5430 C   0  0  0  0  0  3  0  0  0  0  0  0
   37.7800   31.3360   37.2070 C   0  0  0  0  0  2  0  0  0  0  0  0
   36.7750   30.2850   37.6410 C   0  0  0  0  0  2  0  0  0  0  0  0
  1  3  1  0  0  0  0
  1  2  1  0  0  0  0
  4  7  1  6  0  0  0
  4  5  1  0  0  0  0
  4  1  1  0  0  0  0
  5  8  1  0  0  0  0
  6 10  1  6  0  0  0
  6  4  1  0  0  0  0
  6  5  1  0  0  0  0
  9  5  1  0  0  0  0
 11  6  1  0  0  0  0
 11 14  1  0  0  0  0
 12 16  1  0  0  0  0
 12 11  1  0  0  0  0
 13 12  1  0  0  0  0
 13 18  1  0  0  0  0
 13 11  1  0  0  0  0
 15 12  1  0  0  0  0
 17 13  1  0  0  0  0
 19 20  2  0  0  0  0
 20  1  1  0  0  0  0
 21 27  1  0  0  0  0
 21 26  1  0  0  0  0
 22 21  2  0  0  0  0
 23 22  1  0  0  0  0
 23 24  2  0  0  0  0
 24 25  1  0  0  0  0
 25 26  2  0  0  0  0
 25 19  1  0  0  0  0
 28 22  1  0  0  0  0
 29 23  1  0  0  0  0
 30 31  1  0  0  0  0
 30 29  1  0  0  0  0
 31 29  1  0  0  0  0
M  END
>  <minimizedAffinity>
-4.55268002

$$$$

 OpenBabel03252508163D

 31 34  0  0  1  0  0  0  0  0999 V2000
   37.0120   28.9900   41.5960 C   0  0  0  0  0  0  0  0  0  0  0  0
   35.9590   29.0400   41.2490 H   0  0  0  0  0  0  0  0  0  0  0  0
   37.6020   28.2330   41.0780 H   0  0  0  0  0  0  0  0  0  0  0  0
   36.9780   28.7340   43.0840 C   0  0  1  0  0  0  0  0  0  0  0  0
   36.5630   27.3690   43.5070 C   0  0  0  0  0  0  0  0  0  0  0  0
   37.9430   27.7790   43.6800 C   0  0  1  0  0  0  0  0  0  0  0  0
   36.7040   29.5930   43.7320 H   0  0  0  0  0  0  0  0  0  0  0  0
   36.2970   26.6290   42.7230 H   0  0  0  0  0  0  0  0  0  0  0  0
   35.8790   27.2910   44.3940 H   0  0  0  0  0  0  0  0  0  0  0  0
   38.2450   27.9700   44.7560 H   0  0  0  0  0  0  0  0  0  0  0  0
   39.0810   27.3270   42.8470 C   0  0  0  0  0  0  0  0  0  0  0  0
   40.2910   26.7860   43.6530 C   0  0  0  0  0  0  0  0  0  0  0  0
   40.3960   28.1070   42.9970 C   0  0  0  0  0  0  0  0  0  0  0  0
   38.9000   26.8530   41.8600 H   0  0  0  0  0  0  0  0  0  0  0  0
   40.1450   26.6500   44.7320 H   0  0  0  0  0  0  0  0  0  0  0  0
   40.8240   25.9440   43.1460 H   0  0  0  0  0  0  0  0  0  0  0  0
   40.3520   28.9710   43.7180 H   0  0  0  0  0  0  0  0  0  0  0  0
   41.0180   28.2040   42.0970 H   0  0  0  0  0  0  0  0  0  0  0  0
   38.5700   30.4260   40.5360 C   0  0  0  0  0  3  0  0  0  0  0  0
   37.5680   30.3820   41.3260 C   0  0  0  0  0  3  0  0  0  0  0  0
   39.4120   34.0100   40.6370 C   0  0  0  0  0  0  0  0  0  0  0  0
   40.3010   34.1610   39.5810 C   0  0  0  0  0  0  0  0  0  0  0  0
   40.6030   33.0180   38.8610 C   0  0  0  0  0  0  0  0  0  0  0  0
   40.0300   31.8600   39.2170 N   0  0  0  0  0  0  0  0  0  0  0  0
   39.1710   31.7220   40.2360 C   0  0  0  0  0  0  0  0  0  0  0  0
   38.8800   32.8120   40.9300 N   0  0  0  0  0  0  0  0  0  0  0  0
   39.1690   34.8960   41.2080 H   0  0  0  0  0  0  0  0  0  0  0  0
   40.7440   35.0960   39.3200 H   0  0  0  0  0  0  0  0  0  0  0  0
   41.5610   33.1030   37.7030 C   0  0  0  0  0  3  0  0  0  0  0  0
   43.0100   32.7070   38.1170 C   0  0  0  0  0  2  0  0  0  0  0  0
   42.1770   31.9010   37.1380 C   0  0  0  0  0  2  0  0  0  0  0  0
  1  4  1  0  0  0  0
  2  1  1  0  0  0  0
  3  1  1  0  0  0  0
  4  5  1  0  0  0  0
  4  6  1  0  0  0  0
  4  7  1  1  0  0  0
  5  6  1  0  0  0  0
  5  9  1  0  0  0  0
  6 10  1  1  0  0  0
  8  5  1  0  0  0  0
 11 13  1  0  0  0  0
 11 12  1  0  0  0  0
 11  6  1  0  0  0  0
 12 15  1  0  0  0  0
 13 12  1  0  0  0  0
 13 17  1  0  0  0  0
 14 11  1  0  0  0  0
 16 12  1  0  0  0  0
 18 13  1  0  0  0  0
 19 20  2  0  0  0  0
 20  1  1  0  0  0  0
 21 26  1  0  0  0  0
 21 27  1  0  0  0  0
 22 21  2  0  0  0  0
 23 24  2  0  0  0  0
 23 22  1  0  0  0  0
 24 25  1  0  0  0  0
 25 19  1  0  0  0  0
 25 26  2  0  0  0  0
 28 22  1  0  0  0  0
 29 30  1  0  0  0  0
 29 23  1  0  0  0  0
 31 29  1  0  0  0  0
 31 30  1  0  0  0  0
M  END
>  <minimizedAffinity>
-4.52440119

$$$$

 OpenBabel03252508163D

 31 34  0  0  1  0  0  0  0  0999 V2000
   34.6340   29.0540   38.6590 C   0  0  0  0  0  0  0  0  0  0  0  0
   33.7480   29.2540   39.2970 H   0  0  0  0  0  0  0  0  0  0  0  0
   35.0630   29.9550   38.2190 H   0  0  0  0  0  0  0  0  0  0  0  0
   34.2020   28.0750   37.5920 C   0  0  1  0  0  0  0  0  0  0  0  0
   33.3250   28.6180   36.5190 C   0  0  0  0  0  0  0  0  0  0  0  0
   34.6910   28.2510   36.2030 C   0  0  1  0  0  0  0  0  0  0  0  0
   34.0550   27.0230   37.9110 H   0  0  0  0  0  0  0  0  0  0  0  0
   33.0340   29.6890   36.5630 H   0  0  0  0  0  0  0  0  0  0  0  0
   32.4710   27.9740   36.1780 H   0  0  0  0  0  0  0  0  0  0  0  0
   34.7920   27.3090   35.5800 H   0  0  0  0  0  0  0  0  0  0  0  0
   35.8020   29.2030   35.9710 C   0  0  0  0  0  0  0  0  0  0  0  0
   36.5570   28.9910   34.6330 C   0  0  0  0  0  0  0  0  0  0  0  0
   37.2160   28.6060   35.8990 C   0  0  0  0  0  0  0  0  0  0  0  0
   35.7270   30.2490   36.3310 H   0  0  0  0  0  0  0  0  0  0  0  0
   36.1220   28.2720   33.9270 H   0  0  0  0  0  0  0  0  0  0  0  0
   36.9130   29.9430   34.1660 H   0  0  0  0  0  0  0  0  0  0  0  0
   37.2670   27.4910   36.0580 H   0  0  0  0  0  0  0  0  0  0  0  0
   38.0340   29.2290   36.2820 H   0  0  0  0  0  0  0  0  0  0  0  0
   35.7310   28.9110   40.7540 C   0  0  0  0  0  3  0  0  0  0  0  0
   35.6330   28.3860   39.5950 C   0  0  0  0  0  3  0  0  0  0  0  0
   38.1630   28.5490   43.4950 C   0  0  0  0  0  0  0  0  0  0  0  0
   38.5030   27.2040   43.4490 C   0  0  0  0  0  0  0  0  0  0  0  0
   37.8740   26.4430   42.4770 C   0  0  0  0  0  0  0  0  0  0  0  0
   36.9980   27.0380   41.6580 N   0  0  0  0  0  0  0  0  0  0  0  0
   36.6770   28.3380   41.7070 C   0  0  0  0  0  0  0  0  0  0  0  0
   37.2730   29.0710   42.6350 N   0  0  0  0  0  0  0  0  0  0  0  0
   38.6480   29.1540   44.2510 H   0  0  0  0  0  0  0  0  0  0  0  0
   39.2040   26.7550   44.1150 H   0  0  0  0  0  0  0  0  0  0  0  0
   38.1900   24.9760   42.3670 C   0  0  0  0  0  3  0  0  0  0  0  0
   39.3740   24.7070   41.3900 C   0  0  0  0  0  2  0  0  0  0  0  0
   39.4480   24.4310   42.8790 C   0  0  0  0  0  2  0  0  0  0  0  0
  1  2  1  0  0  0  0
  1 20  1  0  0  0  0
  3  1  1  0  0  0  0
  4  7  1  1  0  0  0
  4  1  1  0  0  0  0
  5  8  1  0  0  0  0
  5  4  1  0  0  0  0
  6 10  1  6  0  0  0
  6  5  1  0  0  0  0
  6  4  1  0  0  0  0
  9  5  1  0  0  0  0
 11  6  1  0  0  0  0
 11 14  1  0  0  0  0
 12 13  1  0  0  0  0
 12 11  1  0  0  0  0
 13 11  1  0  0  0  0
 13 17  1  0  0  0  0
 13 18  1  0  0  0  0
 15 12  1  0  0  0  0
 16 12  1  0  0  0  0
 19 25  1  0  0  0  0
 20 19  2  0  0  0  0
 21 27  1  0  0  0  0
 22 21  1  0  0  0  0
 22 28  1  0  0  0  0
 23 22  2  0  0  0  0
 24 25  2  0  0  0  0
 24 23  1  0  0  0  0
 25 26  1  0  0  0  0
 26 21  2  0  0  0  0
 29 23  1  0  0  0  0
 29 31  1  0  0  0  0
 30 29  1  0  0  0  0
 30 31  1  0  0  0  0
M  END
>  <minimizedAffinity>
-4.51415157

$$$$

 OpenBabel03252508163D

 31 34  0  0  1  0  0  0  0  0999 V2000
   36.0780   30.0010   37.9540 C   0  0  0  0  0  0  0  0  0  0  0  0
   35.7440   29.3780   37.0990 H   0  0  0  0  0  0  0  0  0  0  0  0
   35.4430   30.8710   38.1300 H   0  0  0  0  0  0  0  0  0  0  0  0
   37.5050   30.4120   37.6750 C   0  0  1  0  0  0  0  0  0  0  0  0
   37.6930   31.4940   36.6720 C   0  0  0  0  0  0  0  0  0  0  0  0
   37.9620   31.7660   38.0700 C   0  0  1  0  0  0  0  0  0  0  0  0
   38.2750   29.6150   37.7430 H   0  0  0  0  0  0  0  0  0  0  0  0
   36.7940   31.9280   36.1850 H   0  0  0  0  0  0  0  0  0  0  0  0
   38.5380   31.3790   35.9430 H   0  0  0  0  0  0  0  0  0  0  0  0
   39.0620   31.8740   38.3240 H   0  0  0  0  0  0  0  0  0  0  0  0
   37.0950   32.5590   38.9710 C   0  0  0  0  0  0  0  0  0  0  0  0
   37.8320   33.6880   39.7390 C   0  0  0  0  0  0  0  0  0  0  0  0
   37.4060   32.4770   40.4740 C   0  0  0  0  0  0  0  0  0  0  0  0
   36.0390   32.7610   38.6980 H   0  0  0  0  0  0  0  0  0  0  0  0
   38.8690   33.8920   39.4450 H   0  0  0  0  0  0  0  0  0  0  0  0
   37.2060   34.6010   39.8970 H   0  0  0  0  0  0  0  0  0  0  0  0
   38.2600   31.7930   40.7420 H   0  0  0  0  0  0  0  0  0  0  0  0
   36.5520   32.5460   41.1590 H   0  0  0  0  0  0  0  0  0  0  0  0
   37.1550   28.8820   39.7440 C   0  0  0  0  0  3  0  0  0  0  0  0
   36.0390   29.0580   39.1500 C   0  0  0  0  0  3  0  0  0  0  0  0
   36.5670   27.3900   43.0590 C   0  0  0  0  0  0  0  0  0  0  0  0
   37.3860   26.2690   43.0570 C   0  0  0  0  0  0  0  0  0  0  0  0
   38.1180   26.0430   41.9030 C   0  0  0  0  0  0  0  0  0  0  0  0
   37.9960   26.9010   40.8830 N   0  0  0  0  0  0  0  0  0  0  0  0
   37.2050   27.9820   40.8920 C   0  0  0  0  0  0  0  0  0  0  0  0
   36.5010   28.2030   41.9920 N   0  0  0  0  0  0  0  0  0  0  0  0
   35.9900   27.5770   43.9550 H   0  0  0  0  0  0  0  0  0  0  0  0
   37.4640   25.6010   43.8850 H   0  0  0  0  0  0  0  0  0  0  0  0
   39.0260   24.8450   41.8260 C   0  0  0  0  0  3  0  0  0  0  0  0
   40.4980   25.2080   42.1880 C   0  0  0  0  0  2  0  0  0  0  0  0
   39.6410   24.2810   43.0290 C   0  0  0  0  0  2  0  0  0  0  0  0
  1  3  1  0  0  0  0
  1 20  1  0  0  0  0
  2  1  1  0  0  0  0
  4  7  1  1  0  0  0
  4  1  1  0  0  0  0
  4  6  1  0  0  0  0
  5  4  1  0  0  0  0
  5  6  1  0  0  0  0
  6 10  1  1  0  0  0
  6 11  1  0  0  0  0
  8  5  1  0  0  0  0
  9  5  1  0  0  0  0
 11 12  1  0  0  0  0
 11 13  1  0  0  0  0
 12 16  1  0  0  0  0
 12 13  1  0  0  0  0
 13 17  1  0  0  0  0
 13 18  1  0  0  0  0
 14 11  1  0  0  0  0
 15 12  1  0  0  0  0
 19 25  1  0  0  0  0
 20 19  2  0  0  0  0
 21 27  1  0  0  0  0
 22 21  1  0  0  0  0
 22 28  1  0  0  0  0
 23 22  2  0  0  0  0
 24 25  2  0  0  0  0
 24 23  1  0  0  0  0
 25 26  1  0  0  0  0
 26 21  2  0  0  0  0
 29 23  1  0  0  0  0
 29 30  1  0  0  0  0
 29 31  1  0  0  0  0
 30 31  1  0  0  0  0
M  END
>  <minimizedAffinity>
-4.39078188

$$$$

 OpenBabel03252508163D

 31 34  0  0  1  0  0  0  0  0999 V2000
   38.2240   26.7240   42.9210 C   0  0  0  0  0  0  0  0  0  0  0  0
   38.5930   27.1870   43.8600 H   0  0  0  0  0  0  0  0  0  0  0  0
   37.3690   26.0640   43.0720 H   0  0  0  0  0  0  0  0  0  0  0  0
   39.3860   25.9830   42.3030 C   0  0  1  0  0  0  0  0  0  0  0  0
   39.9510   24.8620   43.1030 C   0  0  0  0  0  0  0  0  0  0  0  0
   39.2100   24.5690   41.8920 C   0  0  1  0  0  0  0  0  0  0  0  0
   40.0760   26.5770   41.6680 H   0  0  0  0  0  0  0  0  0  0  0  0
   39.5030   24.6410   44.0950 H   0  0  0  0  0  0  0  0  0  0  0  0
   41.0680   24.7570   43.1250 H   0  0  0  0  0  0  0  0  0  0  0  0
   39.8500   24.2120   41.0260 H   0  0  0  0  0  0  0  0  0  0  0  0
   37.8340   24.0240   41.8400 C   0  0  0  0  0  0  0  0  0  0  0  0
   37.6050   22.9700   40.7260 C   0  0  0  0  0  0  0  0  0  0  0  0
   37.0250   24.3210   40.5680 C   0  0  0  0  0  0  0  0  0  0  0  0
   37.2510   23.8860   42.7730 H   0  0  0  0  0  0  0  0  0  0  0  0
   38.4930   22.6190   40.1850 H   0  0  0  0  0  0  0  0  0  0  0  0
   36.8890   22.1610   41.0180 H   0  0  0  0  0  0  0  0  0  0  0  0
   37.5600   24.9520   39.8040 H   0  0  0  0  0  0  0  0  0  0  0  0
   35.9420   24.4500   40.6910 H   0  0  0  0  0  0  0  0  0  0  0  0
   38.1430   27.7870   40.8050 C   0  0  0  0  0  3  0  0  0  0  0  0
   37.8410   27.9060   42.0390 C   0  0  0  0  0  3  0  0  0  0  0  0
   37.4820   29.7230   37.7420 C   0  0  0  0  0  0  0  0  0  0  0  0
   37.2610   31.0090   38.2160 C   0  0  0  0  0  0  0  0  0  0  0  0
   37.3320   31.1800   39.5880 C   0  0  0  0  0  0  0  0  0  0  0  0
   37.6060   30.1200   40.3580 N   0  0  0  0  0  0  0  0  0  0  0  0
   37.8210   28.8820   39.8940 C   0  0  0  0  0  0  0  0  0  0  0  0
   37.7520   28.7100   38.5820 N   0  0  0  0  0  0  0  0  0  0  0  0
   37.4290   29.5760   36.6720 H   0  0  0  0  0  0  0  0  0  0  0  0
   37.0440   31.8370   37.5790 H   0  0  0  0  0  0  0  0  0  0  0  0
   37.1010   32.5470   40.1760 C   0  0  0  0  0  3  0  0  0  0  0  0
   38.4350   33.3270   40.3750 C   0  0  0  0  0  2  0  0  0  0  0  0
   37.3590   33.7600   39.3980 C   0  0  0  0  0  2  0  0  0  0  0  0
  1  3  1  0  0  0  0
  1  2  1  0  0  0  0
  4  7  1  6  0  0  0
  4  1  1  0  0  0  0
  4  5  1  0  0  0  0
  5  9  1  0  0  0  0
  5  8  1  0  0  0  0
  6 10  1  6  0  0  0
  6  4  1  0  0  0  0
  6  5  1  0  0  0  0
 11  6  1  0  0  0  0
 11 14  1  0  0  0  0
 12 16  1  0  0  0  0
 12 11  1  0  0  0  0
 13 18  1  0  0  0  0
 13 12  1  0  0  0  0
 13 11  1  0  0  0  0
 15 12  1  0  0  0  0
 17 13  1  0  0  0  0
 19 20  2  0  0  0  0
 20  1  1  0  0  0  0
 21 22  2  0  0  0  0
 21 26  1  0  0  0  0
 22 23  1  0  0  0  0
 23 29  1  0  0  0  0
 23 24  2  0  0  0  0
 25 24  1  0  0  0  0
 25 19  1  0  0  0  0
 26 25  2  0  0  0  0
 27 21  1  0  0  0  0
 28 22  1  0  0  0  0
 29 30  1  0  0  0  0
 31 29  1  0  0  0  0
 31 30  1  0  0  0  0
M  END
>  <minimizedAffinity>
-4.34747601

$$$$
