
 OpenBabel03242518493D

 17 18  0  0  0  0  0  0  0  0999 V2000
   44.5160   35.9800   44.5010 C   0  0  0  0  0  0  0  0  0  0  0  0
   45.2350   35.8540   43.2790 C   0  0  0  0  0  0  0  0  0  0  0  0
   46.1500   34.8020   43.2050 C   0  0  0  0  0  0  0  0  0  0  0  0
   46.2950   33.9800   44.2830 N   0  0  0  0  0  0  0  0  0  0  0  0
   45.5870   34.1380   45.4300 C   0  0  0  0  0  0  0  0  0  0  0  0
   44.6920   35.1480   45.5340 N   0  0  0  0  0  0  0  0  0  0  0  0
   43.7920   36.7630   44.6420 H   0  0  0  0  0  0  0  0  0  0  0  0
   45.0340   36.5690   42.4900 H   0  0  0  0  0  0  0  0  0  0  0  0
   46.8750   34.6880   41.9510 C   0  0  0  0  0  0  0  0  0  0  0  0
   47.6600   33.5310   41.9700 F   0  0  0  0  0  0  0  0  0  0  0  0
   47.7980   35.7450   41.9340 F   0  0  0  0  0  0  0  0  0  0  0  0
   46.0990   34.6560   40.8510 F   0  0  0  0  0  0  0  0  0  0  0  0
   45.7710   33.2380   46.5620 C   0  0  0  0  0  0  0  0  0  0  0  0
   44.9450   33.1850   47.5000 O   0  0  0  0  0  0  0  0  0  0  0  0
   46.9640   32.3510   46.6220 C   0  0  0  0  0  0  0  0  0  0  0  0
   47.5160   32.0790   47.9710 C   0  0  0  0  0  0  0  0  0  0  0  0
   46.8730   30.9640   47.1530 C   0  0  0  0  0  0  0  0  0  0  0  0
  1  7  1  0  0  0  0
  1  6  1  0  0  0  0
  2  1  2  0  0  0  0
  3  2  1  0  0  0  0
  3  4  2  0  0  0  0
  4  5  1  0  0  0  0
  5  6  2  0  0  0  0
  5 13  1  0  0  0  0
  8  2  1  0  0  0  0
  9 10  1  0  0  0  0
  9  3  1  0  0  0  0
 11  9  1  0  0  0  0
 12  9  1  0  0  0  0
 13 15  1  0  0  0  0
 13 14  2  0  0  0  0
 15 17  1  0  0  0  0
 15 16  1  0  0  0  0
 17 16  1  0  0  0  0
M  END
>  <minimizedAffinity>
-4.93275499

>  <minimizedRMSD>
0.679127038

$$$$
