
 OpenBabel03242510313D

 32 34  0  0  1  0  0  0  0  0999 V2000
   44.6600   33.2450   41.4760 C   0  0  1  0  0  0  0  0  0  0  0  0
   43.6260   33.9580   40.5700 C   0  0  0  0  0  0  0  0  0  0  0  0
   43.4380   33.0750   39.3710 C   0  0  0  0  0  0  0  0  0  0  0  0
   44.7210   33.2350   38.5730 C   0  0  0  0  0  0  0  0  0  0  0  0
   45.8810   32.8720   39.3520 C   0  0  0  0  0  0  0  0  0  0  0  0
   45.9650   33.2700   40.8550 C   0  0  1  0  0  0  0  0  0  0  0  0
   44.3100   32.2110   41.6540 H   0  0  0  0  0  0  0  0  0  0  0  0
   42.6920   34.1730   41.1090 H   0  0  0  0  0  0  0  0  0  0  0  0
   44.1250   34.9030   40.2690 H   0  0  0  0  0  0  0  0  0  0  0  0
   42.5740   33.4120   38.7830 H   0  0  0  0  0  0  0  0  0  0  0  0
   43.3880   32.0350   39.7090 H   0  0  0  0  0  0  0  0  0  0  0  0
   44.6270   32.5950   37.6980 H   0  0  0  0  0  0  0  0  0  0  0  0
   44.7200   34.3080   38.2530 H   0  0  0  0  0  0  0  0  0  0  0  0
   46.8040   32.9050   38.8240 H   0  0  0  0  0  0  0  0  0  0  0  0
   45.7440   31.7280   39.4790 H   0  0  0  0  0  0  0  0  0  0  0  0
   46.7510   32.5770   41.1520 H   0  0  0  0  0  0  0  0  0  0  0  0
   44.4440   35.8810   44.2790 C   0  0  0  0  0  0  0  0  0  0  0  0
   44.2940   35.3120   43.0330 C   0  0  0  0  0  0  0  0  0  0  0  0
   44.7170   33.9960   42.7680 C   0  0  0  0  0  0  0  0  0  0  0  0
   45.2650   33.3590   43.8110 N   0  0  0  0  0  0  0  0  0  0  0  0
   45.4170   33.8910   45.0160 C   0  0  0  0  0  0  0  0  0  0  0  0
   45.0040   35.1700   45.2680 N   0  0  0  0  0  0  0  0  0  0  0  0
   44.0620   36.8850   44.2800 H   0  0  0  0  0  0  0  0  0  0  0  0
   43.8540   35.7890   42.1470 H   0  0  0  0  0  0  0  0  0  0  0  0
   45.8520   33.4170   45.8830 H   0  0  0  0  0  0  0  0  0  0  0  0
   46.4890   34.5620   40.8560 O   0  0  0  0  0  0  0  0  0  0  0  0
   47.8770   34.4860   40.9120 C   0  0  0  0  0  0  0  0  0  0  0  0
   48.1330   35.5710   40.6070 H   0  0  0  0  0  0  0  0  0  0  0  0
   48.3560   33.9720   40.0580 H   0  0  0  0  0  0  0  0  0  0  0  0
   48.5000   34.3330   42.2420 C   0  0  0  0  0  0  0  0  0  0  0  0
   49.9120   33.6950   42.2570 C   0  0  0  0  0  0  0  0  0  0  0  0
   49.8180   35.1370   42.5010 C   0  0  0  0  0  0  0  0  0  0  0  0
  1  7  1  1  0  0  0
  1 19  1  0  0  0  0
  2  8  1  0  0  0  0
  2  1  1  0  0  0  0
  3 11  1  0  0  0  0
  3  2  1  0  0  0  0
  4  5  1  0  0  0  0
  4  3  1  0  0  0  0
  5 15  1  0  0  0  0
  5  6  1  0  0  0  0
  6 26  1  0  0  0  0
  6 16  1  1  0  0  0
  6  1  1  0  0  0  0
  9  2  1  0  0  0  0
 10  3  1  0  0  0  0
 12  4  1  0  0  0  0
 13  4  1  0  0  0  0
 14  5  1  0  0  0  0
 17 23  1  0  0  0  0
 17 22  1  0  0  0  0
 18 17  2  0  0  0  0
 19 18  1  0  0  0  0
 19 20  2  0  0  0  0
 20 21  1  0  0  0  0
 21 22  2  0  0  0  0
 21 25  1  0  0  0  0
 24 18  1  0  0  0  0
 26 27  1  0  0  0  0
 27 30  1  0  0  0  0
 28 27  1  0  0  0  0
 29 27  1  0  0  0  0
 30 31  1  0  0  0  0
 30 32  1  0  0  0  0
 31 32  1  0  0  0  0
M  END
>  <minimizedAffinity>
-4.29248047

>  <minimizedRMSD>
2.16212392

$$$$
