
 OpenBabel03242517283D

 34 36  0  0  1  0  0  0  0  0999 V2000
   44.9980   34.7040   44.9900 C   0  0  0  0  0  0  0  0  0  0  0  0
   45.8810   34.5770   43.8690 C   0  0  0  0  0  0  0  0  0  0  0  0
   46.9440   33.6710   43.9540 C   0  0  0  0  0  0  0  0  0  0  0  0
   47.0750   32.9600   45.1050 N   0  0  0  0  0  0  0  0  0  0  0  0
   46.2470   33.0820   46.1480 C   0  0  0  0  0  0  0  0  0  0  0  0
   45.2340   33.9520   46.0560 N   0  0  0  0  0  0  0  0  0  0  0  0
   46.4640   32.3090   47.2860 N   0  0  0  0  0  0  0  0  0  0  0  0
   47.7080   32.3890   48.0010 C   0  0  0  0  0  0  0  0  0  0  0  0
   47.9490   31.2390   48.9260 C   0  0  0  0  0  0  0  0  0  0  0  0
   46.7960   30.6710   49.5390 N   0  0  0  0  0  0  0  0  0  0  0  0
   45.5720   31.3680   49.2370 C   0  0  0  0  0  0  0  0  0  0  0  0
   45.4000   31.4100   47.7460 C   0  0  2  0  0  0  0  0  0  0  0  0
   44.1800   35.4000   44.9240 H   0  0  0  0  0  0  0  0  0  0  0  0
   45.7140   35.1800   42.9800 H   0  0  0  0  0  0  0  0  0  0  0  0
   47.6270   33.5570   43.1180 H   0  0  0  0  0  0  0  0  0  0  0  0
   48.5900   32.4980   47.3320 H   0  0  0  0  0  0  0  0  0  0  0  0
   47.6720   33.3140   48.6190 H   0  0  0  0  0  0  0  0  0  0  0  0
   48.4860   30.4530   48.3550 H   0  0  0  0  0  0  0  0  0  0  0  0
   48.6640   31.5920   49.7060 H   0  0  0  0  0  0  0  0  0  0  0  0
   46.8900   30.4710   50.5570 H   0  0  0  0  0  0  0  0  0  0  0  0
   45.7130   32.4140   49.5960 H   0  0  0  0  0  0  0  0  0  0  0  0
   44.7390   30.9080   49.7680 H   0  0  0  0  0  0  0  0  0  0  0  0
   44.4560   31.9230   47.5390 H   0  0  0  0  0  0  0  0  0  0  0  0
   45.4840   30.0530   47.1150 C   0  0  0  0  0  0  0  0  0  0  0  0
   46.5400   29.7800   46.9430 H   0  0  0  0  0  0  0  0  0  0  0  0
   44.8390   30.0260   46.2300 H   0  0  0  0  0  0  0  0  0  0  0  0
   44.9040   29.0680   48.1000 C   0  0  0  0  0  0  0  0  0  0  0  0
   44.9580   27.7710   47.8900 C   0  0  0  0  0  0  0  0  0  0  0  0
   44.4190   26.7170   48.7970 C   0  0  0  0  0  0  0  0  0  0  0  0
   43.8810   27.2770   49.6110 H   0  0  0  0  0  0  0  0  0  0  0  0
   45.1740   26.0770   49.2520 H   0  0  0  0  0  0  0  0  0  0  0  0
   43.3710   25.9310   48.0280 C   0  0  0  0  0  0  0  0  0  0  0  0
   43.8550   24.9450   46.9950 C   0  0  0  0  0  0  0  0  0  0  0  0
   43.1310   26.2140   46.5950 C   0  0  0  0  0  0  0  0  0  0  0  0
  1  6  1  0  0  0  0
  2  3  1  0  0  0  0
  2  1  2  0  0  0  0
  3  4  2  0  0  0  0
  4  5  1  0  0  0  0
  5  7  1  0  0  0  0
  6  5  2  0  0  0  0
  7 12  1  0  0  0  0
  7  8  1  0  0  0  0
  8 17  1  0  0  0  0
  8  9  1  0  0  0  0
  9 10  1  0  0  0  0
  9 19  1  0  0  0  0
 10 20  1  0  0  0  0
 11 10  1  0  0  0  0
 11 21  1  0  0  0  0
 11 22  1  0  0  0  0
 12 23  1  6  0  0  0
 12 11  1  0  0  0  0
 13  1  1  0  0  0  0
 14  2  1  0  0  0  0
 15  3  1  0  0  0  0
 16  8  1  0  0  0  0
 18  9  1  0  0  0  0
 24 12  1  0  0  0  0
 24 27  1  0  0  0  0
 25 24  1  0  0  0  0
 26 24  1  0  0  0  0
 28 27  2  0  0  0  0
 28 29  1  0  0  0  0
 29 31  1  0  0  0  0
 29 30  1  0  0  0  0
 32 29  1  0  0  0  0
 33 32  1  0  0  0  0
 34 33  1  0  0  0  0
 34 32  1  0  0  0  0
M  END
>  <minimizedAffinity>
-5.44642973

>  <minimizedRMSD>
0.572975755

$$$$
