
 OpenBabel03252500543D

 24 25  0  0  0  0  0  0  0  0999 V2000
   46.8870   34.3050   42.0220 C   0  0  0  0  0  0  0  0  0  0  0  0
   45.5180   34.1890   41.8410 C   0  0  0  0  0  0  0  0  0  0  0  0
   44.7360   33.8630   42.9790 C   0  0  0  0  0  0  0  0  0  0  0  0
   45.3740   33.6910   44.1420 N   0  0  0  0  0  0  0  0  0  0  0  0
   46.7140   33.8110   44.2860 C   0  0  0  0  0  0  0  0  0  0  0  0
   47.4370   34.1160   43.2150 N   0  0  0  0  0  0  0  0  0  0  0  0
   43.6930   33.7840   42.8000 H   0  0  0  0  0  0  0  0  0  0  0  0
   47.1100   33.6460   45.2850 H   0  0  0  0  0  0  0  0  0  0  0  0
   47.7510   34.6380   40.8920 C   0  0  0  0  0  0  0  0  0  0  0  0
   48.2660   33.7050   40.5800 H   0  0  0  0  0  0  0  0  0  0  0  0
   47.2080   34.9970   40.0040 H   0  0  0  0  0  0  0  0  0  0  0  0
   48.8230   35.5910   41.3560 C   0  0  0  0  0  0  0  0  0  0  0  0
   48.4750   36.6230   41.1350 H   0  0  0  0  0  0  0  0  0  0  0  0
   49.7910   35.3810   40.8820 H   0  0  0  0  0  0  0  0  0  0  0  0
   48.9910   35.5250   42.4480 H   0  0  0  0  0  0  0  0  0  0  0  0
   45.0200   34.4000   40.5620 O   0  0  0  0  0  0  0  0  0  0  0  0
   44.2200   33.4550   38.2550 O   0  0  0  0  0  0  0  0  0  0  0  0
   43.9000   33.4550   39.7500 P   0  0  1  0  0  0  0  0  0  0  0  0
   44.0280   31.8670   40.3270 O   0  0  0  0  0  0  0  0  0  0  0  0
   43.8480   31.9320   41.3020 H   0  0  0  0  0  0  0  0  0  0  0  0
   42.2960   33.9400   39.9790 O   0  0  0  0  0  0  0  0  0  0  0  0
   41.9790   35.0720   39.2530 C   0  0  0  0  0  0  0  0  0  0  0  0
   40.6820   35.7280   39.6710 C   0  0  0  0  0  0  0  0  0  0  0  0
   40.7540   35.0280   38.3590 C   0  0  0  0  0  0  0  0  0  0  0  0
  1  6  1  0  0  0  0
  2  1  2  0  0  0  0
  2  3  1  0  0  0  0
  3  4  2  0  0  0  0
  4  5  1  0  0  0  0
  5  8  1  0  0  0  0
  6  5  2  0  0  0  0
  7  3  1  0  0  0  0
  9 12  1  0  0  0  0
  9  1  1  0  0  0  0
 10  9  1  0  0  0  0
 11  9  1  0  0  0  0
 12 15  1  0  0  0  0
 13 12  1  0  0  0  0
 14 12  1  0  0  0  0
 16  2  1  0  0  0  0
 18 17  2  6  0  0  0
 18 21  1  0  0  0  0
 18 19  1  0  0  0  0
 18 16  1  0  0  0  0
 19 20  1  0  0  0  0
 22 23  1  0  0  0  0
 22 21  1  0  0  0  0
 24 22  1  0  0  0  0
 24 23  1  0  0  0  0
M  END
>  <minimizedAffinity>
-4.0061636

>  <minimizedRMSD>
2.97561693

$$$$
