
 OpenBabel03252507163D

 23 25  0  0  0  0  0  0  0  0999 V2000
   45.3550   36.1830   43.1470 C   0  0  0  0  0  0  0  0  0  0  0  0
   45.9710   34.9260   42.9290 C   0  0  0  0  0  0  0  0  0  0  0  0
   45.8680   33.9840   43.9270 C   0  0  0  0  0  0  0  0  0  0  0  0
   45.1990   34.2750   45.0590 N   0  0  0  0  0  0  0  0  0  0  0  0
   44.6110   35.4950   45.2530 C   0  0  0  0  0  0  0  0  0  0  0  0
   44.7080   36.4120   44.2900 N   0  0  0  0  0  0  0  0  0  0  0  0
   45.4060   36.9660   42.3910 H   0  0  0  0  0  0  0  0  0  0  0  0
   44.1100   35.5730   46.2180 H   0  0  0  0  0  0  0  0  0  0  0  0
   46.4970   32.6860   43.7160 C   0  0  0  0  0  0  0  0  0  0  0  0
   45.7170   31.5610   43.5300 C   0  0  0  0  0  0  0  0  0  0  0  0
   46.3400   30.3510   43.3350 C   0  0  0  0  0  0  0  0  0  0  0  0
   47.7280   30.1990   43.3120 C   0  0  0  0  0  0  0  0  0  0  0  0
   48.4520   31.3560   43.5030 C   0  0  0  0  0  0  0  0  0  0  0  0
   47.8350   32.5420   43.6960 N   0  0  0  0  0  0  0  0  0  0  0  0
   44.6390   31.6350   43.5400 H   0  0  0  0  0  0  0  0  0  0  0  0
   45.7240   29.4700   43.1890 H   0  0  0  0  0  0  0  0  0  0  0  0
   48.2190   29.2460   43.1580 H   0  0  0  0  0  0  0  0  0  0  0  0
   49.5410   31.2680   43.4920 H   0  0  0  0  0  0  0  0  0  0  0  0
   46.6660   34.6820   41.7030 C   0  0  0  0  0  0  0  0  0  0  0  0
   47.8450   35.1260   41.6010 O   0  0  0  0  0  0  0  0  0  0  0  0
   46.0680   33.9420   40.5650 C   0  0  0  0  0  3  0  0  0  0  0  0
   46.9130   33.7130   39.3430 C   0  0  0  0  0  2  0  0  0  0  0  0
   46.6220   32.5670   40.2090 C   0  0  0  0  0  2  0  0  0  0  0  0
  1  6  1  0  0  0  0
  2  1  2  0  0  0  0
  2  3  1  0  0  0  0
  3  4  2  0  0  0  0
  4  5  1  0  0  0  0
  5  8  1  0  0  0  0
  6  5  2  0  0  0  0
  7  1  1  0  0  0  0
  9  3  1  0  0  0  0
 10 15  1  0  0  0  0
 10  9  2  0  0  0  0
 11 10  1  0  0  0  0
 12 11  2  0  0  0  0
 12 13  1  0  0  0  0
 13 14  2  0  0  0  0
 14  9  1  0  0  0  0
 16 11  1  0  0  0  0
 17 12  1  0  0  0  0
 18 13  1  0  0  0  0
 19  2  1  0  0  0  0
 20 19  2  0  0  0  0
 21 19  1  0  0  0  0
 22 23  1  0  0  0  0
 22 21  1  0  0  0  0
 23 21  1  0  0  0  0
M  END
>  <minimizedAffinity>
-3.97735643

>  <minimizedRMSD>
0.236332491

$$$$
