
 OpenBabel03252501193D

 18 19  0  0  0  0  0  0  0  0999 V2000
   39.3500   24.8060   42.6370 C   0  0  0  0  0  0  0  0  0  0  0  0
   38.1690   25.5720   42.5760 C   0  0  0  0  0  0  0  0  0  0  0  0
   38.2330   26.8750   43.0590 C   0  0  0  0  0  0  0  0  0  0  0  0
   39.4180   27.3570   43.5650 N   0  0  0  0  0  0  0  0  0  0  0  0
   40.5220   26.5770   43.5990 C   0  0  0  0  0  0  0  0  0  0  0  0
   40.4940   25.3150   43.1410 N   0  0  0  0  0  0  0  0  0  0  0  0
   39.3500   23.7900   42.2770 H   0  0  0  0  0  0  0  0  0  0  0  0
   41.3950   27.0830   44.0230 H   0  0  0  0  0  0  0  0  0  0  0  0
   36.9930   27.6600   42.9780 C   0  0  0  0  0  0  0  0  0  0  0  0
   36.6050   27.7710   41.6570 F   0  0  0  0  0  0  0  0  0  0  0  0
   37.3280   28.9430   43.4030 F   0  0  0  0  0  0  0  0  0  0  0  0
   35.9700   27.1190   43.6800 F   0  0  0  0  0  0  0  0  0  0  0  0
   36.9230   25.0210   42.0170 C   0  0  0  0  0  0  0  0  0  0  0  0
   36.3300   24.4260   42.7250 H   0  0  0  0  0  0  0  0  0  0  0  0
   36.2780   25.9200   41.7800 H   0  0  0  0  0  0  0  0  0  0  0  0
   37.1320   24.3040   40.7200 C   0  0  0  0  0  3  0  0  0  0  0  0
   35.9970   23.6750   39.9990 C   0  0  0  0  0  2  0  0  0  0  0  0
   36.4630   24.9850   39.4930 C   0  0  0  0  0  2  0  0  0  0  0  0
  1  6  1  0  0  0  0
  2  1  2  0  0  0  0
  2  3  1  0  0  0  0
  3  4  2  0  0  0  0
  4  5  1  0  0  0  0
  5  8  1  0  0  0  0
  6  5  2  0  0  0  0
  7  1  1  0  0  0  0
  9  3  1  0  0  0  0
  9 11  1  0  0  0  0
  9 12  1  0  0  0  0
 10  9  1  0  0  0  0
 13  2  1  0  0  0  0
 13 14  1  0  0  0  0
 15 13  1  0  0  0  0
 16 13  1  0  0  0  0
 17 16  1  0  0  0  0
 18 17  1  0  0  0  0
 18 16  1  0  0  0  0
M  END
>  <minimizedAffinity>
-4.27083063

$$$$

 OpenBabel03252501193D

 18 19  0  0  0  0  0  0  0  0999 V2000
   40.2850   27.0390   43.6790 C   0  0  0  0  0  0  0  0  0  0  0  0
   38.9240   27.0480   43.3120 C   0  0  0  0  0  0  0  0  0  0  0  0
   38.4120   25.8840   42.7480 C   0  0  0  0  0  0  0  0  0  0  0  0
   39.2320   24.7940   42.5740 N   0  0  0  0  0  0  0  0  0  0  0  0
   40.5310   24.8400   42.9430 C   0  0  0  0  0  0  0  0  0  0  0  0
   41.0570   25.9480   43.4910 N   0  0  0  0  0  0  0  0  0  0  0  0
   40.7280   27.9180   44.1180 H   0  0  0  0  0  0  0  0  0  0  0  0
   41.0680   23.9060   42.7520 H   0  0  0  0  0  0  0  0  0  0  0  0
   36.9880   25.9110   42.3820 C   0  0  0  0  0  0  0  0  0  0  0  0
   36.5300   24.6180   42.2230 F   0  0  0  0  0  0  0  0  0  0  0  0
   36.9310   26.5110   41.1270 F   0  0  0  0  0  0  0  0  0  0  0  0
   36.2110   26.5300   43.3010 F   0  0  0  0  0  0  0  0  0  0  0  0
   38.0780   28.2340   43.5270 C   0  0  0  0  0  0  0  0  0  0  0  0
   36.9990   28.0440   43.4480 H   0  0  0  0  0  0  0  0  0  0  0  0
   38.2440   28.5280   44.6070 H   0  0  0  0  0  0  0  0  0  0  0  0
   38.5010   29.4100   42.7050 C   0  0  0  0  0  3  0  0  0  0  0  0
   38.6080   29.3160   41.2270 C   0  0  0  0  0  2  0  0  0  0  0  0
   37.3960   29.9700   41.7650 C   0  0  0  0  0  2  0  0  0  0  0  0
  1  7  1  0  0  0  0
  2 13  1  0  0  0  0
  2  1  2  0  0  0  0
  3  2  1  0  0  0  0
  4  3  2  0  0  0  0
  4  5  1  0  0  0  0
  5  6  2  0  0  0  0
  6  1  1  0  0  0  0
  8  5  1  0  0  0  0
  9  3  1  0  0  0  0
  9 12  1  0  0  0  0
 10  9  1  0  0  0  0
 11  9  1  0  0  0  0
 13 15  1  0  0  0  0
 14 13  1  0  0  0  0
 16 13  1  0  0  0  0
 17 18  1  0  0  0  0
 17 16  1  0  0  0  0
 18 16  1  0  0  0  0
M  END
>  <minimizedAffinity>
-4.20146418

$$$$

 OpenBabel03252501193D

 18 19  0  0  0  0  0  0  0  0999 V2000
   39.4280   29.9690   42.5570 C   0  0  0  0  0  0  0  0  0  0  0  0
   38.4280   28.9760   42.5540 C   0  0  0  0  0  0  0  0  0  0  0  0
   37.3200   29.1970   41.7420 C   0  0  0  0  0  0  0  0  0  0  0  0
   37.2430   30.3460   40.9900 N   0  0  0  0  0  0  0  0  0  0  0  0
   38.2330   31.2660   41.0310 C   0  0  0  0  0  0  0  0  0  0  0  0
   39.3170   31.0830   41.8040 N   0  0  0  0  0  0  0  0  0  0  0  0
   40.3050   29.8450   43.1710 H   0  0  0  0  0  0  0  0  0  0  0  0
   38.0480   32.1280   40.3850 H   0  0  0  0  0  0  0  0  0  0  0  0
   36.2920   28.1450   41.7470 C   0  0  0  0  0  0  0  0  0  0  0  0
   36.7410   27.0610   41.0180 F   0  0  0  0  0  0  0  0  0  0  0  0
   35.2080   28.6720   41.0490 F   0  0  0  0  0  0  0  0  0  0  0  0
   35.9660   27.7200   42.9900 F   0  0  0  0  0  0  0  0  0  0  0  0
   38.5540   27.7550   43.3660 C   0  0  0  0  0  0  0  0  0  0  0  0
   38.5710   27.9300   44.4510 H   0  0  0  0  0  0  0  0  0  0  0  0
   37.6030   27.1720   43.1790 H   0  0  0  0  0  0  0  0  0  0  0  0
   39.6790   26.8730   42.9240 C   0  0  0  0  0  3  0  0  0  0  0  0
   40.0340   25.6450   43.6800 C   0  0  0  0  0  2  0  0  0  0  0  0
   39.2390   25.4600   42.4460 C   0  0  0  0  0  2  0  0  0  0  0  0
  1  7  1  0  0  0  0
  2  1  1  0  0  0  0
  2 13  1  0  0  0  0
  3  9  1  0  0  0  0
  3  2  2  0  0  0  0
  4  5  2  0  0  0  0
  4  3  1  0  0  0  0
  5  6  1  0  0  0  0
  6  1  2  0  0  0  0
  8  5  1  0  0  0  0
  9 12  1  0  0  0  0
 10  9  1  0  0  0  0
 11  9  1  0  0  0  0
 13 14  1  0  0  0  0
 15 13  1  0  0  0  0
 16 13  1  0  0  0  0
 16 17  1  0  0  0  0
 18 16  1  0  0  0  0
 18 17  1  0  0  0  0
M  END
>  <minimizedAffinity>
-4.15388584

$$$$

 OpenBabel03252501193D

 18 19  0  0  0  0  0  0  0  0999 V2000
   39.3420   27.3210   43.5870 C   0  0  0  0  0  0  0  0  0  0  0  0
   38.2570   26.6570   42.9800 C   0  0  0  0  0  0  0  0  0  0  0  0
   38.4950   25.3810   42.4800 C   0  0  0  0  0  0  0  0  0  0  0  0
   39.7490   24.8280   42.5940 N   0  0  0  0  0  0  0  0  0  0  0  0
   40.7550   25.5110   43.1860 C   0  0  0  0  0  0  0  0  0  0  0  0
   40.5580   26.7450   43.6790 N   0  0  0  0  0  0  0  0  0  0  0  0
   39.2070   28.3130   43.9880 H   0  0  0  0  0  0  0  0  0  0  0  0
   41.6970   24.9560   43.2120 H   0  0  0  0  0  0  0  0  0  0  0  0
   37.3480   24.7020   41.8600 C   0  0  0  0  0  0  0  0  0  0  0  0
   37.6860   23.3920   41.5790 F   0  0  0  0  0  0  0  0  0  0  0  0
   37.1520   25.3330   40.6340 F   0  0  0  0  0  0  0  0  0  0  0  0
   36.2410   24.7000   42.6390 F   0  0  0  0  0  0  0  0  0  0  0  0
   36.9260   27.2820   42.8900 C   0  0  0  0  0  0  0  0  0  0  0  0
   36.1280   26.6060   42.5530 H   0  0  0  0  0  0  0  0  0  0  0  0
   36.6500   27.5530   43.9530 H   0  0  0  0  0  0  0  0  0  0  0  0
   36.9340   28.5650   42.1200 C   0  0  0  0  0  3  0  0  0  0  0  0
   37.2550   28.5900   40.6710 C   0  0  0  0  0  2  0  0  0  0  0  0
   35.8240   28.6740   41.0370 C   0  0  0  0  0  2  0  0  0  0  0  0
  1  6  1  0  0  0  0
  1  7  1  0  0  0  0
  2  1  2  0  0  0  0
  3  4  2  0  0  0  0
  3  2  1  0  0  0  0
  4  5  1  0  0  0  0
  5  8  1  0  0  0  0
  5  6  2  0  0  0  0
  9  3  1  0  0  0  0
  9 12  1  0  0  0  0
 10  9  1  0  0  0  0
 11  9  1  0  0  0  0
 13  2  1  0  0  0  0
 13 15  1  0  0  0  0
 14 13  1  0  0  0  0
 16 13  1  0  0  0  0
 17 18  1  0  0  0  0
 17 16  1  0  0  0  0
 18 16  1  0  0  0  0
M  END
>  <minimizedAffinity>
-4.11806631

$$$$

 OpenBabel03252501193D

 18 19  0  0  0  0  0  0  0  0999 V2000
   37.6290   30.5180   41.2550 C   0  0  0  0  0  0  0  0  0  0  0  0
   37.0620   29.2530   41.5100 C   0  0  0  0  0  0  0  0  0  0  0  0
   37.8040   28.3730   42.2920 C   0  0  0  0  0  0  0  0  0  0  0  0
   39.0310   28.7600   42.7750 N   0  0  0  0  0  0  0  0  0  0  0  0
   39.5280   29.9860   42.4990 C   0  0  0  0  0  0  0  0  0  0  0  0
   38.8370   30.8600   41.7480 N   0  0  0  0  0  0  0  0  0  0  0  0
   37.0930   31.2330   40.6530 H   0  0  0  0  0  0  0  0  0  0  0  0
   40.5100   30.1660   42.9460 H   0  0  0  0  0  0  0  0  0  0  0  0
   37.1900   27.0620   42.5540 C   0  0  0  0  0  0  0  0  0  0  0  0
   36.6820   26.5490   41.3770 F   0  0  0  0  0  0  0  0  0  0  0  0
   36.1000   27.3140   43.3820 F   0  0  0  0  0  0  0  0  0  0  0  0
   38.0550   26.1610   43.0750 F   0  0  0  0  0  0  0  0  0  0  0  0
   35.7380   28.8830   40.9820 C   0  0  0  0  0  0  0  0  0  0  0  0
   35.5580   27.8000   40.9240 H   0  0  0  0  0  0  0  0  0  0  0  0
   34.9950   29.2620   41.7450 H   0  0  0  0  0  0  0  0  0  0  0  0
   35.4070   29.5750   39.6970 C   0  0  0  0  0  3  0  0  0  0  0  0
   35.6730   28.9290   38.3870 C   0  0  0  0  0  2  0  0  0  0  0  0
   34.2760   28.8960   38.8730 C   0  0  0  0  0  2  0  0  0  0  0  0
  1  2  2  0  0  0  0
  1  6  1  0  0  0  0
  2  3  1  0  0  0  0
  3  9  1  0  0  0  0
  3  4  2  0  0  0  0
  5  4  1  0  0  0  0
  5  8  1  0  0  0  0
  6  5  2  0  0  0  0
  7  1  1  0  0  0  0
  9 12  1  0  0  0  0
  9 11  1  0  0  0  0
 10  9  1  0  0  0  0
 13  2  1  0  0  0  0
 13 15  1  0  0  0  0
 14 13  1  0  0  0  0
 16 13  1  0  0  0  0
 17 18  1  0  0  0  0
 17 16  1  0  0  0  0
 18 16  1  0  0  0  0
M  END
>  <minimizedAffinity>
-4.08534241

$$$$

 OpenBabel03252501193D

 18 19  0  0  0  0  0  0  0  0999 V2000
   36.9370   26.0030   39.7970 C   0  0  0  0  0  0  0  0  0  0  0  0
   37.0760   26.2810   41.1720 C   0  0  0  0  0  0  0  0  0  0  0  0
   36.9880   27.6140   41.5600 C   0  0  0  0  0  0  0  0  0  0  0  0
   36.7730   28.5870   40.6120 N   0  0  0  0  0  0  0  0  0  0  0  0
   36.6480   28.2630   39.3050 C   0  0  0  0  0  0  0  0  0  0  0  0
   36.7270   26.9860   38.8970 N   0  0  0  0  0  0  0  0  0  0  0  0
   37.0000   24.9850   39.4470 H   0  0  0  0  0  0  0  0  0  0  0  0
   36.4780   29.1310   38.6600 H   0  0  0  0  0  0  0  0  0  0  0  0
   37.1260   27.8820   42.9990 C   0  0  0  0  0  0  0  0  0  0  0  0
   36.0250   27.3820   43.6670 F   0  0  0  0  0  0  0  0  0  0  0  0
   37.0770   29.2670   43.1330 F   0  0  0  0  0  0  0  0  0  0  0  0
   38.2390   27.3350   43.5410 F   0  0  0  0  0  0  0  0  0  0  0  0
   37.2930   25.2070   42.1550 C   0  0  0  0  0  0  0  0  0  0  0  0
   37.2460   25.5330   43.2030 H   0  0  0  0  0  0  0  0  0  0  0  0
   36.4160   24.5040   42.0290 H   0  0  0  0  0  0  0  0  0  0  0  0
   38.5210   24.3980   41.8750 C   0  0  0  0  0  3  0  0  0  0  0  0
   39.8590   25.0360   41.7940 C   0  0  0  0  0  2  0  0  0  0  0  0
   39.5330   24.3340   43.0550 C   0  0  0  0  0  2  0  0  0  0  0  0
  1  2  1  0  0  0  0
  2  3  2  0  0  0  0
  2 13  1  0  0  0  0
  3  9  1  0  0  0  0
  4  3  1  0  0  0  0
  5  4  2  0  0  0  0
  6  5  1  0  0  0  0
  6  1  2  0  0  0  0
  7  1  1  0  0  0  0
  8  5  1  0  0  0  0
  9 11  1  0  0  0  0
  9 12  1  0  0  0  0
  9 10  1  0  0  0  0
 13 14  1  0  0  0  0
 15 13  1  0  0  0  0
 16 13  1  0  0  0  0
 16 18  1  0  0  0  0
 17 16  1  0  0  0  0
 17 18  1  0  0  0  0
M  END
>  <minimizedAffinity>
-4.07756281

$$$$

 OpenBabel03252501193D

 18 19  0  0  0  0  0  0  0  0999 V2000
   36.2100   27.8880   38.9150 C   0  0  0  0  0  0  0  0  0  0  0  0
   36.3050   28.8890   39.9030 C   0  0  0  0  0  0  0  0  0  0  0  0
   36.7540   30.1410   39.4950 C   0  0  0  0  0  0  0  0  0  0  0  0
   37.0810   30.3510   38.1760 N   0  0  0  0  0  0  0  0  0  0  0  0
   36.9710   29.3540   37.2690 C   0  0  0  0  0  0  0  0  0  0  0  0
   36.5400   28.1340   37.6300 N   0  0  0  0  0  0  0  0  0  0  0  0
   35.8690   26.9010   39.1820 H   0  0  0  0  0  0  0  0  0  0  0  0
   37.2600   29.6560   36.2580 H   0  0  0  0  0  0  0  0  0  0  0  0
   36.8360   31.1730   40.5390 C   0  0  0  0  0  0  0  0  0  0  0  0
   36.9030   32.4200   39.9480 F   0  0  0  0  0  0  0  0  0  0  0  0
   38.0570   30.9700   41.1770 F   0  0  0  0  0  0  0  0  0  0  0  0
   35.7840   31.1590   41.3900 F   0  0  0  0  0  0  0  0  0  0  0  0
   35.9340   28.6240   41.3030 C   0  0  0  0  0  0  0  0  0  0  0  0
   35.6140   29.5130   41.8650 H   0  0  0  0  0  0  0  0  0  0  0  0
   35.0150   27.9660   41.2500 H   0  0  0  0  0  0  0  0  0  0  0  0
   36.9690   27.8370   42.0430 C   0  0  0  0  0  3  0  0  0  0  0  0
   37.6070   28.3710   43.2720 C   0  0  0  0  0  2  0  0  0  0  0  0
   36.5330   27.3720   43.4620 C   0  0  0  0  0  2  0  0  0  0  0  0
  1  7  1  0  0  0  0
  1  2  1  0  0  0  0
  2 13  1  0  0  0  0
  3  2  2  0  0  0  0
  3  9  1  0  0  0  0
  4  3  1  0  0  0  0
  5  6  1  0  0  0  0
  5  4  2  0  0  0  0
  6  1  2  0  0  0  0
  8  5  1  0  0  0  0
  9 11  1  0  0  0  0
  9 12  1  0  0  0  0
 10  9  1  0  0  0  0
 13 14  1  0  0  0  0
 13 16  1  0  0  0  0
 15 13  1  0  0  0  0
 16 17  1  0  0  0  0
 16 18  1  0  0  0  0
 17 18  1  0  0  0  0
M  END
>  <minimizedAffinity>
-4.03671694

$$$$

 OpenBabel03252501193D

 18 19  0  0  0  0  0  0  0  0999 V2000
   36.3990   28.0480   42.0800 C   0  0  0  0  0  0  0  0  0  0  0  0
   36.5300   29.2460   41.3470 C   0  0  0  0  0  0  0  0  0  0  0  0
   37.6480   30.0300   41.6110 C   0  0  0  0  0  0  0  0  0  0  0  0
   38.5630   29.6190   42.5520 N   0  0  0  0  0  0  0  0  0  0  0  0
   38.3880   28.4600   43.2250 C   0  0  0  0  0  0  0  0  0  0  0  0
   37.3190   27.6790   42.9950 N   0  0  0  0  0  0  0  0  0  0  0  0
   35.5490   27.4080   41.9120 H   0  0  0  0  0  0  0  0  0  0  0  0
   39.1890   28.2510   43.9410 H   0  0  0  0  0  0  0  0  0  0  0  0
   37.7690   31.2700   40.8300 C   0  0  0  0  0  0  0  0  0  0  0  0
   38.0590   30.9590   39.5160 F   0  0  0  0  0  0  0  0  0  0  0  0
   38.8860   31.9290   41.3380 F   0  0  0  0  0  0  0  0  0  0  0  0
   36.6490   32.0300   40.8530 F   0  0  0  0  0  0  0  0  0  0  0  0
   35.5310   29.6440   40.3410 C   0  0  0  0  0  0  0  0  0  0  0  0
   34.5350   29.8630   40.7490 H   0  0  0  0  0  0  0  0  0  0  0  0
   35.9010   30.6300   39.9270 H   0  0  0  0  0  0  0  0  0  0  0  0
   35.4650   28.7030   39.1790 C   0  0  0  0  0  3  0  0  0  0  0  0
   34.3020   28.7010   38.2570 C   0  0  0  0  0  2  0  0  0  0  0  0
   35.5220   29.3930   37.7870 C   0  0  0  0  0  2  0  0  0  0  0  0
  1  6  1  0  0  0  0
  2  3  1  0  0  0  0
  2  1  2  0  0  0  0
  3  4  2  0  0  0  0
  4  5  1  0  0  0  0
  5  8  1  0  0  0  0
  6  5  2  0  0  0  0
  7  1  1  0  0  0  0
  9 12  1  0  0  0  0
  9 11  1  0  0  0  0
  9  3  1  0  0  0  0
 10  9  1  0  0  0  0
 13 14  1  0  0  0  0
 13  2  1  0  0  0  0
 15 13  1  0  0  0  0
 16 13  1  0  0  0  0
 17 16  1  0  0  0  0
 18 17  1  0  0  0  0
 18 16  1  0  0  0  0
M  END
>  <minimizedAffinity>
-3.94633675

$$$$

 OpenBabel03252501193D

 18 19  0  0  0  0  0  0  0  0999 V2000
   36.0370   27.3710   39.0670 C   0  0  0  0  0  0  0  0  0  0  0  0
   36.7140   27.2390   40.2970 C   0  0  0  0  0  0  0  0  0  0  0  0
   36.4840   28.2210   41.2540 C   0  0  0  0  0  0  0  0  0  0  0  0
   35.6250   29.2580   40.9740 N   0  0  0  0  0  0  0  0  0  0  0  0
   35.0020   29.3350   39.7770 C   0  0  0  0  0  0  0  0  0  0  0  0
   35.2020   28.4030   38.8300 N   0  0  0  0  0  0  0  0  0  0  0  0
   36.1850   26.6360   38.2930 H   0  0  0  0  0  0  0  0  0  0  0  0
   34.3460   30.2060   39.6870 H   0  0  0  0  0  0  0  0  0  0  0  0
   37.1920   28.0600   42.5330 C   0  0  0  0  0  0  0  0  0  0  0  0
   37.1650   29.2540   43.2270 F   0  0  0  0  0  0  0  0  0  0  0  0
   38.5230   27.8230   42.2010 F   0  0  0  0  0  0  0  0  0  0  0  0
   36.6610   27.0960   43.3210 F   0  0  0  0  0  0  0  0  0  0  0  0
   37.6170   26.1060   40.5590 C   0  0  0  0  0  0  0  0  0  0  0  0
   38.3880   25.9510   39.7910 H   0  0  0  0  0  0  0  0  0  0  0  0
   38.1900   26.3910   41.4930 H   0  0  0  0  0  0  0  0  0  0  0  0
   36.8880   24.8410   40.8860 C   0  0  0  0  0  3  0  0  0  0  0  0
   37.5770   23.5260   40.8460 C   0  0  0  0  0  2  0  0  0  0  0  0
   37.3770   24.1320   42.1810 C   0  0  0  0  0  2  0  0  0  0  0  0
  1  2  1  0  0  0  0
  2 13  1  0  0  0  0
  2  3  2  0  0  0  0
  3  9  1  0  0  0  0
  4  3  1  0  0  0  0
  5  4  2  0  0  0  0
  6  1  2  0  0  0  0
  6  5  1  0  0  0  0
  7  1  1  0  0  0  0
  8  5  1  0  0  0  0
  9 10  1  0  0  0  0
  9 12  1  0  0  0  0
 11  9  1  0  0  0  0
 13 16  1  0  0  0  0
 13 15  1  0  0  0  0
 14 13  1  0  0  0  0
 16 18  1  0  0  0  0
 17 16  1  0  0  0  0
 17 18  1  0  0  0  0
M  END
>  <minimizedAffinity>
-3.89101291

$$$$
