
 OpenBabel03252508503D

 22 24  0  0  0  0  0  0  0  0999 V2000
   45.9670   34.1490   41.0380 C   0  0  0  0  0  0  0  0  0  0  0  0
   46.5380   34.8030   42.1250 C   0  0  0  0  0  0  0  0  0  0  0  0
   47.8770   35.2110   41.9990 C   0  0  0  0  0  0  0  0  0  0  0  0
   48.5250   34.9420   40.8270 N   0  0  0  0  0  0  0  0  0  0  0  0
   47.9190   34.3050   39.8070 C   0  0  0  0  0  0  0  0  0  0  0  0
   46.6360   33.8990   39.8940 N   0  0  0  0  0  0  0  0  0  0  0  0
   48.3370   35.7210   42.8370 H   0  0  0  0  0  0  0  0  0  0  0  0
   48.4840   34.1160   38.8920 H   0  0  0  0  0  0  0  0  0  0  0  0
   45.7610   35.0400   43.3290 C   0  0  0  0  0  0  0  0  0  0  0  0
   45.0520   36.2030   43.5500 C   0  0  0  0  0  0  0  0  0  0  0  0
   44.4770   36.0060   44.7850 C   0  0  0  0  0  0  0  0  0  0  0  0
   44.8140   34.7980   45.2890 N   0  0  0  0  0  0  0  0  0  0  0  0
   45.5890   34.2360   44.3910 N   0  0  0  0  0  0  0  0  0  0  0  0
   44.9680   37.0700   42.9000 H   0  0  0  0  0  0  0  0  0  0  0  0
   43.8330   36.7490   45.2750 H   0  0  0  0  0  0  0  0  0  0  0  0
   44.5120   34.3910   46.2180 H   0  0  0  0  0  0  0  0  0  0  0  0
   44.6440   33.7410   41.1500 O   0  0  0  0  0  0  0  0  0  0  0  0
   43.5620   34.3470   40.5710 C   0  0  0  0  0  0  0  0  0  0  0  0
   43.2240   35.5730   40.6130 O   0  0  0  0  0  0  0  0  0  0  0  0
   42.4020   33.8960   39.7120 C   0  0  0  0  0  3  0  0  0  0  0  0
   42.6820   32.9790   38.5520 C   0  0  0  0  0  2  0  0  0  0  0  0
   41.9420   32.5080   39.7650 C   0  0  0  0  0  2  0  0  0  0  0  0
  1 17  1  0  0  0  0
  1  2  1  0  0  0  0
  2  9  1  0  0  0  0
  3  2  2  0  0  0  0
  3  7  1  0  0  0  0
  4  3  1  0  0  0  0
  5  6  1  0  0  0  0
  5  4  2  0  0  0  0
  6  1  2  0  0  0  0
  8  5  1  0  0  0  0
  9 10  1  0  0  0  0
  9 13  2  0  0  0  0
 10 11  2  0  0  0  0
 11 15  1  0  0  0  0
 11 12  1  0  0  0  0
 12 16  1  0  0  0  0
 13 12  1  0  0  0  0
 14 10  1  0  0  0  0
 18 19  2  0  0  0  0
 18 17  1  0  0  0  0
 20 22  1  0  0  0  0
 20 18  1  0  0  0  0
 21 20  1  0  0  0  0
 21 22  1  0  0  0  0
M  END
>  <minimizedAffinity>
-4.6018033

>  <minimizedRMSD>
0.314530402

$$$$
