
 OpenBabel03252501353D

 19 20  0  0  0  0  0  0  0  0999 V2000
   45.5260   34.7050   44.1720 C   0  0  0  0  0  0  0  0  0  0  0  0
   45.2810   34.4340   45.4970 C   0  0  0  0  0  0  0  0  0  0  0  0
   46.0620   33.4440   46.0620 C   0  0  0  0  0  0  0  0  0  0  0  0
   46.9850   32.8320   45.2870 N   0  0  0  0  0  0  0  0  0  0  0  0
   47.1900   33.1280   43.9990 C   0  0  0  0  0  0  0  0  0  0  0  0
   46.4470   34.0900   43.4110 N   0  0  0  0  0  0  0  0  0  0  0  0
   45.8770   33.2220   47.1060 H   0  0  0  0  0  0  0  0  0  0  0  0
   47.9550   32.5710   43.4870 H   0  0  0  0  0  0  0  0  0  0  0  0
   43.9400   35.0440   42.4710 C   0  0  0  0  0  0  0  0  0  0  0  0
   44.0200   33.7790   42.5620 O   0  0  0  0  0  0  0  0  0  0  0  0
   44.8160   35.7020   43.3870 N   0  0  0  0  0  0  0  0  0  0  0  0
   44.8790   36.7330   43.4250 H   0  0  0  0  0  0  0  0  0  0  0  0
   43.1180   35.7670   41.6030 O   0  0  0  0  0  0  0  0  0  0  0  0
   41.7830   35.3090   41.3740 C   0  0  0  0  0  0  0  0  0  0  0  0
   41.3620   35.4130   39.9180 C   0  0  0  0  0  0  0  0  0  0  0  0
   40.6960   36.2210   40.9830 C   0  0  0  0  0  0  0  0  0  0  0  0
   44.2730   35.1820   46.1370 N   0  0  0  0  0  0  0  0  0  0  0  0
   43.6350   34.4960   46.5990 H   0  0  0  0  0  0  0  0  0  0  0  0
   44.1650   36.2180   46.1590 H   0  0  0  0  0  0  0  0  0  0  0  0
  1  2  1  0  0  0  0
  2  3  2  0  0  0  0
  2 17  1  0  0  0  0
  3  7  1  0  0  0  0
  4  3  1  0  0  0  0
  5  4  2  0  0  0  0
  6  5  1  0  0  0  0
  6  1  2  0  0  0  0
  8  5  1  0  0  0  0
  9 10  2  0  0  0  0
  9 11  1  0  0  0  0
 11 12  1  0  0  0  0
 11  1  1  0  0  0  0
 13  9  1  0  0  0  0
 14 13  1  0  0  0  0
 15 16  1  0  0  0  0
 15 14  1  0  0  0  0
 16 14  1  0  0  0  0
 17 19  1  0  0  0  0
 17 18  1  0  0  0  0
M  END
>  <minimizedAffinity>
-4.55768776

>  <minimizedRMSD>
0.60086596

$$$$
