
 OpenBabel03252503203D

 33 36  0  0  0  0  0  0  0  0999 V2000
   37.0820   27.5410   42.6880 C   0  0  0  0  0  0  0  0  0  0  0  0
   36.2470   27.0950   43.5210 O   0  0  0  0  0  0  0  0  0  0  0  0
   36.7950   28.5880   41.6460 C   0  0  0  0  0  0  0  0  0  0  0  0
   36.4210   28.3820   40.3530 C   0  0  0  0  0  0  0  0  0  0  0  0
   36.2820   29.6130   39.8150 N   0  0  0  0  0  0  0  0  0  0  0  0
   36.5590   30.5280   40.7370 C   0  0  0  0  0  0  0  0  0  0  0  0
   36.8800   29.8990   41.8780 N   0  0  0  0  0  0  0  0  0  0  0  0
   36.5570   31.9440   40.6680 N   0  0  0  0  0  0  0  0  0  0  0  0
   36.2670   27.4450   39.8560 H   0  0  0  0  0  0  0  0  0  0  0  0
   35.7400   32.4290   40.1930 H   0  0  0  0  0  0  0  0  0  0  0  0
   37.3420   32.5290   41.0740 H   0  0  0  0  0  0  0  0  0  0  0  0
   35.8940   29.9580   38.4530 C   0  0  0  0  0  0  0  0  0  0  0  0
   35.2230   30.8340   38.4490 H   0  0  0  0  0  0  0  0  0  0  0  0
   36.7920   30.1820   37.8320 H   0  0  0  0  0  0  0  0  0  0  0  0
   35.1150   28.7800   37.9100 C   0  0  0  0  0  3  0  0  0  0  0  0
   34.4510   28.9250   36.5800 C   0  0  0  0  0  2  0  0  0  0  0  0
   33.6540   28.8360   37.8350 C   0  0  0  0  0  2  0  0  0  0  0  0
   39.3670   27.5870   43.5710 C   0  0  0  0  0  0  0  0  0  0  0  0
   38.3770   26.9810   42.7750 C   0  0  0  0  0  0  0  0  0  0  0  0
   38.8150   25.8220   42.1220 C   0  0  0  0  0  0  0  0  0  0  0  0
   40.0420   25.3380   42.2380 N   0  0  0  0  0  0  0  0  0  0  0  0
   40.9540   25.9690   43.0230 C   0  0  0  0  0  0  0  0  0  0  0  0
   40.6060   27.0830   43.6790 N   0  0  0  0  0  0  0  0  0  0  0  0
   39.0840   28.4880   44.1000 H   0  0  0  0  0  0  0  0  0  0  0  0
   41.9620   25.5900   43.1310 H   0  0  0  0  0  0  0  0  0  0  0  0
   37.8740   25.1440   41.2900 C   0  0  0  0  0  0  0  0  0  0  0  0
   36.8000   24.3400   41.4820 C   0  0  0  0  0  0  0  0  0  0  0  0
   36.0830   23.8320   40.5090 C   0  0  0  0  0  0  0  0  0  0  0  0
   36.4820   24.1600   39.2730 C   0  0  0  0  0  0  0  0  0  0  0  0
   37.9320   25.2310   39.5070 S   0  0  0  0  0  0  0  0  0  0  0  0
   36.5940   24.1590   42.5580 H   0  0  0  0  0  0  0  0  0  0  0  0
   35.2200   23.1880   40.6160 H   0  0  0  0  0  0  0  0  0  0  0  0
   36.0020   23.8300   38.2440 H   0  0  0  0  0  0  0  0  0  0  0  0
  1 19  1  0  0  0  0
  1  2  2  0  0  0  0
  3  7  1  0  0  0  0
  3  1  1  0  0  0  0
  4  3  2  0  0  0  0
  5  4  1  0  0  0  0
  5  6  1  0  0  0  0
  6  7  2  0  0  0  0
  8  6  1  0  0  0  0
  8 11  1  0  0  0  0
  9  4  1  0  0  0  0
 10  8  1  0  0  0  0
 12  5  1  0  0  0  0
 13 12  1  0  0  0  0
 14 12  1  0  0  0  0
 15 12  1  0  0  0  0
 16 17  1  0  0  0  0
 16 15  1  0  0  0  0
 17 15  1  0  0  0  0
 18 23  1  0  0  0  0
 18 24  1  0  0  0  0
 19 18  2  0  0  0  0
 20 21  2  0  0  0  0
 20 19  1  0  0  0  0
 21 22  1  0  0  0  0
 22 25  1  0  0  0  0
 22 23  2  0  0  0  0
 26 27  2  0  0  0  0
 26 20  1  0  0  0  0
 27 31  1  0  0  0  0
 28 32  1  0  0  0  0
 28 27  1  0  0  0  0
 29 30  1  0  0  0  0
 29 28  2  0  0  0  0
 30 26  1  0  0  0  0
 33 29  1  0  0  0  0
M  END
>  <minimizedAffinity>
-5.51032448

$$$$

 OpenBabel03252503203D

 33 36  0  0  0  0  0  0  0  0999 V2000
   35.4430   29.0820   39.5720 C   0  0  0  0  0  0  0  0  0  0  0  0
   34.3160   29.1420   40.1350 O   0  0  0  0  0  0  0  0  0  0  0  0
   36.2960   30.2670   39.2070 C   0  0  0  0  0  0  0  0  0  0  0  0
   36.6530   31.3040   40.0150 C   0  0  0  0  0  0  0  0  0  0  0  0
   37.4130   32.1150   39.2470 N   0  0  0  0  0  0  0  0  0  0  0  0
   37.5150   31.5980   38.0290 C   0  0  0  0  0  0  0  0  0  0  0  0
   36.8230   30.4500   37.9950 N   0  0  0  0  0  0  0  0  0  0  0  0
   38.1970   32.0650   36.8770 N   0  0  0  0  0  0  0  0  0  0  0  0
   36.3910   31.4550   41.0420 H   0  0  0  0  0  0  0  0  0  0  0  0
   39.1890   32.4300   36.9860 H   0  0  0  0  0  0  0  0  0  0  0  0
   37.7490   32.0610   35.9170 H   0  0  0  0  0  0  0  0  0  0  0  0
   38.0510   33.3700   39.6280 C   0  0  0  0  0  0  0  0  0  0  0  0
   38.5470   33.8340   38.7590 H   0  0  0  0  0  0  0  0  0  0  0  0
   37.3020   34.0820   40.0450 H   0  0  0  0  0  0  0  0  0  0  0  0
   39.1230   33.0250   40.6390 C   0  0  0  0  0  3  0  0  0  0  0  0
   40.4570   33.6830   40.5050 C   0  0  0  0  0  2  0  0  0  0  0  0
   40.2840   32.2290   40.2370 C   0  0  0  0  0  2  0  0  0  0  0  0
   35.5400   27.1480   38.0710 C   0  0  0  0  0  0  0  0  0  0  0  0
   35.9000   27.7780   39.2770 C   0  0  0  0  0  0  0  0  0  0  0  0
   36.7210   26.9930   40.0960 C   0  0  0  0  0  0  0  0  0  0  0  0
   37.1230   25.7720   39.7720 N   0  0  0  0  0  0  0  0  0  0  0  0
   36.7410   25.2180   38.5930 C   0  0  0  0  0  0  0  0  0  0  0  0
   35.9560   25.9110   37.7580 N   0  0  0  0  0  0  0  0  0  0  0  0
   34.9050   27.7090   37.3980 H   0  0  0  0  0  0  0  0  0  0  0  0
   37.0580   24.2220   38.3100 H   0  0  0  0  0  0  0  0  0  0  0  0
   37.1330   27.5540   41.3430 C   0  0  0  0  0  0  0  0  0  0  0  0
   36.6320   27.6120   42.6010 C   0  0  0  0  0  0  0  0  0  0  0  0
   37.2330   28.2100   43.6010 C   0  0  0  0  0  0  0  0  0  0  0  0
   38.4080   28.7820   43.3020 C   0  0  0  0  0  0  0  0  0  0  0  0
   38.6640   28.4530   41.5320 S   0  0  0  0  0  0  0  0  0  0  0  0
   35.6550   27.0940   42.6920 H   0  0  0  0  0  0  0  0  0  0  0  0
   36.8720   28.2820   44.6180 H   0  0  0  0  0  0  0  0  0  0  0  0
   39.1320   29.3750   44.0250 H   0  0  0  0  0  0  0  0  0  0  0  0
  1  2  2  0  0  0  0
  3  1  1  0  0  0  0
  3  4  2  0  0  0  0
  4  9  1  0  0  0  0
  5 12  1  0  0  0  0
  5  4  1  0  0  0  0
  6  5  1  0  0  0  0
  7  6  2  0  0  0  0
  7  3  1  0  0  0  0
  8 10  1  0  0  0  0
  8  6  1  0  0  0  0
 11  8  1  0  0  0  0
 12 14  1  0  0  0  0
 12 15  1  0  0  0  0
 13 12  1  0  0  0  0
 16 15  1  0  0  0  0
 17 16  1  0  0  0  0
 17 15  1  0  0  0  0
 18 19  1  0  0  0  0
 19  1  1  0  0  0  0
 19 20  2  0  0  0  0
 20 26  1  0  0  0  0
 21 20  1  0  0  0  0
 22 21  2  0  0  0  0
 23 18  2  0  0  0  0
 23 22  1  0  0  0  0
 24 18  1  0  0  0  0
 25 22  1  0  0  0  0
 26 30  1  0  0  0  0
 26 27  2  0  0  0  0
 27 31  1  0  0  0  0
 27 28  1  0  0  0  0
 28 32  1  0  0  0  0
 29 28  2  0  0  0  0
 29 33  1  0  0  0  0
 30 29  1  0  0  0  0
M  END
>  <minimizedAffinity>
-5.2755723

$$$$

 OpenBabel03252503203D

 33 36  0  0  0  0  0  0  0  0999 V2000
   38.1070   32.6890   39.8830 C   0  0  0  0  0  0  0  0  0  0  0  0
   37.3360   33.6790   39.7600 O   0  0  0  0  0  0  0  0  0  0  0  0
   37.8320   31.4750   40.7290 C   0  0  0  0  0  0  0  0  0  0  0  0
   38.6060   30.9810   41.7360 C   0  0  0  0  0  0  0  0  0  0  0  0
   37.9540   29.8890   42.1900 N   0  0  0  0  0  0  0  0  0  0  0  0
   36.8350   29.7240   41.4940 C   0  0  0  0  0  0  0  0  0  0  0  0
   36.7530   30.7050   40.5830 N   0  0  0  0  0  0  0  0  0  0  0  0
   35.8220   28.7370   41.5870 N   0  0  0  0  0  0  0  0  0  0  0  0
   39.5370   31.3680   42.0980 H   0  0  0  0  0  0  0  0  0  0  0  0
   35.4590   28.4690   42.5500 H   0  0  0  0  0  0  0  0  0  0  0  0
   35.4180   28.2620   40.7310 H   0  0  0  0  0  0  0  0  0  0  0  0
   38.3530   28.9900   43.2670 C   0  0  0  0  0  0  0  0  0  0  0  0
   38.8760   29.5450   44.0640 H   0  0  0  0  0  0  0  0  0  0  0  0
   37.4650   28.4770   43.7010 H   0  0  0  0  0  0  0  0  0  0  0  0
   39.3360   28.0060   42.6710 C   0  0  0  0  0  3  0  0  0  0  0  0
   39.9460   26.9840   43.5730 C   0  0  0  0  0  2  0  0  0  0  0  0
   40.7590   28.0950   43.0050 C   0  0  0  0  0  2  0  0  0  0  0  0
   40.3090   33.6980   39.5160 C   0  0  0  0  0  0  0  0  0  0  0  0
   39.3140   32.7720   39.1530 C   0  0  0  0  0  0  0  0  0  0  0  0
   39.6550   31.9890   38.0430 C   0  0  0  0  0  0  0  0  0  0  0  0
   40.8030   32.1060   37.3920 N   0  0  0  0  0  0  0  0  0  0  0  0
   41.7250   33.0210   37.7930 C   0  0  0  0  0  0  0  0  0  0  0  0
   41.4670   33.8040   38.8470 N   0  0  0  0  0  0  0  0  0  0  0  0
   40.0980   34.3300   40.3690 H   0  0  0  0  0  0  0  0  0  0  0  0
   42.6690   33.1320   37.2740 H   0  0  0  0  0  0  0  0  0  0  0  0
   38.7010   31.0230   37.6030 C   0  0  0  0  0  0  0  0  0  0  0  0
   37.5030   31.0510   36.9680 C   0  0  0  0  0  0  0  0  0  0  0  0
   36.8080   29.9800   36.6710 C   0  0  0  0  0  0  0  0  0  0  0  0
   37.3620   28.8180   37.0410 C   0  0  0  0  0  0  0  0  0  0  0  0
   38.9310   29.2680   37.8410 S   0  0  0  0  0  0  0  0  0  0  0  0
   37.1760   32.0840   36.7260 H   0  0  0  0  0  0  0  0  0  0  0  0
   35.8510   29.9550   36.1660 H   0  0  0  0  0  0  0  0  0  0  0  0
   36.9320   27.7270   36.8850 H   0  0  0  0  0  0  0  0  0  0  0  0
  1  3  1  0  0  0  0
  2  1  2  0  0  0  0
  3  4  2  0  0  0  0
  4  9  1  0  0  0  0
  4  5  1  0  0  0  0
  5 12  1  0  0  0  0
  6  8  1  0  0  0  0
  6  5  1  0  0  0  0
  7  3  1  0  0  0  0
  7  6  2  0  0  0  0
  8 10  1  0  0  0  0
 11  8  1  0  0  0  0
 12 14  1  0  0  0  0
 12 13  1  0  0  0  0
 15 17  1  0  0  0  0
 15 12  1  0  0  0  0
 15 16  1  0  0  0  0
 17 16  1  0  0  0  0
 18 24  1  0  0  0  0
 19 18  1  0  0  0  0
 19  1  1  0  0  0  0
 20 19  2  0  0  0  0
 21 22  2  0  0  0  0
 21 20  1  0  0  0  0
 22 23  1  0  0  0  0
 23 18  2  0  0  0  0
 25 22  1  0  0  0  0
 26 30  1  0  0  0  0
 26 20  1  0  0  0  0
 27 26  2  0  0  0  0
 28 27  1  0  0  0  0
 28 29  2  0  0  0  0
 29 30  1  0  0  0  0
 31 27  1  0  0  0  0
 32 28  1  0  0  0  0
 33 29  1  0  0  0  0
M  END
>  <minimizedAffinity>
-5.25830078

$$$$

 OpenBabel03252503203D

 33 36  0  0  0  0  0  0  0  0999 V2000
   39.3250   30.0340   40.0030 C   0  0  0  0  0  0  0  0  0  0  0  0
   40.2300   29.7830   39.1620 O   0  0  0  0  0  0  0  0  0  0  0  0
   38.7600   29.0500   40.9910 C   0  0  0  0  0  0  0  0  0  0  0  0
   39.0640   27.7260   41.1000 C   0  0  0  0  0  0  0  0  0  0  0  0
   38.3110   27.2650   42.1220 N   0  0  0  0  0  0  0  0  0  0  0  0
   37.5820   28.2600   42.6140 C   0  0  0  0  0  0  0  0  0  0  0  0
   37.8550   29.3720   41.9170 N   0  0  0  0  0  0  0  0  0  0  0  0
   36.6460   28.2850   43.6780 N   0  0  0  0  0  0  0  0  0  0  0  0
   39.7520   27.1600   40.5050 H   0  0  0  0  0  0  0  0  0  0  0  0
   36.8970   27.7970   44.5880 H   0  0  0  0  0  0  0  0  0  0  0  0
   35.7100   28.7730   43.5930 H   0  0  0  0  0  0  0  0  0  0  0  0
   38.2560   25.9080   42.6530 C   0  0  0  0  0  0  0  0  0  0  0  0
   39.1680   25.3480   42.3860 H   0  0  0  0  0  0  0  0  0  0  0  0
   38.1460   25.9230   43.7610 H   0  0  0  0  0  0  0  0  0  0  0  0
   37.0840   25.2240   41.9810 C   0  0  0  0  0  3  0  0  0  0  0  0
   37.3140   23.8920   41.3460 C   0  0  0  0  0  2  0  0  0  0  0  0
   37.0420   25.1030   40.5230 C   0  0  0  0  0  2  0  0  0  0  0  0
   39.4930   32.3830   40.6800 C   0  0  0  0  0  0  0  0  0  0  0  0
   38.8310   31.3580   39.9780 C   0  0  0  0  0  0  0  0  0  0  0  0
   37.6900   31.7940   39.2940 C   0  0  0  0  0  0  0  0  0  0  0  0
   37.2680   33.0500   39.3020 N   0  0  0  0  0  0  0  0  0  0  0  0
   37.9520   33.9950   39.9990 C   0  0  0  0  0  0  0  0  0  0  0  0
   39.0540   33.6510   40.6770 N   0  0  0  0  0  0  0  0  0  0  0  0
   40.3830   32.1020   41.2270 H   0  0  0  0  0  0  0  0  0  0  0  0
   37.6240   35.0260   40.0190 H   0  0  0  0  0  0  0  0  0  0  0  0
   36.9540   30.8180   38.5570 C   0  0  0  0  0  0  0  0  0  0  0  0
   35.9370   29.9590   38.8160 C   0  0  0  0  0  0  0  0  0  0  0  0
   35.4270   29.1400   37.9290 C   0  0  0  0  0  0  0  0  0  0  0  0
   35.9840   29.1980   36.7110 C   0  0  0  0  0  0  0  0  0  0  0  0
   37.2800   30.4660   36.8370 S   0  0  0  0  0  0  0  0  0  0  0  0
   35.5830   30.0270   39.8660 H   0  0  0  0  0  0  0  0  0  0  0  0
   34.6190   28.4400   38.0910 H   0  0  0  0  0  0  0  0  0  0  0  0
   35.7000   28.5640   35.7530 H   0  0  0  0  0  0  0  0  0  0  0  0
  1  3  1  0  0  0  0
  2  1  2  0  0  0  0
  3  4  2  0  0  0  0
  3  7  1  0  0  0  0
  4  5  1  0  0  0  0
  5  6  1  0  0  0  0
  5 12  1  0  0  0  0
  6  8  1  0  0  0  0
  7  6  2  0  0  0  0
  8 10  1  0  0  0  0
  9  4  1  0  0  0  0
 11  8  1  0  0  0  0
 12 14  1  0  0  0  0
 13 12  1  0  0  0  0
 15 12  1  0  0  0  0
 16 15  1  0  0  0  0
 17 16  1  0  0  0  0
 17 15  1  0  0  0  0
 18 24  1  0  0  0  0
 19  1  1  0  0  0  0
 19 18  2  0  0  0  0
 20 21  2  0  0  0  0
 20 19  1  0  0  0  0
 21 22  1  0  0  0  0
 22 25  1  0  0  0  0
 22 23  2  0  0  0  0
 23 18  1  0  0  0  0
 26 27  2  0  0  0  0
 26 20  1  0  0  0  0
 27 31  1  0  0  0  0
 28 32  1  0  0  0  0
 28 27  1  0  0  0  0
 29 30  1  0  0  0  0
 29 28  2  0  0  0  0
 30 26  1  0  0  0  0
 33 29  1  0  0  0  0
M  END
>  <minimizedAffinity>
-5.22199678

$$$$

 OpenBabel03252503203D

 33 36  0  0  0  0  0  0  0  0999 V2000
   37.5310   30.8100   40.6110 C   0  0  0  0  0  0  0  0  0  0  0  0
   36.7330   31.7570   40.8440 O   0  0  0  0  0  0  0  0  0  0  0  0
   38.5370   30.7760   39.4920 C   0  0  0  0  0  0  0  0  0  0  0  0
   39.3490   29.7380   39.1450 C   0  0  0  0  0  0  0  0  0  0  0  0
   40.0680   30.1790   38.0900 N   0  0  0  0  0  0  0  0  0  0  0  0
   39.7120   31.4260   37.8060 C   0  0  0  0  0  0  0  0  0  0  0  0
   38.7620   31.8050   38.6730 N   0  0  0  0  0  0  0  0  0  0  0  0
   40.1690   32.3150   36.8010 N   0  0  0  0  0  0  0  0  0  0  0  0
   39.4120   28.7730   39.6050 H   0  0  0  0  0  0  0  0  0  0  0  0
   40.2870   31.9460   35.8110 H   0  0  0  0  0  0  0  0  0  0  0  0
   40.3960   33.3290   37.0060 H   0  0  0  0  0  0  0  0  0  0  0  0
   41.0860   29.4570   37.3350 C   0  0  0  0  0  0  0  0  0  0  0  0
   40.9580   29.6230   36.2520 H   0  0  0  0  0  0  0  0  0  0  0  0
   42.1070   29.7850   37.6380 H   0  0  0  0  0  0  0  0  0  0  0  0
   40.8650   27.9840   37.6040 C   0  0  0  0  0  3  0  0  0  0  0  0
   41.5280   26.9950   36.7020 C   0  0  0  0  0  2  0  0  0  0  0  0
   40.0500   27.1840   36.6890 C   0  0  0  0  0  2  0  0  0  0  0  0
   38.2230   29.6640   42.6630 C   0  0  0  0  0  0  0  0  0  0  0  0
   37.4380   29.7120   41.4960 C   0  0  0  0  0  0  0  0  0  0  0  0
   36.6010   28.6000   41.3370 C   0  0  0  0  0  0  0  0  0  0  0  0
   36.5500   27.5950   42.1990 N   0  0  0  0  0  0  0  0  0  0  0  0
   37.3350   27.6080   43.3090 C   0  0  0  0  0  0  0  0  0  0  0  0
   38.1590   28.6390   43.5270 N   0  0  0  0  0  0  0  0  0  0  0  0
   38.8890   30.4990   42.8370 H   0  0  0  0  0  0  0  0  0  0  0  0
   37.3080   26.7960   44.0250 H   0  0  0  0  0  0  0  0  0  0  0  0
   35.7700   28.5650   40.1770 C   0  0  0  0  0  0  0  0  0  0  0  0
   34.5930   29.1220   39.8000 C   0  0  0  0  0  0  0  0  0  0  0  0
   34.0280   28.9190   38.6350 C   0  0  0  0  0  0  0  0  0  0  0  0
   34.6980   28.1040   37.8090 C   0  0  0  0  0  0  0  0  0  0  0  0
   36.1870   27.6100   38.7270 S   0  0  0  0  0  0  0  0  0  0  0  0
   34.1600   29.7710   40.5890 H   0  0  0  0  0  0  0  0  0  0  0  0
   33.0930   29.3410   38.2930 H   0  0  0  0  0  0  0  0  0  0  0  0
   34.3950   27.7710   36.7150 H   0  0  0  0  0  0  0  0  0  0  0  0
  1  2  2  0  0  0  0
  1 19  1  0  0  0  0
  3  1  1  0  0  0  0
  4  3  2  0  0  0  0
  4  9  1  0  0  0  0
  5  4  1  0  0  0  0
  6  5  1  0  0  0  0
  6  7  2  0  0  0  0
  7  3  1  0  0  0  0
  8 11  1  0  0  0  0
  8  6  1  0  0  0  0
 10  8  1  0  0  0  0
 12 15  1  0  0  0  0
 12 14  1  0  0  0  0
 12  5  1  0  0  0  0
 13 12  1  0  0  0  0
 16 15  1  0  0  0  0
 17 16  1  0  0  0  0
 17 15  1  0  0  0  0
 18 24  1  0  0  0  0
 18 23  1  0  0  0  0
 19 18  2  0  0  0  0
 20 19  1  0  0  0  0
 20 21  2  0  0  0  0
 21 22  1  0  0  0  0
 22 23  2  0  0  0  0
 22 25  1  0  0  0  0
 26 20  1  0  0  0  0
 27 26  2  0  0  0  0
 27 31  1  0  0  0  0
 28 27  1  0  0  0  0
 29 28  2  0  0  0  0
 29 30  1  0  0  0  0
 30 26  1  0  0  0  0
 32 28  1  0  0  0  0
 33 29  1  0  0  0  0
M  END
>  <minimizedAffinity>
-5.18555689

$$$$

 OpenBabel03252503203D

 33 36  0  0  0  0  0  0  0  0999 V2000
   38.2080   27.1400   39.2890 C   0  0  0  0  0  0  0  0  0  0  0  0
   39.1440   26.9120   38.4750 O   0  0  0  0  0  0  0  0  0  0  0  0
   37.8940   28.4800   39.8970 C   0  0  0  0  0  0  0  0  0  0  0  0
   38.7700   29.4910   40.1600 C   0  0  0  0  0  0  0  0  0  0  0  0
   38.0270   30.4810   40.7000 N   0  0  0  0  0  0  0  0  0  0  0  0
   36.7590   30.0940   40.7640 C   0  0  0  0  0  0  0  0  0  0  0  0
   36.6670   28.8520   40.2680 N   0  0  0  0  0  0  0  0  0  0  0  0
   35.6070   30.7670   41.2460 N   0  0  0  0  0  0  0  0  0  0  0  0
   39.8250   29.5070   39.9810 H   0  0  0  0  0  0  0  0  0  0  0  0
   35.4570   31.7810   40.9680 H   0  0  0  0  0  0  0  0  0  0  0  0
   34.8960   30.2900   41.8700 H   0  0  0  0  0  0  0  0  0  0  0  0
   38.4770   31.7900   41.1610 C   0  0  0  0  0  0  0  0  0  0  0  0
   37.7480   32.2260   41.8650 H   0  0  0  0  0  0  0  0  0  0  0  0
   39.4680   31.7110   41.6630 H   0  0  0  0  0  0  0  0  0  0  0  0
   38.5330   32.6850   39.9430 C   0  0  0  0  0  3  0  0  0  0  0  0
   38.6410   34.1600   40.1550 C   0  0  0  0  0  2  0  0  0  0  0  0
   37.3970   33.5470   39.6110 C   0  0  0  0  0  2  0  0  0  0  0  0
   36.4810   25.4990   38.7190 C   0  0  0  0  0  0  0  0  0  0  0  0
   37.4200   26.0180   39.6300 C   0  0  0  0  0  0  0  0  0  0  0  0
   37.4690   25.3200   40.8430 C   0  0  0  0  0  0  0  0  0  0  0  0
   36.7060   24.2710   41.1130 N   0  0  0  0  0  0  0  0  0  0  0  0
   35.8180   23.8170   40.1910 C   0  0  0  0  0  0  0  0  0  0  0  0
   35.7170   24.4350   39.0080 N   0  0  0  0  0  0  0  0  0  0  0  0
   36.4000   26.0000   37.7630 H   0  0  0  0  0  0  0  0  0  0  0  0
   35.1860   22.9620   40.3930 H   0  0  0  0  0  0  0  0  0  0  0  0
   38.3930   25.7820   41.8280 C   0  0  0  0  0  0  0  0  0  0  0  0
   38.3460   26.6070   42.9020 C   0  0  0  0  0  0  0  0  0  0  0  0
   39.3760   26.8700   43.6690 C   0  0  0  0  0  0  0  0  0  0  0  0
   40.5170   26.2590   43.3230 C   0  0  0  0  0  0  0  0  0  0  0  0
   40.1050   25.2740   41.8510 S   0  0  0  0  0  0  0  0  0  0  0  0
   37.3350   27.0370   43.0610 H   0  0  0  0  0  0  0  0  0  0  0  0
   39.3850   27.5200   44.5330 H   0  0  0  0  0  0  0  0  0  0  0  0
   41.5720   26.3350   43.8530 H   0  0  0  0  0  0  0  0  0  0  0  0
  1 19  1  0  0  0  0
  1  3  1  0  0  0  0
  2  1  2  0  0  0  0
  3  4  2  0  0  0  0
  3  7  1  0  0  0  0
  4  5  1  0  0  0  0
  5  6  1  0  0  0  0
  5 12  1  0  0  0  0
  6  8  1  0  0  0  0
  7  6  2  0  0  0  0
  8 11  1  0  0  0  0
  9  4  1  0  0  0  0
 10  8  1  0  0  0  0
 12 14  1  0  0  0  0
 12 13  1  0  0  0  0
 15 16  1  0  0  0  0
 15 12  1  0  0  0  0
 17 15  1  0  0  0  0
 17 16  1  0  0  0  0
 18 23  2  0  0  0  0
 18 19  1  0  0  0  0
 19 20  2  0  0  0  0
 20 21  1  0  0  0  0
 20 26  1  0  0  0  0
 22 25  1  0  0  0  0
 22 21  2  0  0  0  0
 23 22  1  0  0  0  0
 24 18  1  0  0  0  0
 26 30  1  0  0  0  0
 26 27  2  0  0  0  0
 27 31  1  0  0  0  0
 27 28  1  0  0  0  0
 28 32  1  0  0  0  0
 29 28  2  0  0  0  0
 29 33  1  0  0  0  0
 30 29  1  0  0  0  0
M  END
>  <minimizedAffinity>
-5.15893698

$$$$

 OpenBabel03252503203D

 33 36  0  0  0  0  0  0  0  0999 V2000
   37.2670   30.8310   40.8430 C   0  0  0  0  0  0  0  0  0  0  0  0
   36.1880   31.4250   41.1140 O   0  0  0  0  0  0  0  0  0  0  0  0
   38.3930   31.4050   40.0250 C   0  0  0  0  0  0  0  0  0  0  0  0
   39.5720   31.9070   40.4860 C   0  0  0  0  0  0  0  0  0  0  0  0
   40.2520   32.3010   39.3880 N   0  0  0  0  0  0  0  0  0  0  0  0
   39.5220   32.0510   38.3070 C   0  0  0  0  0  0  0  0  0  0  0  0
   38.3640   31.4960   38.6940 N   0  0  0  0  0  0  0  0  0  0  0  0
   39.7900   32.2800   36.9340 N   0  0  0  0  0  0  0  0  0  0  0  0
   39.9020   31.9790   41.5030 H   0  0  0  0  0  0  0  0  0  0  0  0
   40.7470   32.0170   36.5520 H   0  0  0  0  0  0  0  0  0  0  0  0
   39.0700   32.7010   36.2820 H   0  0  0  0  0  0  0  0  0  0  0  0
   41.5760   32.9080   39.3230 C   0  0  0  0  0  0  0  0  0  0  0  0
   42.2590   32.2890   38.7160 H   0  0  0  0  0  0  0  0  0  0  0  0
   41.5200   33.9300   38.8820 H   0  0  0  0  0  0  0  0  0  0  0  0
   42.1140   32.9340   40.7370 C   0  0  0  0  0  3  0  0  0  0  0  0
   42.8300   34.1610   41.1980 C   0  0  0  0  0  2  0  0  0  0  0  0
   43.5570   32.8810   40.9760 C   0  0  0  0  0  2  0  0  0  0  0  0
   38.0420   29.2980   42.5900 C   0  0  0  0  0  0  0  0  0  0  0  0
   37.3830   29.5240   41.3670 C   0  0  0  0  0  0  0  0  0  0  0  0
   36.8860   28.3560   40.7750 C   0  0  0  0  0  0  0  0  0  0  0  0
   37.0210   27.1520   41.3090 N   0  0  0  0  0  0  0  0  0  0  0  0
   37.6680   26.9990   42.4940 C   0  0  0  0  0  0  0  0  0  0  0  0
   38.1690   28.0720   43.1180 N   0  0  0  0  0  0  0  0  0  0  0  0
   38.4460   30.1670   43.0930 H   0  0  0  0  0  0  0  0  0  0  0  0
   37.7900   26.0230   42.9470 H   0  0  0  0  0  0  0  0  0  0  0  0
   36.2050   28.4920   39.5280 C   0  0  0  0  0  0  0  0  0  0  0  0
   34.9600   28.8520   39.1280 C   0  0  0  0  0  0  0  0  0  0  0  0
   34.5790   28.8960   37.8740 C   0  0  0  0  0  0  0  0  0  0  0  0
   35.5160   28.5550   36.9790 C   0  0  0  0  0  0  0  0  0  0  0  0
   36.9930   28.1570   37.9610 S   0  0  0  0  0  0  0  0  0  0  0  0
   34.2980   29.1060   39.9810 H   0  0  0  0  0  0  0  0  0  0  0  0
   33.6000   29.1760   37.5100 H   0  0  0  0  0  0  0  0  0  0  0  0
   35.4150   28.5170   35.8010 H   0  0  0  0  0  0  0  0  0  0  0  0
  1  2  2  0  0  0  0
  1 19  1  0  0  0  0
  3  4  2  0  0  0  0
  3  1  1  0  0  0  0
  4  9  1  0  0  0  0
  5  4  1  0  0  0  0
  6  7  2  0  0  0  0
  6  5  1  0  0  0  0
  7  3  1  0  0  0  0
  8  6  1  0  0  0  0
 10  8  1  0  0  0  0
 11  8  1  0  0  0  0
 12  5  1  0  0  0  0
 12 15  1  0  0  0  0
 13 12  1  0  0  0  0
 14 12  1  0  0  0  0
 15 17  1  0  0  0  0
 15 16  1  0  0  0  0
 17 16  1  0  0  0  0
 18 24  1  0  0  0  0
 18 23  1  0  0  0  0
 19 18  2  0  0  0  0
 20 21  2  0  0  0  0
 20 19  1  0  0  0  0
 21 22  1  0  0  0  0
 22 25  1  0  0  0  0
 22 23  2  0  0  0  0
 26 20  1  0  0  0  0
 27 26  2  0  0  0  0
 27 31  1  0  0  0  0
 28 27  1  0  0  0  0
 29 28  2  0  0  0  0
 29 30  1  0  0  0  0
 30 26  1  0  0  0  0
 32 28  1  0  0  0  0
 33 29  1  0  0  0  0
M  END
>  <minimizedAffinity>
-5.04710197

$$$$

 OpenBabel03252503203D

 33 36  0  0  0  0  0  0  0  0999 V2000
   37.0690   27.4400   42.6830 C   0  0  0  0  0  0  0  0  0  0  0  0
   36.2140   27.0300   43.5140 O   0  0  0  0  0  0  0  0  0  0  0  0
   36.8360   28.5150   41.6570 C   0  0  0  0  0  0  0  0  0  0  0  0
   37.2570   29.8100   41.7110 C   0  0  0  0  0  0  0  0  0  0  0  0
   36.8100   30.3830   40.5730 N   0  0  0  0  0  0  0  0  0  0  0  0
   36.1470   29.4820   39.8580 C   0  0  0  0  0  0  0  0  0  0  0  0
   36.1580   28.3180   40.5250 N   0  0  0  0  0  0  0  0  0  0  0  0
   35.4950   29.5900   38.6030 N   0  0  0  0  0  0  0  0  0  0  0  0
   37.8230   30.2830   42.4870 H   0  0  0  0  0  0  0  0  0  0  0  0
   35.9940   30.0940   37.8120 H   0  0  0  0  0  0  0  0  0  0  0  0
   34.5310   29.1850   38.4330 H   0  0  0  0  0  0  0  0  0  0  0  0
   36.9880   31.7630   40.1340 C   0  0  0  0  0  0  0  0  0  0  0  0
   36.7540   31.8630   39.0600 H   0  0  0  0  0  0  0  0  0  0  0  0
   36.3330   32.4490   40.7170 H   0  0  0  0  0  0  0  0  0  0  0  0
   38.4540   32.0920   40.3170 C   0  0  0  0  0  3  0  0  0  0  0  0
   38.8120   33.4350   40.8630 C   0  0  0  0  0  2  0  0  0  0  0  0
   39.1000   33.0760   39.4460 C   0  0  0  0  0  2  0  0  0  0  0  0
   39.3450   27.3270   43.5840 C   0  0  0  0  0  0  0  0  0  0  0  0
   38.3310   26.8090   42.7560 C   0  0  0  0  0  0  0  0  0  0  0  0
   38.7130   25.6550   42.0600 C   0  0  0  0  0  0  0  0  0  0  0  0
   39.9120   25.1020   42.1650 N   0  0  0  0  0  0  0  0  0  0  0  0
   40.8480   25.6510   42.9810 C   0  0  0  0  0  0  0  0  0  0  0  0
   40.5540   26.7540   43.6800 N   0  0  0  0  0  0  0  0  0  0  0  0
   39.1040   28.2200   44.1470 H   0  0  0  0  0  0  0  0  0  0  0  0
   41.8340   25.2140   43.0810 H   0  0  0  0  0  0  0  0  0  0  0  0
   37.7460   25.0630   41.1930 C   0  0  0  0  0  0  0  0  0  0  0  0
   36.6770   24.2410   41.3370 C   0  0  0  0  0  0  0  0  0  0  0  0
   35.9280   23.8330   40.3410 C   0  0  0  0  0  0  0  0  0  0  0  0
   36.2890   24.2850   39.1330 C   0  0  0  0  0  0  0  0  0  0  0  0
   37.7470   25.3300   39.4270 S   0  0  0  0  0  0  0  0  0  0  0  0
   36.5040   23.9530   42.3950 H   0  0  0  0  0  0  0  0  0  0  0  0
   35.0690   23.1800   40.4100 H   0  0  0  0  0  0  0  0  0  0  0  0
   35.7760   24.0590   38.0910 H   0  0  0  0  0  0  0  0  0  0  0  0
  1 19  1  0  0  0  0
  1  2  2  0  0  0  0
  3  4  2  0  0  0  0
  3  1  1  0  0  0  0
  4  9  1  0  0  0  0
  5  4  1  0  0  0  0
  6  7  2  0  0  0  0
  6  5  1  0  0  0  0
  7  3  1  0  0  0  0
  8  6  1  0  0  0  0
 10  8  1  0  0  0  0
 11  8  1  0  0  0  0
 12 15  1  0  0  0  0
 12  5  1  0  0  0  0
 12 14  1  0  0  0  0
 13 12  1  0  0  0  0
 15 16  1  0  0  0  0
 17 15  1  0  0  0  0
 17 16  1  0  0  0  0
 18 23  1  0  0  0  0
 18 24  1  0  0  0  0
 19 18  2  0  0  0  0
 20 21  2  0  0  0  0
 20 19  1  0  0  0  0
 21 22  1  0  0  0  0
 22 25  1  0  0  0  0
 22 23  2  0  0  0  0
 26 27  2  0  0  0  0
 26 20  1  0  0  0  0
 27 31  1  0  0  0  0
 28 32  1  0  0  0  0
 28 27  1  0  0  0  0
 29 30  1  0  0  0  0
 29 28  2  0  0  0  0
 30 26  1  0  0  0  0
 33 29  1  0  0  0  0
M  END
>  <minimizedAffinity>
-5.04156494

$$$$

 OpenBabel03252503203D

 33 36  0  0  0  0  0  0  0  0999 V2000
   38.4860   27.0950   42.5190 C   0  0  0  0  0  0  0  0  0  0  0  0
   39.0420   27.0520   43.6500 O   0  0  0  0  0  0  0  0  0  0  0  0
   38.0420   28.3500   41.8170 C   0  0  0  0  0  0  0  0  0  0  0  0
   38.7200   29.0400   40.8570 C   0  0  0  0  0  0  0  0  0  0  0  0
   37.9280   30.0850   40.5370 N   0  0  0  0  0  0  0  0  0  0  0  0
   36.8190   30.0360   41.2660 C   0  0  0  0  0  0  0  0  0  0  0  0
   36.8830   28.9610   42.0650 N   0  0  0  0  0  0  0  0  0  0  0  0
   35.6920   30.8960   41.3000 N   0  0  0  0  0  0  0  0  0  0  0  0
   39.6790   28.8100   40.4390 H   0  0  0  0  0  0  0  0  0  0  0  0
   35.2710   31.2190   40.3790 H   0  0  0  0  0  0  0  0  0  0  0  0
   35.2610   31.2240   42.2090 H   0  0  0  0  0  0  0  0  0  0  0  0
   38.1830   31.1360   39.5580 C   0  0  0  0  0  0  0  0  0  0  0  0
   38.9440   30.8120   38.8290 H   0  0  0  0  0  0  0  0  0  0  0  0
   37.2480   31.4060   39.0160 H   0  0  0  0  0  0  0  0  0  0  0  0
   38.7500   32.3140   40.3220 C   0  0  0  0  0  3  0  0  0  0  0  0
   38.1720   33.6670   40.0640 C   0  0  0  0  0  2  0  0  0  0  0  0
   39.5540   33.3210   39.6280 C   0  0  0  0  0  2  0  0  0  0  0  0
   37.0140   25.2320   41.9160 C   0  0  0  0  0  0  0  0  0  0  0  0
   38.2820   25.8410   41.9000 C   0  0  0  0  0  0  0  0  0  0  0  0
   39.2570   25.0890   41.2320 C   0  0  0  0  0  0  0  0  0  0  0  0
   39.0130   23.9160   40.6670 N   0  0  0  0  0  0  0  0  0  0  0  0
   37.7660   23.3800   40.7160 C   0  0  0  0  0  0  0  0  0  0  0  0
   36.7830   24.0430   41.3380 N   0  0  0  0  0  0  0  0  0  0  0  0
   36.2210   25.7700   42.4200 H   0  0  0  0  0  0  0  0  0  0  0  0
   37.5460   22.4220   40.2610 H   0  0  0  0  0  0  0  0  0  0  0  0
   40.5760   25.6310   41.1700 C   0  0  0  0  0  0  0  0  0  0  0  0
   41.2600   26.4440   40.3290 C   0  0  0  0  0  0  0  0  0  0  0  0
   42.5080   26.8010   40.5100 C   0  0  0  0  0  0  0  0  0  0  0  0
   43.0910   26.3020   41.6080 C   0  0  0  0  0  0  0  0  0  0  0  0
   41.8140   25.2880   42.4110 S   0  0  0  0  0  0  0  0  0  0  0  0
   40.6450   26.7760   39.4670 H   0  0  0  0  0  0  0  0  0  0  0  0
   43.0920   27.4450   39.8670 H   0  0  0  0  0  0  0  0  0  0  0  0
   44.1990   26.4770   41.9850 H   0  0  0  0  0  0  0  0  0  0  0  0
  1  2  2  0  0  0  0
  3  7  1  0  0  0  0
  3  1  1  0  0  0  0
  4  3  2  0  0  0  0
  5  4  1  0  0  0  0
  5  6  1  0  0  0  0
  6  8  1  0  0  0  0
  6  7  2  0  0  0  0
  8 11  1  0  0  0  0
  9  4  1  0  0  0  0
 10  8  1  0  0  0  0
 12 15  1  0  0  0  0
 12  5  1  0  0  0  0
 13 12  1  0  0  0  0
 14 12  1  0  0  0  0
 16 15  1  0  0  0  0
 17 16  1  0  0  0  0
 17 15  1  0  0  0  0
 18 24  1  0  0  0  0
 19 18  1  0  0  0  0
 19  1  1  0  0  0  0
 20 19  2  0  0  0  0
 21 22  2  0  0  0  0
 21 20  1  0  0  0  0
 22 23  1  0  0  0  0
 23 18  2  0  0  0  0
 25 22  1  0  0  0  0
 26 20  1  0  0  0  0
 26 30  1  0  0  0  0
 27 28  1  0  0  0  0
 27 26  2  0  0  0  0
 28 29  2  0  0  0  0
 29 33  1  0  0  0  0
 29 30  1  0  0  0  0
 31 27  1  0  0  0  0
 32 28  1  0  0  0  0
M  END
>  <minimizedAffinity>
-5.03159571

$$$$
