
 OpenBabel03252506123D

 30 32  0  0  0  0  0  0  0  0999 V2000
   45.0620   33.3770   41.2540 F   0  0  0  0  0  0  0  0  0  0  0  0
   46.2470   33.9650   41.0900 C   0  0  0  0  0  0  0  0  0  0  0  0
   46.7550   34.7530   42.1070 C   0  0  0  0  0  0  0  0  0  0  0  0
   47.9850   35.4040   42.0190 C   0  0  0  0  0  0  0  0  0  0  0  0
   48.7460   35.2610   40.8580 C   0  0  0  0  0  0  0  0  0  0  0  0
   48.2070   34.4670   39.8650 C   0  0  0  0  0  0  0  0  0  0  0  0
   47.0100   33.8280   39.9370 C   0  0  0  0  0  0  0  0  0  0  0  0
   48.3220   36.0090   42.8630 H   0  0  0  0  0  0  0  0  0  0  0  0
   49.6910   35.7820   40.8350 H   0  0  0  0  0  0  0  0  0  0  0  0
   48.8980   34.4370   39.0330 H   0  0  0  0  0  0  0  0  0  0  0  0
   45.4430   34.1640   45.4800 C   0  0  0  0  0  0  0  0  0  0  0  0
   44.5840   35.2660   45.6600 C   0  0  0  0  0  0  0  0  0  0  0  0
   44.4570   36.2220   44.6040 C   0  0  0  0  0  0  0  0  0  0  0  0
   45.1950   35.9900   43.4760 N   0  0  0  0  0  0  0  0  0  0  0  0
   45.9960   34.9320   43.3480 C   0  0  0  0  0  0  0  0  0  0  0  0
   46.1160   34.0330   44.3400 N   0  0  0  0  0  0  0  0  0  0  0  0
   44.0140   35.4190   46.5640 H   0  0  0  0  0  0  0  0  0  0  0  0
   43.8210   37.0750   44.6870 H   0  0  0  0  0  0  0  0  0  0  0  0
   45.5470   33.2370   46.5390 N   0  0  0  0  0  0  0  0  0  0  0  0
   45.5520   32.1970   46.4920 H   0  0  0  0  0  0  0  0  0  0  0  0
   45.6320   33.6010   47.5160 H   0  0  0  0  0  0  0  0  0  0  0  0
   46.5660   33.0630   38.8900 O   0  0  0  0  0  0  0  0  0  0  0  0
   47.8730   34.4100   37.0170 O   0  0  0  0  0  0  0  0  0  0  0  0
   46.8180   33.3730   37.2580 P   0  0  2  0  0  0  0  0  0  0  0  0
   45.3240   33.8710   36.5730 O   0  0  0  0  0  0  0  0  0  0  0  0
   44.7920   33.0730   36.3940 H   0  0  0  0  0  0  0  0  0  0  0  0
   47.2280   31.9700   36.4000 O   0  0  0  0  0  0  0  0  0  0  0  0
   47.0220   32.1110   35.0540 C   0  0  0  0  0  0  0  0  0  0  0  0
   47.5690   31.0040   34.1230 C   0  0  0  0  0  0  0  0  0  0  0  0
   48.2720   32.3110   34.2380 C   0  0  0  0  0  0  0  0  0  0  0  0
  2  1  1  0  0  0  0
  2  3  1  0  0  0  0
  3 15  1  0  0  0  0
  4  3  2  0  0  0  0
  4  8  1  0  0  0  0
  5  4  1  0  0  0  0
  6  7  1  0  0  0  0
  6  5  2  0  0  0  0
  7  2  2  0  0  0  0
  9  5  1  0  0  0  0
 10  6  1  0  0  0  0
 11 12  1  0  0  0  0
 11 19  1  0  0  0  0
 12 17  1  0  0  0  0
 13 18  1  0  0  0  0
 13 12  2  0  0  0  0
 14 13  1  0  0  0  0
 15 14  2  0  0  0  0
 15 16  1  0  0  0  0
 16 11  2  0  0  0  0
 19 21  1  0  0  0  0
 20 19  1  0  0  0  0
 22  7  1  0  0  0  0
 24 23  2  6  0  0  0
 24 22  1  0  0  0  0
 25 24  1  0  0  0  0
 26 25  1  0  0  0  0
 27 24  1  0  0  0  0
 28 27  1  0  0  0  0
 29 30  1  0  0  0  0
 29 28  1  0  0  0  0
 30 28  1  0  0  0  0
M  END
>  <minimizedAffinity>
-6.10813761

>  <minimizedRMSD>
1.17864573

$$$$
