
 OpenBabel03252508503D

 22 24  0  0  0  0  0  0  0  0999 V2000
   45.8860   34.2180   41.0240 C   0  0  0  0  0  0  0  0  0  0  0  0
   46.4940   34.8050   42.1290 C   0  0  0  0  0  0  0  0  0  0  0  0
   47.8580   35.1230   42.0190 C   0  0  0  0  0  0  0  0  0  0  0  0
   48.4930   34.8390   40.8440 N   0  0  0  0  0  0  0  0  0  0  0  0
   47.8510   34.2700   39.8060 C   0  0  0  0  0  0  0  0  0  0  0  0
   46.5430   33.9510   39.8780 N   0  0  0  0  0  0  0  0  0  0  0  0
   48.3470   35.5810   42.8710 H   0  0  0  0  0  0  0  0  0  0  0  0
   48.4070   34.0640   38.8900 H   0  0  0  0  0  0  0  0  0  0  0  0
   45.7280   35.0660   43.3360 C   0  0  0  0  0  0  0  0  0  0  0  0
   45.0710   36.2580   43.5670 C   0  0  0  0  0  0  0  0  0  0  0  0
   44.4870   36.0750   44.8010 C   0  0  0  0  0  0  0  0  0  0  0  0
   44.7700   34.8490   45.2940 N   0  0  0  0  0  0  0  0  0  0  0  0
   45.5190   34.2610   44.3910 N   0  0  0  0  0  0  0  0  0  0  0  0
   45.0260   37.1330   42.9240 H   0  0  0  0  0  0  0  0  0  0  0  0
   43.8770   36.8430   45.2970 H   0  0  0  0  0  0  0  0  0  0  0  0
   44.4500   34.4490   46.2190 H   0  0  0  0  0  0  0  0  0  0  0  0
   44.5380   33.8990   41.1220 O   0  0  0  0  0  0  0  0  0  0  0  0
   43.5040   34.5830   40.5410 C   0  0  0  0  0  0  0  0  0  0  0  0
   42.7990   35.5210   41.0340 O   0  0  0  0  0  0  0  0  0  0  0  0
   42.8020   34.5480   39.2020 C   0  0  0  0  0  3  0  0  0  0  0  0
   42.3480   33.2190   38.6620 C   0  0  0  0  0  2  0  0  0  0  0  0
   41.3720   34.2550   39.1240 C   0  0  0  0  0  2  0  0  0  0  0  0
  1 17  1  0  0  0  0
  1  2  1  0  0  0  0
  2  9  1  0  0  0  0
  3  2  2  0  0  0  0
  3  7  1  0  0  0  0
  4  3  1  0  0  0  0
  5  6  1  0  0  0  0
  5  4  2  0  0  0  0
  6  1  2  0  0  0  0
  8  5  1  0  0  0  0
  9 10  1  0  0  0  0
  9 13  2  0  0  0  0
 10 11  2  0  0  0  0
 11 12  1  0  0  0  0
 11 15  1  0  0  0  0
 12 16  1  0  0  0  0
 13 12  1  0  0  0  0
 14 10  1  0  0  0  0
 18 19  2  0  0  0  0
 18 17  1  0  0  0  0
 20 18  1  0  0  0  0
 21 22  1  0  0  0  0
 21 20  1  0  0  0  0
 22 20  1  0  0  0  0
M  END
>  <minimizedAffinity>
-4.74916124

>  <minimizedRMSD>
0.583234251

$$$$
