
 OpenBabel03252503343D

 16 17  0  0  0  0  0  0  0  0999 V2000
   44.5570   35.9030   44.3320 C   0  0  0  0  0  0  0  0  0  0  0  0
   45.3940   35.9630   43.1880 C   0  0  0  0  0  0  0  0  0  0  0  0
   46.3980   35.0000   43.0610 C   0  0  0  0  0  0  0  0  0  0  0  0
   46.5300   34.0650   44.0190 N   0  0  0  0  0  0  0  0  0  0  0  0
   45.7270   34.0140   45.1080 C   0  0  0  0  0  0  0  0  0  0  0  0
   44.7490   34.9320   45.2550 N   0  0  0  0  0  0  0  0  0  0  0  0
   43.7500   36.6330   44.4880 H   0  0  0  0  0  0  0  0  0  0  0  0
   45.2370   36.7380   42.4550 H   0  0  0  0  0  0  0  0  0  0  0  0
   45.9520   33.2080   45.7900 H   0  0  0  0  0  0  0  0  0  0  0  0
   46.9710   34.2470   40.7570 C   0  0  0  0  0  0  0  0  0  0  0  0
   45.8660   33.6170   40.8090 O   0  0  0  0  0  0  0  0  0  0  0  0
   47.2590   35.0170   41.9380 N   0  0  0  0  0  0  0  0  0  0  0  0
   48.1470   35.5980   41.9250 H   0  0  0  0  0  0  0  0  0  0  0  0
   47.9490   34.2570   39.6390 C   0  0  0  0  0  3  0  0  0  0  0  0
   48.5010   32.9640   39.1060 C   0  0  0  0  0  2  0  0  0  0  0  0
   47.4140   33.6270   38.3320 C   0  0  0  0  0  2  0  0  0  0  0  0
  1  7  1  0  0  0  0
  1  6  1  0  0  0  0
  2  1  2  0  0  0  0
  3  2  1  0  0  0  0
  3  4  2  0  0  0  0
  4  5  1  0  0  0  0
  5  6  2  0  0  0  0
  5  9  1  0  0  0  0
  8  2  1  0  0  0  0
 10 11  2  0  0  0  0
 10 12  1  0  0  0  0
 12  3  1  0  0  0  0
 13 12  1  0  0  0  0
 14 10  1  0  0  0  0
 15 14  1  0  0  0  0
 16 15  1  0  0  0  0
 16 14  1  0  0  0  0
M  END
>  <minimizedAffinity>
-3.84369087

>  <minimizedRMSD>
0.686559379

$$$$
