REMARK  Name = 
REMARK  2 active torsions:
REMARK  status: ('A' for Active; 'I' for Inactive)
REMARK    1  A    between atoms: C_3  and  N_9
REMARK    2  A    between atoms: C_7  and  C_14
REMARK                            x       y       z     vdW  Elec       q    Type
REMARK                         _______ _______ _______ _____ _____    ______ ____
ROOT
ATOM      1  C   UNL     1      44.530  36.048  44.565  0.00  0.00    +0.000 A 
ATOM      2  C   UNL     1      45.258  36.011  43.348  0.00  0.00    +0.000 A 
ATOM      3  C   UNL     1      46.146  34.950  43.149  0.00  0.00    +0.000 A 
ATOM      4  N   UNL     1      46.273  34.018  44.110  0.00  0.00    +0.000 NA
ATOM      5  C   UNL     1      45.574  34.060  45.269  0.00  0.00    +0.000 A 
ATOM      6  N   UNL     1      44.710  35.073  45.486  0.00  0.00    +0.000 NA
ATOM      7  H   UNL     1      43.817  36.857  44.779  0.00  0.00    +0.000 HD
ATOM      8  H   UNL     1      45.111  36.789  42.617  0.00  0.00    +0.000 HD
ATOM      9  H   UNL     1      45.781  33.243  45.944  0.00  0.00    +0.000 HD
ENDROOT
BRANCH   3  12
ATOM     10  C   UNL     1      46.389  34.184  40.792  0.00  0.00    +0.000 C 
ATOM     11  O   UNL     1      45.209  33.729  40.936  0.00  0.00    +0.000 OA
ATOM     12  N   UNL     1      46.896  34.868  41.952  0.00  0.00    +0.000 N 
ATOM     13  H   UNL     1      47.858  35.307  41.866  0.00  0.00    +0.000 HD
BRANCH  10  14
ATOM     14  C   UNL     1      47.253  34.077  39.589  0.00  0.00    +0.000 C 
ATOM     15  C   UNL     1      46.834  33.213  38.431  0.00  0.00    +0.000 C 
ATOM     16  C   UNL     1      46.628  34.684  38.310  0.00  0.00    +0.000 C 
ENDBRANCH  10  14
ENDBRANCH   3  12
TORSDOF 2
