
 OpenBabel03252509343D

 37 39  0  0  1  0  0  0  0  0999 V2000
   45.6540   33.6320   41.6620 C   0  0  1  0  0  0  0  0  0  0  0  0
   44.7690   34.0660   40.5150 C   0  0  0  0  0  0  0  0  0  0  0  0
   45.0540   32.9880   39.5030 C   0  0  0  0  0  0  0  0  0  0  0  0
   46.4450   32.4700   39.8140 C   0  0  0  0  0  0  0  0  0  0  0  0
   46.9730   33.3730   40.9290 C   0  0  1  0  0  0  0  0  0  0  0  0
   45.2750   32.6910   42.0530 H   0  0  0  0  0  0  0  0  0  0  0  0
   43.6920   33.9040   40.8200 H   0  0  0  0  0  0  0  0  0  0  0  0
   44.9460   35.0830   40.1780 H   0  0  0  0  0  0  0  0  0  0  0  0
   45.0380   33.4450   38.4930 H   0  0  0  0  0  0  0  0  0  0  0  0
   44.3100   32.1640   39.5140 H   0  0  0  0  0  0  0  0  0  0  0  0
   47.0410   32.3950   38.9400 H   0  0  0  0  0  0  0  0  0  0  0  0
   46.3300   31.4660   40.3390 H   0  0  0  0  0  0  0  0  0  0  0  0
   47.5970   32.8200   41.6370 H   0  0  0  0  0  0  0  0  0  0  0  0
   47.6210   34.6280   40.4620 C   0  0  0  0  0  0  0  0  0  0  0  0
   46.9400   35.4860   40.7640 H   0  0  0  0  0  0  0  0  0  0  0  0
   47.6840   34.6730   39.3410 H   0  0  0  0  0  0  0  0  0  0  0  0
   48.9350   34.8770   41.1090 C   0  0  0  0  0  3  0  0  0  0  0  0
   49.3220   36.1000   41.8250 C   0  0  0  0  0  2  0  0  0  0  0  0
   49.2550   34.7280   42.5240 C   0  0  0  0  0  2  0  0  0  0  0  0
   45.7960   34.6230   42.6280 O   0  0  0  0  0  0  0  0  0  0  0  0
   44.7410   35.0100   44.9700 O   0  0  0  0  0  0  0  0  0  0  0  0
   45.4730   33.9880   44.1530 P   0  0  1  0  0  0  0  0  0  0  0  0
   44.6060   32.5490   44.0240 O   0  0  0  0  0  0  0  0  0  0  0  0
   43.7930   32.7500   43.5220 H   0  0  0  0  0  0  0  0  0  0  0  0
   46.9290   33.5740   44.8880 O   0  0  0  0  0  0  0  0  0  0  0  0
   46.9960   32.2340   45.0210 C   0  0  0  0  0  0  0  0  0  0  0  0
   46.4890   31.5990   44.3010 H   0  0  0  0  0  0  0  0  0  0  0  0
   48.0860   31.9510   44.9340 H   0  0  0  0  0  0  0  0  0  0  0  0
   46.7850   31.9020   48.7220 C   0  0  0  0  0  0  0  0  0  0  0  0
   47.1780   32.3500   47.4510 C   0  0  0  0  0  0  0  0  0  0  0  0
   46.5850   31.7680   46.3570 C   0  0  0  0  0  0  0  0  0  0  0  0
   45.6520   30.7940   46.5640 N   0  0  0  0  0  0  0  0  0  0  0  0
   45.2920   30.3810   47.7860 C   0  0  0  0  0  0  0  0  0  0  0  0
   45.8580   30.9350   48.8520 N   0  0  0  0  0  0  0  0  0  0  0  0
   47.2830   32.3930   49.5540 H   0  0  0  0  0  0  0  0  0  0  0  0
   47.9310   33.1340   47.3640 H   0  0  0  0  0  0  0  0  0  0  0  0
   44.5500   29.6050   47.9390 H   0  0  0  0  0  0  0  0  0  0  0  0
  1  6  1  1  0  0  0
  1 20  1  0  0  0  0
  2  7  1  0  0  0  0
  2  1  1  0  0  0  0
  3 10  1  0  0  0  0
  3  4  1  0  0  0  0
  3  2  1  0  0  0  0
  4 12  1  0  0  0  0
  4  5  1  0  0  0  0
  5 13  1  1  0  0  0
  5  1  1  0  0  0  0
  8  2  1  0  0  0  0
  9  3  1  0  0  0  0
 11  4  1  0  0  0  0
 14 15  1  0  0  0  0
 14  5  1  0  0  0  0
 14 17  1  0  0  0  0
 16 14  1  0  0  0  0
 17 18  1  0  0  0  0
 17 19  1  0  0  0  0
 18 19  1  0  0  0  0
 20 22  1  0  0  0  0
 22 25  1  0  0  0  0
 22 21  2  1  0  0  0
 23 22  1  0  0  0  0
 24 23  1  0  0  0  0
 25 26  1  0  0  0  0
 26 31  1  0  0  0  0
 27 26  1  0  0  0  0
 28 26  1  0  0  0  0
 29 34  1  0  0  0  0
 29 35  1  0  0  0  0
 30 29  2  0  0  0  0
 31 32  2  0  0  0  0
 31 30  1  0  0  0  0
 32 33  1  0  0  0  0
 33 37  1  0  0  0  0
 33 34  2  0  0  0  0
 36 30  1  0  0  0  0
M  END
>  <minimizedAffinity>
-4.92559338

>  <minimizedRMSD>
1.48764479

$$$$
