
 OpenBabel03252508433D

 25 27  0  0  0  0  0  0  0  0999 V2000
   47.2450   34.7660   42.0280 C   0  0  0  0  0  0  0  0  0  0  0  0
   47.7520   33.7700   42.8360 C   0  0  0  0  0  0  0  0  0  0  0  0
   49.0990   33.7090   43.0950 C   0  0  0  0  0  0  0  0  0  0  0  0
   49.9250   34.6640   42.5290 C   0  0  0  0  0  0  0  0  0  0  0  0
   49.4650   35.6630   41.7250 C   0  0  0  0  0  0  0  0  0  0  0  0
   48.0820   35.6860   41.4880 C   0  0  0  0  0  0  0  0  0  0  0  0
   49.5200   32.9280   43.7320 H   0  0  0  0  0  0  0  0  0  0  0  0
   50.9790   34.5780   42.7610 H   0  0  0  0  0  0  0  0  0  0  0  0
   50.1360   36.3940   41.2870 H   0  0  0  0  0  0  0  0  0  0  0  0
   47.7090   36.4770   40.8550 H   0  0  0  0  0  0  0  0  0  0  0  0
   43.5120   35.3100   42.2800 C   0  0  0  0  0  0  0  0  0  0  0  0
   44.8790   35.3920   42.6050 C   0  0  0  0  0  0  0  0  0  0  0  0
   45.8060   34.7580   41.8000 C   0  0  0  0  0  0  0  0  0  0  0  0
   45.3060   34.1000   40.7450 N   0  0  0  0  0  0  0  0  0  0  0  0
   44.0060   34.0110   40.4180 C   0  0  0  0  0  0  0  0  0  0  0  0
   43.1030   34.6250   41.1990 N   0  0  0  0  0  0  0  0  0  0  0  0
   42.7750   35.8080   42.9180 H   0  0  0  0  0  0  0  0  0  0  0  0
   45.2290   35.9320   43.4550 H   0  0  0  0  0  0  0  0  0  0  0  0
   43.8200   33.4310   39.5220 H   0  0  0  0  0  0  0  0  0  0  0  0
   46.8310   32.7440   43.4300 C   0  0  0  0  0  0  0  0  0  0  0  0
   47.0020   31.7400   43.0150 H   0  0  0  0  0  0  0  0  0  0  0  0
   45.8040   33.0410   43.1720 H   0  0  0  0  0  0  0  0  0  0  0  0
   46.9690   32.8230   44.9290 C   0  0  0  0  0  3  0  0  0  0  0  0
   45.9530   33.5100   45.7450 C   0  0  0  0  0  2  0  0  0  0  0  0
   46.0700   32.0040   45.7720 C   0  0  0  0  0  2  0  0  0  0  0  0
  1  2  1  0  0  0  0
  2  3  2  0  0  0  0
  2 20  1  0  0  0  0
  3  7  1  0  0  0  0
  4  8  1  0  0  0  0
  4  3  1  0  0  0  0
  5  4  2  0  0  0  0
  6  5  1  0  0  0  0
  6  1  2  0  0  0  0
  9  5  1  0  0  0  0
 10  6  1  0  0  0  0
 11 12  1  0  0  0  0
 11 17  1  0  0  0  0
 12 18  1  0  0  0  0
 13  1  1  0  0  0  0
 13 12  2  0  0  0  0
 14 13  1  0  0  0  0
 15 14  2  0  0  0  0
 15 16  1  0  0  0  0
 16 11  2  0  0  0  0
 19 15  1  0  0  0  0
 20 23  1  0  0  0  0
 21 20  1  0  0  0  0
 22 20  1  0  0  0  0
 23 24  1  0  0  0  0
 23 25  1  0  0  0  0
 24 25  1  0  0  0  0
M  END
>  <minimizedAffinity>
-4.57021284

>  <minimizedRMSD>
4.24160814

$$$$
