
 OpenBabel03252509183D

 35 38  0  0  1  0  0  0  0  0999 V2000
   48.2510   30.2330   47.4040 C   0  0  1  0  0  0  0  0  0  0  0  0
   48.0150   30.9570   48.6850 C   0  0  0  0  0  0  0  0  0  0  0  0
   48.9620   30.6220   49.7890 C   0  0  0  0  0  0  0  0  0  0  0  0
   50.3920   30.4940   49.3330 C   0  0  0  0  0  0  0  0  0  0  0  0
   50.5380   29.7250   48.0400 C   0  0  0  0  0  0  0  0  0  0  0  0
   49.2090   29.0560   47.6930 C   0  0  2  0  0  0  0  0  0  0  0  0
   48.8320   30.8550   46.6850 H   0  0  0  0  0  0  0  0  0  0  0  0
   48.0510   32.0510   48.4940 H   0  0  0  0  0  0  0  0  0  0  0  0
   46.9770   30.7750   49.0920 H   0  0  0  0  0  0  0  0  0  0  0  0
   48.9400   31.4860   50.4980 H   0  0  0  0  0  0  0  0  0  0  0  0
   48.5840   29.7480   50.3480 H   0  0  0  0  0  0  0  0  0  0  0  0
   50.9270   29.8950   50.1210 H   0  0  0  0  0  0  0  0  0  0  0  0
   50.9070   31.4750   49.3080 H   0  0  0  0  0  0  0  0  0  0  0  0
   51.3650   29.0070   48.0560 H   0  0  0  0  0  0  0  0  0  0  0  0
   50.7310   30.4700   47.2230 H   0  0  0  0  0  0  0  0  0  0  0  0
   48.8340   28.4310   48.5060 H   0  0  0  0  0  0  0  0  0  0  0  0
   44.6670   28.6480   46.1940 C   0  0  0  0  0  0  0  0  0  0  0  0
   45.2240   29.5110   45.2380 C   0  0  0  0  0  0  0  0  0  0  0  0
   46.4040   30.0910   45.5200 C   0  0  0  0  0  0  0  0  0  0  0  0
   47.0450   29.8250   46.7470 C   0  0  0  0  0  0  0  0  0  0  0  0
   45.8930   28.6690   47.5610 S   0  0  0  0  0  0  0  0  0  0  0  0
   44.7310   29.7130   44.3000 H   0  0  0  0  0  0  0  0  0  0  0  0
   46.9840   30.7750   44.9200 H   0  0  0  0  0  0  0  0  0  0  0  0
   41.2050   27.5940   45.3300 C   0  0  0  0  0  0  0  0  0  0  0  0
   41.1700   26.3330   45.9790 C   0  0  0  0  0  0  0  0  0  0  0  0
   42.3270   25.9050   46.6790 C   0  0  0  0  0  0  0  0  0  0  0  0
   43.4010   26.7390   46.6800 N   0  0  0  0  0  0  0  0  0  0  0  0
   43.3860   27.9430   46.0400 C   0  0  0  0  0  0  0  0  0  0  0  0
   42.2920   28.3730   45.3650 N   0  0  0  0  0  0  0  0  0  0  0  0
   40.3390   27.9320   44.7970 H   0  0  0  0  0  0  0  0  0  0  0  0
   40.2910   25.7040   45.9510 H   0  0  0  0  0  0  0  0  0  0  0  0
   42.3310   24.9650   47.1760 H   0  0  0  0  0  0  0  0  0  0  0  0
   49.4000   28.3140   46.3880 C   0  0  0  0  0  3  0  0  0  0  0  0
   50.3500   28.9140   45.4180 C   0  0  0  0  0  2  0  0  0  0  0  0
   50.7040   27.6450   46.1760 C   0  0  0  0  0  2  0  0  0  0  0  0
  1  7  1  6  0  0  0
  1  6  1  0  0  0  0
  1  2  1  0  0  0  0
  2  9  1  0  0  0  0
  2  3  1  0  0  0  0
  3 11  1  0  0  0  0
  3 10  1  0  0  0  0
  4  3  1  0  0  0  0
  4 12  1  0  0  0  0
  5 14  1  0  0  0  0
  5  4  1  0  0  0  0
  6  5  1  0  0  0  0
  6 16  1  1  0  0  0
  8  2  1  0  0  0  0
 13  4  1  0  0  0  0
 15  5  1  0  0  0  0
 17 21  1  0  0  0  0
 18 19  1  0  0  0  0
 18 17  2  0  0  0  0
 19 20  2  0  0  0  0
 20  1  1  0  0  0  0
 20 21  1  0  0  0  0
 22 18  1  0  0  0  0
 23 19  1  0  0  0  0
 24 29  2  0  0  0  0
 24 25  1  0  0  0  0
 25 26  2  0  0  0  0
 26 27  1  0  0  0  0
 26 32  1  0  0  0  0
 28 17  1  0  0  0  0
 28 27  2  0  0  0  0
 29 28  1  0  0  0  0
 30 24  1  0  0  0  0
 31 25  1  0  0  0  0
 33  6  1  0  0  0  0
 34 35  1  0  0  0  0
 34 33  1  0  0  0  0
 35 33  1  0  0  0  0
M  END
>  <minimizedAffinity>
-3.63389325

>  <minimizedRMSD>
5.73343658

$$$$
