
 OpenBabel03252504423D

 39 42  0  0  0  0  0  0  0  0999 V2000
   46.3800   32.1870   47.7490 C   0  0  0  0  0  0  0  0  0  0  0  0
   45.9160   31.8150   48.9750 C   0  0  0  0  0  0  0  0  0  0  0  0
   46.9000   31.1320   49.5620 N   0  0  0  0  0  0  0  0  0  0  0  0
   47.9700   31.0540   48.7640 C   0  0  0  0  0  0  0  0  0  0  0  0
   47.6320   31.7230   47.6240 N   0  0  0  0  0  0  0  0  0  0  0  0
   49.2440   30.4450   48.9390 N   0  0  0  0  0  0  0  0  0  0  0  0
   50.3010   31.2690   49.5730 C   0  0  0  0  0  0  0  0  0  0  0  0
   50.4030   30.7280   50.9980 C   0  0  0  0  0  0  0  0  0  0  0  0
   50.4990   29.2260   50.9810 C   0  0  0  0  0  0  0  0  0  0  0  0
   50.8500   28.7480   49.5810 C   0  0  0  0  0  0  0  0  0  0  0  0
   49.7500   29.1480   48.6220 C   0  0  0  0  0  0  0  0  0  0  0  0
   44.9330   32.0320   49.3910 H   0  0  0  0  0  0  0  0  0  0  0  0
   46.8810   30.6980   50.5160 H   0  0  0  0  0  0  0  0  0  0  0  0
   51.2440   31.1810   49.0230 H   0  0  0  0  0  0  0  0  0  0  0  0
   49.9760   32.3240   49.6640 H   0  0  0  0  0  0  0  0  0  0  0  0
   49.5080   31.0110   51.5550 H   0  0  0  0  0  0  0  0  0  0  0  0
   51.3290   31.1490   51.4630 H   0  0  0  0  0  0  0  0  0  0  0  0
   49.5300   28.7450   51.2260 H   0  0  0  0  0  0  0  0  0  0  0  0
   51.2750   28.8290   51.6830 H   0  0  0  0  0  0  0  0  0  0  0  0
   50.9680   27.6500   49.5880 H   0  0  0  0  0  0  0  0  0  0  0  0
   51.8050   29.2360   49.3100 H   0  0  0  0  0  0  0  0  0  0  0  0
   50.1080   29.0840   47.5710 H   0  0  0  0  0  0  0  0  0  0  0  0
   48.9380   28.3820   48.7780 H   0  0  0  0  0  0  0  0  0  0  0  0
   45.6380   32.9780   46.7220 C   0  0  0  0  0  0  0  0  0  0  0  0
   45.3130   33.9430   47.1760 H   0  0  0  0  0  0  0  0  0  0  0  0
   44.7300   32.4170   46.3960 H   0  0  0  0  0  0  0  0  0  0  0  0
   46.0610   33.8310   44.4470 C   0  0  0  0  0  3  0  0  0  0  0  0
   46.5000   33.2800   45.5620 C   0  0  0  0  0  3  0  0  0  0  0  0
   47.0280   34.0690   43.3810 C   0  0  0  0  0  0  0  0  0  0  0  0
   46.7500   34.9660   42.3120 C   0  0  0  0  0  0  0  0  0  0  0  0
   47.7190   35.1280   41.3440 C   0  0  0  0  0  0  0  0  0  0  0  0
   48.8790   34.4460   41.4340 N   0  0  0  0  0  0  0  0  0  0  0  0
   49.1190   33.6020   42.4570 C   0  0  0  0  0  0  0  0  0  0  0  0
   48.2250   33.4140   43.4050 N   0  0  0  0  0  0  0  0  0  0  0  0
   45.7970   35.4670   42.3230 H   0  0  0  0  0  0  0  0  0  0  0  0
   47.4800   35.8150   40.5460 H   0  0  0  0  0  0  0  0  0  0  0  0
   50.4120   32.8750   42.5100 C   0  0  0  0  0  3  0  0  0  0  0  0
   50.9060   32.1600   41.2850 C   0  0  0  0  0  2  0  0  0  0  0  0
   50.4770   31.4040   42.5150 C   0  0  0  0  0  2  0  0  0  0  0  0
  1  2  2  0  0  0  0
  2 12  1  0  0  0  0
  2  3  1  0  0  0  0
  3 13  1  0  0  0  0
  4  6  1  0  0  0  0
  4  3  1  0  0  0  0
  5  1  1  0  0  0  0
  5  4  2  0  0  0  0
  6  7  1  0  0  0  0
  7 15  1  0  0  0  0
  7  8  1  0  0  0  0
  8 17  1  0  0  0  0
  8 16  1  0  0  0  0
  9  8  1  0  0  0  0
  9 18  1  0  0  0  0
  9 19  1  0  0  0  0
 10 20  1  0  0  0  0
 10  9  1  0  0  0  0
 11 23  1  0  0  0  0
 11  6  1  0  0  0  0
 11 10  1  0  0  0  0
 14  7  1  0  0  0  0
 21 10  1  0  0  0  0
 22 11  1  0  0  0  0
 24 25  1  0  0  0  0
 24  1  1  0  0  0  0
 26 24  1  0  0  0  0
 27 28  2  0  0  0  0
 28 24  1  0  0  0  0
 29 34  1  0  0  0  0
 29 27  1  0  0  0  0
 30 35  1  0  0  0  0
 30 29  2  0  0  0  0
 31 32  2  0  0  0  0
 31 30  1  0  0  0  0
 32 33  1  0  0  0  0
 33 37  1  0  0  0  0
 33 34  2  0  0  0  0
 36 31  1  0  0  0  0
 37 39  1  0  0  0  0
 38 37  1  0  0  0  0
 38 39  1  0  0  0  0
M  END
>  <minimizedAffinity>
-5.84845209

>  <minimizedRMSD>
0.43221727

$$$$
