
 OpenBabel03252503543D

 30 32  0  0  1  0  0  0  0  0999 V2000
   37.4160   30.2230   40.5920 N   0  0  0  0  0  0  0  0  0  0  0  0
   36.5880   30.3160   39.4210 C   0  0  0  0  0  0  0  0  0  0  0  0
   37.3330   31.2240   38.4670 C   0  0  0  0  0  0  0  0  0  0  0  0
   37.2320   32.6190   39.0020 C   0  0  0  0  0  0  0  0  0  0  0  0
   37.8700   32.6110   40.3390 C   0  0  0  0  0  0  0  0  0  0  0  0
   38.2670   31.3030   40.8840 C   0  0  2  0  0  0  0  0  0  0  0  0
   35.6300   30.7830   39.7560 H   0  0  0  0  0  0  0  0  0  0  0  0
   36.3810   29.3200   38.9650 H   0  0  0  0  0  0  0  0  0  0  0  0
   38.3430   30.8970   38.2730 H   0  0  0  0  0  0  0  0  0  0  0  0
   36.7750   31.1310   37.4880 H   0  0  0  0  0  0  0  0  0  0  0  0
   36.1770   32.9730   39.0100 H   0  0  0  0  0  0  0  0  0  0  0  0
   37.7340   33.3000   38.2700 H   0  0  0  0  0  0  0  0  0  0  0  0
   38.6640   33.3390   40.3720 H   0  0  0  0  0  0  0  0  0  0  0  0
   37.0750   33.0930   41.0130 H   0  0  0  0  0  0  0  0  0  0  0  0
   38.2010   31.4310   41.9930 H   0  0  0  0  0  0  0  0  0  0  0  0
   37.2750   26.7770   41.9360 C   0  0  0  0  0  0  0  0  0  0  0  0
   37.2690   27.8290   41.0180 C   0  0  0  0  0  0  0  0  0  0  0  0
   37.3610   29.1290   41.4640 C   0  0  0  0  0  0  0  0  0  0  0  0
   37.4530   29.3350   42.7770 N   0  0  0  0  0  0  0  0  0  0  0  0
   37.4600   28.3200   43.6780 C   0  0  0  0  0  0  0  0  0  0  0  0
   37.3700   27.0450   43.2450 N   0  0  0  0  0  0  0  0  0  0  0  0
   37.2130   27.5380   39.9860 H   0  0  0  0  0  0  0  0  0  0  0  0
   37.5340   28.4430   44.7510 H   0  0  0  0  0  0  0  0  0  0  0  0
   37.1800   25.3890   41.4100 C   0  0  0  0  0  0  0  0  0  0  0  0
   38.4290   24.8650   41.1080 F   0  0  0  0  0  0  0  0  0  0  0  0
   36.5000   24.6280   42.3420 F   0  0  0  0  0  0  0  0  0  0  0  0
   36.3720   25.3870   40.2630 F   0  0  0  0  0  0  0  0  0  0  0  0
   39.7460   31.0810   40.6530 C   0  0  0  0  0  3  0  0  0  0  0  0
   40.4090   29.8640   41.2460 C   0  0  0  0  0  2  0  0  0  0  0  0
   40.6410   31.1530   41.8850 C   0  0  0  0  0  2  0  0  0  0  0  0
  1  6  1  0  0  0  0
  1 18  1  0  0  0  0
  2  7  1  0  0  0  0
  2  1  1  0  0  0  0
  3  4  1  0  0  0  0
  3  2  1  0  0  0  0
  4 11  1  0  0  0  0
  4  5  1  0  0  0  0
  5 13  1  0  0  0  0
  5  6  1  0  0  0  0
  5 14  1  0  0  0  0
  6 15  1  1  0  0  0
  8  2  1  0  0  0  0
  9  3  1  0  0  0  0
 10  3  1  0  0  0  0
 12  4  1  0  0  0  0
 16 21  1  0  0  0  0
 17 18  1  0  0  0  0
 17 16  2  0  0  0  0
 18 19  2  0  0  0  0
 19 20  1  0  0  0  0
 20 23  1  0  0  0  0
 21 20  2  0  0  0  0
 22 17  1  0  0  0  0
 24 16  1  0  0  0  0
 24 26  1  0  0  0  0
 25 24  1  0  0  0  0
 27 24  1  0  0  0  0
 28  6  1  0  0  0  0
 28 29  1  0  0  0  0
 28 30  1  0  0  0  0
 29 30  1  0  0  0  0
M  END
>  <minimizedAffinity>
-4.96437979

$$$$

 OpenBabel03252503543D

 30 32  0  0  1  0  0  0  0  0999 V2000
   37.1370   28.6530   40.8770 N   0  0  0  0  0  0  0  0  0  0  0  0
   37.9340   29.5890   41.6210 C   0  0  0  0  0  0  0  0  0  0  0  0
   38.6950   28.7610   42.6330 C   0  0  0  0  0  0  0  0  0  0  0  0
   37.7190   28.3200   43.6790 C   0  0  0  0  0  0  0  0  0  0  0  0
   36.6920   27.5060   42.9880 C   0  0  0  0  0  0  0  0  0  0  0  0
   36.7460   27.4650   41.5180 C   0  0  2  0  0  0  0  0  0  0  0  0
   37.2120   30.2780   42.1250 H   0  0  0  0  0  0  0  0  0  0  0  0
   38.6210   30.1770   40.9690 H   0  0  0  0  0  0  0  0  0  0  0  0
   39.2570   27.9560   42.1840 H   0  0  0  0  0  0  0  0  0  0  0  0
   39.4560   29.4730   43.0720 H   0  0  0  0  0  0  0  0  0  0  0  0
   37.3030   29.1890   44.2360 H   0  0  0  0  0  0  0  0  0  0  0  0
   38.2890   27.7540   44.4590 H   0  0  0  0  0  0  0  0  0  0  0  0
   36.6360   26.5270   43.4350 H   0  0  0  0  0  0  0  0  0  0  0  0
   35.7040   27.9810   43.3320 H   0  0  0  0  0  0  0  0  0  0  0  0
   35.6860   27.3030   41.2040 H   0  0  0  0  0  0  0  0  0  0  0  0
   35.0220   28.9860   37.8570 C   0  0  0  0  0  0  0  0  0  0  0  0
   35.4130   28.6540   39.1560 C   0  0  0  0  0  0  0  0  0  0  0  0
   36.7010   28.9110   39.5720 C   0  0  0  0  0  0  0  0  0  0  0  0
   37.5370   29.4770   38.7030 N   0  0  0  0  0  0  0  0  0  0  0  0
   37.1680   29.8050   37.4390 C   0  0  0  0  0  0  0  0  0  0  0  0
   35.9070   29.5540   37.0280 N   0  0  0  0  0  0  0  0  0  0  0  0
   34.6450   28.2230   39.7710 H   0  0  0  0  0  0  0  0  0  0  0  0
   37.8140   30.2660   36.7030 H   0  0  0  0  0  0  0  0  0  0  0  0
   33.6210   28.6940   37.4530 C   0  0  0  0  0  0  0  0  0  0  0  0
   33.4020   27.3330   37.2930 F   0  0  0  0  0  0  0  0  0  0  0  0
   32.7820   29.2550   38.3990 F   0  0  0  0  0  0  0  0  0  0  0  0
   33.3380   29.3660   36.2560 F   0  0  0  0  0  0  0  0  0  0  0  0
   37.4350   26.1950   41.0690 C   0  0  0  0  0  3  0  0  0  0  0  0
   36.9090   24.8650   41.5440 C   0  0  0  0  0  2  0  0  0  0  0  0
   38.1270   25.3800   42.1550 C   0  0  0  0  0  2  0  0  0  0  0  0
  1  6  1  0  0  0  0
  1  2  1  0  0  0  0
  2  7  1  0  0  0  0
  2  3  1  0  0  0  0
  3 10  1  0  0  0  0
  3  4  1  0  0  0  0
  4 11  1  0  0  0  0
  4 12  1  0  0  0  0
  5 14  1  0  0  0  0
  5 13  1  0  0  0  0
  5  4  1  0  0  0  0
  6 15  1  6  0  0  0
  6  5  1  0  0  0  0
  8  2  1  0  0  0  0
  9  3  1  0  0  0  0
 16 17  1  0  0  0  0
 17 18  2  0  0  0  0
 17 22  1  0  0  0  0
 18  1  1  0  0  0  0
 19 18  1  0  0  0  0
 20 19  2  0  0  0  0
 21 20  1  0  0  0  0
 21 16  2  0  0  0  0
 23 20  1  0  0  0  0
 24 16  1  0  0  0  0
 24 26  1  0  0  0  0
 25 24  1  0  0  0  0
 27 24  1  0  0  0  0
 28  6  1  0  0  0  0
 28 29  1  0  0  0  0
 28 30  1  0  0  0  0
 29 30  1  0  0  0  0
M  END
>  <minimizedAffinity>
-4.95091343

$$$$

 OpenBabel03252503543D

 30 32  0  0  1  0  0  0  0  0999 V2000
   37.8980   29.6770   40.0820 N   0  0  0  0  0  0  0  0  0  0  0  0
   38.8570   30.7460   40.0490 C   0  0  0  0  0  0  0  0  0  0  0  0
   38.3260   31.7410   39.0410 C   0  0  0  0  0  0  0  0  0  0  0  0
   38.5140   31.1450   37.6800 C   0  0  0  0  0  0  0  0  0  0  0  0
   37.7330   29.8870   37.6520 C   0  0  0  0  0  0  0  0  0  0  0  0
   37.1400   29.4390   38.9220 C   0  0  2  0  0  0  0  0  0  0  0  0
   39.8160   30.2910   39.7000 H   0  0  0  0  0  0  0  0  0  0  0  0
   39.0070   31.2150   41.0510 H   0  0  0  0  0  0  0  0  0  0  0  0
   37.3150   32.0570   39.2500 H   0  0  0  0  0  0  0  0  0  0  0  0
   38.9770   32.6570   39.1700 H   0  0  0  0  0  0  0  0  0  0  0  0
   39.5940   31.0090   37.4450 H   0  0  0  0  0  0  0  0  0  0  0  0
   38.1740   31.9020   36.9290 H   0  0  0  0  0  0  0  0  0  0  0  0
   37.0220   29.9130   36.8420 H   0  0  0  0  0  0  0  0  0  0  0  0
   38.4930   29.1130   37.2790 H   0  0  0  0  0  0  0  0  0  0  0  0
   37.0940   28.3250   38.8310 H   0  0  0  0  0  0  0  0  0  0  0  0
   37.6240   26.6970   42.2590 C   0  0  0  0  0  0  0  0  0  0  0  0
   37.7310   27.4720   41.1030 C   0  0  0  0  0  0  0  0  0  0  0  0
   37.7370   28.8470   41.1970 C   0  0  0  0  0  0  0  0  0  0  0  0
   37.6400   29.3910   42.4090 N   0  0  0  0  0  0  0  0  0  0  0  0
   37.5370   28.6460   43.5390 C   0  0  0  0  0  0  0  0  0  0  0  0
   37.5300   27.3000   43.4500 N   0  0  0  0  0  0  0  0  0  0  0  0
   37.8260   26.9210   40.1860 H   0  0  0  0  0  0  0  0  0  0  0  0
   37.4560   29.0470   44.5410 H   0  0  0  0  0  0  0  0  0  0  0  0
   37.6270   25.2170   42.1100 C   0  0  0  0  0  0  0  0  0  0  0  0
   36.4410   24.6510   42.5570 F   0  0  0  0  0  0  0  0  0  0  0  0
   37.8820   24.9250   40.7830 F   0  0  0  0  0  0  0  0  0  0  0  0
   38.7080   24.6840   42.8260 F   0  0  0  0  0  0  0  0  0  0  0  0
   35.6810   29.8380   38.9730 C   0  0  0  0  0  3  0  0  0  0  0  0
   34.7720   29.1790   39.9790 C   0  0  0  0  0  2  0  0  0  0  0  0
   34.6720   28.7630   38.5870 C   0  0  0  0  0  2  0  0  0  0  0  0
  1 18  1  0  0  0  0
  2  1  1  0  0  0  0
  2  8  1  0  0  0  0
  3 10  1  0  0  0  0
  3  9  1  0  0  0  0
  3  2  1  0  0  0  0
  4  3  1  0  0  0  0
  5  4  1  0  0  0  0
  5  6  1  0  0  0  0
  6 15  1  6  0  0  0
  6 28  1  0  0  0  0
  6  1  1  0  0  0  0
  7  2  1  0  0  0  0
 11  4  1  0  0  0  0
 12  4  1  0  0  0  0
 13  5  1  0  0  0  0
 14  5  1  0  0  0  0
 16 21  1  0  0  0  0
 17 18  1  0  0  0  0
 17 16  2  0  0  0  0
 18 19  2  0  0  0  0
 19 20  1  0  0  0  0
 20 23  1  0  0  0  0
 21 20  2  0  0  0  0
 22 17  1  0  0  0  0
 24 16  1  0  0  0  0
 24 25  1  0  0  0  0
 24 27  1  0  0  0  0
 26 24  1  0  0  0  0
 28 29  1  0  0  0  0
 30 28  1  0  0  0  0
 30 29  1  0  0  0  0
M  END
>  <minimizedAffinity>
-4.93848228

$$$$

 OpenBabel03252503543D

 30 32  0  0  1  0  0  0  0  0999 V2000
   37.7850   28.8250   40.1590 N   0  0  0  0  0  0  0  0  0  0  0  0
   38.0400   29.7040   39.0520 C   0  0  0  0  0  0  0  0  0  0  0  0
   38.1210   31.0930   39.6450 C   0  0  0  0  0  0  0  0  0  0  0  0
   36.7320   31.5040   40.0230 C   0  0  0  0  0  0  0  0  0  0  0  0
   36.2540   30.5220   41.0250 C   0  0  0  0  0  0  0  0  0  0  0  0
   37.1080   29.3490   41.2740 C   0  0  2  0  0  0  0  0  0  0  0  0
   37.1590   29.6080   38.3710 H   0  0  0  0  0  0  0  0  0  0  0  0
   38.9710   29.4360   38.5010 H   0  0  0  0  0  0  0  0  0  0  0  0
   38.8390   31.1700   40.4490 H   0  0  0  0  0  0  0  0  0  0  0  0
   38.5150   31.7420   38.8060 H   0  0  0  0  0  0  0  0  0  0  0  0
   36.0770   31.5850   39.1270 H   0  0  0  0  0  0  0  0  0  0  0  0
   36.7810   32.5520   40.4100 H   0  0  0  0  0  0  0  0  0  0  0  0
   35.9640   31.0320   41.9300 H   0  0  0  0  0  0  0  0  0  0  0  0
   35.2400   30.1880   40.6030 H   0  0  0  0  0  0  0  0  0  0  0  0
   36.3940   28.5460   41.5830 H   0  0  0  0  0  0  0  0  0  0  0  0
   37.6960   25.1430   40.5300 C   0  0  0  0  0  0  0  0  0  0  0  0
   37.3130   26.4820   40.6310 C   0  0  0  0  0  0  0  0  0  0  0  0
   38.1370   27.4700   40.1380 C   0  0  0  0  0  0  0  0  0  0  0  0
   39.2860   27.1030   39.5740 N   0  0  0  0  0  0  0  0  0  0  0  0
   39.6680   25.8040   39.4690 C   0  0  0  0  0  0  0  0  0  0  0  0
   38.8630   24.8340   39.9510 N   0  0  0  0  0  0  0  0  0  0  0  0
   36.3550   26.6530   41.0850 H   0  0  0  0  0  0  0  0  0  0  0  0
   40.5910   25.4630   39.0180 H   0  0  0  0  0  0  0  0  0  0  0  0
   36.7730   24.1100   41.0700 C   0  0  0  0  0  0  0  0  0  0  0  0
   35.6550   23.9430   40.2640 F   0  0  0  0  0  0  0  0  0  0  0  0
   37.4910   22.9390   41.2240 F   0  0  0  0  0  0  0  0  0  0  0  0
   36.3760   24.4790   42.3630 F   0  0  0  0  0  0  0  0  0  0  0  0
   37.9320   29.5750   42.5220 C   0  0  0  0  0  3  0  0  0  0  0  0
   38.9360   28.5300   42.9400 C   0  0  0  0  0  2  0  0  0  0  0  0
   37.6830   28.6140   43.6800 C   0  0  0  0  0  2  0  0  0  0  0  0
  1  6  1  0  0  0  0
  2  3  1  0  0  0  0
  2  1  1  0  0  0  0
  3  4  1  0  0  0  0
  3  9  1  0  0  0  0
  4 12  1  0  0  0  0
  4  5  1  0  0  0  0
  5  6  1  0  0  0  0
  5 13  1  0  0  0  0
  6 15  1  1  0  0  0
  6 28  1  0  0  0  0
  7  2  1  0  0  0  0
  8  2  1  0  0  0  0
 10  3  1  0  0  0  0
 11  4  1  0  0  0  0
 14  5  1  0  0  0  0
 16 17  1  0  0  0  0
 16 24  1  0  0  0  0
 17 22  1  0  0  0  0
 18  1  1  0  0  0  0
 18 17  2  0  0  0  0
 19 18  1  0  0  0  0
 20 19  2  0  0  0  0
 20 21  1  0  0  0  0
 21 16  2  0  0  0  0
 23 20  1  0  0  0  0
 24 26  1  0  0  0  0
 24 27  1  0  0  0  0
 25 24  1  0  0  0  0
 28 29  1  0  0  0  0
 28 30  1  0  0  0  0
 29 30  1  0  0  0  0
M  END
>  <minimizedAffinity>
-4.91402531

$$$$

 OpenBabel03252503543D

 30 32  0  0  1  0  0  0  0  0999 V2000
   37.3340   29.1040   39.8830 N   0  0  0  0  0  0  0  0  0  0  0  0
   37.5930   29.9840   40.9890 C   0  0  0  0  0  0  0  0  0  0  0  0
   36.5730   31.0960   40.8730 C   0  0  0  0  0  0  0  0  0  0  0  0
   36.9790   31.9590   39.7190 C   0  0  0  0  0  0  0  0  0  0  0  0
   36.9680   31.0960   38.5150 C   0  0  0  0  0  0  0  0  0  0  0  0
   36.7570   29.6540   38.7260 C   0  0  2  0  0  0  0  0  0  0  0  0
   38.6300   30.3710   40.8410 H   0  0  0  0  0  0  0  0  0  0  0  0
   37.5240   29.4630   41.9730 H   0  0  0  0  0  0  0  0  0  0  0  0
   35.5570   30.7350   40.8200 H   0  0  0  0  0  0  0  0  0  0  0  0
   36.6570   31.6650   41.8460 H   0  0  0  0  0  0  0  0  0  0  0  0
   37.9590   32.4520   39.9080 H   0  0  0  0  0  0  0  0  0  0  0  0
   36.2590   32.8140   39.6650 H   0  0  0  0  0  0  0  0  0  0  0  0
   36.3100   31.5130   37.7690 H   0  0  0  0  0  0  0  0  0  0  0  0
   38.0020   31.2780   38.0500 H   0  0  0  0  0  0  0  0  0  0  0  0
   37.2940   29.1670   37.8750 H   0  0  0  0  0  0  0  0  0  0  0  0
   37.5340   25.5190   40.7810 C   0  0  0  0  0  0  0  0  0  0  0  0
   37.1920   26.8710   40.8450 C   0  0  0  0  0  0  0  0  0  0  0  0
   37.6840   27.7490   39.9050 C   0  0  0  0  0  0  0  0  0  0  0  0
   38.4820   27.2650   38.9550 N   0  0  0  0  0  0  0  0  0  0  0  0
   38.8200   25.9520   38.8810 C   0  0  0  0  0  0  0  0  0  0  0  0
   38.3390   25.0890   39.8010 N   0  0  0  0  0  0  0  0  0  0  0  0
   36.5240   27.1390   41.6430 H   0  0  0  0  0  0  0  0  0  0  0  0
   39.4630   25.5180   38.1270 H   0  0  0  0  0  0  0  0  0  0  0  0
   36.9740   24.6060   41.8130 C   0  0  0  0  0  0  0  0  0  0  0  0
   37.9350   23.7360   42.3090 F   0  0  0  0  0  0  0  0  0  0  0  0
   36.4080   25.3850   42.8050 F   0  0  0  0  0  0  0  0  0  0  0  0
   35.9130   23.8780   41.2570 F   0  0  0  0  0  0  0  0  0  0  0  0
   35.3090   29.3070   38.4600 C   0  0  0  0  0  3  0  0  0  0  0  0
   34.9590   27.9150   37.9990 C   0  0  0  0  0  2  0  0  0  0  0  0
   34.9440   28.9890   37.0150 C   0  0  0  0  0  2  0  0  0  0  0  0
  1 18  1  0  0  0  0
  1  2  1  0  0  0  0
  2  8  1  0  0  0  0
  3  2  1  0  0  0  0
  3 10  1  0  0  0  0
  4 11  1  0  0  0  0
  4  3  1  0  0  0  0
  5  6  1  0  0  0  0
  5  4  1  0  0  0  0
  6 15  1  6  0  0  0
  6  1  1  0  0  0  0
  7  2  1  0  0  0  0
  9  3  1  0  0  0  0
 12  4  1  0  0  0  0
 13  5  1  0  0  0  0
 14  5  1  0  0  0  0
 16 17  1  0  0  0  0
 16 24  1  0  0  0  0
 17 22  1  0  0  0  0
 18 17  2  0  0  0  0
 19 18  1  0  0  0  0
 20 19  2  0  0  0  0
 20 21  1  0  0  0  0
 21 16  2  0  0  0  0
 23 20  1  0  0  0  0
 24 25  1  0  0  0  0
 24 26  1  0  0  0  0
 27 24  1  0  0  0  0
 28  6  1  0  0  0  0
 29 28  1  0  0  0  0
 30 29  1  0  0  0  0
 30 28  1  0  0  0  0
M  END
>  <minimizedAffinity>
-4.83708954

$$$$

 OpenBabel03252503543D

 30 32  0  0  1  0  0  0  0  0999 V2000
   38.7980   31.4530   40.5570 N   0  0  0  0  0  0  0  0  0  0  0  0
   38.6710   32.8250   40.9640 C   0  0  0  0  0  0  0  0  0  0  0  0
   39.5850   33.6080   40.0490 C   0  0  0  0  0  0  0  0  0  0  0  0
   40.9950   33.3160   40.4620 C   0  0  0  0  0  0  0  0  0  0  0  0
   41.1940   31.8570   40.2960 C   0  0  0  0  0  0  0  0  0  0  0  0
   40.0080   31.0520   39.9650 C   0  0  2  0  0  0  0  0  0  0  0  0
   39.0270   32.8680   42.0230 H   0  0  0  0  0  0  0  0  0  0  0  0
   37.6190   33.1900   40.9070 H   0  0  0  0  0  0  0  0  0  0  0  0
   39.3870   33.4350   39.0020 H   0  0  0  0  0  0  0  0  0  0  0  0
   39.3290   34.6920   40.2450 H   0  0  0  0  0  0  0  0  0  0  0  0
   41.1970   33.6820   41.4940 H   0  0  0  0  0  0  0  0  0  0  0  0
   41.6720   33.9370   39.8230 H   0  0  0  0  0  0  0  0  0  0  0  0
   42.0270   31.6720   39.6360 H   0  0  0  0  0  0  0  0  0  0  0  0
   41.6190   31.5320   41.3120 H   0  0  0  0  0  0  0  0  0  0  0  0
   40.2230   30.0450   40.4000 H   0  0  0  0  0  0  0  0  0  0  0  0
   36.8570   28.6060   41.9080 C   0  0  0  0  0  0  0  0  0  0  0  0
   37.9210   29.4830   41.6910 C   0  0  0  0  0  0  0  0  0  0  0  0
   37.7900   30.5080   40.7790 C   0  0  0  0  0  0  0  0  0  0  0  0
   36.6320   30.6230   40.1300 N   0  0  0  0  0  0  0  0  0  0  0  0
   35.5910   29.7760   40.3350 C   0  0  0  0  0  0  0  0  0  0  0  0
   35.7160   28.7710   41.2260 N   0  0  0  0  0  0  0  0  0  0  0  0
   38.7950   29.3040   42.2890 H   0  0  0  0  0  0  0  0  0  0  0  0
   34.6350   29.8340   39.8300 H   0  0  0  0  0  0  0  0  0  0  0  0
   37.0420   27.5180   42.9050 C   0  0  0  0  0  0  0  0  0  0  0  0
   38.1840   27.7070   43.6710 F   0  0  0  0  0  0  0  0  0  0  0  0
   35.8960   27.4500   43.6750 F   0  0  0  0  0  0  0  0  0  0  0  0
   37.1160   26.2880   42.2360 F   0  0  0  0  0  0  0  0  0  0  0  0
   39.9760   30.7810   38.4760 C   0  0  0  0  0  3  0  0  0  0  0  0
   39.3470   29.5060   37.9740 C   0  0  0  0  0  2  0  0  0  0  0  0
   40.8010   29.5970   37.9870 C   0  0  0  0  0  2  0  0  0  0  0  0
  1 18  1  0  0  0  0
  1  2  1  0  0  0  0
  2  7  1  0  0  0  0
  3 10  1  0  0  0  0
  3  4  1  0  0  0  0
  3  2  1  0  0  0  0
  4 11  1  0  0  0  0
  5  4  1  0  0  0  0
  5 14  1  0  0  0  0
  6  5  1  0  0  0  0
  6 15  1  1  0  0  0
  6  1  1  0  0  0  0
  8  2  1  0  0  0  0
  9  3  1  0  0  0  0
 12  4  1  0  0  0  0
 13  5  1  0  0  0  0
 16 24  1  0  0  0  0
 17 16  1  0  0  0  0
 17 22  1  0  0  0  0
 18 17  2  0  0  0  0
 19 20  2  0  0  0  0
 19 18  1  0  0  0  0
 20 21  1  0  0  0  0
 21 16  2  0  0  0  0
 23 20  1  0  0  0  0
 24 25  1  0  0  0  0
 24 26  1  0  0  0  0
 27 24  1  0  0  0  0
 28  6  1  0  0  0  0
 29 30  1  0  0  0  0
 29 28  1  0  0  0  0
 30 28  1  0  0  0  0
M  END
>  <minimizedAffinity>
-4.74419355

$$$$

 OpenBabel03252503543D

 30 32  0  0  1  0  0  0  0  0999 V2000
   37.9850   29.6490   41.7680 N   0  0  0  0  0  0  0  0  0  0  0  0
   38.8010   29.4900   42.9390 C   0  0  0  0  0  0  0  0  0  0  0  0
   38.8990   27.9980   43.1680 C   0  0  0  0  0  0  0  0  0  0  0  0
   37.5710   27.5330   43.6790 C   0  0  0  0  0  0  0  0  0  0  0  0
   36.5750   27.8470   42.6280 C   0  0  0  0  0  0  0  0  0  0  0  0
   37.0390   28.6490   41.4840 C   0  0  2  0  0  0  0  0  0  0  0  0
   38.2480   29.9900   43.7720 H   0  0  0  0  0  0  0  0  0  0  0  0
   39.8070   29.9560   42.8240 H   0  0  0  0  0  0  0  0  0  0  0  0
   39.2540   27.4590   42.3030 H   0  0  0  0  0  0  0  0  0  0  0  0
   39.6960   27.8810   43.9630 H   0  0  0  0  0  0  0  0  0  0  0  0
   37.3370   27.9860   44.6690 H   0  0  0  0  0  0  0  0  0  0  0  0
   37.6570   26.4390   43.9030 H   0  0  0  0  0  0  0  0  0  0  0  0
   36.0570   26.9500   42.3310 H   0  0  0  0  0  0  0  0  0  0  0  0
   35.7580   28.4160   43.2010 H   0  0  0  0  0  0  0  0  0  0  0  0
   36.1280   29.2000   41.1430 H   0  0  0  0  0  0  0  0  0  0  0  0
   39.2560   32.3060   39.5270 C   0  0  0  0  0  0  0  0  0  0  0  0
   39.2500   31.2050   40.3840 C   0  0  0  0  0  0  0  0  0  0  0  0
   38.0650   30.7780   40.9450 C   0  0  0  0  0  0  0  0  0  0  0  0
   36.9540   31.4460   40.6400 N   0  0  0  0  0  0  0  0  0  0  0  0
   36.9480   32.5170   39.8060 C   0  0  0  0  0  0  0  0  0  0  0  0
   38.1070   32.9370   39.2560 N   0  0  0  0  0  0  0  0  0  0  0  0
   40.2030   30.7340   40.5370 H   0  0  0  0  0  0  0  0  0  0  0  0
   36.0690   33.0860   39.5320 H   0  0  0  0  0  0  0  0  0  0  0  0
   40.5570   32.7270   38.9400 C   0  0  0  0  0  0  0  0  0  0  0  0
   40.8730   34.0370   39.2720 F   0  0  0  0  0  0  0  0  0  0  0  0
   41.5210   31.8300   39.3610 F   0  0  0  0  0  0  0  0  0  0  0  0
   40.4990   32.5890   37.5460 F   0  0  0  0  0  0  0  0  0  0  0  0
   37.3460   27.7380   40.3150 C   0  0  0  0  0  3  0  0  0  0  0  0
   37.3160   28.3010   38.9170 C   0  0  0  0  0  2  0  0  0  0  0  0
   36.1990   27.4700   39.3480 C   0  0  0  0  0  2  0  0  0  0  0  0
  1  2  1  0  0  0  0
  2  3  1  0  0  0  0
  2  7  1  0  0  0  0
  3  4  1  0  0  0  0
  3 10  1  0  0  0  0
  4 12  1  0  0  0  0
  4 11  1  0  0  0  0
  5 14  1  0  0  0  0
  5  4  1  0  0  0  0
  6 15  1  6  0  0  0
  6  1  1  0  0  0  0
  6  5  1  0  0  0  0
  8  2  1  0  0  0  0
  9  3  1  0  0  0  0
 13  5  1  0  0  0  0
 16 17  1  0  0  0  0
 17 22  1  0  0  0  0
 17 18  2  0  0  0  0
 18  1  1  0  0  0  0
 19 18  1  0  0  0  0
 20 19  2  0  0  0  0
 21 16  2  0  0  0  0
 21 20  1  0  0  0  0
 23 20  1  0  0  0  0
 24 25  1  0  0  0  0
 24 26  1  0  0  0  0
 24 16  1  0  0  0  0
 27 24  1  0  0  0  0
 28  6  1  0  0  0  0
 29 30  1  0  0  0  0
 29 28  1  0  0  0  0
 30 28  1  0  0  0  0
M  END
>  <minimizedAffinity>
-4.7319293

$$$$

 OpenBabel03252503543D

 30 32  0  0  1  0  0  0  0  0999 V2000
   37.5180   30.2630   39.6200 N   0  0  0  0  0  0  0  0  0  0  0  0
   36.6970   30.8740   38.6120 C   0  0  0  0  0  0  0  0  0  0  0  0
   37.4280   32.1320   38.1980 C   0  0  0  0  0  0  0  0  0  0  0  0
   37.2910   33.1190   39.3150 C   0  0  0  0  0  0  0  0  0  0  0  0
   37.9190   32.5050   40.5080 C   0  0  0  0  0  0  0  0  0  0  0  0
   38.3420   31.0990   40.3930 C   0  0  2  0  0  0  0  0  0  0  0  0
   35.7260   31.1160   39.1080 H   0  0  0  0  0  0  0  0  0  0  0  0
   36.5160   30.1980   37.7430 H   0  0  0  0  0  0  0  0  0  0  0  0
   38.4470   31.9490   37.8920 H   0  0  0  0  0  0  0  0  0  0  0  0
   36.8800   32.4930   37.2770 H   0  0  0  0  0  0  0  0  0  0  0  0
   36.2280   33.4120   39.4680 H   0  0  0  0  0  0  0  0  0  0  0  0
   37.7830   34.0710   38.9900 H   0  0  0  0  0  0  0  0  0  0  0  0
   38.6960   33.1480   40.8880 H   0  0  0  0  0  0  0  0  0  0  0  0
   37.1090   32.6070   41.3150 H   0  0  0  0  0  0  0  0  0  0  0  0
   38.2640   30.6990   41.4340 H   0  0  0  0  0  0  0  0  0  0  0  0
   37.2340   27.0060   41.3540 C   0  0  0  0  0  0  0  0  0  0  0  0
   37.3190   28.3850   41.1590 C   0  0  0  0  0  0  0  0  0  0  0  0
   37.4810   28.8900   39.8870 C   0  0  0  0  0  0  0  0  0  0  0  0
   37.5500   28.0250   38.8760 N   0  0  0  0  0  0  0  0  0  0  0  0
   37.4670   26.6820   39.0540 C   0  0  0  0  0  0  0  0  0  0  0  0
   37.3090   26.1850   40.2990 N   0  0  0  0  0  0  0  0  0  0  0  0
   37.2280   28.9820   42.0470 H   0  0  0  0  0  0  0  0  0  0  0  0
   37.5180   25.9460   38.2620 H   0  0  0  0  0  0  0  0  0  0  0  0
   37.0540   26.5060   42.7440 C   0  0  0  0  0  0  0  0  0  0  0  0
   38.2380   26.5510   43.4660 F   0  0  0  0  0  0  0  0  0  0  0  0
   36.0490   27.2500   43.3340 F   0  0  0  0  0  0  0  0  0  0  0  0
   36.5710   25.1910   42.7010 F   0  0  0  0  0  0  0  0  0  0  0  0
   39.8270   31.0350   40.1110 C   0  0  0  0  0  3  0  0  0  0  0  0
   40.5940   29.7920   40.4860 C   0  0  0  0  0  2  0  0  0  0  0  0
   40.7440   30.9730   41.3270 C   0  0  0  0  0  2  0  0  0  0  0  0
  1 18  1  0  0  0  0
  1  6  1  0  0  0  0
  2  7  1  0  0  0  0
  2  1  1  0  0  0  0
  3  2  1  0  0  0  0
  3  4  1  0  0  0  0
  4 11  1  0  0  0  0
  4  5  1  0  0  0  0
  5 13  1  0  0  0  0
  5 14  1  0  0  0  0
  6  5  1  0  0  0  0
  6 15  1  1  0  0  0
  8  2  1  0  0  0  0
  9  3  1  0  0  0  0
 10  3  1  0  0  0  0
 12  4  1  0  0  0  0
 16 24  1  0  0  0  0
 17 16  1  0  0  0  0
 17 22  1  0  0  0  0
 18 17  2  0  0  0  0
 19 20  2  0  0  0  0
 19 18  1  0  0  0  0
 20 21  1  0  0  0  0
 21 16  2  0  0  0  0
 23 20  1  0  0  0  0
 24 26  1  0  0  0  0
 24 25  1  0  0  0  0
 27 24  1  0  0  0  0
 28  6  1  0  0  0  0
 28 29  1  0  0  0  0
 28 30  1  0  0  0  0
 29 30  1  0  0  0  0
M  END
>  <minimizedAffinity>
-4.69892311

$$$$

 OpenBabel03252503543D

 30 32  0  0  1  0  0  0  0  0999 V2000
   39.1080   27.6200   41.0120 N   0  0  0  0  0  0  0  0  0  0  0  0
   39.7550   26.8120   40.0150 C   0  0  0  0  0  0  0  0  0  0  0  0
   39.1820   25.4220   40.1830 C   0  0  0  0  0  0  0  0  0  0  0  0
   39.7600   24.8460   41.4380 C   0  0  0  0  0  0  0  0  0  0  0  0
   39.3410   25.7330   42.5480 C   0  0  0  0  0  0  0  0  0  0  0  0
   38.6590   26.9860   42.1830 C   0  0  2  0  0  0  0  0  0  0  0  0
   40.8450   26.8310   40.2610 H   0  0  0  0  0  0  0  0  0  0  0  0
   39.5960   27.2020   38.9820 H   0  0  0  0  0  0  0  0  0  0  0  0
   38.1040   25.4000   40.1420 H   0  0  0  0  0  0  0  0  0  0  0  0
   39.5460   24.8500   39.2770 H   0  0  0  0  0  0  0  0  0  0  0  0
   40.8630   24.7210   41.3550 H   0  0  0  0  0  0  0  0  0  0  0  0
   39.3820   23.7970   41.5360 H   0  0  0  0  0  0  0  0  0  0  0  0
   38.8070   25.1650   43.2920 H   0  0  0  0  0  0  0  0  0  0  0  0
   40.3280   25.9650   43.0870 H   0  0  0  0  0  0  0  0  0  0  0  0
   38.9140   27.6930   43.0110 H   0  0  0  0  0  0  0  0  0  0  0  0
   38.1220   30.9660   39.7750 C   0  0  0  0  0  0  0  0  0  0  0  0
   38.2810   29.5800   39.8250 C   0  0  0  0  0  0  0  0  0  0  0  0
   38.9630   29.0050   40.8760 C   0  0  0  0  0  0  0  0  0  0  0  0
   39.4520   29.8100   41.8180 N   0  0  0  0  0  0  0  0  0  0  0  0
   39.3020   31.1580   41.7800 C   0  0  0  0  0  0  0  0  0  0  0  0
   38.6350   31.7240   40.7530 N   0  0  0  0  0  0  0  0  0  0  0  0
   37.8240   29.0350   39.0210 H   0  0  0  0  0  0  0  0  0  0  0  0
   39.6820   31.8470   42.5240 H   0  0  0  0  0  0  0  0  0  0  0  0
   37.3740   31.5420   38.6260 C   0  0  0  0  0  0  0  0  0  0  0  0
   36.9450   32.8360   38.8850 F   0  0  0  0  0  0  0  0  0  0  0  0
   38.1890   31.4710   37.5110 F   0  0  0  0  0  0  0  0  0  0  0  0
   36.2720   30.7240   38.3370 F   0  0  0  0  0  0  0  0  0  0  0  0
   37.1630   26.8140   42.3290 C   0  0  0  0  0  3  0  0  0  0  0  0
   36.2750   28.0300   42.2840 C   0  0  0  0  0  2  0  0  0  0  0  0
   36.5320   27.4160   43.5790 C   0  0  0  0  0  2  0  0  0  0  0  0
  1  6  1  0  0  0  0
  2  3  1  0  0  0  0
  2  7  1  0  0  0  0
  2  1  1  0  0  0  0
  3  4  1  0  0  0  0
  4 12  1  0  0  0  0
  4  5  1  0  0  0  0
  5 14  1  0  0  0  0
  5 13  1  0  0  0  0
  6 28  1  0  0  0  0
  6  5  1  0  0  0  0
  6 15  1  1  0  0  0
  8  2  1  0  0  0  0
  9  3  1  0  0  0  0
 10  3  1  0  0  0  0
 11  4  1  0  0  0  0
 16 17  2  0  0  0  0
 16 21  1  0  0  0  0
 17 18  1  0  0  0  0
 18  1  1  0  0  0  0
 18 19  2  0  0  0  0
 20 19  1  0  0  0  0
 20 23  1  0  0  0  0
 21 20  2  0  0  0  0
 22 17  1  0  0  0  0
 24 25  1  0  0  0  0
 24 16  1  0  0  0  0
 26 24  1  0  0  0  0
 27 24  1  0  0  0  0
 28 30  1  0  0  0  0
 29 28  1  0  0  0  0
 29 30  1  0  0  0  0
M  END
>  <minimizedAffinity>
-4.65114069

$$$$
