
 OpenBabel03252506223D

 29 31  0  0  0  0  0  0  0  0999 V2000
   45.0990   36.2650   43.1890 C   0  0  0  0  0  0  0  0  0  0  0  0
   44.0810   36.1820   42.2300 C   0  0  0  0  0  0  0  0  0  0  0  0
   44.2130   35.1970   41.2380 C   0  0  0  0  0  0  0  0  0  0  0  0
   45.3000   34.3840   41.2490 N   0  0  0  0  0  0  0  0  0  0  0  0
   46.2630   34.5080   42.2060 C   0  0  0  0  0  0  0  0  0  0  0  0
   46.1600   35.4460   43.1720 N   0  0  0  0  0  0  0  0  0  0  0  0
   43.2270   36.8280   42.2300 H   0  0  0  0  0  0  0  0  0  0  0  0
   43.4670   35.0730   40.4640 H   0  0  0  0  0  0  0  0  0  0  0  0
   48.8060   35.7240   41.0930 Cl  0  0  0  0  0  0  0  0  0  0  0  0
   48.6040   34.0840   41.6320 C   0  0  0  0  0  0  0  0  0  0  0  0
   47.4010   33.5840   42.1360 C   0  0  0  0  0  0  0  0  0  0  0  0
   47.2380   32.3030   42.5590 C   0  0  0  0  0  0  0  0  0  0  0  0
   48.3260   31.4720   42.4780 C   0  0  0  0  0  0  0  0  0  0  0  0
   49.5600   31.8500   41.9980 C   0  0  0  0  0  0  0  0  0  0  0  0
   49.6440   33.1850   41.5830 C   0  0  0  0  0  0  0  0  0  0  0  0
   46.3270   31.8940   42.9510 H   0  0  0  0  0  0  0  0  0  0  0  0
   48.2690   30.4300   42.7990 H   0  0  0  0  0  0  0  0  0  0  0  0
   50.4320   31.2480   41.9140 H   0  0  0  0  0  0  0  0  0  0  0  0
   50.5830   33.5530   41.1960 H   0  0  0  0  0  0  0  0  0  0  0  0
   44.9940   37.2870   44.2470 C   0  0  0  0  0  0  0  0  0  0  0  0
   45.4170   38.5100   43.9720 C   0  0  0  0  0  0  0  0  0  0  0  0
   45.3010   39.5330   45.0600 C   0  0  0  0  0  0  0  0  0  0  0  0
   46.3440   39.8930   45.2200 H   0  0  0  0  0  0  0  0  0  0  0  0
   44.8270   39.1230   45.9610 H   0  0  0  0  0  0  0  0  0  0  0  0
   44.5620   40.6530   44.4970 N   0  0  0  0  0  0  0  0  0  0  0  0
   43.6120   40.3410   44.1940 H   0  0  0  0  0  0  0  0  0  0  0  0
   44.3980   41.6390   45.5530 C   0  0  0  0  0  0  0  0  0  0  0  0
   44.4530   43.1070   45.1930 C   0  0  0  0  0  0  0  0  0  0  0  0
   43.1550   42.4570   45.5440 C   0  0  0  0  0  0  0  0  0  0  0  0
  1 20  1  0  0  0  0
  2  7  1  0  0  0  0
  2  1  2  0  0  0  0
  3  4  2  0  0  0  0
  3  2  1  0  0  0  0
  4  5  1  0  0  0  0
  5  6  2  0  0  0  0
  6  1  1  0  0  0  0
  8  3  1  0  0  0  0
  9 10  1  0  0  0  0
 10 11  1  0  0  0  0
 11  5  1  0  0  0  0
 11 12  2  0  0  0  0
 12 16  1  0  0  0  0
 13 12  1  0  0  0  0
 13 17  1  0  0  0  0
 14 13  2  0  0  0  0
 15 10  2  0  0  0  0
 15 14  1  0  0  0  0
 18 14  1  0  0  0  0
 19 15  1  0  0  0  0
 21 20  2  0  0  0  0
 21 22  1  0  0  0  0
 22 23  1  0  0  0  0
 22 24  1  0  0  0  0
 25 22  1  0  0  0  0
 25 27  1  0  0  0  0
 26 25  1  0  0  0  0
 28 29  1  0  0  0  0
 28 27  1  0  0  0  0
 29 27  1  0  0  0  0
M  END
>  <minimizedAffinity>
-4.76028728

>  <minimizedRMSD>
0.37626189

$$$$
