
 OpenBabel03252508263D

 35 39  0  0  1  0  0  0  0  0999 V2000
   46.4480   32.5180   45.9140 C   0  0  1  0  0  0  0  0  0  0  0  0
   46.9780   32.7120   47.2700 C   0  0  0  0  0  0  0  0  0  0  0  0
   45.5550   32.0890   46.9700 C   0  0  2  0  0  0  0  0  0  0  0  0
   47.2260   31.8570   45.3850 H   0  0  0  0  0  0  0  0  0  0  0  0
   46.9980   33.7020   47.7190 H   0  0  0  0  0  0  0  0  0  0  0  0
   47.6060   31.9810   47.8060 H   0  0  0  0  0  0  0  0  0  0  0  0
   44.8550   32.7870   47.5320 H   0  0  0  0  0  0  0  0  0  0  0  0
   45.2860   30.6990   47.3450 C   0  0  0  0  0  0  0  0  0  0  0  0
   45.1530   30.1870   48.5960 C   0  0  0  0  0  0  0  0  0  0  0  0
   45.0260   28.8390   48.9150 C   0  0  0  0  0  0  0  0  0  0  0  0
   45.0380   27.9410   47.8380 C   0  0  0  0  0  0  0  0  0  0  0  0
   45.1700   28.4390   46.5420 C   0  0  0  0  0  0  0  0  0  0  0  0
   45.1110   27.5170   45.5120 C   0  0  0  0  0  0  0  0  0  0  0  0
   45.1660   27.9780   44.1990 C   0  0  0  0  0  0  0  0  0  0  0  0
   45.2740   29.3270   43.9260 C   0  0  0  0  0  0  0  0  0  0  0  0
   45.3300   30.1950   44.9910 C   0  0  0  0  0  0  0  0  0  0  0  0
   45.2880   29.7890   46.3180 C   0  0  0  0  0  0  0  0  0  0  0  0
   45.1490   30.9180   49.4020 H   0  0  0  0  0  0  0  0  0  0  0  0
   44.9220   28.5060   49.9350 H   0  0  0  0  0  0  0  0  0  0  0  0
   44.9430   26.9060   48.0880 H   0  0  0  0  0  0  0  0  0  0  0  0
   45.0250   26.4650   45.7570 H   0  0  0  0  0  0  0  0  0  0  0  0
   45.1140   27.1630   43.4690 H   0  0  0  0  0  0  0  0  0  0  0  0
   45.2970   29.4770   42.8760 H   0  0  0  0  0  0  0  0  0  0  0  0
   45.3230   31.1470   44.5410 H   0  0  0  0  0  0  0  0  0  0  0  0
   44.7120   35.5400   44.6980 C   0  0  0  0  0  0  0  0  0  0  0  0
   45.3510   35.7730   43.4310 C   0  0  0  0  0  0  0  0  0  0  0  0
   46.3890   34.8640   43.0430 C   0  0  0  0  0  0  0  0  0  0  0  0
   46.7220   33.8490   43.8560 N   0  0  0  0  0  0  0  0  0  0  0  0
   46.0670   33.6810   45.0590 C   0  0  0  0  0  0  0  0  0  0  0  0
   45.0990   34.4990   45.4640 N   0  0  0  0  0  0  0  0  0  0  0  0
   43.9410   36.2520   44.9390 H   0  0  0  0  0  0  0  0  0  0  0  0
   45.0510   36.6030   42.8070 H   0  0  0  0  0  0  0  0  0  0  0  0
   47.0340   35.1160   41.7420 C   0  0  0  0  0  3  0  0  0  0  0  0
   48.4840   35.4430   41.7640 C   0  0  0  0  0  2  0  0  0  0  0  0
   47.9640   34.1390   41.1540 C   0  0  0  0  0  2  0  0  0  0  0  0
  1  4  1  6  0  0  0
  1  3  1  0  0  0  0
  1  2  1  0  0  0  0
  2  5  1  0  0  0  0
  2  6  1  0  0  0  0
  3  2  1  0  0  0  0
  3  8  1  0  0  0  0
  3  7  1  1  0  0  0
  8  9  1  0  0  0  0
  9 10  2  0  0  0  0
  9 18  1  0  0  0  0
 10 19  1  0  0  0  0
 11 20  1  0  0  0  0
 11 10  1  0  0  0  0
 12 11  2  0  0  0  0
 13 21  1  0  0  0  0
 13 12  1  0  0  0  0
 14 13  2  0  0  0  0
 15 14  1  0  0  0  0
 15 16  2  0  0  0  0
 16 17  1  0  0  0  0
 17 12  1  0  0  0  0
 17  8  2  0  0  0  0
 22 14  1  0  0  0  0
 23 15  1  0  0  0  0
 24 16  1  0  0  0  0
 25 31  1  0  0  0  0
 25 30  1  0  0  0  0
 26 25  2  0  0  0  0
 27 26  1  0  0  0  0
 27 28  2  0  0  0  0
 28 29  1  0  0  0  0
 29 30  2  0  0  0  0
 29  1  1  0  0  0  0
 32 26  1  0  0  0  0
 33 34  1  0  0  0  0
 33 27  1  0  0  0  0
 35 33  1  0  0  0  0
 35 34  1  0  0  0  0
M  END
>  <minimizedAffinity>
-5.41171074

>  <minimizedRMSD>
0.253286421

$$$$
