REMARK  Name = 
REMARK  3 active torsions:
REMARK  status: ('A' for Active; 'I' for Inactive)
REMARK    1  A    between atoms: C_1  and  C_10
REMARK    2  A    between atoms: C_4  and  C_12
REMARK    3  A    between atoms: C_17  and  C_33
REMARK                            x       y       z     vdW  Elec       q    Type
REMARK                         _______ _______ _______ _____ _____    ______ ____
ROOT
ATOM      1  C   UNL     1      47.787  30.656  48.861  0.00  0.00    +0.000 C 
ATOM      2  C   UNL     1      48.165  29.499  48.001  0.00  0.00    +0.000 C 
ATOM      3  C   UNL     1      49.582  29.047  48.130  0.00  0.00    +0.000 C 
ATOM      4  C   UNL     1      50.078  29.030  49.552  0.00  0.00    +0.000 C 
ATOM      5  C   UNL     1      49.668  30.252  50.340  0.00  0.00    +0.000 C 
ATOM      6  C   UNL     1      49.088  31.299  49.391  0.00  0.00    +0.000 C 
ATOM      7  H   UNL     1      47.277  30.322  49.793  0.00  0.00    +0.000 HD
ATOM      8  H   UNL     1      47.489  28.646  48.226  0.00  0.00    +0.000 HD
ATOM      9  H   UNL     1      47.998  29.710  46.904  0.00  0.00    +0.000 HD
ATOM     10  H   UNL     1      49.608  27.985  47.780  0.00  0.00    +0.000 HD
ATOM     11  H   UNL     1      50.217  29.622  47.434  0.00  0.00    +0.000 HD
ATOM     12  H   UNL     1      51.202  29.048  49.499  0.00  0.00    +0.000 HD
ATOM     13  H   UNL     1      49.822  28.083  50.067  0.00  0.00    +0.000 HD
ATOM     14  H   UNL     1      50.478  30.662  50.954  0.00  0.00    +0.000 HD
ATOM     15  H   UNL     1      48.827  29.951  51.019  0.00  0.00    +0.000 HD
ATOM     16  H   UNL     1      49.770  31.543  48.574  0.00  0.00    +0.000 HD
ENDROOT
BRANCH   1  20
ATOM     17  C   UNL     1      45.799  33.232  46.364  0.00  0.00    +0.000 A 
ATOM     18  C   UNL     1      45.194  33.131  47.626  0.00  0.00    +0.000 A 
ATOM     19  C   UNL     1      45.758  32.317  48.535  0.00  0.00    +0.000 A 
ATOM     20  C   UNL     1      46.924  31.595  48.208  0.00  0.00    +0.000 A 
ATOM     21  S   UNL     1      47.245  32.107  46.488  0.00  0.00    +0.000 S 
ATOM     22  H   UNL     1      44.301  33.685  47.873  0.00  0.00    +0.000 HD
ATOM     23  H   UNL     1      45.444  32.109  49.546  0.00  0.00    +0.000 HD
BRANCH  17  28
ATOM     24  C   UNL     1      44.335  35.919  44.247  0.00  0.00    +0.000 A 
ATOM     25  C   UNL     1      44.507  35.334  42.966  0.00  0.00    +0.000 A 
ATOM     26  C   UNL     1      45.113  34.054  42.887  0.00  0.00    +0.000 A 
ATOM     27  N   UNL     1      45.491  33.469  44.054  0.00  0.00    +0.000 NA
ATOM     28  C   UNL     1      45.305  34.072  45.263  0.00  0.00    +0.000 A 
ATOM     29  N   UNL     1      44.728  35.295  45.363  0.00  0.00    +0.000 NA
ATOM     30  H   UNL     1      43.879  36.886  44.324  0.00  0.00    +0.000 HD
ATOM     31  H   UNL     1      44.189  35.839  42.064  0.00  0.00    +0.000 HD
ATOM     32  H   UNL     1      45.255  33.590  41.941  0.00  0.00    +0.000 HD
ENDBRANCH  17  28
ENDBRANCH   1  20
BRANCH   6  33
ATOM     33  C   UNL     1      48.679  32.494  50.225  0.00  0.00    +0.000 C 
ATOM     34  C   UNL     1      49.637  33.628  50.271  0.00  0.00    +0.000 C 
ATOM     35  C   UNL     1      48.333  33.737  49.497  0.00  0.00    +0.000 C 
ENDBRANCH   6  33
TORSDOF 3
