
 OpenBabel03242516253D

 37 41  0  0  0  0  0  0  0  0999 V2000
   46.1490   32.6410   46.9460 C   0  0  0  0  0  0  0  0  0  0  0  0
   47.2680   31.8470   47.0360 C   0  0  0  0  0  0  0  0  0  0  0  0
   47.4710   31.0030   48.1060 C   0  0  0  0  0  0  0  0  0  0  0  0
   46.5370   30.9350   49.1270 C   0  0  0  0  0  0  0  0  0  0  0  0
   45.4140   31.7030   49.0780 C   0  0  0  0  0  0  0  0  0  0  0  0
   45.2400   32.5390   47.9960 C   0  0  0  0  0  0  0  0  0  0  0  0
   47.9950   31.8990   46.2410 H   0  0  0  0  0  0  0  0  0  0  0  0
   46.6780   30.2780   49.9760 H   0  0  0  0  0  0  0  0  0  0  0  0
   44.6500   31.6950   49.8440 H   0  0  0  0  0  0  0  0  0  0  0  0
   44.3600   33.1450   47.9500 H   0  0  0  0  0  0  0  0  0  0  0  0
   44.7260   35.3180   44.9220 C   0  0  0  0  0  0  0  0  0  0  0  0
   45.4550   35.2520   43.7230 C   0  0  0  0  0  0  0  0  0  0  0  0
   46.4440   34.2800   43.6150 C   0  0  0  0  0  0  0  0  0  0  0  0
   46.6850   33.4190   44.6590 N   0  0  0  0  0  0  0  0  0  0  0  0
   45.9380   33.5300   45.8120 C   0  0  0  0  0  0  0  0  0  0  0  0
   44.9660   34.4730   45.9390 N   0  0  0  0  0  0  0  0  0  0  0  0
   43.9480   36.0510   45.0580 H   0  0  0  0  0  0  0  0  0  0  0  0
   45.2450   35.9360   42.9250 H   0  0  0  0  0  0  0  0  0  0  0  0
   47.0300   34.1900   42.7150 H   0  0  0  0  0  0  0  0  0  0  0  0
   48.9320   30.0140   48.1700 S   0  0  0  0  0  0  0  0  0  0  0  0
   49.8580   30.3560   49.6330 C   0  0  0  0  0  0  0  0  0  0  0  0
   50.0460   31.6100   50.1300 N   0  0  0  0  0  0  0  0  0  0  0  0
   50.7590   31.8540   51.2380 C   0  0  0  0  0  0  0  0  0  0  0  0
   51.3060   30.8070   51.8720 N   0  0  0  0  0  0  0  0  0  0  0  0
   51.1720   29.5350   51.4510 C   0  0  0  0  0  0  0  0  0  0  0  0
   51.7380   28.4540   52.1030 C   0  0  0  0  0  0  0  0  0  0  0  0
   51.5690   27.1780   51.6290 C   0  0  0  0  0  0  0  0  0  0  0  0
   50.8250   26.9270   50.4780 C   0  0  0  0  0  0  0  0  0  0  0  0
   50.2640   28.0280   49.8330 C   0  0  0  0  0  0  0  0  0  0  0  0
   50.4290   29.3060   50.3030 C   0  0  0  0  0  0  0  0  0  0  0  0
   50.8940   32.8590   51.6130 H   0  0  0  0  0  0  0  0  0  0  0  0
   52.2920   28.7380   52.9760 H   0  0  0  0  0  0  0  0  0  0  0  0
   52.0730   26.4530   52.2510 H   0  0  0  0  0  0  0  0  0  0  0  0
   50.8000   25.8810   50.2680 H   0  0  0  0  0  0  0  0  0  0  0  0
   49.5750   27.6210   48.5620 C   0  0  0  0  0  0  0  0  0  0  0  0
   48.7540   26.2990   48.6620 C   0  0  0  0  0  0  0  0  0  0  0  0
   49.9970   26.3500   47.9160 C   0  0  0  0  0  0  0  0  0  0  0  0
  1  2  2  0  0  0  0
  1  6  1  0  0  0  0
  2  3  1  0  0  0  0
  3 20  1  0  0  0  0
  3  4  2  0  0  0  0
  4  8  1  0  0  0  0
  5  4  1  0  0  0  0
  5  9  1  0  0  0  0
  6  5  2  0  0  0  0
  7  2  1  0  0  0  0
 10  6  1  0  0  0  0
 11 17  1  0  0  0  0
 11 16  1  0  0  0  0
 12 11  2  0  0  0  0
 13 12  1  0  0  0  0
 13 14  2  0  0  0  0
 14 15  1  0  0  0  0
 15 16  2  0  0  0  0
 15  1  1  0  0  0  0
 18 12  1  0  0  0  0
 19 13  1  0  0  0  0
 20 21  1  0  0  0  0
 21 22  2  0  0  0  0
 21 30  1  0  0  0  0
 22 23  1  0  0  0  0
 23 31  1  0  0  0  0
 23 24  2  0  0  0  0
 25 24  1  0  0  0  0
 25 26  1  0  0  0  0
 26 32  1  0  0  0  0
 27 26  2  0  0  0  0
 27 33  1  0  0  0  0
 28 27  1  0  0  0  0
 29 30  1  0  0  0  0
 29 28  2  0  0  0  0
 30 25  2  0  0  0  0
 34 28  1  0  0  0  0
 35 36  1  0  0  0  0
 35 29  1  0  0  0  0
 37 35  1  0  0  0  0
 37 36  1  0  0  0  0
M  END
>  <minimizedAffinity>
-6.55037069

>  <minimizedRMSD>
0.199728385

$$$$
