
 OpenBabel03252509163D

 19 21  0  0  0  0  0  0  0  0999 V2000
   45.9140   33.0480   46.0630 C   0  0  0  0  0  0  0  0  0  0  0  0
   45.4090   32.8640   47.3740 C   0  0  0  0  0  0  0  0  0  0  0  0
   45.8020   31.7950   48.0950 C   0  0  0  0  0  0  0  0  0  0  0  0
   46.7110   30.8870   47.5110 C   0  0  0  0  0  0  0  0  0  0  0  0
   47.0040   31.6100   45.8590 S   0  0  0  0  0  0  0  0  0  0  0  0
   44.7080   33.5820   47.8010 H   0  0  0  0  0  0  0  0  0  0  0  0
   45.5140   31.5310   49.0710 H   0  0  0  0  0  0  0  0  0  0  0  0
   44.4870   36.1320   44.5570 C   0  0  0  0  0  0  0  0  0  0  0  0
   45.1300   36.1020   43.2920 C   0  0  0  0  0  0  0  0  0  0  0  0
   46.0110   35.0350   43.0290 C   0  0  0  0  0  0  0  0  0  0  0  0
   46.1920   34.0930   44.0070 N   0  0  0  0  0  0  0  0  0  0  0  0
   45.5500   34.1730   45.1960 C   0  0  0  0  0  0  0  0  0  0  0  0
   44.6970   35.1900   45.4770 N   0  0  0  0  0  0  0  0  0  0  0  0
   43.8080   36.9460   44.7720 H   0  0  0  0  0  0  0  0  0  0  0  0
   44.9720   36.8570   42.5360 H   0  0  0  0  0  0  0  0  0  0  0  0
   46.5420   34.9340   42.0940 H   0  0  0  0  0  0  0  0  0  0  0  0
   47.3640   29.6330   47.9570 C   0  0  0  0  0  3  0  0  0  0  0  0
   47.1700   28.3880   47.1030 C   0  0  0  0  0  2  0  0  0  0  0  0
   48.4940   29.1360   47.1800 C   0  0  0  0  0  2  0  0  0  0  0  0
  1  2  2  0  0  0  0
  2  6  1  0  0  0  0
  2  3  1  0  0  0  0
  3  7  1  0  0  0  0
  4 17  1  0  0  0  0
  4  3  2  0  0  0  0
  5  1  1  0  0  0  0
  5  4  1  0  0  0  0
  8 14  1  0  0  0  0
  8 13  1  0  0  0  0
  9  8  2  0  0  0  0
 10  9  1  0  0  0  0
 10 11  2  0  0  0  0
 11 12  1  0  0  0  0
 12 13  2  0  0  0  0
 12  1  1  0  0  0  0
 15  9  1  0  0  0  0
 16 10  1  0  0  0  0
 18 19  1  0  0  0  0
 18 17  1  0  0  0  0
 19 17  1  0  0  0  0
M  END
>  <minimizedAffinity>
-4.16675138

>  <minimizedRMSD>
0.89169091

$$$$
