
 OpenBabel03242515053D

 33 35  0  0  0  0  0  0  0  0999 V2000
   41.8880   35.1570   41.5550 C   0  0  0  0  0  0  0  0  0  0  0  0
   41.3190   34.2070   41.7320 H   0  0  0  0  0  0  0  0  0  0  0  0
   42.0420   35.6070   42.5660 H   0  0  0  0  0  0  0  0  0  0  0  0
   41.0030   36.0530   40.7540 C   0  0  0  0  0  0  0  0  0  0  0  0
   41.6440   36.7430   40.1660 H   0  0  0  0  0  0  0  0  0  0  0  0
   40.3370   36.6990   41.3750 H   0  0  0  0  0  0  0  0  0  0  0  0
   41.8240   36.2670   37.8250 Cl  0  0  0  0  0  0  0  0  0  0  0  0
   40.4910   35.3030   38.4100 C   0  0  0  0  0  0  0  0  0  0  0  0
   40.2040   35.2800   39.7750 C   0  0  0  0  0  0  0  0  0  0  0  0
   39.1420   34.5010   40.1490 C   0  0  0  0  0  0  0  0  0  0  0  0
   38.3330   33.7420   39.3080 C   0  0  0  0  0  0  0  0  0  0  0  0
   38.6430   33.7860   37.9680 C   0  0  0  0  0  0  0  0  0  0  0  0
   37.6790   32.8580   36.8160 Cl  0  0  0  0  0  0  0  0  0  0  0  0
   39.7080   34.5600   37.5360 C   0  0  0  0  0  0  0  0  0  0  0  0
   38.8820   34.4520   41.2030 H   0  0  0  0  0  0  0  0  0  0  0  0
   37.5140   33.1570   39.7100 H   0  0  0  0  0  0  0  0  0  0  0  0
   39.9710   34.6120   36.4840 H   0  0  0  0  0  0  0  0  0  0  0  0
   43.4420   34.7690   40.7590 S   0  0  0  0  0  0  0  0  0  0  0  0
   44.8080   34.6360   41.9110 C   0  0  0  0  0  0  0  0  0  0  0  0
   46.0940   34.6580   41.3580 C   0  0  0  0  0  0  0  0  0  0  0  0
   47.1820   34.5560   42.2230 C   0  0  0  0  0  0  0  0  0  0  0  0
   46.9330   34.4420   43.5450 N   0  0  0  0  0  0  0  0  0  0  0  0
   45.6890   34.4210   44.0620 C   0  0  0  0  0  0  0  0  0  0  0  0
   44.6440   34.5190   43.2350 N   0  0  0  0  0  0  0  0  0  0  0  0
   46.2550   34.7510   40.2920 H   0  0  0  0  0  0  0  0  0  0  0  0
   45.5570   34.2940   45.4940 C   0  0  0  0  0  0  0  0  0  0  0  0
   44.5930   34.8910   46.0470 O   0  0  0  0  0  0  0  0  0  0  0  0
   46.5450   33.4900   46.1790 N   0  0  0  0  0  0  0  0  0  0  0  0
   46.1470   32.9240   46.9560 H   0  0  0  0  0  0  0  0  0  0  0  0
   47.5410   33.5510   45.8390 H   0  0  0  0  0  0  0  0  0  0  0  0
   48.5570   34.5780   41.6660 C   0  0  0  0  0  3  0  0  0  0  0  0
   49.1160   35.9870   41.5430 C   0  0  0  0  0  2  0  0  0  0  0  0
   49.7250   34.9750   42.4690 C   0  0  0  0  0  2  0  0  0  0  0  0
  1  2  1  0  0  0  0
  1  3  1  0  0  0  0
  4  6  1  0  0  0  0
  4  1  1  0  0  0  0
  5  4  1  0  0  0  0
  7  8  1  0  0  0  0
  8  9  1  0  0  0  0
  9 10  2  0  0  0  0
  9  4  1  0  0  0  0
 10 15  1  0  0  0  0
 11 16  1  0  0  0  0
 11 10  1  0  0  0  0
 12 11  2  0  0  0  0
 13 12  1  0  0  0  0
 14 12  1  0  0  0  0
 14  8  2  0  0  0  0
 17 14  1  0  0  0  0
 18  1  1  0  0  0  0
 18 19  1  0  0  0  0
 19 24  1  0  0  0  0
 20 19  2  0  0  0  0
 20 21  1  0  0  0  0
 21 22  2  0  0  0  0
 22 23  1  0  0  0  0
 23 26  1  0  0  0  0
 24 23  2  0  0  0  0
 25 20  1  0  0  0  0
 26 27  2  0  0  0  0
 26 28  1  0  0  0  0
 28 29  1  0  0  0  0
 30 28  1  0  0  0  0
 31 21  1  0  0  0  0
 31 33  1  0  0  0  0
 32 31  1  0  0  0  0
 32 33  1  0  0  0  0
M  END
>  <minimizedAffinity>
-7.30015564

>  <minimizedRMSD>
0.319806725

$$$$
