
 OpenBabel03242520103D

 23 25  0  0  0  0  0  0  0  0999 V2000
   46.1870   32.6420   47.0510 C   0  0  0  0  0  0  0  0  0  0  0  0
   45.1360   32.4090   47.8960 C   0  0  0  0  0  0  0  0  0  0  0  0
   45.3530   31.6560   49.0270 C   0  0  0  0  0  0  0  0  0  0  0  0
   46.6060   31.1350   49.3180 C   0  0  0  0  0  0  0  0  0  0  0  0
   47.6490   31.3980   48.4280 C   0  0  0  0  0  0  0  0  0  0  0  0
   47.3910   32.1220   47.3620 N   0  0  0  0  0  0  0  0  0  0  0  0
   44.1600   32.8210   47.6610 H   0  0  0  0  0  0  0  0  0  0  0  0
   44.5460   31.4440   49.7300 H   0  0  0  0  0  0  0  0  0  0  0  0
   46.8300   30.5380   50.1910 H   0  0  0  0  0  0  0  0  0  0  0  0
   44.9380   35.0150   44.5610 C   0  0  0  0  0  0  0  0  0  0  0  0
   45.8680   34.8690   43.5280 C   0  0  0  0  0  0  0  0  0  0  0  0
   46.9340   33.9520   43.6800 C   0  0  0  0  0  0  0  0  0  0  0  0
   46.9660   33.2720   44.8500 N   0  0  0  0  0  0  0  0  0  0  0  0
   46.0590   33.4310   45.8240 C   0  0  0  0  0  0  0  0  0  0  0  0
   45.0410   34.3020   45.6850 N   0  0  0  0  0  0  0  0  0  0  0  0
   43.8820   35.9450   44.3690 N   0  0  0  0  0  0  0  0  0  0  0  0
   45.8330   35.4150   42.6050 H   0  0  0  0  0  0  0  0  0  0  0  0
   47.6850   33.7810   42.9420 H   0  0  0  0  0  0  0  0  0  0  0  0
   43.9750   36.8460   44.8450 H   0  0  0  0  0  0  0  0  0  0  0  0
   43.1830   35.4720   43.7320 H   0  0  0  0  0  0  0  0  0  0  0  0
   49.0170   30.8630   48.6890 C   0  0  0  0  0  0  0  0  0  0  0  0
   49.3770   30.4290   50.0660 C   0  0  0  0  0  0  0  0  0  0  0  0
   49.8990   31.7450   49.5670 C   0  0  0  0  0  0  0  0  0  0  0  0
  1  6  2  0  0  0  0
  1  2  1  0  0  0  0
  2  3  2  0  0  0  0
  3  4  1  0  0  0  0
  3  8  1  0  0  0  0
  4  9  1  0  0  0  0
  5 21  1  0  0  0  0
  5  4  2  0  0  0  0
  6  5  1  0  0  0  0
  7  2  1  0  0  0  0
 10 15  1  0  0  0  0
 11 12  1  0  0  0  0
 11 10  2  0  0  0  0
 12 13  2  0  0  0  0
 13 14  1  0  0  0  0
 14  1  1  0  0  0  0
 15 14  2  0  0  0  0
 16 10  1  0  0  0  0
 16 19  1  0  0  0  0
 17 11  1  0  0  0  0
 18 12  1  0  0  0  0
 20 16  1  0  0  0  0
 21 23  1  0  0  0  0
 21 22  1  0  0  0  0
 23 22  1  0  0  0  0
M  END
>  <minimizedAffinity>
-5.89218807

>  <minimizedRMSD>
0.381701052

$$$$
