
 OpenBabel03252508263D

 35 39  0  0  1  0  0  0  0  0999 V2000
   46.6470   32.4330   45.7540 C   0  0  1  0  0  0  0  0  0  0  0  0
   47.0350   32.6930   47.1480 C   0  0  0  0  0  0  0  0  0  0  0  0
   45.6530   32.0460   46.7340 C   0  0  2  0  0  0  0  0  0  0  0  0
   47.4760   31.7550   45.3380 H   0  0  0  0  0  0  0  0  0  0  0  0
   47.0060   33.7020   47.5500 H   0  0  0  0  0  0  0  0  0  0  0  0
   47.6080   31.9920   47.7770 H   0  0  0  0  0  0  0  0  0  0  0  0
   44.8960   32.7630   47.1880 H   0  0  0  0  0  0  0  0  0  0  0  0
   45.3510   30.6720   47.1430 C   0  0  0  0  0  0  0  0  0  0  0  0
   45.2350   30.1880   48.4060 C   0  0  0  0  0  0  0  0  0  0  0  0
   45.0750   28.8520   48.7550 C   0  0  0  0  0  0  0  0  0  0  0  0
   45.0320   27.9330   47.6970 C   0  0  0  0  0  0  0  0  0  0  0  0
   45.1460   28.4020   46.3870 C   0  0  0  0  0  0  0  0  0  0  0  0
   45.0330   27.4620   45.3780 C   0  0  0  0  0  0  0  0  0  0  0  0
   45.0680   27.8970   44.0550 C   0  0  0  0  0  0  0  0  0  0  0  0
   45.2090   29.2360   43.7530 C   0  0  0  0  0  0  0  0  0  0  0  0
   45.3190   30.1220   44.7990 C   0  0  0  0  0  0  0  0  0  0  0  0
   45.2990   29.7430   46.1340 C   0  0  0  0  0  0  0  0  0  0  0  0
   45.2730   30.9340   49.1980 H   0  0  0  0  0  0  0  0  0  0  0  0
   44.9880   28.5410   49.7840 H   0  0  0  0  0  0  0  0  0  0  0  0
   44.9120   26.9060   47.9690 H   0  0  0  0  0  0  0  0  0  0  0  0
   44.9210   26.4190   45.6450 H   0  0  0  0  0  0  0  0  0  0  0  0
   44.9720   27.0700   43.3430 H   0  0  0  0  0  0  0  0  0  0  0  0
   45.2100   29.3650   42.6990 H   0  0  0  0  0  0  0  0  0  0  0  0
   45.3290   31.0650   44.3300 H   0  0  0  0  0  0  0  0  0  0  0  0
   44.9300   35.2630   44.1200 C   0  0  0  0  0  0  0  0  0  0  0  0
   45.8100   35.5650   43.0240 C   0  0  0  0  0  0  0  0  0  0  0  0
   46.9950   34.7700   42.8960 C   0  0  0  0  0  0  0  0  0  0  0  0
   47.2390   33.7920   43.7840 N   0  0  0  0  0  0  0  0  0  0  0  0
   46.3510   33.5540   44.8130 C   0  0  0  0  0  0  0  0  0  0  0  0
   45.2380   34.2650   44.9740 N   0  0  0  0  0  0  0  0  0  0  0  0
   44.0560   35.8900   44.1680 H   0  0  0  0  0  0  0  0  0  0  0  0
   45.5750   36.3620   42.3320 H   0  0  0  0  0  0  0  0  0  0  0  0
   47.8880   35.0920   41.7690 C   0  0  0  0  0  3  0  0  0  0  0  0
   48.8920   34.0620   41.3910 C   0  0  0  0  0  2  0  0  0  0  0  0
   47.7310   34.4300   40.4640 C   0  0  0  0  0  2  0  0  0  0  0  0
  1  4  1  6  0  0  0
  1  3  1  0  0  0  0
  1  2  1  0  0  0  0
  2  5  1  0  0  0  0
  2  6  1  0  0  0  0
  3  8  1  0  0  0  0
  3  2  1  0  0  0  0
  3  7  1  1  0  0  0
  8  9  1  0  0  0  0
  9 10  2  0  0  0  0
  9 18  1  0  0  0  0
 10 19  1  0  0  0  0
 11 20  1  0  0  0  0
 11 10  1  0  0  0  0
 12 11  2  0  0  0  0
 13 21  1  0  0  0  0
 13 12  1  0  0  0  0
 14 13  2  0  0  0  0
 15 14  1  0  0  0  0
 15 16  2  0  0  0  0
 16 17  1  0  0  0  0
 17 12  1  0  0  0  0
 17  8  2  0  0  0  0
 22 14  1  0  0  0  0
 23 15  1  0  0  0  0
 24 16  1  0  0  0  0
 25 31  1  0  0  0  0
 25 30  1  0  0  0  0
 26 25  2  0  0  0  0
 27 26  1  0  0  0  0
 27 28  2  0  0  0  0
 28 29  1  0  0  0  0
 29 30  2  0  0  0  0
 29  1  1  0  0  0  0
 32 26  1  0  0  0  0
 33 27  1  0  0  0  0
 34 33  1  0  0  0  0
 35 34  1  0  0  0  0
 35 33  1  0  0  0  0
M  END
>  <minimizedAffinity>
-5.22899485

>  <minimizedRMSD>
0.794756949

$$$$
