
 OpenBabel03242520113D

 23 25  0  0  0  0  0  0  0  0999 V2000
   37.4480   29.0210   41.3770 C   0  0  0  0  0  0  0  0  0  0  0  0
   37.6280   29.3500   42.6930 C   0  0  0  0  0  0  0  0  0  0  0  0
   37.6250   28.3440   43.6320 C   0  0  0  0  0  0  0  0  0  0  0  0
   37.4450   27.0170   43.2670 C   0  0  0  0  0  0  0  0  0  0  0  0
   37.2660   26.7270   41.9120 C   0  0  0  0  0  0  0  0  0  0  0  0
   37.2760   27.7240   41.0550 N   0  0  0  0  0  0  0  0  0  0  0  0
   37.7680   30.3910   42.9690 H   0  0  0  0  0  0  0  0  0  0  0  0
   37.7640   28.5580   44.6920 H   0  0  0  0  0  0  0  0  0  0  0  0
   37.4350   26.1900   43.9630 H   0  0  0  0  0  0  0  0  0  0  0  0
   37.1960   32.2110   39.6010 C   0  0  0  0  0  0  0  0  0  0  0  0
   37.4200   31.8250   38.2770 C   0  0  0  0  0  0  0  0  0  0  0  0
   37.6610   30.4620   37.9840 C   0  0  0  0  0  0  0  0  0  0  0  0
   37.6530   29.6200   39.0430 N   0  0  0  0  0  0  0  0  0  0  0  0
   37.4350   30.0170   40.3040 C   0  0  0  0  0  0  0  0  0  0  0  0
   37.2050   31.3130   40.5900 N   0  0  0  0  0  0  0  0  0  0  0  0
   36.9590   33.5880   39.8540 N   0  0  0  0  0  0  0  0  0  0  0  0
   37.4240   32.5030   37.4450 H   0  0  0  0  0  0  0  0  0  0  0  0
   37.8410   30.0850   37.0020 H   0  0  0  0  0  0  0  0  0  0  0  0
   37.7420   34.1240   40.2360 H   0  0  0  0  0  0  0  0  0  0  0  0
   35.9560   33.7710   39.5730 H   0  0  0  0  0  0  0  0  0  0  0  0
   37.0670   25.3190   41.4630 C   0  0  0  0  0  3  0  0  0  0  0  0
   37.8200   24.2270   42.1360 C   0  0  0  0  0  2  0  0  0  0  0  0
   38.2730   24.6830   40.7790 C   0  0  0  0  0  2  0  0  0  0  0  0
  1  2  1  0  0  0  0
  2  7  1  0  0  0  0
  2  3  2  0  0  0  0
  3  8  1  0  0  0  0
  4  3  1  0  0  0  0
  4  9  1  0  0  0  0
  5  4  2  0  0  0  0
  6  1  2  0  0  0  0
  6  5  1  0  0  0  0
 10 16  1  0  0  0  0
 10 15  1  0  0  0  0
 11 10  2  0  0  0  0
 12 11  1  0  0  0  0
 12 13  2  0  0  0  0
 13 14  1  0  0  0  0
 14 15  2  0  0  0  0
 14  1  1  0  0  0  0
 16 19  1  0  0  0  0
 17 11  1  0  0  0  0
 18 12  1  0  0  0  0
 20 16  1  0  0  0  0
 21  5  1  0  0  0  0
 21 22  1  0  0  0  0
 23 21  1  0  0  0  0
 23 22  1  0  0  0  0
M  END
>  <minimizedAffinity>
-5.25768089

$$$$

 OpenBabel03242520113D

 23 25  0  0  0  0  0  0  0  0999 V2000
   37.8250   29.1550   41.9520 C   0  0  0  0  0  0  0  0  0  0  0  0
   37.6040   28.9300   43.2840 C   0  0  0  0  0  0  0  0  0  0  0  0
   37.1570   27.6910   43.6790 C   0  0  0  0  0  0  0  0  0  0  0  0
   36.9280   26.6780   42.7570 C   0  0  0  0  0  0  0  0  0  0  0  0
   37.1670   26.9520   41.4090 C   0  0  0  0  0  0  0  0  0  0  0  0
   37.5940   28.1510   41.0820 N   0  0  0  0  0  0  0  0  0  0  0  0
   37.7850   29.7280   43.9970 H   0  0  0  0  0  0  0  0  0  0  0  0
   36.9660   27.4650   44.7290 H   0  0  0  0  0  0  0  0  0  0  0  0
   36.5770   25.6880   43.0140 H   0  0  0  0  0  0  0  0  0  0  0  0
   37.8740   32.4900   40.4460 C   0  0  0  0  0  0  0  0  0  0  0  0
   39.2360   32.8020   40.4760 C   0  0  0  0  0  0  0  0  0  0  0  0
   40.1490   31.8670   41.0160 C   0  0  0  0  0  0  0  0  0  0  0  0
   39.6120   30.7120   41.4730 N   0  0  0  0  0  0  0  0  0  0  0  0
   38.3010   30.4370   41.4310 C   0  0  0  0  0  0  0  0  0  0  0  0
   37.4260   31.3230   40.9180 N   0  0  0  0  0  0  0  0  0  0  0  0
   36.9890   33.4550   39.8960 N   0  0  0  0  0  0  0  0  0  0  0  0
   39.6500   33.7220   40.1110 H   0  0  0  0  0  0  0  0  0  0  0  0
   41.2020   32.0280   41.0770 H   0  0  0  0  0  0  0  0  0  0  0  0
   36.4510   34.0140   40.5630 H   0  0  0  0  0  0  0  0  0  0  0  0
   37.0860   33.3800   38.8460 H   0  0  0  0  0  0  0  0  0  0  0  0
   36.9380   25.9010   40.3750 C   0  0  0  0  0  3  0  0  0  0  0  0
   36.8200   24.4790   40.7950 C   0  0  0  0  0  2  0  0  0  0  0  0
   38.1020   24.9380   40.1630 C   0  0  0  0  0  2  0  0  0  0  0  0
  1  2  1  0  0  0  0
  2  3  2  0  0  0  0
  2  7  1  0  0  0  0
  3  8  1  0  0  0  0
  4  9  1  0  0  0  0
  4  3  1  0  0  0  0
  5  4  2  0  0  0  0
  6  5  1  0  0  0  0
  6  1  2  0  0  0  0
 10 11  2  0  0  0  0
 10 15  1  0  0  0  0
 11 12  1  0  0  0  0
 12 18  1  0  0  0  0
 12 13  2  0  0  0  0
 14 13  1  0  0  0  0
 14  1  1  0  0  0  0
 15 14  2  0  0  0  0
 16 10  1  0  0  0  0
 16 19  1  0  0  0  0
 17 11  1  0  0  0  0
 20 16  1  0  0  0  0
 21 22  1  0  0  0  0
 21  5  1  0  0  0  0
 23 21  1  0  0  0  0
 23 22  1  0  0  0  0
M  END
>  <minimizedAffinity>
-5.1645422

$$$$

 OpenBabel03242520113D

 23 25  0  0  0  0  0  0  0  0999 V2000
   37.3560   30.5450   41.0630 C   0  0  0  0  0  0  0  0  0  0  0  0
   36.2030   30.1580   40.4360 C   0  0  0  0  0  0  0  0  0  0  0  0
   35.6320   28.9570   40.7870 C   0  0  0  0  0  0  0  0  0  0  0  0
   36.2030   28.1410   41.7550 C   0  0  0  0  0  0  0  0  0  0  0  0
   37.3790   28.5760   42.3690 C   0  0  0  0  0  0  0  0  0  0  0  0
   37.8850   29.7320   41.9990 N   0  0  0  0  0  0  0  0  0  0  0  0
   35.7640   30.8020   39.6800 H   0  0  0  0  0  0  0  0  0  0  0  0
   34.7130   28.6060   40.3150 H   0  0  0  0  0  0  0  0  0  0  0  0
   35.7950   27.1900   42.0670 H   0  0  0  0  0  0  0  0  0  0  0  0
   39.9460   33.1190   40.8200 C   0  0  0  0  0  0  0  0  0  0  0  0
   39.2630   34.1590   40.1810 C   0  0  0  0  0  0  0  0  0  0  0  0
   37.9050   33.9820   39.8290 C   0  0  0  0  0  0  0  0  0  0  0  0
   37.3630   32.7840   40.1490 N   0  0  0  0  0  0  0  0  0  0  0  0
   38.0400   31.8040   40.7620 C   0  0  0  0  0  0  0  0  0  0  0  0
   39.3340   31.9660   41.1010 N   0  0  0  0  0  0  0  0  0  0  0  0
   41.3080   33.3360   41.1570 N   0  0  0  0  0  0  0  0  0  0  0  0
   39.7050   35.1050   39.9330 H   0  0  0  0  0  0  0  0  0  0  0  0
   37.3130   34.7230   39.3410 H   0  0  0  0  0  0  0  0  0  0  0  0
   42.0050   32.9010   40.5460 H   0  0  0  0  0  0  0  0  0  0  0  0
   41.3050   33.9400   42.0250 H   0  0  0  0  0  0  0  0  0  0  0  0
   38.0360   27.7410   43.4150 C   0  0  0  0  0  3  0  0  0  0  0  0
   39.5210   27.6610   43.4560 C   0  0  0  0  0  2  0  0  0  0  0  0
   38.7530   26.4990   42.8950 C   0  0  0  0  0  2  0  0  0  0  0  0
  1  6  1  0  0  0  0
  2  3  1  0  0  0  0
  2  1  2  0  0  0  0
  3  4  2  0  0  0  0
  4  9  1  0  0  0  0
  4  5  1  0  0  0  0
  5 21  1  0  0  0  0
  6  5  2  0  0  0  0
  7  2  1  0  0  0  0
  8  3  1  0  0  0  0
 10 15  1  0  0  0  0
 10 16  1  0  0  0  0
 11 10  2  0  0  0  0
 12 13  2  0  0  0  0
 12 11  1  0  0  0  0
 13 14  1  0  0  0  0
 14  1  1  0  0  0  0
 14 15  2  0  0  0  0
 16 20  1  0  0  0  0
 17 11  1  0  0  0  0
 18 12  1  0  0  0  0
 19 16  1  0  0  0  0
 21 22  1  0  0  0  0
 23 21  1  0  0  0  0
 23 22  1  0  0  0  0
M  END
>  <minimizedAffinity>
-5.13898659

$$$$

 OpenBabel03242520113D

 23 25  0  0  0  0  0  0  0  0999 V2000
   38.0500   29.5350   41.8920 C   0  0  0  0  0  0  0  0  0  0  0  0
   36.7810   29.0310   41.7960 C   0  0  0  0  0  0  0  0  0  0  0  0
   36.5220   27.7880   42.3250 C   0  0  0  0  0  0  0  0  0  0  0  0
   37.5180   27.0470   42.9460 C   0  0  0  0  0  0  0  0  0  0  0  0
   38.7980   27.6000   43.0220 C   0  0  0  0  0  0  0  0  0  0  0  0
   38.9940   28.7900   42.5010 N   0  0  0  0  0  0  0  0  0  0  0  0
   36.0090   29.6180   41.3080 H   0  0  0  0  0  0  0  0  0  0  0  0
   35.5270   27.3460   42.2730 H   0  0  0  0  0  0  0  0  0  0  0  0
   37.3680   26.0670   43.3780 H   0  0  0  0  0  0  0  0  0  0  0  0
   37.8530   32.8280   40.3090 C   0  0  0  0  0  0  0  0  0  0  0  0
   39.1760   33.2710   40.3920 C   0  0  0  0  0  0  0  0  0  0  0  0
   40.1480   32.4380   40.9950 C   0  0  0  0  0  0  0  0  0  0  0  0
   39.7020   31.2460   41.4550 N   0  0  0  0  0  0  0  0  0  0  0  0
   38.4260   30.8470   41.3610 C   0  0  0  0  0  0  0  0  0  0  0  0
   37.4960   31.6340   40.7880 N   0  0  0  0  0  0  0  0  0  0  0  0
   36.9070   33.6930   39.6960 N   0  0  0  0  0  0  0  0  0  0  0  0
   39.5180   34.2190   40.0240 H   0  0  0  0  0  0  0  0  0  0  0  0
   41.1770   32.7000   41.0990 H   0  0  0  0  0  0  0  0  0  0  0  0
   36.2890   34.2110   40.3250 H   0  0  0  0  0  0  0  0  0  0  0  0
   37.0600   33.6060   38.6530 H   0  0  0  0  0  0  0  0  0  0  0  0
   39.9070   26.8480   43.6780 C   0  0  0  0  0  3  0  0  0  0  0  0
   41.2780   27.4240   43.6750 C   0  0  0  0  0  2  0  0  0  0  0  0
   40.9680   26.3020   42.7270 C   0  0  0  0  0  2  0  0  0  0  0  0
  1  6  1  0  0  0  0
  2  1  2  0  0  0  0
  2  3  1  0  0  0  0
  3  4  2  0  0  0  0
  4  5  1  0  0  0  0
  4  9  1  0  0  0  0
  5 21  1  0  0  0  0
  6  5  2  0  0  0  0
  7  2  1  0  0  0  0
  8  3  1  0  0  0  0
 10 11  2  0  0  0  0
 10 15  1  0  0  0  0
 11 12  1  0  0  0  0
 12 18  1  0  0  0  0
 12 13  2  0  0  0  0
 14 13  1  0  0  0  0
 14  1  1  0  0  0  0
 15 14  2  0  0  0  0
 16 10  1  0  0  0  0
 16 19  1  0  0  0  0
 17 11  1  0  0  0  0
 20 16  1  0  0  0  0
 22 21  1  0  0  0  0
 23 22  1  0  0  0  0
 23 21  1  0  0  0  0
M  END
>  <minimizedAffinity>
-5.06526136

$$$$

 OpenBabel03242520113D

 23 25  0  0  0  0  0  0  0  0999 V2000
   37.8100   30.2200   40.6770 C   0  0  0  0  0  0  0  0  0  0  0  0
   36.5300   30.0270   40.2300 C   0  0  0  0  0  0  0  0  0  0  0  0
   35.7670   29.0450   40.8170 C   0  0  0  0  0  0  0  0  0  0  0  0
   36.2700   28.2560   41.8420 C   0  0  0  0  0  0  0  0  0  0  0  0
   37.5790   28.4870   42.2670 C   0  0  0  0  0  0  0  0  0  0  0  0
   38.2680   29.4380   41.6750 N   0  0  0  0  0  0  0  0  0  0  0  0
   36.1460   30.6490   39.4280 H   0  0  0  0  0  0  0  0  0  0  0  0
   34.7430   28.8540   40.4940 H   0  0  0  0  0  0  0  0  0  0  0  0
   35.7130   27.4710   42.3370 H   0  0  0  0  0  0  0  0  0  0  0  0
   39.7310   32.2260   38.2960 C   0  0  0  0  0  0  0  0  0  0  0  0
   40.3640   33.1470   39.1360 C   0  0  0  0  0  0  0  0  0  0  0  0
   40.1350   33.0840   40.5300 C   0  0  0  0  0  0  0  0  0  0  0  0
   39.2950   32.1090   40.9470 N   0  0  0  0  0  0  0  0  0  0  0  0
   38.7010   31.2390   40.1200 C   0  0  0  0  0  0  0  0  0  0  0  0
   38.9160   31.2920   38.7910 N   0  0  0  0  0  0  0  0  0  0  0  0
   39.9880   32.3220   36.9020 N   0  0  0  0  0  0  0  0  0  0  0  0
   41.0280   33.9170   38.7920 H   0  0  0  0  0  0  0  0  0  0  0  0
   40.5770   33.7480   41.2380 H   0  0  0  0  0  0  0  0  0  0  0  0
   39.2590   32.7590   36.3330 H   0  0  0  0  0  0  0  0  0  0  0  0
   40.9410   31.8910   36.7470 H   0  0  0  0  0  0  0  0  0  0  0  0
   38.1720   27.6690   43.3650 C   0  0  0  0  0  3  0  0  0  0  0  0
   39.6490   27.5050   43.4340 C   0  0  0  0  0  2  0  0  0  0  0  0
   38.8210   26.3630   42.9190 C   0  0  0  0  0  2  0  0  0  0  0  0
  1  6  1  0  0  0  0
  2  1  2  0  0  0  0
  2  3  1  0  0  0  0
  3  4  2  0  0  0  0
  4  5  1  0  0  0  0
  4  9  1  0  0  0  0
  5 21  1  0  0  0  0
  6  5  2  0  0  0  0
  7  2  1  0  0  0  0
  8  3  1  0  0  0  0
 10 15  2  0  0  0  0
 10 11  1  0  0  0  0
 11 12  2  0  0  0  0
 12 13  1  0  0  0  0
 12 18  1  0  0  0  0
 14  1  1  0  0  0  0
 14 13  2  0  0  0  0
 15 14  1  0  0  0  0
 16 10  1  0  0  0  0
 17 11  1  0  0  0  0
 19 16  1  0  0  0  0
 20 16  1  0  0  0  0
 21 22  1  0  0  0  0
 23 21  1  0  0  0  0
 23 22  1  0  0  0  0
M  END
>  <minimizedAffinity>
-5.01758146

$$$$

 OpenBabel03242520113D

 23 25  0  0  0  0  0  0  0  0999 V2000
   38.8190   30.5490   41.1800 C   0  0  0  0  0  0  0  0  0  0  0  0
   39.1820   30.2620   42.4690 C   0  0  0  0  0  0  0  0  0  0  0  0
   38.4580   29.3230   43.1650 C   0  0  0  0  0  0  0  0  0  0  0  0
   37.3770   28.6710   42.5880 C   0  0  0  0  0  0  0  0  0  0  0  0
   37.0420   28.9940   41.2710 C   0  0  0  0  0  0  0  0  0  0  0  0
   37.7650   29.8980   40.6480 N   0  0  0  0  0  0  0  0  0  0  0  0
   40.0280   30.7770   42.9120 H   0  0  0  0  0  0  0  0  0  0  0  0
   38.7090   29.0620   44.1940 H   0  0  0  0  0  0  0  0  0  0  0  0
   36.7750   27.9260   43.0900 H   0  0  0  0  0  0  0  0  0  0  0  0
   40.1040   32.3610   38.2730 C   0  0  0  0  0  0  0  0  0  0  0  0
   40.8540   33.3770   38.8710 C   0  0  0  0  0  0  0  0  0  0  0  0
   40.9240   33.4470   40.2820 C   0  0  0  0  0  0  0  0  0  0  0  0
   40.2370   32.4950   40.9560 N   0  0  0  0  0  0  0  0  0  0  0  0
   39.5250   31.5310   40.3560 C   0  0  0  0  0  0  0  0  0  0  0  0
   39.4550   31.4590   39.0130 N   0  0  0  0  0  0  0  0  0  0  0  0
   40.0590   32.3250   36.8530 N   0  0  0  0  0  0  0  0  0  0  0  0
   41.3950   34.1270   38.3260 H   0  0  0  0  0  0  0  0  0  0  0  0
   41.4730   34.1890   40.8170 H   0  0  0  0  0  0  0  0  0  0  0  0
   39.2080   32.6840   36.4140 H   0  0  0  0  0  0  0  0  0  0  0  0
   40.9780   31.9070   36.5390 H   0  0  0  0  0  0  0  0  0  0  0  0
   35.8900   28.3250   40.6000 C   0  0  0  0  0  3  0  0  0  0  0  0
   35.7280   28.4600   39.1270 C   0  0  0  0  0  2  0  0  0  0  0  0
   34.8390   29.2700   40.0260 C   0  0  0  0  0  2  0  0  0  0  0  0
  1  2  1  0  0  0  0
  2  7  1  0  0  0  0
  2  3  2  0  0  0  0
  3  8  1  0  0  0  0
  4  9  1  0  0  0  0
  4  3  1  0  0  0  0
  5  4  2  0  0  0  0
  6  1  2  0  0  0  0
  6  5  1  0  0  0  0
 10 11  2  0  0  0  0
 10 15  1  0  0  0  0
 11 12  1  0  0  0  0
 12 18  1  0  0  0  0
 12 13  2  0  0  0  0
 14 13  1  0  0  0  0
 14  1  1  0  0  0  0
 15 14  2  0  0  0  0
 16 10  1  0  0  0  0
 17 11  1  0  0  0  0
 19 16  1  0  0  0  0
 20 16  1  0  0  0  0
 21  5  1  0  0  0  0
 22 23  1  0  0  0  0
 22 21  1  0  0  0  0
 23 21  1  0  0  0  0
M  END
>  <minimizedAffinity>
-4.94355774

$$$$

 OpenBabel03242520113D

 23 25  0  0  0  0  0  0  0  0999 V2000
   37.3480   29.1700   41.2660 C   0  0  0  0  0  0  0  0  0  0  0  0
   37.4900   29.3890   42.6100 C   0  0  0  0  0  0  0  0  0  0  0  0
   37.4600   28.3090   43.4620 C   0  0  0  0  0  0  0  0  0  0  0  0
   37.2880   27.0170   42.9840 C   0  0  0  0  0  0  0  0  0  0  0  0
   37.1480   26.8400   41.6060 C   0  0  0  0  0  0  0  0  0  0  0  0
   37.1830   27.9040   40.8340 N   0  0  0  0  0  0  0  0  0  0  0  0
   37.6230   30.4030   42.9740 H   0  0  0  0  0  0  0  0  0  0  0  0
   37.5680   28.4350   44.5400 H   0  0  0  0  0  0  0  0  0  0  0  0
   37.2580   26.1360   43.6090 H   0  0  0  0  0  0  0  0  0  0  0  0
   37.5160   30.9600   38.0790 C   0  0  0  0  0  0  0  0  0  0  0  0
   37.3950   32.2920   38.4870 C   0  0  0  0  0  0  0  0  0  0  0  0
   37.2540   32.5840   39.8640 C   0  0  0  0  0  0  0  0  0  0  0  0
   37.2480   31.5180   40.6970 N   0  0  0  0  0  0  0  0  0  0  0  0
   37.3660   30.2510   40.2790 C   0  0  0  0  0  0  0  0  0  0  0  0
   37.5010   29.9650   38.9690 N   0  0  0  0  0  0  0  0  0  0  0  0
   37.6560   30.7070   36.6890 N   0  0  0  0  0  0  0  0  0  0  0  0
   37.4010   33.1290   37.8160 H   0  0  0  0  0  0  0  0  0  0  0  0
   37.1560   33.5710   40.2570 H   0  0  0  0  0  0  0  0  0  0  0  0
   36.8200   30.3780   36.1980 H   0  0  0  0  0  0  0  0  0  0  0  0
   38.6610   30.9300   36.4480 H   0  0  0  0  0  0  0  0  0  0  0  0
   36.9610   25.4740   41.0370 C   0  0  0  0  0  3  0  0  0  0  0  0
   37.2190   24.2870   41.8950 C   0  0  0  0  0  2  0  0  0  0  0  0
   38.2420   24.6650   40.8640 C   0  0  0  0  0  2  0  0  0  0  0  0
  1  2  1  0  0  0  0
  2  7  1  0  0  0  0
  2  3  2  0  0  0  0
  3  8  1  0  0  0  0
  4  3  1  0  0  0  0
  4  9  1  0  0  0  0
  5  4  2  0  0  0  0
  6  1  2  0  0  0  0
  6  5  1  0  0  0  0
 10 11  2  0  0  0  0
 10 15  1  0  0  0  0
 11 12  1  0  0  0  0
 12 18  1  0  0  0  0
 12 13  2  0  0  0  0
 14 13  1  0  0  0  0
 14  1  1  0  0  0  0
 15 14  2  0  0  0  0
 16 10  1  0  0  0  0
 17 11  1  0  0  0  0
 19 16  1  0  0  0  0
 20 16  1  0  0  0  0
 21  5  1  0  0  0  0
 21 22  1  0  0  0  0
 23 21  1  0  0  0  0
 23 22  1  0  0  0  0
M  END
>  <minimizedAffinity>
-4.91455269

$$$$

 OpenBabel03242520113D

 23 25  0  0  0  0  0  0  0  0999 V2000
   37.4980   29.4150   39.8400 C   0  0  0  0  0  0  0  0  0  0  0  0
   37.0580   28.8030   38.6970 C   0  0  0  0  0  0  0  0  0  0  0  0
   36.6040   27.5060   38.7750 C   0  0  0  0  0  0  0  0  0  0  0  0
   36.5880   26.8180   39.9800 C   0  0  0  0  0  0  0  0  0  0  0  0
   37.0450   27.4820   41.1210 C   0  0  0  0  0  0  0  0  0  0  0  0
   37.4680   28.7200   40.9950 N   0  0  0  0  0  0  0  0  0  0  0  0
   37.0750   29.3490   37.7590 H   0  0  0  0  0  0  0  0  0  0  0  0
   36.2450   26.9780   37.8910 H   0  0  0  0  0  0  0  0  0  0  0  0
   36.2420   25.8000   40.0960 H   0  0  0  0  0  0  0  0  0  0  0  0
   37.6600   33.0570   39.5290 C   0  0  0  0  0  0  0  0  0  0  0  0
   38.9750   33.3240   39.9220 C   0  0  0  0  0  0  0  0  0  0  0  0
   39.8170   32.2510   40.2970 C   0  0  0  0  0  0  0  0  0  0  0  0
   39.2620   31.0180   40.2440 N   0  0  0  0  0  0  0  0  0  0  0  0
   37.9980   30.7900   39.8630 C   0  0  0  0  0  0  0  0  0  0  0  0
   37.1910   31.8070   39.5040 N   0  0  0  0  0  0  0  0  0  0  0  0
   36.8470   34.1610   39.1600 N   0  0  0  0  0  0  0  0  0  0  0  0
   39.4040   34.3070   39.9610 H   0  0  0  0  0  0  0  0  0  0  0  0
   40.8300   32.3680   40.6100 H   0  0  0  0  0  0  0  0  0  0  0  0
   36.1670   34.4800   39.8540 H   0  0  0  0  0  0  0  0  0  0  0  0
   37.1430   34.4310   38.1810 H   0  0  0  0  0  0  0  0  0  0  0  0
   37.0500   26.7910   42.4430 C   0  0  0  0  0  3  0  0  0  0  0  0
   36.8180   27.5850   43.6790 C   0  0  0  0  0  2  0  0  0  0  0  0
   38.2180   27.1520   43.3560 C   0  0  0  0  0  2  0  0  0  0  0  0
  1 14  1  0  0  0  0
  1  6  1  0  0  0  0
  2  3  1  0  0  0  0
  2  1  2  0  0  0  0
  3  4  2  0  0  0  0
  4  9  1  0  0  0  0
  4  5  1  0  0  0  0
  5 21  1  0  0  0  0
  6  5  2  0  0  0  0
  7  2  1  0  0  0  0
  8  3  1  0  0  0  0
 10 11  1  0  0  0  0
 11 17  1  0  0  0  0
 11 12  2  0  0  0  0
 12 18  1  0  0  0  0
 13 12  1  0  0  0  0
 14 13  2  0  0  0  0
 15 10  2  0  0  0  0
 15 14  1  0  0  0  0
 16 10  1  0  0  0  0
 16 19  1  0  0  0  0
 20 16  1  0  0  0  0
 21 23  1  0  0  0  0
 21 22  1  0  0  0  0
 23 22  1  0  0  0  0
M  END
>  <minimizedAffinity>
-4.79507542

$$$$

 OpenBabel03242520113D

 23 25  0  0  0  0  0  0  0  0999 V2000
   36.1750   29.7120   39.1050 C   0  0  0  0  0  0  0  0  0  0  0  0
   36.6300   30.9480   39.4790 C   0  0  0  0  0  0  0  0  0  0  0  0
   37.0140   31.1430   40.7850 C   0  0  0  0  0  0  0  0  0  0  0  0
   36.9460   30.1170   41.7180 C   0  0  0  0  0  0  0  0  0  0  0  0
   36.4760   28.8730   41.2930 C   0  0  0  0  0  0  0  0  0  0  0  0
   36.1220   28.7370   40.0350 N   0  0  0  0  0  0  0  0  0  0  0  0
   36.6800   31.7430   38.7420 H   0  0  0  0  0  0  0  0  0  0  0  0
   37.3830   32.1100   41.1300 H   0  0  0  0  0  0  0  0  0  0  0  0
   37.2340   30.2170   42.7560 H   0  0  0  0  0  0  0  0  0  0  0  0
   36.2420   29.0700   35.5030 C   0  0  0  0  0  0  0  0  0  0  0  0
   34.8940   28.8270   35.2260 C   0  0  0  0  0  0  0  0  0  0  0  0
   33.9500   28.8810   36.2780 C   0  0  0  0  0  0  0  0  0  0  0  0
   34.4460   29.1730   37.5030 N   0  0  0  0  0  0  0  0  0  0  0  0
   35.7450   29.4030   37.7400 C   0  0  0  0  0  0  0  0  0  0  0  0
   36.6490   29.3530   36.7430 N   0  0  0  0  0  0  0  0  0  0  0  0
   37.1580   29.0060   34.4200 N   0  0  0  0  0  0  0  0  0  0  0  0
   34.5120   28.5950   34.2500 H   0  0  0  0  0  0  0  0  0  0  0  0
   32.9050   28.7080   36.1520 H   0  0  0  0  0  0  0  0  0  0  0  0
   37.7240   28.1570   34.3500 H   0  0  0  0  0  0  0  0  0  0  0  0
   37.0480   29.9120   33.8860 H   0  0  0  0  0  0  0  0  0  0  0  0
   36.3810   27.7350   42.2530 C   0  0  0  0  0  3  0  0  0  0  0  0
   37.0470   27.8430   43.5780 C   0  0  0  0  0  2  0  0  0  0  0  0
   37.6930   27.0020   42.5170 C   0  0  0  0  0  2  0  0  0  0  0  0
  1  2  2  0  0  0  0
  1  6  1  0  0  0  0
  2  3  1  0  0  0  0
  3  8  1  0  0  0  0
  3  4  2  0  0  0  0
  4  9  1  0  0  0  0
  5  4  1  0  0  0  0
  5 21  1  0  0  0  0
  6  5  2  0  0  0  0
  7  2  1  0  0  0  0
 10 15  1  0  0  0  0
 11 10  2  0  0  0  0
 11 12  1  0  0  0  0
 12 13  2  0  0  0  0
 13 14  1  0  0  0  0
 14  1  1  0  0  0  0
 15 14  2  0  0  0  0
 16 10  1  0  0  0  0
 17 11  1  0  0  0  0
 18 12  1  0  0  0  0
 19 16  1  0  0  0  0
 20 16  1  0  0  0  0
 21 23  1  0  0  0  0
 21 22  1  0  0  0  0
 23 22  1  0  0  0  0
M  END
>  <minimizedAffinity>
-4.7211442

$$$$
