
 OpenBabel03242516013D

 22 24  0  0  0  0  0  0  0  0999 V2000
   39.2760   30.3870   42.5330 Cl  0  0  0  0  0  0  0  0  0  0  0  0
   37.8630   30.1960   41.5310 C   0  0  0  0  0  0  0  0  0  0  0  0
   37.6650   30.9740   40.4430 C   0  0  0  0  0  0  0  0  0  0  0  0
   36.5040   30.7340   39.7210 C   0  0  0  0  0  0  0  0  0  0  0  0
   35.6040   29.7790   40.0700 C   0  0  0  0  0  0  0  0  0  0  0  0
   35.8220   28.9970   41.1820 C   0  0  0  0  0  0  0  0  0  0  0  0
   36.9610   29.2190   41.9050 C   0  0  0  0  0  0  0  0  0  0  0  0
   36.3190   31.3460   38.8380 H   0  0  0  0  0  0  0  0  0  0  0  0
   34.7210   29.6510   39.4560 H   0  0  0  0  0  0  0  0  0  0  0  0
   35.0640   28.2660   41.3900 H   0  0  0  0  0  0  0  0  0  0  0  0
   40.5910   32.7720   38.8590 C   0  0  0  0  0  0  0  0  0  0  0  0
   39.6540   31.7770   39.1700 C   0  0  0  0  0  0  0  0  0  0  0  0
   38.6510   31.9860   40.1000 C   0  0  0  0  0  0  0  0  0  0  0  0
   38.6240   33.2140   40.6970 N   0  0  0  0  0  0  0  0  0  0  0  0
   39.5290   34.1610   40.3890 C   0  0  0  0  0  0  0  0  0  0  0  0
   40.4990   33.9490   39.4870 N   0  0  0  0  0  0  0  0  0  0  0  0
   41.3570   32.5570   38.1240 H   0  0  0  0  0  0  0  0  0  0  0  0
   39.6990   30.8080   38.6790 H   0  0  0  0  0  0  0  0  0  0  0  0
   39.3820   35.0890   40.9450 H   0  0  0  0  0  0  0  0  0  0  0  0
   37.2070   28.3800   43.1090 C   0  0  0  0  0  3  0  0  0  0  0  0
   37.8940   27.0300   42.8720 C   0  0  0  0  0  2  0  0  0  0  0  0
   36.4920   27.0850   43.2900 C   0  0  0  0  0  2  0  0  0  0  0  0
  2  7  1  0  0  0  0
  2  1  1  0  0  0  0
  3  2  2  0  0  0  0
  4  5  2  0  0  0  0
  4  3  1  0  0  0  0
  5  6  1  0  0  0  0
  6 10  1  0  0  0  0
  6  7  2  0  0  0  0
  7 20  1  0  0  0  0
  8  4  1  0  0  0  0
  9  5  1  0  0  0  0
 11 12  2  0  0  0  0
 11 16  1  0  0  0  0
 12 13  1  0  0  0  0
 13  3  1  0  0  0  0
 13 14  2  0  0  0  0
 15 14  1  0  0  0  0
 15 19  1  0  0  0  0
 16 15  2  0  0  0  0
 17 11  1  0  0  0  0
 18 12  1  0  0  0  0
 20 22  1  0  0  0  0
 21 20  1  0  0  0  0
 21 22  1  0  0  0  0
M  END
>  <minimizedAffinity>
-4.94010592

$$$$

 OpenBabel03242516013D

 22 24  0  0  0  0  0  0  0  0999 V2000
   38.3750   28.2250   39.4440 Cl  0  0  0  0  0  0  0  0  0  0  0  0
   37.8080   28.0410   41.0810 C   0  0  0  0  0  0  0  0  0  0  0  0
   37.6770   29.1090   41.9010 C   0  0  0  0  0  0  0  0  0  0  0  0
   37.2180   28.8440   43.1830 C   0  0  0  0  0  0  0  0  0  0  0  0
   36.9140   27.5920   43.6130 C   0  0  0  0  0  0  0  0  0  0  0  0
   37.0550   26.5160   42.7640 C   0  0  0  0  0  0  0  0  0  0  0  0
   37.5060   26.7600   41.4960 C   0  0  0  0  0  0  0  0  0  0  0  0
   37.1020   29.6850   43.8660 H   0  0  0  0  0  0  0  0  0  0  0  0
   36.5620   27.4640   44.6290 H   0  0  0  0  0  0  0  0  0  0  0  0
   36.7950   25.5620   43.1790 H   0  0  0  0  0  0  0  0  0  0  0  0
   37.4610   32.5120   40.2630 C   0  0  0  0  0  0  0  0  0  0  0  0
   37.1100   31.2360   40.7280 C   0  0  0  0  0  0  0  0  0  0  0  0
   38.0120   30.4340   41.4060 C   0  0  0  0  0  0  0  0  0  0  0  0
   39.2600   30.9540   41.5980 N   0  0  0  0  0  0  0  0  0  0  0  0
   39.5840   32.1800   41.1460 C   0  0  0  0  0  0  0  0  0  0  0  0
   38.7040   32.9490   40.4890 N   0  0  0  0  0  0  0  0  0  0  0  0
   36.7180   33.0990   39.7370 H   0  0  0  0  0  0  0  0  0  0  0  0
   36.1080   30.8470   40.5610 H   0  0  0  0  0  0  0  0  0  0  0  0
   40.6150   32.4590   41.3730 H   0  0  0  0  0  0  0  0  0  0  0  0
   37.6620   25.6060   40.5700 C   0  0  0  0  0  3  0  0  0  0  0  0
   36.4220   25.2040   39.7630 C   0  0  0  0  0  2  0  0  0  0  0  0
   36.9340   24.3290   40.8190 C   0  0  0  0  0  2  0  0  0  0  0  0
  1  2  1  0  0  0  0
  2  7  2  0  0  0  0
  2  3  1  0  0  0  0
  3  4  2  0  0  0  0
  4  5  1  0  0  0  0
  4  8  1  0  0  0  0
  5  9  1  0  0  0  0
  6 10  1  0  0  0  0
  6  5  2  0  0  0  0
  7  6  1  0  0  0  0
 11 16  2  0  0  0  0
 11 12  1  0  0  0  0
 12 13  2  0  0  0  0
 13 14  1  0  0  0  0
 13  3  1  0  0  0  0
 15 19  1  0  0  0  0
 15 14  2  0  0  0  0
 16 15  1  0  0  0  0
 17 11  1  0  0  0  0
 18 12  1  0  0  0  0
 20 22  1  0  0  0  0
 20  7  1  0  0  0  0
 21 20  1  0  0  0  0
 21 22  1  0  0  0  0
M  END
>  <minimizedAffinity>
-4.65625143

$$$$

 OpenBabel03242516013D

 22 24  0  0  0  0  0  0  0  0999 V2000
   36.2760   27.7400   40.2490 Cl  0  0  0  0  0  0  0  0  0  0  0  0
   37.6110   27.9130   41.3560 C   0  0  0  0  0  0  0  0  0  0  0  0
   38.3830   29.0230   41.3550 C   0  0  0  0  0  0  0  0  0  0  0  0
   39.4180   29.0510   42.2780 C   0  0  0  0  0  0  0  0  0  0  0  0
   39.6620   28.0320   43.1420 C   0  0  0  0  0  0  0  0  0  0  0  0
   38.8670   26.9080   43.1280 C   0  0  0  0  0  0  0  0  0  0  0  0
   37.8410   26.8650   42.2240 C   0  0  0  0  0  0  0  0  0  0  0  0
   40.0560   29.9350   42.3010 H   0  0  0  0  0  0  0  0  0  0  0  0
   40.4900   28.1260   43.8340 H   0  0  0  0  0  0  0  0  0  0  0  0
   39.1250   26.1480   43.8400 H   0  0  0  0  0  0  0  0  0  0  0  0
   37.0150   32.1900   39.8020 C   0  0  0  0  0  0  0  0  0  0  0  0
   37.2790   31.1710   40.7280 C   0  0  0  0  0  0  0  0  0  0  0  0
   38.0910   30.0950   40.4160 C   0  0  0  0  0  0  0  0  0  0  0  0
   38.6220   30.0810   39.1580 N   0  0  0  0  0  0  0  0  0  0  0  0
   38.3620   31.0660   38.2780 C   0  0  0  0  0  0  0  0  0  0  0  0
   37.5720   32.1050   38.5900 N   0  0  0  0  0  0  0  0  0  0  0  0
   36.3720   33.0100   40.0970 H   0  0  0  0  0  0  0  0  0  0  0  0
   36.8420   31.2070   41.7240 H   0  0  0  0  0  0  0  0  0  0  0  0
   38.8550   30.9200   37.3160 H   0  0  0  0  0  0  0  0  0  0  0  0
   36.9750   25.6550   42.1990 C   0  0  0  0  0  3  0  0  0  0  0  0
   37.6930   24.3000   42.2250 C   0  0  0  0  0  2  0  0  0  0  0  0
   36.9830   24.7390   41.0220 C   0  0  0  0  0  2  0  0  0  0  0  0
  1  2  1  0  0  0  0
  2  7  1  0  0  0  0
  3  2  2  0  0  0  0
  3  4  1  0  0  0  0
  4  8  1  0  0  0  0
  4  5  2  0  0  0  0
  5  9  1  0  0  0  0
  6  5  1  0  0  0  0
  6 10  1  0  0  0  0
  7  6  2  0  0  0  0
 11 17  1  0  0  0  0
 11 12  1  0  0  0  0
 12 18  1  0  0  0  0
 13 12  2  0  0  0  0
 13  3  1  0  0  0  0
 14 13  1  0  0  0  0
 15 16  1  0  0  0  0
 15 14  2  0  0  0  0
 16 11  2  0  0  0  0
 19 15  1  0  0  0  0
 20  7  1  0  0  0  0
 20 21  1  0  0  0  0
 22 20  1  0  0  0  0
 22 21  1  0  0  0  0
M  END
>  <minimizedAffinity>
-4.56221247

$$$$

 OpenBabel03242516013D

 22 24  0  0  0  0  0  0  0  0999 V2000
   36.4290   26.8980   39.3790 Cl  0  0  0  0  0  0  0  0  0  0  0  0
   37.0910   27.1860   40.9650 C   0  0  0  0  0  0  0  0  0  0  0  0
   37.8470   26.2550   41.5890 C   0  0  0  0  0  0  0  0  0  0  0  0
   38.3200   26.5930   42.8490 C   0  0  0  0  0  0  0  0  0  0  0  0
   38.0490   27.7840   43.4420 C   0  0  0  0  0  0  0  0  0  0  0  0
   37.2760   28.7200   42.7920 C   0  0  0  0  0  0  0  0  0  0  0  0
   36.8030   28.4040   41.5480 C   0  0  0  0  0  0  0  0  0  0  0  0
   38.9330   25.8620   43.3750 H   0  0  0  0  0  0  0  0  0  0  0  0
   38.4530   27.9760   44.4280 H   0  0  0  0  0  0  0  0  0  0  0  0
   37.1080   29.6350   43.3270 H   0  0  0  0  0  0  0  0  0  0  0  0
   37.6320   22.6510   40.4620 C   0  0  0  0  0  0  0  0  0  0  0  0
   37.3500   23.8570   41.1190 C   0  0  0  0  0  0  0  0  0  0  0  0
   38.1170   24.9910   40.9220 C   0  0  0  0  0  0  0  0  0  0  0  0
   39.1630   24.8720   40.0530 N   0  0  0  0  0  0  0  0  0  0  0  0
   39.4250   23.7080   39.4290 C   0  0  0  0  0  0  0  0  0  0  0  0
   38.6750   22.6140   39.6260 N   0  0  0  0  0  0  0  0  0  0  0  0
   37.0010   21.7920   40.6510 H   0  0  0  0  0  0  0  0  0  0  0  0
   36.5090   23.9230   41.8060 H   0  0  0  0  0  0  0  0  0  0  0  0
   40.2900   23.7650   38.7660 H   0  0  0  0  0  0  0  0  0  0  0  0
   35.9660   29.4070   40.8370 C   0  0  0  0  0  3  0  0  0  0  0  0
   36.6860   30.2960   39.8150 C   0  0  0  0  0  2  0  0  0  0  0  0
   36.1730   30.8660   41.0620 C   0  0  0  0  0  2  0  0  0  0  0  0
  1  2  1  0  0  0  0
  2  7  2  0  0  0  0
  2  3  1  0  0  0  0
  3  4  2  0  0  0  0
  4  8  1  0  0  0  0
  4  5  1  0  0  0  0
  5  9  1  0  0  0  0
  6 10  1  0  0  0  0
  6  5  2  0  0  0  0
  7  6  1  0  0  0  0
 11 17  1  0  0  0  0
 11 12  1  0  0  0  0
 12 18  1  0  0  0  0
 13 12  2  0  0  0  0
 13  3  1  0  0  0  0
 14 13  1  0  0  0  0
 15 16  1  0  0  0  0
 15 14  2  0  0  0  0
 16 11  2  0  0  0  0
 19 15  1  0  0  0  0
 20 22  1  0  0  0  0
 20  7  1  0  0  0  0
 21 20  1  0  0  0  0
 21 22  1  0  0  0  0
M  END
>  <minimizedAffinity>
-4.54405737

$$$$

 OpenBabel03242516013D

 22 24  0  0  0  0  0  0  0  0999 V2000
   37.2940   30.8970   37.0200 Cl  0  0  0  0  0  0  0  0  0  0  0  0
   36.5160   30.2590   38.4430 C   0  0  0  0  0  0  0  0  0  0  0  0
   36.8040   30.7410   39.6730 C   0  0  0  0  0  0  0  0  0  0  0  0
   36.1250   30.1570   40.7340 C   0  0  0  0  0  0  0  0  0  0  0  0
   35.2220   29.1570   40.5690 C   0  0  0  0  0  0  0  0  0  0  0  0
   34.9430   28.6780   39.3080 C   0  0  0  0  0  0  0  0  0  0  0  0
   35.6020   29.2430   38.2510 C   0  0  0  0  0  0  0  0  0  0  0  0
   36.3370   30.5250   41.7380 H   0  0  0  0  0  0  0  0  0  0  0  0
   34.7330   28.7510   41.4450 H   0  0  0  0  0  0  0  0  0  0  0  0
   34.2180   27.8880   39.2620 H   0  0  0  0  0  0  0  0  0  0  0  0
   38.3800   34.1590   40.0490 C   0  0  0  0  0  0  0  0  0  0  0  0
   37.4200   33.1460   39.9160 C   0  0  0  0  0  0  0  0  0  0  0  0
   37.7760   31.8130   39.8110 C   0  0  0  0  0  0  0  0  0  0  0  0
   39.1140   31.5390   39.8450 N   0  0  0  0  0  0  0  0  0  0  0  0
   40.0260   32.5200   39.9730 C   0  0  0  0  0  0  0  0  0  0  0  0
   39.6700   33.8100   40.0730 N   0  0  0  0  0  0  0  0  0  0  0  0
   38.0480   35.1870   40.1270 H   0  0  0  0  0  0  0  0  0  0  0  0
   36.3610   33.3930   39.8920 H   0  0  0  0  0  0  0  0  0  0  0  0
   41.0520   32.1500   39.9840 H   0  0  0  0  0  0  0  0  0  0  0  0
   35.3090   28.7340   36.8850 C   0  0  0  0  0  3  0  0  0  0  0  0
   33.9570   29.1350   36.2810 C   0  0  0  0  0  2  0  0  0  0  0  0
   34.2150   27.7450   36.6610 C   0  0  0  0  0  2  0  0  0  0  0  0
  1  2  1  0  0  0  0
  2  3  1  0  0  0  0
  3 13  1  0  0  0  0
  3  4  2  0  0  0  0
  4  8  1  0  0  0  0
  5  4  1  0  0  0  0
  5  9  1  0  0  0  0
  6  5  2  0  0  0  0
  7  2  2  0  0  0  0
  7  6  1  0  0  0  0
 10  6  1  0  0  0  0
 11 16  1  0  0  0  0
 11 17  1  0  0  0  0
 12 11  2  0  0  0  0
 13 14  2  0  0  0  0
 13 12  1  0  0  0  0
 14 15  1  0  0  0  0
 15 19  1  0  0  0  0
 15 16  2  0  0  0  0
 18 12  1  0  0  0  0
 20  7  1  0  0  0  0
 21 22  1  0  0  0  0
 21 20  1  0  0  0  0
 22 20  1  0  0  0  0
M  END
>  <minimizedAffinity>
-4.53295231

$$$$

 OpenBabel03242516013D

 22 24  0  0  0  0  0  0  0  0999 V2000
   36.2430   26.8120   39.5290 Cl  0  0  0  0  0  0  0  0  0  0  0  0
   36.3730   28.4680   40.0520 C   0  0  0  0  0  0  0  0  0  0  0  0
   35.9700   29.4870   39.2600 C   0  0  0  0  0  0  0  0  0  0  0  0
   36.1220   30.7650   39.7800 C   0  0  0  0  0  0  0  0  0  0  0  0
   36.6440   31.0020   41.0100 C   0  0  0  0  0  0  0  0  0  0  0  0
   37.0510   29.9520   41.8030 C   0  0  0  0  0  0  0  0  0  0  0  0
   36.9070   28.6860   41.3060 C   0  0  0  0  0  0  0  0  0  0  0  0
   35.8050   31.6060   39.1630 H   0  0  0  0  0  0  0  0  0  0  0  0
   36.7320   32.0270   41.3470 H   0  0  0  0  0  0  0  0  0  0  0  0
   37.4530   30.2220   42.7600 H   0  0  0  0  0  0  0  0  0  0  0  0
   33.5630   28.6600   36.4620 C   0  0  0  0  0  0  0  0  0  0  0  0
   34.0710   28.9380   37.7390 C   0  0  0  0  0  0  0  0  0  0  0  0
   35.4140   29.1950   37.9490 C   0  0  0  0  0  0  0  0  0  0  0  0
   36.2170   29.1640   36.8440 N   0  0  0  0  0  0  0  0  0  0  0  0
   35.7170   28.8960   35.6240 C   0  0  0  0  0  0  0  0  0  0  0  0
   34.4130   28.6470   35.4300 N   0  0  0  0  0  0  0  0  0  0  0  0
   32.5030   28.4650   36.3520 H   0  0  0  0  0  0  0  0  0  0  0  0
   33.4080   28.9560   38.6010 H   0  0  0  0  0  0  0  0  0  0  0  0
   36.4760   28.9060   34.8400 H   0  0  0  0  0  0  0  0  0  0  0  0
   37.3430   27.5430   42.1540 C   0  0  0  0  0  3  0  0  0  0  0  0
   36.4850   27.2410   43.3880 C   0  0  0  0  0  2  0  0  0  0  0  0
   37.8410   27.7720   43.5410 C   0  0  0  0  0  2  0  0  0  0  0  0
  1  2  1  0  0  0  0
  2  7  1  0  0  0  0
  3  4  1  0  0  0  0
  3  2  2  0  0  0  0
  4  5  2  0  0  0  0
  5  9  1  0  0  0  0
  5  6  1  0  0  0  0
  6 10  1  0  0  0  0
  7  6  2  0  0  0  0
  7 20  1  0  0  0  0
  8  4  1  0  0  0  0
 11 12  1  0  0  0  0
 12 13  2  0  0  0  0
 12 18  1  0  0  0  0
 13  3  1  0  0  0  0
 14 13  1  0  0  0  0
 15 14  2  0  0  0  0
 16 15  1  0  0  0  0
 16 11  2  0  0  0  0
 17 11  1  0  0  0  0
 19 15  1  0  0  0  0
 20 21  1  0  0  0  0
 20 22  1  0  0  0  0
 21 22  1  0  0  0  0
M  END
>  <minimizedAffinity>
-4.52457809

$$$$

 OpenBabel03242516013D

 22 24  0  0  0  0  0  0  0  0999 V2000
   39.9070   29.7480   40.5660 Cl  0  0  0  0  0  0  0  0  0  0  0  0
   38.1850   29.4970   40.6540 C   0  0  0  0  0  0  0  0  0  0  0  0
   37.6660   28.3950   41.2420 C   0  0  0  0  0  0  0  0  0  0  0  0
   36.2820   28.3000   41.2530 C   0  0  0  0  0  0  0  0  0  0  0  0
   35.4750   29.2470   40.7090 C   0  0  0  0  0  0  0  0  0  0  0  0
   36.0200   30.3620   40.1130 C   0  0  0  0  0  0  0  0  0  0  0  0
   37.3830   30.4720   40.0940 C   0  0  0  0  0  0  0  0  0  0  0  0
   35.8360   27.4230   41.7210 H   0  0  0  0  0  0  0  0  0  0  0  0
   34.4020   29.1020   40.7560 H   0  0  0  0  0  0  0  0  0  0  0  0
   35.3160   31.0620   39.7070 H   0  0  0  0  0  0  0  0  0  0  0  0
   39.7750   26.4140   43.6790 C   0  0  0  0  0  0  0  0  0  0  0  0
   38.9090   27.3840   43.1540 C   0  0  0  0  0  0  0  0  0  0  0  0
   38.5620   27.4030   41.8150 C   0  0  0  0  0  0  0  0  0  0  0  0
   39.1080   26.4250   41.0330 N   0  0  0  0  0  0  0  0  0  0  0  0
   39.9380   25.5000   41.5490 C   0  0  0  0  0  0  0  0  0  0  0  0
   40.2690   25.4900   42.8480 N   0  0  0  0  0  0  0  0  0  0  0  0
   40.0150   26.4440   44.7340 H   0  0  0  0  0  0  0  0  0  0  0  0
   38.4880   28.1510   43.8000 H   0  0  0  0  0  0  0  0  0  0  0  0
   40.2950   24.7850   40.8050 H   0  0  0  0  0  0  0  0  0  0  0  0
   37.9850   31.6720   39.4530 C   0  0  0  0  0  3  0  0  0  0  0  0
   38.1400   32.9140   40.3390 C   0  0  0  0  0  2  0  0  0  0  0  0
   37.1740   32.9050   39.2390 C   0  0  0  0  0  2  0  0  0  0  0  0
  1  2  1  0  0  0  0
  2  3  1  0  0  0  0
  3  4  2  0  0  0  0
  3 13  1  0  0  0  0
  4  8  1  0  0  0  0
  5  9  1  0  0  0  0
  5  4  1  0  0  0  0
  6  5  2  0  0  0  0
  7  6  1  0  0  0  0
  7  2  2  0  0  0  0
 10  6  1  0  0  0  0
 11 17  1  0  0  0  0
 12 11  1  0  0  0  0
 12 18  1  0  0  0  0
 13 12  2  0  0  0  0
 14 15  2  0  0  0  0
 14 13  1  0  0  0  0
 15 16  1  0  0  0  0
 16 11  2  0  0  0  0
 19 15  1  0  0  0  0
 20  7  1  0  0  0  0
 20 21  1  0  0  0  0
 22 20  1  0  0  0  0
 22 21  1  0  0  0  0
M  END
>  <minimizedAffinity>
-4.39276743

$$$$

 OpenBabel03242516013D

 22 24  0  0  0  0  0  0  0  0999 V2000
   39.2870   27.2530   40.0120 Cl  0  0  0  0  0  0  0  0  0  0  0  0
   38.3040   27.4580   41.4360 C   0  0  0  0  0  0  0  0  0  0  0  0
   37.4420   26.4960   41.8370 C   0  0  0  0  0  0  0  0  0  0  0  0
   36.7100   26.7680   42.9840 C   0  0  0  0  0  0  0  0  0  0  0  0
   36.8330   27.9280   43.6780 C   0  0  0  0  0  0  0  0  0  0  0  0
   37.7150   28.8970   43.2550 C   0  0  0  0  0  0  0  0  0  0  0  0
   38.4460   28.6450   42.1270 C   0  0  0  0  0  0  0  0  0  0  0  0
   36.0070   26.0100   43.3300 H   0  0  0  0  0  0  0  0  0  0  0  0
   36.2270   28.0680   44.5650 H   0  0  0  0  0  0  0  0  0  0  0  0
   37.7540   29.7840   43.8580 H   0  0  0  0  0  0  0  0  0  0  0  0
   37.8620   22.9240   40.6640 C   0  0  0  0  0  0  0  0  0  0  0  0
   37.9830   24.0960   41.4250 C   0  0  0  0  0  0  0  0  0  0  0  0
   37.3370   25.2670   41.0680 C   0  0  0  0  0  0  0  0  0  0  0  0
   36.5760   25.2170   39.9350 N   0  0  0  0  0  0  0  0  0  0  0  0
   36.4680   24.0870   39.2130 C   0  0  0  0  0  0  0  0  0  0  0  0
   37.0990   22.9570   39.5670 N   0  0  0  0  0  0  0  0  0  0  0  0
   38.3890   22.0350   40.9870 H   0  0  0  0  0  0  0  0  0  0  0  0
   38.5960   24.1060   42.3230 H   0  0  0  0  0  0  0  0  0  0  0  0
   35.8280   24.1990   38.3360 H   0  0  0  0  0  0  0  0  0  0  0  0
   39.4010   29.6850   41.6590 C   0  0  0  0  0  3  0  0  0  0  0  0
   40.7780   29.7000   42.3340 C   0  0  0  0  0  2  0  0  0  0  0  0
   39.8270   30.7890   42.5670 C   0  0  0  0  0  2  0  0  0  0  0  0
  1  2  1  0  0  0  0
  2  3  2  0  0  0  0
  2  7  1  0  0  0  0
  3  4  1  0  0  0  0
  4  8  1  0  0  0  0
  4  5  2  0  0  0  0
  5  9  1  0  0  0  0
  6  5  1  0  0  0  0
  6 10  1  0  0  0  0
  7  6  2  0  0  0  0
 11 17  1  0  0  0  0
 11 12  1  0  0  0  0
 12 18  1  0  0  0  0
 13 12  2  0  0  0  0
 13  3  1  0  0  0  0
 14 13  1  0  0  0  0
 15 16  1  0  0  0  0
 15 14  2  0  0  0  0
 16 11  2  0  0  0  0
 19 15  1  0  0  0  0
 20  7  1  0  0  0  0
 20 21  1  0  0  0  0
 20 22  1  0  0  0  0
 21 22  1  0  0  0  0
M  END
>  <minimizedAffinity>
-4.38759041

$$$$

 OpenBabel03242516013D

 22 24  0  0  0  0  0  0  0  0999 V2000
   36.6540   27.0140   38.4000 Cl  0  0  0  0  0  0  0  0  0  0  0  0
   36.7750   26.2380   39.9560 C   0  0  0  0  0  0  0  0  0  0  0  0
   37.0050   26.9540   41.0790 C   0  0  0  0  0  0  0  0  0  0  0  0
   37.0830   26.2310   42.2610 C   0  0  0  0  0  0  0  0  0  0  0  0
   36.9410   24.8820   42.3090 C   0  0  0  0  0  0  0  0  0  0  0  0
   36.7080   24.1690   41.1540 C   0  0  0  0  0  0  0  0  0  0  0  0
   36.6280   24.8660   39.9810 C   0  0  0  0  0  0  0  0  0  0  0  0
   37.2680   26.7820   43.1840 H   0  0  0  0  0  0  0  0  0  0  0  0
   37.0150   24.3870   43.2700 H   0  0  0  0  0  0  0  0  0  0  0  0
   36.6090   23.1070   41.2770 H   0  0  0  0  0  0  0  0  0  0  0  0
   36.2630   30.6630   41.0530 C   0  0  0  0  0  0  0  0  0  0  0  0
   36.0920   29.2740   41.1450 C   0  0  0  0  0  0  0  0  0  0  0  0
   37.1510   28.3980   40.9890 C   0  0  0  0  0  0  0  0  0  0  0  0
   38.3710   28.9600   40.7430 N   0  0  0  0  0  0  0  0  0  0  0  0
   38.5220   30.2940   40.6570 C   0  0  0  0  0  0  0  0  0  0  0  0
   37.4890   31.1360   40.8080 N   0  0  0  0  0  0  0  0  0  0  0  0
   35.4000   31.3050   41.1830 H   0  0  0  0  0  0  0  0  0  0  0  0
   35.1080   28.8540   41.3420 H   0  0  0  0  0  0  0  0  0  0  0  0
   39.5520   30.5950   40.4560 H   0  0  0  0  0  0  0  0  0  0  0  0
   36.3770   24.1070   38.7260 C   0  0  0  0  0  3  0  0  0  0  0  0
   34.9090   23.8500   38.3650 C   0  0  0  0  0  2  0  0  0  0  0  0
   35.7770   22.7430   38.7710 C   0  0  0  0  0  2  0  0  0  0  0  0
  1  2  1  0  0  0  0
  2  7  2  0  0  0  0
  2  3  1  0  0  0  0
  3  4  2  0  0  0  0
  4  5  1  0  0  0  0
  4  8  1  0  0  0  0
  5  9  1  0  0  0  0
  6 10  1  0  0  0  0
  6  5  2  0  0  0  0
  7  6  1  0  0  0  0
 11 12  1  0  0  0  0
 11 17  1  0  0  0  0
 12 18  1  0  0  0  0
 13  3  1  0  0  0  0
 13 12  2  0  0  0  0
 14 13  1  0  0  0  0
 15 14  2  0  0  0  0
 15 16  1  0  0  0  0
 16 11  2  0  0  0  0
 19 15  1  0  0  0  0
 20 22  1  0  0  0  0
 20  7  1  0  0  0  0
 21 20  1  0  0  0  0
 21 22  1  0  0  0  0
M  END
>  <minimizedAffinity>
-4.38110447

$$$$
