
     RDKit          3D

 35 38  0  0  0  0  0  0  0  0999 V2000
   44.3880   34.7149   43.2216 C   0  0  1  0  0  0  0  0  0  0  0  0
   44.8972   36.1276   42.8039 C   0  0  0  0  0  0  0  0  0  0  0  0
   44.4607   35.0729   41.8207 C   0  0  2  0  0  0  0  0  0  0  0  0
   45.4330   33.8963   43.8839 C   0  0  0  0  0  0  0  0  0  0  0  0
   46.5424   33.4396   43.1103 C   0  0  0  0  0  0  0  0  0  0  0  0
   47.5252   32.6801   43.7322 C   0  0  0  0  0  0  0  0  0  0  0  0
   47.3748   32.4109   45.0584 N   0  0  0  0  0  0  0  0  0  0  0  0
   46.3079   32.8613   45.7623 C   0  0  0  0  0  0  0  0  0  0  0  0
   45.3538   33.5991   45.1547 N   0  0  0  0  0  0  0  0  0  0  0  0
   46.3329   32.4618   47.2046 C   0  0  0  0  0  0  0  0  0  0  0  0
   45.3153   33.0525   47.9152 F   0  0  0  0  0  0  0  0  0  0  0  0
   47.5414   32.8994   47.7817 F   0  0  0  0  0  0  0  0  0  0  0  0
   46.3518   31.0867   47.2987 F   0  0  0  0  0  0  0  0  0  0  0  0
   43.1271   35.2405   41.1498 C   0  0  0  0  0  0  0  0  0  0  0  0
   42.9770   35.0751   39.7840 C   0  0  0  0  0  0  0  0  0  0  0  0
   41.7792   35.2164   39.1432 C   0  0  0  0  0  0  0  0  0  0  0  0
   40.6959   35.5334   39.8921 N   0  0  0  0  0  0  0  0  0  0  0  0
   40.8285   35.6985   41.2318 C   0  0  0  0  0  0  0  0  0  0  0  0
   42.0160   35.5581   41.8649 N   0  0  0  0  0  0  0  0  0  0  0  0
   43.4146   34.7377   43.7757 H   0  0  0  0  0  0  0  0  0  0  0  0
   44.2373   36.9518   43.0661 H   0  0  0  0  0  0  0  0  0  0  0  0
   45.9805   36.3200   42.9199 H   0  0  0  0  0  0  0  0  0  0  0  0
   45.2433   34.7643   41.1293 H   0  0  0  0  0  0  0  0  0  0  0  0
   46.6554   33.6520   42.0780 H   0  0  0  0  0  0  0  0  0  0  0  0
   48.3779   32.3196   43.1713 H   0  0  0  0  0  0  0  0  0  0  0  0
   43.8659   34.8223   39.2211 H   0  0  0  0  0  0  0  0  0  0  0  0
   41.7665   35.0671   38.0772 H   0  0  0  0  0  0  0  0  0  0  0  0
   39.6488   36.0450   42.0571 C   0  0  0  0  0  0  0  0  0  0  0  0
   38.3953   35.2606   41.6398 C   0  0  0  0  0  0  0  0  0  0  0  0
   39.0326   35.0828   42.9757 C   0  0  0  0  0  0  0  0  0  0  0  0
   39.4877   37.1300   42.1632 H   0  0  0  0  0  0  0  0  0  0  0  0
   38.4962   34.4212   40.9386 H   0  0  0  0  0  0  0  0  0  0  0  0
   37.4479   35.8188   41.5176 H   0  0  0  0  0  0  0  0  0  0  0  0
   39.5206   34.1369   43.2506 H   0  0  0  0  0  0  0  0  0  0  0  0
   38.4467   35.5197   43.8274 H   0  0  0  0  0  0  0  0  0  0  0  0
  1  4  1  0
  2  1  1  0
  3  2  1  0
  3  1  1  0
  4  9  2  0
  5  6  2  0
  5  4  1  0
  6  7  1  0
  7  8  2  0
  8 10  1  0
  9  8  1  0
 10 13  1  0
 10 12  1  0
 10 11  1  0
 14  3  1  0
 14 19  1  0
 15 14  2  0
 16 15  1  0
 16 17  2  0
 17 18  1  0
 18 19  2  0
  1 20  1  1
  2 21  1  0
  2 22  1  0
  3 23  1  6
  5 24  1  0
  6 25  1  0
 15 26  1  0
 16 27  1  0
 28 29  1  0
 29 30  1  0
 30 28  1  0
 28 31  1  0
 29 32  1  0
 29 33  1  0
 30 34  1  0
 30 35  1  0
 18 28  1  0
M  ISO  8  20  13  21  13  22  13  23  13  24  14  25  14  26  14  27  14
M  END
>  <DihAtoms>  (1) 
16,17,27,28

>  <DihDeg>  (1) 
131.45983749100083

$$$$
