
 OpenBabel03252503263D

 15 16  0  0  0  0  0  0  0  0999 V2000
   45.9820   34.4920   43.2870 C   0  0  0  0  0  0  0  0  0  0  0  0
   46.4180   34.7100   41.9640 C   0  0  0  0  0  0  0  0  0  0  0  0
   47.6160   34.0730   41.5740 C   0  0  0  0  0  0  0  0  0  0  0  0
   48.2600   33.3050   42.4810 N   0  0  0  0  0  0  0  0  0  0  0  0
   47.7970   33.1220   43.7540 C   0  0  0  0  0  0  0  0  0  0  0  0
   46.6520   33.7240   44.1450 N   0  0  0  0  0  0  0  0  0  0  0  0
   45.8550   35.3320   41.3030 H   0  0  0  0  0  0  0  0  0  0  0  0
   48.3850   32.4840   44.4150 H   0  0  0  0  0  0  0  0  0  0  0  0
   48.0270   34.3300   40.1950 C   0  0  0  0  0  0  0  0  0  0  0  0
   49.0250   33.4160   39.8640 F   0  0  0  0  0  0  0  0  0  0  0  0
   48.6520   35.5730   40.1920 F   0  0  0  0  0  0  0  0  0  0  0  0
   47.0270   34.2250   39.2840 F   0  0  0  0  0  0  0  0  0  0  0  0
   44.7200   35.1610   43.7050 C   0  0  0  0  0  0  0  0  0  0  0  0
   44.4900   35.6650   45.0570 C   0  0  0  0  0  0  0  0  0  0  0  0
   44.9190   36.6570   44.0510 C   0  0  0  0  0  0  0  0  0  0  0  0
  1 13  1  0  0  0  0
  1  6  1  0  0  0  0
  2  1  2  0  0  0  0
  3  2  1  0  0  0  0
  3  4  2  0  0  0  0
  4  5  1  0  0  0  0
  5  6  2  0  0  0  0
  5  8  1  0  0  0  0
  7  2  1  0  0  0  0
  9  3  1  0  0  0  0
 10  9  1  0  0  0  0
 11  9  1  0  0  0  0
 12  9  1  0  0  0  0
 13 15  1  0  0  0  0
 13 14  1  0  0  0  0
 15 14  1  0  0  0  0
M  END
>  <minimizedAffinity>
-4.08560562

>  <minimizedRMSD>
2.30480337

$$$$
