REMARK  Name = 
REMARK  3 active torsions:
REMARK  status: ('A' for Active; 'I' for Inactive)
REMARK    1  A    between atoms: C_1  and  C_4
REMARK    2  A    between atoms: C_2  and  C_10
REMARK    3  A    between atoms: C_8  and  C_20
REMARK                            x       y       z     vdW  Elec       q    Type
REMARK                         _______ _______ _______ _____ _____    ______ ____
ROOT
ATOM      1  C   UNL     1      45.222  33.556  43.775  0.00  0.00    +0.000 C 
ATOM      2  C   UNL     1      45.856  34.952  43.467  0.00  0.00    +0.000 C 
ATOM      3  C   UNL     1      45.754  33.826  42.477  0.00  0.00    +0.000 C 
ATOM      4  H   UNL     1      44.118  33.599  43.953  0.00  0.00    +0.000 HD
ATOM      5  H   UNL     1      46.810  35.198  43.925  0.00  0.00    +0.000 HD
ATOM      6  H   UNL     1      46.736  33.421  42.143  0.00  0.00    +0.000 HD
ATOM      7  H   UNL     1      45.046  33.941  41.616  0.00  0.00    +0.000 HD
ENDROOT
BRANCH   1   8
ATOM      8  C   UNL     1      45.957  32.855  44.842  0.00  0.00    +0.000 A 
ATOM      9  C   UNL     1      46.637  31.645  44.525  0.00  0.00    +0.000 A 
ATOM     10  C   UNL     1      47.355  30.957  45.506  0.00  0.00    +0.000 A 
ATOM     11  N   UNL     1      47.359  31.512  46.754  0.00  0.00    +0.000 NA
ATOM     12  C   UNL     1      46.694  32.677  47.017  0.00  0.00    +0.000 A 
ATOM     13  N   UNL     1      46.014  33.324  46.084  0.00  0.00    +0.000 NA
ATOM     14  H   UNL     1      46.599  31.250  43.516  0.00  0.00    +0.000 HD
ATOM     15  H   UNL     1      47.872  30.048  45.290  0.00  0.00    +0.000 HD
BRANCH  12  16
ATOM     16  C   UNL     1      46.742  33.231  48.413  0.00  0.00    +0.000 C 
ATOM     17  C   UNL     1      45.778  34.262  48.840  0.00  0.00    +0.000 C 
ATOM     18  C   UNL     1      45.629  32.822  49.359  0.00  0.00    +0.000 C 
ENDBRANCH  12  16
ENDBRANCH   1   8
BRANCH   2  19
ATOM     19  C   UNL     1      44.837  36.051  43.276  0.00  0.00    +0.000 C 
ATOM     20  F   UNL     1      45.412  37.303  43.255  0.00  0.00    +0.000 F 
ATOM     21  F   UNL     1      44.216  35.861  42.032  0.00  0.00    +0.000 F 
ATOM     22  F   UNL     1      43.839  35.963  44.221  0.00  0.00    +0.000 F 
ENDBRANCH   2  19
TORSDOF 3
