
     RDKit          3D

 27 29  0  0  0  0  0  0  0  0999 V2000
   45.2217   33.5563   43.7754 C   0  0  1  0  0  0  0  0  0  0  0  0
   45.8559   34.9524   43.4668 C   0  0  1  0  0  0  0  0  0  0  0  0
   45.7544   33.8259   42.4774 C   0  0  0  0  0  0  0  0  0  0  0  0
   45.9573   32.8549   44.8421 C   0  0  0  0  0  0  0  0  0  0  0  0
   46.6366   31.6453   44.5253 C   0  0  0  0  0  0  0  0  0  0  0  0
   47.3552   30.9570   45.5062 C   0  0  0  0  0  0  0  0  0  0  0  0
   47.3594   31.5120   46.7543 N   0  0  0  0  0  0  0  0  0  0  0  0
   46.6935   32.6771   47.0172 C   0  0  0  0  0  0  0  0  0  0  0  0
   46.0142   33.3241   46.0837 N   0  0  0  0  0  0  0  0  0  0  0  0
   44.8370   36.0508   43.2755 C   0  0  0  0  0  0  0  0  0  0  0  0
   45.4117   37.3029   43.2549 F   0  0  0  0  0  0  0  0  0  0  0  0
   44.2163   35.8606   42.0323 F   0  0  0  0  0  0  0  0  0  0  0  0
   43.8387   35.9627   44.2210 F   0  0  0  0  0  0  0  0  0  0  0  0
   44.1184   33.5995   43.9526 H   0  0  0  0  0  0  0  0  0  0  0  0
   46.8101   35.1983   43.9250 H   0  0  0  0  0  0  0  0  0  0  0  0
   46.7357   33.4209   42.1432 H   0  0  0  0  0  0  0  0  0  0  0  0
   45.0457   33.9410   41.6161 H   0  0  0  0  0  0  0  0  0  0  0  0
   46.5994   31.2503   43.5160 H   0  0  0  0  0  0  0  0  0  0  0  0
   47.8717   30.0477   45.2903 H   0  0  0  0  0  0  0  0  0  0  0  0
   46.7415   33.2307   48.4127 C   0  0  0  0  0  0  0  0  0  0  0  0
   45.9643   32.5971   49.4938 C   0  0  0  0  0  0  0  0  0  0  0  0
   47.4923   32.4222   49.4532 C   0  0  0  0  0  0  0  0  0  0  0  0
   46.9311   34.3195   48.5247 H   0  0  0  0  0  0  0  0  0  0  0  0
   45.5899   33.2004   50.3303 H   0  0  0  0  0  0  0  0  0  0  0  0
   45.3602   31.6775   49.3291 H   0  0  0  0  0  0  0  0  0  0  0  0
   48.0922   32.9294   50.2294 H   0  0  0  0  0  0  0  0  0  0  0  0
   47.8318   31.4019   49.1912 H   0  0  0  0  0  0  0  0  0  0  0  0
  1  4  1  0
  2  1  1  0
  3  2  1  0
  3  1  1  0
  4  9  1  0
  5  4  2  0
  5  6  1  0
  6  7  2  0
  7  8  1  0
  9  8  2  0
 10  2  1  0
 10 13  1  0
 11 10  1  0
 12 10  1  0
  1 14  1  6
  2 15  1  1
  3 16  1  0
  3 17  1  0
  5 18  1  0
  6 19  1  0
 20 21  1  0
 21 22  1  0
 22 20  1  0
 20 23  1  0
 21 24  1  0
 21 25  1  0
 22 26  1  0
 22 27  1  0
  8 20  1  0
M  ISO  6  14  13  15  13  16  13  17  13  18  14  19  14
M  END
>  <DihAtoms>  (1) 
6,7,19,20

>  <DihDeg>  (1) 
151.07052857149077

$$$$
