
 OpenBabel03252505463D

 22 24  0  0  1  0  0  0  0  0999 V2000
   45.3260   33.5350   43.2670 C   0  0  1  0  0  0  0  0  0  0  0  0
   45.8760   34.9860   43.4600 C   0  0  1  0  0  0  0  0  0  0  0  0
   45.9950   34.1930   42.1890 C   0  0  0  0  0  0  0  0  0  0  0  0
   44.2090   33.4780   43.2870 H   0  0  0  0  0  0  0  0  0  0  0  0
   46.7400   35.1290   44.1030 H   0  0  0  0  0  0  0  0  0  0  0  0
   47.0410   33.9440   41.9020 H   0  0  0  0  0  0  0  0  0  0  0  0
   45.3950   34.5220   41.3020 H   0  0  0  0  0  0  0  0  0  0  0  0
   45.9750   32.5870   44.1890 C   0  0  0  0  0  0  0  0  0  0  0  0
   47.1170   31.8660   43.7390 C   0  0  0  0  0  0  0  0  0  0  0  0
   47.7670   30.9660   44.5870 C   0  0  0  0  0  0  0  0  0  0  0  0
   47.2450   30.8330   45.8420 N   0  0  0  0  0  0  0  0  0  0  0  0
   46.1470   31.5450   46.2360 C   0  0  0  0  0  0  0  0  0  0  0  0
   45.5340   32.3950   45.4280 N   0  0  0  0  0  0  0  0  0  0  0  0
   47.4870   32.0120   42.7310 H   0  0  0  0  0  0  0  0  0  0  0  0
   48.6250   30.4150   44.2700 H   0  0  0  0  0  0  0  0  0  0  0  0
   45.6270   31.3480   47.6320 C   0  0  0  0  0  3  0  0  0  0  0  0
   46.5610   31.1250   48.7500 C   0  0  0  0  0  2  0  0  0  0  0  0
   45.8440   32.4800   48.6170 C   0  0  0  0  0  2  0  0  0  0  0  0
   44.8020   36.0490   43.4390 C   0  0  0  0  0  0  0  0  0  0  0  0
   45.3250   37.3240   43.4240 F   0  0  0  0  0  0  0  0  0  0  0  0
   44.0560   35.8950   42.2610 F   0  0  0  0  0  0  0  0  0  0  0  0
   43.9180   35.8710   44.4800 F   0  0  0  0  0  0  0  0  0  0  0  0
  1  4  1  6  0  0  0
  1  2  1  0  0  0  0
  1  8  1  0  0  0  0
  2  5  1  1  0  0  0
  3  1  1  0  0  0  0
  3  2  1  0  0  0  0
  6  3  1  0  0  0  0
  7  3  1  0  0  0  0
  8 13  1  0  0  0  0
  9  8  2  0  0  0  0
  9 10  1  0  0  0  0
 10 11  2  0  0  0  0
 11 12  1  0  0  0  0
 12 16  1  0  0  0  0
 13 12  2  0  0  0  0
 14  9  1  0  0  0  0
 15 10  1  0  0  0  0
 16 18  1  0  0  0  0
 16 17  1  0  0  0  0
 18 17  1  0  0  0  0
 19  2  1  0  0  0  0
 19 22  1  0  0  0  0
 20 19  1  0  0  0  0
 21 19  1  0  0  0  0
M  END
>  <minimizedAffinity>
-4.16483355

>  <minimizedRMSD>
1.25175858

$$$$
