REMARK  Name = 
REMARK  2 active torsions:
REMARK  status: ('A' for Active; 'I' for Inactive)
REMARK    1  A    between atoms: C_2  and  C_14
REMARK    2  A    between atoms: C_3  and  C_23
REMARK                            x       y       z     vdW  Elec       q    Type
REMARK                         _______ _______ _______ _____ _____    ______ ____
ROOT
ATOM      1  C   UNL     1      47.225  31.360  45.084  0.00  0.00    +0.000 A 
ATOM      2  C   UNL     1      46.882  32.710  45.098  0.00  0.00    +0.000 A 
ATOM      3  C   UNL     1      46.276  33.328  46.200  0.00  0.00    +0.000 A 
ATOM      4  C   UNL     1      46.005  32.567  47.327  0.00  0.00    +0.000 A 
ATOM      5  N   UNL     1      45.441  32.800  48.535  0.00  0.00    +0.000 N 
ATOM      6  C   UNL     1      45.428  31.652  49.253  0.00  0.00    +0.000 A 
ATOM      7  N   UNL     1      45.991  30.711  48.472  0.00  0.00    +0.000 NA
ATOM      8  C   UNL     1      46.352  31.240  47.291  0.00  0.00    +0.000 A 
ATOM      9  C   UNL     1      46.952  30.597  46.220  0.00  0.00    +0.000 A 
ATOM     10  H   UNL     1      47.695  30.946  44.188  0.00  0.00    +0.000 HD
ATOM     11  H   UNL     1      45.066  33.713  48.862  0.00  0.00    +0.000 HD
ATOM     12  H   UNL     1      45.021  31.592  50.263  0.00  0.00    +0.000 HD
ATOM     13  H   UNL     1      47.215  29.558  46.213  0.00  0.00    +0.000 HD
ENDROOT
BRANCH   2  18
ATOM     14  C   UNL     1      46.526  35.200  42.418  0.00  0.00    +0.000 A 
ATOM     15  C   UNL     1      47.714  35.055  41.705  0.00  0.00    +0.000 A 
ATOM     16  C   UNL     1      48.634  34.099  42.149  0.00  0.00    +0.000 A 
ATOM     17  N   UNL     1      48.300  33.371  43.258  0.00  0.00    +0.000 NA
ATOM     18  C   UNL     1      47.155  33.526  43.929  0.00  0.00    +0.000 A 
ATOM     19  N   UNL     1      46.284  34.436  43.502  0.00  0.00    +0.000 NA
ATOM     20  H   UNL     1      45.747  35.887  42.187  0.00  0.00    +0.000 HD
ATOM     21  H   UNL     1      47.863  35.677  40.858  0.00  0.00    +0.000 HD
ATOM     22  H   UNL     1      49.549  33.969  41.621  0.00  0.00    +0.000 HD
ENDBRANCH   2  18
BRANCH   3  23
ATOM     23  C   UNL     1      45.921  34.767  46.152  0.00  0.00    +0.000 C 
ATOM     24  C   UNL     1      45.050  35.242  47.347  0.00  0.00    +0.000 C 
ATOM     25  C   UNL     1      44.511  35.218  45.965  0.00  0.00    +0.000 C 
ENDBRANCH   3  23
TORSDOF 2
