
 OpenBabel03252504423D

 39 42  0  0  0  0  0  0  0  0999 V2000
   46.3080   32.1140   48.0090 C   0  0  0  0  0  0  0  0  0  0  0  0
   45.8400   31.5450   49.1550 C   0  0  0  0  0  0  0  0  0  0  0  0
   46.8520   30.8470   49.6730 N   0  0  0  0  0  0  0  0  0  0  0  0
   47.9430   30.9480   48.9080 C   0  0  0  0  0  0  0  0  0  0  0  0
   47.5900   31.7480   47.8610 N   0  0  0  0  0  0  0  0  0  0  0  0
   49.2490   30.3970   49.0380 N   0  0  0  0  0  0  0  0  0  0  0  0
   50.2350   31.1860   49.8140 C   0  0  0  0  0  0  0  0  0  0  0  0
   50.3380   30.4570   51.1530 C   0  0  0  0  0  0  0  0  0  0  0  0
   50.5310   28.9810   50.9300 C   0  0  0  0  0  0  0  0  0  0  0  0
   50.9450   28.7270   49.4890 C   0  0  0  0  0  0  0  0  0  0  0  0
   49.8440   29.1910   48.5600 C   0  0  0  0  0  0  0  0  0  0  0  0
   44.8350   31.6430   49.5650 H   0  0  0  0  0  0  0  0  0  0  0  0
   46.8380   30.2830   50.5560 H   0  0  0  0  0  0  0  0  0  0  0  0
   51.1950   31.2340   49.2880 H   0  0  0  0  0  0  0  0  0  0  0  0
   49.8410   32.1960   50.0400 H   0  0  0  0  0  0  0  0  0  0  0  0
   49.4130   30.6050   51.7140 H   0  0  0  0  0  0  0  0  0  0  0  0
   51.2240   30.8640   51.7020 H   0  0  0  0  0  0  0  0  0  0  0  0
   49.5890   28.4130   51.0740 H   0  0  0  0  0  0  0  0  0  0  0  0
   51.3140   28.5370   51.5950 H   0  0  0  0  0  0  0  0  0  0  0  0
   51.1330   27.6480   49.3480 H   0  0  0  0  0  0  0  0  0  0  0  0
   51.8730   29.3050   49.3200 H   0  0  0  0  0  0  0  0  0  0  0  0
   50.2310   29.2970   47.5230 H   0  0  0  0  0  0  0  0  0  0  0  0
   49.0800   28.3630   48.5820 H   0  0  0  0  0  0  0  0  0  0  0  0
   45.5410   32.9950   47.0780 C   0  0  0  0  0  0  0  0  0  0  0  0
   45.3950   33.9890   47.5610 H   0  0  0  0  0  0  0  0  0  0  0  0
   44.5380   32.5500   46.8750 H   0  0  0  0  0  0  0  0  0  0  0  0
   45.8420   33.9560   44.8270 C   0  0  0  0  0  3  0  0  0  0  0  0
   46.2780   33.1990   45.8150 C   0  0  0  0  0  3  0  0  0  0  0  0
   46.6760   34.0620   43.6340 C   0  0  0  0  0  0  0  0  0  0  0  0
   46.3970   35.0150   42.6140 C   0  0  0  0  0  0  0  0  0  0  0  0
   47.2340   35.0440   41.5200 C   0  0  0  0  0  0  0  0  0  0  0  0
   48.2730   34.1880   41.4460 N   0  0  0  0  0  0  0  0  0  0  0  0
   48.5180   33.2950   42.4250 C   0  0  0  0  0  0  0  0  0  0  0  0
   47.7460   33.2290   43.4890 N   0  0  0  0  0  0  0  0  0  0  0  0
   45.5450   35.6580   42.7590 H   0  0  0  0  0  0  0  0  0  0  0  0
   46.9970   35.7770   40.7620 H   0  0  0  0  0  0  0  0  0  0  0  0
   49.6750   32.3740   42.2960 C   0  0  0  0  0  3  0  0  0  0  0  0
   51.0560   32.9460   42.1420 C   0  0  0  0  0  2  0  0  0  0  0  0
   50.3880   32.1970   41.0200 C   0  0  0  0  0  2  0  0  0  0  0  0
  1  2  2  0  0  0  0
  2 12  1  0  0  0  0
  2  3  1  0  0  0  0
  3 13  1  0  0  0  0
  4  6  1  0  0  0  0
  4  3  1  0  0  0  0
  5  1  1  0  0  0  0
  5  4  2  0  0  0  0
  6  7  1  0  0  0  0
  7 15  1  0  0  0  0
  7  8  1  0  0  0  0
  8 17  1  0  0  0  0
  8 16  1  0  0  0  0
  9 18  1  0  0  0  0
  9  8  1  0  0  0  0
  9 19  1  0  0  0  0
 10  9  1  0  0  0  0
 11 23  1  0  0  0  0
 11  6  1  0  0  0  0
 11 10  1  0  0  0  0
 14  7  1  0  0  0  0
 20 10  1  0  0  0  0
 21 10  1  0  0  0  0
 22 11  1  0  0  0  0
 24 25  1  0  0  0  0
 24  1  1  0  0  0  0
 26 24  1  0  0  0  0
 27 28  2  0  0  0  0
 28 24  1  0  0  0  0
 29 27  1  0  0  0  0
 30 35  1  0  0  0  0
 30 29  2  0  0  0  0
 31 30  1  0  0  0  0
 32 31  2  0  0  0  0
 32 33  1  0  0  0  0
 33 34  2  0  0  0  0
 34 29  1  0  0  0  0
 36 31  1  0  0  0  0
 37 33  1  0  0  0  0
 38 37  1  0  0  0  0
 39 38  1  0  0  0  0
 39 37  1  0  0  0  0
M  END
>  <minimizedAffinity>
-5.87855053

>  <minimizedRMSD>
0.418268085

$$$$
