
 OpenBabel03252505403D

 22 24  0  0  1  0  0  0  0  0999 V2000
   45.5370   34.0610   44.2480 C   0  0  0  0  0  0  0  0  0  0  0  0
   46.5440   33.5010   43.4190 C   0  0  0  0  0  0  0  0  0  0  0  0
   47.4430   32.6110   43.9920 C   0  0  0  0  0  0  0  0  0  0  0  0
   47.3060   32.3290   45.3120 N   0  0  0  0  0  0  0  0  0  0  0  0
   46.3290   32.8840   46.0720 C   0  0  0  0  0  0  0  0  0  0  0  0
   45.4410   33.7560   45.5280 N   0  0  0  0  0  0  0  0  0  0  0  0
   46.6220   33.7530   42.3630 H   0  0  0  0  0  0  0  0  0  0  0  0
   48.2180   32.1610   43.4210 H   0  0  0  0  0  0  0  0  0  0  0  0
   44.5780   35.0270   43.6460 C   0  0  1  0  0  0  0  0  0  0  0  0
   45.2020   36.3870   43.2800 C   0  0  0  0  0  0  0  0  0  0  0  0
   44.6880   35.4360   42.2440 C   0  0  2  0  0  0  0  0  0  0  0  0
   43.6480   35.0990   44.2730 H   0  0  0  0  0  0  0  0  0  0  0  0
   46.2700   36.5180   43.4880 H   0  0  0  0  0  0  0  0  0  0  0  0
   44.5580   37.2480   43.5410 H   0  0  0  0  0  0  0  0  0  0  0  0
   45.4900   34.9230   41.6740 H   0  0  0  0  0  0  0  0  0  0  0  0
   43.4820   35.8020   41.4170 C   0  0  0  0  0  3  0  0  0  0  0  0
   43.0440   34.9430   40.2670 C   0  0  0  0  0  2  0  0  0  0  0  0
   42.1930   35.0870   41.5310 C   0  0  0  0  0  2  0  0  0  0  0  0
   46.3670   32.4430   47.5050 C   0  0  0  0  0  0  0  0  0  0  0  0
   45.3430   32.9990   48.2340 F   0  0  0  0  0  0  0  0  0  0  0  0
   47.5780   32.8300   48.0840 F   0  0  0  0  0  0  0  0  0  0  0  0
   46.3560   31.0530   47.5470 F   0  0  0  0  0  0  0  0  0  0  0  0
  1  6  1  0  0  0  0
  2  3  1  0  0  0  0
  2  1  2  0  0  0  0
  3  4  2  0  0  0  0
  4  5  1  0  0  0  0
  5 19  1  0  0  0  0
  6  5  2  0  0  0  0
  7  2  1  0  0  0  0
  8  3  1  0  0  0  0
  9  1  1  0  0  0  0
  9 12  1  1  0  0  0
 10 13  1  0  0  0  0
 10 14  1  0  0  0  0
 10  9  1  0  0  0  0
 11 15  1  6  0  0  0
 11 10  1  0  0  0  0
 11  9  1  0  0  0  0
 16 18  1  0  0  0  0
 16 11  1  0  0  0  0
 17 16  1  0  0  0  0
 17 18  1  0  0  0  0
 19 22  1  0  0  0  0
 19 21  1  0  0  0  0
 19 20  1  0  0  0  0
M  END
>  <minimizedAffinity>
-4.7018261

>  <minimizedRMSD>
0.721659899

$$$$
