
 OpenBabel03242515053D

 33 35  0  0  0  0  0  0  0  0999 V2000
   41.8800   35.2050   41.5660 C   0  0  0  0  0  0  0  0  0  0  0  0
   41.3150   34.2580   41.7670 H   0  0  0  0  0  0  0  0  0  0  0  0
   42.0400   35.6770   42.5660 H   0  0  0  0  0  0  0  0  0  0  0  0
   40.9860   36.0820   40.7530 C   0  0  0  0  0  0  0  0  0  0  0  0
   41.6210   36.7700   40.1550 H   0  0  0  0  0  0  0  0  0  0  0  0
   40.3150   36.7310   41.3650 H   0  0  0  0  0  0  0  0  0  0  0  0
   41.7980   36.2710   37.8200 Cl  0  0  0  0  0  0  0  0  0  0  0  0
   40.4770   35.2990   38.4190 C   0  0  0  0  0  0  0  0  0  0  0  0
   40.1940   35.2890   39.7850 C   0  0  0  0  0  0  0  0  0  0  0  0
   39.1430   34.5020   40.1710 C   0  0  0  0  0  0  0  0  0  0  0  0
   38.3400   33.7230   39.3410 C   0  0  0  0  0  0  0  0  0  0  0  0
   38.6470   33.7550   38.0000 C   0  0  0  0  0  0  0  0  0  0  0  0
   37.6900   32.8030   36.8610 Cl  0  0  0  0  0  0  0  0  0  0  0  0
   39.7020   34.5370   37.5560 C   0  0  0  0  0  0  0  0  0  0  0  0
   38.8860   34.4620   41.2260 H   0  0  0  0  0  0  0  0  0  0  0  0
   37.5300   33.1330   39.7520 H   0  0  0  0  0  0  0  0  0  0  0  0
   39.9610   34.5790   36.5020 H   0  0  0  0  0  0  0  0  0  0  0  0
   43.4290   34.8050   40.7670 S   0  0  0  0  0  0  0  0  0  0  0  0
   44.7960   34.6590   41.9150 C   0  0  0  0  0  0  0  0  0  0  0  0
   46.0820   34.6750   41.3610 C   0  0  0  0  0  0  0  0  0  0  0  0
   47.1710   34.5640   42.2240 C   0  0  0  0  0  0  0  0  0  0  0  0
   46.9230   34.4460   43.5460 N   0  0  0  0  0  0  0  0  0  0  0  0
   45.6790   34.4320   44.0640 C   0  0  0  0  0  0  0  0  0  0  0  0
   44.6330   34.5390   43.2400 N   0  0  0  0  0  0  0  0  0  0  0  0
   46.2410   34.7710   40.2950 H   0  0  0  0  0  0  0  0  0  0  0  0
   45.5490   34.3010   45.4970 C   0  0  0  0  0  0  0  0  0  0  0  0
   44.5860   34.8960   46.0520 O   0  0  0  0  0  0  0  0  0  0  0  0
   46.5370   33.4950   46.1780 N   0  0  0  0  0  0  0  0  0  0  0  0
   46.1400   32.9260   46.9540 H   0  0  0  0  0  0  0  0  0  0  0  0
   47.5320   33.5560   45.8380 H   0  0  0  0  0  0  0  0  0  0  0  0
   48.5450   34.5780   41.6650 C   0  0  0  0  0  3  0  0  0  0  0  0
   49.1100   35.9850   41.5420 C   0  0  0  0  0  2  0  0  0  0  0  0
   49.7150   34.9700   42.4670 C   0  0  0  0  0  2  0  0  0  0  0  0
  1  2  1  0  0  0  0
  1  3  1  0  0  0  0
  4  6  1  0  0  0  0
  4  1  1  0  0  0  0
  5  4  1  0  0  0  0
  7  8  1  0  0  0  0
  8  9  1  0  0  0  0
  9 10  2  0  0  0  0
  9  4  1  0  0  0  0
 10 15  1  0  0  0  0
 11 16  1  0  0  0  0
 11 10  1  0  0  0  0
 12 11  2  0  0  0  0
 13 12  1  0  0  0  0
 14 12  1  0  0  0  0
 14  8  2  0  0  0  0
 17 14  1  0  0  0  0
 18  1  1  0  0  0  0
 18 19  1  0  0  0  0
 19 24  1  0  0  0  0
 20 19  2  0  0  0  0
 20 21  1  0  0  0  0
 21 22  2  0  0  0  0
 22 23  1  0  0  0  0
 23 26  1  0  0  0  0
 24 23  2  0  0  0  0
 25 20  1  0  0  0  0
 26 27  2  0  0  0  0
 26 28  1  0  0  0  0
 28 29  1  0  0  0  0
 30 28  1  0  0  0  0
 31 21  1  0  0  0  0
 31 33  1  0  0  0  0
 32 31  1  0  0  0  0
 32 33  1  0  0  0  0
M  END
>  <minimizedAffinity>
-7.29219484

>  <minimizedRMSD>
0.351305872

$$$$
