
 OpenBabel03252505163D

 19 21  0  0  0  0  0  0  0  0999 V2000
   39.3300   30.4120   42.4150 C   0  0  0  0  0  0  0  0  0  0  0  0
   38.6020   29.2280   42.7380 C   0  0  0  0  0  0  0  0  0  0  0  0
   37.3740   29.1040   42.1080 C   0  0  0  0  0  0  0  0  0  0  0  0
   36.9120   30.0620   41.2390 N   0  0  0  0  0  0  0  0  0  0  0  0
   37.6530   31.1750   40.9680 C   0  0  0  0  0  0  0  0  0  0  0  0
   38.8490   31.3350   41.5570 N   0  0  0  0  0  0  0  0  0  0  0  0
   40.2970   30.5730   42.8720 H   0  0  0  0  0  0  0  0  0  0  0  0
   38.9760   28.4990   43.4120 H   0  0  0  0  0  0  0  0  0  0  0  0
   36.5300   27.8890   42.3430 C   0  0  0  0  0  0  0  0  0  0  0  0
   37.3260   26.6240   42.5740 C   0  0  0  0  0  0  0  0  0  0  0  0
   36.4930   27.3120   43.6800 C   0  0  0  0  0  0  0  0  0  0  0  0
   35.6470   27.8040   41.6690 H   0  0  0  0  0  0  0  0  0  0  0  0
   38.4090   26.6870   42.6020 H   0  0  0  0  0  0  0  0  0  0  0  0
   36.9040   25.7230   42.1250 H   0  0  0  0  0  0  0  0  0  0  0  0
   35.6200   26.7650   44.0870 H   0  0  0  0  0  0  0  0  0  0  0  0
   37.1480   27.7260   44.4800 H   0  0  0  0  0  0  0  0  0  0  0  0
   36.9870   32.0890   40.0080 C   0  0  0  0  0  3  0  0  0  0  0  0
   37.5700   32.2720   38.6280 C   0  0  0  0  0  2  0  0  0  0  0  0
   37.6030   33.3720   39.6320 C   0  0  0  0  0  2  0  0  0  0  0  0
  1  2  1  0  0  0  0
  1  7  1  0  0  0  0
  2  8  1  0  0  0  0
  3  9  1  0  0  0  0
  3  2  2  0  0  0  0
  4  3  1  0  0  0  0
  5  4  2  0  0  0  0
  5  6  1  0  0  0  0
  6  1  2  0  0  0  0
  9 10  1  0  0  0  0
  9 11  1  0  0  0  0
 10 13  1  0  0  0  0
 10 11  1  0  0  0  0
 11 15  1  0  0  0  0
 11 16  1  0  0  0  0
 12  9  1  0  0  0  0
 14 10  1  0  0  0  0
 17  5  1  0  0  0  0
 18 19  1  0  0  0  0
 18 17  1  0  0  0  0
 19 17  1  0  0  0  0
M  END
>  <minimizedAffinity>
-4.30037642

$$$$

 OpenBabel03252505163D

 19 21  0  0  0  0  0  0  0  0999 V2000
   39.9000   31.0900   42.0690 C   0  0  0  0  0  0  0  0  0  0  0  0
   39.0990   31.6840   41.0490 C   0  0  0  0  0  0  0  0  0  0  0  0
   37.8250   31.1520   40.9190 C   0  0  0  0  0  0  0  0  0  0  0  0
   37.3870   30.1300   41.7240 N   0  0  0  0  0  0  0  0  0  0  0  0
   38.1990   29.6000   42.6850 C   0  0  0  0  0  0  0  0  0  0  0  0
   39.4400   30.0860   42.8450 N   0  0  0  0  0  0  0  0  0  0  0  0
   40.9060   31.4560   42.2260 H   0  0  0  0  0  0  0  0  0  0  0  0
   39.4550   32.4730   40.4370 H   0  0  0  0  0  0  0  0  0  0  0  0
   36.8790   31.7130   39.9020 C   0  0  0  0  0  0  0  0  0  0  0  0
   37.2490   33.0970   39.4180 C   0  0  0  0  0  0  0  0  0  0  0  0
   37.3300   31.8400   38.5230 C   0  0  0  0  0  0  0  0  0  0  0  0
   35.8030   31.5370   40.1280 H   0  0  0  0  0  0  0  0  0  0  0  0
   38.1630   33.5520   39.7850 H   0  0  0  0  0  0  0  0  0  0  0  0
   36.4060   33.7700   39.2510 H   0  0  0  0  0  0  0  0  0  0  0  0
   36.6520   31.7800   37.6480 H   0  0  0  0  0  0  0  0  0  0  0  0
   38.3860   31.5980   38.2600 H   0  0  0  0  0  0  0  0  0  0  0  0
   37.5480   28.5080   43.4500 C   0  0  0  0  0  3  0  0  0  0  0  0
   37.9510   27.0770   43.1920 C   0  0  0  0  0  2  0  0  0  0  0  0
   36.6070   27.5830   42.7980 C   0  0  0  0  0  2  0  0  0  0  0  0
  1  7  1  0  0  0  0
  1  6  1  0  0  0  0
  2  1  2  0  0  0  0
  3  2  1  0  0  0  0
  3  4  2  0  0  0  0
  4  5  1  0  0  0  0
  5  6  2  0  0  0  0
  5 17  1  0  0  0  0
  8  2  1  0  0  0  0
  9 12  1  0  0  0  0
  9  3  1  0  0  0  0
 10 13  1  0  0  0  0
 10  9  1  0  0  0  0
 11 10  1  0  0  0  0
 11  9  1  0  0  0  0
 14 10  1  0  0  0  0
 15 11  1  0  0  0  0
 16 11  1  0  0  0  0
 18 17  1  0  0  0  0
 19 18  1  0  0  0  0
 19 17  1  0  0  0  0
M  END
>  <minimizedAffinity>
-4.18518305

$$$$

 OpenBabel03252505163D

 19 21  0  0  0  0  0  0  0  0999 V2000
   38.4160   28.2620   43.2830 C   0  0  0  0  0  0  0  0  0  0  0  0
   37.6330   29.1510   42.4870 C   0  0  0  0  0  0  0  0  0  0  0  0
   36.7010   28.5360   41.6670 C   0  0  0  0  0  0  0  0  0  0  0  0
   36.5570   27.1700   41.6390 N   0  0  0  0  0  0  0  0  0  0  0  0
   37.3350   26.3690   42.4230 C   0  0  0  0  0  0  0  0  0  0  0  0
   38.2510   26.9240   43.2330 N   0  0  0  0  0  0  0  0  0  0  0  0
   39.1640   28.6750   43.9470 H   0  0  0  0  0  0  0  0  0  0  0  0
   37.7590   30.2030   42.5230 H   0  0  0  0  0  0  0  0  0  0  0  0
   35.7980   29.3640   40.8050 C   0  0  0  0  0  0  0  0  0  0  0  0
   36.2030   30.8180   40.7130 C   0  0  0  0  0  0  0  0  0  0  0  0
   36.2980   29.8380   39.5220 C   0  0  0  0  0  0  0  0  0  0  0  0
   34.7120   29.1590   40.9450 H   0  0  0  0  0  0  0  0  0  0  0  0
   37.1100   31.1400   41.2140 H   0  0  0  0  0  0  0  0  0  0  0  0
   35.3760   31.5300   40.7040 H   0  0  0  0  0  0  0  0  0  0  0  0
   35.6500   30.0250   38.6430 H   0  0  0  0  0  0  0  0  0  0  0  0
   37.3580   29.6500   39.2370 H   0  0  0  0  0  0  0  0  0  0  0  0
   37.0320   24.9280   42.2540 C   0  0  0  0  0  3  0  0  0  0  0  0
   38.0290   24.0350   41.5570 C   0  0  0  0  0  2  0  0  0  0  0  0
   36.7220   24.3690   40.9270 C   0  0  0  0  0  2  0  0  0  0  0  0
  1  7  1  0  0  0  0
  2  8  1  0  0  0  0
  2  1  2  0  0  0  0
  3  2  1  0  0  0  0
  4  3  2  0  0  0  0
  4  5  1  0  0  0  0
  5  6  2  0  0  0  0
  6  1  1  0  0  0  0
  9 12  1  0  0  0  0
  9  3  1  0  0  0  0
 10  9  1  0  0  0  0
 10 13  1  0  0  0  0
 11 10  1  0  0  0  0
 11  9  1  0  0  0  0
 14 10  1  0  0  0  0
 15 11  1  0  0  0  0
 16 11  1  0  0  0  0
 17  5  1  0  0  0  0
 18 17  1  0  0  0  0
 19 18  1  0  0  0  0
 19 17  1  0  0  0  0
M  END
>  <minimizedAffinity>
-4.01321602

$$$$

 OpenBabel03252505163D

 19 21  0  0  0  0  0  0  0  0999 V2000
   38.5260   28.4470   43.3360 C   0  0  0  0  0  0  0  0  0  0  0  0
   38.2900   27.0410   43.2990 C   0  0  0  0  0  0  0  0  0  0  0  0
   37.2950   26.6360   42.4210 C   0  0  0  0  0  0  0  0  0  0  0  0
   36.6020   27.5400   41.6540 N   0  0  0  0  0  0  0  0  0  0  0  0
   36.8720   28.8760   41.7320 C   0  0  0  0  0  0  0  0  0  0  0  0
   37.8280   29.3100   42.5690 N   0  0  0  0  0  0  0  0  0  0  0  0
   39.2890   28.8330   43.9990 H   0  0  0  0  0  0  0  0  0  0  0  0
   38.8350   26.3580   43.8990 H   0  0  0  0  0  0  0  0  0  0  0  0
   36.9750   25.1810   42.2710 C   0  0  0  0  0  0  0  0  0  0  0  0
   36.8570   24.7240   40.8340 C   0  0  0  0  0  0  0  0  0  0  0  0
   38.0080   24.2860   41.7680 C   0  0  0  0  0  0  0  0  0  0  0  0
   36.2000   24.8040   42.9770 H   0  0  0  0  0  0  0  0  0  0  0  0
   37.0540   25.4390   40.0420 H   0  0  0  0  0  0  0  0  0  0  0  0
   36.0690   23.9940   40.6440 H   0  0  0  0  0  0  0  0  0  0  0  0
   38.0770   23.2150   42.0400 H   0  0  0  0  0  0  0  0  0  0  0  0
   38.9850   24.7030   41.4290 H   0  0  0  0  0  0  0  0  0  0  0  0
   36.0220   29.6880   40.8290 C   0  0  0  0  0  3  0  0  0  0  0  0
   36.5430   30.0760   39.4660 C   0  0  0  0  0  2  0  0  0  0  0  0
   36.3510   31.0930   40.5380 C   0  0  0  0  0  2  0  0  0  0  0  0
  1  7  1  0  0  0  0
  2  1  1  0  0  0  0
  2  8  1  0  0  0  0
  3  2  2  0  0  0  0
  4  5  2  0  0  0  0
  4  3  1  0  0  0  0
  5  6  1  0  0  0  0
  6  1  2  0  0  0  0
  9  3  1  0  0  0  0
  9 12  1  0  0  0  0
 10 11  1  0  0  0  0
 10  9  1  0  0  0  0
 11 15  1  0  0  0  0
 11  9  1  0  0  0  0
 13 10  1  0  0  0  0
 14 10  1  0  0  0  0
 16 11  1  0  0  0  0
 17  5  1  0  0  0  0
 18 19  1  0  0  0  0
 18 17  1  0  0  0  0
 19 17  1  0  0  0  0
M  END
>  <minimizedAffinity>
-4.00971127

$$$$

 OpenBabel03252505163D

 19 21  0  0  0  0  0  0  0  0999 V2000
   36.1030   30.1360   40.2560 C   0  0  0  0  0  0  0  0  0  0  0  0
   36.2020   29.2330   41.3560 C   0  0  0  0  0  0  0  0  0  0  0  0
   37.3150   29.4110   42.1630 C   0  0  0  0  0  0  0  0  0  0  0  0
   38.2410   30.3920   41.9050 N   0  0  0  0  0  0  0  0  0  0  0  0
   38.0940   31.2290   40.8360 C   0  0  0  0  0  0  0  0  0  0  0  0
   37.0290   31.0900   40.0290 N   0  0  0  0  0  0  0  0  0  0  0  0
   35.2590   30.0530   39.5850 H   0  0  0  0  0  0  0  0  0  0  0  0
   35.4770   28.4810   41.5390 H   0  0  0  0  0  0  0  0  0  0  0  0
   37.5150   28.5430   43.3670 C   0  0  0  0  0  0  0  0  0  0  0  0
   36.5420   27.3890   43.4600 C   0  0  0  0  0  0  0  0  0  0  0  0
   38.0510   27.2020   43.1810 C   0  0  0  0  0  0  0  0  0  0  0  0
   37.7130   29.1030   44.3100 H   0  0  0  0  0  0  0  0  0  0  0  0
   35.8280   27.2430   42.6560 H   0  0  0  0  0  0  0  0  0  0  0  0
   36.1930   27.1580   44.4670 H   0  0  0  0  0  0  0  0  0  0  0  0
   38.6570   26.6740   43.9430 H   0  0  0  0  0  0  0  0  0  0  0  0
   38.2270   26.8140   42.1520 H   0  0  0  0  0  0  0  0  0  0  0  0
   39.1920   32.2190   40.7250 C   0  0  0  0  0  3  0  0  0  0  0  0
   38.8730   33.6930   40.7820 C   0  0  0  0  0  2  0  0  0  0  0  0
   39.3410   33.0530   39.5210 C   0  0  0  0  0  2  0  0  0  0  0  0
  1  2  1  0  0  0  0
  2  8  1  0  0  0  0
  2  3  2  0  0  0  0
  3  9  1  0  0  0  0
  4  3  1  0  0  0  0
  5  4  2  0  0  0  0
  6  1  2  0  0  0  0
  6  5  1  0  0  0  0
  7  1  1  0  0  0  0
  9 10  1  0  0  0  0
  9 12  1  0  0  0  0
 10 14  1  0  0  0  0
 11  9  1  0  0  0  0
 11 10  1  0  0  0  0
 11 15  1  0  0  0  0
 13 10  1  0  0  0  0
 16 11  1  0  0  0  0
 17 18  1  0  0  0  0
 17  5  1  0  0  0  0
 19 17  1  0  0  0  0
 19 18  1  0  0  0  0
M  END
>  <minimizedAffinity>
-3.87675381

$$$$

 OpenBabel03252505163D

 19 21  0  0  0  0  0  0  0  0999 V2000
   38.0690   30.9090   40.4520 C   0  0  0  0  0  0  0  0  0  0  0  0
   37.0170   30.5170   39.5710 C   0  0  0  0  0  0  0  0  0  0  0  0
   36.1690   29.5400   40.0690 C   0  0  0  0  0  0  0  0  0  0  0  0
   36.3450   29.0040   41.3200 N   0  0  0  0  0  0  0  0  0  0  0  0
   37.3700   29.4180   42.1210 C   0  0  0  0  0  0  0  0  0  0  0  0
   38.2160   30.3630   41.6770 N   0  0  0  0  0  0  0  0  0  0  0  0
   38.7690   31.6670   40.1280 H   0  0  0  0  0  0  0  0  0  0  0  0
   36.8970   30.9430   38.6080 H   0  0  0  0  0  0  0  0  0  0  0  0
   35.0080   29.0670   39.2480 C   0  0  0  0  0  0  0  0  0  0  0  0
   35.1580   29.3270   37.7660 C   0  0  0  0  0  0  0  0  0  0  0  0
   35.1900   27.9100   38.3820 C   0  0  0  0  0  0  0  0  0  0  0  0
   34.0100   29.2860   39.6930 H   0  0  0  0  0  0  0  0  0  0  0  0
   36.0780   29.7750   37.4060 H   0  0  0  0  0  0  0  0  0  0  0  0
   34.2410   29.6230   37.2530 H   0  0  0  0  0  0  0  0  0  0  0  0
   34.3740   27.2100   38.1160 H   0  0  0  0  0  0  0  0  0  0  0  0
   36.1980   27.4480   38.2800 H   0  0  0  0  0  0  0  0  0  0  0  0
   37.3950   28.7250   43.4310 C   0  0  0  0  0  3  0  0  0  0  0  0
   38.2080   27.4630   43.5900 C   0  0  0  0  0  2  0  0  0  0  0  0
   36.7190   27.4300   43.6160 C   0  0  0  0  0  2  0  0  0  0  0  0
  1  6  1  0  0  0  0
  2  3  1  0  0  0  0
  2  1  2  0  0  0  0
  3  4  2  0  0  0  0
  4  5  1  0  0  0  0
  5 17  1  0  0  0  0
  6  5  2  0  0  0  0
  7  1  1  0  0  0  0
  8  2  1  0  0  0  0
  9 12  1  0  0  0  0
  9  3  1  0  0  0  0
 10 11  1  0  0  0  0
 10  9  1  0  0  0  0
 11  9  1  0  0  0  0
 13 10  1  0  0  0  0
 14 10  1  0  0  0  0
 15 11  1  0  0  0  0
 16 11  1  0  0  0  0
 17 18  1  0  0  0  0
 17 19  1  0  0  0  0
 18 19  1  0  0  0  0
M  END
>  <minimizedAffinity>
-3.84714198

$$$$

 OpenBabel03252505163D

 19 21  0  0  0  0  0  0  0  0999 V2000
   35.7400   28.3330   39.1070 C   0  0  0  0  0  0  0  0  0  0  0  0
   35.8820   29.7470   38.9730 C   0  0  0  0  0  0  0  0  0  0  0  0
   36.5390   30.3730   40.0210 C   0  0  0  0  0  0  0  0  0  0  0  0
   37.0110   29.6650   41.0980 N   0  0  0  0  0  0  0  0  0  0  0  0
   36.8470   28.3120   41.1730 C   0  0  0  0  0  0  0  0  0  0  0  0
   36.2160   27.6660   40.1790 N   0  0  0  0  0  0  0  0  0  0  0  0
   35.2370   27.7810   38.3250 H   0  0  0  0  0  0  0  0  0  0  0  0
   35.5100   30.2760   38.1330 H   0  0  0  0  0  0  0  0  0  0  0  0
   36.7760   31.8510   39.9810 C   0  0  0  0  0  0  0  0  0  0  0  0
   38.1200   32.2720   40.5310 C   0  0  0  0  0  0  0  0  0  0  0  0
   37.7490   32.3780   39.0340 C   0  0  0  0  0  0  0  0  0  0  0  0
   35.8980   32.4660   40.2870 H   0  0  0  0  0  0  0  0  0  0  0  0
   38.8140   31.5050   40.8570 H   0  0  0  0  0  0  0  0  0  0  0  0
   38.1140   33.1980   41.1090 H   0  0  0  0  0  0  0  0  0  0  0  0
   37.6830   33.3890   38.5860 H   0  0  0  0  0  0  0  0  0  0  0  0
   38.3570   31.6770   38.4170 H   0  0  0  0  0  0  0  0  0  0  0  0
   37.4240   27.7290   42.4080 C   0  0  0  0  0  3  0  0  0  0  0  0
   36.5070   27.3060   43.5300 C   0  0  0  0  0  2  0  0  0  0  0  0
   37.4150   28.4770   43.6760 C   0  0  0  0  0  2  0  0  0  0  0  0
  1  6  1  0  0  0  0
  2  1  2  0  0  0  0
  2  3  1  0  0  0  0
  3  4  2  0  0  0  0
  4  5  1  0  0  0  0
  5 17  1  0  0  0  0
  6  5  2  0  0  0  0
  7  1  1  0  0  0  0
  8  2  1  0  0  0  0
  9  3  1  0  0  0  0
  9 12  1  0  0  0  0
  9 10  1  0  0  0  0
 10 13  1  0  0  0  0
 10 14  1  0  0  0  0
 11  9  1  0  0  0  0
 11 10  1  0  0  0  0
 15 11  1  0  0  0  0
 16 11  1  0  0  0  0
 17 18  1  0  0  0  0
 17 19  1  0  0  0  0
 18 19  1  0  0  0  0
M  END
>  <minimizedAffinity>
-3.79596949

$$$$

 OpenBabel03252505163D

 19 21  0  0  0  0  0  0  0  0999 V2000
   40.8930   26.1580   43.2530 C   0  0  0  0  0  0  0  0  0  0  0  0
   40.3340   27.4610   43.4110 C   0  0  0  0  0  0  0  0  0  0  0  0
   38.9750   27.5530   43.1510 C   0  0  0  0  0  0  0  0  0  0  0  0
   38.2410   26.4560   42.7710 N   0  0  0  0  0  0  0  0  0  0  0  0
   38.8300   25.2320   42.6370 C   0  0  0  0  0  0  0  0  0  0  0  0
   40.1440   25.1000   42.8790 N   0  0  0  0  0  0  0  0  0  0  0  0
   41.9490   26.0140   43.4390 H   0  0  0  0  0  0  0  0  0  0  0  0
   40.9180   28.2960   43.7040 H   0  0  0  0  0  0  0  0  0  0  0  0
   38.2680   28.8630   43.3110 C   0  0  0  0  0  0  0  0  0  0  0  0
   39.0200   30.0410   42.7320 C   0  0  0  0  0  0  0  0  0  0  0  0
   37.7030   29.5010   42.1300 C   0  0  0  0  0  0  0  0  0  0  0  0
   37.8010   29.0150   44.3110 H   0  0  0  0  0  0  0  0  0  0  0  0
   39.9570   29.8590   42.2170 H   0  0  0  0  0  0  0  0  0  0  0  0
   38.9570   30.9610   43.3140 H   0  0  0  0  0  0  0  0  0  0  0  0
   36.8120   30.1600   42.1570 H   0  0  0  0  0  0  0  0  0  0  0  0
   37.8720   29.0530   41.1240 H   0  0  0  0  0  0  0  0  0  0  0  0
   37.8750   24.1770   42.2220 C   0  0  0  0  0  3  0  0  0  0  0  0
   37.9170   23.6500   40.8080 C   0  0  0  0  0  2  0  0  0  0  0  0
   36.7740   24.4740   41.2910 C   0  0  0  0  0  2  0  0  0  0  0  0
  1  2  1  0  0  0  0
  1  7  1  0  0  0  0
  2  8  1  0  0  0  0
  3  9  1  0  0  0  0
  3  2  2  0  0  0  0
  4  3  1  0  0  0  0
  5  4  2  0  0  0  0
  5  6  1  0  0  0  0
  6  1  2  0  0  0  0
  9 12  1  0  0  0  0
 10  9  1  0  0  0  0
 10 14  1  0  0  0  0
 11 15  1  0  0  0  0
 11 10  1  0  0  0  0
 11  9  1  0  0  0  0
 13 10  1  0  0  0  0
 16 11  1  0  0  0  0
 17  5  1  0  0  0  0
 18 19  1  0  0  0  0
 18 17  1  0  0  0  0
 19 17  1  0  0  0  0
M  END
>  <minimizedAffinity>
-3.77569556

$$$$

 OpenBabel03252505163D

 19 21  0  0  0  0  0  0  0  0999 V2000
   36.7230   30.9350   40.7630 C   0  0  0  0  0  0  0  0  0  0  0  0
   36.8680   29.9220   41.7560 C   0  0  0  0  0  0  0  0  0  0  0  0
   36.4290   28.6630   41.3790 C   0  0  0  0  0  0  0  0  0  0  0  0
   35.8970   28.4300   40.1350 N   0  0  0  0  0  0  0  0  0  0  0  0
   35.7820   29.4390   39.2230 C   0  0  0  0  0  0  0  0  0  0  0  0
   36.1960   30.6750   39.5480 N   0  0  0  0  0  0  0  0  0  0  0  0
   37.0450   31.9420   40.9900 H   0  0  0  0  0  0  0  0  0  0  0  0
   37.2820   30.1210   42.7120 H   0  0  0  0  0  0  0  0  0  0  0  0
   36.5570   27.5090   42.3260 C   0  0  0  0  0  0  0  0  0  0  0  0
   37.9860   27.0960   42.6000 C   0  0  0  0  0  0  0  0  0  0  0  0
   37.0780   27.7570   43.6630 C   0  0  0  0  0  0  0  0  0  0  0  0
   35.8270   26.6860   42.1500 H   0  0  0  0  0  0  0  0  0  0  0  0
   38.7900   27.6700   42.1520 H   0  0  0  0  0  0  0  0  0  0  0  0
   38.1480   26.0210   42.6870 H   0  0  0  0  0  0  0  0  0  0  0  0
   36.7980   27.1560   44.5510 H   0  0  0  0  0  0  0  0  0  0  0  0
   37.4470   28.7720   43.9340 H   0  0  0  0  0  0  0  0  0  0  0  0
   35.1860   28.9920   37.9410 C   0  0  0  0  0  3  0  0  0  0  0  0
   33.6880   28.8460   37.8280 C   0  0  0  0  0  2  0  0  0  0  0  0
   34.5840   27.6550   37.8100 C   0  0  0  0  0  2  0  0  0  0  0  0
  1  7  1  0  0  0  0
  1  2  1  0  0  0  0
  2  8  1  0  0  0  0
  3  2  2  0  0  0  0
  3  9  1  0  0  0  0
  4  3  1  0  0  0  0
  5  6  1  0  0  0  0
  5  4  2  0  0  0  0
  6  1  2  0  0  0  0
  9 10  1  0  0  0  0
  9 11  1  0  0  0  0
 10 14  1  0  0  0  0
 10 11  1  0  0  0  0
 11 16  1  0  0  0  0
 11 15  1  0  0  0  0
 12  9  1  0  0  0  0
 13 10  1  0  0  0  0
 17  5  1  0  0  0  0
 18 17  1  0  0  0  0
 19 18  1  0  0  0  0
 19 17  1  0  0  0  0
M  END
>  <minimizedAffinity>
-3.72808218

$$$$
