
 OpenBabel03252505383D

 15 16  0  0  0  0  0  0  0  0999 V2000
   37.1780   26.8020   42.2950 C   0  0  0  0  0  0  0  0  0  0  0  0
   38.0980   27.3010   43.2360 C   0  0  0  0  0  0  0  0  0  0  0  0
   38.2910   28.6780   43.2810 C   0  0  0  0  0  0  0  0  0  0  0  0
   37.5890   29.4630   42.4230 N   0  0  0  0  0  0  0  0  0  0  0  0
   36.7170   28.9490   41.5360 C   0  0  0  0  0  0  0  0  0  0  0  0
   36.5170   27.6180   41.4780 N   0  0  0  0  0  0  0  0  0  0  0  0
   38.6080   26.6160   43.8740 H   0  0  0  0  0  0  0  0  0  0  0  0
   38.9920   29.1050   43.9920 H   0  0  0  0  0  0  0  0  0  0  0  0
   36.0490   29.9840   40.6850 C   0  0  0  0  0  0  0  0  0  0  0  0
   36.7610   30.2300   39.5310 F   0  0  0  0  0  0  0  0  0  0  0  0
   35.8920   31.1620   41.3970 F   0  0  0  0  0  0  0  0  0  0  0  0
   34.7520   29.5480   40.3830 F   0  0  0  0  0  0  0  0  0  0  0  0
   36.9510   25.3320   42.2260 C   0  0  0  0  0  3  0  0  0  0  0  0
   37.4450   24.6770   40.9360 C   0  0  0  0  0  2  0  0  0  0  0  0
   38.0980   24.3940   42.2520 C   0  0  0  0  0  2  0  0  0  0  0  0
  1  2  1  0  0  0  0
  2  3  2  0  0  0  0
  2  7  1  0  0  0  0
  3  8  1  0  0  0  0
  4  3  1  0  0  0  0
  5  4  2  0  0  0  0
  6  5  1  0  0  0  0
  6  1  2  0  0  0  0
  9 11  1  0  0  0  0
  9  5  1  0  0  0  0
 10  9  1  0  0  0  0
 12  9  1  0  0  0  0
 13 15  1  0  0  0  0
 13  1  1  0  0  0  0
 14 13  1  0  0  0  0
 14 15  1  0  0  0  0
M  END
>  <minimizedAffinity>
-4.25924301

$$$$

 OpenBabel03252505383D

 15 16  0  0  0  0  0  0  0  0999 V2000
   37.2140   26.6770   42.2090 C   0  0  0  0  0  0  0  0  0  0  0  0
   38.0200   27.2240   43.2260 C   0  0  0  0  0  0  0  0  0  0  0  0
   38.0770   28.6100   43.3270 C   0  0  0  0  0  0  0  0  0  0  0  0
   37.3580   29.3580   42.4500 N   0  0  0  0  0  0  0  0  0  0  0  0
   36.5980   28.7980   41.4910 C   0  0  0  0  0  0  0  0  0  0  0  0
   36.5310   27.4570   41.3770 N   0  0  0  0  0  0  0  0  0  0  0  0
   38.5520   26.5660   43.8740 H   0  0  0  0  0  0  0  0  0  0  0  0
   38.6860   29.0740   44.0980 H   0  0  0  0  0  0  0  0  0  0  0  0
   35.8890   29.7970   40.6300 C   0  0  0  0  0  0  0  0  0  0  0  0
   34.6110   29.3860   40.3210 F   0  0  0  0  0  0  0  0  0  0  0  0
   36.6030   30.0170   39.4630 F   0  0  0  0  0  0  0  0  0  0  0  0
   35.8650   31.0290   41.2980 F   0  0  0  0  0  0  0  0  0  0  0  0
   37.1360   25.1960   42.0780 C   0  0  0  0  0  3  0  0  0  0  0  0
   37.9010   24.6270   40.8830 C   0  0  0  0  0  2  0  0  0  0  0  0
   38.3400   24.3580   42.2880 C   0  0  0  0  0  2  0  0  0  0  0  0
  1  2  1  0  0  0  0
  2  3  2  0  0  0  0
  2  7  1  0  0  0  0
  3  8  1  0  0  0  0
  4  3  1  0  0  0  0
  5  4  2  0  0  0  0
  6  5  1  0  0  0  0
  6  1  2  0  0  0  0
  9 12  1  0  0  0  0
  9  5  1  0  0  0  0
 10  9  1  0  0  0  0
 11  9  1  0  0  0  0
 13  1  1  0  0  0  0
 13 15  1  0  0  0  0
 14 13  1  0  0  0  0
 14 15  1  0  0  0  0
M  END
>  <minimizedAffinity>
-4.23491144

$$$$

 OpenBabel03252505383D

 15 16  0  0  0  0  0  0  0  0999 V2000
   36.5950   28.8550   41.4770 C   0  0  0  0  0  0  0  0  0  0  0  0
   37.4500   29.4620   42.4160 C   0  0  0  0  0  0  0  0  0  0  0  0
   38.2820   28.6330   43.1600 C   0  0  0  0  0  0  0  0  0  0  0  0
   38.2290   27.2930   42.9440 N   0  0  0  0  0  0  0  0  0  0  0  0
   37.3980   26.7490   42.0370 C   0  0  0  0  0  0  0  0  0  0  0  0
   36.5840   27.5360   41.3070 N   0  0  0  0  0  0  0  0  0  0  0  0
   37.4300   30.5230   42.5230 H   0  0  0  0  0  0  0  0  0  0  0  0
   38.9580   29.0610   43.8960 H   0  0  0  0  0  0  0  0  0  0  0  0
   37.4940   25.2560   41.9560 C   0  0  0  0  0  0  0  0  0  0  0  0
   37.5610   24.8210   40.6510 F   0  0  0  0  0  0  0  0  0  0  0  0
   36.4090   24.6710   42.5890 F   0  0  0  0  0  0  0  0  0  0  0  0
   38.6220   24.8390   42.6750 F   0  0  0  0  0  0  0  0  0  0  0  0
   35.6920   29.7190   40.6660 C   0  0  0  0  0  3  0  0  0  0  0  0
   36.0780   29.8270   39.1920 C   0  0  0  0  0  2  0  0  0  0  0  0
   34.8270   29.1270   39.6190 C   0  0  0  0  0  2  0  0  0  0  0  0
  1  2  1  0  0  0  0
  2  7  1  0  0  0  0
  2  3  2  0  0  0  0
  3  8  1  0  0  0  0
  4  3  1  0  0  0  0
  5  4  2  0  0  0  0
  6  1  2  0  0  0  0
  6  5  1  0  0  0  0
  9  5  1  0  0  0  0
  9 11  1  0  0  0  0
  9 12  1  0  0  0  0
 10  9  1  0  0  0  0
 13  1  1  0  0  0  0
 14 15  1  0  0  0  0
 14 13  1  0  0  0  0
 15 13  1  0  0  0  0
M  END
>  <minimizedAffinity>
-4.05755758

$$$$

 OpenBabel03252505383D

 15 16  0  0  0  0  0  0  0  0999 V2000
   36.8720   29.0240   41.9350 C   0  0  0  0  0  0  0  0  0  0  0  0
   35.7700   28.7370   41.1070 C   0  0  0  0  0  0  0  0  0  0  0  0
   35.4830   29.6340   40.0840 C   0  0  0  0  0  0  0  0  0  0  0  0
   36.2730   30.7300   39.9360 N   0  0  0  0  0  0  0  0  0  0  0  0
   37.3180   30.9690   40.7480 C   0  0  0  0  0  0  0  0  0  0  0  0
   37.6120   30.1120   41.7450 N   0  0  0  0  0  0  0  0  0  0  0  0
   35.2010   27.8550   41.2900 H   0  0  0  0  0  0  0  0  0  0  0  0
   34.6410   29.4520   39.4210 H   0  0  0  0  0  0  0  0  0  0  0  0
   38.0580   32.2290   40.4150 C   0  0  0  0  0  0  0  0  0  0  0  0
   38.8450   32.6480   41.4650 F   0  0  0  0  0  0  0  0  0  0  0  0
   37.1650   33.2320   40.0710 F   0  0  0  0  0  0  0  0  0  0  0  0
   38.8360   32.0050   39.2720 F   0  0  0  0  0  0  0  0  0  0  0  0
   37.2020   28.0800   43.0390 C   0  0  0  0  0  3  0  0  0  0  0  0
   37.8500   26.7740   42.5800 C   0  0  0  0  0  2  0  0  0  0  0  0
   38.6140   27.7840   43.3770 C   0  0  0  0  0  2  0  0  0  0  0  0
  1 13  1  0  0  0  0
  2  7  1  0  0  0  0
  2  1  2  0  0  0  0
  3  2  1  0  0  0  0
  4  3  2  0  0  0  0
  4  5  1  0  0  0  0
  5  6  2  0  0  0  0
  6  1  1  0  0  0  0
  8  3  1  0  0  0  0
  9  5  1  0  0  0  0
  9 10  1  0  0  0  0
 11  9  1  0  0  0  0
 12  9  1  0  0  0  0
 13 15  1  0  0  0  0
 14 13  1  0  0  0  0
 14 15  1  0  0  0  0
M  END
>  <minimizedAffinity>
-4.05692577

$$$$

 OpenBabel03252505383D

 15 16  0  0  0  0  0  0  0  0999 V2000
   37.7820   29.6760   42.2160 C   0  0  0  0  0  0  0  0  0  0  0  0
   39.0160   29.9990   42.8120 C   0  0  0  0  0  0  0  0  0  0  0  0
   39.7320   31.0630   42.2740 C   0  0  0  0  0  0  0  0  0  0  0  0
   39.2090   31.7310   41.2120 N   0  0  0  0  0  0  0  0  0  0  0  0
   38.0250   31.3920   40.6700 C   0  0  0  0  0  0  0  0  0  0  0  0
   37.3180   30.3640   41.1770 N   0  0  0  0  0  0  0  0  0  0  0  0
   39.3550   29.4250   43.6440 H   0  0  0  0  0  0  0  0  0  0  0  0
   40.6890   31.3470   42.7030 H   0  0  0  0  0  0  0  0  0  0  0  0
   37.6310   32.2520   39.5090 C   0  0  0  0  0  0  0  0  0  0  0  0
   38.7000   32.5070   38.6780 F   0  0  0  0  0  0  0  0  0  0  0  0
   37.0950   33.4490   39.9590 F   0  0  0  0  0  0  0  0  0  0  0  0
   36.5990   31.6150   38.8070 F   0  0  0  0  0  0  0  0  0  0  0  0
   36.9940   28.5410   42.7720 C   0  0  0  0  0  3  0  0  0  0  0  0
   37.3910   27.1700   42.2250 C   0  0  0  0  0  2  0  0  0  0  0  0
   37.6400   27.5400   43.6530 C   0  0  0  0  0  2  0  0  0  0  0  0
  1 13  1  0  0  0  0
  1  2  1  0  0  0  0
  2  7  1  0  0  0  0
  3  8  1  0  0  0  0
  3  2  2  0  0  0  0
  4  3  1  0  0  0  0
  5  6  1  0  0  0  0
  5  4  2  0  0  0  0
  6  1  2  0  0  0  0
  9 11  1  0  0  0  0
  9  5  1  0  0  0  0
 10  9  1  0  0  0  0
 12  9  1  0  0  0  0
 13 15  1  0  0  0  0
 14 13  1  0  0  0  0
 14 15  1  0  0  0  0
M  END
>  <minimizedAffinity>
-4.03884506

$$$$

 OpenBabel03252505383D

 15 16  0  0  0  0  0  0  0  0999 V2000
   37.4430   30.3640   40.7460 C   0  0  0  0  0  0  0  0  0  0  0  0
   38.5450   30.9670   41.3820 C   0  0  0  0  0  0  0  0  0  0  0  0
   39.1070   30.3010   42.4650 C   0  0  0  0  0  0  0  0  0  0  0  0
   38.5710   29.1130   42.8510 N   0  0  0  0  0  0  0  0  0  0  0  0
   37.5170   28.5680   42.2170 C   0  0  0  0  0  0  0  0  0  0  0  0
   36.9580   29.1990   41.1660 N   0  0  0  0  0  0  0  0  0  0  0  0
   38.9050   31.9010   41.0160 H   0  0  0  0  0  0  0  0  0  0  0  0
   39.9590   30.7310   42.9850 H   0  0  0  0  0  0  0  0  0  0  0  0
   37.0810   27.2590   42.7990 C   0  0  0  0  0  0  0  0  0  0  0  0
   36.0200   27.4150   43.6630 F   0  0  0  0  0  0  0  0  0  0  0  0
   38.1370   26.6530   43.4610 F   0  0  0  0  0  0  0  0  0  0  0  0
   36.7430   26.3920   41.7510 F   0  0  0  0  0  0  0  0  0  0  0  0
   36.8200   31.0560   39.5840 C   0  0  0  0  0  3  0  0  0  0  0  0
   37.6660   31.0360   38.3110 C   0  0  0  0  0  2  0  0  0  0  0  0
   36.3760   30.2830   38.4000 C   0  0  0  0  0  2  0  0  0  0  0  0
  1  6  2  0  0  0  0
  1  2  1  0  0  0  0
  2  3  2  0  0  0  0
  3  4  1  0  0  0  0
  3  8  1  0  0  0  0
  5  9  1  0  0  0  0
  5  4  2  0  0  0  0
  6  5  1  0  0  0  0
  7  2  1  0  0  0  0
  9 11  1  0  0  0  0
  9 10  1  0  0  0  0
 12  9  1  0  0  0  0
 13  1  1  0  0  0  0
 14 15  1  0  0  0  0
 14 13  1  0  0  0  0
 15 13  1  0  0  0  0
M  END
>  <minimizedAffinity>
-4.00792646

$$$$

 OpenBabel03252505383D

 15 16  0  0  0  0  0  0  0  0999 V2000
   36.6220   28.5680   41.9580 C   0  0  0  0  0  0  0  0  0  0  0  0
   37.1940   29.8520   42.0300 C   0  0  0  0  0  0  0  0  0  0  0  0
   36.8960   30.7490   41.0100 C   0  0  0  0  0  0  0  0  0  0  0  0
   36.0740   30.3450   40.0060 N   0  0  0  0  0  0  0  0  0  0  0  0
   35.5460   29.1080   39.9720 C   0  0  0  0  0  0  0  0  0  0  0  0
   35.8240   28.2250   40.9510 N   0  0  0  0  0  0  0  0  0  0  0  0
   37.8290   30.0900   42.8530 H   0  0  0  0  0  0  0  0  0  0  0  0
   37.3160   31.7510   41.0270 H   0  0  0  0  0  0  0  0  0  0  0  0
   34.6700   28.8640   38.7820 C   0  0  0  0  0  0  0  0  0  0  0  0
   34.7690   27.5650   38.3340 F   0  0  0  0  0  0  0  0  0  0  0  0
   34.9990   29.7370   37.7570 F   0  0  0  0  0  0  0  0  0  0  0  0
   33.3460   29.1680   39.1290 F   0  0  0  0  0  0  0  0  0  0  0  0
   36.9250   27.5880   43.0380 C   0  0  0  0  0  3  0  0  0  0  0  0
   37.8980   26.4820   42.6310 C   0  0  0  0  0  2  0  0  0  0  0  0
   38.2800   27.5240   43.6340 C   0  0  0  0  0  2  0  0  0  0  0  0
  1  2  1  0  0  0  0
  1 13  1  0  0  0  0
  2  7  1  0  0  0  0
  3  8  1  0  0  0  0
  3  2  2  0  0  0  0
  4  3  1  0  0  0  0
  5  4  2  0  0  0  0
  5  6  1  0  0  0  0
  6  1  2  0  0  0  0
  9 12  1  0  0  0  0
  9  5  1  0  0  0  0
 10  9  1  0  0  0  0
 11  9  1  0  0  0  0
 13 15  1  0  0  0  0
 14 13  1  0  0  0  0
 14 15  1  0  0  0  0
M  END
>  <minimizedAffinity>
-3.99828768

$$$$

 OpenBabel03252505383D

 15 16  0  0  0  0  0  0  0  0999 V2000
   35.9610   28.9110   39.4840 C   0  0  0  0  0  0  0  0  0  0  0  0
   36.0620   30.3030   39.6730 C   0  0  0  0  0  0  0  0  0  0  0  0
   36.4600   30.7550   40.9260 C   0  0  0  0  0  0  0  0  0  0  0  0
   36.7290   29.8400   41.8950 N   0  0  0  0  0  0  0  0  0  0  0  0
   36.6210   28.5180   41.6760 C   0  0  0  0  0  0  0  0  0  0  0  0
   36.2360   28.0600   40.4680 N   0  0  0  0  0  0  0  0  0  0  0  0
   35.8340   30.9530   38.8600 H   0  0  0  0  0  0  0  0  0  0  0  0
   36.5510   31.8210   41.1150 H   0  0  0  0  0  0  0  0  0  0  0  0
   36.9610   27.6830   42.8720 C   0  0  0  0  0  0  0  0  0  0  0  0
   35.8440   27.3940   43.6250 F   0  0  0  0  0  0  0  0  0  0  0  0
   37.8980   28.3340   43.6590 F   0  0  0  0  0  0  0  0  0  0  0  0
   37.5830   26.5060   42.4360 F   0  0  0  0  0  0  0  0  0  0  0  0
   35.5370   28.3990   38.1510 C   0  0  0  0  0  3  0  0  0  0  0  0
   34.0230   28.3140   37.9610 C   0  0  0  0  0  2  0  0  0  0  0  0
   34.8510   29.2920   37.1870 C   0  0  0  0  0  2  0  0  0  0  0  0
  1  2  2  0  0  0  0
  1  6  1  0  0  0  0
  2  3  1  0  0  0  0
  3  8  1  0  0  0  0
  3  4  2  0  0  0  0
  5  4  1  0  0  0  0
  5  9  1  0  0  0  0
  6  5  2  0  0  0  0
  7  2  1  0  0  0  0
  9 10  1  0  0  0  0
  9 11  1  0  0  0  0
 12  9  1  0  0  0  0
 13  1  1  0  0  0  0
 14 13  1  0  0  0  0
 15 14  1  0  0  0  0
 15 13  1  0  0  0  0
M  END
>  <minimizedAffinity>
-3.99244857

$$$$

 OpenBabel03252505383D

 15 16  0  0  0  0  0  0  0  0999 V2000
   36.0150   28.2300   39.3950 C   0  0  0  0  0  0  0  0  0  0  0  0
   36.3110   26.9660   38.8500 C   0  0  0  0  0  0  0  0  0  0  0  0
   36.8240   25.9990   39.7080 C   0  0  0  0  0  0  0  0  0  0  0  0
   37.0120   26.3200   41.0150 N   0  0  0  0  0  0  0  0  0  0  0  0
   36.7170   27.5400   41.4980 C   0  0  0  0  0  0  0  0  0  0  0  0
   36.2190   28.4900   40.6820 N   0  0  0  0  0  0  0  0  0  0  0  0
   36.1330   26.7950   37.8130 H   0  0  0  0  0  0  0  0  0  0  0  0
   37.0660   25.0100   39.3290 H   0  0  0  0  0  0  0  0  0  0  0  0
   36.9990   27.6880   42.9620 C   0  0  0  0  0  0  0  0  0  0  0  0
   37.3660   28.9760   43.2820 F   0  0  0  0  0  0  0  0  0  0  0  0
   37.9980   26.8080   43.3490 F   0  0  0  0  0  0  0  0  0  0  0  0
   35.8570   27.3050   43.6800 F   0  0  0  0  0  0  0  0  0  0  0  0
   35.4650   29.2840   38.4980 C   0  0  0  0  0  3  0  0  0  0  0  0
   36.5180   30.2090   37.8900 C   0  0  0  0  0  2  0  0  0  0  0  0
   35.7410   29.2520   37.0430 C   0  0  0  0  0  2  0  0  0  0  0  0
  1  6  1  0  0  0  0
  2  1  2  0  0  0  0
  2  3  1  0  0  0  0
  3  4  2  0  0  0  0
  4  5  1  0  0  0  0
  5  9  1  0  0  0  0
  6  5  2  0  0  0  0
  7  2  1  0  0  0  0
  8  3  1  0  0  0  0
  9 10  1  0  0  0  0
  9 11  1  0  0  0  0
  9 12  1  0  0  0  0
 13  1  1  0  0  0  0
 14 13  1  0  0  0  0
 15 14  1  0  0  0  0
 15 13  1  0  0  0  0
M  END
>  <minimizedAffinity>
-3.90589666

$$$$
