
 OpenBabel03252508303D

 33 36  0  0  1  0  0  0  0  0999 V2000
   36.9490   29.6590   42.5550 N   0  0  0  0  0  0  0  0  0  0  0  0
   38.0710   28.8320   43.0080 C   0  0  2  0  0  0  0  0  0  0  0  0
   39.3860   29.3480   42.5540 C   0  0  0  0  0  0  0  0  0  0  0  0
   39.2950   30.6770   41.9730 N   0  0  0  0  0  0  0  0  0  0  0  0
   38.2820   30.8400   40.9930 C   0  0  0  0  0  0  0  0  0  0  0  0
   37.1890   29.8130   41.1010 C   0  0  2  0  0  0  0  0  0  0  0  0
   37.0720   30.5800   43.0230 H   0  0  0  0  0  0  0  0  0  0  0  0
   38.0240   28.8030   44.1290 H   0  0  0  0  0  0  0  0  0  0  0  0
   39.8800   28.8080   41.7280 H   0  0  0  0  0  0  0  0  0  0  0  0
   40.0730   29.4720   43.4350 H   0  0  0  0  0  0  0  0  0  0  0  0
   39.3500   31.4300   42.6890 H   0  0  0  0  0  0  0  0  0  0  0  0
   37.8350   31.8500   41.1140 H   0  0  0  0  0  0  0  0  0  0  0  0
   38.7260   30.7940   39.9640 H   0  0  0  0  0  0  0  0  0  0  0  0
   37.5890   28.8390   40.7320 H   0  0  0  0  0  0  0  0  0  0  0  0
   38.0950   25.5990   41.4120 C   0  0  0  0  0  0  0  0  0  0  0  0
   36.9790   25.5540   42.2560 C   0  0  0  0  0  0  0  0  0  0  0  0
   36.8570   26.7580   42.9310 C   0  0  0  0  0  0  0  0  0  0  0  0
   37.8770   27.4920   42.4950 N   0  0  0  0  0  0  0  0  0  0  0  0
   38.5980   26.8180   41.6110 N   0  0  0  0  0  0  0  0  0  0  0  0
   36.3850   24.6300   42.2720 H   0  0  0  0  0  0  0  0  0  0  0  0
   35.9880   26.7260   43.5800 H   0  0  0  0  0  0  0  0  0  0  0  0
   39.8340   23.5230   38.8050 C   0  0  0  0  0  0  0  0  0  0  0  0
   39.5090   24.6770   39.5830 C   0  0  0  0  0  0  0  0  0  0  0  0
   38.5300   24.5130   40.5320 C   0  0  0  0  0  0  0  0  0  0  0  0
   37.9390   23.3040   40.6820 N   0  0  0  0  0  0  0  0  0  0  0  0
   38.2560   22.2250   39.9420 C   0  0  0  0  0  0  0  0  0  0  0  0
   39.2000   22.3590   39.0150 N   0  0  0  0  0  0  0  0  0  0  0  0
   40.5920   23.6530   38.0700 H   0  0  0  0  0  0  0  0  0  0  0  0
   39.9700   25.6310   39.4710 H   0  0  0  0  0  0  0  0  0  0  0  0
   37.7700   21.2680   40.0760 H   0  0  0  0  0  0  0  0  0  0  0  0
   35.9320   30.1810   40.4150 C   0  0  0  0  0  3  0  0  0  0  0  0
   34.8030   29.2860   40.1990 C   0  0  0  0  0  2  0  0  0  0  0  0
   35.7300   29.5480   39.0410 C   0  0  0  0  0  2  0  0  0  0  0  0
  1  2  1  0  0  0  0
  1  7  1  0  0  0  0
  2  8  1  1  0  0  0
  3  2  1  0  0  0  0
  3 10  1  0  0  0  0
  4  3  1  0  0  0  0
  4 11  1  0  0  0  0
  5  6  1  0  0  0  0
  5 12  1  0  0  0  0
  5  4  1  0  0  0  0
  6 14  1  6  0  0  0
  6  1  1  0  0  0  0
  9  3  1  0  0  0  0
 13  5  1  0  0  0  0
 15 19  2  0  0  0  0
 15 16  1  0  0  0  0
 16 20  1  0  0  0  0
 16 17  2  0  0  0  0
 17 21  1  0  0  0  0
 18 17  1  0  0  0  0
 18  2  1  0  0  0  0
 19 18  1  0  0  0  0
 22 27  2  0  0  0  0
 22 23  1  0  0  0  0
 23 24  2  0  0  0  0
 24 25  1  0  0  0  0
 24 15  1  0  0  0  0
 26 30  1  0  0  0  0
 26 25  2  0  0  0  0
 27 26  1  0  0  0  0
 28 22  1  0  0  0  0
 29 23  1  0  0  0  0
 31  6  1  0  0  0  0
 32 31  1  0  0  0  0
 33 32  1  0  0  0  0
 33 31  1  0  0  0  0
M  END
>  <minimizedAffinity>
-5.07254171

$$$$

 OpenBabel03252508303D

 33 36  0  0  1  0  0  0  0  0999 V2000
   35.7350   28.4620   41.1520 N   0  0  0  0  0  0  0  0  0  0  0  0
   35.7180   29.1080   39.8370 C   0  0  2  0  0  0  0  0  0  0  0  0
   36.0860   28.1830   38.7370 C   0  0  0  0  0  0  0  0  0  0  0  0
   36.1470   26.7970   39.1670 N   0  0  0  0  0  0  0  0  0  0  0  0
   36.8990   26.5630   40.3470 C   0  0  0  0  0  0  0  0  0  0  0  0
   37.0550   27.7930   41.1990 C   0  0  2  0  0  0  0  0  0  0  0  0
   34.9850   27.7410   41.1210 H   0  0  0  0  0  0  0  0  0  0  0  0
   34.6800   29.5100   39.6840 H   0  0  0  0  0  0  0  0  0  0  0  0
   37.0940   28.2960   38.3020 H   0  0  0  0  0  0  0  0  0  0  0  0
   35.2910   28.1980   37.9430 H   0  0  0  0  0  0  0  0  0  0  0  0
   35.2190   26.3260   39.1280 H   0  0  0  0  0  0  0  0  0  0  0  0
   36.3850   25.7790   40.9440 H   0  0  0  0  0  0  0  0  0  0  0  0
   37.9160   26.1680   40.0870 H   0  0  0  0  0  0  0  0  0  0  0  0
   37.7840   28.4730   40.6960 H   0  0  0  0  0  0  0  0  0  0  0  0
   38.2960   31.5950   39.4330 C   0  0  0  0  0  0  0  0  0  0  0  0
   37.5380   32.0630   40.5130 C   0  0  0  0  0  0  0  0  0  0  0  0
   36.5040   31.1780   40.7740 C   0  0  0  0  0  0  0  0  0  0  0  0
   36.6500   30.2150   39.8680 N   0  0  0  0  0  0  0  0  0  0  0  0
   37.6930   30.4570   39.0870 N   0  0  0  0  0  0  0  0  0  0  0  0
   37.8420   33.0090   40.9820 H   0  0  0  0  0  0  0  0  0  0  0  0
   35.9200   31.5360   41.6150 H   0  0  0  0  0  0  0  0  0  0  0  0
   41.2570   32.5700   37.3320 C   0  0  0  0  0  0  0  0  0  0  0  0
   40.1230   31.8110   37.7570 C   0  0  0  0  0  0  0  0  0  0  0  0
   39.4770   32.2610   38.8820 C   0  0  0  0  0  0  0  0  0  0  0  0
   39.9300   33.3690   39.5160 N   0  0  0  0  0  0  0  0  0  0  0  0
   41.0010   34.0750   39.1040 C   0  0  0  0  0  0  0  0  0  0  0  0
   41.6440   33.6580   38.0170 N   0  0  0  0  0  0  0  0  0  0  0  0
   41.7560   32.2190   36.4620 H   0  0  0  0  0  0  0  0  0  0  0  0
   39.7610   30.9390   37.2630 H   0  0  0  0  0  0  0  0  0  0  0  0
   41.3470   34.9570   39.6260 H   0  0  0  0  0  0  0  0  0  0  0  0
   37.4390   27.5230   42.6000 C   0  0  0  0  0  3  0  0  0  0  0  0
   37.4110   28.5010   43.6800 C   0  0  0  0  0  2  0  0  0  0  0  0
   38.7420   28.1720   43.0570 C   0  0  0  0  0  2  0  0  0  0  0  0
  1  6  1  0  0  0  0
  2  8  1  6  0  0  0
  2 18  1  0  0  0  0
  2  1  1  0  0  0  0
  3  4  1  0  0  0  0
  3  2  1  0  0  0  0
  4  5  1  0  0  0  0
  5 12  1  0  0  0  0
  5  6  1  0  0  0  0
  6 14  1  6  0  0  0
  6 31  1  0  0  0  0
  7  1  1  0  0  0  0
  9  3  1  0  0  0  0
 10  3  1  0  0  0  0
 11  4  1  0  0  0  0
 13  5  1  0  0  0  0
 15 16  1  0  0  0  0
 16 17  2  0  0  0  0
 16 20  1  0  0  0  0
 17 21  1  0  0  0  0
 18 17  1  0  0  0  0
 19 15  2  0  0  0  0
 19 18  1  0  0  0  0
 22 23  2  0  0  0  0
 22 27  1  0  0  0  0
 23 24  1  0  0  0  0
 24 15  1  0  0  0  0
 24 25  2  0  0  0  0
 26 25  1  0  0  0  0
 26 30  1  0  0  0  0
 27 26  2  0  0  0  0
 28 22  1  0  0  0  0
 29 23  1  0  0  0  0
 31 33  1  0  0  0  0
 31 32  1  0  0  0  0
 33 32  1  0  0  0  0
M  END
>  <minimizedAffinity>
-5.06241465

$$$$

 OpenBabel03252508303D

 33 36  0  0  1  0  0  0  0  0999 V2000
   39.1390   31.3870   39.6560 N   0  0  0  0  0  0  0  0  0  0  0  0
   37.7570   30.9200   39.8030 C   0  0  2  0  0  0  0  0  0  0  0  0
   36.8370   31.9890   40.2670 C   0  0  0  0  0  0  0  0  0  0  0  0
   37.4500   33.3060   40.2420 N   0  0  0  0  0  0  0  0  0  0  0  0
   38.7280   33.3890   40.8520 C   0  0  0  0  0  0  0  0  0  0  0  0
   39.4230   32.0580   40.9450 C   0  0  2  0  0  0  0  0  0  0  0  0
   39.1180   32.0960   38.8960 H   0  0  0  0  0  0  0  0  0  0  0  0
   37.4360   30.5310   38.8000 H   0  0  0  0  0  0  0  0  0  0  0  0
   36.5090   31.9460   41.3200 H   0  0  0  0  0  0  0  0  0  0  0  0
   35.9630   32.0700   39.5650 H   0  0  0  0  0  0  0  0  0  0  0  0
   37.3670   33.7660   39.3130 H   0  0  0  0  0  0  0  0  0  0  0  0
   39.3590   34.0800   40.2530 H   0  0  0  0  0  0  0  0  0  0  0  0
   38.6390   33.8270   41.8810 H   0  0  0  0  0  0  0  0  0  0  0  0
   38.9220   31.4600   41.7430 H   0  0  0  0  0  0  0  0  0  0  0  0
   38.2250   28.0070   41.8730 C   0  0  0  0  0  0  0  0  0  0  0  0
   37.1220   28.6540   42.4410 C   0  0  0  0  0  0  0  0  0  0  0  0
   36.8350   29.8030   41.7210 C   0  0  0  0  0  0  0  0  0  0  0  0
   37.7490   29.8300   40.7550 N   0  0  0  0  0  0  0  0  0  0  0  0
   38.5580   28.7850   40.8430 N   0  0  0  0  0  0  0  0  0  0  0  0
   36.6580   28.1980   43.3260 H   0  0  0  0  0  0  0  0  0  0  0  0
   35.9760   30.3020   42.1570 H   0  0  0  0  0  0  0  0  0  0  0  0
   40.3080   25.4210   43.6360 C   0  0  0  0  0  0  0  0  0  0  0  0
   39.8520   26.7180   43.2470 C   0  0  0  0  0  0  0  0  0  0  0  0
   38.8070   26.7540   42.3570 C   0  0  0  0  0  0  0  0  0  0  0  0
   38.2740   25.5940   41.9040 N   0  0  0  0  0  0  0  0  0  0  0  0
   38.7140   24.3780   42.2790 C   0  0  0  0  0  0  0  0  0  0  0  0
   39.7260   24.3180   43.1400 N   0  0  0  0  0  0  0  0  0  0  0  0
   41.1180   25.3970   44.3250 H   0  0  0  0  0  0  0  0  0  0  0  0
   40.2660   27.6350   43.6000 H   0  0  0  0  0  0  0  0  0  0  0  0
   38.2760   23.4630   41.9050 H   0  0  0  0  0  0  0  0  0  0  0  0
   40.8830   32.1440   41.1630 C   0  0  0  0  0  3  0  0  0  0  0  0
   41.8390   31.0880   40.8550 C   0  0  0  0  0  2  0  0  0  0  0  0
   41.4260   31.2730   42.2910 C   0  0  0  0  0  2  0  0  0  0  0  0
  1  2  1  0  0  0  0
  1  6  1  0  0  0  0
  2  8  1  6  0  0  0
  2  3  1  0  0  0  0
  2 18  1  0  0  0  0
  3  9  1  0  0  0  0
  4  3  1  0  0  0  0
  4  5  1  0  0  0  0
  5  6  1  0  0  0  0
  5 13  1  0  0  0  0
  6 31  1  0  0  0  0
  6 14  1  1  0  0  0
  7  1  1  0  0  0  0
 10  3  1  0  0  0  0
 11  4  1  0  0  0  0
 12  5  1  0  0  0  0
 15 24  1  0  0  0  0
 15 16  1  0  0  0  0
 16 20  1  0  0  0  0
 17 21  1  0  0  0  0
 17 16  2  0  0  0  0
 18 19  1  0  0  0  0
 18 17  1  0  0  0  0
 19 15  2  0  0  0  0
 22 28  1  0  0  0  0
 23 29  1  0  0  0  0
 23 22  1  0  0  0  0
 24 23  2  0  0  0  0
 25 26  2  0  0  0  0
 25 24  1  0  0  0  0
 26 27  1  0  0  0  0
 27 22  2  0  0  0  0
 30 26  1  0  0  0  0
 31 33  1  0  0  0  0
 32 31  1  0  0  0  0
 32 33  1  0  0  0  0
M  END
>  <minimizedAffinity>
-5.04694796

$$$$

 OpenBabel03252508303D

 33 36  0  0  1  0  0  0  0  0999 V2000
   36.1980   31.1820   40.0370 N   0  0  0  0  0  0  0  0  0  0  0  0
   37.2120   31.5450   41.0320 C   0  0  2  0  0  0  0  0  0  0  0  0
   38.2440   32.4640   40.4910 C   0  0  0  0  0  0  0  0  0  0  0  0
   37.8960   32.9890   39.1810 N   0  0  0  0  0  0  0  0  0  0  0  0
   37.4830   32.0190   38.2320 C   0  0  0  0  0  0  0  0  0  0  0  0
   36.9940   30.7460   38.8670 C   0  0  2  0  0  0  0  0  0  0  0  0
   35.7020   32.0650   39.8060 H   0  0  0  0  0  0  0  0  0  0  0  0
   36.6690   32.0230   41.8910 H   0  0  0  0  0  0  0  0  0  0  0  0
   39.2350   32.0310   40.2700 H   0  0  0  0  0  0  0  0  0  0  0  0
   38.3280   33.3730   41.1460 H   0  0  0  0  0  0  0  0  0  0  0  0
   37.3000   33.8400   39.2390 H   0  0  0  0  0  0  0  0  0  0  0  0
   36.6610   32.4510   37.6220 H   0  0  0  0  0  0  0  0  0  0  0  0
   38.3250   31.7770   37.5320 H   0  0  0  0  0  0  0  0  0  0  0  0
   37.8790   30.1920   39.2610 H   0  0  0  0  0  0  0  0  0  0  0  0
   38.2970   28.2350   41.9600 C   0  0  0  0  0  0  0  0  0  0  0  0
   39.3470   29.0650   42.3710 C   0  0  0  0  0  0  0  0  0  0  0  0
   39.0430   30.3840   42.0690 C   0  0  0  0  0  0  0  0  0  0  0  0
   37.8450   30.3280   41.4940 N   0  0  0  0  0  0  0  0  0  0  0  0
   37.4100   29.0780   41.4310 N   0  0  0  0  0  0  0  0  0  0  0  0
   40.2180   28.5950   42.8460 H   0  0  0  0  0  0  0  0  0  0  0  0
   39.8530   31.0280   42.3930 H   0  0  0  0  0  0  0  0  0  0  0  0
   37.2320   24.6340   42.1310 C   0  0  0  0  0  0  0  0  0  0  0  0
   37.1140   26.0450   41.9420 C   0  0  0  0  0  0  0  0  0  0  0  0
   38.2580   26.7810   42.1270 C   0  0  0  0  0  0  0  0  0  0  0  0
   39.4100   26.1540   42.4690 N   0  0  0  0  0  0  0  0  0  0  0  0
   39.5060   24.8230   42.6440 C   0  0  0  0  0  0  0  0  0  0  0  0
   38.4110   24.0890   42.4710 N   0  0  0  0  0  0  0  0  0  0  0  0
   36.3450   24.0670   41.9880 H   0  0  0  0  0  0  0  0  0  0  0  0
   36.2120   26.5450   41.6720 H   0  0  0  0  0  0  0  0  0  0  0  0
   40.4350   24.3420   42.9190 H   0  0  0  0  0  0  0  0  0  0  0  0
   36.1700   29.8970   37.9800 C   0  0  0  0  0  3  0  0  0  0  0  0
   35.1910   28.9160   38.4320 C   0  0  0  0  0  2  0  0  0  0  0  0
   36.5350   28.4150   37.9720 C   0  0  0  0  0  2  0  0  0  0  0  0
  1  2  1  0  0  0  0
  2 18  1  0  0  0  0
  2  8  1  1  0  0  0
  3  2  1  0  0  0  0
  3 10  1  0  0  0  0
  4 11  1  0  0  0  0
  4  3  1  0  0  0  0
  5  6  1  0  0  0  0
  5  4  1  0  0  0  0
  6 14  1  1  0  0  0
  6  1  1  0  0  0  0
  7  1  1  0  0  0  0
  9  3  1  0  0  0  0
 12  5  1  0  0  0  0
 13  5  1  0  0  0  0
 15 24  1  0  0  0  0
 15 16  1  0  0  0  0
 16 20  1  0  0  0  0
 17 16  2  0  0  0  0
 17 21  1  0  0  0  0
 18 17  1  0  0  0  0
 19 18  1  0  0  0  0
 19 15  2  0  0  0  0
 22 27  1  0  0  0  0
 23 24  1  0  0  0  0
 23 22  2  0  0  0  0
 24 25  2  0  0  0  0
 25 26  1  0  0  0  0
 26 30  1  0  0  0  0
 27 26  2  0  0  0  0
 28 22  1  0  0  0  0
 29 23  1  0  0  0  0
 31 32  1  0  0  0  0
 31  6  1  0  0  0  0
 33 31  1  0  0  0  0
 33 32  1  0  0  0  0
M  END
>  <minimizedAffinity>
-5.04449844

$$$$

 OpenBabel03252508303D

 33 36  0  0  1  0  0  0  0  0999 V2000
   36.8020   31.5300   39.3240 N   0  0  0  0  0  0  0  0  0  0  0  0
   37.2930   31.4490   40.7020 C   0  0  2  0  0  0  0  0  0  0  0  0
   38.6730   31.9740   40.8520 C   0  0  0  0  0  0  0  0  0  0  0  0
   39.1410   32.6670   39.6640 N   0  0  0  0  0  0  0  0  0  0  0  0
   38.9570   31.9660   38.4440 C   0  0  0  0  0  0  0  0  0  0  0  0
   37.8870   30.9120   38.5270 C   0  0  2  0  0  0  0  0  0  0  0  0
   36.7480   32.5450   39.1030 H   0  0  0  0  0  0  0  0  0  0  0  0
   36.5770   32.0350   41.3390 H   0  0  0  0  0  0  0  0  0  0  0  0
   39.4810   31.2330   40.9760 H   0  0  0  0  0  0  0  0  0  0  0  0
   38.7000   32.7520   41.6620 H   0  0  0  0  0  0  0  0  0  0  0  0
   38.8610   33.6680   39.6500 H   0  0  0  0  0  0  0  0  0  0  0  0
   38.6770   32.6980   37.6560 H   0  0  0  0  0  0  0  0  0  0  0  0
   39.9180   31.4850   38.1240 H   0  0  0  0  0  0  0  0  0  0  0  0
   38.2850   30.0580   39.1240 H   0  0  0  0  0  0  0  0  0  0  0  0
   37.7940   28.0710   41.8550 C   0  0  0  0  0  0  0  0  0  0  0  0
   36.4360   28.1180   41.5210 C   0  0  0  0  0  0  0  0  0  0  0  0
   36.1160   29.3830   41.0520 C   0  0  0  0  0  0  0  0  0  0  0  0
   37.2580   30.0620   41.1120 N   0  0  0  0  0  0  0  0  0  0  0  0
   38.2350   29.2980   41.5790 N   0  0  0  0  0  0  0  0  0  0  0  0
   35.8390   27.2070   41.6640 H   0  0  0  0  0  0  0  0  0  0  0  0
   35.0650   29.4190   40.7870 H   0  0  0  0  0  0  0  0  0  0  0  0
   40.1180   25.7450   43.6780 C   0  0  0  0  0  0  0  0  0  0  0  0
   39.5400   26.9820   43.2550 C   0  0  0  0  0  0  0  0  0  0  0  0
   38.4940   26.8930   42.3710 C   0  0  0  0  0  0  0  0  0  0  0  0
   38.0710   25.6750   41.9540 N   0  0  0  0  0  0  0  0  0  0  0  0
   38.6260   24.5180   42.3610 C   0  0  0  0  0  0  0  0  0  0  0  0
   39.6410   24.5780   43.2170 N   0  0  0  0  0  0  0  0  0  0  0  0
   40.9280   25.8170   44.3620 H   0  0  0  0  0  0  0  0  0  0  0  0
   39.8670   27.9430   43.5790 H   0  0  0  0  0  0  0  0  0  0  0  0
   38.2740   23.5550   42.0150 H   0  0  0  0  0  0  0  0  0  0  0  0
   37.3640   30.4660   37.2180 C   0  0  0  0  0  3  0  0  0  0  0  0
   36.2070   29.6010   37.0290 C   0  0  0  0  0  2  0  0  0  0  0  0
   37.5780   28.9890   36.9000 C   0  0  0  0  0  2  0  0  0  0  0  0
  1  2  1  0  0  0  0
  2  3  1  0  0  0  0
  2 18  1  0  0  0  0
  2  8  1  1  0  0  0
  3  9  1  0  0  0  0
  3 10  1  0  0  0  0
  4  3  1  0  0  0  0
  5  6  1  0  0  0  0
  5  4  1  0  0  0  0
  6 14  1  1  0  0  0
  6  1  1  0  0  0  0
  7  1  1  0  0  0  0
 11  4  1  0  0  0  0
 12  5  1  0  0  0  0
 13  5  1  0  0  0  0
 15 24  1  0  0  0  0
 16 20  1  0  0  0  0
 16 15  1  0  0  0  0
 17 18  1  0  0  0  0
 17 16  2  0  0  0  0
 18 19  1  0  0  0  0
 19 15  2  0  0  0  0
 21 17  1  0  0  0  0
 22 28  1  0  0  0  0
 23 29  1  0  0  0  0
 23 22  1  0  0  0  0
 24 23  2  0  0  0  0
 25 26  2  0  0  0  0
 25 24  1  0  0  0  0
 26 27  1  0  0  0  0
 27 22  2  0  0  0  0
 30 26  1  0  0  0  0
 31  6  1  0  0  0  0
 32 31  1  0  0  0  0
 33 32  1  0  0  0  0
 33 31  1  0  0  0  0
M  END
>  <minimizedAffinity>
-5.01133537

$$$$

 OpenBabel03252508303D

 33 36  0  0  1  0  0  0  0  0999 V2000
   38.4690   27.2670   42.0540 N   0  0  0  0  0  0  0  0  0  0  0  0
   38.2680   28.6050   41.4920 C   0  0  2  0  0  0  0  0  0  0  0  0
   37.3590   29.4430   42.3130 C   0  0  0  0  0  0  0  0  0  0  0  0
   37.0630   28.8460   43.6050 N   0  0  0  0  0  0  0  0  0  0  0  0
   36.6580   27.4870   43.5640 C   0  0  0  0  0  0  0  0  0  0  0  0
   37.0940   26.7810   42.3090 C   0  0  2  0  0  0  0  0  0  0  0  0
   38.9570   27.4130   42.9610 H   0  0  0  0  0  0  0  0  0  0  0  0
   39.2820   29.0820   41.4140 H   0  0  0  0  0  0  0  0  0  0  0  0
   36.3360   29.5970   41.9310 H   0  0  0  0  0  0  0  0  0  0  0  0
   37.8580   30.4190   42.5610 H   0  0  0  0  0  0  0  0  0  0  0  0
   37.7770   29.0790   44.3240 H   0  0  0  0  0  0  0  0  0  0  0  0
   37.0990   26.9620   44.4390 H   0  0  0  0  0  0  0  0  0  0  0  0
   35.5440   27.4110   43.6570 H   0  0  0  0  0  0  0  0  0  0  0  0
   36.4580   27.1450   41.4670 H   0  0  0  0  0  0  0  0  0  0  0  0
   36.4150   28.5410   38.4010 C   0  0  0  0  0  0  0  0  0  0  0  0
   37.6170   27.8920   38.0900 C   0  0  0  0  0  0  0  0  0  0  0  0
   38.4250   27.8480   39.2150 C   0  0  0  0  0  0  0  0  0  0  0  0
   37.7160   28.4570   40.1620 N   0  0  0  0  0  0  0  0  0  0  0  0
   36.5460   28.8600   39.6880 N   0  0  0  0  0  0  0  0  0  0  0  0
   37.7530   27.5280   37.0630 H   0  0  0  0  0  0  0  0  0  0  0  0
   39.3530   27.3400   38.9780 H   0  0  0  0  0  0  0  0  0  0  0  0
   33.0330   29.0450   36.8390 C   0  0  0  0  0  0  0  0  0  0  0  0
   34.0000   28.8130   37.8650 C   0  0  0  0  0  0  0  0  0  0  0  0
   35.3120   28.7620   37.4640 C   0  0  0  0  0  0  0  0  0  0  0  0
   35.6180   28.9290   36.1550 N   0  0  0  0  0  0  0  0  0  0  0  0
   34.6970   29.1480   35.1990 C   0  0  0  0  0  0  0  0  0  0  0  0
   33.4190   29.2010   35.5620 N   0  0  0  0  0  0  0  0  0  0  0  0
   32.0180   29.0840   37.1520 H   0  0  0  0  0  0  0  0  0  0  0  0
   33.7660   28.6810   38.8970 H   0  0  0  0  0  0  0  0  0  0  0  0
   34.9630   29.2770   34.1580 H   0  0  0  0  0  0  0  0  0  0  0  0
   37.0840   25.3060   42.4010 C   0  0  0  0  0  3  0  0  0  0  0  0
   38.0580   24.4220   41.7740 C   0  0  0  0  0  2  0  0  0  0  0  0
   36.7130   24.5740   41.1150 C   0  0  0  0  0  2  0  0  0  0  0  0
  1  6  1  0  0  0  0
  1  7  1  0  0  0  0
  2  8  1  6  0  0  0
  2  1  1  0  0  0  0
  2  3  1  0  0  0  0
  3 10  1  0  0  0  0
  3  4  1  0  0  0  0
  4 11  1  0  0  0  0
  5  4  1  0  0  0  0
  5 13  1  0  0  0  0
  5 12  1  0  0  0  0
  6 14  1  6  0  0  0
  6 31  1  0  0  0  0
  6  5  1  0  0  0  0
  9  3  1  0  0  0  0
 15 19  2  0  0  0  0
 16 15  1  0  0  0  0
 16 17  2  0  0  0  0
 17 18  1  0  0  0  0
 18  2  1  0  0  0  0
 19 18  1  0  0  0  0
 20 16  1  0  0  0  0
 21 17  1  0  0  0  0
 22 28  1  0  0  0  0
 22 23  1  0  0  0  0
 23 29  1  0  0  0  0
 24 23  2  0  0  0  0
 24 15  1  0  0  0  0
 25 24  1  0  0  0  0
 26 27  1  0  0  0  0
 26 25  2  0  0  0  0
 27 22  2  0  0  0  0
 30 26  1  0  0  0  0
 32 31  1  0  0  0  0
 33 32  1  0  0  0  0
 33 31  1  0  0  0  0
M  END
>  <minimizedAffinity>
-4.96709013

$$$$

 OpenBabel03252508303D

 33 36  0  0  1  0  0  0  0  0999 V2000
   37.0190   30.1870   42.1890 N   0  0  0  0  0  0  0  0  0  0  0  0
   36.3120   30.8420   41.0860 C   0  0  2  0  0  0  0  0  0  0  0  0
   35.3920   29.9250   40.3670 C   0  0  0  0  0  0  0  0  0  0  0  0
   35.2130   28.6590   41.0570 N   0  0  0  0  0  0  0  0  0  0  0  0
   36.4120   28.0170   41.4620 C   0  0  0  0  0  0  0  0  0  0  0  0
   37.5770   28.9610   41.5730 C   0  0  2  0  0  0  0  0  0  0  0  0
   36.2850   29.9230   42.8770 H   0  0  0  0  0  0  0  0  0  0  0  0
   35.7440   31.7040   41.5270 H   0  0  0  0  0  0  0  0  0  0  0  0
   35.7170   29.5630   39.3770 H   0  0  0  0  0  0  0  0  0  0  0  0
   34.3620   30.3730   40.3260 H   0  0  0  0  0  0  0  0  0  0  0  0
   34.4630   28.6990   41.7760 H   0  0  0  0  0  0  0  0  0  0  0  0
   36.2400   27.5440   42.4530 H   0  0  0  0  0  0  0  0  0  0  0  0
   36.6750   27.1970   40.7440 H   0  0  0  0  0  0  0  0  0  0  0  0
   37.9020   29.2340   40.5410 H   0  0  0  0  0  0  0  0  0  0  0  0
   39.0980   32.2460   39.2790 C   0  0  0  0  0  0  0  0  0  0  0  0
   38.2090   31.8430   38.2750 C   0  0  0  0  0  0  0  0  0  0  0  0
   37.0790   31.2840   38.8510 C   0  0  0  0  0  0  0  0  0  0  0  0
   37.3000   31.3560   40.1600 N   0  0  0  0  0  0  0  0  0  0  0  0
   38.4740   31.9160   40.4100 N   0  0  0  0  0  0  0  0  0  0  0  0
   38.5040   32.0110   37.2300 H   0  0  0  0  0  0  0  0  0  0  0  0
   36.3870   30.9780   38.0740 H   0  0  0  0  0  0  0  0  0  0  0  0
   42.2580   33.5850   37.7450 C   0  0  0  0  0  0  0  0  0  0  0  0
   41.0010   32.9090   37.8190 C   0  0  0  0  0  0  0  0  0  0  0  0
   40.3920   32.8910   39.0490 C   0  0  0  0  0  0  0  0  0  0  0  0
   40.9920   33.4970   40.1020 N   0  0  0  0  0  0  0  0  0  0  0  0
   42.1770   34.1300   40.0180 C   0  0  0  0  0  0  0  0  0  0  0  0
   42.7870   34.1600   38.8370 N   0  0  0  0  0  0  0  0  0  0  0  0
   42.7280   33.5960   36.7920 H   0  0  0  0  0  0  0  0  0  0  0  0
   40.5230   32.4310   36.9950 H   0  0  0  0  0  0  0  0  0  0  0  0
   42.6390   34.6060   40.8720 H   0  0  0  0  0  0  0  0  0  0  0  0
   38.7030   28.4520   42.3830 C   0  0  0  0  0  3  0  0  0  0  0  0
   39.8690   29.2310   42.7800 C   0  0  0  0  0  2  0  0  0  0  0  0
   40.0180   28.2690   41.6300 C   0  0  0  0  0  2  0  0  0  0  0  0
  1  7  1  0  0  0  0
  2  8  1  1  0  0  0
  2  1  1  0  0  0  0
  3  4  1  0  0  0  0
  3  2  1  0  0  0  0
  4  5  1  0  0  0  0
  4 11  1  0  0  0  0
  5  6  1  0  0  0  0
  5 12  1  0  0  0  0
  6 14  1  6  0  0  0
  6  1  1  0  0  0  0
  6 31  1  0  0  0  0
  9  3  1  0  0  0  0
 10  3  1  0  0  0  0
 13  5  1  0  0  0  0
 15 19  2  0  0  0  0
 16 17  2  0  0  0  0
 16 15  1  0  0  0  0
 17 18  1  0  0  0  0
 18 19  1  0  0  0  0
 18  2  1  0  0  0  0
 20 16  1  0  0  0  0
 21 17  1  0  0  0  0
 22 23  2  0  0  0  0
 22 27  1  0  0  0  0
 23 24  1  0  0  0  0
 24 15  1  0  0  0  0
 24 25  2  0  0  0  0
 26 25  1  0  0  0  0
 26 30  1  0  0  0  0
 27 26  2  0  0  0  0
 28 22  1  0  0  0  0
 29 23  1  0  0  0  0
 31 32  1  0  0  0  0
 33 31  1  0  0  0  0
 33 32  1  0  0  0  0
M  END
>  <minimizedAffinity>
-4.89678907

$$$$

 OpenBabel03252508303D

 33 36  0  0  1  0  0  0  0  0999 V2000
   36.9470   29.9480   42.3260 N   0  0  0  0  0  0  0  0  0  0  0  0
   37.0980   30.9420   41.2600 C   0  0  2  0  0  0  0  0  0  0  0  0
   36.1280   30.7490   40.1530 C   0  0  0  0  0  0  0  0  0  0  0  0
   35.0950   29.7800   40.4770 N   0  0  0  0  0  0  0  0  0  0  0  0
   35.5640   28.5500   41.0060 C   0  0  0  0  0  0  0  0  0  0  0  0
   36.9400   28.6550   41.6050 C   0  0  2  0  0  0  0  0  0  0  0  0
   36.0070   30.1180   42.7370 H   0  0  0  0  0  0  0  0  0  0  0  0
   36.9620   31.9510   41.7320 H   0  0  0  0  0  0  0  0  0  0  0  0
   36.5150   30.3150   39.2160 H   0  0  0  0  0  0  0  0  0  0  0  0
   35.5690   31.7050   39.9640 H   0  0  0  0  0  0  0  0  0  0  0  0
   34.2920   30.2070   40.9830 H   0  0  0  0  0  0  0  0  0  0  0  0
   34.8570   28.2130   41.7940 H   0  0  0  0  0  0  0  0  0  0  0  0
   35.5730   27.7620   40.2080 H   0  0  0  0  0  0  0  0  0  0  0  0
   37.6760   28.7420   40.7710 H   0  0  0  0  0  0  0  0  0  0  0  0
   40.1870   30.6670   39.4220 C   0  0  0  0  0  0  0  0  0  0  0  0
   40.5940   30.7880   40.7560 C   0  0  0  0  0  0  0  0  0  0  0  0
   39.4810   30.8970   41.5740 C   0  0  0  0  0  0  0  0  0  0  0  0
   38.4460   30.8430   40.7410 N   0  0  0  0  0  0  0  0  0  0  0  0
   38.8560   30.7090   39.4880 N   0  0  0  0  0  0  0  0  0  0  0  0
   41.6720   30.7810   40.9670 H   0  0  0  0  0  0  0  0  0  0  0  0
   39.7950   30.9840   42.6090 H   0  0  0  0  0  0  0  0  0  0  0  0
   42.7180   31.2410   36.7030 C   0  0  0  0  0  0  0  0  0  0  0  0
   41.8840   31.5390   37.8250 C   0  0  0  0  0  0  0  0  0  0  0  0
   41.0870   30.5170   38.2770 C   0  0  0  0  0  0  0  0  0  0  0  0
   41.1280   29.3120   37.6590 N   0  0  0  0  0  0  0  0  0  0  0  0
   41.9190   29.0460   36.6030 C   0  0  0  0  0  0  0  0  0  0  0  0
   42.6990   30.0200   36.1450 N   0  0  0  0  0  0  0  0  0  0  0  0
   43.3340   32.0340   36.3540 H   0  0  0  0  0  0  0  0  0  0  0  0
   41.8480   32.4840   38.3160 H   0  0  0  0  0  0  0  0  0  0  0  0
   41.9350   28.0770   36.1230 H   0  0  0  0  0  0  0  0  0  0  0  0
   37.2910   27.5560   42.5290 C   0  0  0  0  0  3  0  0  0  0  0  0
   38.3530   27.6060   43.5250 C   0  0  0  0  0  2  0  0  0  0  0  0
   38.6200   26.8620   42.2430 C   0  0  0  0  0  2  0  0  0  0  0  0
  1  7  1  0  0  0  0
  2  8  1  1  0  0  0
  2  1  1  0  0  0  0
  3  4  1  0  0  0  0
  3  2  1  0  0  0  0
  4 11  1  0  0  0  0
  4  5  1  0  0  0  0
  5  6  1  0  0  0  0
  5 12  1  0  0  0  0
  6 14  1  6  0  0  0
  6  1  1  0  0  0  0
  6 31  1  0  0  0  0
  9  3  1  0  0  0  0
 10  3  1  0  0  0  0
 13  5  1  0  0  0  0
 15 19  2  0  0  0  0
 15 16  1  0  0  0  0
 16 20  1  0  0  0  0
 16 17  2  0  0  0  0
 17 21  1  0  0  0  0
 18  2  1  0  0  0  0
 18 17  1  0  0  0  0
 19 18  1  0  0  0  0
 22 23  1  0  0  0  0
 23 24  2  0  0  0  0
 23 29  1  0  0  0  0
 24 15  1  0  0  0  0
 25 24  1  0  0  0  0
 26 25  2  0  0  0  0
 27 26  1  0  0  0  0
 27 22  2  0  0  0  0
 28 22  1  0  0  0  0
 30 26  1  0  0  0  0
 31 32  1  0  0  0  0
 33 31  1  0  0  0  0
 33 32  1  0  0  0  0
M  END
>  <minimizedAffinity>
-4.84283018

$$$$

 OpenBabel03252508303D

 33 36  0  0  1  0  0  0  0  0999 V2000
   39.2370   31.9040   39.3420 N   0  0  0  0  0  0  0  0  0  0  0  0
   37.8130   31.8470   39.0020 C   0  0  2  0  0  0  0  0  0  0  0  0
   37.0740   33.0650   39.4180 C   0  0  0  0  0  0  0  0  0  0  0  0
   37.9560   34.1360   39.8480 N   0  0  0  0  0  0  0  0  0  0  0  0
   38.9510   33.7600   40.7860 C   0  0  0  0  0  0  0  0  0  0  0  0
   39.2430   32.2840   40.7740 C   0  0  2  0  0  0  0  0  0  0  0  0
   39.6300   32.6840   38.7780 H   0  0  0  0  0  0  0  0  0  0  0  0
   37.7480   31.7070   37.8900 H   0  0  0  0  0  0  0  0  0  0  0  0
   36.4250   32.9800   40.3070 H   0  0  0  0  0  0  0  0  0  0  0  0
   36.5170   33.4930   38.5410 H   0  0  0  0  0  0  0  0  0  0  0  0
   38.2880   34.7210   39.0540 H   0  0  0  0  0  0  0  0  0  0  0  0
   39.8870   34.3100   40.5470 H   0  0  0  0  0  0  0  0  0  0  0  0
   38.6430   34.0620   41.8210 H   0  0  0  0  0  0  0  0  0  0  0  0
   38.3860   31.7560   41.2550 H   0  0  0  0  0  0  0  0  0  0  0  0
   36.8240   28.6510   40.3450 C   0  0  0  0  0  0  0  0  0  0  0  0
   35.9300   29.5570   40.9280 C   0  0  0  0  0  0  0  0  0  0  0  0
   36.2070   30.8390   40.4800 C   0  0  0  0  0  0  0  0  0  0  0  0
   37.2410   30.6900   39.6560 N   0  0  0  0  0  0  0  0  0  0  0  0
   37.5990   29.4170   39.5770 N   0  0  0  0  0  0  0  0  0  0  0  0
   35.1740   29.1600   41.6200 H   0  0  0  0  0  0  0  0  0  0  0  0
   35.5110   31.5410   40.9260 H   0  0  0  0  0  0  0  0  0  0  0  0
   36.6280   24.9190   39.9420 C   0  0  0  0  0  0  0  0  0  0  0  0
   36.5840   26.2980   39.5710 C   0  0  0  0  0  0  0  0  0  0  0  0
   36.8260   27.2050   40.5730 C   0  0  0  0  0  0  0  0  0  0  0  0
   37.0880   26.7640   41.8260 N   0  0  0  0  0  0  0  0  0  0  0  0
   37.1270   25.4600   42.1610 C   0  0  0  0  0  0  0  0  0  0  0  0
   36.8940   24.5630   41.2080 N   0  0  0  0  0  0  0  0  0  0  0  0
   36.4390   24.2190   39.1640 H   0  0  0  0  0  0  0  0  0  0  0  0
   36.3790   26.6530   38.5870 H   0  0  0  0  0  0  0  0  0  0  0  0
   37.3360   25.1290   43.1690 H   0  0  0  0  0  0  0  0  0  0  0  0
   40.5310   31.9100   41.3940 C   0  0  0  0  0  3  0  0  0  0  0  0
   41.1400   30.5870   41.3260 C   0  0  0  0  0  2  0  0  0  0  0  0
   40.4290   30.9750   42.5960 C   0  0  0  0  0  2  0  0  0  0  0  0
  1  6  1  0  0  0  0
  2  8  1  6  0  0  0
  2  1  1  0  0  0  0
  2  3  1  0  0  0  0
  2 18  1  0  0  0  0
  3  4  1  0  0  0  0
  3  9  1  0  0  0  0
  4  5  1  0  0  0  0
  5 13  1  0  0  0  0
  6  5  1  0  0  0  0
  6 14  1  1  0  0  0
  6 31  1  0  0  0  0
  7  1  1  0  0  0  0
 10  3  1  0  0  0  0
 11  4  1  0  0  0  0
 12  5  1  0  0  0  0
 15 24  1  0  0  0  0
 15 16  1  0  0  0  0
 16 20  1  0  0  0  0
 17 21  1  0  0  0  0
 17 16  2  0  0  0  0
 18 17  1  0  0  0  0
 19 18  1  0  0  0  0
 19 15  2  0  0  0  0
 22 27  1  0  0  0  0
 23 22  2  0  0  0  0
 23 24  1  0  0  0  0
 24 25  2  0  0  0  0
 25 26  1  0  0  0  0
 26 30  1  0  0  0  0
 27 26  2  0  0  0  0
 28 22  1  0  0  0  0
 29 23  1  0  0  0  0
 31 33  1  0  0  0  0
 32 31  1  0  0  0  0
 32 33  1  0  0  0  0
M  END
>  <minimizedAffinity>
-4.83897734

$$$$
