
 OpenBabel03252506323D

 26 28  0  0  1  0  0  0  0  0999 V2000
   44.5580   35.7910   44.9700 C   0  0  0  0  0  0  0  0  0  0  0  0
   44.7900   35.5520   43.6190 C   0  0  0  0  0  0  0  0  0  0  0  0
   45.3350   34.3440   43.2570 C   0  0  0  0  0  0  0  0  0  0  0  0
   45.6170   33.4490   44.2460 N   0  0  0  0  0  0  0  0  0  0  0  0
   45.3830   33.7060   45.5360 C   0  0  0  0  0  0  0  0  0  0  0  0
   44.8540   34.8740   45.8990 N   0  0  0  0  0  0  0  0  0  0  0  0
   45.7070   32.7160   46.4920 N   0  0  0  0  0  0  0  0  0  0  0  0
   45.2370   32.6900   47.8710 C   0  0  0  0  0  0  0  0  0  0  0  0
   46.4640   32.1890   48.6110 C   0  0  0  0  0  0  0  0  0  0  0  0
   47.4320   31.6920   47.5720 C   0  0  0  0  0  0  0  0  0  0  0  0
   46.5380   31.5450   46.3600 C   0  0  2  0  0  0  0  0  0  0  0  0
   44.1300   36.7290   45.2960 H   0  0  0  0  0  0  0  0  0  0  0  0
   45.5150   34.1600   42.2090 H   0  0  0  0  0  0  0  0  0  0  0  0
   44.3750   32.0180   47.9280 H   0  0  0  0  0  0  0  0  0  0  0  0
   45.0200   33.7260   48.1700 H   0  0  0  0  0  0  0  0  0  0  0  0
   46.1270   31.3600   49.2670 H   0  0  0  0  0  0  0  0  0  0  0  0
   46.9110   32.9660   49.2670 H   0  0  0  0  0  0  0  0  0  0  0  0
   47.8660   30.7410   47.9080 H   0  0  0  0  0  0  0  0  0  0  0  0
   48.1790   32.4990   47.3970 H   0  0  0  0  0  0  0  0  0  0  0  0
   45.9590   30.6080   46.4970 H   0  0  0  0  0  0  0  0  0  0  0  0
   44.4390   36.5970   42.6980 N   0  0  0  0  0  0  0  0  0  0  0  0
   43.5070   36.4240   42.2710 H   0  0  0  0  0  0  0  0  0  0  0  0
   45.0080   37.4160   42.4700 H   0  0  0  0  0  0  0  0  0  0  0  0
   47.2680   31.4370   45.0670 C   0  0  0  0  0  0  0  0  0  0  0  0
   48.1410   30.2500   44.7750 C   0  0  0  0  0  0  0  0  0  0  0  0
   46.8260   30.4270   44.0990 C   0  0  0  0  0  0  0  0  0  0  0  0
  1 12  1  0  0  0  0
  1  6  1  0  0  0  0
  2  1  2  0  0  0  0
  3  2  1  0  0  0  0
  3  4  2  0  0  0  0
  4  5  1  0  0  0  0
  5  6  2  0  0  0  0
  5  7  1  0  0  0  0
  7  8  1  0  0  0  0
  8 14  1  0  0  0  0
  8 15  1  0  0  0  0
  8  9  1  0  0  0  0
  9 17  1  0  0  0  0
  9 16  1  0  0  0  0
 10 18  1  0  0  0  0
 10  9  1  0  0  0  0
 11  7  1  0  0  0  0
 11 20  1  1  0  0  0
 11 10  1  0  0  0  0
 13  3  1  0  0  0  0
 19 10  1  0  0  0  0
 21  2  1  0  0  0  0
 22 21  1  0  0  0  0
 23 21  1  0  0  0  0
 24 11  1  0  0  0  0
 25 24  1  0  0  0  0
 26 25  1  0  0  0  0
 26 24  1  0  0  0  0
M  END
>  <minimizedAffinity>
-4.58096981

>  <minimizedRMSD>
0.702387512

$$$$
