
 OpenBabel03242519343D

 30 32  0  0  0  0  0  0  0  0999 V2000
   43.9770   34.4580   42.5290 C   0  0  0  0  0  0  0  0  0  0  0  0
   44.9740   35.5560   42.4060 C   0  0  0  0  0  0  0  0  0  0  0  0
   46.3790   35.0570   42.2850 C   0  0  0  0  0  0  0  0  0  0  0  0
   46.7430   34.1530   43.4620 C   0  0  0  0  0  0  0  0  0  0  0  0
   45.7070   33.1180   43.7600 C   0  0  0  0  0  0  0  0  0  0  0  0
   44.5920   33.0990   42.7410 C   0  0  0  0  0  0  0  0  0  0  0  0
   43.3080   34.6850   43.3860 H   0  0  0  0  0  0  0  0  0  0  0  0
   44.9190   36.3350   43.1990 H   0  0  0  0  0  0  0  0  0  0  0  0
   44.7460   36.1150   41.4650 H   0  0  0  0  0  0  0  0  0  0  0  0
   47.0360   35.9630   42.4060 H   0  0  0  0  0  0  0  0  0  0  0  0
   46.6470   34.6260   41.3220 H   0  0  0  0  0  0  0  0  0  0  0  0
   46.7670   34.8400   44.3530 H   0  0  0  0  0  0  0  0  0  0  0  0
   47.7630   33.7780   43.3330 H   0  0  0  0  0  0  0  0  0  0  0  0
   45.2890   33.1640   44.7780 H   0  0  0  0  0  0  0  0  0  0  0  0
   46.2040   32.1170   43.6680 H   0  0  0  0  0  0  0  0  0  0  0  0
   44.9670   32.6340   41.8230 H   0  0  0  0  0  0  0  0  0  0  0  0
   43.7870   32.4290   43.1380 H   0  0  0  0  0  0  0  0  0  0  0  0
   43.1070   34.3510   41.3290 C   0  0  0  0  0  0  0  0  0  0  0  0
   41.9470   33.5510   41.4700 C   0  0  0  0  0  0  0  0  0  0  0  0
   41.0890   33.4050   40.3900 C   0  0  0  0  0  0  0  0  0  0  0  0
   41.4240   34.0550   39.2390 N   0  0  0  0  0  0  0  0  0  0  0  0
   42.5520   34.8240   39.1280 C   0  0  0  0  0  0  0  0  0  0  0  0
   43.3960   34.9760   40.1650 N   0  0  0  0  0  0  0  0  0  0  0  0
   42.7550   35.4320   37.8550 N   0  0  0  0  0  0  0  0  0  0  0  0
   41.7020   33.0490   42.3830 H   0  0  0  0  0  0  0  0  0  0  0  0
   43.5940   35.3880   37.2360 H   0  0  0  0  0  0  0  0  0  0  0  0
   41.9610   36.0020   37.4890 H   0  0  0  0  0  0  0  0  0  0  0  0
   39.8660   32.6020   40.4340 C   0  0  0  0  0  0  0  0  0  0  0  0
   40.0230   31.1160   40.2840 C   0  0  0  0  0  0  0  0  0  0  0  0
   39.6270   31.6950   41.5920 C   0  0  0  0  0  0  0  0  0  0  0  0
  1  6  1  0  0  0  0
  1  7  1  0  0  0  0
  2  1  1  0  0  0  0
  2  8  1  0  0  0  0
  3 10  1  0  0  0  0
  3  2  1  0  0  0  0
  3  4  1  0  0  0  0
  4  5  1  0  0  0  0
  4 12  1  0  0  0  0
  5 14  1  0  0  0  0
  6 17  1  0  0  0  0
  6  5  1  0  0  0  0
  9  2  1  0  0  0  0
 11  3  1  0  0  0  0
 13  4  1  0  0  0  0
 15  5  1  0  0  0  0
 16  6  1  0  0  0  0
 18 19  1  0  0  0  0
 18  1  1  0  0  0  0
 19 25  1  0  0  0  0
 20 28  1  0  0  0  0
 20 19  2  0  0  0  0
 21 20  1  0  0  0  0
 22 21  2  0  0  0  0
 22 23  1  0  0  0  0
 23 18  2  0  0  0  0
 24 22  1  0  0  0  0
 26 24  1  0  0  0  0
 27 24  1  0  0  0  0
 28 30  1  0  0  0  0
 29 28  1  0  0  0  0
 29 30  1  0  0  0  0
M  END
>  <minimizedAffinity>
-4.2806468

>  <minimizedRMSD>
7.67738295

$$$$
