REMARK  Name = 
REMARK  4 active torsions:
REMARK  status: ('A' for Active; 'I' for Inactive)
REMARK    1  A    between atoms: C_1  and  C_2
REMARK    2  A    between atoms: C_1  and  C_14
REMARK    3  A    between atoms: C_13  and  C_15
REMARK    4  A    between atoms: C_19  and  C_39
REMARK                            x       y       z     vdW  Elec       q    Type
REMARK                         _______ _______ _______ _____ _____    ______ ____
ROOT
ATOM      1  C   UNL     1      46.398  32.160  47.788  0.00  0.00    +0.000 A 
ATOM      2  C   UNL     1      45.926  31.815  49.019  0.00  0.00    +0.000 A 
ATOM      3  N   UNL     1      46.893  31.115  49.614  0.00  0.00    +0.000 N 
ATOM      4  C   UNL     1      47.960  31.000  48.816  0.00  0.00    +0.000 A 
ATOM      5  N   UNL     1      47.638  31.662  47.668  0.00  0.00    +0.000 NA
ATOM      6  N   UNL     1      49.218  30.360  48.998  0.00  0.00    +0.000 N 
ATOM      7  C   UNL     1      50.296  31.165  49.620  0.00  0.00    +0.000 C 
ATOM      8  C   UNL     1      50.386  30.640  51.052  0.00  0.00    +0.000 C 
ATOM      9  C   UNL     1      50.444  29.136  51.054  0.00  0.00    +0.000 C 
ATOM     10  C   UNL     1      50.781  28.631  49.660  0.00  0.00    +0.000 C 
ATOM     11  C   UNL     1      49.690  29.047  48.697  0.00  0.00    +0.000 C 
ATOM     12  H   UNL     1      44.949  32.063  49.433  0.00  0.00    +0.000 HD
ATOM     13  H   UNL     1      46.864  30.694  50.573  0.00  0.00    +0.000 HD
ATOM     14  H   UNL     1      51.236  31.046  49.071  0.00  0.00    +0.000 HD
ATOM     15  H   UNL     1      49.998  32.229  49.698  0.00  0.00    +0.000 HD
ATOM     16  H   UNL     1      49.499  30.953  51.606  0.00  0.00    +0.000 HD
ATOM     17  H   UNL     1      51.323  31.043  51.511  0.00  0.00    +0.000 HD
ATOM     18  H   UNL     1      49.463  28.683  51.306  0.00  0.00    +0.000 HD
ATOM     19  H   UNL     1      51.210  28.728  51.761  0.00  0.00    +0.000 HD
ATOM     20  H   UNL     1      50.871  27.531  49.681  0.00  0.00    +0.000 HD
ATOM     21  H   UNL     1      51.748  29.091  49.382  0.00  0.00    +0.000 HD
ATOM     22  H   UNL     1      50.045  28.960  47.647  0.00  0.00    +0.000 HD
ATOM     23  H   UNL     1      48.859  28.304  48.864  0.00  0.00    +0.000 HD
ENDROOT
BRANCH   1  24
ATOM     24  C   UNL     1      45.675  32.956  46.752  0.00  0.00    +0.000 C 
ATOM     25  H   UNL     1      45.404  33.947  47.183  0.00  0.00    +0.000 HD
ATOM     26  H   UNL     1      44.736  32.430  46.457  0.00  0.00    +0.000 HD
BRANCH  24  28
ATOM     27  C   UNL     1      46.158  33.900  44.525  0.00  0.00    +0.000 C 
ATOM     28  C   UNL     1      46.529  33.185  45.569  0.00  0.00    +0.000 C 
BRANCH  27  29
ATOM     29  C   UNL     1      47.106  34.038  43.425  0.00  0.00    +0.000 A 
ATOM     30  C   UNL     1      46.922  35.010  42.402  0.00  0.00    +0.000 A 
ATOM     31  C   UNL     1      47.865  35.069  41.398  0.00  0.00    +0.000 A 
ATOM     32  N   UNL     1      48.914  34.222  41.411  0.00  0.00    +0.000 NA
ATOM     33  C   UNL     1      49.067  33.310  42.391  0.00  0.00    +0.000 A 
ATOM     34  N   UNL     1      48.193  33.215  43.371  0.00  0.00    +0.000 NA
ATOM     35  H   UNL     1      46.054  35.644  42.474  0.00  0.00    +0.000 HD
ATOM     36  H   UNL     1      47.698  35.816  40.636  0.00  0.00    +0.000 HD
BRANCH  33  37
ATOM     37  C   UNL     1      50.240  32.400  42.360  0.00  0.00    +0.000 C 
ATOM     38  C   UNL     1      50.035  30.946  42.042  0.00  0.00    +0.000 C 
ATOM     39  C   UNL     1      50.472  31.396  43.411  0.00  0.00    +0.000 C 
ENDBRANCH  33  37
ENDBRANCH  27  29
ENDBRANCH  24  28
ENDBRANCH   1  24
TORSDOF 4
