
 OpenBabel03252502113D

 22 24  0  0  0  0  0  0  0  0999 V2000
   43.7190   33.1350   41.3000 Cl  0  0  0  0  0  0  0  0  0  0  0  0
   45.3310   33.6070   40.8420 C   0  0  0  0  0  0  0  0  0  0  0  0
   46.1460   34.2850   41.6940 C   0  0  0  0  0  0  0  0  0  0  0  0
   47.3930   34.6070   41.2300 C   0  0  0  0  0  0  0  0  0  0  0  0
   47.8290   34.2820   39.9900 C   0  0  0  0  0  0  0  0  0  0  0  0
   47.0020   33.5920   39.1240 C   0  0  0  0  0  0  0  0  0  0  0  0
   45.7420   33.2590   39.5720 C   0  0  0  0  0  0  0  0  0  0  0  0
   48.8200   34.5330   39.6090 H   0  0  0  0  0  0  0  0  0  0  0  0
   47.2880   33.2990   38.1140 H   0  0  0  0  0  0  0  0  0  0  0  0
   45.0940   32.7200   38.8980 H   0  0  0  0  0  0  0  0  0  0  0  0
   44.4920   36.0920   44.5870 C   0  0  0  0  0  0  0  0  0  0  0  0
   44.9590   35.8110   43.2840 C   0  0  0  0  0  0  0  0  0  0  0  0
   45.6450   34.6200   43.0220 C   0  0  0  0  0  0  0  0  0  0  0  0
   45.8140   33.7970   44.0750 N   0  0  0  0  0  0  0  0  0  0  0  0
   45.3650   34.0760   45.3070 C   0  0  0  0  0  0  0  0  0  0  0  0
   44.7070   35.2160   45.5640 N   0  0  0  0  0  0  0  0  0  0  0  0
   43.9750   37.0580   44.6410 H   0  0  0  0  0  0  0  0  0  0  0  0
   44.8120   36.4830   42.4640 H   0  0  0  0  0  0  0  0  0  0  0  0
   45.5140   33.3970   46.1350 H   0  0  0  0  0  0  0  0  0  0  0  0
   48.3150   35.3510   42.1340 C   0  0  0  0  0  0  0  0  0  0  0  0
   49.3650   36.2410   41.5440 C   0  0  0  0  0  0  0  0  0  0  0  0
   49.7310   34.9400   42.2830 C   0  0  0  0  0  0  0  0  0  0  0  0
  2  1  1  0  0  0  0
  2  3  1  0  0  0  0
  3 13  1  0  0  0  0
  4  3  2  0  0  0  0
  4 20  1  0  0  0  0
  5  4  1  0  0  0  0
  6  7  1  0  0  0  0
  6  5  2  0  0  0  0
  7  2  2  0  0  0  0
  8  5  1  0  0  0  0
  9  6  1  0  0  0  0
 10  7  1  0  0  0  0
 11 17  1  0  0  0  0
 11 16  1  0  0  0  0
 12 11  2  0  0  0  0
 13 12  1  0  0  0  0
 13 14  2  0  0  0  0
 14 15  1  0  0  0  0
 15 16  2  0  0  0  0
 15 19  1  0  0  0  0
 18 12  1  0  0  0  0
 20 22  1  0  0  0  0
 21 20  1  0  0  0  0
 21 22  1  0  0  0  0
M  END
>  <minimizedAffinity>
-5.57837152

>  <minimizedRMSD>
1.01679289

$$$$
