
 OpenBabel03242519233D

 28 30  0  0  0  0  0  0  0  0999 V2000
   37.8750   27.2620   42.9320 C   0  0  0  0  0  0  0  0  0  0  0  0
   39.0950   26.5730   43.3950 C   0  0  0  0  0  0  0  0  0  0  0  0
   39.5050   25.4230   42.5350 C   0  0  0  0  0  0  0  0  0  0  0  0
   38.3920   24.4120   42.3360 C   0  0  0  0  0  0  0  0  0  0  0  0
   37.0340   25.0370   42.1350 C   0  0  0  0  0  0  0  0  0  0  0  0
   37.1430   26.5070   41.8280 C   0  0  0  0  0  0  0  0  0  0  0  0
   37.1100   27.3800   43.7460 H   0  0  0  0  0  0  0  0  0  0  0  0
   38.8920   26.1420   44.4160 H   0  0  0  0  0  0  0  0  0  0  0  0
   39.9790   27.2120   43.5480 H   0  0  0  0  0  0  0  0  0  0  0  0
   39.9240   25.6510   41.5630 H   0  0  0  0  0  0  0  0  0  0  0  0
   40.3000   24.8650   43.1020 H   0  0  0  0  0  0  0  0  0  0  0  0
   38.5950   23.8320   41.4040 H   0  0  0  0  0  0  0  0  0  0  0  0
   38.3290   23.7230   43.2040 H   0  0  0  0  0  0  0  0  0  0  0  0
   36.4510   24.5710   41.3310 H   0  0  0  0  0  0  0  0  0  0  0  0
   36.4230   24.9410   43.0620 H   0  0  0  0  0  0  0  0  0  0  0  0
   36.1330   26.9430   41.7640 H   0  0  0  0  0  0  0  0  0  0  0  0
   37.6440   26.6830   40.8450 H   0  0  0  0  0  0  0  0  0  0  0  0
   38.1410   28.6190   42.4170 C   0  0  0  0  0  0  0  0  0  0  0  0
   39.3730   29.1970   42.8000 C   0  0  0  0  0  0  0  0  0  0  0  0
   39.7040   30.4790   42.3500 C   0  0  0  0  0  0  0  0  0  0  0  0
   38.7830   31.1060   41.5440 N   0  0  0  0  0  0  0  0  0  0  0  0
   37.6080   30.5250   41.1930 C   0  0  0  0  0  0  0  0  0  0  0  0
   37.2990   29.2980   41.6290 N   0  0  0  0  0  0  0  0  0  0  0  0
   40.1260   28.7780   43.4130 H   0  0  0  0  0  0  0  0  0  0  0  0
   40.6220   30.9810   42.6000 H   0  0  0  0  0  0  0  0  0  0  0  0
   36.6770   31.3030   40.3070 C   0  0  0  0  0  3  0  0  0  0  0  0
   36.9180   31.1210   38.7910 C   0  0  0  0  0  2  0  0  0  0  0  0
   37.1810   32.4110   39.4700 C   0  0  0  0  0  2  0  0  0  0  0  0
  1  2  1  0  0  0  0
  1  7  1  0  0  0  0
  2  9  1  0  0  0  0
  2  8  1  0  0  0  0
  3 11  1  0  0  0  0
  3  2  1  0  0  0  0
  4  3  1  0  0  0  0
  4 13  1  0  0  0  0
  5  4  1  0  0  0  0
  5 15  1  0  0  0  0
  6  5  1  0  0  0  0
  6  1  1  0  0  0  0
 10  3  1  0  0  0  0
 12  4  1  0  0  0  0
 14  5  1  0  0  0  0
 16  6  1  0  0  0  0
 17  6  1  0  0  0  0
 18 19  1  0  0  0  0
 18  1  1  0  0  0  0
 19 24  1  0  0  0  0
 20 25  1  0  0  0  0
 20 19  2  0  0  0  0
 21 20  1  0  0  0  0
 22 21  2  0  0  0  0
 22 23  1  0  0  0  0
 23 18  2  0  0  0  0
 26 22  1  0  0  0  0
 27 28  1  0  0  0  0
 27 26  1  0  0  0  0
 28 26  1  0  0  0  0
M  END
>  <minimizedAffinity>
-4.91039371

$$$$

 OpenBabel03242519233D

 28 30  0  0  0  0  0  0  0  0999 V2000
   37.1240   25.4680   42.1620 C   0  0  0  0  0  0  0  0  0  0  0  0
   38.3610   24.7640   42.5520 C   0  0  0  0  0  0  0  0  0  0  0  0
   39.0420   24.0660   41.4210 C   0  0  0  0  0  0  0  0  0  0  0  0
   38.1240   23.1130   40.6800 C   0  0  0  0  0  0  0  0  0  0  0  0
   36.7270   23.6470   40.4830 C   0  0  0  0  0  0  0  0  0  0  0  0
   36.6590   25.1270   40.7510 C   0  0  0  0  0  0  0  0  0  0  0  0
   36.2500   25.2010   42.8160 H   0  0  0  0  0  0  0  0  0  0  0  0
   38.0920   23.9630   43.2970 H   0  0  0  0  0  0  0  0  0  0  0  0
   39.1140   25.3720   43.0760 H   0  0  0  0  0  0  0  0  0  0  0  0
   39.5460   24.6810   40.6860 H   0  0  0  0  0  0  0  0  0  0  0  0
   39.8300   23.4070   41.8790 H   0  0  0  0  0  0  0  0  0  0  0  0
   38.5290   22.9490   39.6520 H   0  0  0  0  0  0  0  0  0  0  0  0
   38.0510   22.1440   41.2150 H   0  0  0  0  0  0  0  0  0  0  0  0
   36.3280   23.4720   39.4770 H   0  0  0  0  0  0  0  0  0  0  0  0
   36.0220   23.1540   41.1910 H   0  0  0  0  0  0  0  0  0  0  0  0
   35.6130   25.4650   40.6720 H   0  0  0  0  0  0  0  0  0  0  0  0
   37.2520   25.7050   40.0010 H   0  0  0  0  0  0  0  0  0  0  0  0
   37.2530   26.9370   42.2260 C   0  0  0  0  0  0  0  0  0  0  0  0
   38.1640   27.4380   43.1830 C   0  0  0  0  0  0  0  0  0  0  0  0
   38.3500   28.8180   43.3050 C   0  0  0  0  0  0  0  0  0  0  0  0
   37.6130   29.6150   42.4610 N   0  0  0  0  0  0  0  0  0  0  0  0
   36.7450   29.1050   41.5510 C   0  0  0  0  0  0  0  0  0  0  0  0
   36.5730   27.7820   41.4420 N   0  0  0  0  0  0  0  0  0  0  0  0
   38.7620   26.8900   43.8620 H   0  0  0  0  0  0  0  0  0  0  0  0
   39.0250   29.2710   44.0100 H   0  0  0  0  0  0  0  0  0  0  0  0
   35.9920   30.0700   40.6800 C   0  0  0  0  0  3  0  0  0  0  0  0
   36.6120   30.3070   39.2840 C   0  0  0  0  0  2  0  0  0  0  0  0
   36.5820   31.3730   40.3100 C   0  0  0  0  0  2  0  0  0  0  0  0
  1 18  1  0  0  0  0
  1  2  1  0  0  0  0
  1  7  1  0  0  0  0
  2  9  1  0  0  0  0
  2  8  1  0  0  0  0
  3 11  1  0  0  0  0
  3  2  1  0  0  0  0
  4 13  1  0  0  0  0
  4  3  1  0  0  0  0
  5  4  1  0  0  0  0
  5  6  1  0  0  0  0
  5 15  1  0  0  0  0
  6  1  1  0  0  0  0
 10  3  1  0  0  0  0
 12  4  1  0  0  0  0
 14  5  1  0  0  0  0
 16  6  1  0  0  0  0
 17  6  1  0  0  0  0
 18 19  1  0  0  0  0
 19 20  2  0  0  0  0
 19 24  1  0  0  0  0
 20 25  1  0  0  0  0
 21 20  1  0  0  0  0
 22 21  2  0  0  0  0
 23 22  1  0  0  0  0
 23 18  2  0  0  0  0
 26 22  1  0  0  0  0
 27 28  1  0  0  0  0
 27 26  1  0  0  0  0
 28 26  1  0  0  0  0
M  END
>  <minimizedAffinity>
-4.83197117

$$$$

 OpenBabel03242519233D

 28 30  0  0  0  0  0  0  0  0999 V2000
   37.2730   29.3860   42.3530 C   0  0  0  0  0  0  0  0  0  0  0  0
   38.6070   29.4210   42.9820 C   0  0  0  0  0  0  0  0  0  0  0  0
   39.3540   28.1310   42.8890 C   0  0  0  0  0  0  0  0  0  0  0  0
   38.5650   26.9540   43.4310 C   0  0  0  0  0  0  0  0  0  0  0  0
   37.1010   26.9870   43.0670 C   0  0  0  0  0  0  0  0  0  0  0  0
   36.8270   27.9790   41.9680 C   0  0  0  0  0  0  0  0  0  0  0  0
   36.4620   29.7580   43.0370 H   0  0  0  0  0  0  0  0  0  0  0  0
   38.4740   29.6260   44.0820 H   0  0  0  0  0  0  0  0  0  0  0  0
   39.2780   30.2250   42.6410 H   0  0  0  0  0  0  0  0  0  0  0  0
   39.7460   27.8500   41.9200 H   0  0  0  0  0  0  0  0  0  0  0  0
   40.2390   28.2230   43.5770 H   0  0  0  0  0  0  0  0  0  0  0  0
   38.9640   26.0150   42.9790 H   0  0  0  0  0  0  0  0  0  0  0  0
   38.6450   26.9050   44.5360 H   0  0  0  0  0  0  0  0  0  0  0  0
   36.7080   26.0160   42.7440 H   0  0  0  0  0  0  0  0  0  0  0  0
   36.4920   27.2970   43.9470 H   0  0  0  0  0  0  0  0  0  0  0  0
   35.7420   28.0300   41.7840 H   0  0  0  0  0  0  0  0  0  0  0  0
   37.3130   27.6710   41.0100 H   0  0  0  0  0  0  0  0  0  0  0  0
   37.1910   30.2090   41.1310 C   0  0  0  0  0  0  0  0  0  0  0  0
   36.5870   29.5950   40.0100 C   0  0  0  0  0  0  0  0  0  0  0  0
   36.4650   30.3080   38.8140 C   0  0  0  0  0  0  0  0  0  0  0  0
   36.9540   31.5930   38.8100 N   0  0  0  0  0  0  0  0  0  0  0  0
   37.5290   32.1560   39.9030 C   0  0  0  0  0  0  0  0  0  0  0  0
   37.6430   31.4650   41.0440 N   0  0  0  0  0  0  0  0  0  0  0  0
   36.1890   28.6170   39.9380 H   0  0  0  0  0  0  0  0  0  0  0  0
   36.0170   29.9070   37.9210 H   0  0  0  0  0  0  0  0  0  0  0  0
   38.0290   33.5680   39.7850 C   0  0  0  0  0  3  0  0  0  0  0  0
   39.5590   33.7020   39.6080 C   0  0  0  0  0  2  0  0  0  0  0  0
   38.8780   34.1590   40.8400 C   0  0  0  0  0  2  0  0  0  0  0  0
  1  2  1  0  0  0  0
  1  7  1  0  0  0  0
  2  8  1  0  0  0  0
  3  2  1  0  0  0  0
  3  4  1  0  0  0  0
  3 11  1  0  0  0  0
  4 13  1  0  0  0  0
  5  4  1  0  0  0  0
  5 15  1  0  0  0  0
  6  1  1  0  0  0  0
  6  5  1  0  0  0  0
  9  2  1  0  0  0  0
 10  3  1  0  0  0  0
 12  4  1  0  0  0  0
 14  5  1  0  0  0  0
 16  6  1  0  0  0  0
 17  6  1  0  0  0  0
 18  1  1  0  0  0  0
 19 18  2  0  0  0  0
 20 19  1  0  0  0  0
 21 20  2  0  0  0  0
 21 22  1  0  0  0  0
 22 23  2  0  0  0  0
 23 18  1  0  0  0  0
 24 19  1  0  0  0  0
 25 20  1  0  0  0  0
 26 22  1  0  0  0  0
 26 28  1  0  0  0  0
 27 26  1  0  0  0  0
 27 28  1  0  0  0  0
M  END
>  <minimizedAffinity>
-4.79954958

$$$$

 OpenBabel03242519233D

 28 30  0  0  0  0  0  0  0  0999 V2000
   36.6020   29.7450   41.2250 C   0  0  0  0  0  0  0  0  0  0  0  0
   35.9920   29.4310   39.9180 C   0  0  0  0  0  0  0  0  0  0  0  0
   36.7060   30.0380   38.7550 C   0  0  0  0  0  0  0  0  0  0  0  0
   36.8790   31.5390   38.8900 C   0  0  0  0  0  0  0  0  0  0  0  0
   37.2310   31.9860   40.2870 C   0  0  0  0  0  0  0  0  0  0  0  0
   37.6730   30.8270   41.1420 C   0  0  0  0  0  0  0  0  0  0  0  0
   35.8570   30.1450   41.9640 H   0  0  0  0  0  0  0  0  0  0  0  0
   34.9500   29.8580   39.9030 H   0  0  0  0  0  0  0  0  0  0  0  0
   35.8450   28.3610   39.7020 H   0  0  0  0  0  0  0  0  0  0  0  0
   37.6660   29.6170   38.4830 H   0  0  0  0  0  0  0  0  0  0  0  0
   36.0350   29.9060   37.8630 H   0  0  0  0  0  0  0  0  0  0  0  0
   37.7330   31.8620   38.2480 H   0  0  0  0  0  0  0  0  0  0  0  0
   35.9540   32.0690   38.5820 H   0  0  0  0  0  0  0  0  0  0  0  0
   38.0230   32.7440   40.3190 H   0  0  0  0  0  0  0  0  0  0  0  0
   36.3420   32.4380   40.7840 H   0  0  0  0  0  0  0  0  0  0  0  0
   37.8480   31.1790   42.1720 H   0  0  0  0  0  0  0  0  0  0  0  0
   38.6330   30.3910   40.7730 H   0  0  0  0  0  0  0  0  0  0  0  0
   37.2290   28.5730   41.8650 C   0  0  0  0  0  0  0  0  0  0  0  0
   38.3500   28.8390   42.6840 C   0  0  0  0  0  0  0  0  0  0  0  0
   38.9990   27.7840   43.3320 C   0  0  0  0  0  0  0  0  0  0  0  0
   38.4880   26.5250   43.1220 N   0  0  0  0  0  0  0  0  0  0  0  0
   37.4090   26.3000   42.3290 C   0  0  0  0  0  0  0  0  0  0  0  0
   36.7950   27.3160   41.7120 N   0  0  0  0  0  0  0  0  0  0  0  0
   38.7970   29.7750   42.8920 H   0  0  0  0  0  0  0  0  0  0  0  0
   39.8560   27.9110   43.9700 H   0  0  0  0  0  0  0  0  0  0  0  0
   36.9370   24.8820   42.1710 C   0  0  0  0  0  3  0  0  0  0  0  0
   37.8980   23.9610   41.3840 C   0  0  0  0  0  2  0  0  0  0  0  0
   36.5760   24.3500   40.8400 C   0  0  0  0  0  2  0  0  0  0  0  0
  1 18  1  0  0  0  0
  1  7  1  0  0  0  0
  2  1  1  0  0  0  0
  3  4  1  0  0  0  0
  3  2  1  0  0  0  0
  4  5  1  0  0  0  0
  5 14  1  0  0  0  0
  5 15  1  0  0  0  0
  5  6  1  0  0  0  0
  6  1  1  0  0  0  0
  6 16  1  0  0  0  0
  8  2  1  0  0  0  0
  9  2  1  0  0  0  0
 10  3  1  0  0  0  0
 11  3  1  0  0  0  0
 12  4  1  0  0  0  0
 13  4  1  0  0  0  0
 17  6  1  0  0  0  0
 18 19  1  0  0  0  0
 19 24  1  0  0  0  0
 19 20  2  0  0  0  0
 20 25  1  0  0  0  0
 21 20  1  0  0  0  0
 22 21  2  0  0  0  0
 23 18  2  0  0  0  0
 23 22  1  0  0  0  0
 26 22  1  0  0  0  0
 27 26  1  0  0  0  0
 28 27  1  0  0  0  0
 28 26  1  0  0  0  0
M  END
>  <minimizedAffinity>
-4.7607379

$$$$

 OpenBabel03242519233D

 28 30  0  0  0  0  0  0  0  0999 V2000
   37.1030   27.1250   42.3810 C   0  0  0  0  0  0  0  0  0  0  0  0
   37.8780   27.5780   43.5530 C   0  0  0  0  0  0  0  0  0  0  0  0
   39.3130   27.1630   43.5260 C   0  0  0  0  0  0  0  0  0  0  0  0
   39.4890   25.6680   43.3440 C   0  0  0  0  0  0  0  0  0  0  0  0
   38.5270   25.0600   42.3540 C   0  0  0  0  0  0  0  0  0  0  0  0
   37.8530   26.1160   41.5190 C   0  0  0  0  0  0  0  0  0  0  0  0
   36.1540   26.5950   42.6690 H   0  0  0  0  0  0  0  0  0  0  0  0
   37.4340   27.1060   44.4740 H   0  0  0  0  0  0  0  0  0  0  0  0
   37.8420   28.6580   43.7630 H   0  0  0  0  0  0  0  0  0  0  0  0
   39.9630   27.6630   42.8190 H   0  0  0  0  0  0  0  0  0  0  0  0
   39.7270   27.3780   44.5490 H   0  0  0  0  0  0  0  0  0  0  0  0
   40.5080   25.4740   42.9290 H   0  0  0  0  0  0  0  0  0  0  0  0
   39.3690   25.1390   44.3120 H   0  0  0  0  0  0  0  0  0  0  0  0
   38.9970   24.3440   41.6690 H   0  0  0  0  0  0  0  0  0  0  0  0
   37.7240   24.5040   42.8880 H   0  0  0  0  0  0  0  0  0  0  0  0
   37.1050   25.6420   40.8630 H   0  0  0  0  0  0  0  0  0  0  0  0
   38.5850   26.6440   40.8600 H   0  0  0  0  0  0  0  0  0  0  0  0
   36.7020   28.2320   41.4920 C   0  0  0  0  0  0  0  0  0  0  0  0
   36.8940   29.5370   42.0030 C   0  0  0  0  0  0  0  0  0  0  0  0
   36.5450   30.6420   41.2220 C   0  0  0  0  0  0  0  0  0  0  0  0
   36.0260   30.3780   39.9760 N   0  0  0  0  0  0  0  0  0  0  0  0
   35.8550   29.1140   39.5130 C   0  0  0  0  0  0  0  0  0  0  0  0
   36.1900   28.0610   40.2680 N   0  0  0  0  0  0  0  0  0  0  0  0
   37.2850   29.8160   42.9450 H   0  0  0  0  0  0  0  0  0  0  0  0
   36.6620   31.6630   41.5430 H   0  0  0  0  0  0  0  0  0  0  0  0
   35.2780   28.9420   38.1360 C   0  0  0  0  0  3  0  0  0  0  0  0
   33.7390   28.8050   38.0880 C   0  0  0  0  0  2  0  0  0  0  0  0
   34.6300   27.6750   37.7410 C   0  0  0  0  0  2  0  0  0  0  0  0
  1  7  1  0  0  0  0
  1  2  1  0  0  0  0
  2  9  1  0  0  0  0
  2  8  1  0  0  0  0
  3  2  1  0  0  0  0
  3 11  1  0  0  0  0
  4  3  1  0  0  0  0
  4 13  1  0  0  0  0
  5 15  1  0  0  0  0
  5  4  1  0  0  0  0
  6  5  1  0  0  0  0
  6  1  1  0  0  0  0
 10  3  1  0  0  0  0
 12  4  1  0  0  0  0
 14  5  1  0  0  0  0
 16  6  1  0  0  0  0
 17  6  1  0  0  0  0
 18 19  1  0  0  0  0
 18  1  1  0  0  0  0
 19 24  1  0  0  0  0
 20 25  1  0  0  0  0
 20 19  2  0  0  0  0
 21 20  1  0  0  0  0
 22 21  2  0  0  0  0
 22 23  1  0  0  0  0
 23 18  2  0  0  0  0
 26 22  1  0  0  0  0
 27 26  1  0  0  0  0
 28 27  1  0  0  0  0
 28 26  1  0  0  0  0
M  END
>  <minimizedAffinity>
-4.62898493

$$$$

 OpenBabel03242519233D

 28 30  0  0  0  0  0  0  0  0999 V2000
   37.0620   29.4780   42.2030 C   0  0  0  0  0  0  0  0  0  0  0  0
   38.4390   29.5940   42.7210 C   0  0  0  0  0  0  0  0  0  0  0  0
   39.1530   28.2870   42.8380 C   0  0  0  0  0  0  0  0  0  0  0  0
   38.3840   27.2670   43.6550 C   0  0  0  0  0  0  0  0  0  0  0  0
   36.8980   27.2750   43.3920 C   0  0  0  0  0  0  0  0  0  0  0  0
   36.5640   28.0380   42.1380 C   0  0  0  0  0  0  0  0  0  0  0  0
   36.3100   30.0040   42.8520 H   0  0  0  0  0  0  0  0  0  0  0  0
   38.3900   30.0160   43.7640 H   0  0  0  0  0  0  0  0  0  0  0  0
   39.0980   30.2910   42.1820 H   0  0  0  0  0  0  0  0  0  0  0  0
   39.4680   27.8070   41.9200 H   0  0  0  0  0  0  0  0  0  0  0  0
   40.0870   28.4840   43.4320 H   0  0  0  0  0  0  0  0  0  0  0  0
   38.7320   26.2440   43.3740 H   0  0  0  0  0  0  0  0  0  0  0  0
   38.5420   27.4350   44.7400 H   0  0  0  0  0  0  0  0  0  0  0  0
   36.4640   26.2720   43.2970 H   0  0  0  0  0  0  0  0  0  0  0  0
   36.3600   27.7730   44.2310 H   0  0  0  0  0  0  0  0  0  0  0  0
   35.4690   28.0870   42.0200 H   0  0  0  0  0  0  0  0  0  0  0  0
   36.9730   27.5310   41.2300 H   0  0  0  0  0  0  0  0  0  0  0  0
   36.9070   30.0450   40.8500 C   0  0  0  0  0  0  0  0  0  0  0  0
   37.3300   31.3840   40.6860 C   0  0  0  0  0  0  0  0  0  0  0  0
   37.2230   31.9950   39.4330 C   0  0  0  0  0  0  0  0  0  0  0  0
   36.6970   31.2300   38.4180 N   0  0  0  0  0  0  0  0  0  0  0  0
   36.2990   29.9460   38.6060 C   0  0  0  0  0  0  0  0  0  0  0  0
   36.4050   29.3700   39.8090 N   0  0  0  0  0  0  0  0  0  0  0  0
   37.7420   32.0300   41.4160 H   0  0  0  0  0  0  0  0  0  0  0  0
   37.5250   33.0080   39.2350 H   0  0  0  0  0  0  0  0  0  0  0  0
   35.7400   29.2050   37.4240 C   0  0  0  0  0  3  0  0  0  0  0  0
   34.2090   28.9880   37.4600 C   0  0  0  0  0  2  0  0  0  0  0  0
   35.1570   27.8570   37.5860 C   0  0  0  0  0  2  0  0  0  0  0  0
  1  2  1  0  0  0  0
  1  7  1  0  0  0  0
  2  3  1  0  0  0  0
  2  8  1  0  0  0  0
  3 11  1  0  0  0  0
  3  4  1  0  0  0  0
  4 13  1  0  0  0  0
  5  4  1  0  0  0  0
  5 15  1  0  0  0  0
  6  1  1  0  0  0  0
  6  5  1  0  0  0  0
  9  2  1  0  0  0  0
 10  3  1  0  0  0  0
 12  4  1  0  0  0  0
 14  5  1  0  0  0  0
 16  6  1  0  0  0  0
 17  6  1  0  0  0  0
 18  1  1  0  0  0  0
 19 18  1  0  0  0  0
 19 24  1  0  0  0  0
 20 19  2  0  0  0  0
 21 22  2  0  0  0  0
 21 20  1  0  0  0  0
 22 23  1  0  0  0  0
 23 18  2  0  0  0  0
 25 20  1  0  0  0  0
 26 27  1  0  0  0  0
 26 28  1  0  0  0  0
 26 22  1  0  0  0  0
 27 28  1  0  0  0  0
M  END
>  <minimizedAffinity>
-4.61940765

$$$$

 OpenBabel03242519233D

 28 30  0  0  0  0  0  0  0  0999 V2000
   36.9620   30.8350   39.3660 C   0  0  0  0  0  0  0  0  0  0  0  0
   35.8210   29.9240   39.1540 C   0  0  0  0  0  0  0  0  0  0  0  0
   36.0150   28.9640   38.0250 C   0  0  0  0  0  0  0  0  0  0  0  0
   36.3680   29.6540   36.7210 C   0  0  0  0  0  0  0  0  0  0  0  0
   37.3290   30.8050   36.8850 C   0  0  0  0  0  0  0  0  0  0  0  0
   37.9870   30.7860   38.2390 C   0  0  0  0  0  0  0  0  0  0  0  0
   36.6500   31.9140   39.4140 H   0  0  0  0  0  0  0  0  0  0  0  0
   34.9190   30.5430   38.8850 H   0  0  0  0  0  0  0  0  0  0  0  0
   35.4960   29.3480   40.0340 H   0  0  0  0  0  0  0  0  0  0  0  0
   36.7190   28.1550   38.1740 H   0  0  0  0  0  0  0  0  0  0  0  0
   35.0150   28.4870   37.8350 H   0  0  0  0  0  0  0  0  0  0  0  0
   36.8870   28.9230   36.0560 H   0  0  0  0  0  0  0  0  0  0  0  0
   35.4540   30.0360   36.2210 H   0  0  0  0  0  0  0  0  0  0  0  0
   38.1230   30.8230   36.1290 H   0  0  0  0  0  0  0  0  0  0  0  0
   36.7880   31.7750   36.7970 H   0  0  0  0  0  0  0  0  0  0  0  0
   38.6220   31.6800   38.3490 H   0  0  0  0  0  0  0  0  0  0  0  0
   38.6480   29.8930   38.3590 H   0  0  0  0  0  0  0  0  0  0  0  0
   37.6920   30.5610   40.6190 C   0  0  0  0  0  0  0  0  0  0  0  0
   38.8620   31.3250   40.8340 C   0  0  0  0  0  0  0  0  0  0  0  0
   39.6090   31.1310   42.0000 C   0  0  0  0  0  0  0  0  0  0  0  0
   39.1410   30.1850   42.8810 N   0  0  0  0  0  0  0  0  0  0  0  0
   38.0130   29.4670   42.6470 C   0  0  0  0  0  0  0  0  0  0  0  0
   37.3050   29.6580   41.5280 N   0  0  0  0  0  0  0  0  0  0  0  0
   39.2800   32.0660   40.2060 H   0  0  0  0  0  0  0  0  0  0  0  0
   40.5080   31.6750   42.2310 H   0  0  0  0  0  0  0  0  0  0  0  0
   37.5950   28.4580   43.6800 C   0  0  0  0  0  3  0  0  0  0  0  0
   38.0730   27.0130   43.4070 C   0  0  0  0  0  2  0  0  0  0  0  0
   36.6400   27.3830   43.3420 C   0  0  0  0  0  2  0  0  0  0  0  0
  1  7  1  0  0  0  0
  1 18  1  0  0  0  0
  2  1  1  0  0  0  0
  2  9  1  0  0  0  0
  3 10  1  0  0  0  0
  3  2  1  0  0  0  0
  4  5  1  0  0  0  0
  4  3  1  0  0  0  0
  5  6  1  0  0  0  0
  6 16  1  0  0  0  0
  6 17  1  0  0  0  0
  6  1  1  0  0  0  0
  8  2  1  0  0  0  0
 11  3  1  0  0  0  0
 12  4  1  0  0  0  0
 13  4  1  0  0  0  0
 14  5  1  0  0  0  0
 15  5  1  0  0  0  0
 18 19  2  0  0  0  0
 18 23  1  0  0  0  0
 19 20  1  0  0  0  0
 20 25  1  0  0  0  0
 20 21  2  0  0  0  0
 22 21  1  0  0  0  0
 22 26  1  0  0  0  0
 23 22  2  0  0  0  0
 24 19  1  0  0  0  0
 27 26  1  0  0  0  0
 28 27  1  0  0  0  0
 28 26  1  0  0  0  0
M  END
>  <minimizedAffinity>
-4.58394575

$$$$

 OpenBabel03242519233D

 28 30  0  0  0  0  0  0  0  0999 V2000
   37.2270   27.3810   42.5010 C   0  0  0  0  0  0  0  0  0  0  0  0
   38.0760   27.6420   43.6790 C   0  0  0  0  0  0  0  0  0  0  0  0
   39.4510   27.0660   43.5740 C   0  0  0  0  0  0  0  0  0  0  0  0
   39.4440   25.5810   43.2680 C   0  0  0  0  0  0  0  0  0  0  0  0
   38.3950   25.1730   42.2640 C   0  0  0  0  0  0  0  0  0  0  0  0
   37.8330   26.3670   41.5370 C   0  0  0  0  0  0  0  0  0  0  0  0
   36.2290   26.9430   42.7750 H   0  0  0  0  0  0  0  0  0  0  0  0
   37.5990   27.1500   44.5740 H   0  0  0  0  0  0  0  0  0  0  0  0
   38.1730   28.6970   43.9770 H   0  0  0  0  0  0  0  0  0  0  0  0
   40.1400   27.5440   42.8900 H   0  0  0  0  0  0  0  0  0  0  0  0
   39.9100   27.1460   44.5970 H   0  0  0  0  0  0  0  0  0  0  0  0
   40.4230   25.3050   42.8070 H   0  0  0  0  0  0  0  0  0  0  0  0
   39.2830   24.9910   44.1940 H   0  0  0  0  0  0  0  0  0  0  0  0
   38.7620   24.4670   41.5090 H   0  0  0  0  0  0  0  0  0  0  0  0
   37.5430   24.6720   42.7770 H   0  0  0  0  0  0  0  0  0  0  0  0
   37.0200   26.0390   40.8700 H   0  0  0  0  0  0  0  0  0  0  0  0
   38.6080   26.8580   40.8990 H   0  0  0  0  0  0  0  0  0  0  0  0
   36.9420   28.5970   41.7160 C   0  0  0  0  0  0  0  0  0  0  0  0
   35.7350   28.5920   40.9800 C   0  0  0  0  0  0  0  0  0  0  0  0
   35.3870   29.7080   40.2140 C   0  0  0  0  0  0  0  0  0  0  0  0
   36.2670   30.7650   40.2300 N   0  0  0  0  0  0  0  0  0  0  0  0
   37.4190   30.7410   40.9480 C   0  0  0  0  0  0  0  0  0  0  0  0
   37.7450   29.6670   41.6770 N   0  0  0  0  0  0  0  0  0  0  0  0
   35.0130   27.8210   40.9200 H   0  0  0  0  0  0  0  0  0  0  0  0
   34.4860   29.7750   39.6300 H   0  0  0  0  0  0  0  0  0  0  0  0
   38.3070   31.9520   40.8910 C   0  0  0  0  0  3  0  0  0  0  0  0
   39.4790   31.8520   39.8880 C   0  0  0  0  0  2  0  0  0  0  0  0
   39.7090   31.8830   41.3500 C   0  0  0  0  0  2  0  0  0  0  0  0
  1  7  1  0  0  0  0
  1  2  1  0  0  0  0
  2  9  1  0  0  0  0
  2  8  1  0  0  0  0
  3  2  1  0  0  0  0
  3 11  1  0  0  0  0
  4  3  1  0  0  0  0
  4 13  1  0  0  0  0
  5 15  1  0  0  0  0
  5  4  1  0  0  0  0
  6  5  1  0  0  0  0
  6  1  1  0  0  0  0
 10  3  1  0  0  0  0
 12  4  1  0  0  0  0
 14  5  1  0  0  0  0
 16  6  1  0  0  0  0
 17  6  1  0  0  0  0
 18  1  1  0  0  0  0
 19 18  2  0  0  0  0
 20 21  2  0  0  0  0
 20 19  1  0  0  0  0
 21 22  1  0  0  0  0
 22 23  2  0  0  0  0
 23 18  1  0  0  0  0
 24 19  1  0  0  0  0
 25 20  1  0  0  0  0
 26 22  1  0  0  0  0
 26 28  1  0  0  0  0
 27 26  1  0  0  0  0
 27 28  1  0  0  0  0
M  END
>  <minimizedAffinity>
-4.53282833

$$$$

 OpenBabel03242519233D

 28 30  0  0  0  0  0  0  0  0999 V2000
   37.4130   29.3130   42.3730 C   0  0  0  0  0  0  0  0  0  0  0  0
   36.5530   28.1770   41.9880 C   0  0  0  0  0  0  0  0  0  0  0  0
   36.1220   28.2010   40.5580 C   0  0  0  0  0  0  0  0  0  0  0  0
   35.4510   29.5040   40.1690 C   0  0  0  0  0  0  0  0  0  0  0  0
   36.1080   30.7250   40.7620 C   0  0  0  0  0  0  0  0  0  0  0  0
   37.4730   30.4060   41.3120 C   0  0  0  0  0  0  0  0  0  0  0  0
   37.0460   29.8390   43.2960 H   0  0  0  0  0  0  0  0  0  0  0  0
   35.6080   28.2250   42.6000 H   0  0  0  0  0  0  0  0  0  0  0  0
   36.9570   27.1750   42.2020 H   0  0  0  0  0  0  0  0  0  0  0  0
   36.8690   27.9750   39.8080 H   0  0  0  0  0  0  0  0  0  0  0  0
   35.3180   27.4220   40.4530 H   0  0  0  0  0  0  0  0  0  0  0  0
   35.5270   29.6310   39.0620 H   0  0  0  0  0  0  0  0  0  0  0  0
   34.3850   29.5020   40.4760 H   0  0  0  0  0  0  0  0  0  0  0  0
   36.2210   31.5520   40.0500 H   0  0  0  0  0  0  0  0  0  0  0  0
   35.4980   31.1190   41.6070 H   0  0  0  0  0  0  0  0  0  0  0  0
   37.8870   31.3010   41.8030 H   0  0  0  0  0  0  0  0  0  0  0  0
   38.1820   30.1140   40.4990 H   0  0  0  0  0  0  0  0  0  0  0  0
   38.8050   28.9130   42.6520 C   0  0  0  0  0  0  0  0  0  0  0  0
   39.7770   29.9330   42.5450 C   0  0  0  0  0  0  0  0  0  0  0  0
   41.1200   29.6390   42.7990 C   0  0  0  0  0  0  0  0  0  0  0  0
   41.4110   28.3400   43.1450 N   0  0  0  0  0  0  0  0  0  0  0  0
   40.4550   27.3810   43.2410 C   0  0  0  0  0  0  0  0  0  0  0  0
   39.1720   27.6720   42.9940 N   0  0  0  0  0  0  0  0  0  0  0  0
   39.6290   30.9490   42.2860 H   0  0  0  0  0  0  0  0  0  0  0  0
   41.9130   30.3640   42.7380 H   0  0  0  0  0  0  0  0  0  0  0  0
   40.8880   25.9950   43.6270 C   0  0  0  0  0  3  0  0  0  0  0  0
   41.4610   25.1470   42.4680 C   0  0  0  0  0  2  0  0  0  0  0  0
   40.1710   24.8090   43.1120 C   0  0  0  0  0  2  0  0  0  0  0  0
  1 18  1  0  0  0  0
  1  7  1  0  0  0  0
  2  9  1  0  0  0  0
  2  1  1  0  0  0  0
  2  8  1  0  0  0  0
  3  2  1  0  0  0  0
  4 13  1  0  0  0  0
  4  3  1  0  0  0  0
  4  5  1  0  0  0  0
  5  6  1  0  0  0  0
  5 15  1  0  0  0  0
  6 16  1  0  0  0  0
  6  1  1  0  0  0  0
 10  3  1  0  0  0  0
 11  3  1  0  0  0  0
 12  4  1  0  0  0  0
 14  5  1  0  0  0  0
 17  6  1  0  0  0  0
 18 23  1  0  0  0  0
 19 18  2  0  0  0  0
 19 20  1  0  0  0  0
 20 21  2  0  0  0  0
 21 22  1  0  0  0  0
 22 26  1  0  0  0  0
 23 22  2  0  0  0  0
 24 19  1  0  0  0  0
 25 20  1  0  0  0  0
 27 28  1  0  0  0  0
 27 26  1  0  0  0  0
 28 26  1  0  0  0  0
M  END
>  <minimizedAffinity>
-4.51620674

$$$$
