
     RDKit          3D

 26 28  0  0  0  0  0  0  0  0999 V2000
   44.6252   35.4607   45.1205 C   0  0  0  0  0  0  0  0  0  0  0  0
   45.0977   35.7074   43.8142 C   0  0  0  0  0  0  0  0  0  0  0  0
   46.0437   34.8329   43.3545 C   0  0  0  0  0  0  0  0  0  0  0  0
   46.4931   33.7820   44.1459 N   0  0  0  0  0  0  0  0  0  0  0  0
   46.0131   33.5912   45.3802 C   0  0  0  0  0  0  0  0  0  0  0  0
   45.0674   34.4417   45.8711 N   0  0  0  0  0  0  0  0  0  0  0  0
   46.5384   34.9651   41.9359 C   0  0  1  0  0  0  0  0  0  0  0  0
   48.0562   35.2775   41.9259 C   0  0  0  0  0  0  0  0  0  0  0  0
   47.3959   33.9713   41.4039 C   0  0  2  0  0  0  0  0  0  0  0  0
   44.6522   36.8111   43.0360 N   0  0  0  0  0  0  0  0  0  0  0  0
   43.8736   36.1329   45.5174 H   0  0  0  0  0  0  0  0  0  0  0  0
   46.4598   32.7368   45.8646 H   0  0  0  0  0  0  0  0  0  0  0  0
   45.9505   35.6583   41.3083 H   0  0  0  0  0  0  0  0  0  0  0  0
   48.3666   36.0051   41.1824 H   0  0  0  0  0  0  0  0  0  0  0  0
   48.6239   35.2179   42.8494 H   0  0  0  0  0  0  0  0  0  0  0  0
   47.6570   33.0840   42.0207 H   0  0  0  0  0  0  0  0  0  0  0  0
   44.2154   36.8577   42.1218 H   0  0  0  0  0  0  0  0  0  0  0  0
   44.7533   37.7992   43.3937 H   0  0  0  0  0  0  0  0  0  0  0  0
   47.4376   33.7446   39.9153 C   0  0  0  0  0  0  0  0  0  0  0  0
   46.2553   33.9885   39.0650 C   0  0  0  0  0  0  0  0  0  0  0  0
   47.3417   35.0199   39.0541 C   0  0  0  0  0  0  0  0  0  0  0  0
   48.1482   32.9544   39.6037 H   0  0  0  0  0  0  0  0  0  0  0  0
   45.2794   34.2862   39.4544 H   0  0  0  0  0  0  0  0  0  0  0  0
   46.1819   33.3640   38.1355 H   0  0  0  0  0  0  0  0  0  0  0  0
   47.1536   35.9749   39.6268 H   0  0  0  0  0  0  0  0  0  0  0  0
   48.0841   35.0697   38.2279 H   0  0  0  0  0  0  0  0  0  0  0  0
  1  6  2  0
  2  1  1  0
  3  2  2  0
  3  4  1  0
  4  5  2  0
  5  6  1  0
  7  3  1  0
  8  7  1  0
  9  8  1  0
  9  7  1  0
 10  2  1  0
  1 11  1  0
  5 12  1  0
  7 13  1  6
  8 14  1  0
  8 15  1  0
  9 16  1  1
 10 17  1  0
 10 18  1  0
 19 20  1  0
 20 21  1  0
 21 19  1  0
 19 22  1  0
 20 23  1  0
 20 24  1  0
 21 25  1  0
 21 26  1  0
  9 19  1  0
M  ISO  6  11  14  12  14  13  13  14  13  15  13  16  13
M  END
>  <DihAtoms>  (1) 
7,8,18,19

>  <DihDeg>  (1) 
107.77015342022398

$$$$
