
 OpenBabel03252501523D

 39 42  0  0  1  0  0  0  0  0999 V2000
   33.6670   28.6370   36.5550 C   0  0  0  0  0  3  0  0  0  0  0  0
   32.4130   29.1050   36.5040 C   0  0  0  0  0  3  0  0  0  0  0  0
   33.9450   29.1740   39.0140 C   0  0  0  0  0  0  0  0  0  0  0  0
   34.4370   28.6020   37.8080 C   0  0  0  0  0  0  0  0  0  0  0  0
   35.6820   27.9760   37.8190 C   0  0  0  0  0  0  0  0  0  0  0  0
   36.3860   27.9340   38.9910 N   0  0  0  0  0  0  0  0  0  0  0  0
   35.8860   28.4860   40.1120 C   0  0  0  0  0  0  0  0  0  0  0  0
   34.6910   29.0850   40.0890 N   0  0  0  0  0  0  0  0  0  0  0  0
   32.9780   29.6520   38.9730 H   0  0  0  0  0  0  0  0  0  0  0  0
   36.0980   27.5250   36.9230 H   0  0  0  0  0  0  0  0  0  0  0  0
   37.4410   30.6350   40.9400 F   0  0  0  0  0  0  0  0  0  0  0  0
   37.4270   29.5220   41.7330 C   0  0  0  0  0  0  0  0  0  0  0  0
   36.6560   28.4210   41.3410 C   0  0  0  0  0  0  0  0  0  0  0  0
   36.5980   27.2690   42.0900 C   0  0  0  0  0  0  0  0  0  0  0  0
   37.3410   27.2290   43.2630 C   0  0  0  0  0  0  0  0  0  0  0  0
   38.1290   28.3300   43.6810 C   0  0  0  0  0  0  0  0  0  0  0  0
   38.1640   29.4810   42.8980 C   0  0  0  0  0  0  0  0  0  0  0  0
   36.0020   26.4180   41.7870 H   0  0  0  0  0  0  0  0  0  0  0  0
   37.2740   26.3060   43.8280 H   0  0  0  0  0  0  0  0  0  0  0  0
   38.6630   28.2060   44.5930 H   0  0  0  0  0  0  0  0  0  0  0  0
   38.7700   30.3140   43.2300 H   0  0  0  0  0  0  0  0  0  0  0  0
   31.6760   29.1110   35.1920 C   0  0  0  0  0  0  0  0  0  0  0  0
   31.1070   28.1560   35.1770 H   0  0  0  0  0  0  0  0  0  0  0  0
   32.3900   29.0630   34.3430 H   0  0  0  0  0  0  0  0  0  0  0  0
   30.7410   30.1910   35.0800 N   0  0  0  0  0  0  0  0  0  0  0  0
   30.7540   31.0290   36.2440 C   0  0  0  0  0  0  0  0  0  0  0  0
   30.4460   32.4310   35.8000 C   0  0  0  0  0  0  0  0  0  0  0  0
   31.0410   32.4330   34.4190 C   0  0  0  0  0  0  0  0  0  0  0  0
   30.9460   30.9950   33.9260 C   0  0  2  0  0  0  0  0  0  0  0  0
   31.7960   31.0270   36.6370 H   0  0  0  0  0  0  0  0  0  0  0  0
   30.0560   30.7170   37.0370 H   0  0  0  0  0  0  0  0  0  0  0  0
   29.3260   32.5340   35.7770 H   0  0  0  0  0  0  0  0  0  0  0  0
   30.8820   33.2010   36.4530 H   0  0  0  0  0  0  0  0  0  0  0  0
   32.1340   32.6540   34.5350 H   0  0  0  0  0  0  0  0  0  0  0  0
   30.5220   33.1420   33.7610 H   0  0  0  0  0  0  0  0  0  0  0  0
   31.8280   30.7400   33.3050 H   0  0  0  0  0  0  0  0  0  0  0  0
   29.6460   30.9720   33.1180 C   0  0  0  0  0  3  0  0  0  0  0  0
   29.4150   31.8570   31.9790 C   0  0  0  0  0  2  0  0  0  0  0  0
   29.6620   30.4270   31.7170 C   0  0  0  0  0  2  0  0  0  0  0  0
  1  4  1  0  0  0  0
  2  1  2  0  0  0  0
  3  8  1  0  0  0  0
  4  5  1  0  0  0  0
  4  3  2  0  0  0  0
  5  6  2  0  0  0  0
  6  7  1  0  0  0  0
  7 13  1  0  0  0  0
  8  7  2  0  0  0  0
  9  3  1  0  0  0  0
 10  5  1  0  0  0  0
 11 12  1  0  0  0  0
 12 17  1  0  0  0  0
 13 12  2  0  0  0  0
 13 14  1  0  0  0  0
 14 15  2  0  0  0  0
 15 16  1  0  0  0  0
 15 19  1  0  0  0  0
 16 20  1  0  0  0  0
 17 21  1  0  0  0  0
 17 16  2  0  0  0  0
 18 14  1  0  0  0  0
 22  2  1  0  0  0  0
 23 22  1  0  0  0  0
 24 22  1  0  0  0  0
 25 22  1  0  0  0  0
 25 26  1  0  0  0  0
 26 30  1  0  0  0  0
 26 31  1  0  0  0  0
 27 26  1  0  0  0  0
 27 33  1  0  0  0  0
 28 34  1  0  0  0  0
 28 27  1  0  0  0  0
 29 36  1  6  0  0  0
 29 28  1  0  0  0  0
 29 25  1  0  0  0  0
 32 27  1  0  0  0  0
 35 28  1  0  0  0  0
 37 29  1  0  0  0  0
 38 37  1  0  0  0  0
 39 38  1  0  0  0  0
 39 37  1  0  0  0  0
M  END
>  <minimizedAffinity>
-5.78262472

$$$$

 OpenBabel03252501523D

 39 42  0  0  1  0  0  0  0  0999 V2000
   34.0970   29.0070   36.4990 C   0  0  0  0  0  3  0  0  0  0  0  0
   32.7610   29.0500   36.4220 C   0  0  0  0  0  3  0  0  0  0  0  0
   34.1700   29.0590   39.0300 C   0  0  0  0  0  0  0  0  0  0  0  0
   34.8010   28.8190   37.7770 C   0  0  0  0  0  0  0  0  0  0  0  0
   36.1220   28.3760   37.7640 C   0  0  0  0  0  0  0  0  0  0  0  0
   36.7650   28.1900   38.9560 N   0  0  0  0  0  0  0  0  0  0  0  0
   36.1340   28.4280   40.1200 C   0  0  0  0  0  0  0  0  0  0  0  0
   34.8660   28.8520   40.1210 N   0  0  0  0  0  0  0  0  0  0  0  0
   33.1470   29.4010   39.0070 H   0  0  0  0  0  0  0  0  0  0  0  0
   36.6450   28.1800   36.8320 H   0  0  0  0  0  0  0  0  0  0  0  0
   36.6360   25.8610   41.0620 F   0  0  0  0  0  0  0  0  0  0  0  0
   37.0830   26.9110   41.8150 C   0  0  0  0  0  0  0  0  0  0  0  0
   36.8420   28.2160   41.3690 C   0  0  0  0  0  0  0  0  0  0  0  0
   37.2610   29.3170   42.0800 C   0  0  0  0  0  0  0  0  0  0  0  0
   37.9390   29.0910   43.2710 C   0  0  0  0  0  0  0  0  0  0  0  0
   38.1940   27.7800   43.7430 C   0  0  0  0  0  0  0  0  0  0  0  0
   37.7550   26.6880   42.9990 C   0  0  0  0  0  0  0  0  0  0  0  0
   37.0760   30.3250   41.7350 H   0  0  0  0  0  0  0  0  0  0  0  0
   38.2540   29.9790   43.8070 H   0  0  0  0  0  0  0  0  0  0  0  0
   38.7190   27.7070   44.6660 H   0  0  0  0  0  0  0  0  0  0  0  0
   37.9580   25.6930   43.3720 H   0  0  0  0  0  0  0  0  0  0  0  0
   32.1000   29.2420   35.0840 C   0  0  0  0  0  0  0  0  0  0  0  0
   31.7090   28.2380   34.8100 H   0  0  0  0  0  0  0  0  0  0  0  0
   32.8530   29.5050   34.3100 H   0  0  0  0  0  0  0  0  0  0  0  0
   30.9980   30.1550   35.1290 N   0  0  0  0  0  0  0  0  0  0  0  0
   30.9170   30.8310   36.3920 C   0  0  0  0  0  0  0  0  0  0  0  0
   30.3680   32.2060   36.1390 C   0  0  0  0  0  0  0  0  0  0  0  0
   30.9010   32.4810   34.7600 C   0  0  0  0  0  0  0  0  0  0  0  0
   31.0240   31.1210   34.0860 C   0  0  2  0  0  0  0  0  0  0  0  0
   31.9610   30.9540   36.7630 H   0  0  0  0  0  0  0  0  0  0  0  0
   30.3110   30.3100   37.1490 H   0  0  0  0  0  0  0  0  0  0  0  0
   29.2460   32.1230   36.1480 H   0  0  0  0  0  0  0  0  0  0  0  0
   30.6960   32.9500   36.8790 H   0  0  0  0  0  0  0  0  0  0  0  0
   31.9460   32.8660   34.8850 H   0  0  0  0  0  0  0  0  0  0  0  0
   30.2490   33.1700   34.2090 H   0  0  0  0  0  0  0  0  0  0  0  0
   31.9110   31.0970   33.4220 H   0  0  0  0  0  0  0  0  0  0  0  0
   29.7150   30.9820   33.3040 C   0  0  0  0  0  3  0  0  0  0  0  0
   29.3720   31.8600   32.1880 C   0  0  0  0  0  2  0  0  0  0  0  0
   29.7550   30.4670   31.8920 C   0  0  0  0  0  2  0  0  0  0  0  0
  1  4  1  0  0  0  0
  2  1  2  0  0  0  0
  3  8  1  0  0  0  0
  4  3  2  0  0  0  0
  5  4  1  0  0  0  0
  5  6  2  0  0  0  0
  6  7  1  0  0  0  0
  7  8  2  0  0  0  0
  7 13  1  0  0  0  0
  9  3  1  0  0  0  0
 10  5  1  0  0  0  0
 11 12  1  0  0  0  0
 12 17  1  0  0  0  0
 13 12  2  0  0  0  0
 13 14  1  0  0  0  0
 14 15  2  0  0  0  0
 15 16  1  0  0  0  0
 15 19  1  0  0  0  0
 16 20  1  0  0  0  0
 17 21  1  0  0  0  0
 17 16  2  0  0  0  0
 18 14  1  0  0  0  0
 22 25  1  0  0  0  0
 22  2  1  0  0  0  0
 23 22  1  0  0  0  0
 24 22  1  0  0  0  0
 25 26  1  0  0  0  0
 26 30  1  0  0  0  0
 26 31  1  0  0  0  0
 27 32  1  0  0  0  0
 27 26  1  0  0  0  0
 27 33  1  0  0  0  0
 28 34  1  0  0  0  0
 28 27  1  0  0  0  0
 29 36  1  6  0  0  0
 29 28  1  0  0  0  0
 29 25  1  0  0  0  0
 35 28  1  0  0  0  0
 37 29  1  0  0  0  0
 38 37  1  0  0  0  0
 39 38  1  0  0  0  0
 39 37  1  0  0  0  0
M  END
>  <minimizedAffinity>
-5.71289301

$$$$

 OpenBabel03252501523D

 39 42  0  0  1  0  0  0  0  0999 V2000
   34.3030   28.3230   37.9320 C   0  0  0  0  0  3  0  0  0  0  0  0
   34.9430   29.0620   38.8470 C   0  0  0  0  0  3  0  0  0  0  0  0
   32.1130   29.3860   37.2340 C   0  0  0  0  0  0  0  0  0  0  0  0
   33.4220   28.9250   36.9190 C   0  0  0  0  0  0  0  0  0  0  0  0
   33.8870   29.0620   35.6130 C   0  0  0  0  0  0  0  0  0  0  0  0
   33.0680   29.6360   34.6800 N   0  0  0  0  0  0  0  0  0  0  0  0
   31.8370   30.0610   35.0170 C   0  0  0  0  0  0  0  0  0  0  0  0
   31.4000   29.9230   36.2730 N   0  0  0  0  0  0  0  0  0  0  0  0
   31.7810   29.2650   38.2540 H   0  0  0  0  0  0  0  0  0  0  0  0
   34.8790   28.7250   35.3260 H   0  0  0  0  0  0  0  0  0  0  0  0
   31.3300   32.7930   35.0340 F   0  0  0  0  0  0  0  0  0  0  0  0
   30.7590   32.0500   34.0390 C   0  0  0  0  0  0  0  0  0  0  0  0
   30.9930   30.6700   34.0050 C   0  0  0  0  0  0  0  0  0  0  0  0
   30.4470   29.8630   33.0340 C   0  0  0  0  0  0  0  0  0  0  0  0
   29.6450   30.4660   32.0750 C   0  0  0  0  0  0  0  0  0  0  0  0
   29.3930   31.8610   32.0880 C   0  0  0  0  0  0  0  0  0  0  0  0
   29.9610   32.6480   33.0850 C   0  0  0  0  0  0  0  0  0  0  0  0
   30.6280   28.7960   33.0080 H   0  0  0  0  0  0  0  0  0  0  0  0
   29.2300   29.8020   31.3250 H   0  0  0  0  0  0  0  0  0  0  0  0
   28.7660   32.2320   31.3130 H   0  0  0  0  0  0  0  0  0  0  0  0
   29.7610   33.7120   33.0830 H   0  0  0  0  0  0  0  0  0  0  0  0
   35.8340   28.3870   39.8550 C   0  0  0  0  0  0  0  0  0  0  0  0
   36.7030   28.0170   39.2680 H   0  0  0  0  0  0  0  0  0  0  0  0
   35.3360   27.4870   40.2760 H   0  0  0  0  0  0  0  0  0  0  0  0
   36.3210   29.2830   40.8600 N   0  0  0  0  0  0  0  0  0  0  0  0
   36.6710   28.5900   42.0660 C   0  0  0  0  0  0  0  0  0  0  0  0
   37.8220   29.3220   42.6960 C   0  0  0  0  0  0  0  0  0  0  0  0
   38.5200   29.8640   41.4790 C   0  0  0  0  0  0  0  0  0  0  0  0
   37.4320   30.0600   40.4320 C   0  0  2  0  0  0  0  0  0  0  0  0
   37.0430   27.5830   41.7680 H   0  0  0  0  0  0  0  0  0  0  0  0
   35.8450   28.4840   42.7870 H   0  0  0  0  0  0  0  0  0  0  0  0
   37.3860   30.1430   43.3320 H   0  0  0  0  0  0  0  0  0  0  0  0
   38.4680   28.6760   43.3070 H   0  0  0  0  0  0  0  0  0  0  0  0
   39.1840   29.0460   41.0940 H   0  0  0  0  0  0  0  0  0  0  0  0
   39.0610   30.7900   41.7070 H   0  0  0  0  0  0  0  0  0  0  0  0
   37.8230   29.8320   39.4200 H   0  0  0  0  0  0  0  0  0  0  0  0
   37.0430   31.5330   40.5820 C   0  0  0  0  0  3  0  0  0  0  0  0
   38.0170   32.6160   40.4740 C   0  0  0  0  0  2  0  0  0  0  0  0
   37.0590   32.4230   39.3700 C   0  0  0  0  0  2  0  0  0  0  0  0
  1  2  2  0  0  0  0
  2 22  1  0  0  0  0
  3  9  1  0  0  0  0
  4  3  1  0  0  0  0
  4  1  1  0  0  0  0
  5  4  2  0  0  0  0
  6  7  2  0  0  0  0
  6  5  1  0  0  0  0
  7  8  1  0  0  0  0
  8  3  2  0  0  0  0
 10  5  1  0  0  0  0
 12 11  1  0  0  0  0
 13 12  1  0  0  0  0
 13  7  1  0  0  0  0
 14 13  2  0  0  0  0
 15 16  2  0  0  0  0
 15 14  1  0  0  0  0
 16 17  1  0  0  0  0
 17 12  2  0  0  0  0
 18 14  1  0  0  0  0
 19 15  1  0  0  0  0
 20 16  1  0  0  0  0
 21 17  1  0  0  0  0
 22 24  1  0  0  0  0
 22 25  1  0  0  0  0
 23 22  1  0  0  0  0
 25 26  1  0  0  0  0
 26 27  1  0  0  0  0
 26 31  1  0  0  0  0
 27 33  1  0  0  0  0
 27 32  1  0  0  0  0
 28 35  1  0  0  0  0
 28 27  1  0  0  0  0
 29 36  1  6  0  0  0
 29 37  1  0  0  0  0
 29 25  1  0  0  0  0
 29 28  1  0  0  0  0
 30 26  1  0  0  0  0
 34 28  1  0  0  0  0
 38 37  1  0  0  0  0
 39 38  1  0  0  0  0
 39 37  1  0  0  0  0
M  END
>  <minimizedAffinity>
-5.69460726

$$$$

 OpenBabel03252501523D

 39 42  0  0  1  0  0  0  0  0999 V2000
   33.7480   29.0280   37.5560 C   0  0  0  0  0  3  0  0  0  0  0  0
   33.1990   28.0900   36.7730 C   0  0  0  0  0  3  0  0  0  0  0  0
   35.9180   27.9380   38.2740 C   0  0  0  0  0  0  0  0  0  0  0  0
   34.7560   28.7020   38.5760 C   0  0  0  0  0  0  0  0  0  0  0  0
   34.5770   29.1680   39.8770 C   0  0  0  0  0  0  0  0  0  0  0  0
   35.5260   28.8740   40.8160 N   0  0  0  0  0  0  0  0  0  0  0  0
   36.6120   28.1480   40.4920 C   0  0  0  0  0  0  0  0  0  0  0  0
   36.7730   27.7060   39.2410 N   0  0  0  0  0  0  0  0  0  0  0  0
   36.0280   27.5910   37.2580 H   0  0  0  0  0  0  0  0  0  0  0  0
   33.7060   29.7550   40.1540 H   0  0  0  0  0  0  0  0  0  0  0  0
   36.8110   25.6110   41.6070 F   0  0  0  0  0  0  0  0  0  0  0  0
   37.6810   26.5670   42.0510 C   0  0  0  0  0  0  0  0  0  0  0  0
   37.6030   27.8560   41.5110 C   0  0  0  0  0  0  0  0  0  0  0  0
   38.4450   28.8660   41.9140 C   0  0  0  0  0  0  0  0  0  0  0  0
   39.3880   28.5650   42.8890 C   0  0  0  0  0  0  0  0  0  0  0  0
   39.4860   27.2680   43.4510 C   0  0  0  0  0  0  0  0  0  0  0  0
   38.6170   26.2690   43.0200 C   0  0  0  0  0  0  0  0  0  0  0  0
   38.3860   29.8620   41.4970 H   0  0  0  0  0  0  0  0  0  0  0  0
   40.0350   29.3830   43.1850 H   0  0  0  0  0  0  0  0  0  0  0  0
   40.2370   27.1320   44.1910 H   0  0  0  0  0  0  0  0  0  0  0  0
   38.7030   25.2830   43.4580 H   0  0  0  0  0  0  0  0  0  0  0  0
   32.1750   28.4880   35.7450 C   0  0  0  0  0  0  0  0  0  0  0  0
   31.3090   27.8130   35.9260 H   0  0  0  0  0  0  0  0  0  0  0  0
   32.5390   28.2590   34.7200 H   0  0  0  0  0  0  0  0  0  0  0  0
   31.7280   29.8400   35.8940 N   0  0  0  0  0  0  0  0  0  0  0  0
   31.8880   30.5910   34.6820 C   0  0  0  0  0  0  0  0  0  0  0  0
   30.7750   31.5980   34.6190 C   0  0  0  0  0  0  0  0  0  0  0  0
   29.6780   30.8620   35.3370 C   0  0  0  0  0  0  0  0  0  0  0  0
   30.3780   29.9420   36.3290 C   0  0  2  0  0  0  0  0  0  0  0  0
   31.7410   29.8810   33.8370 H   0  0  0  0  0  0  0  0  0  0  0  0
   32.8640   31.0920   34.5830 H   0  0  0  0  0  0  0  0  0  0  0  0
   31.1160   32.5060   35.1890 H   0  0  0  0  0  0  0  0  0  0  0  0
   30.4990   31.8790   33.5920 H   0  0  0  0  0  0  0  0  0  0  0  0
   29.1860   30.1940   34.5820 H   0  0  0  0  0  0  0  0  0  0  0  0
   28.9800   31.5560   35.8210 H   0  0  0  0  0  0  0  0  0  0  0  0
   29.8250   28.9870   36.4280 H   0  0  0  0  0  0  0  0  0  0  0  0
   30.3790   30.7460   37.6320 C   0  0  0  0  0  3  0  0  0  0  0  0
   29.1460   31.1300   38.3170 C   0  0  0  0  0  2  0  0  0  0  0  0
   29.9780   30.0670   38.9120 C   0  0  0  0  0  2  0  0  0  0  0  0
  1  4  1  0  0  0  0
  2  1  2  0  0  0  0
  3  4  2  0  0  0  0
  3  8  1  0  0  0  0
  4  5  1  0  0  0  0
  5 10  1  0  0  0  0
  5  6  2  0  0  0  0
  7  6  1  0  0  0  0
  7 13  1  0  0  0  0
  8  7  2  0  0  0  0
  9  3  1  0  0  0  0
 11 12  1  0  0  0  0
 12 17  1  0  0  0  0
 13 14  1  0  0  0  0
 13 12  2  0  0  0  0
 14 15  2  0  0  0  0
 15 19  1  0  0  0  0
 15 16  1  0  0  0  0
 16 20  1  0  0  0  0
 17 16  2  0  0  0  0
 17 21  1  0  0  0  0
 18 14  1  0  0  0  0
 22 25  1  0  0  0  0
 22 23  1  0  0  0  0
 22  2  1  0  0  0  0
 24 22  1  0  0  0  0
 25 29  1  0  0  0  0
 26 25  1  0  0  0  0
 27 26  1  0  0  0  0
 27 32  1  0  0  0  0
 27 28  1  0  0  0  0
 28 35  1  0  0  0  0
 28 29  1  0  0  0  0
 29 36  1  1  0  0  0
 29 37  1  0  0  0  0
 30 26  1  0  0  0  0
 31 26  1  0  0  0  0
 33 27  1  0  0  0  0
 34 28  1  0  0  0  0
 37 38  1  0  0  0  0
 37 39  1  0  0  0  0
 38 39  1  0  0  0  0
M  END
>  <minimizedAffinity>
-5.4501009

$$$$

 OpenBabel03252501523D

 39 42  0  0  1  0  0  0  0  0999 V2000
   36.5380   26.1190   38.8460 C   0  0  0  0  0  3  0  0  0  0  0  0
   37.7610   26.5640   39.1630 C   0  0  0  0  0  3  0  0  0  0  0  0
   35.5160   28.3980   38.4310 C   0  0  0  0  0  0  0  0  0  0  0  0
   35.5260   26.9890   38.2300 C   0  0  0  0  0  0  0  0  0  0  0  0
   34.5520   26.4210   37.4110 C   0  0  0  0  0  0  0  0  0  0  0  0
   33.6230   27.2380   36.8300 N   0  0  0  0  0  0  0  0  0  0  0  0
   33.6470   28.5670   37.0440 C   0  0  0  0  0  0  0  0  0  0  0  0
   34.5850   29.1010   37.8330 N   0  0  0  0  0  0  0  0  0  0  0  0
   36.2820   28.8090   39.0710 H   0  0  0  0  0  0  0  0  0  0  0  0
   34.5200   25.3510   37.2280 H   0  0  0  0  0  0  0  0  0  0  0  0
   31.5740   29.6860   38.5180 F   0  0  0  0  0  0  0  0  0  0  0  0
   31.6190   29.9600   37.1800 C   0  0  0  0  0  0  0  0  0  0  0  0
   32.6490   29.4080   36.4090 C   0  0  0  0  0  0  0  0  0  0  0  0
   32.7530   29.6410   35.0580 C   0  0  0  0  0  0  0  0  0  0  0  0
   31.7880   30.4510   34.4710 C   0  0  0  0  0  0  0  0  0  0  0  0
   30.7360   31.0210   35.2300 C   0  0  0  0  0  0  0  0  0  0  0  0
   30.6610   30.7640   36.5960 C   0  0  0  0  0  0  0  0  0  0  0  0
   33.5490   29.2150   34.4630 H   0  0  0  0  0  0  0  0  0  0  0  0
   31.8980   30.6130   33.4050 H   0  0  0  0  0  0  0  0  0  0  0  0
   30.0450   31.6260   34.6930 H   0  0  0  0  0  0  0  0  0  0  0  0
   29.8520   31.2060   37.1620 H   0  0  0  0  0  0  0  0  0  0  0  0
   38.7540   25.6230   39.7890 C   0  0  0  0  0  0  0  0  0  0  0  0
   39.7260   26.1620   39.7490 H   0  0  0  0  0  0  0  0  0  0  0  0
   38.8770   24.7120   39.1650 H   0  0  0  0  0  0  0  0  0  0  0  0
   38.4610   25.3290   41.1600 N   0  0  0  0  0  0  0  0  0  0  0  0
   39.2550   24.2410   41.6530 C   0  0  0  0  0  0  0  0  0  0  0  0
   39.5150   24.4910   43.1110 C   0  0  0  0  0  0  0  0  0  0  0  0
   39.5390   25.9940   43.1480 C   0  0  0  0  0  0  0  0  0  0  0  0
   38.6210   26.4490   42.0220 C   0  0  2  0  0  0  0  0  0  0  0  0
   40.2370   24.2900   41.1290 H   0  0  0  0  0  0  0  0  0  0  0  0
   38.8040   23.2470   41.5090 H   0  0  0  0  0  0  0  0  0  0  0  0
   38.6410   24.0690   43.6820 H   0  0  0  0  0  0  0  0  0  0  0  0
   40.4510   24.0390   43.4710 H   0  0  0  0  0  0  0  0  0  0  0  0
   40.5750   26.3100   42.8560 H   0  0  0  0  0  0  0  0  0  0  0  0
   39.2300   26.3750   44.1280 H   0  0  0  0  0  0  0  0  0  0  0  0
   39.0130   27.3730   41.5520 H   0  0  0  0  0  0  0  0  0  0  0  0
   37.2780   26.6820   42.7190 C   0  0  0  0  0  3  0  0  0  0  0  0
   37.0940   27.7070   43.7440 C   0  0  0  0  0  2  0  0  0  0  0  0
   36.4990   27.9310   42.4130 C   0  0  0  0  0  2  0  0  0  0  0  0
  1  2  2  0  0  0  0
  2 22  1  0  0  0  0
  3  9  1  0  0  0  0
  4  3  1  0  0  0  0
  4  1  1  0  0  0  0
  5  4  2  0  0  0  0
  6  7  2  0  0  0  0
  6  5  1  0  0  0  0
  7  8  1  0  0  0  0
  8  3  2  0  0  0  0
 10  5  1  0  0  0  0
 12 11  1  0  0  0  0
 13  7  1  0  0  0  0
 13 12  2  0  0  0  0
 14 13  1  0  0  0  0
 15 14  2  0  0  0  0
 15 16  1  0  0  0  0
 16 17  2  0  0  0  0
 17 21  1  0  0  0  0
 17 12  1  0  0  0  0
 18 14  1  0  0  0  0
 19 15  1  0  0  0  0
 20 16  1  0  0  0  0
 22 25  1  0  0  0  0
 23 22  1  0  0  0  0
 24 22  1  0  0  0  0
 25 26  1  0  0  0  0
 25 29  1  0  0  0  0
 26 27  1  0  0  0  0
 27 28  1  0  0  0  0
 27 33  1  0  0  0  0
 27 32  1  0  0  0  0
 28 35  1  0  0  0  0
 29 36  1  6  0  0  0
 29 37  1  0  0  0  0
 29 28  1  0  0  0  0
 30 26  1  0  0  0  0
 31 26  1  0  0  0  0
 34 28  1  0  0  0  0
 37 38  1  0  0  0  0
 39 37  1  0  0  0  0
 39 38  1  0  0  0  0
M  END
>  <minimizedAffinity>
-5.39991188

$$$$

 OpenBabel03252501523D

 39 42  0  0  1  0  0  0  0  0999 V2000
   34.0460   29.0260   36.7960 C   0  0  0  0  0  3  0  0  0  0  0  0
   32.9550   28.3030   36.5100 C   0  0  0  0  0  3  0  0  0  0  0  0
   34.3240   29.0970   39.3120 C   0  0  0  0  0  0  0  0  0  0  0  0
   34.8350   28.8020   38.0170 C   0  0  0  0  0  0  0  0  0  0  0  0
   36.1170   28.2680   37.9060 C   0  0  0  0  0  0  0  0  0  0  0  0
   36.8390   28.0480   39.0460 N   0  0  0  0  0  0  0  0  0  0  0  0
   36.3210   28.3400   40.2530 C   0  0  0  0  0  0  0  0  0  0  0  0
   35.0890   28.8520   40.3480 N   0  0  0  0  0  0  0  0  0  0  0  0
   33.3280   29.5100   39.3650 H   0  0  0  0  0  0  0  0  0  0  0  0
   36.5490   28.0270   36.9390 H   0  0  0  0  0  0  0  0  0  0  0  0
   36.9060   25.7470   41.0640 F   0  0  0  0  0  0  0  0  0  0  0  0
   37.3910   26.7730   41.8260 C   0  0  0  0  0  0  0  0  0  0  0  0
   37.1100   28.0910   41.4450 C   0  0  0  0  0  0  0  0  0  0  0  0
   37.5640   29.1700   42.1680 C   0  0  0  0  0  0  0  0  0  0  0  0
   38.3190   28.9090   43.3040 C   0  0  0  0  0  0  0  0  0  0  0  0
   38.6170   27.5840   43.7100 C   0  0  0  0  0  0  0  0  0  0  0  0
   38.1400   26.5150   42.9550 C   0  0  0  0  0  0  0  0  0  0  0  0
   37.3480   30.1880   41.8730 H   0  0  0  0  0  0  0  0  0  0  0  0
   38.6600   29.7810   43.8500 H   0  0  0  0  0  0  0  0  0  0  0  0
   39.2010   27.4830   44.5930 H   0  0  0  0  0  0  0  0  0  0  0  0
   38.3750   25.5090   43.2770 H   0  0  0  0  0  0  0  0  0  0  0  0
   32.1930   28.5800   35.2430 C   0  0  0  0  0  0  0  0  0  0  0  0
   32.0890   27.5890   34.7480 H   0  0  0  0  0  0  0  0  0  0  0  0
   32.7940   29.2100   34.5540 H   0  0  0  0  0  0  0  0  0  0  0  0
   30.8800   29.1010   35.4810 N   0  0  0  0  0  0  0  0  0  0  0  0
   30.0510   28.1590   36.1750 C   0  0  0  0  0  0  0  0  0  0  0  0
   29.1090   28.9380   37.0490 C   0  0  0  0  0  0  0  0  0  0  0  0
   29.9500   30.1390   37.3830 C   0  0  0  0  0  0  0  0  0  0  0  0
   30.8840   30.3310   36.1950 C   0  0  2  0  0  0  0  0  0  0  0  0
   30.7160   27.5710   36.8470 H   0  0  0  0  0  0  0  0  0  0  0  0
   29.4870   27.4780   35.5180 H   0  0  0  0  0  0  0  0  0  0  0  0
   28.2170   29.2100   36.4190 H   0  0  0  0  0  0  0  0  0  0  0  0
   28.7830   28.3840   37.9420 H   0  0  0  0  0  0  0  0  0  0  0  0
   30.6000   29.8510   38.2500 H   0  0  0  0  0  0  0  0  0  0  0  0
   29.3290   31.0210   37.5800 H   0  0  0  0  0  0  0  0  0  0  0  0
   31.8750   30.6920   36.5360 H   0  0  0  0  0  0  0  0  0  0  0  0
   30.1610   31.3640   35.3270 C   0  0  0  0  0  3  0  0  0  0  0  0
   29.9690   32.7490   35.7520 C   0  0  0  0  0  2  0  0  0  0  0  0
   30.9550   32.4710   34.6900 C   0  0  0  0  0  2  0  0  0  0  0  0
  1  4  1  0  0  0  0
  2  1  2  0  0  0  0
  3  9  1  0  0  0  0
  3  8  1  0  0  0  0
  4  3  2  0  0  0  0
  5  4  1  0  0  0  0
  5  6  2  0  0  0  0
  6  7  1  0  0  0  0
  7  8  2  0  0  0  0
  7 13  1  0  0  0  0
 10  5  1  0  0  0  0
 11 12  1  0  0  0  0
 12 17  1  0  0  0  0
 13 12  2  0  0  0  0
 13 14  1  0  0  0  0
 14 15  2  0  0  0  0
 15 16  1  0  0  0  0
 15 19  1  0  0  0  0
 16 20  1  0  0  0  0
 17 21  1  0  0  0  0
 17 16  2  0  0  0  0
 18 14  1  0  0  0  0
 22 25  1  0  0  0  0
 22  2  1  0  0  0  0
 23 22  1  0  0  0  0
 24 22  1  0  0  0  0
 25 26  1  0  0  0  0
 25 29  1  0  0  0  0
 26 30  1  0  0  0  0
 26 27  1  0  0  0  0
 27 28  1  0  0  0  0
 27 33  1  0  0  0  0
 28 35  1  0  0  0  0
 28 34  1  0  0  0  0
 29 36  1  1  0  0  0
 29 28  1  0  0  0  0
 31 26  1  0  0  0  0
 32 27  1  0  0  0  0
 37 38  1  0  0  0  0
 37 29  1  0  0  0  0
 39 37  1  0  0  0  0
 39 38  1  0  0  0  0
M  END
>  <minimizedAffinity>
-5.3040452

$$$$

 OpenBabel03252501523D

 39 42  0  0  1  0  0  0  0  0999 V2000
   34.3160   28.1520   37.2270 C   0  0  0  0  0  3  0  0  0  0  0  0
   34.7260   28.6960   38.3810 C   0  0  0  0  0  3  0  0  0  0  0  0
   32.0020   29.0600   36.7430 C   0  0  0  0  0  0  0  0  0  0  0  0
   33.3490   28.8250   36.3470 C   0  0  0  0  0  0  0  0  0  0  0  0
   33.7660   29.2610   35.0910 C   0  0  0  0  0  0  0  0  0  0  0  0
   32.8650   29.8980   34.2840 N   0  0  0  0  0  0  0  0  0  0  0  0
   31.6000   30.1030   34.6950 C   0  0  0  0  0  0  0  0  0  0  0  0
   31.2100   29.6800   35.9020 N   0  0  0  0  0  0  0  0  0  0  0  0
   31.7090   28.7110   37.7220 H   0  0  0  0  0  0  0  0  0  0  0  0
   34.7830   29.1030   34.7460 H   0  0  0  0  0  0  0  0  0  0  0  0
   30.7310   32.6810   35.2630 F   0  0  0  0  0  0  0  0  0  0  0  0
   30.2520   32.0870   34.1280 C   0  0  0  0  0  0  0  0  0  0  0  0
   30.6690   30.7870   33.8170 C   0  0  0  0  0  0  0  0  0  0  0  0
   30.2240   30.1300   32.6940 C   0  0  0  0  0  0  0  0  0  0  0  0
   29.3350   30.8040   31.8660 C   0  0  0  0  0  0  0  0  0  0  0  0
   28.8990   32.1200   32.1600 C   0  0  0  0  0  0  0  0  0  0  0  0
   29.3690   32.7560   33.3060 C   0  0  0  0  0  0  0  0  0  0  0  0
   30.5460   29.1260   32.4520 H   0  0  0  0  0  0  0  0  0  0  0  0
   29.0030   30.2580   30.9900 H   0  0  0  0  0  0  0  0  0  0  0  0
   28.2170   32.5550   31.4680 H   0  0  0  0  0  0  0  0  0  0  0  0
   29.0280   33.7600   33.5180 H   0  0  0  0  0  0  0  0  0  0  0  0
   35.7210   27.9580   39.2360 C   0  0  0  0  0  0  0  0  0  0  0  0
   36.2530   27.2780   38.5360 H   0  0  0  0  0  0  0  0  0  0  0  0
   35.1990   27.3060   39.9690 H   0  0  0  0  0  0  0  0  0  0  0  0
   36.6880   28.8230   39.8430 N   0  0  0  0  0  0  0  0  0  0  0  0
   36.8260   30.0560   39.1220 C   0  0  0  0  0  0  0  0  0  0  0  0
   37.1520   31.1320   40.1180 C   0  0  0  0  0  0  0  0  0  0  0  0
   36.4280   30.6280   41.3360 C   0  0  0  0  0  0  0  0  0  0  0  0
   36.4090   29.1110   41.2070 C   0  0  2  0  0  0  0  0  0  0  0  0
   35.8270   30.2950   38.6910 H   0  0  0  0  0  0  0  0  0  0  0  0
   37.5830   30.0330   38.3220 H   0  0  0  0  0  0  0  0  0  0  0  0
   38.2690   31.1270   40.2600 H   0  0  0  0  0  0  0  0  0  0  0  0
   36.8170   32.1320   39.8060 H   0  0  0  0  0  0  0  0  0  0  0  0
   35.3620   30.9640   41.2430 H   0  0  0  0  0  0  0  0  0  0  0  0
   36.9110   30.9690   42.2590 H   0  0  0  0  0  0  0  0  0  0  0  0
   35.4610   28.7000   41.6070 H   0  0  0  0  0  0  0  0  0  0  0  0
   37.6230   28.6610   42.0240 C   0  0  0  0  0  3  0  0  0  0  0  0
   37.7700   28.9720   43.4450 C   0  0  0  0  0  2  0  0  0  0  0  0
   37.4520   27.5840   43.0600 C   0  0  0  0  0  2  0  0  0  0  0  0
  1  2  2  0  0  0  0
  2 22  1  0  0  0  0
  3  9  1  0  0  0  0
  4  3  1  0  0  0  0
  4  1  1  0  0  0  0
  5  4  2  0  0  0  0
  6  7  2  0  0  0  0
  6  5  1  0  0  0  0
  7  8  1  0  0  0  0
  8  3  2  0  0  0  0
 10  5  1  0  0  0  0
 12 11  1  0  0  0  0
 13 12  1  0  0  0  0
 13  7  1  0  0  0  0
 14 13  2  0  0  0  0
 15 16  2  0  0  0  0
 15 14  1  0  0  0  0
 16 17  1  0  0  0  0
 17 21  1  0  0  0  0
 17 12  2  0  0  0  0
 18 14  1  0  0  0  0
 19 15  1  0  0  0  0
 20 16  1  0  0  0  0
 22 25  1  0  0  0  0
 22 24  1  0  0  0  0
 23 22  1  0  0  0  0
 25 29  1  0  0  0  0
 26 25  1  0  0  0  0
 26 27  1  0  0  0  0
 27 32  1  0  0  0  0
 27 28  1  0  0  0  0
 28 35  1  0  0  0  0
 29 28  1  0  0  0  0
 29 36  1  1  0  0  0
 29 37  1  0  0  0  0
 30 26  1  0  0  0  0
 31 26  1  0  0  0  0
 33 27  1  0  0  0  0
 34 28  1  0  0  0  0
 37 39  1  0  0  0  0
 37 38  1  0  0  0  0
 39 38  1  0  0  0  0
M  END
>  <minimizedAffinity>
-5.2512579

$$$$

 OpenBabel03252501523D

 39 42  0  0  1  0  0  0  0  0999 V2000
   36.9720   27.6190   40.7450 C   0  0  0  0  0  3  0  0  0  0  0  0
   36.7240   27.5370   42.0590 C   0  0  0  0  0  3  0  0  0  0  0  0
   35.7890   27.3900   38.5170 C   0  0  0  0  0  0  0  0  0  0  0  0
   35.9410   28.0290   39.7800 C   0  0  0  0  0  0  0  0  0  0  0  0
   35.0720   29.0660   40.1160 C   0  0  0  0  0  0  0  0  0  0  0  0
   34.1070   29.4320   39.2200 N   0  0  0  0  0  0  0  0  0  0  0  0
   33.9950   28.8020   38.0360 C   0  0  0  0  0  0  0  0  0  0  0  0
   34.8340   27.8090   37.7230 N   0  0  0  0  0  0  0  0  0  0  0  0
   36.4770   26.5910   38.2850 H   0  0  0  0  0  0  0  0  0  0  0  0
   35.1500   29.5830   41.0680 H   0  0  0  0  0  0  0  0  0  0  0  0
   31.5380   29.7200   38.9540 F   0  0  0  0  0  0  0  0  0  0  0  0
   31.7300   29.6720   37.6020 C   0  0  0  0  0  0  0  0  0  0  0  0
   32.9570   29.2110   37.1080 C   0  0  0  0  0  0  0  0  0  0  0  0
   33.2160   29.1340   35.7600 C   0  0  0  0  0  0  0  0  0  0  0  0
   32.2090   29.5320   34.8890 C   0  0  0  0  0  0  0  0  0  0  0  0
   30.9600   30.0020   35.3650 C   0  0  0  0  0  0  0  0  0  0  0  0
   30.7310   30.0660   36.7360 C   0  0  0  0  0  0  0  0  0  0  0  0
   34.1630   28.7790   35.3780 H   0  0  0  0  0  0  0  0  0  0  0  0
   32.4450   29.4580   33.8340 H   0  0  0  0  0  0  0  0  0  0  0  0
   30.2500   30.2840   34.6230 H   0  0  0  0  0  0  0  0  0  0  0  0
   29.7720   30.4270   37.0850 H   0  0  0  0  0  0  0  0  0  0  0  0
   37.8230   27.1150   42.9960 C   0  0  0  0  0  0  0  0  0  0  0  0
   37.3110   26.5430   43.8000 H   0  0  0  0  0  0  0  0  0  0  0  0
   38.2820   28.0000   43.4850 H   0  0  0  0  0  0  0  0  0  0  0  0
   38.7860   26.2530   42.3770 N   0  0  0  0  0  0  0  0  0  0  0  0
   40.1030   26.4600   42.9050 C   0  0  0  0  0  0  0  0  0  0  0  0
   40.8210   25.1410   42.8700 C   0  0  0  0  0  0  0  0  0  0  0  0
   39.6790   24.1840   43.0690 C   0  0  0  0  0  0  0  0  0  0  0  0
   38.4550   24.8740   42.4810 C   0  0  2  0  0  0  0  0  0  0  0  0
   39.9840   26.7440   43.9760 H   0  0  0  0  0  0  0  0  0  0  0  0
   40.6890   27.2290   42.3780 H   0  0  0  0  0  0  0  0  0  0  0  0
   41.2820   25.0400   41.8480 H   0  0  0  0  0  0  0  0  0  0  0  0
   41.5980   25.0460   43.6430 H   0  0  0  0  0  0  0  0  0  0  0  0
   39.5000   24.1160   44.1740 H   0  0  0  0  0  0  0  0  0  0  0  0
   39.8840   23.2130   42.6020 H   0  0  0  0  0  0  0  0  0  0  0  0
   37.5520   24.6330   43.0760 H   0  0  0  0  0  0  0  0  0  0  0  0
   38.3730   24.3170   41.0570 C   0  0  0  0  0  3  0  0  0  0  0  0
   38.0730   22.9140   40.7800 C   0  0  0  0  0  2  0  0  0  0  0  0
   37.0330   23.9220   40.5010 C   0  0  0  0  0  2  0  0  0  0  0  0
  1  2  2  0  0  0  0
  2 22  1  0  0  0  0
  3  4  1  0  0  0  0
  4  5  2  0  0  0  0
  4  1  1  0  0  0  0
  5 10  1  0  0  0  0
  6  5  1  0  0  0  0
  7  6  2  0  0  0  0
  8  7  1  0  0  0  0
  8  3  2  0  0  0  0
  9  3  1  0  0  0  0
 12 11  1  0  0  0  0
 13 12  1  0  0  0  0
 13  7  1  0  0  0  0
 14 13  2  0  0  0  0
 15 16  2  0  0  0  0
 15 14  1  0  0  0  0
 16 17  1  0  0  0  0
 17 21  1  0  0  0  0
 17 12  2  0  0  0  0
 18 14  1  0  0  0  0
 19 15  1  0  0  0  0
 20 16  1  0  0  0  0
 22 24  1  0  0  0  0
 22 23  1  0  0  0  0
 25 29  1  0  0  0  0
 25 26  1  0  0  0  0
 25 22  1  0  0  0  0
 26 30  1  0  0  0  0
 27 26  1  0  0  0  0
 27 28  1  0  0  0  0
 27 33  1  0  0  0  0
 28 34  1  0  0  0  0
 29 28  1  0  0  0  0
 29 36  1  1  0  0  0
 31 26  1  0  0  0  0
 32 27  1  0  0  0  0
 35 28  1  0  0  0  0
 37 29  1  0  0  0  0
 38 37  1  0  0  0  0
 39 38  1  0  0  0  0
 39 37  1  0  0  0  0
M  END
>  <minimizedAffinity>
-5.23869658

$$$$

 OpenBabel03252501523D

 39 42  0  0  1  0  0  0  0  0999 V2000
   36.5400   29.1360   38.8390 C   0  0  0  0  0  3  0  0  0  0  0  0
   36.5810   29.1300   40.1780 C   0  0  0  0  0  3  0  0  0  0  0  0
   35.2270   29.0670   36.6750 C   0  0  0  0  0  0  0  0  0  0  0  0
   35.2710   29.0990   38.0970 C   0  0  0  0  0  0  0  0  0  0  0  0
   34.0720   29.0810   38.8060 C   0  0  0  0  0  0  0  0  0  0  0  0
   32.8960   29.0320   38.1100 N   0  0  0  0  0  0  0  0  0  0  0  0
   32.8960   29.0010   36.7650 C   0  0  0  0  0  0  0  0  0  0  0  0
   34.0520   29.0200   36.0940 N   0  0  0  0  0  0  0  0  0  0  0  0
   36.1720   29.0830   36.1530 H   0  0  0  0  0  0  0  0  0  0  0  0
   34.0550   29.1040   39.8920 H   0  0  0  0  0  0  0  0  0  0  0  0
   31.3210   31.2720   36.4680 F   0  0  0  0  0  0  0  0  0  0  0  0
   30.8620   30.1070   35.9180 C   0  0  0  0  0  0  0  0  0  0  0  0
   31.6320   28.9450   36.0540 C   0  0  0  0  0  0  0  0  0  0  0  0
   31.2290   27.7400   35.5290 C   0  0  0  0  0  0  0  0  0  0  0  0
   30.0160   27.7090   34.8510 C   0  0  0  0  0  0  0  0  0  0  0  0
   29.2200   28.8710   34.7010 C   0  0  0  0  0  0  0  0  0  0  0  0
   29.6580   30.0750   35.2460 C   0  0  0  0  0  0  0  0  0  0  0  0
   31.8230   26.8420   35.6330 H   0  0  0  0  0  0  0  0  0  0  0  0
   29.7280   26.7440   34.4510 H   0  0  0  0  0  0  0  0  0  0  0  0
   28.3080   28.7500   34.1670 H   0  0  0  0  0  0  0  0  0  0  0  0
   29.0400   30.9540   35.1230 H   0  0  0  0  0  0  0  0  0  0  0  0
   37.9120   29.1720   40.8790 C   0  0  0  0  0  0  0  0  0  0  0  0
   37.9960   30.2080   41.2740 H   0  0  0  0  0  0  0  0  0  0  0  0
   38.7420   29.0470   40.1510 H   0  0  0  0  0  0  0  0  0  0  0  0
   37.9920   28.2630   41.9840 N   0  0  0  0  0  0  0  0  0  0  0  0
   37.9670   28.9510   43.2420 C   0  0  0  0  0  0  0  0  0  0  0  0
   37.2750   28.0610   44.2350 C   0  0  0  0  0  0  0  0  0  0  0  0
   36.3080   27.3310   43.3440 C   0  0  0  0  0  0  0  0  0  0  0  0
   36.9700   27.2740   41.9740 C   0  0  2  0  0  0  0  0  0  0  0  0
   37.3290   29.8550   43.1070 H   0  0  0  0  0  0  0  0  0  0  0  0
   38.9580   29.2470   43.6190 H   0  0  0  0  0  0  0  0  0  0  0  0
   38.0550   27.3720   44.6630 H   0  0  0  0  0  0  0  0  0  0  0  0
   36.7760   28.6140   45.0440 H   0  0  0  0  0  0  0  0  0  0  0  0
   35.4080   27.9910   43.2310 H   0  0  0  0  0  0  0  0  0  0  0  0
   36.0690   26.3370   43.7410 H   0  0  0  0  0  0  0  0  0  0  0  0
   36.2110   27.3670   41.1730 H   0  0  0  0  0  0  0  0  0  0  0  0
   37.6600   25.9080   41.9590 C   0  0  0  0  0  3  0  0  0  0  0  0
   36.9260   24.6570   42.1390 C   0  0  0  0  0  2  0  0  0  0  0  0
   37.4350   24.9840   40.7940 C   0  0  0  0  0  2  0  0  0  0  0  0
  1  2  2  0  0  0  0
  2 22  1  0  0  0  0
  3  4  1  0  0  0  0
  4  5  2  0  0  0  0
  4  1  1  0  0  0  0
  5 10  1  0  0  0  0
  6  5  1  0  0  0  0
  7  6  2  0  0  0  0
  8  3  2  0  0  0  0
  8  7  1  0  0  0  0
  9  3  1  0  0  0  0
 12 13  1  0  0  0  0
 12 11  1  0  0  0  0
 13  7  1  0  0  0  0
 14 18  1  0  0  0  0
 14 13  2  0  0  0  0
 15 14  1  0  0  0  0
 16 15  2  0  0  0  0
 16 17  1  0  0  0  0
 17 12  2  0  0  0  0
 19 15  1  0  0  0  0
 20 16  1  0  0  0  0
 21 17  1  0  0  0  0
 22 23  1  0  0  0  0
 22 25  1  0  0  0  0
 24 22  1  0  0  0  0
 25 26  1  0  0  0  0
 26 31  1  0  0  0  0
 26 27  1  0  0  0  0
 27 32  1  0  0  0  0
 27 33  1  0  0  0  0
 28 35  1  0  0  0  0
 28 27  1  0  0  0  0
 29 36  1  6  0  0  0
 29 25  1  0  0  0  0
 29 28  1  0  0  0  0
 30 26  1  0  0  0  0
 34 28  1  0  0  0  0
 37 29  1  0  0  0  0
 37 38  1  0  0  0  0
 39 37  1  0  0  0  0
 39 38  1  0  0  0  0
M  END
>  <minimizedAffinity>
-5.12683821

$$$$
