
 OpenBabel03242514583D

 19 20  0  0  0  0  0  0  0  0999 V2000
   35.5220   28.9890   40.6280 S   0  0  0  0  0  0  0  0  0  0  0  0
   36.3830   30.4220   39.9770 C   0  0  0  0  0  0  0  0  0  0  0  0
   36.6370   30.3910   38.6020 C   0  0  0  0  0  0  0  0  0  0  0  0
   37.3040   31.4740   38.0380 C   0  0  0  0  0  0  0  0  0  0  0  0
   37.6780   32.5170   38.8470 N   0  0  0  0  0  0  0  0  0  0  0  0
   37.4170   32.5170   40.1760 C   0  0  0  0  0  0  0  0  0  0  0  0
   36.7760   31.4810   40.7380 N   0  0  0  0  0  0  0  0  0  0  0  0
   36.3410   29.5700   37.9760 H   0  0  0  0  0  0  0  0  0  0  0  0
   37.5240   31.4970   36.9780 H   0  0  0  0  0  0  0  0  0  0  0  0
   37.7250   33.3580   40.7930 H   0  0  0  0  0  0  0  0  0  0  0  0
   36.5900   27.7690   41.3340 C   0  0  0  0  0  0  0  0  0  0  0  0
   36.3030   26.7700   40.8900 H   0  0  0  0  0  0  0  0  0  0  0  0
   37.6260   27.9280   40.9730 H   0  0  0  0  0  0  0  0  0  0  0  0
   36.5550   27.6230   42.8040 C   0  0  0  0  0  0  0  0  0  0  0  0
   35.6260   28.0780   43.2120 H   0  0  0  0  0  0  0  0  0  0  0  0
   36.4470   26.5280   43.0400 H   0  0  0  0  0  0  0  0  0  0  0  0
   37.7090   28.1440   43.5720 C   0  0  0  0  0  3  0  0  0  0  0  0
   38.5630   29.2540   43.0230 C   0  0  0  0  0  2  0  0  0  0  0  0
   39.1160   27.8570   43.3260 C   0  0  0  0  0  2  0  0  0  0  0  0
  1 11  1  0  0  0  0
  2  1  1  0  0  0  0
  2  7  1  0  0  0  0
  3  2  2  0  0  0  0
  4  3  1  0  0  0  0
  4  5  2  0  0  0  0
  5  6  1  0  0  0  0
  6  7  2  0  0  0  0
  6 10  1  0  0  0  0
  8  3  1  0  0  0  0
  9  4  1  0  0  0  0
 11 14  1  0  0  0  0
 12 11  1  0  0  0  0
 13 11  1  0  0  0  0
 14 16  1  0  0  0  0
 14 15  1  0  0  0  0
 14 17  1  0  0  0  0
 18 19  1  0  0  0  0
 18 17  1  0  0  0  0
 19 17  1  0  0  0  0
M  END
>  <minimizedAffinity>
-3.76568031

$$$$

 OpenBabel03242514583D

 19 20  0  0  0  0  0  0  0  0999 V2000
   38.7950   28.9190   42.6890 S   0  0  0  0  0  0  0  0  0  0  0  0
   38.4350   30.4130   41.7630 C   0  0  0  0  0  0  0  0  0  0  0  0
   37.1690   30.4560   41.1690 C   0  0  0  0  0  0  0  0  0  0  0  0
   36.8310   31.5890   40.4360 C   0  0  0  0  0  0  0  0  0  0  0  0
   37.7450   32.6070   40.3300 N   0  0  0  0  0  0  0  0  0  0  0  0
   38.9630   32.5350   40.9170 C   0  0  0  0  0  0  0  0  0  0  0  0
   39.3080   31.4500   41.6270 N   0  0  0  0  0  0  0  0  0  0  0  0
   36.4600   29.6540   41.2580 H   0  0  0  0  0  0  0  0  0  0  0  0
   35.8640   31.6700   39.9580 H   0  0  0  0  0  0  0  0  0  0  0  0
   39.6680   33.3580   40.8150 H   0  0  0  0  0  0  0  0  0  0  0  0
   37.4450   28.3460   43.6790 C   0  0  0  0  0  0  0  0  0  0  0  0
   37.8680   28.0360   44.6800 H   0  0  0  0  0  0  0  0  0  0  0  0
   36.7790   29.1970   43.9270 H   0  0  0  0  0  0  0  0  0  0  0  0
   36.6720   27.2010   43.1530 C   0  0  0  0  0  0  0  0  0  0  0  0
   36.1050   26.7130   43.9750 H   0  0  0  0  0  0  0  0  0  0  0  0
   35.8720   27.6080   42.4750 H   0  0  0  0  0  0  0  0  0  0  0  0
   37.4140   26.1580   42.4100 C   0  0  0  0  0  3  0  0  0  0  0  0
   37.0810   25.8460   40.9760 C   0  0  0  0  0  2  0  0  0  0  0  0
   36.9440   24.8140   42.1000 C   0  0  0  0  0  2  0  0  0  0  0  0
  1 11  1  0  0  0  0
  2  1  1  0  0  0  0
  3  8  1  0  0  0  0
  3  2  2  0  0  0  0
  4  3  1  0  0  0  0
  5  4  2  0  0  0  0
  5  6  1  0  0  0  0
  6  7  2  0  0  0  0
  7  2  1  0  0  0  0
  9  4  1  0  0  0  0
 10  6  1  0  0  0  0
 11 13  1  0  0  0  0
 11 12  1  0  0  0  0
 14 11  1  0  0  0  0
 14 15  1  0  0  0  0
 16 14  1  0  0  0  0
 17 14  1  0  0  0  0
 18 19  1  0  0  0  0
 18 17  1  0  0  0  0
 19 17  1  0  0  0  0
M  END
>  <minimizedAffinity>
-3.71227503

$$$$

 OpenBabel03242514583D

 19 20  0  0  0  0  0  0  0  0999 V2000
   35.9610   30.0380   40.6170 S   0  0  0  0  0  0  0  0  0  0  0  0
   37.2720   31.2630   40.6330 C   0  0  0  0  0  0  0  0  0  0  0  0
   36.9980   32.4380   39.9250 C   0  0  0  0  0  0  0  0  0  0  0  0
   37.9780   33.4260   39.9000 C   0  0  0  0  0  0  0  0  0  0  0  0
   39.1570   33.2080   40.5650 N   0  0  0  0  0  0  0  0  0  0  0  0
   39.3920   32.0590   41.2430 C   0  0  0  0  0  0  0  0  0  0  0  0
   38.4600   31.0940   41.2780 N   0  0  0  0  0  0  0  0  0  0  0  0
   36.0720   32.6000   39.4060 H   0  0  0  0  0  0  0  0  0  0  0  0
   37.8140   34.3530   39.3660 H   0  0  0  0  0  0  0  0  0  0  0  0
   40.3360   31.9140   41.7620 H   0  0  0  0  0  0  0  0  0  0  0  0
   36.4890   28.4290   40.1070 C   0  0  0  0  0  0  0  0  0  0  0  0
   35.5890   27.8990   39.6740 H   0  0  0  0  0  0  0  0  0  0  0  0
   37.1800   28.5200   39.2450 H   0  0  0  0  0  0  0  0  0  0  0  0
   37.0550   27.5510   41.1520 C   0  0  0  0  0  0  0  0  0  0  0  0
   36.5710   26.5510   41.1160 H   0  0  0  0  0  0  0  0  0  0  0  0
   38.1280   27.3430   40.8840 H   0  0  0  0  0  0  0  0  0  0  0  0
   37.0200   28.0390   42.5500 C   0  0  0  0  0  3  0  0  0  0  0  0
   37.9000   27.4240   43.6040 C   0  0  0  0  0  2  0  0  0  0  0  0
   36.3700   27.3880   43.6800 C   0  0  0  0  0  2  0  0  0  0  0  0
  1  2  1  0  0  0  0
  2  7  1  0  0  0  0
  3  2  2  0  0  0  0
  4  3  1  0  0  0  0
  4  5  2  0  0  0  0
  5  6  1  0  0  0  0
  6  7  2  0  0  0  0
  6 10  1  0  0  0  0
  8  3  1  0  0  0  0
  9  4  1  0  0  0  0
 11  1  1  0  0  0  0
 11 14  1  0  0  0  0
 12 11  1  0  0  0  0
 13 11  1  0  0  0  0
 14 17  1  0  0  0  0
 15 14  1  0  0  0  0
 16 14  1  0  0  0  0
 17 18  1  0  0  0  0
 17 19  1  0  0  0  0
 18 19  1  0  0  0  0
M  END
>  <minimizedAffinity>
-3.60503793

$$$$

 OpenBabel03242514583D

 19 20  0  0  0  0  0  0  0  0999 V2000
   37.8960   29.7020   39.8850 S   0  0  0  0  0  0  0  0  0  0  0  0
   38.1720   31.4690   40.0270 C   0  0  0  0  0  0  0  0  0  0  0  0
   37.1700   32.2750   39.4770 C   0  0  0  0  0  0  0  0  0  0  0  0
   37.3270   33.6550   39.5550 C   0  0  0  0  0  0  0  0  0  0  0  0
   38.4470   34.1610   40.1640 N   0  0  0  0  0  0  0  0  0  0  0  0
   39.4000   33.3540   40.6880 C   0  0  0  0  0  0  0  0  0  0  0  0
   39.2670   32.0200   40.6210 N   0  0  0  0  0  0  0  0  0  0  0  0
   36.2960   31.8700   39.0010 H   0  0  0  0  0  0  0  0  0  0  0  0
   36.5800   34.3210   39.1440 H   0  0  0  0  0  0  0  0  0  0  0  0
   40.2780   33.7840   41.1650 H   0  0  0  0  0  0  0  0  0  0  0  0
   36.8850   29.0280   41.1700 C   0  0  0  0  0  0  0  0  0  0  0  0
   35.8520   29.4730   41.0550 H   0  0  0  0  0  0  0  0  0  0  0  0
   36.7260   27.9460   40.9900 H   0  0  0  0  0  0  0  0  0  0  0  0
   37.3200   29.2780   42.5610 C   0  0  0  0  0  0  0  0  0  0  0  0
   38.2490   29.8870   42.5670 H   0  0  0  0  0  0  0  0  0  0  0  0
   36.5550   29.9440   43.0460 H   0  0  0  0  0  0  0  0  0  0  0  0
   37.5230   28.1010   43.4360 C   0  0  0  0  0  3  0  0  0  0  0  0
   38.8050   27.3140   43.3860 C   0  0  0  0  0  2  0  0  0  0  0  0
   37.4430   26.7010   43.0410 C   0  0  0  0  0  2  0  0  0  0  0  0
  1  2  1  0  0  0  0
  1 11  1  0  0  0  0
  2  7  1  0  0  0  0
  3  4  1  0  0  0  0
  3  2  2  0  0  0  0
  4  5  2  0  0  0  0
  5  6  1  0  0  0  0
  6 10  1  0  0  0  0
  7  6  2  0  0  0  0
  8  3  1  0  0  0  0
  9  4  1  0  0  0  0
 11 14  1  0  0  0  0
 12 11  1  0  0  0  0
 13 11  1  0  0  0  0
 14 15  1  0  0  0  0
 14 16  1  0  0  0  0
 14 17  1  0  0  0  0
 18 17  1  0  0  0  0
 19 18  1  0  0  0  0
 19 17  1  0  0  0  0
M  END
>  <minimizedAffinity>
-3.45304275

$$$$

 OpenBabel03242514583D

 19 20  0  0  0  0  0  0  0  0999 V2000
   39.9800   29.7430   40.9810 S   0  0  0  0  0  0  0  0  0  0  0  0
   39.0140   31.1930   40.5500 C   0  0  0  0  0  0  0  0  0  0  0  0
   37.8310   30.9340   39.8510 C   0  0  0  0  0  0  0  0  0  0  0  0
   37.0380   32.0180   39.4880 C   0  0  0  0  0  0  0  0  0  0  0  0
   37.4470   33.2820   39.8290 N   0  0  0  0  0  0  0  0  0  0  0  0
   38.5990   33.5000   40.5070 C   0  0  0  0  0  0  0  0  0  0  0  0
   39.3770   32.4670   40.8650 N   0  0  0  0  0  0  0  0  0  0  0  0
   37.5180   29.9400   39.5880 H   0  0  0  0  0  0  0  0  0  0  0  0
   36.1130   31.8700   38.9460 H   0  0  0  0  0  0  0  0  0  0  0  0
   38.8980   34.5130   40.7640 H   0  0  0  0  0  0  0  0  0  0  0  0
   39.8970   29.3090   42.6940 C   0  0  0  0  0  0  0  0  0  0  0  0
   40.9380   29.0070   43.0170 H   0  0  0  0  0  0  0  0  0  0  0  0
   39.6890   30.2160   43.2970 H   0  0  0  0  0  0  0  0  0  0  0  0
   38.9850   28.2050   43.0590 C   0  0  0  0  0  0  0  0  0  0  0  0
   39.1650   27.3270   42.4010 H   0  0  0  0  0  0  0  0  0  0  0  0
   39.2760   27.8420   44.0830 H   0  0  0  0  0  0  0  0  0  0  0  0
   37.5330   28.4920   43.0710 C   0  0  0  0  0  3  0  0  0  0  0  0
   36.5410   27.4360   43.4760 C   0  0  0  0  0  2  0  0  0  0  0  0
   36.5550   28.0650   42.0790 C   0  0  0  0  0  2  0  0  0  0  0  0
  1 11  1  0  0  0  0
  2  7  1  0  0  0  0
  2  1  1  0  0  0  0
  3  2  2  0  0  0  0
  4  5  2  0  0  0  0
  4  3  1  0  0  0  0
  5  6  1  0  0  0  0
  6 10  1  0  0  0  0
  6  7  2  0  0  0  0
  8  3  1  0  0  0  0
  9  4  1  0  0  0  0
 11 12  1  0  0  0  0
 11 14  1  0  0  0  0
 11 13  1  0  0  0  0
 14 17  1  0  0  0  0
 14 16  1  0  0  0  0
 15 14  1  0  0  0  0
 17 18  1  0  0  0  0
 19 17  1  0  0  0  0
 19 18  1  0  0  0  0
M  END
>  <minimizedAffinity>
-3.42990327

$$$$

 OpenBabel03242514583D

 19 20  0  0  0  0  0  0  0  0999 V2000
   38.3410   29.9590   40.6310 S   0  0  0  0  0  0  0  0  0  0  0  0
   39.0030   31.6250   40.5440 C   0  0  0  0  0  0  0  0  0  0  0  0
   40.3860   31.7070   40.3510 C   0  0  0  0  0  0  0  0  0  0  0  0
   40.9590   32.9730   40.2770 C   0  0  0  0  0  0  0  0  0  0  0  0
   40.1500   34.0750   40.3930 N   0  0  0  0  0  0  0  0  0  0  0  0
   38.8130   33.9620   40.5790 C   0  0  0  0  0  0  0  0  0  0  0  0
   38.2430   32.7490   40.6540 N   0  0  0  0  0  0  0  0  0  0  0  0
   41.0120   30.8390   40.2620 H   0  0  0  0  0  0  0  0  0  0  0  0
   42.0250   33.0900   40.1280 H   0  0  0  0  0  0  0  0  0  0  0  0
   38.1960   34.8530   40.6670 H   0  0  0  0  0  0  0  0  0  0  0  0
   37.3330   29.6610   42.0530 C   0  0  0  0  0  0  0  0  0  0  0  0
   36.8850   30.6520   42.3630 H   0  0  0  0  0  0  0  0  0  0  0  0
   36.4520   29.0530   41.7630 H   0  0  0  0  0  0  0  0  0  0  0  0
   38.0060   29.0920   43.2400 C   0  0  0  0  0  0  0  0  0  0  0  0
   39.1050   29.2320   43.1600 H   0  0  0  0  0  0  0  0  0  0  0  0
   37.7160   29.7140   44.1310 H   0  0  0  0  0  0  0  0  0  0  0  0
   37.7360   27.6730   43.5650 C   0  0  0  0  0  3  0  0  0  0  0  0
   38.5150   26.5680   42.9040 C   0  0  0  0  0  2  0  0  0  0  0  0
   36.9980   26.7200   42.7460 C   0  0  0  0  0  2  0  0  0  0  0  0
  1 11  1  0  0  0  0
  2  1  1  0  0  0  0
  2  7  1  0  0  0  0
  3  2  2  0  0  0  0
  4  3  1  0  0  0  0
  4  5  2  0  0  0  0
  5  6  1  0  0  0  0
  6  7  2  0  0  0  0
  6 10  1  0  0  0  0
  8  3  1  0  0  0  0
  9  4  1  0  0  0  0
 11 12  1  0  0  0  0
 11 14  1  0  0  0  0
 13 11  1  0  0  0  0
 14 17  1  0  0  0  0
 14 16  1  0  0  0  0
 15 14  1  0  0  0  0
 18 17  1  0  0  0  0
 19 18  1  0  0  0  0
 19 17  1  0  0  0  0
M  END
>  <minimizedAffinity>
-3.40045786

$$$$

 OpenBabel03242514583D

 19 20  0  0  0  0  0  0  0  0999 V2000
   36.2070   30.6350   40.8390 S   0  0  0  0  0  0  0  0  0  0  0  0
   37.0070   29.3540   41.8070 C   0  0  0  0  0  0  0  0  0  0  0  0
   38.2860   29.6720   42.2750 C   0  0  0  0  0  0  0  0  0  0  0  0
   38.9590   28.7170   43.0320 C   0  0  0  0  0  0  0  0  0  0  0  0
   38.3430   27.5180   43.2860 N   0  0  0  0  0  0  0  0  0  0  0  0
   37.1030   27.2410   42.8190 C   0  0  0  0  0  0  0  0  0  0  0  0
   36.4390   28.1480   42.0870 N   0  0  0  0  0  0  0  0  0  0  0  0
   38.7610   30.6130   42.0710 H   0  0  0  0  0  0  0  0  0  0  0  0
   39.9510   28.9150   43.4160 H   0  0  0  0  0  0  0  0  0  0  0  0
   36.6390   26.2810   43.0360 H   0  0  0  0  0  0  0  0  0  0  0  0
   36.9400   30.8970   39.2510 C   0  0  0  0  0  0  0  0  0  0  0  0
   37.7100   30.0840   39.0960 H   0  0  0  0  0  0  0  0  0  0  0  0
   36.1900   30.7020   38.4580 H   0  0  0  0  0  0  0  0  0  0  0  0
   37.6180   32.1920   39.0350 C   0  0  0  0  0  0  0  0  0  0  0  0
   37.8640   32.3210   37.9580 H   0  0  0  0  0  0  0  0  0  0  0  0
   36.8740   33.0100   39.2430 H   0  0  0  0  0  0  0  0  0  0  0  0
   38.8360   32.4690   39.8300 C   0  0  0  0  0  3  0  0  0  0  0  0
   38.8730   33.6070   40.8140 C   0  0  0  0  0  2  0  0  0  0  0  0
   39.8010   33.5350   39.5970 C   0  0  0  0  0  2  0  0  0  0  0  0
  1  2  1  0  0  0  0
  2  7  2  0  0  0  0
  2  3  1  0  0  0  0
  3  4  2  0  0  0  0
  4  5  1  0  0  0  0
  4  9  1  0  0  0  0
  6 10  1  0  0  0  0
  6  5  2  0  0  0  0
  7  6  1  0  0  0  0
  8  3  1  0  0  0  0
 11  1  1  0  0  0  0
 12 11  1  0  0  0  0
 13 11  1  0  0  0  0
 14 16  1  0  0  0  0
 14 11  1  0  0  0  0
 14 17  1  0  0  0  0
 15 14  1  0  0  0  0
 17 18  1  0  0  0  0
 19 17  1  0  0  0  0
 19 18  1  0  0  0  0
M  END
>  <minimizedAffinity>
-3.33429193

$$$$

 OpenBabel03242514583D

 19 20  0  0  0  0  0  0  0  0999 V2000
   37.4490   28.3870   43.2400 S   0  0  0  0  0  0  0  0  0  0  0  0
   38.2410   26.7900   43.0370 C   0  0  0  0  0  0  0  0  0  0  0  0
   39.4760   26.6520   43.6790 C   0  0  0  0  0  0  0  0  0  0  0  0
   40.1410   25.4360   43.5580 C   0  0  0  0  0  0  0  0  0  0  0  0
   39.5610   24.4330   42.8230 N   0  0  0  0  0  0  0  0  0  0  0  0
   38.3630   24.5980   42.2140 C   0  0  0  0  0  0  0  0  0  0  0  0
   37.7070   25.7640   42.3190 N   0  0  0  0  0  0  0  0  0  0  0  0
   39.9240   27.4430   44.2520 H   0  0  0  0  0  0  0  0  0  0  0  0
   41.1000   25.2790   44.0360 H   0  0  0  0  0  0  0  0  0  0  0  0
   37.9260   23.7850   41.6370 H   0  0  0  0  0  0  0  0  0  0  0  0
   38.0560   29.6340   42.1420 C   0  0  0  0  0  0  0  0  0  0  0  0
   37.9370   30.6300   42.6630 H   0  0  0  0  0  0  0  0  0  0  0  0
   39.1530   29.5270   42.0280 H   0  0  0  0  0  0  0  0  0  0  0  0
   37.3920   29.7430   40.8260 C   0  0  0  0  0  0  0  0  0  0  0  0
   37.4930   28.7880   40.2660 H   0  0  0  0  0  0  0  0  0  0  0  0
   36.2860   29.8380   41.0040 H   0  0  0  0  0  0  0  0  0  0  0  0
   37.8090   30.8530   39.9380 C   0  0  0  0  0  3  0  0  0  0  0  0
   37.2950   32.2500   40.1560 C   0  0  0  0  0  2  0  0  0  0  0  0
   37.0180   31.4570   38.8740 C   0  0  0  0  0  2  0  0  0  0  0  0
  2  1  1  0  0  0  0
  2  3  1  0  0  0  0
  3  8  1  0  0  0  0
  4  3  2  0  0  0  0
  4  9  1  0  0  0  0
  5  4  1  0  0  0  0
  6  7  1  0  0  0  0
  6  5  2  0  0  0  0
  7  2  2  0  0  0  0
 10  6  1  0  0  0  0
 11 12  1  0  0  0  0
 11  1  1  0  0  0  0
 13 11  1  0  0  0  0
 14 16  1  0  0  0  0
 14 11  1  0  0  0  0
 15 14  1  0  0  0  0
 17 18  1  0  0  0  0
 17 14  1  0  0  0  0
 19 17  1  0  0  0  0
 19 18  1  0  0  0  0
M  END
>  <minimizedAffinity>
-3.30237746

$$$$

 OpenBabel03242514583D

 19 20  0  0  0  0  0  0  0  0999 V2000
   39.1040   27.8340   41.6740 S   0  0  0  0  0  0  0  0  0  0  0  0
   37.9010   28.8960   40.8710 C   0  0  0  0  0  0  0  0  0  0  0  0
   37.3120   29.8590   41.6970 C   0  0  0  0  0  0  0  0  0  0  0  0
   36.3690   30.7120   41.1330 C   0  0  0  0  0  0  0  0  0  0  0  0
   36.0630   30.5760   39.8020 N   0  0  0  0  0  0  0  0  0  0  0  0
   36.6530   29.6330   39.0290 C   0  0  0  0  0  0  0  0  0  0  0  0
   37.5630   28.8000   39.5560 N   0  0  0  0  0  0  0  0  0  0  0  0
   37.5570   29.9580   42.7390 H   0  0  0  0  0  0  0  0  0  0  0  0
   35.8840   31.4740   41.7300 H   0  0  0  0  0  0  0  0  0  0  0  0
   36.3900   29.5480   37.9770 H   0  0  0  0  0  0  0  0  0  0  0  0
   38.3940   26.6610   42.7910 C   0  0  0  0  0  0  0  0  0  0  0  0
   39.0630   25.7500   42.7950 H   0  0  0  0  0  0  0  0  0  0  0  0
   38.4660   27.0450   43.8290 H   0  0  0  0  0  0  0  0  0  0  0  0
   37.0230   26.1990   42.4890 C   0  0  0  0  0  0  0  0  0  0  0  0
   36.3350   26.4740   43.3180 H   0  0  0  0  0  0  0  0  0  0  0  0
   36.6430   26.7940   41.6130 H   0  0  0  0  0  0  0  0  0  0  0  0
   36.8360   24.7630   42.1820 C   0  0  0  0  0  3  0  0  0  0  0  0
   37.9670   23.9380   41.6300 C   0  0  0  0  0  2  0  0  0  0  0  0
   36.6640   24.1740   40.8600 C   0  0  0  0  0  2  0  0  0  0  0  0
  1 11  1  0  0  0  0
  2  1  1  0  0  0  0
  2  3  1  0  0  0  0
  3  8  1  0  0  0  0
  4  3  2  0  0  0  0
  4  9  1  0  0  0  0
  5  4  1  0  0  0  0
  6  7  1  0  0  0  0
  6  5  2  0  0  0  0
  7  2  2  0  0  0  0
 10  6  1  0  0  0  0
 11 12  1  0  0  0  0
 11 13  1  0  0  0  0
 14 11  1  0  0  0  0
 14 15  1  0  0  0  0
 16 14  1  0  0  0  0
 17 14  1  0  0  0  0
 18 17  1  0  0  0  0
 19 18  1  0  0  0  0
 19 17  1  0  0  0  0
M  END
>  <minimizedAffinity>
-3.27569818

$$$$
