
 OpenBabel03252505403D

 22 24  0  0  1  0  0  0  0  0999 V2000
   46.0700   32.6250   45.4380 C   0  0  0  0  0  0  0  0  0  0  0  0
   45.8850   31.3940   44.7560 C   0  0  0  0  0  0  0  0  0  0  0  0
   45.6770   30.2500   45.5150 C   0  0  0  0  0  0  0  0  0  0  0  0
   45.6630   30.3760   46.8660 N   0  0  0  0  0  0  0  0  0  0  0  0
   45.8440   31.5710   47.4820 C   0  0  0  0  0  0  0  0  0  0  0  0
   46.0480   32.7000   46.7550 N   0  0  0  0  0  0  0  0  0  0  0  0
   45.9040   31.3340   43.6690 H   0  0  0  0  0  0  0  0  0  0  0  0
   45.5320   29.3010   45.0590 H   0  0  0  0  0  0  0  0  0  0  0  0
   46.3090   33.8540   44.6330 C   0  0  1  0  0  0  0  0  0  0  0  0
   47.5120   33.7540   43.6760 C   0  0  0  0  0  0  0  0  0  0  0  0
   46.1030   33.8670   43.1830 C   0  0  2  0  0  0  0  0  0  0  0  0
   46.3190   34.7610   45.2960 H   0  0  0  0  0  0  0  0  0  0  0  0
   48.0690   32.8120   43.6720 H   0  0  0  0  0  0  0  0  0  0  0  0
   48.1300   34.6720   43.6550 H   0  0  0  0  0  0  0  0  0  0  0  0
   45.7020   32.9210   42.7640 H   0  0  0  0  0  0  0  0  0  0  0  0
   45.6580   35.1050   42.4460 C   0  0  0  0  0  0  0  0  0  0  0  0
   44.2020   35.4190   42.2730 C   0  0  0  0  0  0  0  0  0  0  0  0
   45.1130   36.2910   43.1410 C   0  0  0  0  0  0  0  0  0  0  0  0
   45.8020   31.4810   48.9790 C   0  0  0  0  0  0  0  0  0  0  0  0
   45.7580   32.7250   49.5600 F   0  0  0  0  0  0  0  0  0  0  0  0
   46.9420   30.8200   49.4410 F   0  0  0  0  0  0  0  0  0  0  0  0
   44.7260   30.6830   49.3500 F   0  0  0  0  0  0  0  0  0  0  0  0
  1  6  1  0  0  0  0
  2  1  2  0  0  0  0
  2  3  1  0  0  0  0
  3  4  2  0  0  0  0
  4  5  1  0  0  0  0
  5 19  1  0  0  0  0
  6  5  2  0  0  0  0
  7  2  1  0  0  0  0
  8  3  1  0  0  0  0
  9 12  1  1  0  0  0
  9  1  1  0  0  0  0
 10  9  1  0  0  0  0
 11 15  1  6  0  0  0
 11 10  1  0  0  0  0
 11  9  1  0  0  0  0
 13 10  1  0  0  0  0
 14 10  1  0  0  0  0
 16 18  1  0  0  0  0
 16 11  1  0  0  0  0
 17 16  1  0  0  0  0
 17 18  1  0  0  0  0
 19 22  1  0  0  0  0
 19 21  1  0  0  0  0
 19 20  1  0  0  0  0
M  END
>  <minimizedAffinity>
-4.71307945

>  <minimizedRMSD>
2.47917032

$$$$
