
 OpenBabel03242511303D

 28 31  0  0  0  0  0  0  0  0999 V2000
   40.7840   30.2780   40.5250 Cl  0  0  0  0  0  0  0  0  0  0  0  0
   39.2900   31.1280   40.3110 C   0  0  0  0  0  0  0  0  0  0  0  0
   39.2670   32.3280   39.6240 C   0  0  0  0  0  0  0  0  0  0  0  0
   38.0940   33.0520   39.4240 C   0  0  0  0  0  0  0  0  0  0  0  0
   36.9490   32.4860   39.9590 C   0  0  0  0  0  0  0  0  0  0  0  0
   36.9690   31.3140   40.6300 C   0  0  0  0  0  0  0  0  0  0  0  0
   38.1350   30.6080   40.8220 C   0  0  0  0  0  0  0  0  0  0  0  0
   38.1540   33.9730   38.8830 H   0  0  0  0  0  0  0  0  0  0  0  0
   36.0440   33.0590   39.7970 H   0  0  0  0  0  0  0  0  0  0  0  0
   36.0100   30.9730   41.0040 H   0  0  0  0  0  0  0  0  0  0  0  0
   42.0490   33.0820   37.3110 C   0  0  0  0  0  0  0  0  0  0  0  0
   42.8750   33.8810   38.0930 C   0  0  0  0  0  0  0  0  0  0  0  0
   42.4960   34.1610   39.3870 C   0  0  0  0  0  0  0  0  0  0  0  0
   41.3270   33.6500   39.8640 N   0  0  0  0  0  0  0  0  0  0  0  0
   40.5170   32.8630   39.0850 C   0  0  0  0  0  0  0  0  0  0  0  0
   40.9030   32.6000   37.8220 N   0  0  0  0  0  0  0  0  0  0  0  0
   42.3660   32.8760   36.2990 H   0  0  0  0  0  0  0  0  0  0  0  0
   43.7890   34.2730   37.7010 H   0  0  0  0  0  0  0  0  0  0  0  0
   43.1060   34.7770   40.0330 H   0  0  0  0  0  0  0  0  0  0  0  0
   37.9810   29.3580   41.5700 C   0  0  0  0  0  0  0  0  0  0  0  0
   38.2500   29.3530   42.9290 C   0  0  0  0  0  0  0  0  0  0  0  0
   37.9160   27.5860   43.4020 S   0  0  0  0  0  0  0  0  0  0  0  0
   37.4610   27.1840   41.6070 C   0  0  0  0  0  0  0  0  0  0  0  0
   37.6100   28.1900   41.1310 N   0  0  0  0  0  0  0  0  0  0  0  0
   38.5760   30.1450   43.6010 H   0  0  0  0  0  0  0  0  0  0  0  0
   37.0450   25.8140   41.1860 C   0  0  0  0  0  3  0  0  0  0  0  0
   36.9490   24.7220   42.1790 C   0  0  0  0  0  2  0  0  0  0  0  0
   38.0400   24.7160   41.1780 C   0  0  0  0  0  2  0  0  0  0  0  0
  2  1  1  0  0  0  0
  2  7  1  0  0  0  0
  3  2  2  0  0  0  0
  4  3  1  0  0  0  0
  4  5  2  0  0  0  0
  5  6  1  0  0  0  0
  6  7  2  0  0  0  0
  6 10  1  0  0  0  0
  7 20  1  0  0  0  0
  8  4  1  0  0  0  0
  9  5  1  0  0  0  0
 11 16  2  0  0  0  0
 11 12  1  0  0  0  0
 12 13  2  0  0  0  0
 13 14  1  0  0  0  0
 13 19  1  0  0  0  0
 15  3  1  0  0  0  0
 15 14  2  0  0  0  0
 16 15  1  0  0  0  0
 17 11  1  0  0  0  0
 18 12  1  0  0  0  0
 20 21  2  0  0  0  0
 21 22  1  0  0  0  0
 21 25  1  0  0  0  0
 23 22  1  0  0  0  0
 24 20  1  0  0  0  0
 24 23  2  0  0  0  0
 26 23  1  0  0  0  0
 26 27  1  0  0  0  0
 28 26  1  0  0  0  0
 28 27  1  0  0  0  0
M  END
>  <minimizedAffinity>
-5.23993063

$$$$

 OpenBabel03242511303D

 28 31  0  0  0  0  0  0  0  0999 V2000
   40.6560   30.4960   39.3930 Cl  0  0  0  0  0  0  0  0  0  0  0  0
   39.5070   31.7760   39.6030 C   0  0  0  0  0  0  0  0  0  0  0  0
   39.9170   33.0940   39.5300 C   0  0  0  0  0  0  0  0  0  0  0  0
   39.0350   34.1610   39.6920 C   0  0  0  0  0  0  0  0  0  0  0  0
   37.7180   33.8100   39.9290 C   0  0  0  0  0  0  0  0  0  0  0  0
   37.3140   32.5230   40.0010 C   0  0  0  0  0  0  0  0  0  0  0  0
   38.1960   31.4770   39.8400 C   0  0  0  0  0  0  0  0  0  0  0  0
   39.4260   35.1550   39.6220 H   0  0  0  0  0  0  0  0  0  0  0  0
   37.0420   34.6490   40.0530 H   0  0  0  0  0  0  0  0  0  0  0  0
   36.2580   32.3740   40.1930 H   0  0  0  0  0  0  0  0  0  0  0  0
   43.5130   33.7530   40.0680 C   0  0  0  0  0  0  0  0  0  0  0  0
   43.9760   33.9410   38.7710 C   0  0  0  0  0  0  0  0  0  0  0  0
   43.0840   33.8470   37.7270 C   0  0  0  0  0  0  0  0  0  0  0  0
   41.7760   33.5720   37.9920 N   0  0  0  0  0  0  0  0  0  0  0  0
   41.3270   33.3880   39.2740 C   0  0  0  0  0  0  0  0  0  0  0  0
   42.2150   33.4830   40.2830 N   0  0  0  0  0  0  0  0  0  0  0  0
   44.2320   33.8310   40.8710 H   0  0  0  0  0  0  0  0  0  0  0  0
   45.0070   34.1560   38.5820 H   0  0  0  0  0  0  0  0  0  0  0  0
   43.3960   33.9860   36.7010 H   0  0  0  0  0  0  0  0  0  0  0  0
   37.5950   30.1450   39.9480 C   0  0  0  0  0  0  0  0  0  0  0  0
   37.2190   29.4840   38.7900 C   0  0  0  0  0  0  0  0  0  0  0  0
   36.5310   27.8850   39.4420 S   0  0  0  0  0  0  0  0  0  0  0  0
   36.8990   28.4410   41.2150 C   0  0  0  0  0  0  0  0  0  0  0  0
   37.3470   29.4510   41.0210 N   0  0  0  0  0  0  0  0  0  0  0  0
   37.2840   29.7740   37.7420 H   0  0  0  0  0  0  0  0  0  0  0  0
   36.5820   27.5810   42.3940 C   0  0  0  0  0  3  0  0  0  0  0  0
   37.2840   27.7860   43.6800 C   0  0  0  0  0  2  0  0  0  0  0  0
   37.5740   26.5860   42.8620 C   0  0  0  0  0  2  0  0  0  0  0  0
  1  2  1  0  0  0  0
  2  7  1  0  0  0  0
  3  2  2  0  0  0  0
  3  4  1  0  0  0  0
  4  5  2  0  0  0  0
  5  6  1  0  0  0  0
  5  9  1  0  0  0  0
  6 10  1  0  0  0  0
  7 20  1  0  0  0  0
  7  6  2  0  0  0  0
  8  4  1  0  0  0  0
 11 16  1  0  0  0  0
 11 17  1  0  0  0  0
 12 11  2  0  0  0  0
 13 14  2  0  0  0  0
 13 12  1  0  0  0  0
 14 15  1  0  0  0  0
 15  3  1  0  0  0  0
 15 16  2  0  0  0  0
 18 12  1  0  0  0  0
 19 13  1  0  0  0  0
 20 24  1  0  0  0  0
 21 22  1  0  0  0  0
 21 20  2  0  0  0  0
 22 23  1  0  0  0  0
 23 26  1  0  0  0  0
 24 23  2  0  0  0  0
 25 21  1  0  0  0  0
 26 28  1  0  0  0  0
 26 27  1  0  0  0  0
 28 27  1  0  0  0  0
M  END
>  <minimizedAffinity>
-5.15275812

$$$$

 OpenBabel03242511303D

 28 31  0  0  0  0  0  0  0  0999 V2000
   39.2680   27.3200   39.9580 Cl  0  0  0  0  0  0  0  0  0  0  0  0
   38.3420   27.5500   41.4040 C   0  0  0  0  0  0  0  0  0  0  0  0
   37.4840   26.5580   41.8440 C   0  0  0  0  0  0  0  0  0  0  0  0
   36.7170   26.6910   42.9980 C   0  0  0  0  0  0  0  0  0  0  0  0
   36.8730   27.8860   43.6790 C   0  0  0  0  0  0  0  0  0  0  0  0
   37.7100   28.8570   43.2530 C   0  0  0  0  0  0  0  0  0  0  0  0
   38.4630   28.7130   42.1090 C   0  0  0  0  0  0  0  0  0  0  0  0
   36.0750   25.8810   43.2760 H   0  0  0  0  0  0  0  0  0  0  0  0
   36.2710   27.9780   44.5760 H   0  0  0  0  0  0  0  0  0  0  0  0
   37.7460   29.7480   43.8680 H   0  0  0  0  0  0  0  0  0  0  0  0
   36.4350   24.1040   39.2870 C   0  0  0  0  0  0  0  0  0  0  0  0
   37.1780   22.9820   39.6330 C   0  0  0  0  0  0  0  0  0  0  0  0
   38.0240   23.0530   40.7160 C   0  0  0  0  0  0  0  0  0  0  0  0
   38.1100   24.2180   41.4190 N   0  0  0  0  0  0  0  0  0  0  0  0
   37.3730   25.3200   41.0710 C   0  0  0  0  0  0  0  0  0  0  0  0
   36.5510   25.2320   40.0080 N   0  0  0  0  0  0  0  0  0  0  0  0
   35.7780   24.0250   38.4330 H   0  0  0  0  0  0  0  0  0  0  0  0
   37.0980   22.0760   39.0690 H   0  0  0  0  0  0  0  0  0  0  0  0
   38.6230   22.2070   41.0240 H   0  0  0  0  0  0  0  0  0  0  0  0
   39.3190   29.8590   41.7880 C   0  0  0  0  0  0  0  0  0  0  0  0
   40.5560   29.9640   42.4030 C   0  0  0  0  0  0  0  0  0  0  0  0
   41.2320   31.5400   41.6840 S   0  0  0  0  0  0  0  0  0  0  0  0
   39.6550   31.7570   40.6570 C   0  0  0  0  0  0  0  0  0  0  0  0
   39.0820   30.8450   40.9720 N   0  0  0  0  0  0  0  0  0  0  0  0
   41.0570   29.3230   43.1260 H   0  0  0  0  0  0  0  0  0  0  0  0
   39.4630   32.9200   39.7420 C   0  0  0  0  0  3  0  0  0  0  0  0
   40.2600   34.1540   39.9210 C   0  0  0  0  0  2  0  0  0  0  0  0
   38.8160   34.1530   40.2490 C   0  0  0  0  0  2  0  0  0  0  0  0
  1  2  1  0  0  0  0
  2  3  2  0  0  0  0
  2  7  1  0  0  0  0
  3  4  1  0  0  0  0
  4  8  1  0  0  0  0
  4  5  2  0  0  0  0
  5  9  1  0  0  0  0
  6  5  1  0  0  0  0
  6 10  1  0  0  0  0
  7  6  2  0  0  0  0
 11 12  2  0  0  0  0
 11 16  1  0  0  0  0
 12 13  1  0  0  0  0
 13 19  1  0  0  0  0
 13 14  2  0  0  0  0
 15 14  1  0  0  0  0
 15  3  1  0  0  0  0
 16 15  2  0  0  0  0
 17 11  1  0  0  0  0
 18 12  1  0  0  0  0
 20  7  1  0  0  0  0
 20 21  2  0  0  0  0
 21 25  1  0  0  0  0
 22 21  1  0  0  0  0
 23 24  2  0  0  0  0
 23 22  1  0  0  0  0
 24 20  1  0  0  0  0
 26 27  1  0  0  0  0
 26 28  1  0  0  0  0
 26 23  1  0  0  0  0
 27 28  1  0  0  0  0
M  END
>  <minimizedAffinity>
-5.07828665

$$$$

 OpenBabel03242511303D

 28 31  0  0  0  0  0  0  0  0999 V2000
   37.9130   27.7050   39.2260 Cl  0  0  0  0  0  0  0  0  0  0  0  0
   37.7990   27.9770   40.9330 C   0  0  0  0  0  0  0  0  0  0  0  0
   37.7230   26.9040   41.8030 C   0  0  0  0  0  0  0  0  0  0  0  0
   37.6290   27.0660   43.1830 C   0  0  0  0  0  0  0  0  0  0  0  0
   37.6190   28.3770   43.6270 C   0  0  0  0  0  0  0  0  0  0  0  0
   37.6940   29.4270   42.7800 C   0  0  0  0  0  0  0  0  0  0  0  0
   37.7860   29.2540   41.4170 C   0  0  0  0  0  0  0  0  0  0  0  0
   37.5730   26.1880   43.7920 H   0  0  0  0  0  0  0  0  0  0  0  0
   37.5460   28.4890   44.7020 H   0  0  0  0  0  0  0  0  0  0  0  0
   37.6760   30.4050   43.2460 H   0  0  0  0  0  0  0  0  0  0  0  0
   38.9270   23.6140   40.6260 C   0  0  0  0  0  0  0  0  0  0  0  0
   37.7480   22.9910   40.2330 C   0  0  0  0  0  0  0  0  0  0  0  0
   36.5600   23.6750   40.3640 C   0  0  0  0  0  0  0  0  0  0  0  0
   36.5720   24.9390   40.8740 N   0  0  0  0  0  0  0  0  0  0  0  0
   37.7400   25.5460   41.2590 C   0  0  0  0  0  0  0  0  0  0  0  0
   38.8920   24.8620   41.1240 N   0  0  0  0  0  0  0  0  0  0  0  0
   39.8470   23.0580   40.5140 H   0  0  0  0  0  0  0  0  0  0  0  0
   37.7580   21.9990   39.8350 H   0  0  0  0  0  0  0  0  0  0  0  0
   35.6180   23.2330   40.0720 H   0  0  0  0  0  0  0  0  0  0  0  0
   37.8580   30.4960   40.6430 C   0  0  0  0  0  0  0  0  0  0  0  0
   36.6910   31.1990   40.3950 C   0  0  0  0  0  0  0  0  0  0  0  0
   37.2970   32.6540   39.4080 S   0  0  0  0  0  0  0  0  0  0  0  0
   39.0720   32.0040   39.5270 C   0  0  0  0  0  0  0  0  0  0  0  0
   38.9060   31.0700   40.1260 N   0  0  0  0  0  0  0  0  0  0  0  0
   35.6580   31.0030   40.6790 H   0  0  0  0  0  0  0  0  0  0  0  0
   40.2210   32.7260   38.9030 C   0  0  0  0  0  3  0  0  0  0  0  0
   41.5460   32.7340   39.5600 C   0  0  0  0  0  2  0  0  0  0  0  0
   40.7310   33.9700   39.5260 C   0  0  0  0  0  2  0  0  0  0  0  0
  1  2  1  0  0  0  0
  2  7  2  0  0  0  0
  2  3  1  0  0  0  0
  3  4  2  0  0  0  0
  4  5  1  0  0  0  0
  4  8  1  0  0  0  0
  5  9  1  0  0  0  0
  6 10  1  0  0  0  0
  6  5  2  0  0  0  0
  7  6  1  0  0  0  0
 11 16  1  0  0  0  0
 12 13  1  0  0  0  0
 12 11  2  0  0  0  0
 13 14  2  0  0  0  0
 14 15  1  0  0  0  0
 15  3  1  0  0  0  0
 16 15  2  0  0  0  0
 17 11  1  0  0  0  0
 18 12  1  0  0  0  0
 19 13  1  0  0  0  0
 20  7  1  0  0  0  0
 21 20  2  0  0  0  0
 21 25  1  0  0  0  0
 22 23  1  0  0  0  0
 22 21  1  0  0  0  0
 23 24  2  0  0  0  0
 24 20  1  0  0  0  0
 26 28  1  0  0  0  0
 26 23  1  0  0  0  0
 26 27  1  0  0  0  0
 28 27  1  0  0  0  0
M  END
>  <minimizedAffinity>
-5.05117655

$$$$

 OpenBabel03242511303D

 28 31  0  0  0  0  0  0  0  0999 V2000
   38.0760   27.9050   39.3810 Cl  0  0  0  0  0  0  0  0  0  0  0  0
   37.6210   27.7970   41.0490 C   0  0  0  0  0  0  0  0  0  0  0  0
   37.5260   28.9430   41.8170 C   0  0  0  0  0  0  0  0  0  0  0  0
   37.1660   28.9140   43.1630 C   0  0  0  0  0  0  0  0  0  0  0  0
   36.9070   27.6560   43.6790 C   0  0  0  0  0  0  0  0  0  0  0  0
   36.9980   26.5350   42.9320 C   0  0  0  0  0  0  0  0  0  0  0  0
   37.3570   26.5770   41.6030 C   0  0  0  0  0  0  0  0  0  0  0  0
   37.1130   29.8420   43.6930 H   0  0  0  0  0  0  0  0  0  0  0  0
   36.6270   27.6470   44.7260 H   0  0  0  0  0  0  0  0  0  0  0  0
   36.7740   25.6090   43.4470 H   0  0  0  0  0  0  0  0  0  0  0  0
   39.3290   31.9690   40.6980 C   0  0  0  0  0  0  0  0  0  0  0  0
   38.3340   32.6770   40.0340 C   0  0  0  0  0  0  0  0  0  0  0  0
   37.0690   32.1390   39.9660 C   0  0  0  0  0  0  0  0  0  0  0  0
   36.8270   30.9310   40.5480 N   0  0  0  0  0  0  0  0  0  0  0  0
   37.8140   30.2390   41.2010 C   0  0  0  0  0  0  0  0  0  0  0  0
   39.0460   30.7800   41.2570 N   0  0  0  0  0  0  0  0  0  0  0  0
   40.3140   32.4110   40.7380 H   0  0  0  0  0  0  0  0  0  0  0  0
   38.5430   33.6240   39.5830 H   0  0  0  0  0  0  0  0  0  0  0  0
   36.2620   32.6520   39.4620 H   0  0  0  0  0  0  0  0  0  0  0  0
   37.4090   25.2730   40.9380 C   0  0  0  0  0  0  0  0  0  0  0  0
   38.5070   24.4550   41.1540 C   0  0  0  0  0  0  0  0  0  0  0  0
   38.1080   22.9610   40.1210 S   0  0  0  0  0  0  0  0  0  0  0  0
   36.4780   23.7610   39.5810 C   0  0  0  0  0  0  0  0  0  0  0  0
   36.5370   24.7350   40.1350 N   0  0  0  0  0  0  0  0  0  0  0  0
   39.4010   24.5950   41.7590 H   0  0  0  0  0  0  0  0  0  0  0  0
   35.5310   23.0740   38.6530 C   0  0  0  0  0  3  0  0  0  0  0  0
   34.2670   23.7310   38.2530 C   0  0  0  0  0  2  0  0  0  0  0  0
   34.2380   22.5680   39.1690 C   0  0  0  0  0  2  0  0  0  0  0  0
  1  2  1  0  0  0  0
  2  7  2  0  0  0  0
  2  3  1  0  0  0  0
  3  4  2  0  0  0  0
  4  5  1  0  0  0  0
  4  8  1  0  0  0  0
  5  9  1  0  0  0  0
  6 10  1  0  0  0  0
  6  5  2  0  0  0  0
  7  6  1  0  0  0  0
 11 17  1  0  0  0  0
 11 16  1  0  0  0  0
 12 11  2  0  0  0  0
 13 12  1  0  0  0  0
 13 14  2  0  0  0  0
 14 15  1  0  0  0  0
 15 16  2  0  0  0  0
 15  3  1  0  0  0  0
 18 12  1  0  0  0  0
 19 13  1  0  0  0  0
 20 21  2  0  0  0  0
 20  7  1  0  0  0  0
 21 25  1  0  0  0  0
 22 21  1  0  0  0  0
 23 22  1  0  0  0  0
 23 24  2  0  0  0  0
 24 20  1  0  0  0  0
 26 28  1  0  0  0  0
 26 23  1  0  0  0  0
 27 26  1  0  0  0  0
 27 28  1  0  0  0  0
M  END
>  <minimizedAffinity>
-4.95023775

$$$$

 OpenBabel03242511303D

 28 31  0  0  0  0  0  0  0  0999 V2000
   40.3620   29.7420   41.2240 Cl  0  0  0  0  0  0  0  0  0  0  0  0
   39.0770   30.7940   40.7320 C   0  0  0  0  0  0  0  0  0  0  0  0
   37.7610   30.4430   40.9770 C   0  0  0  0  0  0  0  0  0  0  0  0
   36.6900   31.2510   40.6020 C   0  0  0  0  0  0  0  0  0  0  0  0
   37.0330   32.4330   39.9680 C   0  0  0  0  0  0  0  0  0  0  0  0
   38.3170   32.7780   39.7270 C   0  0  0  0  0  0  0  0  0  0  0  0
   39.3670   31.9700   40.1020 C   0  0  0  0  0  0  0  0  0  0  0  0
   35.7000   30.9140   40.8260 H   0  0  0  0  0  0  0  0  0  0  0  0
   36.1910   33.0530   39.6820 H   0  0  0  0  0  0  0  0  0  0  0  0
   38.4590   33.7260   39.2220 H   0  0  0  0  0  0  0  0  0  0  0  0
   36.9880   26.8770   41.5610 C   0  0  0  0  0  0  0  0  0  0  0  0
   36.9430   26.8080   42.9480 C   0  0  0  0  0  0  0  0  0  0  0  0
   37.1710   27.9530   43.6780 C   0  0  0  0  0  0  0  0  0  0  0  0
   37.4340   29.1180   43.0230 N   0  0  0  0  0  0  0  0  0  0  0  0
   37.4770   29.1780   41.6540 C   0  0  0  0  0  0  0  0  0  0  0  0
   37.2520   28.0480   40.9570 N   0  0  0  0  0  0  0  0  0  0  0  0
   36.8060   25.9660   41.0090 H   0  0  0  0  0  0  0  0  0  0  0  0
   36.7350   25.8840   43.4450 H   0  0  0  0  0  0  0  0  0  0  0  0
   37.1460   27.9490   44.7590 H   0  0  0  0  0  0  0  0  0  0  0  0
   40.6940   32.4920   39.7660 C   0  0  0  0  0  0  0  0  0  0  0  0
   41.3050   33.3800   40.6370 C   0  0  0  0  0  0  0  0  0  0  0  0
   42.9190   33.7350   39.7860 S   0  0  0  0  0  0  0  0  0  0  0  0
   42.4370   32.5740   38.3690 C   0  0  0  0  0  0  0  0  0  0  0  0
   41.4260   32.2360   38.7200 N   0  0  0  0  0  0  0  0  0  0  0  0
   40.9760   33.7980   41.5870 H   0  0  0  0  0  0  0  0  0  0  0  0
   43.3370   32.3350   37.2030 C   0  0  0  0  0  3  0  0  0  0  0  0
   43.2380   31.0810   36.4240 C   0  0  0  0  0  2  0  0  0  0  0  0
   44.4080   31.3160   37.3000 C   0  0  0  0  0  2  0  0  0  0  0  0
  2  3  1  0  0  0  0
  2  1  1  0  0  0  0
  3 15  1  0  0  0  0
  4  8  1  0  0  0  0
  4  3  2  0  0  0  0
  5  4  1  0  0  0  0
  6  5  2  0  0  0  0
  6  7  1  0  0  0  0
  7  2  2  0  0  0  0
  9  5  1  0  0  0  0
 10  6  1  0  0  0  0
 11 12  1  0  0  0  0
 12 18  1  0  0  0  0
 12 13  2  0  0  0  0
 13 19  1  0  0  0  0
 14 13  1  0  0  0  0
 15 14  2  0  0  0  0
 16 11  2  0  0  0  0
 16 15  1  0  0  0  0
 17 11  1  0  0  0  0
 20  7  1  0  0  0  0
 20 21  2  0  0  0  0
 21 25  1  0  0  0  0
 22 21  1  0  0  0  0
 23 24  2  0  0  0  0
 23 22  1  0  0  0  0
 24 20  1  0  0  0  0
 26 28  1  0  0  0  0
 26 23  1  0  0  0  0
 27 26  1  0  0  0  0
 27 28  1  0  0  0  0
M  END
>  <minimizedAffinity>
-4.94041252

$$$$

 OpenBabel03242511303D

 28 31  0  0  0  0  0  0  0  0999 V2000
   35.4600   29.7440   39.5500 Cl  0  0  0  0  0  0  0  0  0  0  0  0
   35.6870   28.0830   39.1160 C   0  0  0  0  0  0  0  0  0  0  0  0
   36.5090   27.2730   39.8780 C   0  0  0  0  0  0  0  0  0  0  0  0
   36.7270   25.9310   39.5740 C   0  0  0  0  0  0  0  0  0  0  0  0
   36.0620   25.4620   38.4540 C   0  0  0  0  0  0  0  0  0  0  0  0
   35.2580   26.2500   37.7080 C   0  0  0  0  0  0  0  0  0  0  0  0
   35.0510   27.5750   38.0190 C   0  0  0  0  0  0  0  0  0  0  0  0
   37.3770   25.3670   40.2100 H   0  0  0  0  0  0  0  0  0  0  0  0
   36.2400   24.4170   38.2280 H   0  0  0  0  0  0  0  0  0  0  0  0
   34.7930   25.7700   36.8550 H   0  0  0  0  0  0  0  0  0  0  0  0
   39.0000   28.9860   42.0050 C   0  0  0  0  0  0  0  0  0  0  0  0
   38.4210   28.9000   43.2650 C   0  0  0  0  0  0  0  0  0  0  0  0
   37.2030   28.2710   43.3950 C   0  0  0  0  0  0  0  0  0  0  0  0
   36.6000   27.7510   42.2890 N   0  0  0  0  0  0  0  0  0  0  0  0
   37.1780   27.8400   41.0490 C   0  0  0  0  0  0  0  0  0  0  0  0
   38.3700   28.4590   40.9410 N   0  0  0  0  0  0  0  0  0  0  0  0
   39.9550   29.4840   41.9270 H   0  0  0  0  0  0  0  0  0  0  0  0
   38.9080   29.3140   44.1220 H   0  0  0  0  0  0  0  0  0  0  0  0
   36.7130   28.1790   44.3550 H   0  0  0  0  0  0  0  0  0  0  0  0
   34.1520   28.2870   37.1070 C   0  0  0  0  0  0  0  0  0  0  0  0
   34.5900   28.5760   35.8250 C   0  0  0  0  0  0  0  0  0  0  0  0
   33.1290   29.4590   35.0880 S   0  0  0  0  0  0  0  0  0  0  0  0
   32.1780   29.2590   36.7140 C   0  0  0  0  0  0  0  0  0  0  0  0
   32.9420   28.7130   37.3280 N   0  0  0  0  0  0  0  0  0  0  0  0
   35.5330   28.3660   35.3220 H   0  0  0  0  0  0  0  0  0  0  0  0
   30.7890   29.7780   36.8850 C   0  0  0  0  0  3  0  0  0  0  0  0
   30.4980   31.2150   36.6950 C   0  0  0  0  0  2  0  0  0  0  0  0
   30.4630   30.6280   38.0540 C   0  0  0  0  0  2  0  0  0  0  0  0
  2  1  1  0  0  0  0
  2  3  1  0  0  0  0
  3 15  1  0  0  0  0
  4  3  2  0  0  0  0
  4  8  1  0  0  0  0
  5  4  1  0  0  0  0
  6  7  1  0  0  0  0
  6  5  2  0  0  0  0
  7  2  2  0  0  0  0
  9  5  1  0  0  0  0
 10  6  1  0  0  0  0
 11 12  1  0  0  0  0
 12 13  2  0  0  0  0
 12 18  1  0  0  0  0
 13 19  1  0  0  0  0
 14 13  1  0  0  0  0
 15 14  2  0  0  0  0
 16 15  1  0  0  0  0
 16 11  2  0  0  0  0
 17 11  1  0  0  0  0
 20 24  1  0  0  0  0
 20  7  1  0  0  0  0
 21 20  2  0  0  0  0
 22 21  1  0  0  0  0
 22 23  1  0  0  0  0
 23 26  1  0  0  0  0
 23 24  2  0  0  0  0
 25 21  1  0  0  0  0
 26 28  1  0  0  0  0
 27 26  1  0  0  0  0
 27 28  1  0  0  0  0
M  END
>  <minimizedAffinity>
-4.85678005

$$$$

 OpenBabel03242511303D

 28 31  0  0  0  0  0  0  0  0999 V2000
   40.6680   29.6480   40.4320 Cl  0  0  0  0  0  0  0  0  0  0  0  0
   39.2020   30.3510   39.8310 C   0  0  0  0  0  0  0  0  0  0  0  0
   39.2530   31.3390   38.8650 C   0  0  0  0  0  0  0  0  0  0  0  0
   38.1070   31.9380   38.3480 C   0  0  0  0  0  0  0  0  0  0  0  0
   36.9110   31.4740   38.8670 C   0  0  0  0  0  0  0  0  0  0  0  0
   36.8580   30.5080   39.8100 C   0  0  0  0  0  0  0  0  0  0  0  0
   37.9980   29.9240   40.3140 C   0  0  0  0  0  0  0  0  0  0  0  0
   38.2250   32.6970   37.6030 H   0  0  0  0  0  0  0  0  0  0  0  0
   36.0260   31.9480   38.4560 H   0  0  0  0  0  0  0  0  0  0  0  0
   35.8640   30.2300   40.1390 H   0  0  0  0  0  0  0  0  0  0  0  0
   42.3650   31.5210   36.8800 C   0  0  0  0  0  0  0  0  0  0  0  0
   43.0080   32.6200   37.4380 C   0  0  0  0  0  0  0  0  0  0  0  0
   42.3970   33.2910   38.4730 C   0  0  0  0  0  0  0  0  0  0  0  0
   41.1840   32.8620   38.9210 N   0  0  0  0  0  0  0  0  0  0  0  0
   40.5560   31.7780   38.3640 C   0  0  0  0  0  0  0  0  0  0  0  0
   41.1680   31.1340   37.3520 N   0  0  0  0  0  0  0  0  0  0  0  0
   42.8630   31.0100   36.0680 H   0  0  0  0  0  0  0  0  0  0  0  0
   43.9600   32.9420   37.0730 H   0  0  0  0  0  0  0  0  0  0  0  0
   42.8580   34.1500   38.9400 H   0  0  0  0  0  0  0  0  0  0  0  0
   37.7640   28.8950   41.3300 C   0  0  0  0  0  0  0  0  0  0  0  0
   36.4620   28.5260   41.6210 C   0  0  0  0  0  0  0  0  0  0  0  0
   36.6920   27.2290   42.9330 S   0  0  0  0  0  0  0  0  0  0  0  0
   38.5710   27.4460   42.8280 C   0  0  0  0  0  0  0  0  0  0  0  0
   38.6390   28.2400   42.0380 N   0  0  0  0  0  0  0  0  0  0  0  0
   35.5090   28.8690   41.2200 H   0  0  0  0  0  0  0  0  0  0  0  0
   39.5070   26.6520   43.6790 C   0  0  0  0  0  3  0  0  0  0  0  0
   40.9680   26.8600   43.5790 C   0  0  0  0  0  2  0  0  0  0  0  0
   40.3610   25.6140   43.0570 C   0  0  0  0  0  2  0  0  0  0  0  0
  2  7  1  0  0  0  0
  2  1  1  0  0  0  0
  3  2  2  0  0  0  0
  4  3  1  0  0  0  0
  4  5  2  0  0  0  0
  5  6  1  0  0  0  0
  6 10  1  0  0  0  0
  6  7  2  0  0  0  0
  7 20  1  0  0  0  0
  8  4  1  0  0  0  0
  9  5  1  0  0  0  0
 11 16  2  0  0  0  0
 11 12  1  0  0  0  0
 12 13  2  0  0  0  0
 13 14  1  0  0  0  0
 13 19  1  0  0  0  0
 15  3  1  0  0  0  0
 15 14  2  0  0  0  0
 16 15  1  0  0  0  0
 17 11  1  0  0  0  0
 18 12  1  0  0  0  0
 20 21  2  0  0  0  0
 20 24  1  0  0  0  0
 21 22  1  0  0  0  0
 23 22  1  0  0  0  0
 23 26  1  0  0  0  0
 24 23  2  0  0  0  0
 25 21  1  0  0  0  0
 27 26  1  0  0  0  0
 28 27  1  0  0  0  0
 28 26  1  0  0  0  0
M  END
>  <minimizedAffinity>
-4.78724575

$$$$

 OpenBabel03242511303D

 28 31  0  0  0  0  0  0  0  0999 V2000
   37.0400   31.0010   38.1020 Cl  0  0  0  0  0  0  0  0  0  0  0  0
   36.9730   30.1450   39.6070 C   0  0  0  0  0  0  0  0  0  0  0  0
   37.7720   30.5400   40.6650 C   0  0  0  0  0  0  0  0  0  0  0  0
   37.7590   29.8880   41.8960 C   0  0  0  0  0  0  0  0  0  0  0  0
   36.8880   28.8160   41.9890 C   0  0  0  0  0  0  0  0  0  0  0  0
   36.1060   28.4290   40.9580 C   0  0  0  0  0  0  0  0  0  0  0  0
   36.1290   29.0810   39.7450 C   0  0  0  0  0  0  0  0  0  0  0  0
   38.4050   30.2510   42.6670 H   0  0  0  0  0  0  0  0  0  0  0  0
   36.8860   28.3180   42.9510 H   0  0  0  0  0  0  0  0  0  0  0  0
   35.4670   27.5750   41.1500 H   0  0  0  0  0  0  0  0  0  0  0  0
   40.7880   32.5540   39.9560 C   0  0  0  0  0  0  0  0  0  0  0  0
   40.3360   33.8510   40.1710 C   0  0  0  0  0  0  0  0  0  0  0  0
   39.0270   34.0420   40.5520 C   0  0  0  0  0  0  0  0  0  0  0  0
   38.2130   32.9600   40.7060 N   0  0  0  0  0  0  0  0  0  0  0  0
   38.6680   31.6840   40.4910 C   0  0  0  0  0  0  0  0  0  0  0  0
   39.9510   31.5160   40.1190 N   0  0  0  0  0  0  0  0  0  0  0  0
   41.8200   32.4290   39.6570 H   0  0  0  0  0  0  0  0  0  0  0  0
   40.9890   34.6880   40.0450 H   0  0  0  0  0  0  0  0  0  0  0  0
   38.6290   35.0310   40.7320 H   0  0  0  0  0  0  0  0  0  0  0  0
   35.2210   28.5330   38.7350 C   0  0  0  0  0  0  0  0  0  0  0  0
   35.5060   27.2980   38.1770 C   0  0  0  0  0  0  0  0  0  0  0  0
   34.0980   27.0540   36.9880 S   0  0  0  0  0  0  0  0  0  0  0  0
   33.3720   28.7290   37.4950 C   0  0  0  0  0  0  0  0  0  0  0  0
   34.1290   29.0560   38.2560 N   0  0  0  0  0  0  0  0  0  0  0  0
   36.3260   26.6020   38.3500 H   0  0  0  0  0  0  0  0  0  0  0  0
   32.1110   29.2580   36.8940 C   0  0  0  0  0  3  0  0  0  0  0  0
   31.4380   28.5230   35.8010 C   0  0  0  0  0  2  0  0  0  0  0  0
   32.1280   29.8010   35.5160 C   0  0  0  0  0  2  0  0  0  0  0  0
  1  2  1  0  0  0  0
  2  7  2  0  0  0  0
  2  3  1  0  0  0  0
  3  4  2  0  0  0  0
  4  5  1  0  0  0  0
  4  8  1  0  0  0  0
  5  9  1  0  0  0  0
  6 10  1  0  0  0  0
  6  5  2  0  0  0  0
  7  6  1  0  0  0  0
 11 16  2  0  0  0  0
 11 12  1  0  0  0  0
 12 13  2  0  0  0  0
 13 14  1  0  0  0  0
 13 19  1  0  0  0  0
 15  3  1  0  0  0  0
 15 14  2  0  0  0  0
 16 15  1  0  0  0  0
 17 11  1  0  0  0  0
 18 12  1  0  0  0  0
 20  7  1  0  0  0  0
 21 25  1  0  0  0  0
 21 20  2  0  0  0  0
 22 23  1  0  0  0  0
 22 21  1  0  0  0  0
 23 24  2  0  0  0  0
 24 20  1  0  0  0  0
 26 23  1  0  0  0  0
 27 26  1  0  0  0  0
 28 27  1  0  0  0  0
 28 26  1  0  0  0  0
M  END
>  <minimizedAffinity>
-4.77356911

$$$$
