
 OpenBabel03242519523D

 28 30  0  0  1  0  0  0  0  0999 V2000
   38.0780   30.0750   40.7580 C   0  0  2  0  0  0  0  0  0  0  0  0
   38.2140   29.2680   39.5250 C   0  0  0  0  0  0  0  0  0  0  0  0
   36.9160   28.7180   39.0220 C   0  0  0  0  0  0  0  0  0  0  0  0
   36.1490   27.9450   40.0750 C   0  0  0  0  0  0  0  0  0  0  0  0
   36.2110   28.5670   41.4390 C   0  0  2  0  0  0  0  0  0  0  0  0
   36.6890   30.0070   41.3790 C   0  0  0  0  0  0  0  0  0  0  0  0
   38.7520   29.7370   41.5990 H   0  0  0  0  0  0  0  0  0  0  0  0
   38.6730   29.8070   38.6650 H   0  0  0  0  0  0  0  0  0  0  0  0
   38.8970   28.3830   39.6750 H   0  0  0  0  0  0  0  0  0  0  0  0
   37.2050   27.9430   38.2510 H   0  0  0  0  0  0  0  0  0  0  0  0
   36.2480   29.3980   38.5110 H   0  0  0  0  0  0  0  0  0  0  0  0
   36.4320   26.8680   40.0740 H   0  0  0  0  0  0  0  0  0  0  0  0
   35.0720   27.9360   39.7550 H   0  0  0  0  0  0  0  0  0  0  0  0
   35.1890   28.6250   41.8990 H   0  0  0  0  0  0  0  0  0  0  0  0
   36.7200   30.4250   42.3830 H   0  0  0  0  0  0  0  0  0  0  0  0
   35.9490   30.5730   40.7710 H   0  0  0  0  0  0  0  0  0  0  0  0
   38.3670   31.5050   40.5160 C   0  0  0  0  0  0  0  0  0  0  0  0
   37.3050   32.2780   39.9750 C   0  0  0  0  0  0  0  0  0  0  0  0
   37.4930   33.6380   39.7180 C   0  0  0  0  0  0  0  0  0  0  0  0
   38.7390   34.1520   40.0160 N   0  0  0  0  0  0  0  0  0  0  0  0
   39.7300   33.3910   40.5290 C   0  0  0  0  0  0  0  0  0  0  0  0
   39.5520   32.0720   40.7800 N   0  0  0  0  0  0  0  0  0  0  0  0
   36.3380   31.9410   39.7300 H   0  0  0  0  0  0  0  0  0  0  0  0
   36.7460   34.2800   39.3150 H   0  0  0  0  0  0  0  0  0  0  0  0
   40.6500   33.9240   40.7130 H   0  0  0  0  0  0  0  0  0  0  0  0
   37.0640   27.8350   42.4250 C   0  0  0  0  0  3  0  0  0  0  0  0
   36.3490   27.2600   43.6240 C   0  0  0  0  0  2  0  0  0  0  0  0
   37.0190   26.3790   42.6370 C   0  0  0  0  0  2  0  0  0  0  0  0
  1  6  1  0  0  0  0
  1  7  1  1  0  0  0
  2  9  1  0  0  0  0
  2  1  1  0  0  0  0
  3  2  1  0  0  0  0
  3  4  1  0  0  0  0
  4  5  1  0  0  0  0
  5 14  1  1  0  0  0
  5 26  1  0  0  0  0
  6  5  1  0  0  0  0
  6 15  1  0  0  0  0
  8  2  1  0  0  0  0
 10  3  1  0  0  0  0
 11  3  1  0  0  0  0
 12  4  1  0  0  0  0
 13  4  1  0  0  0  0
 16  6  1  0  0  0  0
 17  1  1  0  0  0  0
 17 22  1  0  0  0  0
 18 17  2  0  0  0  0
 19 18  1  0  0  0  0
 19 20  2  0  0  0  0
 20 21  1  0  0  0  0
 21 25  1  0  0  0  0
 21 22  2  0  0  0  0
 23 18  1  0  0  0  0
 24 19  1  0  0  0  0
 26 28  1  0  0  0  0
 26 27  1  0  0  0  0
 28 27  1  0  0  0  0
M  END
>  <minimizedAffinity>
-4.67054892

$$$$

 OpenBabel03242519523D

 28 30  0  0  1  0  0  0  0  0999 V2000
   37.9870   28.8620   41.0260 C   0  0  2  0  0  0  0  0  0  0  0  0
   36.8200   27.9570   41.1130 C   0  0  0  0  0  0  0  0  0  0  0  0
   36.2610   27.8310   42.4960 C   0  0  0  0  0  0  0  0  0  0  0  0
   37.3030   27.4480   43.5270 C   0  0  0  0  0  0  0  0  0  0  0  0
   38.6260   28.1240   43.3210 C   0  0  2  0  0  0  0  0  0  0  0  0
   38.5110   29.3130   42.3830 C   0  0  0  0  0  0  0  0  0  0  0  0
   38.8940   28.3890   40.5450 H   0  0  0  0  0  0  0  0  0  0  0  0
   35.9630   28.2380   40.4600 H   0  0  0  0  0  0  0  0  0  0  0  0
   37.0740   26.9090   40.7770 H   0  0  0  0  0  0  0  0  0  0  0  0
   35.5620   26.9430   42.4510 H   0  0  0  0  0  0  0  0  0  0  0  0
   35.6620   28.6500   42.8710 H   0  0  0  0  0  0  0  0  0  0  0  0
   37.3890   26.3420   43.6250 H   0  0  0  0  0  0  0  0  0  0  0  0
   36.9080   27.7730   44.5280 H   0  0  0  0  0  0  0  0  0  0  0  0
   39.0080   28.5580   44.2840 H   0  0  0  0  0  0  0  0  0  0  0  0
   39.4860   29.7780   42.2590 H   0  0  0  0  0  0  0  0  0  0  0  0
   37.8170   30.0410   42.8590 H   0  0  0  0  0  0  0  0  0  0  0  0
   37.6770   30.0880   40.2590 C   0  0  0  0  0  0  0  0  0  0  0  0
   37.5300   29.9290   38.8550 C   0  0  0  0  0  0  0  0  0  0  0  0
   37.2350   31.0370   38.0560 C   0  0  0  0  0  0  0  0  0  0  0  0
   37.1050   32.2470   38.7080 N   0  0  0  0  0  0  0  0  0  0  0  0
   37.2520   32.3650   40.0450 C   0  0  0  0  0  0  0  0  0  0  0  0
   37.5370   31.2950   40.8250 N   0  0  0  0  0  0  0  0  0  0  0  0
   37.6170   29.0360   38.3060 H   0  0  0  0  0  0  0  0  0  0  0  0
   37.1100   30.9970   37.0000 H   0  0  0  0  0  0  0  0  0  0  0  0
   37.1220   33.3700   40.4190 H   0  0  0  0  0  0  0  0  0  0  0  0
   39.7150   27.2340   42.8120 C   0  0  0  0  0  3  0  0  0  0  0  0
   40.9460   27.1290   43.6790 C   0  0  0  0  0  2  0  0  0  0  0  0
   40.0850   25.9480   43.4250 C   0  0  0  0  0  2  0  0  0  0  0  0
  1  7  1  6  0  0  0
  1  2  1  0  0  0  0
  1  6  1  0  0  0  0
  2  3  1  0  0  0  0
  3 11  1  0  0  0  0
  3  4  1  0  0  0  0
  4 12  1  0  0  0  0
  4 13  1  0  0  0  0
  5  4  1  0  0  0  0
  5 14  1  1  0  0  0
  6 16  1  0  0  0  0
  6  5  1  0  0  0  0
  8  2  1  0  0  0  0
  9  2  1  0  0  0  0
 10  3  1  0  0  0  0
 15  6  1  0  0  0  0
 17 22  1  0  0  0  0
 17  1  1  0  0  0  0
 18 17  2  0  0  0  0
 19 20  2  0  0  0  0
 19 18  1  0  0  0  0
 20 21  1  0  0  0  0
 21 25  1  0  0  0  0
 21 22  2  0  0  0  0
 23 18  1  0  0  0  0
 24 19  1  0  0  0  0
 26  5  1  0  0  0  0
 26 28  1  0  0  0  0
 26 27  1  0  0  0  0
 28 27  1  0  0  0  0
M  END
>  <minimizedAffinity>
-4.48917246

$$$$

 OpenBabel03242519523D

 28 30  0  0  1  0  0  0  0  0999 V2000
   37.0580   28.2630   41.1300 C   0  0  2  0  0  0  0  0  0  0  0  0
   36.8820   28.3810   42.5940 C   0  0  0  0  0  0  0  0  0  0  0  0
   38.1010   28.0020   43.3770 C   0  0  0  0  0  0  0  0  0  0  0  0
   38.6350   26.6300   43.0190 C   0  0  0  0  0  0  0  0  0  0  0  0
   38.5730   26.3270   41.5510 C   0  0  2  0  0  0  0  0  0  0  0  0
   38.3600   27.5840   40.7260 C   0  0  0  0  0  0  0  0  0  0  0  0
   36.2700   27.6270   40.6270 H   0  0  0  0  0  0  0  0  0  0  0  0
   36.5930   29.3970   42.9480 H   0  0  0  0  0  0  0  0  0  0  0  0
   36.0450   27.7240   42.9720 H   0  0  0  0  0  0  0  0  0  0  0  0
   37.7440   27.9010   44.4450 H   0  0  0  0  0  0  0  0  0  0  0  0
   38.9150   28.7120   43.4100 H   0  0  0  0  0  0  0  0  0  0  0  0
   38.1700   25.8370   43.6470 H   0  0  0  0  0  0  0  0  0  0  0  0
   39.7160   26.6110   43.3240 H   0  0  0  0  0  0  0  0  0  0  0  0
   39.5500   25.9100   41.1870 H   0  0  0  0  0  0  0  0  0  0  0  0
   38.3210   27.3270   39.6690 H   0  0  0  0  0  0  0  0  0  0  0  0
   39.2320   28.2490   40.9080 H   0  0  0  0  0  0  0  0  0  0  0  0
   37.0410   29.5840   40.4640 C   0  0  0  0  0  0  0  0  0  0  0  0
   36.8920   29.5720   39.0520 C   0  0  0  0  0  0  0  0  0  0  0  0
   36.8650   30.7760   38.3440 C   0  0  0  0  0  0  0  0  0  0  0  0
   36.9900   31.9310   39.0920 N   0  0  0  0  0  0  0  0  0  0  0  0
   37.1310   31.9080   40.4340 C   0  0  0  0  0  0  0  0  0  0  0  0
   37.1570   30.7430   41.1250 N   0  0  0  0  0  0  0  0  0  0  0  0
   36.7940   28.7270   38.4320 H   0  0  0  0  0  0  0  0  0  0  0  0
   36.7570   30.8490   37.2880 H   0  0  0  0  0  0  0  0  0  0  0  0
   37.2170   32.8840   40.8880 H   0  0  0  0  0  0  0  0  0  0  0  0
   37.5300   25.3300   41.1590 C   0  0  0  0  0  3  0  0  0  0  0  0
   37.9490   23.8810   41.1960 C   0  0  0  0  0  2  0  0  0  0  0  0
   36.8870   24.3940   42.0950 C   0  0  0  0  0  2  0  0  0  0  0  0
  1  7  1  6  0  0  0
  1  2  1  0  0  0  0
  2  8  1  0  0  0  0
  2  9  1  0  0  0  0
  2  3  1  0  0  0  0
  3 11  1  0  0  0  0
  3 10  1  0  0  0  0
  4 13  1  0  0  0  0
  4  3  1  0  0  0  0
  4 12  1  0  0  0  0
  5 14  1  6  0  0  0
  5  4  1  0  0  0  0
  6 16  1  0  0  0  0
  6  1  1  0  0  0  0
  6  5  1  0  0  0  0
 15  6  1  0  0  0  0
 17 22  1  0  0  0  0
 17  1  1  0  0  0  0
 18 17  2  0  0  0  0
 19 18  1  0  0  0  0
 19 20  2  0  0  0  0
 20 21  1  0  0  0  0
 21 25  1  0  0  0  0
 21 22  2  0  0  0  0
 23 18  1  0  0  0  0
 24 19  1  0  0  0  0
 26 27  1  0  0  0  0
 26  5  1  0  0  0  0
 26 28  1  0  0  0  0
 27 28  1  0  0  0  0
M  END
>  <minimizedAffinity>
-4.41080379

$$$$

 OpenBabel03242519523D

 28 30  0  0  1  0  0  0  0  0999 V2000
   37.1060   27.0160   41.4110 C   0  0  2  0  0  0  0  0  0  0  0  0
   36.6050   27.1670   42.7940 C   0  0  0  0  0  0  0  0  0  0  0  0
   37.4980   27.9900   43.6690 C   0  0  0  0  0  0  0  0  0  0  0  0
   38.9330   27.5040   43.6800 C   0  0  0  0  0  0  0  0  0  0  0  0
   39.4230   27.0540   42.3350 C   0  0  2  0  0  0  0  0  0  0  0  0
   38.5220   27.5430   41.2150 C   0  0  0  0  0  0  0  0  0  0  0  0
   37.1850   25.9410   41.0700 H   0  0  0  0  0  0  0  0  0  0  0  0
   35.5920   27.6230   42.8740 H   0  0  0  0  0  0  0  0  0  0  0  0
   36.4850   26.1700   43.3100 H   0  0  0  0  0  0  0  0  0  0  0  0
   37.1260   27.8090   44.7220 H   0  0  0  0  0  0  0  0  0  0  0  0
   37.4780   29.0630   43.5370 H   0  0  0  0  0  0  0  0  0  0  0  0
   39.0980   26.7470   44.4800 H   0  0  0  0  0  0  0  0  0  0  0  0
   39.5700   28.3730   44.0000 H   0  0  0  0  0  0  0  0  0  0  0  0
   40.4280   27.4980   42.1060 H   0  0  0  0  0  0  0  0  0  0  0  0
   38.9070   27.2000   40.2580 H   0  0  0  0  0  0  0  0  0  0  0  0
   38.5420   28.6550   41.2400 H   0  0  0  0  0  0  0  0  0  0  0  0
   36.2490   27.7210   40.4330 C   0  0  0  0  0  0  0  0  0  0  0  0
   36.2760   27.2230   39.1020 C   0  0  0  0  0  0  0  0  0  0  0  0
   35.4950   27.8290   38.1160 C   0  0  0  0  0  0  0  0  0  0  0  0
   34.7280   28.9060   38.5160 N   0  0  0  0  0  0  0  0  0  0  0  0
   34.7250   29.3550   39.7890 C   0  0  0  0  0  0  0  0  0  0  0  0
   35.4800   28.7700   40.7500 N   0  0  0  0  0  0  0  0  0  0  0  0
   36.8390   26.4100   38.7420 H   0  0  0  0  0  0  0  0  0  0  0  0
   35.4620   27.5150   37.1000 H   0  0  0  0  0  0  0  0  0  0  0  0
   34.0780   30.2030   39.9590 H   0  0  0  0  0  0  0  0  0  0  0  0
   39.5850   25.5740   42.1880 C   0  0  0  0  0  3  0  0  0  0  0  0
   40.9840   25.0390   42.3710 C   0  0  0  0  0  2  0  0  0  0  0  0
   39.8930   24.6620   43.3020 C   0  0  0  0  0  2  0  0  0  0  0  0
  1  7  1  6  0  0  0
  1  2  1  0  0  0  0
  2  8  1  0  0  0  0
  2  9  1  0  0  0  0
  2  3  1  0  0  0  0
  3  4  1  0  0  0  0
  3 10  1  0  0  0  0
  4 13  1  0  0  0  0
  4 12  1  0  0  0  0
  5 14  1  6  0  0  0
  5  4  1  0  0  0  0
  6 16  1  0  0  0  0
  6  1  1  0  0  0  0
  6  5  1  0  0  0  0
 11  3  1  0  0  0  0
 15  6  1  0  0  0  0
 17 22  1  0  0  0  0
 17  1  1  0  0  0  0
 18 17  2  0  0  0  0
 19 20  2  0  0  0  0
 19 18  1  0  0  0  0
 20 21  1  0  0  0  0
 21 25  1  0  0  0  0
 21 22  2  0  0  0  0
 23 18  1  0  0  0  0
 24 19  1  0  0  0  0
 26  5  1  0  0  0  0
 26 27  1  0  0  0  0
 26 28  1  0  0  0  0
 27 28  1  0  0  0  0
M  END
>  <minimizedAffinity>
-4.39445305

$$$$

 OpenBabel03242519523D

 28 30  0  0  1  0  0  0  0  0999 V2000
   37.8060   28.0470   40.9220 C   0  0  2  0  0  0  0  0  0  0  0  0
   38.3990   29.3900   40.7480 C   0  0  0  0  0  0  0  0  0  0  0  0
   37.5380   30.4990   41.2710 C   0  0  0  0  0  0  0  0  0  0  0  0
   36.1280   30.4690   40.7170 C   0  0  0  0  0  0  0  0  0  0  0  0
   35.5620   29.0850   40.5930 C   0  0  2  0  0  0  0  0  0  0  0  0
   36.3600   28.0760   41.4000 C   0  0  0  0  0  0  0  0  0  0  0  0
   37.7470   27.4480   39.9650 H   0  0  0  0  0  0  0  0  0  0  0  0
   39.3960   29.5240   41.2260 H   0  0  0  0  0  0  0  0  0  0  0  0
   38.5950   29.6270   39.6620 H   0  0  0  0  0  0  0  0  0  0  0  0
   37.9910   31.4460   40.8520 H   0  0  0  0  0  0  0  0  0  0  0  0
   37.5050   30.6440   42.3420 H   0  0  0  0  0  0  0  0  0  0  0  0
   36.0510   31.0570   39.7750 H   0  0  0  0  0  0  0  0  0  0  0  0
   35.4810   31.0380   41.4390 H   0  0  0  0  0  0  0  0  0  0  0  0
   34.5260   29.0370   41.0230 H   0  0  0  0  0  0  0  0  0  0  0  0
   35.9210   27.0880   41.2880 H   0  0  0  0  0  0  0  0  0  0  0  0
   36.2970   28.3850   42.4670 H   0  0  0  0  0  0  0  0  0  0  0  0
   38.5610   27.2320   41.8990 C   0  0  0  0  0  0  0  0  0  0  0  0
   38.3830   25.8260   41.8130 C   0  0  0  0  0  0  0  0  0  0  0  0
   39.0610   24.9820   42.6970 C   0  0  0  0  0  0  0  0  0  0  0  0
   39.8820   25.5960   43.6220 N   0  0  0  0  0  0  0  0  0  0  0  0
   40.0300   26.9370   43.6780 C   0  0  0  0  0  0  0  0  0  0  0  0
   39.3750   27.7590   42.8240 N   0  0  0  0  0  0  0  0  0  0  0  0
   37.7730   25.3050   41.1320 H   0  0  0  0  0  0  0  0  0  0  0  0
   38.9790   23.9220   42.6950 H   0  0  0  0  0  0  0  0  0  0  0  0
   40.7030   27.2780   44.4510 H   0  0  0  0  0  0  0  0  0  0  0  0
   35.4490   28.5750   39.1920 C   0  0  0  0  0  3  0  0  0  0  0  0
   34.1310   28.8230   38.4990 C   0  0  0  0  0  2  0  0  0  0  0  0
   35.3850   29.4380   38.0010 C   0  0  0  0  0  2  0  0  0  0  0  0
  1  7  1  6  0  0  0
  1  6  1  0  0  0  0
  1 17  1  0  0  0  0
  2  1  1  0  0  0  0
  2  8  1  0  0  0  0
  2  3  1  0  0  0  0
  3 11  1  0  0  0  0
  4  3  1  0  0  0  0
  4 13  1  0  0  0  0
  5  4  1  0  0  0  0
  5 14  1  1  0  0  0
  5  6  1  0  0  0  0
  6 16  1  0  0  0  0
  9  2  1  0  0  0  0
 10  3  1  0  0  0  0
 12  4  1  0  0  0  0
 15  6  1  0  0  0  0
 17 22  1  0  0  0  0
 18 17  2  0  0  0  0
 18 19  1  0  0  0  0
 19 20  2  0  0  0  0
 20 21  1  0  0  0  0
 21 25  1  0  0  0  0
 22 21  2  0  0  0  0
 23 18  1  0  0  0  0
 24 19  1  0  0  0  0
 26  5  1  0  0  0  0
 27 26  1  0  0  0  0
 28 27  1  0  0  0  0
 28 26  1  0  0  0  0
M  END
>  <minimizedAffinity>
-4.38658953

$$$$

 OpenBabel03242519523D

 28 30  0  0  1  0  0  0  0  0999 V2000
   37.5420   30.2740   41.4010 C   0  0  2  0  0  0  0  0  0  0  0  0
   36.2540   30.3520   40.6770 C   0  0  0  0  0  0  0  0  0  0  0  0
   36.4030   30.3720   39.1870 C   0  0  0  0  0  0  0  0  0  0  0  0
   37.3480   31.4510   38.6990 C   0  0  0  0  0  0  0  0  0  0  0  0
   38.5580   31.6260   39.5670 C   0  0  2  0  0  0  0  0  0  0  0  0
   38.7580   30.4440   40.5000 C   0  0  0  0  0  0  0  0  0  0  0  0
   37.6790   31.0890   42.1720 H   0  0  0  0  0  0  0  0  0  0  0  0
   35.5430   29.5250   40.9030 H   0  0  0  0  0  0  0  0  0  0  0  0
   35.6730   31.2800   40.9500 H   0  0  0  0  0  0  0  0  0  0  0  0
   35.3890   30.6800   38.7940 H   0  0  0  0  0  0  0  0  0  0  0  0
   36.6330   29.4370   38.6940 H   0  0  0  0  0  0  0  0  0  0  0  0
   36.8080   32.4050   38.5060 H   0  0  0  0  0  0  0  0  0  0  0  0
   37.7040   31.1370   37.6800 H   0  0  0  0  0  0  0  0  0  0  0  0
   39.4940   31.6610   38.9480 H   0  0  0  0  0  0  0  0  0  0  0  0
   39.6430   30.6050   41.1120 H   0  0  0  0  0  0  0  0  0  0  0  0
   38.9130   29.5460   39.8620 H   0  0  0  0  0  0  0  0  0  0  0  0
   37.7050   28.9810   42.0990 C   0  0  0  0  0  0  0  0  0  0  0  0
   38.9990   28.7080   42.6170 C   0  0  0  0  0  0  0  0  0  0  0  0
   39.2400   27.5090   43.2930 C   0  0  0  0  0  0  0  0  0  0  0  0
   38.1690   26.6450   43.4120 N   0  0  0  0  0  0  0  0  0  0  0  0
   36.9510   26.9340   42.9070 C   0  0  0  0  0  0  0  0  0  0  0  0
   36.7110   28.0950   42.2510 N   0  0  0  0  0  0  0  0  0  0  0  0
   39.8490   29.3250   42.5570 H   0  0  0  0  0  0  0  0  0  0  0  0
   40.1800   27.2330   43.7080 H   0  0  0  0  0  0  0  0  0  0  0  0
   36.2080   26.1690   43.0740 H   0  0  0  0  0  0  0  0  0  0  0  0
   38.5650   32.8750   40.3910 C   0  0  0  0  0  3  0  0  0  0  0  0
   39.4770   33.9790   39.9150 C   0  0  0  0  0  2  0  0  0  0  0  0
   38.0050   34.1610   39.9470 C   0  0  0  0  0  2  0  0  0  0  0  0
  1 17  1  0  0  0  0
  1  7  1  1  0  0  0
  2  8  1  0  0  0  0
  2  9  1  0  0  0  0
  2  1  1  0  0  0  0
  3  2  1  0  0  0  0
  4  3  1  0  0  0  0
  4  5  1  0  0  0  0
  5 14  1  6  0  0  0
  5 26  1  0  0  0  0
  5  6  1  0  0  0  0
  6 15  1  0  0  0  0
  6  1  1  0  0  0  0
 10  3  1  0  0  0  0
 11  3  1  0  0  0  0
 12  4  1  0  0  0  0
 13  4  1  0  0  0  0
 16  6  1  0  0  0  0
 17 22  2  0  0  0  0
 17 18  1  0  0  0  0
 18 19  2  0  0  0  0
 19 20  1  0  0  0  0
 19 24  1  0  0  0  0
 21 25  1  0  0  0  0
 21 20  2  0  0  0  0
 22 21  1  0  0  0  0
 23 18  1  0  0  0  0
 27 28  1  0  0  0  0
 27 26  1  0  0  0  0
 28 26  1  0  0  0  0
M  END
>  <minimizedAffinity>
-4.34852839

$$$$

 OpenBabel03242519523D

 28 30  0  0  1  0  0  0  0  0999 V2000
   36.9440   31.2380   39.3360 C   0  0  2  0  0  0  0  0  0  0  0  0
   36.3290   31.0770   40.6720 C   0  0  0  0  0  0  0  0  0  0  0  0
   36.4610   29.6950   41.2310 C   0  0  0  0  0  0  0  0  0  0  0  0
   35.9590   28.6210   40.2870 C   0  0  0  0  0  0  0  0  0  0  0  0
   36.3070   28.8760   38.8500 C   0  0  2  0  0  0  0  0  0  0  0  0
   37.3960   29.9240   38.7120 C   0  0  0  0  0  0  0  0  0  0  0  0
   36.2400   31.6610   38.5590 H   0  0  0  0  0  0  0  0  0  0  0  0
   36.7270   31.7640   41.4530 H   0  0  0  0  0  0  0  0  0  0  0  0
   35.2240   31.3090   40.6570 H   0  0  0  0  0  0  0  0  0  0  0  0
   35.7470   29.6630   42.1070 H   0  0  0  0  0  0  0  0  0  0  0  0
   37.4230   29.4060   41.6310 H   0  0  0  0  0  0  0  0  0  0  0  0
   34.8760   28.4170   40.4440 H   0  0  0  0  0  0  0  0  0  0  0  0
   36.4560   27.6600   40.5910 H   0  0  0  0  0  0  0  0  0  0  0  0
   36.7360   27.9550   38.3730 H   0  0  0  0  0  0  0  0  0  0  0  0
   37.6230   30.0820   37.6600 H   0  0  0  0  0  0  0  0  0  0  0  0
   38.3000   29.5280   39.2250 H   0  0  0  0  0  0  0  0  0  0  0  0
   38.1300   32.1210   39.3780 C   0  0  0  0  0  0  0  0  0  0  0  0
   38.0250   33.2730   40.2030 C   0  0  0  0  0  0  0  0  0  0  0  0
   39.1000   34.1600   40.3010 C   0  0  0  0  0  0  0  0  0  0  0  0
   40.2240   33.8450   39.5640 N   0  0  0  0  0  0  0  0  0  0  0  0
   40.2920   32.7420   38.7880 C   0  0  0  0  0  0  0  0  0  0  0  0
   39.2530   31.8780   38.6900 N   0  0  0  0  0  0  0  0  0  0  0  0
   37.1960   33.5620   40.7840 H   0  0  0  0  0  0  0  0  0  0  0  0
   39.0970   35.0420   40.8960 H   0  0  0  0  0  0  0  0  0  0  0  0
   41.2320   32.6210   38.2690 H   0  0  0  0  0  0  0  0  0  0  0  0
   35.1550   29.2860   37.9880 C   0  0  0  0  0  3  0  0  0  0  0  0
   34.5530   28.2030   37.1260 C   0  0  0  0  0  2  0  0  0  0  0  0
   33.7660   28.8510   38.2030 C   0  0  0  0  0  2  0  0  0  0  0  0
  1  7  1  6  0  0  0
  1 17  1  0  0  0  0
  1  2  1  0  0  0  0
  2  3  1  0  0  0  0
  2  8  1  0  0  0  0
  3 11  1  0  0  0  0
  3 10  1  0  0  0  0
  4 12  1  0  0  0  0
  4 13  1  0  0  0  0
  4  3  1  0  0  0  0
  5 14  1  6  0  0  0
  5  4  1  0  0  0  0
  6  5  1  0  0  0  0
  6 16  1  0  0  0  0
  6  1  1  0  0  0  0
  9  2  1  0  0  0  0
 15  6  1  0  0  0  0
 17 18  1  0  0  0  0
 18 19  2  0  0  0  0
 18 23  1  0  0  0  0
 19 24  1  0  0  0  0
 20 19  1  0  0  0  0
 21 20  2  0  0  0  0
 22 21  1  0  0  0  0
 22 17  2  0  0  0  0
 25 21  1  0  0  0  0
 26 28  1  0  0  0  0
 26  5  1  0  0  0  0
 27 26  1  0  0  0  0
 27 28  1  0  0  0  0
M  END
>  <minimizedAffinity>
-4.32847452

$$$$

 OpenBabel03242519523D

 28 30  0  0  1  0  0  0  0  0999 V2000
   37.1760   28.0340   40.8030 C   0  0  2  0  0  0  0  0  0  0  0  0
   36.9490   26.9350   41.7660 C   0  0  0  0  0  0  0  0  0  0  0  0
   36.6950   27.4060   43.1650 C   0  0  0  0  0  0  0  0  0  0  0  0
   37.7660   28.3450   43.6800 C   0  0  0  0  0  0  0  0  0  0  0  0
   38.2570   29.3170   42.6480 C   0  0  2  0  0  0  0  0  0  0  0  0
   37.3150   29.4010   41.4600 C   0  0  0  0  0  0  0  0  0  0  0  0
   38.1360   27.9330   40.2150 H   0  0  0  0  0  0  0  0  0  0  0  0
   36.1010   26.2600   41.5110 H   0  0  0  0  0  0  0  0  0  0  0  0
   37.8330   26.2350   41.8230 H   0  0  0  0  0  0  0  0  0  0  0  0
   36.7910   26.4810   43.8080 H   0  0  0  0  0  0  0  0  0  0  0  0
   35.7170   27.8110   43.3860 H   0  0  0  0  0  0  0  0  0  0  0  0
   38.5890   27.7870   44.1790 H   0  0  0  0  0  0  0  0  0  0  0  0
   37.3050   28.9400   44.5140 H   0  0  0  0  0  0  0  0  0  0  0  0
   38.2850   30.3600   43.0620 H   0  0  0  0  0  0  0  0  0  0  0  0
   37.7010   30.1140   40.7350 H   0  0  0  0  0  0  0  0  0  0  0  0
   36.3350   29.7630   41.8420 H   0  0  0  0  0  0  0  0  0  0  0  0
   36.0740   28.1430   39.8210 C   0  0  0  0  0  0  0  0  0  0  0  0
   35.0410   29.0640   40.1380 C   0  0  0  0  0  0  0  0  0  0  0  0
   33.9630   29.2300   39.2650 C   0  0  0  0  0  0  0  0  0  0  0  0
   33.9800   28.4620   38.1170 N   0  0  0  0  0  0  0  0  0  0  0  0
   34.9780   27.5940   37.8440 C   0  0  0  0  0  0  0  0  0  0  0  0
   36.0250   27.4290   38.6880 N   0  0  0  0  0  0  0  0  0  0  0  0
   34.9760   29.6730   40.9940 H   0  0  0  0  0  0  0  0  0  0  0  0
   33.1530   29.8990   39.4330 H   0  0  0  0  0  0  0  0  0  0  0  0
   34.8610   27.0610   36.9130 H   0  0  0  0  0  0  0  0  0  0  0  0
   39.6340   29.0430   42.1320 C   0  0  0  0  0  3  0  0  0  0  0  0
   40.7120   30.0030   42.5730 C   0  0  0  0  0  2  0  0  0  0  0  0
   40.7520   28.5740   42.9660 C   0  0  0  0  0  2  0  0  0  0  0  0
  1  7  1  6  0  0  0
  1  6  1  0  0  0  0
  1  2  1  0  0  0  0
  2  9  1  0  0  0  0
  2  3  1  0  0  0  0
  3 11  1  0  0  0  0
  3  4  1  0  0  0  0
  3 10  1  0  0  0  0
  4 12  1  0  0  0  0
  4 13  1  0  0  0  0
  5 14  1  1  0  0  0
  5  4  1  0  0  0  0
  6 16  1  0  0  0  0
  6  5  1  0  0  0  0
  8  2  1  0  0  0  0
 15  6  1  0  0  0  0
 17 18  1  0  0  0  0
 17  1  1  0  0  0  0
 18 23  1  0  0  0  0
 19 24  1  0  0  0  0
 19 18  2  0  0  0  0
 20 19  1  0  0  0  0
 21 20  2  0  0  0  0
 21 22  1  0  0  0  0
 22 17  2  0  0  0  0
 25 21  1  0  0  0  0
 26 27  1  0  0  0  0
 26  5  1  0  0  0  0
 26 28  1  0  0  0  0
 27 28  1  0  0  0  0
M  END
>  <minimizedAffinity>
-4.29747629

$$$$

 OpenBabel03242519523D

 28 30  0  0  1  0  0  0  0  0999 V2000
   36.5710   31.0170   39.6710 C   0  0  2  0  0  0  0  0  0  0  0  0
   35.9660   30.4170   40.8800 C   0  0  0  0  0  0  0  0  0  0  0  0
   36.2860   28.9650   41.0540 C   0  0  0  0  0  0  0  0  0  0  0  0
   35.9550   28.1330   39.8310 C   0  0  0  0  0  0  0  0  0  0  0  0
   36.2840   28.8150   38.5360 C   0  0  2  0  0  0  0  0  0  0  0  0
   37.2150   29.9970   38.7420 C   0  0  0  0  0  0  0  0  0  0  0  0
   35.8260   31.5400   39.0010 H   0  0  0  0  0  0  0  0  0  0  0  0
   36.2510   30.9110   41.8370 H   0  0  0  0  0  0  0  0  0  0  0  0
   34.8400   30.4960   40.8700 H   0  0  0  0  0  0  0  0  0  0  0  0
   35.5710   28.6000   41.8500 H   0  0  0  0  0  0  0  0  0  0  0  0
   37.2730   28.7090   41.4120 H   0  0  0  0  0  0  0  0  0  0  0  0
   34.9100   27.7520   39.8700 H   0  0  0  0  0  0  0  0  0  0  0  0
   36.5800   27.2010   39.8920 H   0  0  0  0  0  0  0  0  0  0  0  0
   36.8470   28.1260   37.8520 H   0  0  0  0  0  0  0  0  0  0  0  0
   37.4320   30.4650   37.7840 H   0  0  0  0  0  0  0  0  0  0  0  0
   38.1590   29.5990   39.1760 H   0  0  0  0  0  0  0  0  0  0  0  0
   37.6180   32.0060   40.0110 C   0  0  0  0  0  0  0  0  0  0  0  0
   38.8410   31.4780   40.5060 C   0  0  0  0  0  0  0  0  0  0  0  0
   39.8840   32.3420   40.8500 C   0  0  0  0  0  0  0  0  0  0  0  0
   39.6440   33.6910   40.6780 N   0  0  0  0  0  0  0  0  0  0  0  0
   38.4700   34.1610   40.2060 C   0  0  0  0  0  0  0  0  0  0  0  0
   37.4560   33.3280   39.8710 N   0  0  0  0  0  0  0  0  0  0  0  0
   39.0780   30.4640   40.6570 H   0  0  0  0  0  0  0  0  0  0  0  0
   40.8260   32.0230   41.2260 H   0  0  0  0  0  0  0  0  0  0  0  0
   38.4230   35.2370   40.1230 H   0  0  0  0  0  0  0  0  0  0  0  0
   35.0980   29.2880   37.7560 C   0  0  0  0  0  3  0  0  0  0  0  0
   34.7480   28.4850   36.5270 C   0  0  0  0  0  2  0  0  0  0  0  0
   33.8180   28.5660   37.6790 C   0  0  0  0  0  2  0  0  0  0  0  0
  1  7  1  6  0  0  0
  1 17  1  0  0  0  0
  1  2  1  0  0  0  0
  2  3  1  0  0  0  0
  2  8  1  0  0  0  0
  3 11  1  0  0  0  0
  3 10  1  0  0  0  0
  4 12  1  0  0  0  0
  4 13  1  0  0  0  0
  4  3  1  0  0  0  0
  5 14  1  6  0  0  0
  5  6  1  0  0  0  0
  5  4  1  0  0  0  0
  6 16  1  0  0  0  0
  6  1  1  0  0  0  0
  9  2  1  0  0  0  0
 15  6  1  0  0  0  0
 17 18  1  0  0  0  0
 18 23  1  0  0  0  0
 18 19  2  0  0  0  0
 19 24  1  0  0  0  0
 20 19  1  0  0  0  0
 21 20  2  0  0  0  0
 22 17  2  0  0  0  0
 22 21  1  0  0  0  0
 25 21  1  0  0  0  0
 26  5  1  0  0  0  0
 27 28  1  0  0  0  0
 27 26  1  0  0  0  0
 28 26  1  0  0  0  0
M  END
>  <minimizedAffinity>
-4.26693583

$$$$
