
 OpenBabel03252504073D

 13 14  0  0  0  0  0  0  0  0999 V2000
   45.1850   34.1670   46.1330 C   0  0  0  0  0  0  0  0  0  0  0  0
   45.3460   34.4960   44.7770 C   0  0  0  0  0  0  0  0  0  0  0  0
   46.2930   33.7480   44.0390 C   0  0  0  0  0  0  0  0  0  0  0  0
   46.9800   32.7700   44.6710 N   0  0  0  0  0  0  0  0  0  0  0  0
   46.7870   32.4940   45.9740 C   0  0  0  0  0  0  0  0  0  0  0  0
   45.8980   33.1810   46.7130 N   0  0  0  0  0  0  0  0  0  0  0  0
   46.4230   33.9950   42.9960 H   0  0  0  0  0  0  0  0  0  0  0  0
   47.3780   31.6870   46.4260 H   0  0  0  0  0  0  0  0  0  0  0  0
   44.5570   35.5750   44.1690 C   0  0  0  0  0  0  0  0  0  0  0  0
   45.2060   36.5620   43.2540 C   0  0  0  0  0  0  0  0  0  0  0  0
   44.1830   35.5220   42.7600 C   0  0  0  0  0  0  0  0  0  0  0  0
   44.2730   34.8850   46.8530 O   0  0  0  0  0  0  0  0  0  0  0  0
   43.2760   34.9140   46.6330 H   0  0  0  0  0  0  0  0  0  0  0  0
  1  6  1  0  0  0  0
  1 12  1  0  0  0  0
  2  1  2  0  0  0  0
  3  4  2  0  0  0  0
  3  2  1  0  0  0  0
  4  5  1  0  0  0  0
  5  8  1  0  0  0  0
  5  6  2  0  0  0  0
  7  3  1  0  0  0  0
  9  2  1  0  0  0  0
 10  9  1  0  0  0  0
 11 10  1  0  0  0  0
 11  9  1  0  0  0  0
 13 12  1  0  0  0  0
M  END
>  <minimizedAffinity>
-4.08635998

>  <minimizedRMSD>
2.32960725

$$$$
