REMARK  Name = 
REMARK  4 active torsions:
REMARK  status: ('A' for Active; 'I' for Inactive)
REMARK    1  A    between atoms: C_1  and  C_14
REMARK    2  A    between atoms: C_5  and  C_9
REMARK    3  A    between atoms: C_15  and  C_16
REMARK    4  A    between atoms: C_16  and  C_27
REMARK                            x       y       z     vdW  Elec       q    Type
REMARK                         _______ _______ _______ _____ _____    ______ ____
ROOT
ATOM      1  C   UNL     1      45.217  36.122  43.014  0.00  0.00    +0.000 A 
ATOM      2  C   UNL     1      44.214  35.789  42.089  0.00  0.00    +0.000 A 
ATOM      3  C   UNL     1      44.476  34.696  41.229  0.00  0.00    +0.000 A 
ATOM      4  N   UNL     1      45.655  34.039  41.337  0.00  0.00    +0.000 NA
ATOM      5  C   UNL     1      46.589  34.407  42.253  0.00  0.00    +0.000 A 
ATOM      6  N   UNL     1      46.367  35.449  43.090  0.00  0.00    +0.000 NA
ATOM      7  H   UNL     1      43.319  36.358  42.071  0.00  0.00    +0.000 HD
ATOM      8  H   UNL     1      43.720  34.441  40.527  0.00  0.00    +0.000 HD
ENDROOT
BRANCH   5  11
ATOM      9 CL   UNL     1      49.051  35.922  41.371  0.00  0.00    +0.000 Cl
ATOM     10  C   UNL     1      49.011  34.270  41.906  0.00  0.00    +0.000 A 
ATOM     11  C   UNL     1      47.831  33.640  42.298  0.00  0.00    +0.000 A 
ATOM     12  C   UNL     1      47.763  32.338  42.725  0.00  0.00    +0.000 A 
ATOM     13  C   UNL     1      48.959  31.636  42.757  0.00  0.00    +0.000 A 
ATOM     14  C   UNL     1      50.183  32.165  42.390  0.00  0.00    +0.000 A 
ATOM     15  C   UNL     1      50.147  33.493  41.971  0.00  0.00    +0.000 A 
ATOM     16  H   UNL     1      46.837  31.888  43.018  0.00  0.00    +0.000 HD
ATOM     17  H   UNL     1      48.891  30.604  43.097  0.00  0.00    +0.000 HD
ATOM     18  H   UNL     1      51.084  31.599  42.425  0.00  0.00    +0.000 HD
ATOM     19  H   UNL     1      51.087  33.938  41.677  0.00  0.00    +0.000 HD
ENDBRANCH   5  11
BRANCH   1  20
ATOM     20  C   UNL     1      44.950  37.252  43.906  0.00  0.00    +0.000 C 
ATOM     21  C   UNL     1      45.504  38.409  43.644  0.00  0.00    +0.000 C 
BRANCH  21  22
ATOM     22  C   UNL     1      45.286  39.607  44.496  0.00  0.00    +0.000 C 
ATOM     23  H   UNL     1      44.607  39.309  45.320  0.00  0.00    +0.000 HD
ATOM     24  H   UNL     1      44.722  40.394  43.919  0.00  0.00    +0.000 HD
BRANCH  22  25
ATOM     25  C   UNL     1      46.570  40.139  45.080  0.00  0.00    +0.000 C 
ATOM     26  C   UNL     1      47.572  39.238  45.679  0.00  0.00    +0.000 C 
ATOM     27  C   UNL     1      47.816  39.749  44.268  0.00  0.00    +0.000 C 
ENDBRANCH  22  25
ENDBRANCH  21  22
ENDBRANCH   1  20
TORSDOF 4
