
 OpenBabel03252509173D

 19 21  0  0  0  0  0  0  0  0999 V2000
   37.4890   29.1550   41.7000 C   0  0  0  0  0  0  0  0  0  0  0  0
   37.5780   28.7930   43.0670 C   0  0  0  0  0  0  0  0  0  0  0  0
   37.3790   27.5110   43.4310 C   0  0  0  0  0  0  0  0  0  0  0  0
   37.0850   26.5640   42.4270 C   0  0  0  0  0  0  0  0  0  0  0  0
   37.0970   27.5710   40.9020 S   0  0  0  0  0  0  0  0  0  0  0  0
   37.8090   29.5450   43.8230 H   0  0  0  0  0  0  0  0  0  0  0  0
   37.4130   27.0980   44.3980 H   0  0  0  0  0  0  0  0  0  0  0  0
   37.1770   32.4920   40.0940 C   0  0  0  0  0  0  0  0  0  0  0  0
   38.4320   33.0490   40.4500 C   0  0  0  0  0  0  0  0  0  0  0  0
   39.3090   32.2560   41.2160 C   0  0  0  0  0  0  0  0  0  0  0  0
   38.8970   30.9980   41.5690 N   0  0  0  0  0  0  0  0  0  0  0  0
   37.6860   30.5180   41.2000 C   0  0  0  0  0  0  0  0  0  0  0  0
   36.8220   31.2610   40.4620 N   0  0  0  0  0  0  0  0  0  0  0  0
   36.4940   33.0900   39.5060 H   0  0  0  0  0  0  0  0  0  0  0  0
   38.7360   34.0450   40.1600 H   0  0  0  0  0  0  0  0  0  0  0  0
   40.2830   32.6000   41.5310 H   0  0  0  0  0  0  0  0  0  0  0  0
   36.8090   25.1070   42.4140 C   0  0  0  0  0  3  0  0  0  0  0  0
   36.7860   24.4010   41.0660 C   0  0  0  0  0  2  0  0  0  0  0  0
   37.9070   24.2070   42.0780 C   0  0  0  0  0  2  0  0  0  0  0  0
  1  2  2  0  0  0  0
  2  3  1  0  0  0  0
  2  6  1  0  0  0  0
  3  7  1  0  0  0  0
  4  3  2  0  0  0  0
  5  1  1  0  0  0  0
  5  4  1  0  0  0  0
  8  9  2  0  0  0  0
  8 13  1  0  0  0  0
  9 10  1  0  0  0  0
 10 16  1  0  0  0  0
 10 11  2  0  0  0  0
 12 11  1  0  0  0  0
 12  1  1  0  0  0  0
 13 12  2  0  0  0  0
 14  8  1  0  0  0  0
 15  9  1  0  0  0  0
 17  4  1  0  0  0  0
 18 19  1  0  0  0  0
 18 17  1  0  0  0  0
 19 17  1  0  0  0  0
M  END
>  <minimizedAffinity>
-4.51830101

$$$$

 OpenBabel03252509173D

 19 21  0  0  0  0  0  0  0  0999 V2000
   37.6820   28.7850   41.8340 C   0  0  0  0  0  0  0  0  0  0  0  0
   37.0300   28.4280   43.0400 C   0  0  0  0  0  0  0  0  0  0  0  0
   36.7380   27.1350   43.2830 C   0  0  0  0  0  0  0  0  0  0  0  0
   37.0960   26.1720   42.3150 C   0  0  0  0  0  0  0  0  0  0  0  0
   37.8820   27.1790   41.0090 S   0  0  0  0  0  0  0  0  0  0  0  0
   36.7660   29.1930   43.7710 H   0  0  0  0  0  0  0  0  0  0  0  0
   36.2620   26.7250   44.1250 H   0  0  0  0  0  0  0  0  0  0  0  0
   39.3620   32.0590   41.3090 C   0  0  0  0  0  0  0  0  0  0  0  0
   38.3270   32.7550   40.6340 C   0  0  0  0  0  0  0  0  0  0  0  0
   37.1200   32.0690   40.3960 C   0  0  0  0  0  0  0  0  0  0  0  0
   37.0190   30.7740   40.8320 N   0  0  0  0  0  0  0  0  0  0  0  0
   38.0420   30.1590   41.4730 C   0  0  0  0  0  0  0  0  0  0  0  0
   39.2160   30.7970   41.7140 N   0  0  0  0  0  0  0  0  0  0  0  0
   40.2940   32.5740   41.4970 H   0  0  0  0  0  0  0  0  0  0  0  0
   38.4300   33.7770   40.2980 H   0  0  0  0  0  0  0  0  0  0  0  0
   36.2810   32.5220   39.8900 H   0  0  0  0  0  0  0  0  0  0  0  0
   36.9570   24.7000   42.2070 C   0  0  0  0  0  3  0  0  0  0  0  0
   36.5150   24.1250   40.8690 C   0  0  0  0  0  2  0  0  0  0  0  0
   37.9350   23.9780   41.4000 C   0  0  0  0  0  2  0  0  0  0  0  0
  1  2  2  0  0  0  0
  2  3  1  0  0  0  0
  2  6  1  0  0  0  0
  3  7  1  0  0  0  0
  4  3  2  0  0  0  0
  5  1  1  0  0  0  0
  5  4  1  0  0  0  0
  8 14  1  0  0  0  0
  8 13  1  0  0  0  0
  9  8  2  0  0  0  0
 10  9  1  0  0  0  0
 10 11  2  0  0  0  0
 11 12  1  0  0  0  0
 12 13  2  0  0  0  0
 12  1  1  0  0  0  0
 15  9  1  0  0  0  0
 16 10  1  0  0  0  0
 17  4  1  0  0  0  0
 18 19  1  0  0  0  0
 18 17  1  0  0  0  0
 19 17  1  0  0  0  0
M  END
>  <minimizedAffinity>
-4.44180202

$$$$

 OpenBabel03252509173D

 19 21  0  0  0  0  0  0  0  0999 V2000
   37.9200   27.9070   41.8760 C   0  0  0  0  0  0  0  0  0  0  0  0
   36.5900   27.8850   41.3890 C   0  0  0  0  0  0  0  0  0  0  0  0
   36.0330   29.0190   40.9210 C   0  0  0  0  0  0  0  0  0  0  0  0
   36.8030   30.2020   40.9340 C   0  0  0  0  0  0  0  0  0  0  0  0
   38.3900   29.6460   41.6500 S   0  0  0  0  0  0  0  0  0  0  0  0
   36.0180   26.9560   41.3890 H   0  0  0  0  0  0  0  0  0  0  0  0
   35.0650   29.1540   40.5320 H   0  0  0  0  0  0  0  0  0  0  0  0
   40.1530   25.5370   43.6690 C   0  0  0  0  0  0  0  0  0  0  0  0
   39.6630   24.3090   43.1550 C   0  0  0  0  0  0  0  0  0  0  0  0
   38.6020   24.3600   42.2290 C   0  0  0  0  0  0  0  0  0  0  0  0
   38.1100   25.5910   41.8830 N   0  0  0  0  0  0  0  0  0  0  0  0
   38.6170   26.7320   42.4070 C   0  0  0  0  0  0  0  0  0  0  0  0
   39.6390   26.7110   43.3000 N   0  0  0  0  0  0  0  0  0  0  0  0
   40.9670   25.5110   44.3810 H   0  0  0  0  0  0  0  0  0  0  0  0
   40.0670   23.3490   43.4430 H   0  0  0  0  0  0  0  0  0  0  0  0
   38.1680   23.4750   41.7880 H   0  0  0  0  0  0  0  0  0  0  0  0
   36.5660   31.6060   40.5220 C   0  0  0  0  0  3  0  0  0  0  0  0
   37.7710   32.5290   40.4200 C   0  0  0  0  0  2  0  0  0  0  0  0
   37.0210   32.0170   39.1980 C   0  0  0  0  0  2  0  0  0  0  0  0
  1 12  1  0  0  0  0
  2  6  1  0  0  0  0
  2  1  2  0  0  0  0
  3  4  2  0  0  0  0
  3  2  1  0  0  0  0
  4  5  1  0  0  0  0
  5  1  1  0  0  0  0
  7  3  1  0  0  0  0
  8 14  1  0  0  0  0
  9 15  1  0  0  0  0
  9  8  2  0  0  0  0
 10  9  1  0  0  0  0
 11 10  2  0  0  0  0
 11 12  1  0  0  0  0
 12 13  2  0  0  0  0
 13  8  1  0  0  0  0
 16 10  1  0  0  0  0
 17  4  1  0  0  0  0
 18 17  1  0  0  0  0
 19 18  1  0  0  0  0
 19 17  1  0  0  0  0
M  END
>  <minimizedAffinity>
-4.1996665

$$$$

 OpenBabel03252509173D

 19 21  0  0  0  0  0  0  0  0999 V2000
   38.0750   30.6190   41.3820 C   0  0  0  0  0  0  0  0  0  0  0  0
   37.1820   31.4670   40.6810 C   0  0  0  0  0  0  0  0  0  0  0  0
   37.6270   32.6350   40.1780 C   0  0  0  0  0  0  0  0  0  0  0  0
   38.9830   32.9760   40.3710 C   0  0  0  0  0  0  0  0  0  0  0  0
   39.6320   31.5520   41.3150 S   0  0  0  0  0  0  0  0  0  0  0  0
   36.1390   31.1770   40.5460 H   0  0  0  0  0  0  0  0  0  0  0  0
   37.0860   33.3580   39.6410 H   0  0  0  0  0  0  0  0  0  0  0  0
   37.2420   27.7810   43.6330 C   0  0  0  0  0  0  0  0  0  0  0  0
   36.9340   26.7890   42.6670 C   0  0  0  0  0  0  0  0  0  0  0  0
   37.0270   27.1460   41.3070 C   0  0  0  0  0  0  0  0  0  0  0  0
   37.4100   28.4260   41.0020 N   0  0  0  0  0  0  0  0  0  0  0  0
   37.6920   29.3310   41.9680 C   0  0  0  0  0  0  0  0  0  0  0  0
   37.6100   29.0150   43.2850 N   0  0  0  0  0  0  0  0  0  0  0  0
   37.1740   27.5210   44.6810 H   0  0  0  0  0  0  0  0  0  0  0  0
   36.6340   25.7860   42.9310 H   0  0  0  0  0  0  0  0  0  0  0  0
   36.8120   26.4540   40.5060 H   0  0  0  0  0  0  0  0  0  0  0  0
   39.8340   34.1290   39.9880 C   0  0  0  0  0  3  0  0  0  0  0  0
   41.2620   34.1610   40.5110 C   0  0  0  0  0  2  0  0  0  0  0  0
   40.9260   33.8910   39.0510 C   0  0  0  0  0  2  0  0  0  0  0  0
  1 12  1  0  0  0  0
  2  1  2  0  0  0  0
  3  4  2  0  0  0  0
  3  2  1  0  0  0  0
  4  5  1  0  0  0  0
  5  1  1  0  0  0  0
  6  2  1  0  0  0  0
  7  3  1  0  0  0  0
  8 14  1  0  0  0  0
  9 15  1  0  0  0  0
  9  8  2  0  0  0  0
 10  9  1  0  0  0  0
 11 10  2  0  0  0  0
 11 12  1  0  0  0  0
 12 13  2  0  0  0  0
 13  8  1  0  0  0  0
 16 10  1  0  0  0  0
 17  4  1  0  0  0  0
 17 18  1  0  0  0  0
 19 17  1  0  0  0  0
 19 18  1  0  0  0  0
M  END
>  <minimizedAffinity>
-4.11859274

$$$$

 OpenBabel03252509173D

 19 21  0  0  0  0  0  0  0  0999 V2000
   38.8330   29.3690   41.8650 C   0  0  0  0  0  0  0  0  0  0  0  0
   37.9020   28.9010   42.8250 C   0  0  0  0  0  0  0  0  0  0  0  0
   38.1470   27.7520   43.4850 C   0  0  0  0  0  0  0  0  0  0  0  0
   39.3340   27.0470   43.1910 C   0  0  0  0  0  0  0  0  0  0  0  0
   40.1210   28.0900   41.9140 S   0  0  0  0  0  0  0  0  0  0  0  0
   36.9930   29.4660   43.0330 H   0  0  0  0  0  0  0  0  0  0  0  0
   37.5530   27.2850   44.2170 H   0  0  0  0  0  0  0  0  0  0  0  0
   39.2870   32.4760   39.8760 C   0  0  0  0  0  0  0  0  0  0  0  0
   37.9300   32.8560   39.7110 C   0  0  0  0  0  0  0  0  0  0  0  0
   36.9420   32.0320   40.2850 C   0  0  0  0  0  0  0  0  0  0  0  0
   37.3520   30.9170   40.9680 N   0  0  0  0  0  0  0  0  0  0  0  0
   38.6630   30.6040   41.0930 C   0  0  0  0  0  0  0  0  0  0  0  0
   39.6350   31.3800   40.5500 N   0  0  0  0  0  0  0  0  0  0  0  0
   40.0550   33.1000   39.4390 H   0  0  0  0  0  0  0  0  0  0  0  0
   37.6310   33.7410   39.1670 H   0  0  0  0  0  0  0  0  0  0  0  0
   35.8870   32.2470   40.2080 H   0  0  0  0  0  0  0  0  0  0  0  0
   39.9490   25.7900   43.6800 C   0  0  0  0  0  3  0  0  0  0  0  0
   39.6170   24.5030   42.9390 C   0  0  0  0  0  2  0  0  0  0  0  0
   40.9830   25.1700   42.8580 C   0  0  0  0  0  2  0  0  0  0  0  0
  1  5  1  0  0  0  0
  1  2  2  0  0  0  0
  2  6  1  0  0  0  0
  2  3  1  0  0  0  0
  3  7  1  0  0  0  0
  4  3  2  0  0  0  0
  4 17  1  0  0  0  0
  5  4  1  0  0  0  0
  8 13  1  0  0  0  0
  9  8  2  0  0  0  0
  9 10  1  0  0  0  0
 10 11  2  0  0  0  0
 11 12  1  0  0  0  0
 12  1  1  0  0  0  0
 13 12  2  0  0  0  0
 14  8  1  0  0  0  0
 15  9  1  0  0  0  0
 16 10  1  0  0  0  0
 18 17  1  0  0  0  0
 19 18  1  0  0  0  0
 19 17  1  0  0  0  0
M  END
>  <minimizedAffinity>
-4.07990694

$$$$

 OpenBabel03252509173D

 19 21  0  0  0  0  0  0  0  0999 V2000
   39.7350   30.6450   41.8080 C   0  0  0  0  0  0  0  0  0  0  0  0
   40.6700   29.7010   42.3010 C   0  0  0  0  0  0  0  0  0  0  0  0
   40.2300   28.5640   42.8750 C   0  0  0  0  0  0  0  0  0  0  0  0
   38.8380   28.3520   42.9670 C   0  0  0  0  0  0  0  0  0  0  0  0
   38.1450   29.8560   42.1930 S   0  0  0  0  0  0  0  0  0  0  0  0
   41.7410   29.8900   42.2160 H   0  0  0  0  0  0  0  0  0  0  0  0
   40.8010   27.7810   43.2820 H   0  0  0  0  0  0  0  0  0  0  0  0
   39.8010   33.9470   40.1020 C   0  0  0  0  0  0  0  0  0  0  0  0
   41.2020   34.1610   40.0480 C   0  0  0  0  0  0  0  0  0  0  0  0
   42.0410   33.1700   40.5960 C   0  0  0  0  0  0  0  0  0  0  0  0
   41.4520   32.0620   41.1450 N   0  0  0  0  0  0  0  0  0  0  0  0
   40.1070   31.9100   41.1690 C   0  0  0  0  0  0  0  0  0  0  0  0
   39.2760   32.8490   40.6490 N   0  0  0  0  0  0  0  0  0  0  0  0
   39.1460   34.7000   39.6850 H   0  0  0  0  0  0  0  0  0  0  0  0
   41.6440   35.0440   39.6090 H   0  0  0  0  0  0  0  0  0  0  0  0
   43.1170   33.2520   40.5970 H   0  0  0  0  0  0  0  0  0  0  0  0
   37.9810   27.2710   43.5080 C   0  0  0  0  0  3  0  0  0  0  0  0
   36.4750   27.4070   43.3390 C   0  0  0  0  0  2  0  0  0  0  0  0
   37.3020   26.3950   42.5580 C   0  0  0  0  0  2  0  0  0  0  0  0
  1  5  1  0  0  0  0
  1  2  2  0  0  0  0
  2  3  1  0  0  0  0
  3  4  2  0  0  0  0
  3  7  1  0  0  0  0
  4 17  1  0  0  0  0
  5  4  1  0  0  0  0
  6  2  1  0  0  0  0
  8 13  1  0  0  0  0
  9  8  2  0  0  0  0
  9 10  1  0  0  0  0
 10 16  1  0  0  0  0
 10 11  2  0  0  0  0
 11 12  1  0  0  0  0
 12  1  1  0  0  0  0
 13 12  2  0  0  0  0
 14  8  1  0  0  0  0
 15  9  1  0  0  0  0
 18 17  1  0  0  0  0
 19 18  1  0  0  0  0
 19 17  1  0  0  0  0
M  END
>  <minimizedAffinity>
-4.04144239

$$$$

 OpenBabel03252509173D

 19 21  0  0  0  0  0  0  0  0999 V2000
   36.8270   28.3780   40.1800 C   0  0  0  0  0  0  0  0  0  0  0  0
   35.9960   29.3450   40.7990 C   0  0  0  0  0  0  0  0  0  0  0  0
   36.1150   30.6430   40.4570 C   0  0  0  0  0  0  0  0  0  0  0  0
   37.0750   30.9970   39.4850 C   0  0  0  0  0  0  0  0  0  0  0  0
   37.8300   29.3890   39.0530 S   0  0  0  0  0  0  0  0  0  0  0  0
   35.2610   29.0440   41.5460 H   0  0  0  0  0  0  0  0  0  0  0  0
   35.5730   31.4640   40.8270 H   0  0  0  0  0  0  0  0  0  0  0  0
   36.4870   24.6780   40.0840 C   0  0  0  0  0  0  0  0  0  0  0  0
   36.7920   24.3730   41.4360 C   0  0  0  0  0  0  0  0  0  0  0  0
   37.0960   25.4450   42.2990 C   0  0  0  0  0  0  0  0  0  0  0  0
   37.0770   26.7130   41.7810 N   0  0  0  0  0  0  0  0  0  0  0  0
   36.7780   26.9440   40.4810 C   0  0  0  0  0  0  0  0  0  0  0  0
   36.4820   25.9310   39.6280 N   0  0  0  0  0  0  0  0  0  0  0  0
   36.2520   23.8640   39.4110 H   0  0  0  0  0  0  0  0  0  0  0  0
   36.8000   23.3640   41.8220 H   0  0  0  0  0  0  0  0  0  0  0  0
   37.3390   25.3040   43.3410 H   0  0  0  0  0  0  0  0  0  0  0  0
   37.5030   32.2690   38.8550 C   0  0  0  0  0  3  0  0  0  0  0  0
   37.2010   33.5640   39.5950 C   0  0  0  0  0  2  0  0  0  0  0  0
   38.6090   32.9980   39.4670 C   0  0  0  0  0  2  0  0  0  0  0  0
  1 12  1  0  0  0  0
  1  2  2  0  0  0  0
  2  6  1  0  0  0  0
  3  2  1  0  0  0  0
  3  7  1  0  0  0  0
  4  3  2  0  0  0  0
  5  4  1  0  0  0  0
  5  1  1  0  0  0  0
  8  9  1  0  0  0  0
  9 15  1  0  0  0  0
  9 10  2  0  0  0  0
 10 16  1  0  0  0  0
 11 10  1  0  0  0  0
 12 11  2  0  0  0  0
 13  8  2  0  0  0  0
 13 12  1  0  0  0  0
 14  8  1  0  0  0  0
 17 19  1  0  0  0  0
 17  4  1  0  0  0  0
 17 18  1  0  0  0  0
 19 18  1  0  0  0  0
M  END
>  <minimizedAffinity>
-3.98729062

$$$$

 OpenBabel03252509173D

 19 21  0  0  0  0  0  0  0  0999 V2000
   38.7050   31.1050   40.3930 C   0  0  0  0  0  0  0  0  0  0  0  0
   37.3120   31.3370   40.4970 C   0  0  0  0  0  0  0  0  0  0  0  0
   36.5440   30.4790   41.1970 C   0  0  0  0  0  0  0  0  0  0  0  0
   37.1620   29.3670   41.8080 C   0  0  0  0  0  0  0  0  0  0  0  0
   38.9190   29.5760   41.3490 S   0  0  0  0  0  0  0  0  0  0  0  0
   36.8600   32.2050   40.0150 H   0  0  0  0  0  0  0  0  0  0  0  0
   35.5060   30.5220   41.3590 H   0  0  0  0  0  0  0  0  0  0  0  0
   41.0170   33.7890   39.2670 C   0  0  0  0  0  0  0  0  0  0  0  0
   41.3110   33.3210   37.9600 C   0  0  0  0  0  0  0  0  0  0  0  0
   40.7060   32.1200   37.5410 C   0  0  0  0  0  0  0  0  0  0  0  0
   39.8710   31.4790   38.4190 N   0  0  0  0  0  0  0  0  0  0  0  0
   39.6280   31.9730   39.6550 C   0  0  0  0  0  0  0  0  0  0  0  0
   40.1980   33.1280   40.0850 N   0  0  0  0  0  0  0  0  0  0  0  0
   41.4760   34.7100   39.6010 H   0  0  0  0  0  0  0  0  0  0  0  0
   41.9730   33.8440   37.2850 H   0  0  0  0  0  0  0  0  0  0  0  0
   40.8730   31.6920   36.5630 H   0  0  0  0  0  0  0  0  0  0  0  0
   36.6870   28.2330   42.6360 C   0  0  0  0  0  3  0  0  0  0  0  0
   37.1360   26.8330   42.2460 C   0  0  0  0  0  2  0  0  0  0  0  0
   37.6590   27.5500   43.4830 C   0  0  0  0  0  2  0  0  0  0  0  0
  1  2  2  0  0  0  0
  1  5  1  0  0  0  0
  2  3  1  0  0  0  0
  3  7  1  0  0  0  0
  3  4  2  0  0  0  0
  4 17  1  0  0  0  0
  5  4  1  0  0  0  0
  6  2  1  0  0  0  0
  8 14  1  0  0  0  0
  8 13  1  0  0  0  0
  9  8  2  0  0  0  0
 10  9  1  0  0  0  0
 10 11  2  0  0  0  0
 11 12  1  0  0  0  0
 12 13  2  0  0  0  0
 12  1  1  0  0  0  0
 15  9  1  0  0  0  0
 16 10  1  0  0  0  0
 17 19  1  0  0  0  0
 18 17  1  0  0  0  0
 18 19  1  0  0  0  0
M  END
>  <minimizedAffinity>
-3.95439959

$$$$

 OpenBabel03252509173D

 19 21  0  0  0  0  0  0  0  0999 V2000
   39.1300   30.9220   41.2530 C   0  0  0  0  0  0  0  0  0  0  0  0
   38.1650   30.6450   40.2530 C   0  0  0  0  0  0  0  0  0  0  0  0
   37.2400   29.6890   40.4670 C   0  0  0  0  0  0  0  0  0  0  0  0
   37.2670   28.9880   41.6920 C   0  0  0  0  0  0  0  0  0  0  0  0
   38.6850   29.7450   42.5620 S   0  0  0  0  0  0  0  0  0  0  0  0
   38.1660   31.2030   39.3160 H   0  0  0  0  0  0  0  0  0  0  0  0
   36.4700   29.3770   39.8230 H   0  0  0  0  0  0  0  0  0  0  0  0
   42.2880   32.8820   41.3100 C   0  0  0  0  0  0  0  0  0  0  0  0
   41.8390   34.0800   40.6960 C   0  0  0  0  0  0  0  0  0  0  0  0
   40.4890   34.1480   40.2980 C   0  0  0  0  0  0  0  0  0  0  0  0
   39.6940   33.0560   40.5300 N   0  0  0  0  0  0  0  0  0  0  0  0
   40.1780   31.9390   41.1210 C   0  0  0  0  0  0  0  0  0  0  0  0
   41.4740   31.8460   41.5130 N   0  0  0  0  0  0  0  0  0  0  0  0
   43.3220   32.8170   41.6190 H   0  0  0  0  0  0  0  0  0  0  0  0
   42.4850   34.9290   40.5230 H   0  0  0  0  0  0  0  0  0  0  0  0
   40.0640   35.0200   39.8240 H   0  0  0  0  0  0  0  0  0  0  0  0
   36.4550   27.9040   42.2920 C   0  0  0  0  0  3  0  0  0  0  0  0
   37.1420   26.5760   42.5770 C   0  0  0  0  0  2  0  0  0  0  0  0
   36.7190   27.5380   43.6790 C   0  0  0  0  0  2  0  0  0  0  0  0
  1  5  1  0  0  0  0
  2  3  1  0  0  0  0
  2  1  2  0  0  0  0
  3  4  2  0  0  0  0
  4 17  1  0  0  0  0
  4  5  1  0  0  0  0
  6  2  1  0  0  0  0
  7  3  1  0  0  0  0
  8 13  1  0  0  0  0
  8 14  1  0  0  0  0
  9  8  2  0  0  0  0
 10 11  2  0  0  0  0
 10  9  1  0  0  0  0
 11 12  1  0  0  0  0
 12  1  1  0  0  0  0
 12 13  2  0  0  0  0
 15  9  1  0  0  0  0
 16 10  1  0  0  0  0
 17 18  1  0  0  0  0
 17 19  1  0  0  0  0
 18 19  1  0  0  0  0
M  END
>  <minimizedAffinity>
-3.94209504

$$$$
