
 OpenBabel03252503263D

 15 16  0  0  0  0  0  0  0  0999 V2000
   37.3880   30.4590   41.1690 C   0  0  0  0  0  0  0  0  0  0  0  0
   36.8670   29.1970   41.5250 C   0  0  0  0  0  0  0  0  0  0  0  0
   37.6300   28.4240   42.4280 C   0  0  0  0  0  0  0  0  0  0  0  0
   38.7940   28.9360   42.8870 N   0  0  0  0  0  0  0  0  0  0  0  0
   39.2580   30.1660   42.5130 C   0  0  0  0  0  0  0  0  0  0  0  0
   38.5410   30.9200   41.6490 N   0  0  0  0  0  0  0  0  0  0  0  0
   35.9390   28.8600   41.1200 H   0  0  0  0  0  0  0  0  0  0  0  0
   40.2080   30.4940   42.9360 H   0  0  0  0  0  0  0  0  0  0  0  0
   37.0510   27.1260   42.7660 C   0  0  0  0  0  0  0  0  0  0  0  0
   38.0660   26.3180   43.2740 F   0  0  0  0  0  0  0  0  0  0  0  0
   36.6760   26.5330   41.5650 F   0  0  0  0  0  0  0  0  0  0  0  0
   36.0480   27.1810   43.6780 F   0  0  0  0  0  0  0  0  0  0  0  0
   36.5890   31.2770   40.2180 C   0  0  0  0  0  3  0  0  0  0  0  0
   37.1530   32.3760   39.4350 C   0  0  0  0  0  2  0  0  0  0  0  0
   37.0200   31.0780   38.7440 C   0  0  0  0  0  2  0  0  0  0  0  0
  1  2  2  0  0  0  0
  1  6  1  0  0  0  0
  2  3  1  0  0  0  0
  3  9  1  0  0  0  0
  3  4  2  0  0  0  0
  5  4  1  0  0  0  0
  5  8  1  0  0  0  0
  6  5  2  0  0  0  0
  7  2  1  0  0  0  0
  9 10  1  0  0  0  0
  9 12  1  0  0  0  0
 11  9  1  0  0  0  0
 13  1  1  0  0  0  0
 14 13  1  0  0  0  0
 15 14  1  0  0  0  0
 15 13  1  0  0  0  0
M  END
>  <minimizedAffinity>
-4.29443789

$$$$

 OpenBabel03252503263D

 15 16  0  0  0  0  0  0  0  0999 V2000
   37.3000   26.8090   42.3680 C   0  0  0  0  0  0  0  0  0  0  0  0
   36.5680   27.6530   41.5080 C   0  0  0  0  0  0  0  0  0  0  0  0
   36.8390   29.0370   41.5890 C   0  0  0  0  0  0  0  0  0  0  0  0
   37.7690   29.4580   42.4760 N   0  0  0  0  0  0  0  0  0  0  0  0
   38.4540   28.6000   43.2890 C   0  0  0  0  0  0  0  0  0  0  0  0
   38.2090   27.2720   43.2250 N   0  0  0  0  0  0  0  0  0  0  0  0
   35.8480   27.2470   40.8330 H   0  0  0  0  0  0  0  0  0  0  0  0
   39.1870   29.0330   43.9730 H   0  0  0  0  0  0  0  0  0  0  0  0
   36.0560   29.8700   40.6800 C   0  0  0  0  0  0  0  0  0  0  0  0
   35.8620   31.1090   41.2870 F   0  0  0  0  0  0  0  0  0  0  0  0
   34.7910   29.2970   40.6040 F   0  0  0  0  0  0  0  0  0  0  0  0
   36.6330   30.0710   39.4680 F   0  0  0  0  0  0  0  0  0  0  0  0
   37.0200   25.3500   42.2860 C   0  0  0  0  0  3  0  0  0  0  0  0
   36.8440   24.6370   41.0220 C   0  0  0  0  0  2  0  0  0  0  0  0
   38.1800   24.5500   41.6450 C   0  0  0  0  0  2  0  0  0  0  0  0
  1  6  1  0  0  0  0
  2  3  1  0  0  0  0
  2  1  2  0  0  0  0
  3  4  2  0  0  0  0
  4  5  1  0  0  0  0
  5  8  1  0  0  0  0
  6  5  2  0  0  0  0
  7  2  1  0  0  0  0
  9 10  1  0  0  0  0
  9  3  1  0  0  0  0
 11  9  1  0  0  0  0
 12  9  1  0  0  0  0
 13  1  1  0  0  0  0
 14 15  1  0  0  0  0
 14 13  1  0  0  0  0
 15 13  1  0  0  0  0
M  END
>  <minimizedAffinity>
-4.24898148

$$$$

 OpenBabel03252503263D

 15 16  0  0  0  0  0  0  0  0999 V2000
   38.4070   28.9900   42.7590 C   0  0  0  0  0  0  0  0  0  0  0  0
   37.4960   29.7390   41.9870 C   0  0  0  0  0  0  0  0  0  0  0  0
   38.0360   30.7640   41.1790 C   0  0  0  0  0  0  0  0  0  0  0  0
   39.3740   30.9580   41.1970 N   0  0  0  0  0  0  0  0  0  0  0  0
   40.2180   30.2040   41.9630 C   0  0  0  0  0  0  0  0  0  0  0  0
   39.7190   29.2190   42.7430 N   0  0  0  0  0  0  0  0  0  0  0  0
   36.4500   29.5280   42.0240 H   0  0  0  0  0  0  0  0  0  0  0  0
   41.2840   30.4350   41.9120 H   0  0  0  0  0  0  0  0  0  0  0  0
   37.0540   31.5130   40.3980 C   0  0  0  0  0  0  0  0  0  0  0  0
   35.7860   31.1890   40.8730 F   0  0  0  0  0  0  0  0  0  0  0  0
   37.1030   31.0040   39.1040 F   0  0  0  0  0  0  0  0  0  0  0  0
   37.2040   32.8600   40.4550 F   0  0  0  0  0  0  0  0  0  0  0  0
   37.8440   27.9090   43.6120 C   0  0  0  0  0  3  0  0  0  0  0  0
   36.4860   27.3900   43.4560 C   0  0  0  0  0  2  0  0  0  0  0  0
   37.5660   26.6050   42.8250 C   0  0  0  0  0  2  0  0  0  0  0  0
  1 13  1  0  0  0  0
  2  7  1  0  0  0  0
  2  1  2  0  0  0  0
  3  4  2  0  0  0  0
  3  2  1  0  0  0  0
  4  5  1  0  0  0  0
  5  6  2  0  0  0  0
  6  1  1  0  0  0  0
  8  5  1  0  0  0  0
  9 12  1  0  0  0  0
  9 10  1  0  0  0  0
  9  3  1  0  0  0  0
 11  9  1  0  0  0  0
 14 13  1  0  0  0  0
 15 14  1  0  0  0  0
 15 13  1  0  0  0  0
M  END
>  <minimizedAffinity>
-4.1810832

$$$$

 OpenBabel03252503263D

 15 16  0  0  0  0  0  0  0  0999 V2000
   38.2870   29.2690   42.7670 C   0  0  0  0  0  0  0  0  0  0  0  0
   37.3840   29.8360   41.8450 C   0  0  0  0  0  0  0  0  0  0  0  0
   37.8770   30.8790   41.0290 C   0  0  0  0  0  0  0  0  0  0  0  0
   39.1650   31.2610   41.1830 N   0  0  0  0  0  0  0  0  0  0  0  0
   40.0030   30.6790   42.0920 C   0  0  0  0  0  0  0  0  0  0  0  0
   39.5490   29.6790   42.8810 N   0  0  0  0  0  0  0  0  0  0  0  0
   36.3790   29.4820   41.7800 H   0  0  0  0  0  0  0  0  0  0  0  0
   41.0260   31.0540   42.1440 H   0  0  0  0  0  0  0  0  0  0  0  0
   36.9050   31.4360   40.0900 C   0  0  0  0  0  0  0  0  0  0  0  0
   36.9100   32.8210   40.2330 F   0  0  0  0  0  0  0  0  0  0  0  0
   35.6500   31.0260   40.5270 F   0  0  0  0  0  0  0  0  0  0  0  0
   37.1490   31.1360   38.7900 F   0  0  0  0  0  0  0  0  0  0  0  0
   37.7740   28.1700   43.6290 C   0  0  0  0  0  3  0  0  0  0  0  0
   36.5490   27.4270   43.3370 C   0  0  0  0  0  2  0  0  0  0  0  0
   37.8170   26.7880   42.9310 C   0  0  0  0  0  2  0  0  0  0  0  0
  1  6  1  0  0  0  0
  1 13  1  0  0  0  0
  2  1  2  0  0  0  0
  3  4  2  0  0  0  0
  3  2  1  0  0  0  0
  4  5  1  0  0  0  0
  5  8  1  0  0  0  0
  5  6  2  0  0  0  0
  7  2  1  0  0  0  0
  9 10  1  0  0  0  0
  9 11  1  0  0  0  0
  9  3  1  0  0  0  0
 12  9  1  0  0  0  0
 14 13  1  0  0  0  0
 15 14  1  0  0  0  0
 15 13  1  0  0  0  0
M  END
>  <minimizedAffinity>
-4.17718267

$$$$

 OpenBabel03252503263D

 15 16  0  0  0  0  0  0  0  0999 V2000
   36.7820   28.9630   41.6150 C   0  0  0  0  0  0  0  0  0  0  0  0
   36.6600   27.6040   41.2580 C   0  0  0  0  0  0  0  0  0  0  0  0
   37.3710   26.6720   42.0440 C   0  0  0  0  0  0  0  0  0  0  0  0
   38.1140   27.1350   43.0750 N   0  0  0  0  0  0  0  0  0  0  0  0
   38.2010   28.4640   43.3830 C   0  0  0  0  0  0  0  0  0  0  0  0
   37.5270   29.3710   42.6410 N   0  0  0  0  0  0  0  0  0  0  0  0
   36.0540   27.3140   40.4280 H   0  0  0  0  0  0  0  0  0  0  0  0
   38.8250   28.7430   44.2330 H   0  0  0  0  0  0  0  0  0  0  0  0
   37.2150   25.2780   41.6360 C   0  0  0  0  0  0  0  0  0  0  0  0
   36.4650   25.2520   40.4620 F   0  0  0  0  0  0  0  0  0  0  0  0
   36.4140   24.6700   42.5970 F   0  0  0  0  0  0  0  0  0  0  0  0
   38.3830   24.6250   41.4150 F   0  0  0  0  0  0  0  0  0  0  0  0
   36.0350   29.9500   40.7890 C   0  0  0  0  0  3  0  0  0  0  0  0
   36.4700   31.3340   40.6050 C   0  0  0  0  0  2  0  0  0  0  0  0
   36.8140   30.3880   39.5250 C   0  0  0  0  0  2  0  0  0  0  0  0
  1  6  1  0  0  0  0
  2  1  2  0  0  0  0
  2  3  1  0  0  0  0
  3  4  2  0  0  0  0
  4  5  1  0  0  0  0
  5  8  1  0  0  0  0
  6  5  2  0  0  0  0
  7  2  1  0  0  0  0
  9  3  1  0  0  0  0
  9 11  1  0  0  0  0
 10  9  1  0  0  0  0
 12  9  1  0  0  0  0
 13  1  1  0  0  0  0
 14 13  1  0  0  0  0
 15 14  1  0  0  0  0
 15 13  1  0  0  0  0
M  END
>  <minimizedAffinity>
-4.13421154

$$$$

 OpenBabel03252503263D

 15 16  0  0  0  0  0  0  0  0999 V2000
   37.2680   29.2680   42.0410 C   0  0  0  0  0  0  0  0  0  0  0  0
   37.7030   30.4100   41.3380 C   0  0  0  0  0  0  0  0  0  0  0  0
   36.9620   30.7750   40.1930 C   0  0  0  0  0  0  0  0  0  0  0  0
   35.8970   30.0160   39.8480 N   0  0  0  0  0  0  0  0  0  0  0  0
   35.5130   28.9170   40.5630 C   0  0  0  0  0  0  0  0  0  0  0  0
   36.2100   28.5520   41.6620 N   0  0  0  0  0  0  0  0  0  0  0  0
   38.5560   30.9590   41.6700 H   0  0  0  0  0  0  0  0  0  0  0  0
   34.6390   28.3670   40.2080 H   0  0  0  0  0  0  0  0  0  0  0  0
   37.4510   31.9630   39.4970 C   0  0  0  0  0  0  0  0  0  0  0  0
   38.8380   31.8660   39.3970 F   0  0  0  0  0  0  0  0  0  0  0  0
   37.2190   33.0430   40.3430 F   0  0  0  0  0  0  0  0  0  0  0  0
   36.9410   32.1330   38.2520 F   0  0  0  0  0  0  0  0  0  0  0  0
   38.0450   28.8780   43.2480 C   0  0  0  0  0  3  0  0  0  0  0  0
   38.2150   27.4910   43.6790 C   0  0  0  0  0  2  0  0  0  0  0  0
   39.3270   28.0790   42.9060 C   0  0  0  0  0  2  0  0  0  0  0  0
  1 13  1  0  0  0  0
  2  7  1  0  0  0  0
  2  1  2  0  0  0  0
  3  2  1  0  0  0  0
  4  3  2  0  0  0  0
  4  5  1  0  0  0  0
  5  6  2  0  0  0  0
  6  1  1  0  0  0  0
  8  5  1  0  0  0  0
  9  3  1  0  0  0  0
  9 11  1  0  0  0  0
 10  9  1  0  0  0  0
 12  9  1  0  0  0  0
 13 14  1  0  0  0  0
 15 13  1  0  0  0  0
 15 14  1  0  0  0  0
M  END
>  <minimizedAffinity>
-4.0305891

$$$$

 OpenBabel03252503263D

 15 16  0  0  0  0  0  0  0  0999 V2000
   37.5730   27.2050   42.0770 C   0  0  0  0  0  0  0  0  0  0  0  0
   36.8320   28.3360   41.6790 C   0  0  0  0  0  0  0  0  0  0  0  0
   36.1470   28.2490   40.4470 C   0  0  0  0  0  0  0  0  0  0  0  0
   36.2450   27.1030   39.7380 N   0  0  0  0  0  0  0  0  0  0  0  0
   36.9770   26.0310   40.1660 C   0  0  0  0  0  0  0  0  0  0  0  0
   37.6390   26.0960   41.3430 N   0  0  0  0  0  0  0  0  0  0  0  0
   36.8020   29.2090   42.2940 H   0  0  0  0  0  0  0  0  0  0  0  0
   36.9960   25.1480   39.5250 H   0  0  0  0  0  0  0  0  0  0  0  0
   35.3940   29.4460   40.0770 C   0  0  0  0  0  0  0  0  0  0  0  0
   35.6560   30.4320   41.0250 F   0  0  0  0  0  0  0  0  0  0  0  0
   34.0480   29.1320   40.2350 F   0  0  0  0  0  0  0  0  0  0  0  0
   35.6940   29.9380   38.8490 F   0  0  0  0  0  0  0  0  0  0  0  0
   38.2970   27.2910   43.3740 C   0  0  0  0  0  3  0  0  0  0  0  0
   39.4920   26.5060   43.6790 C   0  0  0  0  0  2  0  0  0  0  0  0
   39.7160   27.8950   43.2320 C   0  0  0  0  0  2  0  0  0  0  0  0
  1 13  1  0  0  0  0
  2  1  1  0  0  0  0
  2  7  1  0  0  0  0
  3  2  2  0  0  0  0
  4  5  2  0  0  0  0
  4  3  1  0  0  0  0
  5  6  1  0  0  0  0
  6  1  2  0  0  0  0
  8  5  1  0  0  0  0
  9 11  1  0  0  0  0
  9  3  1  0  0  0  0
  9 10  1  0  0  0  0
 12  9  1  0  0  0  0
 13 14  1  0  0  0  0
 15 13  1  0  0  0  0
 15 14  1  0  0  0  0
M  END
>  <minimizedAffinity>
-4.02318096

$$$$

 OpenBabel03252503263D

 15 16  0  0  0  0  0  0  0  0999 V2000
   36.6480   28.7190   41.8340 C   0  0  0  0  0  0  0  0  0  0  0  0
   35.8400   28.3610   40.7360 C   0  0  0  0  0  0  0  0  0  0  0  0
   35.5940   29.3640   39.7720 C   0  0  0  0  0  0  0  0  0  0  0  0
   36.1410   30.5850   39.9620 N   0  0  0  0  0  0  0  0  0  0  0  0
   36.9190   30.8850   41.0450 C   0  0  0  0  0  0  0  0  0  0  0  0
   37.1660   29.9370   41.9770 N   0  0  0  0  0  0  0  0  0  0  0  0
   35.4420   27.3740   40.6530 H   0  0  0  0  0  0  0  0  0  0  0  0
   37.3170   31.8990   41.1120 H   0  0  0  0  0  0  0  0  0  0  0  0
   34.7510   28.9470   38.6530 C   0  0  0  0  0  0  0  0  0  0  0  0
   33.4200   29.0750   39.0420 F   0  0  0  0  0  0  0  0  0  0  0  0
   34.9560   27.5800   38.4890 F   0  0  0  0  0  0  0  0  0  0  0  0
   34.9380   29.6620   37.5150 F   0  0  0  0  0  0  0  0  0  0  0  0
   36.9110   27.6670   42.8530 C   0  0  0  0  0  3  0  0  0  0  0  0
   37.1220   26.2600   42.5170 C   0  0  0  0  0  2  0  0  0  0  0  0
   38.3360   27.0690   42.7460 C   0  0  0  0  0  2  0  0  0  0  0  0
  1  6  1  0  0  0  0
  1 13  1  0  0  0  0
  2  1  2  0  0  0  0
  3  4  2  0  0  0  0
  3  2  1  0  0  0  0
  4  5  1  0  0  0  0
  5  8  1  0  0  0  0
  5  6  2  0  0  0  0
  7  2  1  0  0  0  0
  9 10  1  0  0  0  0
  9  3  1  0  0  0  0
 11  9  1  0  0  0  0
 12  9  1  0  0  0  0
 14 15  1  0  0  0  0
 14 13  1  0  0  0  0
 15 13  1  0  0  0  0
M  END
>  <minimizedAffinity>
-4.01049376

$$$$

 OpenBabel03252503263D

 15 16  0  0  0  0  0  0  0  0999 V2000
   36.3660   28.4180   39.4400 C   0  0  0  0  0  0  0  0  0  0  0  0
   36.5730   28.6020   40.8230 C   0  0  0  0  0  0  0  0  0  0  0  0
   36.8760   27.4500   41.5810 C   0  0  0  0  0  0  0  0  0  0  0  0
   36.9480   26.2610   40.9410 N   0  0  0  0  0  0  0  0  0  0  0  0
   36.7400   26.1330   39.5970 C   0  0  0  0  0  0  0  0  0  0  0  0
   36.4480   27.2250   38.8550 N   0  0  0  0  0  0  0  0  0  0  0  0
   36.4990   29.5740   41.2580 H   0  0  0  0  0  0  0  0  0  0  0  0
   36.8200   25.1320   39.1690 H   0  0  0  0  0  0  0  0  0  0  0  0
   37.0810   27.6900   43.0070 C   0  0  0  0  0  0  0  0  0  0  0  0
   35.9160   27.3260   43.6790 F   0  0  0  0  0  0  0  0  0  0  0  0
   37.1840   29.0680   43.1690 F   0  0  0  0  0  0  0  0  0  0  0  0
   38.1200   27.0040   43.5460 F   0  0  0  0  0  0  0  0  0  0  0  0
   36.0460   29.6290   38.6360 C   0  0  0  0  0  3  0  0  0  0  0  0
   36.6710   30.9310   38.8630 C   0  0  0  0  0  2  0  0  0  0  0  0
   37.2380   30.1110   37.7740 C   0  0  0  0  0  2  0  0  0  0  0  0
  1  2  1  0  0  0  0
  2  7  1  0  0  0  0
  2  3  2  0  0  0  0
  3  9  1  0  0  0  0
  4  3  1  0  0  0  0
  5  4  2  0  0  0  0
  6  1  2  0  0  0  0
  6  5  1  0  0  0  0
  8  5  1  0  0  0  0
  9 11  1  0  0  0  0
  9 12  1  0  0  0  0
  9 10  1  0  0  0  0
 13 14  1  0  0  0  0
 13  1  1  0  0  0  0
 15 13  1  0  0  0  0
 15 14  1  0  0  0  0
M  END
>  <minimizedAffinity>
-3.88215399

$$$$
