
 OpenBabel03252507583D

 21 23  0  0  1  0  0  0  0  0999 V2000
   38.3050   31.6420   41.0510 C   0  0  0  0  0  0  0  0  0  0  0  0
   37.0610   31.8080   40.4320 C   0  0  0  0  0  0  0  0  0  0  0  0
   36.1260   30.7620   40.5410 C   0  0  0  0  0  0  0  0  0  0  0  0
   36.4920   29.6540   41.2430 N   0  0  0  0  0  0  0  0  0  0  0  0
   37.7210   29.5560   41.8220 C   0  0  0  0  0  0  0  0  0  0  0  0
   38.6320   30.5230   41.7400 N   0  0  0  0  0  0  0  0  0  0  0  0
   36.7610   32.6650   39.8830 H   0  0  0  0  0  0  0  0  0  0  0  0
   35.1600   30.8430   40.0840 H   0  0  0  0  0  0  0  0  0  0  0  0
   38.0450   28.3190   42.5950 C   0  0  1  0  0  0  0  0  0  0  0  0
   37.1040   27.8400   43.6560 C   0  0  0  0  0  0  0  0  0  0  0  0
   37.1220   27.1740   42.3260 C   0  0  2  0  0  0  0  0  0  0  0  0
   39.1200   28.0700   42.6890 H   0  0  0  0  0  0  0  0  0  0  0  0
   37.5770   27.4460   44.5540 H   0  0  0  0  0  0  0  0  0  0  0  0
   36.2750   28.5540   43.8620 H   0  0  0  0  0  0  0  0  0  0  0  0
   36.2320   27.3230   41.6760 H   0  0  0  0  0  0  0  0  0  0  0  0
   37.6180   25.7580   42.3740 C   0  0  0  0  0  3  0  0  0  0  0  0
   37.6290   25.0410   41.0180 C   0  0  0  0  0  2  0  0  0  0  0  0
   36.7500   24.5970   42.1280 C   0  0  0  0  0  2  0  0  0  0  0  0
   39.2000   32.7530   40.9090 C   0  0  0  0  0  0  0  0  0  0  0  0
   38.8600   33.9770   40.9460 O   0  0  0  0  0  0  0  0  0  0  0  0
   40.2850   32.8210   40.7490 H   0  0  0  0  0  0  0  0  0  0  0  0
  1  6  1  0  0  0  0
  2  3  1  0  0  0  0
  2  1  2  0  0  0  0
  3  4  2  0  0  0  0
  4  5  1  0  0  0  0
  5  9  1  0  0  0  0
  6  5  2  0  0  0  0
  7  2  1  0  0  0  0
  8  3  1  0  0  0  0
  9 12  1  1  0  0  0
  9 10  1  0  0  0  0
 10 14  1  0  0  0  0
 10 13  1  0  0  0  0
 11 15  1  6  0  0  0
 11 16  1  0  0  0  0
 11  9  1  0  0  0  0
 11 10  1  0  0  0  0
 17 18  1  0  0  0  0
 17 16  1  0  0  0  0
 18 16  1  0  0  0  0
 19 20  2  0  0  0  0
 19  1  1  0  0  0  0
 21 19  1  0  0  0  0
M  END
>  <minimizedAffinity>
-4.47343016

$$$$

 OpenBabel03252507583D

 21 23  0  0  1  0  0  0  0  0999 V2000
   38.3660   24.8880   42.2160 C   0  0  0  0  0  0  0  0  0  0  0  0
   39.5510   24.5660   42.8860 C   0  0  0  0  0  0  0  0  0  0  0  0
   40.1740   25.5750   43.6450 C   0  0  0  0  0  0  0  0  0  0  0  0
   39.5820   26.8010   43.6780 N   0  0  0  0  0  0  0  0  0  0  0  0
   38.4260   27.0480   43.0010 C   0  0  0  0  0  0  0  0  0  0  0  0
   37.8090   26.1210   42.2720 N   0  0  0  0  0  0  0  0  0  0  0  0
   40.0240   23.6160   42.8710 H   0  0  0  0  0  0  0  0  0  0  0  0
   41.0830   25.3760   44.1760 H   0  0  0  0  0  0  0  0  0  0  0  0
   37.8230   28.4120   43.1010 C   0  0  1  0  0  0  0  0  0  0  0  0
   38.6310   29.6100   42.7100 C   0  0  0  0  0  0  0  0  0  0  0  0
   37.5990   29.0770   41.7800 C   0  0  2  0  0  0  0  0  0  0  0  0
   37.0220   28.5360   43.8550 H   0  0  0  0  0  0  0  0  0  0  0  0
   38.5020   30.4850   43.3440 H   0  0  0  0  0  0  0  0  0  0  0  0
   39.6950   29.3680   42.4890 H   0  0  0  0  0  0  0  0  0  0  0  0
   37.9630   28.5900   40.8490 H   0  0  0  0  0  0  0  0  0  0  0  0
   36.4410   30.0100   41.5760 C   0  0  0  0  0  3  0  0  0  0  0  0
   35.8250   29.9610   40.1720 C   0  0  0  0  0  2  0  0  0  0  0  0
   36.5020   31.1770   40.6840 C   0  0  0  0  0  2  0  0  0  0  0  0
   37.7820   23.8080   41.4760 C   0  0  0  0  0  0  0  0  0  0  0  0
   36.6030   23.7960   41.0050 O   0  0  0  0  0  0  0  0  0  0  0  0
   38.1650   22.8260   41.1630 H   0  0  0  0  0  0  0  0  0  0  0  0
  1  6  2  0  0  0  0
  1  2  1  0  0  0  0
  2  3  2  0  0  0  0
  3  4  1  0  0  0  0
  3  8  1  0  0  0  0
  5  9  1  0  0  0  0
  5  4  2  0  0  0  0
  6  5  1  0  0  0  0
  7  2  1  0  0  0  0
  9 12  1  1  0  0  0
 10  9  1  0  0  0  0
 10 13  1  0  0  0  0
 11 15  1  6  0  0  0
 11 10  1  0  0  0  0
 11  9  1  0  0  0  0
 14 10  1  0  0  0  0
 16 11  1  0  0  0  0
 17 18  1  0  0  0  0
 17 16  1  0  0  0  0
 18 16  1  0  0  0  0
 19  1  1  0  0  0  0
 20 19  2  0  0  0  0
 21 19  1  0  0  0  0
M  END
>  <minimizedAffinity>
-4.20668459

$$$$

 OpenBabel03252507583D

 21 23  0  0  1  0  0  0  0  0999 V2000
   38.5380   31.4600   41.0930 C   0  0  0  0  0  0  0  0  0  0  0  0
   37.3640   31.8730   40.4540 C   0  0  0  0  0  0  0  0  0  0  0  0
   36.2040   31.0980   40.6410 C   0  0  0  0  0  0  0  0  0  0  0  0
   36.2990   29.9950   41.4340 N   0  0  0  0  0  0  0  0  0  0  0  0
   37.4760   29.6480   42.0280 C   0  0  0  0  0  0  0  0  0  0  0  0
   38.5930   30.3540   41.8730 N   0  0  0  0  0  0  0  0  0  0  0  0
   37.2730   32.7290   39.8340 H   0  0  0  0  0  0  0  0  0  0  0  0
   35.2800   31.3740   40.1720 H   0  0  0  0  0  0  0  0  0  0  0  0
   37.5000   28.4360   42.9010 C   0  0  1  0  0  0  0  0  0  0  0  0
   37.2050   27.0920   42.3120 C   0  0  0  0  0  0  0  0  0  0  0  0
   38.6120   27.4850   42.5930 C   0  0  2  0  0  0  0  0  0  0  0  0
   37.2810   28.6030   43.9740 H   0  0  0  0  0  0  0  0  0  0  0  0
   36.6090   26.4300   42.9370 H   0  0  0  0  0  0  0  0  0  0  0  0
   36.8590   27.1430   41.2550 H   0  0  0  0  0  0  0  0  0  0  0  0
   39.2680   27.6700   41.7140 H   0  0  0  0  0  0  0  0  0  0  0  0
   39.2530   26.6730   43.6790 C   0  0  0  0  0  3  0  0  0  0  0  0
   40.7850   26.6190   43.6150 C   0  0  0  0  0  2  0  0  0  0  0  0
   39.9530   25.4050   43.4240 C   0  0  0  0  0  2  0  0  0  0  0  0
   39.6730   32.3050   40.8660 C   0  0  0  0  0  0  0  0  0  0  0  0
   40.4410   32.2460   39.8550 O   0  0  0  0  0  0  0  0  0  0  0  0
   40.1190   33.1270   41.4450 H   0  0  0  0  0  0  0  0  0  0  0  0
  1  6  1  0  0  0  0
  2  3  1  0  0  0  0
  2  1  2  0  0  0  0
  3  4  2  0  0  0  0
  4  5  1  0  0  0  0
  5  9  1  0  0  0  0
  6  5  2  0  0  0  0
  7  2  1  0  0  0  0
  8  3  1  0  0  0  0
  9 12  1  1  0  0  0
 10 11  1  0  0  0  0
 10  9  1  0  0  0  0
 10 13  1  0  0  0  0
 11 15  1  6  0  0  0
 11  9  1  0  0  0  0
 11 16  1  0  0  0  0
 14 10  1  0  0  0  0
 17 16  1  0  0  0  0
 18 17  1  0  0  0  0
 18 16  1  0  0  0  0
 19  1  1  0  0  0  0
 19 21  1  0  0  0  0
 20 19  2  0  0  0  0
M  END
>  <minimizedAffinity>
-4.15181971

$$$$

 OpenBabel03252507583D

 21 23  0  0  1  0  0  0  0  0999 V2000
   37.4740   26.8720   42.1990 C   0  0  0  0  0  0  0  0  0  0  0  0
   38.1420   27.5880   43.1970 C   0  0  0  0  0  0  0  0  0  0  0  0
   37.9530   28.9820   43.2470 C   0  0  0  0  0  0  0  0  0  0  0  0
   37.1310   29.5450   42.3180 N   0  0  0  0  0  0  0  0  0  0  0  0
   36.5100   28.7880   41.3710 C   0  0  0  0  0  0  0  0  0  0  0  0
   36.6650   27.4690   41.2910 N   0  0  0  0  0  0  0  0  0  0  0  0
   38.7850   27.1650   43.9280 H   0  0  0  0  0  0  0  0  0  0  0  0
   38.4440   29.5730   43.9950 H   0  0  0  0  0  0  0  0  0  0  0  0
   35.6060   29.4720   40.3970 C   0  0  1  0  0  0  0  0  0  0  0  0
   36.1780   30.0730   39.1510 C   0  0  0  0  0  0  0  0  0  0  0  0
   35.4750   28.7640   39.0870 C   0  0  2  0  0  0  0  0  0  0  0  0
   34.6770   29.9050   40.8160 H   0  0  0  0  0  0  0  0  0  0  0  0
   35.7440   31.0250   38.8530 H   0  0  0  0  0  0  0  0  0  0  0  0
   37.2910   30.0600   39.1280 H   0  0  0  0  0  0  0  0  0  0  0  0
   36.0980   27.8660   38.8800 H   0  0  0  0  0  0  0  0  0  0  0  0
   34.1910   28.8130   38.3110 C   0  0  0  0  0  3  0  0  0  0  0  0
   33.9770   27.6300   37.3580 C   0  0  0  0  0  2  0  0  0  0  0  0
   34.1420   29.0160   36.8560 C   0  0  0  0  0  2  0  0  0  0  0  0
   37.7040   25.4570   42.2190 C   0  0  0  0  0  0  0  0  0  0  0  0
   36.7980   24.5690   42.2930 O   0  0  0  0  0  0  0  0  0  0  0  0
   38.6190   24.8490   42.1800 H   0  0  0  0  0  0  0  0  0  0  0  0
  1 19  1  0  0  0  0
  1  2  1  0  0  0  0
  2  3  2  0  0  0  0
  2  7  1  0  0  0  0
  3  8  1  0  0  0  0
  4  3  1  0  0  0  0
  5  4  2  0  0  0  0
  6  5  1  0  0  0  0
  6  1  2  0  0  0  0
  9 12  1  1  0  0  0
  9  5  1  0  0  0  0
 10  9  1  0  0  0  0
 11 15  1  6  0  0  0
 11 10  1  0  0  0  0
 11  9  1  0  0  0  0
 13 10  1  0  0  0  0
 14 10  1  0  0  0  0
 16 11  1  0  0  0  0
 17 16  1  0  0  0  0
 18 17  1  0  0  0  0
 18 16  1  0  0  0  0
 19 20  2  0  0  0  0
 21 19  1  0  0  0  0
M  END
>  <minimizedAffinity>
-4.14405298

$$$$

 OpenBabel03252507583D

 21 23  0  0  1  0  0  0  0  0999 V2000
   38.1480   30.2150   40.4240 C   0  0  0  0  0  0  0  0  0  0  0  0
   39.0010   31.1560   41.0110 C   0  0  0  0  0  0  0  0  0  0  0  0
   39.5080   30.8770   42.2940 C   0  0  0  0  0  0  0  0  0  0  0  0
   39.1360   29.7070   42.8830 N   0  0  0  0  0  0  0  0  0  0  0  0
   38.3000   28.8330   42.2560 C   0  0  0  0  0  0  0  0  0  0  0  0
   37.7990   29.0620   41.0440 N   0  0  0  0  0  0  0  0  0  0  0  0
   39.3010   32.0710   40.5660 H   0  0  0  0  0  0  0  0  0  0  0  0
   40.1660   31.5670   42.7840 H   0  0  0  0  0  0  0  0  0  0  0  0
   37.9510   27.5590   42.9540 C   0  0  1  0  0  0  0  0  0  0  0  0
   36.5400   27.3150   43.3920 C   0  0  0  0  0  0  0  0  0  0  0  0
   37.0590   26.6550   42.1650 C   0  0  2  0  0  0  0  0  0  0  0  0
   38.7710   27.0700   43.5160 H   0  0  0  0  0  0  0  0  0  0  0  0
   36.4300   26.8290   44.3590 H   0  0  0  0  0  0  0  0  0  0  0  0
   35.8810   28.2030   43.2580 H   0  0  0  0  0  0  0  0  0  0  0  0
   36.6440   27.0010   41.1920 H   0  0  0  0  0  0  0  0  0  0  0  0
   37.1690   25.1640   42.2900 C   0  0  0  0  0  3  0  0  0  0  0  0
   38.0710   24.5010   41.2410 C   0  0  0  0  0  2  0  0  0  0  0  0
   36.6130   24.2340   41.2960 C   0  0  0  0  0  2  0  0  0  0  0  0
   37.6830   30.5610   39.1140 C   0  0  0  0  0  0  0  0  0  0  0  0
   36.9380   31.5530   38.8390 O   0  0  0  0  0  0  0  0  0  0  0  0
   37.8350   30.1070   38.1240 H   0  0  0  0  0  0  0  0  0  0  0  0
  1  2  2  0  0  0  0
  1  6  1  0  0  0  0
  2  3  1  0  0  0  0
  3  8  1  0  0  0  0
  3  4  2  0  0  0  0
  5  4  1  0  0  0  0
  5  9  1  0  0  0  0
  6  5  2  0  0  0  0
  7  2  1  0  0  0  0
  9 10  1  0  0  0  0
  9 12  1  1  0  0  0
 10 13  1  0  0  0  0
 11 15  1  6  0  0  0
 11 16  1  0  0  0  0
 11  9  1  0  0  0  0
 11 10  1  0  0  0  0
 14 10  1  0  0  0  0
 17 18  1  0  0  0  0
 17 16  1  0  0  0  0
 18 16  1  0  0  0  0
 19  1  1  0  0  0  0
 20 19  2  0  0  0  0
 21 19  1  0  0  0  0
M  END
>  <minimizedAffinity>
-4.1032753

$$$$

 OpenBabel03252507583D

 21 23  0  0  1  0  0  0  0  0999 V2000
   39.5260   32.1830   40.7240 C   0  0  0  0  0  0  0  0  0  0  0  0
   39.1230   33.3290   40.0300 C   0  0  0  0  0  0  0  0  0  0  0  0
   37.7620   33.4540   39.6960 C   0  0  0  0  0  0  0  0  0  0  0  0
   36.9230   32.4480   40.0690 N   0  0  0  0  0  0  0  0  0  0  0  0
   37.3800   31.3570   40.7430 C   0  0  0  0  0  0  0  0  0  0  0  0
   38.6590   31.2030   41.0760 N   0  0  0  0  0  0  0  0  0  0  0  0
   39.7650   34.1210   39.7330 H   0  0  0  0  0  0  0  0  0  0  0  0
   37.4060   34.3140   39.1650 H   0  0  0  0  0  0  0  0  0  0  0  0
   36.3970   30.3030   41.1380 C   0  0  1  0  0  0  0  0  0  0  0  0
   36.1250   29.1590   40.2120 C   0  0  0  0  0  0  0  0  0  0  0  0
   37.0090   28.9620   41.3910 C   0  0  2  0  0  0  0  0  0  0  0  0
   35.6000   30.6180   41.8390 H   0  0  0  0  0  0  0  0  0  0  0  0
   35.0850   28.8430   40.1570 H   0  0  0  0  0  0  0  0  0  0  0  0
   36.6120   29.2740   39.2180 H   0  0  0  0  0  0  0  0  0  0  0  0
   38.0920   28.8030   41.1890 H   0  0  0  0  0  0  0  0  0  0  0  0
   36.4340   28.0360   42.4220 C   0  0  0  0  0  3  0  0  0  0  0  0
   37.3130   27.8390   43.6640 C   0  0  0  0  0  2  0  0  0  0  0  0
   37.0160   26.7220   42.7320 C   0  0  0  0  0  2  0  0  0  0  0  0
   40.9230   32.1320   41.0420 C   0  0  0  0  0  0  0  0  0  0  0  0
   41.7330   33.1060   40.9400 O   0  0  0  0  0  0  0  0  0  0  0  0
   41.5750   31.3280   41.4120 H   0  0  0  0  0  0  0  0  0  0  0  0
  1 19  1  0  0  0  0
  1  6  1  0  0  0  0
  2  1  2  0  0  0  0
  3  2  1  0  0  0  0
  3  4  2  0  0  0  0
  4  5  1  0  0  0  0
  5  6  2  0  0  0  0
  5  9  1  0  0  0  0
  7  2  1  0  0  0  0
  8  3  1  0  0  0  0
  9 11  1  0  0  0  0
  9 12  1  1  0  0  0
 10  9  1  0  0  0  0
 10 11  1  0  0  0  0
 11 15  1  6  0  0  0
 11 16  1  0  0  0  0
 13 10  1  0  0  0  0
 14 10  1  0  0  0  0
 16 18  1  0  0  0  0
 16 17  1  0  0  0  0
 18 17  1  0  0  0  0
 19 21  1  0  0  0  0
 20 19  2  0  0  0  0
M  END
>  <minimizedAffinity>
-4.09313631

$$$$

 OpenBabel03252507583D

 21 23  0  0  1  0  0  0  0  0999 V2000
   37.2870   26.8070   42.0790 C   0  0  0  0  0  0  0  0  0  0  0  0
   37.3940   27.3390   43.3690 C   0  0  0  0  0  0  0  0  0  0  0  0
   37.5420   28.7330   43.4960 C   0  0  0  0  0  0  0  0  0  0  0  0
   37.5730   29.4750   42.3550 N   0  0  0  0  0  0  0  0  0  0  0  0
   37.4640   28.8930   41.1280 C   0  0  0  0  0  0  0  0  0  0  0  0
   37.3240   27.5790   40.9670 N   0  0  0  0  0  0  0  0  0  0  0  0
   37.3710   26.7750   44.2670 H   0  0  0  0  0  0  0  0  0  0  0  0
   37.6280   29.1870   44.4640 H   0  0  0  0  0  0  0  0  0  0  0  0
   37.4850   29.7720   39.9200 C   0  0  1  0  0  0  0  0  0  0  0  0
   36.2000   30.3100   39.3730 C   0  0  0  0  0  0  0  0  0  0  0  0
   37.0800   31.1870   40.1900 C   0  0  2  0  0  0  0  0  0  0  0  0
   38.3370   29.6300   39.2280 H   0  0  0  0  0  0  0  0  0  0  0  0
   36.1320   30.3370   38.2870 H   0  0  0  0  0  0  0  0  0  0  0  0
   35.2990   29.8820   39.8680 H   0  0  0  0  0  0  0  0  0  0  0  0
   36.7110   31.4720   41.2000 H   0  0  0  0  0  0  0  0  0  0  0  0
   37.6820   32.3200   39.4120 C   0  0  0  0  0  3  0  0  0  0  0  0
   38.3650   33.3910   40.2720 C   0  0  0  0  0  2  0  0  0  0  0  0
   37.1580   33.6930   39.4640 C   0  0  0  0  0  2  0  0  0  0  0  0
   37.1250   25.3830   42.0290 C   0  0  0  0  0  0  0  0  0  0  0  0
   37.9970   24.5330   42.3910 O   0  0  0  0  0  0  0  0  0  0  0  0
   36.2980   24.7380   41.7000 H   0  0  0  0  0  0  0  0  0  0  0  0
  1  2  1  0  0  0  0
  2  3  2  0  0  0  0
  2  7  1  0  0  0  0
  3  8  1  0  0  0  0
  4  3  1  0  0  0  0
  5  4  2  0  0  0  0
  6  5  1  0  0  0  0
  6  1  2  0  0  0  0
  9 12  1  6  0  0  0
  9 11  1  0  0  0  0
  9  5  1  0  0  0  0
 10 14  1  0  0  0  0
 10  9  1  0  0  0  0
 10 11  1  0  0  0  0
 11 15  1  1  0  0  0
 13 10  1  0  0  0  0
 16 18  1  0  0  0  0
 16 11  1  0  0  0  0
 16 17  1  0  0  0  0
 18 17  1  0  0  0  0
 19  1  1  0  0  0  0
 19 20  2  0  0  0  0
 21 19  1  0  0  0  0
M  END
>  <minimizedAffinity>
-4.07208014

$$$$

 OpenBabel03252507583D

 21 23  0  0  1  0  0  0  0  0999 V2000
   36.9210   30.6270   39.5650 C   0  0  0  0  0  0  0  0  0  0  0  0
   35.8460   29.9720   38.9540 C   0  0  0  0  0  0  0  0  0  0  0  0
   35.2600   28.8890   39.6360 C   0  0  0  0  0  0  0  0  0  0  0  0
   35.7790   28.5470   40.8480 N   0  0  0  0  0  0  0  0  0  0  0  0
   36.8280   29.2280   41.3870 C   0  0  0  0  0  0  0  0  0  0  0  0
   37.4090   30.2550   40.7730 N   0  0  0  0  0  0  0  0  0  0  0  0
   35.4310   30.2250   38.0110 H   0  0  0  0  0  0  0  0  0  0  0  0
   34.4350   28.3560   39.2080 H   0  0  0  0  0  0  0  0  0  0  0  0
   37.3300   28.8100   42.7310 C   0  0  1  0  0  0  0  0  0  0  0  0
   36.7240   27.6230   43.4130 C   0  0  0  0  0  0  0  0  0  0  0  0
   38.0410   27.4940   42.7340 C   0  0  2  0  0  0  0  0  0  0  0  0
   37.7750   29.6090   43.3560 H   0  0  0  0  0  0  0  0  0  0  0  0
   36.5860   27.7240   44.4870 H   0  0  0  0  0  0  0  0  0  0  0  0
   35.8310   27.2220   42.8820 H   0  0  0  0  0  0  0  0  0  0  0  0
   38.0720   26.8820   41.8060 H   0  0  0  0  0  0  0  0  0  0  0  0
   39.1770   27.2360   43.6800 C   0  0  0  0  0  3  0  0  0  0  0  0
   40.5570   27.1670   43.0140 C   0  0  0  0  0  2  0  0  0  0  0  0
   39.9520   25.9860   43.6770 C   0  0  0  0  0  2  0  0  0  0  0  0
   37.4560   31.7270   38.8180 C   0  0  0  0  0  0  0  0  0  0  0  0
   38.4890   32.3950   39.1360 O   0  0  0  0  0  0  0  0  0  0  0  0
   37.1440   32.2170   37.8840 H   0  0  0  0  0  0  0  0  0  0  0  0
  1  6  1  0  0  0  0
  2  1  2  0  0  0  0
  2  3  1  0  0  0  0
  3  4  2  0  0  0  0
  4  5  1  0  0  0  0
  5  9  1  0  0  0  0
  6  5  2  0  0  0  0
  7  2  1  0  0  0  0
  8  3  1  0  0  0  0
  9 11  1  0  0  0  0
  9 12  1  1  0  0  0
  9 10  1  0  0  0  0
 10 13  1  0  0  0  0
 11 15  1  6  0  0  0
 11 10  1  0  0  0  0
 11 16  1  0  0  0  0
 14 10  1  0  0  0  0
 17 18  1  0  0  0  0
 17 16  1  0  0  0  0
 18 16  1  0  0  0  0
 19 20  2  0  0  0  0
 19  1  1  0  0  0  0
 21 19  1  0  0  0  0
M  END
>  <minimizedAffinity>
-4.06744337

$$$$

 OpenBabel03252507583D

 21 23  0  0  1  0  0  0  0  0999 V2000
   36.8630   29.9630   38.9050 C   0  0  0  0  0  0  0  0  0  0  0  0
   36.9440   31.3220   39.2300 C   0  0  0  0  0  0  0  0  0  0  0  0
   37.2770   31.6640   40.5540 C   0  0  0  0  0  0  0  0  0  0  0  0
   37.4990   30.6490   41.4350 N   0  0  0  0  0  0  0  0  0  0  0  0
   37.4040   29.3450   41.0530 C   0  0  0  0  0  0  0  0  0  0  0  0
   37.0900   28.9830   39.8110 N   0  0  0  0  0  0  0  0  0  0  0  0
   36.7740   32.1230   38.5550 H   0  0  0  0  0  0  0  0  0  0  0  0
   37.3510   32.6920   40.8500 H   0  0  0  0  0  0  0  0  0  0  0  0
   37.6820   28.2860   42.0690 C   0  0  1  0  0  0  0  0  0  0  0  0
   36.5780   27.8020   42.9570 C   0  0  0  0  0  0  0  0  0  0  0  0
   37.0030   26.9820   41.7920 C   0  0  2  0  0  0  0  0  0  0  0  0
   38.7240   28.2280   42.4390 H   0  0  0  0  0  0  0  0  0  0  0  0
   36.8620   27.6090   43.9890 H   0  0  0  0  0  0  0  0  0  0  0  0
   35.6410   28.3950   42.8530 H   0  0  0  0  0  0  0  0  0  0  0  0
   36.2880   26.9020   40.9430 H   0  0  0  0  0  0  0  0  0  0  0  0
   37.6460   25.6830   42.1790 C   0  0  0  0  0  3  0  0  0  0  0  0
   37.8980   24.7230   41.0090 C   0  0  0  0  0  2  0  0  0  0  0  0
   36.9500   24.3900   42.1000 C   0  0  0  0  0  2  0  0  0  0  0  0
   36.5330   29.6920   37.5370 C   0  0  0  0  0  0  0  0  0  0  0  0
   37.0250   30.2920   36.5310 O   0  0  0  0  0  0  0  0  0  0  0  0
   35.8460   28.9760   37.0630 H   0  0  0  0  0  0  0  0  0  0  0  0
  1  2  2  0  0  0  0
  1  6  1  0  0  0  0
  2  3  1  0  0  0  0
  3  8  1  0  0  0  0
  3  4  2  0  0  0  0
  5  4  1  0  0  0  0
  5  9  1  0  0  0  0
  6  5  2  0  0  0  0
  7  2  1  0  0  0  0
  9 12  1  1  0  0  0
  9 10  1  0  0  0  0
 10 13  1  0  0  0  0
 11 15  1  6  0  0  0
 11  9  1  0  0  0  0
 11 16  1  0  0  0  0
 11 10  1  0  0  0  0
 14 10  1  0  0  0  0
 17 18  1  0  0  0  0
 17 16  1  0  0  0  0
 18 16  1  0  0  0  0
 19  1  1  0  0  0  0
 20 19  2  0  0  0  0
 21 19  1  0  0  0  0
M  END
>  <minimizedAffinity>
-3.90683293

$$$$
