
     RDKit          3D

 30 33  0  0  0  0  0  0  0  0999 V2000
   47.2249   31.3605   45.0839 C   0  0  0  0  0  0  0  0  0  0  0  0
   46.8816   32.7096   45.0979 C   0  0  0  0  0  0  0  0  0  0  0  0
   46.2764   33.3283   46.2001 C   0  0  0  0  0  0  0  0  0  0  0  0
   46.0051   32.5670   47.3274 C   0  0  0  0  0  0  0  0  0  0  0  0
   45.4410   32.7996   48.5349 N   0  0  0  0  0  0  0  0  0  0  0  0
   45.4285   31.6525   49.2531 C   0  0  0  0  0  0  0  0  0  0  0  0
   45.9914   30.7109   48.4721 N   0  0  0  0  0  0  0  0  0  0  0  0
   46.3521   31.2400   47.2914 C   0  0  0  0  0  0  0  0  0  0  0  0
   46.9515   30.5969   46.2203 C   0  0  0  0  0  0  0  0  0  0  0  0
   46.5259   35.1999   42.4184 C   0  0  0  0  0  0  0  0  0  0  0  0
   47.7139   35.0549   41.7045 C   0  0  0  0  0  0  0  0  0  0  0  0
   48.6337   34.0991   42.1491 C   0  0  0  0  0  0  0  0  0  0  0  0
   48.2996   33.3714   43.2585 N   0  0  0  0  0  0  0  0  0  0  0  0
   47.1554   33.5256   43.9289 C   0  0  0  0  0  0  0  0  0  0  0  0
   46.2840   34.4356   43.5024 N   0  0  0  0  0  0  0  0  0  0  0  0
   47.6949   30.9456   44.1881 H   0  0  0  0  0  0  0  0  0  0  0  0
   45.0662   33.7128   48.8621 H   0  0  0  0  0  0  0  0  0  0  0  0
   45.0214   31.5919   50.2631 H   0  0  0  0  0  0  0  0  0  0  0  0
   47.2148   29.5579   46.2133 H   0  0  0  0  0  0  0  0  0  0  0  0
   45.7471   35.8870   42.1866 H   0  0  0  0  0  0  0  0  0  0  0  0
   47.8633   35.6771   40.8576 H   0  0  0  0  0  0  0  0  0  0  0  0
   49.5487   33.9694   41.6206 H   0  0  0  0  0  0  0  0  0  0  0  0
   45.9207   34.7675   46.1523 C   0  0  0  0  0  0  0  0  0  0  0  0
   44.4306   35.0599   46.4741 C   0  0  0  0  0  0  0  0  0  0  0  0
   44.9872   35.3071   45.1221 C   0  0  0  0  0  0  0  0  0  0  0  0
   46.6455   35.4763   46.6014 H   0  0  0  0  0  0  0  0  0  0  0  0
   44.2167   35.9097   47.1534 H   0  0  0  0  0  0  0  0  0  0  0  0
   43.7648   34.1913   46.6098 H   0  0  0  0  0  0  0  0  0  0  0  0
   45.0916   36.3823   44.8656 H   0  0  0  0  0  0  0  0  0  0  0  0
   44.5714   34.7216   44.2970 H   0  0  0  0  0  0  0  0  0  0  0  0
  1  2  2  0
  1  9  1  0
  2  3  1  0
  3  4  2  0
  4  5  1  0
  5  6  1  0
  7  6  2  0
  8  4  1  0
  8  7  1  0
  9  8  2  0
 10 15  2  0
 11 12  2  0
 11 10  1  0
 12 13  1  0
 13 14  2  0
 14  2  1  0
 15 14  1  0
  1 16  1  0
  5 17  1  0
  6 18  1  0
  9 19  1  0
 10 20  1  0
 11 21  1  0
 12 22  1  0
 23 24  1  0
 24 25  1  0
 25 23  1  0
 23 26  1  0
 24 27  1  0
 24 28  1  0
 25 29  1  0
 25 30  1  0
  3 23  1  0
M  ISO  7  16  14  17   9  18  14  19  14  20  14  21  14  22  14
M  END
>  <DihAtoms>  (1) 
1,2,22,23

>  <DihDeg>  (1) 
-69.72496244233386

$$$$
