
 OpenBabel03252504123D

 19 20  0  0  0  0  0  0  0  0999 V2000
   36.7840   29.7790   41.3910 C   0  0  0  0  0  0  0  0  0  0  0  0
   37.6340   29.0040   42.1670 C   0  0  0  0  0  0  0  0  0  0  0  0
   38.8860   29.5300   42.5090 C   0  0  0  0  0  0  0  0  0  0  0  0
   39.2100   30.7760   42.0670 N   0  0  0  0  0  0  0  0  0  0  0  0
   38.3530   31.4960   41.3140 C   0  0  0  0  0  0  0  0  0  0  0  0
   37.1540   31.0170   40.9740 N   0  0  0  0  0  0  0  0  0  0  0  0
   39.5530   28.9300   43.1150 H   0  0  0  0  0  0  0  0  0  0  0  0
   37.1840   27.6520   42.6000 C   0  0  0  0  0  0  0  0  0  0  0  0
   37.1250   26.8030   41.5110 F   0  0  0  0  0  0  0  0  0  0  0  0
   38.1340   27.1390   43.4620 F   0  0  0  0  0  0  0  0  0  0  0  0
   35.9630   27.6370   43.2110 F   0  0  0  0  0  0  0  0  0  0  0  0
   38.7680   32.8610   40.8580 C   0  0  0  0  0  3  0  0  0  0  0  0
   39.2140   32.8630   39.3920 C   0  0  0  0  0  2  0  0  0  0  0  0
   38.0060   33.6150   39.8590 C   0  0  0  0  0  2  0  0  0  0  0  0
   35.5790   29.2630   41.0660 O   0  0  0  0  0  0  0  0  0  0  0  0
   35.0540   29.0690   39.7800 C   0  0  0  0  0  0  0  0  0  0  0  0
   35.4850   27.7960   39.3540 F   0  0  0  0  0  0  0  0  0  0  0  0
   33.6880   29.1830   39.8010 F   0  0  0  0  0  0  0  0  0  0  0  0
   35.6450   29.9550   38.8930 F   0  0  0  0  0  0  0  0  0  0  0  0
  1  2  1  0  0  0  0
  2  3  2  0  0  0  0
  2  8  1  0  0  0  0
  3  7  1  0  0  0  0
  4  3  1  0  0  0  0
  5  4  2  0  0  0  0
  6  5  1  0  0  0  0
  6  1  2  0  0  0  0
  8 11  1  0  0  0  0
  8 10  1  0  0  0  0
  9  8  1  0  0  0  0
 12  5  1  0  0  0  0
 13 14  1  0  0  0  0
 13 12  1  0  0  0  0
 14 12  1  0  0  0  0
 15  1  1  0  0  0  0
 16 18  1  0  0  0  0
 16 15  1  0  0  0  0
 17 16  1  0  0  0  0
 19 16  1  0  0  0  0
M  END
>  <minimizedAffinity>
-4.90679741

$$$$

 OpenBabel03252504123D

 19 20  0  0  0  0  0  0  0  0999 V2000
   37.6430   28.2440   42.1840 C   0  0  0  0  0  0  0  0  0  0  0  0
   39.0190   28.3040   42.3640 C   0  0  0  0  0  0  0  0  0  0  0  0
   39.7350   27.1020   42.4120 C   0  0  0  0  0  0  0  0  0  0  0  0
   39.0510   25.9320   42.2800 N   0  0  0  0  0  0  0  0  0  0  0  0
   37.7140   25.9190   42.1060 C   0  0  0  0  0  0  0  0  0  0  0  0
   37.0080   27.0510   42.0570 N   0  0  0  0  0  0  0  0  0  0  0  0
   40.8080   27.1410   42.5520 H   0  0  0  0  0  0  0  0  0  0  0  0
   39.6720   29.6350   42.4990 C   0  0  0  0  0  0  0  0  0  0  0  0
   40.9840   29.4790   42.9030 F   0  0  0  0  0  0  0  0  0  0  0  0
   39.7010   30.2260   41.2510 F   0  0  0  0  0  0  0  0  0  0  0  0
   39.0570   30.4740   43.3830 F   0  0  0  0  0  0  0  0  0  0  0  0
   37.0190   24.6000   41.9670 C   0  0  0  0  0  3  0  0  0  0  0  0
   36.5570   24.3460   40.5280 C   0  0  0  0  0  2  0  0  0  0  0  0
   37.5910   23.4930   41.1960 C   0  0  0  0  0  2  0  0  0  0  0  0
   36.9620   29.4090   42.1380 O   0  0  0  0  0  0  0  0  0  0  0  0
   36.2640   29.9450   41.0460 C   0  0  0  0  0  0  0  0  0  0  0  0
   37.1170   29.8400   39.9280 F   0  0  0  0  0  0  0  0  0  0  0  0
   35.0780   29.2820   40.8680 F   0  0  0  0  0  0  0  0  0  0  0  0
   36.0860   31.3080   41.2250 F   0  0  0  0  0  0  0  0  0  0  0  0
  1  2  1  0  0  0  0
  2  3  2  0  0  0  0
  2  8  1  0  0  0  0
  3  7  1  0  0  0  0
  4  3  1  0  0  0  0
  5  4  2  0  0  0  0
  6  5  1  0  0  0  0
  6  1  2  0  0  0  0
  8  9  1  0  0  0  0
  8 11  1  0  0  0  0
 10  8  1  0  0  0  0
 12  5  1  0  0  0  0
 13 14  1  0  0  0  0
 13 12  1  0  0  0  0
 14 12  1  0  0  0  0
 15  1  1  0  0  0  0
 16 19  1  0  0  0  0
 16 15  1  0  0  0  0
 17 16  1  0  0  0  0
 18 16  1  0  0  0  0
M  END
>  <minimizedAffinity>
-4.70687103

$$$$

 OpenBabel03252504123D

 19 20  0  0  0  0  0  0  0  0999 V2000
   38.5790   26.6080   42.1670 C   0  0  0  0  0  0  0  0  0  0  0  0
   38.5170   25.2220   42.1920 C   0  0  0  0  0  0  0  0  0  0  0  0
   39.6050   24.5180   42.7240 C   0  0  0  0  0  0  0  0  0  0  0  0
   40.6700   25.2260   43.1910 N   0  0  0  0  0  0  0  0  0  0  0  0
   40.6890   26.5740   43.1480 C   0  0  0  0  0  0  0  0  0  0  0  0
   39.6640   27.2670   42.6450 N   0  0  0  0  0  0  0  0  0  0  0  0
   39.5630   23.4370   42.7460 H   0  0  0  0  0  0  0  0  0  0  0  0
   37.3050   24.5430   41.6550 C   0  0  0  0  0  0  0  0  0  0  0  0
   37.5560   23.1940   41.4850 F   0  0  0  0  0  0  0  0  0  0  0  0
   36.3000   24.6520   42.5960 F   0  0  0  0  0  0  0  0  0  0  0  0
   36.8650   25.0420   40.4620 F   0  0  0  0  0  0  0  0  0  0  0  0
   41.8890   27.2940   43.6780 C   0  0  0  0  0  3  0  0  0  0  0  0
   42.9240   27.5660   42.5810 C   0  0  0  0  0  2  0  0  0  0  0  0
   42.2070   28.6720   43.2920 C   0  0  0  0  0  2  0  0  0  0  0  0
   37.5240   27.2770   41.6520 O   0  0  0  0  0  0  0  0  0  0  0  0
   36.6260   28.1090   42.3380 C   0  0  0  0  0  0  0  0  0  0  0  0
   36.1320   27.3620   43.4270 F   0  0  0  0  0  0  0  0  0  0  0  0
   37.2530   29.2630   42.7320 F   0  0  0  0  0  0  0  0  0  0  0  0
   35.5150   28.3540   41.5470 F   0  0  0  0  0  0  0  0  0  0  0  0
  1  2  2  0  0  0  0
  1  6  1  0  0  0  0
  2  3  1  0  0  0  0
  3  7  1  0  0  0  0
  3  4  2  0  0  0  0
  5  4  1  0  0  0  0
  5 12  1  0  0  0  0
  6  5  2  0  0  0  0
  8  2  1  0  0  0  0
  8 10  1  0  0  0  0
  9  8  1  0  0  0  0
 11  8  1  0  0  0  0
 13 14  1  0  0  0  0
 13 12  1  0  0  0  0
 14 12  1  0  0  0  0
 15  1  1  0  0  0  0
 15 16  1  0  0  0  0
 16 18  1  0  0  0  0
 16 17  1  0  0  0  0
 19 16  1  0  0  0  0
M  END
>  <minimizedAffinity>
-4.65653992

$$$$

 OpenBabel03252504123D

 19 20  0  0  0  0  0  0  0  0999 V2000
   37.0200   26.7690   40.6790 C   0  0  0  0  0  0  0  0  0  0  0  0
   36.6850   27.7920   41.5540 C   0  0  0  0  0  0  0  0  0  0  0  0
   35.9350   28.8680   41.0630 C   0  0  0  0  0  0  0  0  0  0  0  0
   35.5700   28.8600   39.7510 N   0  0  0  0  0  0  0  0  0  0  0  0
   35.9170   27.8450   38.9340 C   0  0  0  0  0  0  0  0  0  0  0  0
   36.6320   26.8080   39.3790 N   0  0  0  0  0  0  0  0  0  0  0  0
   35.6700   29.6700   41.7410 H   0  0  0  0  0  0  0  0  0  0  0  0
   37.1340   27.7060   42.9720 C   0  0  0  0  0  0  0  0  0  0  0  0
   37.1910   28.9700   43.5270 F   0  0  0  0  0  0  0  0  0  0  0  0
   36.1830   26.9960   43.6800 F   0  0  0  0  0  0  0  0  0  0  0  0
   38.3550   27.1190   43.1380 F   0  0  0  0  0  0  0  0  0  0  0  0
   35.4850   27.8940   37.5010 C   0  0  0  0  0  3  0  0  0  0  0  0
   34.0030   27.5420   37.3380 C   0  0  0  0  0  2  0  0  0  0  0  0
   34.5430   28.8990   37.0040 C   0  0  0  0  0  2  0  0  0  0  0  0
   37.7430   25.7360   41.1630 O   0  0  0  0  0  0  0  0  0  0  0  0
   37.3080   24.4190   41.3780 C   0  0  0  0  0  0  0  0  0  0  0  0
   36.1990   24.4950   42.2440 F   0  0  0  0  0  0  0  0  0  0  0  0
   37.0050   23.8180   40.1850 F   0  0  0  0  0  0  0  0  0  0  0  0
   38.2670   23.7200   42.0950 F   0  0  0  0  0  0  0  0  0  0  0  0
  1 15  1  0  0  0  0
  1  2  1  0  0  0  0
  2  8  1  0  0  0  0
  3  2  2  0  0  0  0
  3  7  1  0  0  0  0
  4  3  1  0  0  0  0
  5  6  1  0  0  0  0
  5  4  2  0  0  0  0
  6  1  2  0  0  0  0
  8 11  1  0  0  0  0
  8  9  1  0  0  0  0
  8 10  1  0  0  0  0
 12  5  1  0  0  0  0
 13 12  1  0  0  0  0
 14 13  1  0  0  0  0
 14 12  1  0  0  0  0
 15 16  1  0  0  0  0
 16 19  1  0  0  0  0
 16 17  1  0  0  0  0
 18 16  1  0  0  0  0
M  END
>  <minimizedAffinity>
-4.65250254

$$$$

 OpenBabel03252504123D

 19 20  0  0  0  0  0  0  0  0999 V2000
   37.1850   27.7130   41.0020 C   0  0  0  0  0  0  0  0  0  0  0  0
   37.5360   28.8630   41.6960 C   0  0  0  0  0  0  0  0  0  0  0  0
   36.8340   30.0430   41.4240 C   0  0  0  0  0  0  0  0  0  0  0  0
   35.8420   30.0090   40.4930 N   0  0  0  0  0  0  0  0  0  0  0  0
   35.5320   28.8700   39.8410 C   0  0  0  0  0  0  0  0  0  0  0  0
   36.1870   27.7310   40.0820 N   0  0  0  0  0  0  0  0  0  0  0  0
   37.1030   30.9430   41.9620 H   0  0  0  0  0  0  0  0  0  0  0  0
   38.6390   28.7940   42.6950 C   0  0  0  0  0  0  0  0  0  0  0  0
   39.8320   28.5010   42.0620 F   0  0  0  0  0  0  0  0  0  0  0  0
   38.7800   30.0440   43.2640 F   0  0  0  0  0  0  0  0  0  0  0  0
   38.4470   27.8670   43.6790 F   0  0  0  0  0  0  0  0  0  0  0  0
   34.4300   28.8960   38.8280 C   0  0  0  0  0  3  0  0  0  0  0  0
   34.9500   29.2230   37.4240 C   0  0  0  0  0  2  0  0  0  0  0  0
   34.3290   27.9010   37.7580 C   0  0  0  0  0  2  0  0  0  0  0  0
   37.8680   26.5790   41.2720 O   0  0  0  0  0  0  0  0  0  0  0  0
   37.3740   25.4110   41.8720 C   0  0  0  0  0  0  0  0  0  0  0  0
   36.4960   25.8200   42.8950 F   0  0  0  0  0  0  0  0  0  0  0  0
   36.7620   24.6190   40.9360 F   0  0  0  0  0  0  0  0  0  0  0  0
   38.4010   24.7520   42.5320 F   0  0  0  0  0  0  0  0  0  0  0  0
  1 15  1  0  0  0  0
  1  2  1  0  0  0  0
  2  8  1  0  0  0  0
  3  2  2  0  0  0  0
  3  7  1  0  0  0  0
  4  3  1  0  0  0  0
  5  6  1  0  0  0  0
  5  4  2  0  0  0  0
  6  1  2  0  0  0  0
  8 10  1  0  0  0  0
  8 11  1  0  0  0  0
  9  8  1  0  0  0  0
 12  5  1  0  0  0  0
 13 14  1  0  0  0  0
 13 12  1  0  0  0  0
 14 12  1  0  0  0  0
 15 16  1  0  0  0  0
 16 19  1  0  0  0  0
 16 17  1  0  0  0  0
 18 16  1  0  0  0  0
M  END
>  <minimizedAffinity>
-4.62144709

$$$$

 OpenBabel03252504123D

 19 20  0  0  0  0  0  0  0  0999 V2000
   37.5870   30.7290   40.4190 C   0  0  0  0  0  0  0  0  0  0  0  0
   38.4830   31.6700   40.9070 C   0  0  0  0  0  0  0  0  0  0  0  0
   39.2740   31.3240   42.0100 C   0  0  0  0  0  0  0  0  0  0  0  0
   39.1280   30.0820   42.5500 N   0  0  0  0  0  0  0  0  0  0  0  0
   38.2440   29.1980   42.0440 C   0  0  0  0  0  0  0  0  0  0  0  0
   37.4780   29.5040   40.9930 N   0  0  0  0  0  0  0  0  0  0  0  0
   39.9750   32.0530   42.3960 H   0  0  0  0  0  0  0  0  0  0  0  0
   38.5660   33.0010   40.2440 C   0  0  0  0  0  0  0  0  0  0  0  0
   39.2220   33.8980   41.0660 F   0  0  0  0  0  0  0  0  0  0  0  0
   39.3310   32.8640   39.1030 F   0  0  0  0  0  0  0  0  0  0  0  0
   37.3550   33.5400   39.9160 F   0  0  0  0  0  0  0  0  0  0  0  0
   38.1300   27.8480   42.6820 C   0  0  0  0  0  3  0  0  0  0  0  0
   36.9690   27.7830   43.6800 C   0  0  0  0  0  2  0  0  0  0  0  0
   36.9940   26.9590   42.4300 C   0  0  0  0  0  2  0  0  0  0  0  0
   36.8290   31.0730   39.3550 O   0  0  0  0  0  0  0  0  0  0  0  0
   37.0280   30.7100   38.0140 C   0  0  0  0  0  0  0  0  0  0  0  0
   38.2190   29.9560   37.9710 F   0  0  0  0  0  0  0  0  0  0  0  0
   35.9460   30.0130   37.5450 F   0  0  0  0  0  0  0  0  0  0  0  0
   37.3000   31.8390   37.2570 F   0  0  0  0  0  0  0  0  0  0  0  0
  1  2  2  0  0  0  0
  1  6  1  0  0  0  0
  2  3  1  0  0  0  0
  3  7  1  0  0  0  0
  3  4  2  0  0  0  0
  5  4  1  0  0  0  0
  5 12  1  0  0  0  0
  6  5  2  0  0  0  0
  8  2  1  0  0  0  0
  8  9  1  0  0  0  0
 10  8  1  0  0  0  0
 11  8  1  0  0  0  0
 12 13  1  0  0  0  0
 14 12  1  0  0  0  0
 14 13  1  0  0  0  0
 15  1  1  0  0  0  0
 16 15  1  0  0  0  0
 17 16  1  0  0  0  0
 18 16  1  0  0  0  0
 19 16  1  0  0  0  0
M  END
>  <minimizedAffinity>
-4.62134409

$$$$

 OpenBabel03252504123D

 19 20  0  0  0  0  0  0  0  0999 V2000
   38.1960   29.5150   41.1500 C   0  0  0  0  0  0  0  0  0  0  0  0
   36.8390   29.7270   40.9480 C   0  0  0  0  0  0  0  0  0  0  0  0
   36.4050   31.0300   40.6750 C   0  0  0  0  0  0  0  0  0  0  0  0
   37.3310   32.0260   40.6190 N   0  0  0  0  0  0  0  0  0  0  0  0
   38.6410   31.7760   40.8220 C   0  0  0  0  0  0  0  0  0  0  0  0
   39.0810   30.5430   41.0850 N   0  0  0  0  0  0  0  0  0  0  0  0
   35.3470   31.2020   40.5160 H   0  0  0  0  0  0  0  0  0  0  0  0
   35.9070   28.5690   41.0310 C   0  0  0  0  0  0  0  0  0  0  0  0
   34.6320   28.9620   40.6710 F   0  0  0  0  0  0  0  0  0  0  0  0
   36.3150   27.6240   40.1090 F   0  0  0  0  0  0  0  0  0  0  0  0
   35.8360   27.9940   42.2670 F   0  0  0  0  0  0  0  0  0  0  0  0
   39.6110   32.9140   40.7470 C   0  0  0  0  0  3  0  0  0  0  0  0
   40.1210   33.1380   39.3200 C   0  0  0  0  0  2  0  0  0  0  0  0
   39.3000   34.1600   40.0430 C   0  0  0  0  0  2  0  0  0  0  0  0
   38.6050   28.2550   41.4130 O   0  0  0  0  0  0  0  0  0  0  0  0
   39.0220   27.7350   42.6480 C   0  0  0  0  0  0  0  0  0  0  0  0
   38.3970   26.4800   42.7910 F   0  0  0  0  0  0  0  0  0  0  0  0
   40.3900   27.6510   42.6900 F   0  0  0  0  0  0  0  0  0  0  0  0
   38.5070   28.5050   43.6790 F   0  0  0  0  0  0  0  0  0  0  0  0
  1 15  1  0  0  0  0
  2  8  1  0  0  0  0
  2  1  2  0  0  0  0
  3  2  1  0  0  0  0
  4  3  2  0  0  0  0
  4  5  1  0  0  0  0
  5  6  2  0  0  0  0
  6  1  1  0  0  0  0
  7  3  1  0  0  0  0
  8 11  1  0  0  0  0
  9  8  1  0  0  0  0
 10  8  1  0  0  0  0
 12  5  1  0  0  0  0
 13 14  1  0  0  0  0
 13 12  1  0  0  0  0
 14 12  1  0  0  0  0
 15 16  1  0  0  0  0
 16 18  1  0  0  0  0
 16 17  1  0  0  0  0
 16 19  1  0  0  0  0
M  END
>  <minimizedAffinity>
-4.61975241

$$$$

 OpenBabel03252504123D

 19 20  0  0  0  0  0  0  0  0999 V2000
   39.1150   27.1420   43.2890 C   0  0  0  0  0  0  0  0  0  0  0  0
   38.4170   26.0330   42.8300 C   0  0  0  0  0  0  0  0  0  0  0  0
   39.1190   24.8340   42.6520 C   0  0  0  0  0  0  0  0  0  0  0  0
   40.4500   24.8120   42.9380 N   0  0  0  0  0  0  0  0  0  0  0  0
   41.0890   25.9130   43.3820 C   0  0  0  0  0  0  0  0  0  0  0  0
   40.4430   27.0680   43.5600 N   0  0  0  0  0  0  0  0  0  0  0  0
   38.5800   23.9650   42.2940 H   0  0  0  0  0  0  0  0  0  0  0  0
   36.9610   26.1630   42.5460 C   0  0  0  0  0  0  0  0  0  0  0  0
   36.7710   26.8330   41.3520 F   0  0  0  0  0  0  0  0  0  0  0  0
   36.4410   24.8940   42.3840 F   0  0  0  0  0  0  0  0  0  0  0  0
   36.2580   26.8210   43.5140 F   0  0  0  0  0  0  0  0  0  0  0  0
   42.5540   25.8240   43.6790 C   0  0  0  0  0  3  0  0  0  0  0  0
   43.4080   26.1280   42.4430 C   0  0  0  0  0  2  0  0  0  0  0  0
   43.4270   27.0010   43.6610 C   0  0  0  0  0  2  0  0  0  0  0  0
   38.4290   28.2930   43.4580 O   0  0  0  0  0  0  0  0  0  0  0  0
   38.4210   29.4120   42.6110 C   0  0  0  0  0  0  0  0  0  0  0  0
   37.0700   29.7470   42.3940 F   0  0  0  0  0  0  0  0  0  0  0  0
   39.1360   30.4380   43.1720 F   0  0  0  0  0  0  0  0  0  0  0  0
   38.9000   29.0570   41.3590 F   0  0  0  0  0  0  0  0  0  0  0  0
  1 15  1  0  0  0  0
  1  6  1  0  0  0  0
  2  1  2  0  0  0  0
  3  2  1  0  0  0  0
  3  4  2  0  0  0  0
  4  5  1  0  0  0  0
  5  6  2  0  0  0  0
  5 12  1  0  0  0  0
  7  3  1  0  0  0  0
  8  2  1  0  0  0  0
  8 11  1  0  0  0  0
  9  8  1  0  0  0  0
 10  8  1  0  0  0  0
 13 14  1  0  0  0  0
 13 12  1  0  0  0  0
 14 12  1  0  0  0  0
 16 18  1  0  0  0  0
 16 15  1  0  0  0  0
 17 16  1  0  0  0  0
 19 16  1  0  0  0  0
M  END
>  <minimizedAffinity>
-4.59355688

$$$$

 OpenBabel03252504123D

 19 20  0  0  0  0  0  0  0  0999 V2000
   37.9630   26.6190   41.5360 C   0  0  0  0  0  0  0  0  0  0  0  0
   38.8950   27.0750   42.4580 C   0  0  0  0  0  0  0  0  0  0  0  0
   38.7980   28.4000   42.9010 C   0  0  0  0  0  0  0  0  0  0  0  0
   37.7950   29.1780   42.4090 N   0  0  0  0  0  0  0  0  0  0  0  0
   36.9090   28.6950   41.5140 C   0  0  0  0  0  0  0  0  0  0  0  0
   36.9810   27.4350   41.0750 N   0  0  0  0  0  0  0  0  0  0  0  0
   39.5220   28.7610   43.6200 H   0  0  0  0  0  0  0  0  0  0  0  0
   39.9550   26.1430   42.9340 C   0  0  0  0  0  0  0  0  0  0  0  0
   40.6440   25.6220   41.8550 F   0  0  0  0  0  0  0  0  0  0  0  0
   40.8620   26.8700   43.6800 F   0  0  0  0  0  0  0  0  0  0  0  0
   39.4890   25.0980   43.6790 F   0  0  0  0  0  0  0  0  0  0  0  0
   35.8280   29.6000   41.0100 C   0  0  0  0  0  3  0  0  0  0  0  0
   36.1860   30.2190   39.6540 C   0  0  0  0  0  2  0  0  0  0  0  0
   35.0310   29.2790   39.8230 C   0  0  0  0  0  2  0  0  0  0  0  0
   38.0650   25.3400   41.1150 O   0  0  0  0  0  0  0  0  0  0  0  0
   37.2080   24.2720   41.4200 C   0  0  0  0  0  0  0  0  0  0  0  0
   36.1770   24.2930   40.4590 F   0  0  0  0  0  0  0  0  0  0  0  0
   37.9030   23.0910   41.4220 F   0  0  0  0  0  0  0  0  0  0  0  0
   36.5690   24.5120   42.6270 F   0  0  0  0  0  0  0  0  0  0  0  0
  1  2  1  0  0  0  0
  2  3  2  0  0  0  0
  2  8  1  0  0  0  0
  3  7  1  0  0  0  0
  4  3  1  0  0  0  0
  5  4  2  0  0  0  0
  6  5  1  0  0  0  0
  6  1  2  0  0  0  0
  8 11  1  0  0  0  0
  8 10  1  0  0  0  0
  9  8  1  0  0  0  0
 12  5  1  0  0  0  0
 13 14  1  0  0  0  0
 13 12  1  0  0  0  0
 14 12  1  0  0  0  0
 15 16  1  0  0  0  0
 15  1  1  0  0  0  0
 16 18  1  0  0  0  0
 16 19  1  0  0  0  0
 17 16  1  0  0  0  0
M  END
>  <minimizedAffinity>
-4.5640626

$$$$
