
 OpenBabel03252504433D

 39 42  0  0  0  0  0  0  0  0999 V2000
   37.3800   31.7340   40.3340 C   0  0  0  0  0  0  0  0  0  0  0  0
   37.0790   32.7000   39.4220 C   0  0  0  0  0  0  0  0  0  0  0  0
   38.2390   33.2280   39.0300 N   0  0  0  0  0  0  0  0  0  0  0  0
   39.2660   32.6380   39.6510 C   0  0  0  0  0  0  0  0  0  0  0  0
   38.7150   31.6980   40.4710 N   0  0  0  0  0  0  0  0  0  0  0  0
   40.6720   32.8450   39.5680 N   0  0  0  0  0  0  0  0  0  0  0  0
   41.4030   32.0760   38.5340 C   0  0  0  0  0  0  0  0  0  0  0  0
   41.6940   33.0960   37.4340 C   0  0  0  0  0  0  0  0  0  0  0  0
   42.2810   34.3490   38.0260 C   0  0  0  0  0  0  0  0  0  0  0  0
   42.7560   34.0750   39.4450 C   0  0  0  0  0  0  0  0  0  0  0  0
   41.5750   33.6730   40.3010 C   0  0  0  0  0  0  0  0  0  0  0  0
   36.0830   32.9850   39.0830 H   0  0  0  0  0  0  0  0  0  0  0  0
   38.3750   33.9990   38.3330 H   0  0  0  0  0  0  0  0  0  0  0  0
   42.3170   31.6370   38.9490 H   0  0  0  0  0  0  0  0  0  0  0  0
   40.7480   31.3070   38.0780 H   0  0  0  0  0  0  0  0  0  0  0  0
   40.7610   33.3560   36.9300 H   0  0  0  0  0  0  0  0  0  0  0  0
   42.4330   32.6430   36.7270 H   0  0  0  0  0  0  0  0  0  0  0  0
   41.5280   35.1590   38.1150 H   0  0  0  0  0  0  0  0  0  0  0  0
   43.1520   34.7420   37.4430 H   0  0  0  0  0  0  0  0  0  0  0  0
   43.2300   34.9840   39.8530 H   0  0  0  0  0  0  0  0  0  0  0  0
   43.4930   33.2530   39.3790 H   0  0  0  0  0  0  0  0  0  0  0  0
   41.9230   33.1860   41.2380 H   0  0  0  0  0  0  0  0  0  0  0  0
   41.0640   34.6430   40.5620 H   0  0  0  0  0  0  0  0  0  0  0  0
   36.4080   30.8590   41.0540 C   0  0  0  0  0  0  0  0  0  0  0  0
   35.5160   30.7000   40.4050 H   0  0  0  0  0  0  0  0  0  0  0  0
   36.0750   31.3570   41.9950 H   0  0  0  0  0  0  0  0  0  0  0  0
   37.3520   29.1520   42.5630 C   0  0  0  0  0  3  0  0  0  0  0  0
   37.0020   29.5400   41.3530 C   0  0  0  0  0  3  0  0  0  0  0  0
   37.9310   27.8210   42.7080 C   0  0  0  0  0  0  0  0  0  0  0  0
   39.1940   27.6240   43.3360 C   0  0  0  0  0  0  0  0  0  0  0  0
   39.6680   26.3330   43.4270 C   0  0  0  0  0  0  0  0  0  0  0  0
   38.9400   25.3130   42.9300 N   0  0  0  0  0  0  0  0  0  0  0  0
   37.7470   25.5240   42.3410 C   0  0  0  0  0  0  0  0  0  0  0  0
   37.2520   26.7390   42.2290 N   0  0  0  0  0  0  0  0  0  0  0  0
   39.7040   28.4990   43.7030 H   0  0  0  0  0  0  0  0  0  0  0  0
   40.6280   26.2150   43.9070 H   0  0  0  0  0  0  0  0  0  0  0  0
   36.9840   24.3670   41.8090 C   0  0  0  0  0  3  0  0  0  0  0  0
   37.6930   23.3390   40.9730 C   0  0  0  0  0  2  0  0  0  0  0  0
   36.6480   24.2480   40.3810 C   0  0  0  0  0  2  0  0  0  0  0  0
  1  5  1  0  0  0  0
  1 24  1  0  0  0  0
  2  1  2  0  0  0  0
  3  2  1  0  0  0  0
  3  4  1  0  0  0  0
  4  5  2  0  0  0  0
  6  4  1  0  0  0  0
  6 11  1  0  0  0  0
  7 14  1  0  0  0  0
  7  6  1  0  0  0  0
  8  9  1  0  0  0  0
  8  7  1  0  0  0  0
  9 18  1  0  0  0  0
  9 10  1  0  0  0  0
 10 20  1  0  0  0  0
 10 11  1  0  0  0  0
 11 23  1  0  0  0  0
 11 22  1  0  0  0  0
 12  2  1  0  0  0  0
 13  3  1  0  0  0  0
 15  7  1  0  0  0  0
 16  8  1  0  0  0  0
 17  8  1  0  0  0  0
 19  9  1  0  0  0  0
 21 10  1  0  0  0  0
 24 28  1  0  0  0  0
 24 26  1  0  0  0  0
 25 24  1  0  0  0  0
 27 29  1  0  0  0  0
 28 27  2  0  0  0  0
 29 30  1  0  0  0  0
 30 31  2  0  0  0  0
 30 35  1  0  0  0  0
 31 36  1  0  0  0  0
 32 31  1  0  0  0  0
 33 32  2  0  0  0  0
 34 33  1  0  0  0  0
 34 29  2  0  0  0  0
 37 33  1  0  0  0  0
 38 37  1  0  0  0  0
 39 38  1  0  0  0  0
 39 37  1  0  0  0  0
M  END
>  <minimizedAffinity>
-6.03464174

$$$$

 OpenBabel03252504433D

 39 42  0  0  0  0  0  0  0  0999 V2000
   38.1660   28.3940   42.7050 C   0  0  0  0  0  0  0  0  0  0  0  0
   36.9120   28.9060   42.8540 C   0  0  0  0  0  0  0  0  0  0  0  0
   36.8820   30.0460   42.1630 N   0  0  0  0  0  0  0  0  0  0  0  0
   38.0620   30.2820   41.5800 C   0  0  0  0  0  0  0  0  0  0  0  0
   38.8640   29.2350   41.9280 N   0  0  0  0  0  0  0  0  0  0  0  0
   38.5170   31.3470   40.7530 N   0  0  0  0  0  0  0  0  0  0  0  0
   38.3010   31.2020   39.2940 C   0  0  0  0  0  0  0  0  0  0  0  0
   37.1280   32.1320   38.9880 C   0  0  0  0  0  0  0  0  0  0  0  0
   37.3600   33.4850   39.6050 C   0  0  0  0  0  0  0  0  0  0  0  0
   38.8220   33.6290   39.9980 C   0  0  0  0  0  0  0  0  0  0  0  0
   39.1680   32.5850   41.0370 C   0  0  0  0  0  0  0  0  0  0  0  0
   36.0950   28.4670   43.4270 H   0  0  0  0  0  0  0  0  0  0  0  0
   36.0690   30.6990   42.0630 H   0  0  0  0  0  0  0  0  0  0  0  0
   39.2050   31.4720   38.7380 H   0  0  0  0  0  0  0  0  0  0  0  0
   37.9580   30.1780   39.0460 H   0  0  0  0  0  0  0  0  0  0  0  0
   36.2150   31.7100   39.4110 H   0  0  0  0  0  0  0  0  0  0  0  0
   37.0550   32.2440   37.8770 H   0  0  0  0  0  0  0  0  0  0  0  0
   36.7840   33.6170   40.5440 H   0  0  0  0  0  0  0  0  0  0  0  0
   37.1050   34.3300   38.9160 H   0  0  0  0  0  0  0  0  0  0  0  0
   38.9940   34.6410   40.4030 H   0  0  0  0  0  0  0  0  0  0  0  0
   39.4140   33.4780   39.0750 H   0  0  0  0  0  0  0  0  0  0  0  0
   40.2710   32.4700   41.1190 H   0  0  0  0  0  0  0  0  0  0  0  0
   38.7720   33.0010   42.0070 H   0  0  0  0  0  0  0  0  0  0  0  0
   38.6800   27.1210   43.2920 C   0  0  0  0  0  0  0  0  0  0  0  0
   38.1330   26.9150   44.2410 H   0  0  0  0  0  0  0  0  0  0  0  0
   39.7660   27.2230   43.5250 H   0  0  0  0  0  0  0  0  0  0  0  0
   37.2930   25.3820   42.2260 C   0  0  0  0  0  3  0  0  0  0  0  0
   38.4560   25.9860   42.3740 C   0  0  0  0  0  3  0  0  0  0  0  0
   37.2200   24.2700   41.2850 C   0  0  0  0  0  0  0  0  0  0  0  0
   38.3110   23.3750   41.1040 C   0  0  0  0  0  0  0  0  0  0  0  0
   38.1580   22.3540   40.1910 C   0  0  0  0  0  0  0  0  0  0  0  0
   37.0020   22.2330   39.5060 N   0  0  0  0  0  0  0  0  0  0  0  0
   35.9820   23.0930   39.6950 C   0  0  0  0  0  0  0  0  0  0  0  0
   36.0810   24.0840   40.5560 N   0  0  0  0  0  0  0  0  0  0  0  0
   39.1950   23.5500   41.6950 H   0  0  0  0  0  0  0  0  0  0  0  0
   39.0030   21.6920   40.0760 H   0  0  0  0  0  0  0  0  0  0  0  0
   34.7300   22.9170   38.9160 C   0  0  0  0  0  3  0  0  0  0  0  0
   33.4460   22.6290   39.6430 C   0  0  0  0  0  2  0  0  0  0  0  0
   34.0950   21.5990   38.7550 C   0  0  0  0  0  2  0  0  0  0  0  0
  1  2  2  0  0  0  0
  1 24  1  0  0  0  0
  2 12  1  0  0  0  0
  3  2  1  0  0  0  0
  4  5  2  0  0  0  0
  4  3  1  0  0  0  0
  5  1  1  0  0  0  0
  6 11  1  0  0  0  0
  6  4  1  0  0  0  0
  7  6  1  0  0  0  0
  8  7  1  0  0  0  0
  8 16  1  0  0  0  0
  8  9  1  0  0  0  0
  9 10  1  0  0  0  0
  9 18  1  0  0  0  0
 10 20  1  0  0  0  0
 10 11  1  0  0  0  0
 11 22  1  0  0  0  0
 11 23  1  0  0  0  0
 13  3  1  0  0  0  0
 14  7  1  0  0  0  0
 15  7  1  0  0  0  0
 17  8  1  0  0  0  0
 19  9  1  0  0  0  0
 21 10  1  0  0  0  0
 24 26  1  0  0  0  0
 24 25  1  0  0  0  0
 27 28  2  0  0  0  0
 28 24  1  0  0  0  0
 29 27  1  0  0  0  0
 30 29  1  0  0  0  0
 30 35  1  0  0  0  0
 31 30  2  0  0  0  0
 32 33  2  0  0  0  0
 32 31  1  0  0  0  0
 33 34  1  0  0  0  0
 34 29  2  0  0  0  0
 36 31  1  0  0  0  0
 37 38  1  0  0  0  0
 37 33  1  0  0  0  0
 39 37  1  0  0  0  0
 39 38  1  0  0  0  0
M  END
>  <minimizedAffinity>
-5.80057716

$$$$

 OpenBabel03252504433D

 39 42  0  0  0  0  0  0  0  0999 V2000
   38.2640   32.0000   38.4520 C   0  0  0  0  0  0  0  0  0  0  0  0
   38.6050   31.8640   37.1400 C   0  0  0  0  0  0  0  0  0  0  0  0
   39.9000   32.1710   37.0500 N   0  0  0  0  0  0  0  0  0  0  0  0
   40.3980   32.4950   38.2480 C   0  0  0  0  0  0  0  0  0  0  0  0
   39.3590   32.3840   39.1250 N   0  0  0  0  0  0  0  0  0  0  0  0
   41.7030   32.8850   38.6610 N   0  0  0  0  0  0  0  0  0  0  0  0
   42.6410   31.7990   39.0330 C   0  0  0  0  0  0  0  0  0  0  0  0
   43.5930   31.6930   37.8420 C   0  0  0  0  0  0  0  0  0  0  0  0
   44.1010   33.0570   37.4560 C   0  0  0  0  0  0  0  0  0  0  0  0
   43.8290   34.0450   38.5790 C   0  0  0  0  0  0  0  0  0  0  0  0
   42.3360   34.1570   38.8000 C   0  0  0  0  0  0  0  0  0  0  0  0
   37.9460   31.5650   36.3250 H   0  0  0  0  0  0  0  0  0  0  0  0
   40.4860   32.1710   36.1820 H   0  0  0  0  0  0  0  0  0  0  0  0
   43.1630   32.0390   39.9650 H   0  0  0  0  0  0  0  0  0  0  0  0
   42.1140   30.8270   39.0960 H   0  0  0  0  0  0  0  0  0  0  0  0
   43.0570   31.2700   36.9900 H   0  0  0  0  0  0  0  0  0  0  0  0
   44.4580   31.0530   38.1460 H   0  0  0  0  0  0  0  0  0  0  0  0
   43.5720   33.4610   36.5690 H   0  0  0  0  0  0  0  0  0  0  0  0
   45.2000   33.0710   37.2460 H   0  0  0  0  0  0  0  0  0  0  0  0
   44.2490   35.0300   38.3100 H   0  0  0  0  0  0  0  0  0  0  0  0
   44.3310   33.6460   39.4810 H   0  0  0  0  0  0  0  0  0  0  0  0
   42.1230   34.6250   39.7860 H   0  0  0  0  0  0  0  0  0  0  0  0
   41.9740   34.8450   37.9840 H   0  0  0  0  0  0  0  0  0  0  0  0
   36.9160   31.7610   39.0480 C   0  0  0  0  0  0  0  0  0  0  0  0
   36.2590   31.2950   38.2780 H   0  0  0  0  0  0  0  0  0  0  0  0
   36.4610   32.7310   39.3600 H   0  0  0  0  0  0  0  0  0  0  0  0
   37.2170   29.5430   40.0860 C   0  0  0  0  0  3  0  0  0  0  0  0
   37.0020   30.8390   40.1990 C   0  0  0  0  0  3  0  0  0  0  0  0
   37.2730   28.7550   41.3110 C   0  0  0  0  0  0  0  0  0  0  0  0
   37.5380   29.3580   42.5730 C   0  0  0  0  0  0  0  0  0  0  0  0
   37.5770   28.5370   43.6800 C   0  0  0  0  0  0  0  0  0  0  0  0
   37.3680   27.2120   43.5410 N   0  0  0  0  0  0  0  0  0  0  0  0
   37.1180   26.6640   42.3360 C   0  0  0  0  0  0  0  0  0  0  0  0
   37.0710   27.4070   41.2500 N   0  0  0  0  0  0  0  0  0  0  0  0
   37.6930   30.4240   42.5870 H   0  0  0  0  0  0  0  0  0  0  0  0
   37.7810   29.0240   44.6220 H   0  0  0  0  0  0  0  0  0  0  0  0
   36.8940   25.1990   42.2360 C   0  0  0  0  0  3  0  0  0  0  0  0
   38.0270   24.3090   41.8110 C   0  0  0  0  0  2  0  0  0  0  0  0
   36.8170   24.5120   40.9370 C   0  0  0  0  0  2  0  0  0  0  0  0
  1 24  1  0  0  0  0
  1  5  1  0  0  0  0
  2  1  2  0  0  0  0
  3  2  1  0  0  0  0
  3  4  1  0  0  0  0
  4  6  1  0  0  0  0
  4  5  2  0  0  0  0
  6 11  1  0  0  0  0
  6  7  1  0  0  0  0
  7 15  1  0  0  0  0
  7 14  1  0  0  0  0
  8 17  1  0  0  0  0
  8  7  1  0  0  0  0
  9  8  1  0  0  0  0
  9 10  1  0  0  0  0
 10 11  1  0  0  0  0
 10 21  1  0  0  0  0
 11 22  1  0  0  0  0
 12  2  1  0  0  0  0
 13  3  1  0  0  0  0
 16  8  1  0  0  0  0
 18  9  1  0  0  0  0
 19  9  1  0  0  0  0
 20 10  1  0  0  0  0
 23 11  1  0  0  0  0
 24 26  1  0  0  0  0
 24 28  1  0  0  0  0
 25 24  1  0  0  0  0
 27 28  2  0  0  0  0
 27 29  1  0  0  0  0
 29 30  1  0  0  0  0
 30 35  1  0  0  0  0
 30 31  2  0  0  0  0
 31 36  1  0  0  0  0
 32 31  1  0  0  0  0
 33 32  2  0  0  0  0
 34 29  2  0  0  0  0
 34 33  1  0  0  0  0
 37 33  1  0  0  0  0
 38 37  1  0  0  0  0
 39 38  1  0  0  0  0
 39 37  1  0  0  0  0
M  END
>  <minimizedAffinity>
-5.66818094

$$$$

 OpenBabel03252504433D

 39 42  0  0  0  0  0  0  0  0999 V2000
   35.4610   28.6310   38.1220 C   0  0  0  0  0  0  0  0  0  0  0  0
   36.1050   29.8140   38.3260 C   0  0  0  0  0  0  0  0  0  0  0  0
   36.7500   29.7000   39.4890 N   0  0  0  0  0  0  0  0  0  0  0  0
   36.5440   28.4950   40.0320 C   0  0  0  0  0  0  0  0  0  0  0  0
   35.7310   27.8300   39.1630 N   0  0  0  0  0  0  0  0  0  0  0  0
   37.0100   27.9070   41.2410 N   0  0  0  0  0  0  0  0  0  0  0  0
   38.3080   27.1930   41.1820 C   0  0  0  0  0  0  0  0  0  0  0  0
   39.2980   28.1450   41.8510 C   0  0  0  0  0  0  0  0  0  0  0  0
   38.7440   28.6370   43.1610 C   0  0  0  0  0  0  0  0  0  0  0  0
   37.5800   27.7590   43.5920 C   0  0  0  0  0  0  0  0  0  0  0  0
   36.4740   27.8520   42.5630 C   0  0  0  0  0  0  0  0  0  0  0  0
   36.0940   30.6830   37.6680 H   0  0  0  0  0  0  0  0  0  0  0  0
   37.3450   30.4280   39.9500 H   0  0  0  0  0  0  0  0  0  0  0  0
   38.2440   26.2270   41.6950 H   0  0  0  0  0  0  0  0  0  0  0  0
   38.6470   27.0790   40.1340 H   0  0  0  0  0  0  0  0  0  0  0  0
   39.4650   29.0050   41.2010 H   0  0  0  0  0  0  0  0  0  0  0  0
   40.2450   27.5820   42.0420 H   0  0  0  0  0  0  0  0  0  0  0  0
   38.3300   29.6630   43.0780 H   0  0  0  0  0  0  0  0  0  0  0  0
   39.5010   28.6310   43.9870 H   0  0  0  0  0  0  0  0  0  0  0  0
   37.2120   28.0960   44.5770 H   0  0  0  0  0  0  0  0  0  0  0  0
   37.9700   26.7260   43.6590 H   0  0  0  0  0  0  0  0  0  0  0  0
   35.7550   27.0130   42.6880 H   0  0  0  0  0  0  0  0  0  0  0  0
   35.9460   28.8210   42.7920 H   0  0  0  0  0  0  0  0  0  0  0  0
   34.6090   28.2770   36.9480 C   0  0  0  0  0  0  0  0  0  0  0  0
   34.2930   27.2120   37.0400 H   0  0  0  0  0  0  0  0  0  0  0  0
   35.1960   28.3900   36.0050 H   0  0  0  0  0  0  0  0  0  0  0  0
   32.4570   29.1010   37.8290 C   0  0  0  0  0  3  0  0  0  0  0  0
   33.3950   29.1170   36.9020 C   0  0  0  0  0  3  0  0  0  0  0  0
   31.3100   29.9830   37.6490 C   0  0  0  0  0  0  0  0  0  0  0  0
   30.2550   30.0350   38.6020 C   0  0  0  0  0  0  0  0  0  0  0  0
   29.2070   30.8950   38.3520 C   0  0  0  0  0  0  0  0  0  0  0  0
   29.2090   31.6480   37.2330 N   0  0  0  0  0  0  0  0  0  0  0  0
   30.2200   31.5830   36.3450 C   0  0  0  0  0  0  0  0  0  0  0  0
   31.2430   30.7760   36.5410 N   0  0  0  0  0  0  0  0  0  0  0  0
   30.3390   29.3960   39.4660 H   0  0  0  0  0  0  0  0  0  0  0  0
   28.4210   30.9110   39.0930 H   0  0  0  0  0  0  0  0  0  0  0  0
   30.1760   32.4330   35.1290 C   0  0  0  0  0  3  0  0  0  0  0  0
   30.0610   31.7820   33.7800 C   0  0  0  0  0  2  0  0  0  0  0  0
   31.3110   32.5130   34.1950 C   0  0  0  0  0  2  0  0  0  0  0  0
  1  2  2  0  0  0  0
  1  5  1  0  0  0  0
  2  3  1  0  0  0  0
  3 13  1  0  0  0  0
  3  4  1  0  0  0  0
  4  6  1  0  0  0  0
  5  4  2  0  0  0  0
  6 11  1  0  0  0  0
  7  6  1  0  0  0  0
  7 14  1  0  0  0  0
  7  8  1  0  0  0  0
  8 17  1  0  0  0  0
  8  9  1  0  0  0  0
  9 10  1  0  0  0  0
  9 19  1  0  0  0  0
 10 21  1  0  0  0  0
 10 20  1  0  0  0  0
 11 22  1  0  0  0  0
 11 23  1  0  0  0  0
 11 10  1  0  0  0  0
 12  2  1  0  0  0  0
 15  7  1  0  0  0  0
 16  8  1  0  0  0  0
 18  9  1  0  0  0  0
 24 25  1  0  0  0  0
 24  1  1  0  0  0  0
 26 24  1  0  0  0  0
 28 24  1  0  0  0  0
 28 27  2  0  0  0  0
 29 27  1  0  0  0  0
 29 30  1  0  0  0  0
 30 35  1  0  0  0  0
 31 30  2  0  0  0  0
 31 36  1  0  0  0  0
 32 31  1  0  0  0  0
 33 34  1  0  0  0  0
 33 32  2  0  0  0  0
 34 29  2  0  0  0  0
 37 33  1  0  0  0  0
 38 39  1  0  0  0  0
 38 37  1  0  0  0  0
 39 37  1  0  0  0  0
M  END
>  <minimizedAffinity>
-5.43659353

$$$$

 OpenBabel03252504433D

 39 42  0  0  0  0  0  0  0  0999 V2000
   37.4080   31.4500   40.5680 C   0  0  0  0  0  0  0  0  0  0  0  0
   37.0420   32.3200   39.5840 C   0  0  0  0  0  0  0  0  0  0  0  0
   38.1620   32.9030   39.1560 N   0  0  0  0  0  0  0  0  0  0  0  0
   39.2260   32.4420   39.8240 C   0  0  0  0  0  0  0  0  0  0  0  0
   38.7390   31.5270   40.7110 N   0  0  0  0  0  0  0  0  0  0  0  0
   40.6120   32.7490   39.7300 N   0  0  0  0  0  0  0  0  0  0  0  0
   41.4090   31.9620   38.7590 C   0  0  0  0  0  0  0  0  0  0  0  0
   41.6310   32.9160   37.5860 C   0  0  0  0  0  0  0  0  0  0  0  0
   42.1160   34.2510   38.0840 C   0  0  0  0  0  0  0  0  0  0  0  0
   42.5980   34.1220   39.5200 C   0  0  0  0  0  0  0  0  0  0  0  0
   41.4430   33.6960   40.4010 C   0  0  0  0  0  0  0  0  0  0  0  0
   36.0300   32.5020   39.2210 H   0  0  0  0  0  0  0  0  0  0  0  0
   38.2450   33.6280   38.4040 H   0  0  0  0  0  0  0  0  0  0  0  0
   42.3490   31.6260   39.2090 H   0  0  0  0  0  0  0  0  0  0  0  0
   40.8180   31.1130   38.3610 H   0  0  0  0  0  0  0  0  0  0  0  0
   40.6860   33.0650   37.0610 H   0  0  0  0  0  0  0  0  0  0  0  0
   42.4090   32.4690   36.9180 H   0  0  0  0  0  0  0  0  0  0  0  0
   41.3030   35.0050   38.1090 H   0  0  0  0  0  0  0  0  0  0  0  0
   42.9600   34.6650   37.4750 H   0  0  0  0  0  0  0  0  0  0  0  0
   42.9980   35.0930   39.8610 H   0  0  0  0  0  0  0  0  0  0  0  0
   43.3950   33.3550   39.5190 H   0  0  0  0  0  0  0  0  0  0  0  0
   41.8190   33.3090   41.3740 H   0  0  0  0  0  0  0  0  0  0  0  0
   40.8570   34.6410   40.5870 H   0  0  0  0  0  0  0  0  0  0  0  0
   36.4980   30.5600   41.3480 C   0  0  0  0  0  0  0  0  0  0  0  0
   35.6100   30.3130   40.7220 H   0  0  0  0  0  0  0  0  0  0  0  0
   36.1460   31.0890   42.2660 H   0  0  0  0  0  0  0  0  0  0  0  0
   36.6990   28.1030   41.4200 C   0  0  0  0  0  3  0  0  0  0  0  0
   37.1740   29.2980   41.7100 C   0  0  0  0  0  3  0  0  0  0  0  0
   37.4740   26.9430   41.8440 C   0  0  0  0  0  0  0  0  0  0  0  0
   37.0430   25.6160   41.5610 C   0  0  0  0  0  0  0  0  0  0  0  0
   37.8350   24.5780   42.0020 C   0  0  0  0  0  0  0  0  0  0  0  0
   38.9730   24.8400   42.6770 N   0  0  0  0  0  0  0  0  0  0  0  0
   39.3600   26.1050   42.9330 C   0  0  0  0  0  0  0  0  0  0  0  0
   38.6370   27.1300   42.5320 N   0  0  0  0  0  0  0  0  0  0  0  0
   36.1210   25.5030   41.0160 H   0  0  0  0  0  0  0  0  0  0  0  0
   37.4820   23.5830   41.7730 H   0  0  0  0  0  0  0  0  0  0  0  0
   40.6220   26.3420   43.6800 C   0  0  0  0  0  3  0  0  0  0  0  0
   41.3570   27.6380   43.4900 C   0  0  0  0  0  2  0  0  0  0  0  0
   41.9330   26.3310   43.0110 C   0  0  0  0  0  2  0  0  0  0  0  0
  1  5  1  0  0  0  0
  1 24  1  0  0  0  0
  2  1  2  0  0  0  0
  3  2  1  0  0  0  0
  3  4  1  0  0  0  0
  4  5  2  0  0  0  0
  6  4  1  0  0  0  0
  6 11  1  0  0  0  0
  7 14  1  0  0  0  0
  7  6  1  0  0  0  0
  8  9  1  0  0  0  0
  8  7  1  0  0  0  0
  9 18  1  0  0  0  0
  9 10  1  0  0  0  0
 10 20  1  0  0  0  0
 10 11  1  0  0  0  0
 11 23  1  0  0  0  0
 11 22  1  0  0  0  0
 12  2  1  0  0  0  0
 13  3  1  0  0  0  0
 15  7  1  0  0  0  0
 16  8  1  0  0  0  0
 17  8  1  0  0  0  0
 19  9  1  0  0  0  0
 21 10  1  0  0  0  0
 24 28  1  0  0  0  0
 24 26  1  0  0  0  0
 25 24  1  0  0  0  0
 27 28  2  0  0  0  0
 27 29  1  0  0  0  0
 29 34  1  0  0  0  0
 30 29  2  0  0  0  0
 30 31  1  0  0  0  0
 31 32  2  0  0  0  0
 32 33  1  0  0  0  0
 33 37  1  0  0  0  0
 34 33  2  0  0  0  0
 35 30  1  0  0  0  0
 36 31  1  0  0  0  0
 38 37  1  0  0  0  0
 39 38  1  0  0  0  0
 39 37  1  0  0  0  0
M  END
>  <minimizedAffinity>
-5.43125772

$$$$

 OpenBabel03252504433D

 39 42  0  0  0  0  0  0  0  0999 V2000
   33.5950   28.3660   36.4600 C   0  0  0  0  0  0  0  0  0  0  0  0
   34.2550   28.9200   35.4040 C   0  0  0  0  0  0  0  0  0  0  0  0
   33.3780   29.7040   34.7760 N   0  0  0  0  0  0  0  0  0  0  0  0
   32.1880   29.6750   35.3870 C   0  0  0  0  0  0  0  0  0  0  0  0
   32.3360   28.8290   36.4460 N   0  0  0  0  0  0  0  0  0  0  0  0
   30.9580   30.3320   35.1030 N   0  0  0  0  0  0  0  0  0  0  0  0
   30.7610   31.6740   35.7030 C   0  0  0  0  0  0  0  0  0  0  0  0
   30.9710   32.6450   34.5420 C   0  0  0  0  0  0  0  0  0  0  0  0
   30.1710   32.2070   33.3450 C   0  0  0  0  0  0  0  0  0  0  0  0
   29.1260   31.1860   33.7670 C   0  0  0  0  0  0  0  0  0  0  0  0
   29.8180   29.9630   34.3290 C   0  0  0  0  0  0  0  0  0  0  0  0
   35.2960   28.7520   35.1280 H   0  0  0  0  0  0  0  0  0  0  0  0
   33.5530   30.2820   33.9200 H   0  0  0  0  0  0  0  0  0  0  0  0
   29.7630   31.7590   36.1450 H   0  0  0  0  0  0  0  0  0  0  0  0
   31.5570   31.8960   36.4410 H   0  0  0  0  0  0  0  0  0  0  0  0
   32.0270   32.6540   34.2680 H   0  0  0  0  0  0  0  0  0  0  0  0
   30.6190   33.6550   34.8680 H   0  0  0  0  0  0  0  0  0  0  0  0
   30.8010   31.6940   32.5890 H   0  0  0  0  0  0  0  0  0  0  0  0
   29.6390   33.0530   32.8400 H   0  0  0  0  0  0  0  0  0  0  0  0
   28.5120   30.9080   32.8930 H   0  0  0  0  0  0  0  0  0  0  0  0
   28.5010   31.6740   34.5380 H   0  0  0  0  0  0  0  0  0  0  0  0
   29.1000   29.3430   34.9100 H   0  0  0  0  0  0  0  0  0  0  0  0
   30.1530   29.3800   33.4240 H   0  0  0  0  0  0  0  0  0  0  0  0
   34.1630   27.4180   37.4630 C   0  0  0  0  0  0  0  0  0  0  0  0
   34.7100   26.6090   36.9250 H   0  0  0  0  0  0  0  0  0  0  0  0
   33.3390   26.9530   38.0550 H   0  0  0  0  0  0  0  0  0  0  0  0
   34.7740   29.0590   39.2000 C   0  0  0  0  0  3  0  0  0  0  0  0
   35.1170   28.1030   38.3590 C   0  0  0  0  0  3  0  0  0  0  0  0
   35.8250   29.6490   40.0220 C   0  0  0  0  0  0  0  0  0  0  0  0
   36.4460   30.8780   39.6640 C   0  0  0  0  0  0  0  0  0  0  0  0
   37.4330   31.3620   40.4970 C   0  0  0  0  0  0  0  0  0  0  0  0
   37.7760   30.6730   41.6030 N   0  0  0  0  0  0  0  0  0  0  0  0
   37.1730   29.5110   41.9210 C   0  0  0  0  0  0  0  0  0  0  0  0
   36.2250   29.0080   41.1580 N   0  0  0  0  0  0  0  0  0  0  0  0
   36.1070   31.3590   38.7620 H   0  0  0  0  0  0  0  0  0  0  0  0
   37.8870   32.2960   40.1990 H   0  0  0  0  0  0  0  0  0  0  0  0
   37.5870   28.7900   43.1520 C   0  0  0  0  0  3  0  0  0  0  0  0
   38.1620   27.4070   43.0360 C   0  0  0  0  0  2  0  0  0  0  0  0
   36.8210   27.6480   43.6780 C   0  0  0  0  0  2  0  0  0  0  0  0
  1 24  1  0  0  0  0
  2  1  2  0  0  0  0
  3  4  1  0  0  0  0
  3  2  1  0  0  0  0
  4  5  2  0  0  0  0
  5  1  1  0  0  0  0
  6  4  1  0  0  0  0
  6  7  1  0  0  0  0
  7 14  1  0  0  0  0
  7 15  1  0  0  0  0
  8 17  1  0  0  0  0
  8  7  1  0  0  0  0
  9 10  1  0  0  0  0
  9  8  1  0  0  0  0
 10 11  1  0  0  0  0
 10 21  1  0  0  0  0
 11 22  1  0  0  0  0
 11  6  1  0  0  0  0
 12  2  1  0  0  0  0
 13  3  1  0  0  0  0
 16  8  1  0  0  0  0
 18  9  1  0  0  0  0
 19  9  1  0  0  0  0
 20 10  1  0  0  0  0
 23 11  1  0  0  0  0
 24 26  1  0  0  0  0
 24 28  1  0  0  0  0
 25 24  1  0  0  0  0
 27 29  1  0  0  0  0
 28 27  2  0  0  0  0
 29 34  1  0  0  0  0
 30 29  2  0  0  0  0
 30 31  1  0  0  0  0
 31 32  2  0  0  0  0
 32 33  1  0  0  0  0
 33 37  1  0  0  0  0
 34 33  2  0  0  0  0
 35 30  1  0  0  0  0
 36 31  1  0  0  0  0
 37 39  1  0  0  0  0
 38 37  1  0  0  0  0
 38 39  1  0  0  0  0
M  END
>  <minimizedAffinity>
-5.4092164

$$$$

 OpenBabel03252504433D

 39 42  0  0  0  0  0  0  0  0999 V2000
   36.5020   30.0500   37.5030 C   0  0  0  0  0  0  0  0  0  0  0  0
   37.1980   30.6400   36.4900 C   0  0  0  0  0  0  0  0  0  0  0  0
   37.9840   31.5580   37.0540 N   0  0  0  0  0  0  0  0  0  0  0  0
   37.8200   31.5770   38.3810 C   0  0  0  0  0  0  0  0  0  0  0  0
   36.8840   30.6240   38.6540 N   0  0  0  0  0  0  0  0  0  0  0  0
   38.4250   32.3640   39.4020 N   0  0  0  0  0  0  0  0  0  0  0  0
   39.6850   31.8480   39.9880 C   0  0  0  0  0  0  0  0  0  0  0  0
   40.7770   32.7170   39.3670 C   0  0  0  0  0  0  0  0  0  0  0  0
   40.4120   34.1730   39.4770 C   0  0  0  0  0  0  0  0  0  0  0  0
   39.2910   34.3490   40.4880 C   0  0  0  0  0  0  0  0  0  0  0  0
   38.0630   33.6020   40.0130 C   0  0  0  0  0  0  0  0  0  0  0  0
   37.1230   30.4070   35.4280 H   0  0  0  0  0  0  0  0  0  0  0  0
   38.6540   32.1970   36.5640 H   0  0  0  0  0  0  0  0  0  0  0  0
   39.6630   31.9200   41.0810 H   0  0  0  0  0  0  0  0  0  0  0  0
   39.8820   30.8120   39.6490 H   0  0  0  0  0  0  0  0  0  0  0  0
   40.8800   32.4640   38.3100 H   0  0  0  0  0  0  0  0  0  0  0  0
   41.7270   32.5340   39.9300 H   0  0  0  0  0  0  0  0  0  0  0  0
   40.0170   34.5740   38.5210 H   0  0  0  0  0  0  0  0  0  0  0  0
   41.2690   34.8160   39.7990 H   0  0  0  0  0  0  0  0  0  0  0  0
   39.0630   35.4230   40.5990 H   0  0  0  0  0  0  0  0  0  0  0  0
   39.6600   33.9320   41.4450 H   0  0  0  0  0  0  0  0  0  0  0  0
   37.3460   33.4610   40.8510 H   0  0  0  0  0  0  0  0  0  0  0  0
   37.5950   34.2770   39.2420 H   0  0  0  0  0  0  0  0  0  0  0  0
   35.4950   28.9560   37.3670 C   0  0  0  0  0  0  0  0  0  0  0  0
   35.6440   28.4490   36.3860 H   0  0  0  0  0  0  0  0  0  0  0  0
   34.4650   29.3830   37.3920 H   0  0  0  0  0  0  0  0  0  0  0  0
   36.5080   26.9410   38.3680 C   0  0  0  0  0  3  0  0  0  0  0  0
   35.6610   27.9490   38.4350 C   0  0  0  0  0  3  0  0  0  0  0  0
   36.5610   26.0220   39.4990 C   0  0  0  0  0  0  0  0  0  0  0  0
   36.2330   24.6450   39.3540 C   0  0  0  0  0  0  0  0  0  0  0  0
   36.3060   23.8480   40.4760 C   0  0  0  0  0  0  0  0  0  0  0  0
   36.6780   24.3820   41.6570 N   0  0  0  0  0  0  0  0  0  0  0  0
   36.9850   25.6890   41.7690 C   0  0  0  0  0  0  0  0  0  0  0  0
   36.9290   26.4910   40.7260 N   0  0  0  0  0  0  0  0  0  0  0  0
   35.9460   24.3070   38.3720 H   0  0  0  0  0  0  0  0  0  0  0  0
   36.0510   22.8080   40.3350 H   0  0  0  0  0  0  0  0  0  0  0  0
   37.3900   26.2300   43.0920 C   0  0  0  0  0  3  0  0  0  0  0  0
   36.8750   27.5730   43.5270 C   0  0  0  0  0  2  0  0  0  0  0  0
   38.3330   27.3530   43.2160 C   0  0  0  0  0  2  0  0  0  0  0  0
  1  5  1  0  0  0  0
  2  3  1  0  0  0  0
  2  1  2  0  0  0  0
  3  4  1  0  0  0  0
  4  5  2  0  0  0  0
  4  6  1  0  0  0  0
  6  7  1  0  0  0  0
  6 11  1  0  0  0  0
  7 14  1  0  0  0  0
  8  9  1  0  0  0  0
  8 17  1  0  0  0  0
  8  7  1  0  0  0  0
  9 19  1  0  0  0  0
  9 10  1  0  0  0  0
 10 20  1  0  0  0  0
 10 21  1  0  0  0  0
 11 10  1  0  0  0  0
 11 22  1  0  0  0  0
 12  2  1  0  0  0  0
 13  3  1  0  0  0  0
 15  7  1  0  0  0  0
 16  8  1  0  0  0  0
 18  9  1  0  0  0  0
 23 11  1  0  0  0  0
 24 26  1  0  0  0  0
 24  1  1  0  0  0  0
 24 28  1  0  0  0  0
 25 24  1  0  0  0  0
 27 28  2  0  0  0  0
 27 29  1  0  0  0  0
 29 34  1  0  0  0  0
 30 29  2  0  0  0  0
 30 31  1  0  0  0  0
 31 32  2  0  0  0  0
 32 33  1  0  0  0  0
 33 37  1  0  0  0  0
 34 33  2  0  0  0  0
 35 30  1  0  0  0  0
 36 31  1  0  0  0  0
 37 39  1  0  0  0  0
 37 38  1  0  0  0  0
 39 38  1  0  0  0  0
M  END
>  <minimizedAffinity>
-5.40065002

$$$$

 OpenBabel03252504433D

 39 42  0  0  0  0  0  0  0  0999 V2000
   37.3710   31.8200   40.3130 C   0  0  0  0  0  0  0  0  0  0  0  0
   37.0910   32.7050   39.3150 C   0  0  0  0  0  0  0  0  0  0  0  0
   38.2590   33.2090   38.9150 N   0  0  0  0  0  0  0  0  0  0  0  0
   39.2710   32.6830   39.6140 C   0  0  0  0  0  0  0  0  0  0  0  0
   38.7010   31.8090   40.4920 N   0  0  0  0  0  0  0  0  0  0  0  0
   40.6770   32.8960   39.5560 N   0  0  0  0  0  0  0  0  0  0  0  0
   41.4450   32.0500   38.6110 C   0  0  0  0  0  0  0  0  0  0  0  0
   41.7610   32.9790   37.4400 C   0  0  0  0  0  0  0  0  0  0  0  0
   42.3220   34.2820   37.9430 C   0  0  0  0  0  0  0  0  0  0  0  0
   42.7550   34.1310   39.3920 C   0  0  0  0  0  0  0  0  0  0  0  0
   41.5510   33.7900   40.2440 C   0  0  0  0  0  0  0  0  0  0  0  0
   36.1040   32.9520   38.9240 H   0  0  0  0  0  0  0  0  0  0  0  0
   38.4100   33.9210   38.1610 H   0  0  0  0  0  0  0  0  0  0  0  0
   42.3480   31.6560   39.0880 H   0  0  0  0  0  0  0  0  0  0  0  0
   40.8090   31.2400   38.2020 H   0  0  0  0  0  0  0  0  0  0  0  0
   40.8420   33.1870   36.8880 H   0  0  0  0  0  0  0  0  0  0  0  0
   42.5250   32.4760   36.7950 H   0  0  0  0  0  0  0  0  0  0  0  0
   41.5610   35.0890   37.9410 H   0  0  0  0  0  0  0  0  0  0  0  0
   43.2070   34.6340   37.3550 H   0  0  0  0  0  0  0  0  0  0  0  0
   43.2100   35.0760   39.7380 H   0  0  0  0  0  0  0  0  0  0  0  0
   43.4990   33.3130   39.4170 H   0  0  0  0  0  0  0  0  0  0  0  0
   41.8740   33.3860   41.2280 H   0  0  0  0  0  0  0  0  0  0  0  0
   41.0250   34.7740   40.4080 H   0  0  0  0  0  0  0  0  0  0  0  0
   36.3830   30.9990   41.0740 C   0  0  0  0  0  0  0  0  0  0  0  0
   35.3640   31.4190   40.9110 H   0  0  0  0  0  0  0  0  0  0  0  0
   36.6140   31.0430   42.1650 H   0  0  0  0  0  0  0  0  0  0  0  0
   35.8020   29.1980   39.4930 C   0  0  0  0  0  3  0  0  0  0  0  0
   36.3860   29.5990   40.6050 C   0  0  0  0  0  3  0  0  0  0  0  0
   35.8830   27.7810   39.1560 C   0  0  0  0  0  0  0  0  0  0  0  0
   35.3120   27.2670   37.9580 C   0  0  0  0  0  0  0  0  0  0  0  0
   35.4320   25.9140   37.7210 C   0  0  0  0  0  0  0  0  0  0  0  0
   36.0720   25.1300   38.6110 N   0  0  0  0  0  0  0  0  0  0  0  0
   36.6050   25.6400   39.7390 C   0  0  0  0  0  0  0  0  0  0  0  0
   36.5160   26.9250   40.0100 N   0  0  0  0  0  0  0  0  0  0  0  0
   34.8190   27.9690   37.3060 H   0  0  0  0  0  0  0  0  0  0  0  0
   34.9880   25.5540   36.8040 H   0  0  0  0  0  0  0  0  0  0  0  0
   37.3010   24.7340   40.6870 C   0  0  0  0  0  3  0  0  0  0  0  0
   36.8760   24.7110   42.1290 C   0  0  0  0  0  2  0  0  0  0  0  0
   38.2230   25.2450   41.7150 C   0  0  0  0  0  2  0  0  0  0  0  0
  1  5  1  0  0  0  0
  1 24  1  0  0  0  0
  2  1  2  0  0  0  0
  3  2  1  0  0  0  0
  3  4  1  0  0  0  0
  4  5  2  0  0  0  0
  6  4  1  0  0  0  0
  6 11  1  0  0  0  0
  7 14  1  0  0  0  0
  7  6  1  0  0  0  0
  8  9  1  0  0  0  0
  8  7  1  0  0  0  0
  9 10  1  0  0  0  0
 10 21  1  0  0  0  0
 10 20  1  0  0  0  0
 10 11  1  0  0  0  0
 11 23  1  0  0  0  0
 11 22  1  0  0  0  0
 12  2  1  0  0  0  0
 13  3  1  0  0  0  0
 15  7  1  0  0  0  0
 16  8  1  0  0  0  0
 17  8  1  0  0  0  0
 18  9  1  0  0  0  0
 19  9  1  0  0  0  0
 24 26  1  0  0  0  0
 25 24  1  0  0  0  0
 27 28  2  0  0  0  0
 28 24  1  0  0  0  0
 29 27  1  0  0  0  0
 29 34  1  0  0  0  0
 30 29  2  0  0  0  0
 31 30  1  0  0  0  0
 31 32  2  0  0  0  0
 32 33  1  0  0  0  0
 33 34  2  0  0  0  0
 33 37  1  0  0  0  0
 35 30  1  0  0  0  0
 36 31  1  0  0  0  0
 37 39  1  0  0  0  0
 37 38  1  0  0  0  0
 39 38  1  0  0  0  0
M  END
>  <minimizedAffinity>
-5.36601782

$$$$

 OpenBabel03252504433D

 39 42  0  0  0  0  0  0  0  0999 V2000
   37.2640   31.6060   40.1530 C   0  0  0  0  0  0  0  0  0  0  0  0
   37.0260   32.0470   38.8860 C   0  0  0  0  0  0  0  0  0  0  0  0
   38.1730   32.5630   38.4410 N   0  0  0  0  0  0  0  0  0  0  0  0
   39.1310   32.4690   39.3690 C   0  0  0  0  0  0  0  0  0  0  0  0
   38.5480   31.8640   40.4440 N   0  0  0  0  0  0  0  0  0  0  0  0
   40.4970   32.8670   39.3680 N   0  0  0  0  0  0  0  0  0  0  0  0
   41.4810   31.8840   38.8570 C   0  0  0  0  0  0  0  0  0  0  0  0
   41.8490   32.4000   37.4660 C   0  0  0  0  0  0  0  0  0  0  0  0
   42.1800   33.8670   37.5250 C   0  0  0  0  0  0  0  0  0  0  0  0
   42.4210   34.2840   38.9670 C   0  0  0  0  0  0  0  0  0  0  0  0
   41.1570   34.0660   39.7710 C   0  0  0  0  0  0  0  0  0  0  0  0
   36.0820   31.9890   38.3450 H   0  0  0  0  0  0  0  0  0  0  0  0
   38.3440   32.9930   37.5010 H   0  0  0  0  0  0  0  0  0  0  0  0
   42.3490   31.8200   39.5220 H   0  0  0  0  0  0  0  0  0  0  0  0
   41.0070   30.8940   38.7040 H   0  0  0  0  0  0  0  0  0  0  0  0
   40.9990   32.2630   36.7960 H   0  0  0  0  0  0  0  0  0  0  0  0
   42.7480   31.8360   37.1140 H   0  0  0  0  0  0  0  0  0  0  0  0
   41.3390   34.4970   37.1690 H   0  0  0  0  0  0  0  0  0  0  0  0
   43.0920   34.1350   36.9340 H   0  0  0  0  0  0  0  0  0  0  0  0
   42.7120   35.3490   38.9960 H   0  0  0  0  0  0  0  0  0  0  0  0
   43.2440   33.6500   39.3470 H   0  0  0  0  0  0  0  0  0  0  0  0
   41.3840   34.0730   40.8600 H   0  0  0  0  0  0  0  0  0  0  0  0
   40.5040   34.9520   39.5290 H   0  0  0  0  0  0  0  0  0  0  0  0
   36.2810   30.9450   41.0620 C   0  0  0  0  0  0  0  0  0  0  0  0
   35.2570   31.3000   40.8050 H   0  0  0  0  0  0  0  0  0  0  0  0
   36.4970   31.2250   42.1210 H   0  0  0  0  0  0  0  0  0  0  0  0
   36.9990   28.6700   41.6880 C   0  0  0  0  0  3  0  0  0  0  0  0
   36.3150   29.4770   40.9010 C   0  0  0  0  0  3  0  0  0  0  0  0
   36.9420   27.2390   41.4070 C   0  0  0  0  0  0  0  0  0  0  0  0
   37.1120   26.2720   42.4370 C   0  0  0  0  0  0  0  0  0  0  0  0
   37.0470   24.9410   42.0820 C   0  0  0  0  0  0  0  0  0  0  0  0
   36.8300   24.5990   40.7960 N   0  0  0  0  0  0  0  0  0  0  0  0
   36.6710   25.5330   39.8390 C   0  0  0  0  0  0  0  0  0  0  0  0
   36.7250   26.8170   40.1280 N   0  0  0  0  0  0  0  0  0  0  0  0
   37.2820   26.6390   43.4360 H   0  0  0  0  0  0  0  0  0  0  0  0
   37.1810   24.2310   42.8850 H   0  0  0  0  0  0  0  0  0  0  0  0
   36.4330   25.1050   38.4370 C   0  0  0  0  0  3  0  0  0  0  0  0
   35.9680   26.1150   37.4270 C   0  0  0  0  0  2  0  0  0  0  0  0
   35.0750   24.9890   37.8800 C   0  0  0  0  0  2  0  0  0  0  0  0
  1  5  1  0  0  0  0
  1 24  1  0  0  0  0
  2  1  2  0  0  0  0
  3  2  1  0  0  0  0
  3  4  1  0  0  0  0
  4  5  2  0  0  0  0
  6  4  1  0  0  0  0
  6 11  1  0  0  0  0
  7  6  1  0  0  0  0
  7 14  1  0  0  0  0
  8  9  1  0  0  0  0
  8  7  1  0  0  0  0
  9 10  1  0  0  0  0
 10 20  1  0  0  0  0
 10 21  1  0  0  0  0
 10 11  1  0  0  0  0
 11 22  1  0  0  0  0
 12  2  1  0  0  0  0
 13  3  1  0  0  0  0
 15  7  1  0  0  0  0
 16  8  1  0  0  0  0
 17  8  1  0  0  0  0
 18  9  1  0  0  0  0
 19  9  1  0  0  0  0
 23 11  1  0  0  0  0
 24 26  1  0  0  0  0
 25 24  1  0  0  0  0
 28 24  1  0  0  0  0
 28 27  2  0  0  0  0
 29 27  1  0  0  0  0
 29 30  1  0  0  0  0
 30 35  1  0  0  0  0
 31 30  2  0  0  0  0
 31 36  1  0  0  0  0
 32 31  1  0  0  0  0
 33 34  1  0  0  0  0
 33 32  2  0  0  0  0
 34 29  2  0  0  0  0
 37 33  1  0  0  0  0
 38 39  1  0  0  0  0
 38 37  1  0  0  0  0
 39 37  1  0  0  0  0
M  END
>  <minimizedAffinity>
-5.35901833

$$$$
