
 OpenBabel03252508393D

 35 38  0  0  0  0  0  0  0  0999 V2000
   45.1340   33.9540   40.7100 C   0  0  0  0  0  0  0  0  0  0  0  0
   44.0910   33.6370   39.8950 C   0  0  0  0  0  0  0  0  0  0  0  0
   44.3890   33.1390   38.6520 C   0  0  0  0  0  0  0  0  0  0  0  0
   45.6710   32.9470   38.2030 C   0  0  0  0  0  0  0  0  0  0  0  0
   46.6990   33.2760   39.0490 C   0  0  0  0  0  0  0  0  0  0  0  0
   46.4540   33.7810   40.3070 C   0  0  0  0  0  0  0  0  0  0  0  0
   43.5640   32.8850   38.0010 H   0  0  0  0  0  0  0  0  0  0  0  0
   45.8540   32.5450   37.2020 H   0  0  0  0  0  0  0  0  0  0  0  0
   47.7240   33.1280   38.7000 H   0  0  0  0  0  0  0  0  0  0  0  0
   40.8060   35.2610   40.7940 C   0  0  0  0  0  0  0  0  0  0  0  0
   42.1130   35.1010   40.2730 C   0  0  0  0  0  0  0  0  0  0  0  0
   42.7490   33.8550   40.4120 C   0  0  0  0  0  0  0  0  0  0  0  0
   42.0440   32.8980   41.0410 N   0  0  0  0  0  0  0  0  0  0  0  0
   40.8120   33.0720   41.5230 C   0  0  0  0  0  0  0  0  0  0  0  0
   40.1960   34.2600   41.3970 N   0  0  0  0  0  0  0  0  0  0  0  0
   40.2060   36.5280   40.6350 N   0  0  0  0  0  0  0  0  0  0  0  0
   42.6830   35.8590   39.7710 H   0  0  0  0  0  0  0  0  0  0  0  0
   40.2770   32.2770   42.0230 H   0  0  0  0  0  0  0  0  0  0  0  0
   39.8000   36.5390   39.6610 H   0  0  0  0  0  0  0  0  0  0  0  0
   40.4000   36.9590   41.5450 H   0  0  0  0  0  0  0  0  0  0  0  0
   47.6130   34.1000   41.1300 C   0  0  0  0  0  0  0  0  0  0  0  0
   48.1390   35.3600   40.9380 C   0  0  0  0  0  0  0  0  0  0  0  0
   49.2520   35.8330   41.6420 C   0  0  0  0  0  0  0  0  0  0  0  0
   49.8310   34.9790   42.5670 C   0  0  0  0  0  0  0  0  0  0  0  0
   49.3180   33.7270   42.7670 C   0  0  0  0  0  0  0  0  0  0  0  0
   48.2150   33.2840   42.0550 C   0  0  0  0  0  0  0  0  0  0  0  0
   47.7450   36.0830   40.2360 H   0  0  0  0  0  0  0  0  0  0  0  0
   49.6630   36.8210   41.4900 H   0  0  0  0  0  0  0  0  0  0  0  0
   50.7000   35.2620   43.1620 H   0  0  0  0  0  0  0  0  0  0  0  0
   49.7340   33.0400   43.4690 H   0  0  0  0  0  0  0  0  0  0  0  0
   47.5700   31.9370   42.1900 C   0  0  0  0  0  3  0  0  0  0  0  0
   48.0700   30.7550   41.4830 C   0  0  0  0  0  2  0  0  0  0  0  0
   48.3990   30.8780   42.9440 C   0  0  0  0  0  2  0  0  0  0  0  0
   44.7350   34.9100   43.1080 N   0  0  0  0  0  0  0  0  0  0  0  0
   44.9110   34.4850   42.0330 C   0  0  0  0  0  0  0  0  0  0  0  0
  1 35  1  0  0  0  0
  2 12  1  0  0  0  0
  2  1  2  0  0  0  0
  3  2  1  0  0  0  0
  4  3  2  0  0  0  0
  4  5  1  0  0  0  0
  5  6  2  0  0  0  0
  6  1  1  0  0  0  0
  6 21  1  0  0  0  0
  7  3  1  0  0  0  0
  8  4  1  0  0  0  0
  9  5  1  0  0  0  0
 10 15  1  0  0  0  0
 11 12  1  0  0  0  0
 11 10  2  0  0  0  0
 12 13  2  0  0  0  0
 13 14  1  0  0  0  0
 14 18  1  0  0  0  0
 15 14  2  0  0  0  0
 16 10  1  0  0  0  0
 16 20  1  0  0  0  0
 17 11  1  0  0  0  0
 19 16  1  0  0  0  0
 21 26  1  0  0  0  0
 22 21  2  0  0  0  0
 22 23  1  0  0  0  0
 23 24  2  0  0  0  0
 24 25  1  0  0  0  0
 24 29  1  0  0  0  0
 25 30  1  0  0  0  0
 26 31  1  0  0  0  0
 26 25  2  0  0  0  0
 27 22  1  0  0  0  0
 28 23  1  0  0  0  0
 31 33  1  0  0  0  0
 32 31  1  0  0  0  0
 32 33  1  0  0  0  0
 35 34  3  0  0  0  0
M  END
>  <minimizedAffinity>
-5.87991524

>  <minimizedRMSD>
0.507904947

$$$$
