
 OpenBabel03252508213D

 28 30  0  0  0  0  0  0  0  0999 V2000
   44.2190   33.5030   40.9210 C   0  0  0  0  0  0  0  0  0  0  0  0
   43.5840   33.9930   41.7070 H   0  0  0  0  0  0  0  0  0  0  0  0
   44.1310   32.4280   41.0910 H   0  0  0  0  0  0  0  0  0  0  0  0
   45.5840   34.0330   41.1030 C   0  0  0  0  0  0  0  0  0  0  0  0
   46.5820   33.9720   40.1410 C   0  0  0  0  0  0  0  0  0  0  0  0
   47.8440   34.4710   40.3200 C   0  0  0  0  0  0  0  0  0  0  0  0
   48.1150   35.0690   41.5450 C   0  0  0  0  0  0  0  0  0  0  0  0
   47.1420   35.1420   42.5140 C   0  0  0  0  0  0  0  0  0  0  0  0
   45.8890   34.6370   42.3140 C   0  0  0  0  0  0  0  0  0  0  0  0
   46.3190   33.4970   39.2050 H   0  0  0  0  0  0  0  0  0  0  0  0
   48.5990   34.4090   39.5550 H   0  0  0  0  0  0  0  0  0  0  0  0
   49.1150   35.4640   41.6870 H   0  0  0  0  0  0  0  0  0  0  0  0
   47.4470   35.6240   43.4330 H   0  0  0  0  0  0  0  0  0  0  0  0
   44.8520   34.7210   43.3620 C   0  0  0  0  0  0  0  0  0  0  0  0
   45.1660   34.7310   44.8080 C   0  0  0  0  0  0  0  0  0  0  0  0
   44.7000   36.0030   44.1570 C   0  0  0  0  0  0  0  0  0  0  0  0
   43.6270   33.9290   39.5910 C   0  0  0  0  0  0  0  0  0  0  0  0
   43.4940   33.0490   38.9390 H   0  0  0  0  0  0  0  0  0  0  0  0
   44.2970   34.6750   39.1440 H   0  0  0  0  0  0  0  0  0  0  0  0
   40.8750   35.9610   41.1650 C   0  0  0  0  0  0  0  0  0  0  0  0
   42.1510   35.3820   40.9570 C   0  0  0  0  0  0  0  0  0  0  0  0
   42.3090   34.5610   39.8530 C   0  0  0  0  0  0  0  0  0  0  0  0
   41.2300   34.3580   39.0340 N   0  0  0  0  0  0  0  0  0  0  0  0
   40.0320   34.9200   39.2560 C   0  0  0  0  0  0  0  0  0  0  0  0
   39.8580   35.7290   40.3330 N   0  0  0  0  0  0  0  0  0  0  0  0
   40.7310   36.5990   42.0130 H   0  0  0  0  0  0  0  0  0  0  0  0
   42.9830   35.5480   41.6040 H   0  0  0  0  0  0  0  0  0  0  0  0
   39.3040   34.6450   38.5020 H   0  0  0  0  0  0  0  0  0  0  0  0
  1  3  1  0  0  0  0
  1  4  1  0  0  0  0
  1  2  1  0  0  0  0
  4  9  1  0  0  0  0
  5  6  1  0  0  0  0
  5  4  2  0  0  0  0
  6  7  2  0  0  0  0
  7 12  1  0  0  0  0
  7  8  1  0  0  0  0
  8 13  1  0  0  0  0
  9  8  2  0  0  0  0
  9 14  1  0  0  0  0
 10  5  1  0  0  0  0
 11  6  1  0  0  0  0
 14 16  1  0  0  0  0
 14 15  1  0  0  0  0
 16 15  1  0  0  0  0
 17 22  1  0  0  0  0
 17  1  1  0  0  0  0
 18 17  1  0  0  0  0
 19 17  1  0  0  0  0
 20 26  1  0  0  0  0
 21 20  1  0  0  0  0
 21 27  1  0  0  0  0
 22 21  2  0  0  0  0
 23 24  2  0  0  0  0
 23 22  1  0  0  0  0
 24 25  1  0  0  0  0
 25 20  2  0  0  0  0
 28 24  1  0  0  0  0
M  END
>  <minimizedAffinity>
-5.08434677

>  <minimizedRMSD>
1.65690792

$$$$
