
     RDKit          3D

 44 48  0  0  0  0  0  0  0  0999 V2000
   47.5342   32.6726   44.2678 C   0  0  0  0  0  0  0  0  0  0  0  0
   46.8357   33.6458   43.5590 C   0  0  0  0  0  0  0  0  0  0  0  0
   45.7814   34.3683   44.0946 C   0  0  0  0  0  0  0  0  0  0  0  0
   45.3954   34.1108   45.4133 C   0  0  0  0  0  0  0  0  0  0  0  0
   44.4448   34.6004   46.2444 N   0  0  0  0  0  0  0  0  0  0  0  0
   44.5297   33.9685   47.4350 C   0  0  0  0  0  0  0  0  0  0  0  0
   45.5355   33.0947   47.3210 N   0  0  0  0  0  0  0  0  0  0  0  0
   46.0913   33.1527   46.0947 C   0  0  0  0  0  0  0  0  0  0  0  0
   47.1476   32.4133   45.5917 C   0  0  0  0  0  0  0  0  0  0  0  0
   47.0698   33.4291   39.9021 C   0  0  0  0  0  0  0  0  0  0  0  0
   47.9743   34.4393   39.5919 C   0  0  0  0  0  0  0  0  0  0  0  0
   48.4995   35.1899   40.6389 C   0  0  0  0  0  0  0  0  0  0  0  0
   48.1170   34.9178   41.9298 N   0  0  0  0  0  0  0  0  0  0  0  0
   47.2320   33.9221   42.1794 C   0  0  0  0  0  0  0  0  0  0  0  0
   46.6910   33.1607   41.1886 N   0  0  0  0  0  0  0  0  0  0  0  0
   44.9148   35.5982   43.1670 S   0  0  0  0  0  0  0  0  0  0  0  0
   42.3298   35.6189   42.6882 N   0  0  0  0  0  0  0  0  0  0  0  0
   43.5119   34.9329   42.2164 C   0  0  1  0  0  0  0  0  0  0  0  0
   43.8051   35.3100   40.7576 C   0  0  0  0  0  0  0  0  0  0  0  0
   42.6736   35.2964   39.9647 O   0  0  0  0  0  0  0  0  0  0  0  0
   41.5449   34.7584   40.5379 C   0  0  0  0  0  0  0  0  0  0  0  0
   41.2248   35.5311   41.7830 C   0  0  1  0  0  0  0  0  0  0  0  0
   48.3494   32.1363   43.8057 H   0  0  0  0  0  0  0  0  0  0  0  0
   43.7813   35.3499   45.9472 H   0  0  0  0  0  0  0  0  0  0  0  0
   43.8909   34.1531   48.3041 H   0  0  0  0  0  0  0  0  0  0  0  0
   47.6596   31.6664   46.1834 H   0  0  0  0  0  0  0  0  0  0  0  0
   46.6338   32.8185   39.1266 H   0  0  0  0  0  0  0  0  0  0  0  0
   48.2465   34.6169   38.5539 H   0  0  0  0  0  0  0  0  0  0  0  0
   49.1995   35.9770   40.4383 H   0  0  0  0  0  0  0  0  0  0  0  0
   42.1464   35.2937   43.6486 H   0  0  0  0  0  0  0  0  0  0  0  0
   43.4282   33.8327   42.3136 H   0  0  0  0  0  0  0  0  0  0  0  0
   44.4671   34.5828   40.3006 H   0  0  0  0  0  0  0  0  0  0  0  0
   44.1997   36.3462   40.7421 H   0  0  0  0  0  0  0  0  0  0  0  0
   41.7592   33.6923   40.7676 H   0  0  0  0  0  0  0  0  0  0  0  0
   40.7357   34.8426   39.8099 H   0  0  0  0  0  0  0  0  0  0  0  0
   41.0317   36.5866   41.4356 H   0  0  0  0  0  0  0  0  0  0  0  0
   39.9427   35.1026   42.4468 C   0  0  0  0  0  0  0  0  0  0  0  0
   39.8839   33.9866   43.4081 C   0  0  0  0  0  0  0  0  0  0  0  0
   39.6059   35.4040   43.8377 C   0  0  0  0  0  0  0  0  0  0  0  0
   39.0816   35.1289   41.7246 H   0  0  0  0  0  0  0  0  0  0  0  0
   40.8052   33.5108   43.8411 H   0  0  0  0  0  0  0  0  0  0  0  0
   39.0467   33.2486   43.3583 H   0  0  0  0  0  0  0  0  0  0  0  0
   40.3209   35.9187   44.4817 H   0  0  0  0  0  0  0  0  0  0  0  0
   38.5381   35.5977   44.1065 H   0  0  0  0  0  0  0  0  0  0  0  0
  1  9  2  0
  2  3  2  0
  2  1  1  0
  3  4  1  0
  4  8  2  0
  4  5  1  0
  5  6  1  0
  7  6  2  0
  8  7  1  0
  9  8  1  0
 10 15  2  0
 11 10  1  0
 11 12  2  0
 12 13  1  0
 13 14  2  0
 14  2  1  0
 15 14  1  0
 16  3  1  0
 18 17  1  0
 18 16  1  0
 19 18  1  0
 20 21  1  0
 20 19  1  0
 21 22  1  0
 22 17  1  0
  1 23  1  0
  5 24  1  0
  6 25  1  0
  9 26  1  0
 10 27  1  0
 11 28  1  0
 12 29  1  0
 17 30  1  0
 18 31  1  6
 19 32  1  0
 19 33  1  0
 21 34  1  0
 21 35  1  0
 22 36  1  6
 37 38  1  0
 38 39  1  0
 39 37  1  0
 37 40  1  0
 38 41  1  0
 38 42  1  0
 39 43  1  0
 39 44  1  0
 22 37  1  0
M  ISO  8  23  14  24   9  25  14  26  14  27  14  28  14  29  14  30   5
M  ISO  6  31  13  32  13  33  13  34  13  35  13  36  13
M  END
>  <DihAtoms>  (1) 
20,21,36,37

>  <DihDeg>  (1) 
-49.11306184066235

$$$$
