
 OpenBabel03242520043D

 33 36  0  0  1  0  0  0  0  0999 V2000
   47.5590   30.0930   47.6510 N   0  0  0  0  0  0  0  0  0  0  0  0
   48.0640   29.8060   46.3580 C   0  0  1  0  0  0  0  0  0  0  0  0
   47.5130   28.4810   45.9080 C   0  0  0  0  0  0  0  0  0  0  0  0
   46.0770   28.6900   45.7730 N   0  0  0  0  0  0  0  0  0  0  0  0
   45.4570   28.9230   47.0510 C   0  0  0  0  0  0  0  0  0  0  0  0
   46.2180   29.8340   47.9630 C   0  0  2  0  0  0  0  0  0  0  0  0
   47.8120   31.0470   47.9820 H   0  0  0  0  0  0  0  0  0  0  0  0
   49.1590   29.7170   46.4180 H   0  0  0  0  0  0  0  0  0  0  0  0
   47.9150   28.2390   44.9130 H   0  0  0  0  0  0  0  0  0  0  0  0
   47.7520   27.6570   46.6100 H   0  0  0  0  0  0  0  0  0  0  0  0
   45.6170   27.8760   45.3400 H   0  0  0  0  0  0  0  0  0  0  0  0
   45.2880   27.9070   47.5020 H   0  0  0  0  0  0  0  0  0  0  0  0
   44.4150   29.2850   46.8350 H   0  0  0  0  0  0  0  0  0  0  0  0
   46.2170   29.3410   48.9740 H   0  0  0  0  0  0  0  0  0  0  0  0
   46.7910   32.5840   44.5580 C   0  0  0  0  0  0  0  0  0  0  0  0
   47.4400   31.9160   43.5310 C   0  0  0  0  0  0  0  0  0  0  0  0
   47.9990   30.7970   44.0540 C   0  0  0  0  0  0  0  0  0  0  0  0
   47.6980   30.7830   45.3760 N   0  0  0  0  0  0  0  0  0  0  0  0
   46.9770   31.8600   45.6510 N   0  0  0  0  0  0  0  0  0  0  0  0
   47.4500   32.2930   42.5070 H   0  0  0  0  0  0  0  0  0  0  0  0
   48.5750   30.0630   43.5060 H   0  0  0  0  0  0  0  0  0  0  0  0
   44.6090   35.4520   45.3040 C   0  0  0  0  0  0  0  0  0  0  0  0
   44.6870   36.2170   44.1340 C   0  0  0  0  0  0  0  0  0  0  0  0
   45.4910   35.7340   43.1040 C   0  0  0  0  0  0  0  0  0  0  0  0
   46.1490   34.5560   43.2930 N   0  0  0  0  0  0  0  0  0  0  0  0
   46.0500   33.8460   44.4320 C   0  0  0  0  0  0  0  0  0  0  0  0
   45.2800   34.2840   45.4520 N   0  0  0  0  0  0  0  0  0  0  0  0
   43.9890   35.7890   46.1460 H   0  0  0  0  0  0  0  0  0  0  0  0
   44.1420   37.1470   44.0380 H   0  0  0  0  0  0  0  0  0  0  0  0
   45.5910   36.2870   42.1690 H   0  0  0  0  0  0  0  0  0  0  0  0
   45.3560   31.0730   48.1700 C   0  0  0  0  0  0  0  0  0  0  0  0
   45.0000   31.3020   49.6390 C   0  0  0  0  0  0  0  0  0  0  0  0
   45.8620   32.2600   48.8780 C   0  0  0  0  0  0  0  0  0  0  0  0
  1  6  1  0  0  0  0
  1  7  1  0  0  0  0
  2  8  1  1  0  0  0
  2  1  1  0  0  0  0
  3  2  1  0  0  0  0
  3 10  1  0  0  0  0
  4  3  1  0  0  0  0
  4  5  1  0  0  0  0
  5 12  1  0  0  0  0
  5  6  1  0  0  0  0
  6 31  1  0  0  0  0
  6 14  1  1  0  0  0
  9  3  1  0  0  0  0
 11  4  1  0  0  0  0
 13  5  1  0  0  0  0
 15 19  2  0  0  0  0
 16 17  2  0  0  0  0
 16 15  1  0  0  0  0
 17 18  1  0  0  0  0
 18 19  1  0  0  0  0
 18  2  1  0  0  0  0
 20 16  1  0  0  0  0
 21 17  1  0  0  0  0
 22 27  1  0  0  0  0
 22 28  1  0  0  0  0
 23 22  2  0  0  0  0
 24 25  2  0  0  0  0
 24 23  1  0  0  0  0
 25 26  1  0  0  0  0
 26 15  1  0  0  0  0
 26 27  2  0  0  0  0
 29 23  1  0  0  0  0
 30 24  1  0  0  0  0
 31 33  1  0  0  0  0
 31 32  1  0  0  0  0
 33 32  1  0  0  0  0
M  END
>  <minimizedAffinity>
-5.07025099

>  <minimizedRMSD>
2.38766575

$$$$
