
 OpenBabel03242510203D

 30 33  0  0  1  0  0  0  0  0999 V2000
   46.3200   32.1540   44.5020 C   0  0  1  0  0  0  0  0  0  0  0  0
   46.5890   31.4520   43.3020 C   0  0  0  0  0  0  0  0  0  0  0  0
   47.7400   32.1540   44.0470 C   0  0  1  0  0  0  0  0  0  0  0  0
   46.0660   31.6450   45.4530 H   0  0  0  0  0  0  0  0  0  0  0  0
   46.4330   31.7980   42.2690 H   0  0  0  0  0  0  0  0  0  0  0  0
   46.6220   30.3410   43.3400 H   0  0  0  0  0  0  0  0  0  0  0  0
   48.5230   31.4420   44.3230 H   0  0  0  0  0  0  0  0  0  0  0  0
   45.1110   34.0180   43.1780 C   0  0  0  0  0  0  0  0  0  0  0  0
   45.5690   33.4810   44.4120 C   0  0  0  0  0  0  0  0  0  0  0  0
   45.3340   34.2070   45.5520 C   0  0  0  0  0  0  0  0  0  0  0  0
   44.6840   35.3900   45.4590 N   0  0  0  0  0  0  0  0  0  0  0  0
   44.2510   35.8970   44.2800 C   0  0  0  0  0  0  0  0  0  0  0  0
   44.4760   35.1800   43.1000 N   0  0  0  0  0  0  0  0  0  0  0  0
   45.2960   33.4510   42.3030 H   0  0  0  0  0  0  0  0  0  0  0  0
   45.6680   33.8280   46.5070 H   0  0  0  0  0  0  0  0  0  0  0  0
   43.7370   36.8490   44.2680 H   0  0  0  0  0  0  0  0  0  0  0  0
   48.1940   33.3560   43.4220 N   0  0  0  0  0  0  0  0  0  0  0  0
   49.3420   33.4330   42.6540 C   0  0  0  0  0  0  0  0  0  0  0  0
   50.4930   32.9570   42.8460 O   0  0  0  0  0  0  0  0  0  0  0  0
   47.6560   34.2650   43.5230 H   0  0  0  0  0  0  0  0  0  0  0  0
   49.3110   34.1900   41.3350 C   0  0  2  0  0  0  0  0  0  0  0  0
   48.5910   35.5780   41.3440 C   0  0  0  0  0  0  0  0  0  0  0  0
   48.0810   34.3690   40.5790 C   0  0  1  0  0  0  0  0  0  0  0  0
   50.3020   34.3300   40.8340 H   0  0  0  0  0  0  0  0  0  0  0  0
   48.1780   35.8740   42.3020 H   0  0  0  0  0  0  0  0  0  0  0  0
   49.0080   36.3780   40.7170 H   0  0  0  0  0  0  0  0  0  0  0  0
   47.0630   34.1800   40.8770 H   0  0  0  0  0  0  0  0  0  0  0  0
   48.1990   34.4100   39.0540 C   0  0  0  0  0  0  0  0  0  0  0  0
   48.5290   33.0150   38.4810 C   0  0  0  0  0  0  0  0  0  0  0  0
   47.2450   33.6910   38.2100 C   0  0  0  0  0  0  0  0  0  0  0  0
  1  4  1  1  0  0  0
  2  6  1  0  0  0  0
  2  3  1  0  0  0  0
  2  1  1  0  0  0  0
  3  7  1  1  0  0  0
  3  1  1  0  0  0  0
  5  2  1  0  0  0  0
  8  9  1  0  0  0  0
  9  1  1  0  0  0  0
  9 10  2  0  0  0  0
 10 15  1  0  0  0  0
 11 10  1  0  0  0  0
 12 11  2  0  0  0  0
 13  8  2  0  0  0  0
 13 12  1  0  0  0  0
 14  8  1  0  0  0  0
 16 12  1  0  0  0  0
 17 20  1  0  0  0  0
 17  3  1  0  0  0  0
 18 19  2  0  0  0  0
 18 17  1  0  0  0  0
 21 24  1  6  0  0  0
 21 22  1  0  0  0  0
 21 18  1  0  0  0  0
 22 25  1  0  0  0  0
 23 27  1  1  0  0  0
 23 21  1  0  0  0  0
 23 22  1  0  0  0  0
 26 22  1  0  0  0  0
 28 23  1  0  0  0  0
 29 28  1  0  0  0  0
 30 29  1  0  0  0  0
 30 28  1  0  0  0  0
M  END
>  <minimizedAffinity>
-4.52278948

>  <minimizedRMSD>
0.641987383

$$$$
