
 OpenBabel03242521243D

 36 39  0  0  0  0  0  0  0  0999 V2000
   45.3860   33.6960   45.6860 C   0  0  0  0  0  0  0  0  0  0  0  0
   44.8480   34.9030   46.0070 C   0  0  0  0  0  0  0  0  0  0  0  0
   44.4100   35.8200   45.0860 C   0  0  0  0  0  0  0  0  0  0  0  0
   44.5430   35.4530   43.7880 N   0  0  0  0  0  0  0  0  0  0  0  0
   45.0700   34.2660   43.4670 C   0  0  0  0  0  0  0  0  0  0  0  0
   45.4970   33.3740   44.3830 N   0  0  0  0  0  0  0  0  0  0  0  0
   44.7450   35.1920   47.0580 H   0  0  0  0  0  0  0  0  0  0  0  0
   43.9860   36.7760   45.3440 H   0  0  0  0  0  0  0  0  0  0  0  0
   45.2050   33.8870   42.0400 C   0  0  0  0  0  0  0  0  0  0  0  0
   44.1700   33.2450   41.4120 C   0  0  0  0  0  0  0  0  0  0  0  0
   44.1920   32.8470   40.0830 C   0  0  0  0  0  0  0  0  0  0  0  0
   45.3400   33.1240   39.3660 C   0  0  0  0  0  0  0  0  0  0  0  0
   46.3740   33.7650   39.9940 C   0  0  0  0  0  0  0  0  0  0  0  0
   46.3370   34.1530   41.3110 C   0  0  0  0  0  0  0  0  0  0  0  0
   43.2690   33.0320   41.9880 H   0  0  0  0  0  0  0  0  0  0  0  0
   43.3800   32.3450   39.5940 H   0  0  0  0  0  0  0  0  0  0  0  0
   45.4910   32.8730   38.3360 H   0  0  0  0  0  0  0  0  0  0  0  0
   47.2920   33.9980   39.4570 H   0  0  0  0  0  0  0  0  0  0  0  0
   47.3650   34.7990   41.9660 O   0  0  0  0  0  0  0  0  0  0  0  0
   49.8170   35.4150   42.6240 O   0  0  0  0  0  0  0  0  0  0  0  0
   48.9880   34.8290   41.4810 P   0  0  0  0  0  0  0  0  0  0  0  0
   49.6030   33.3530   41.0190 O   0  0  0  0  0  0  0  0  0  0  0  0
   48.8600   32.7110   40.9190 H   0  0  0  0  0  0  0  0  0  0  0  0
   49.1300   35.9110   40.1790 O   0  0  0  0  0  0  0  0  0  0  0  0
   48.3440   36.5180   40.1240 H   0  0  0  0  0  0  0  0  0  0  0  0
   45.6680   31.9330   48.8840 C   0  0  0  0  0  0  0  0  0  0  0  0
   46.6760   30.9970   48.6110 C   0  0  0  0  0  0  0  0  0  0  0  0
   47.2400   30.9760   47.3620 C   0  0  0  0  0  0  0  0  0  0  0  0
   46.8160   31.8590   46.4100 N   0  0  0  0  0  0  0  0  0  0  0  0
   45.8350   32.7560   46.7030 C   0  0  0  0  0  0  0  0  0  0  0  0
   45.2790   32.7830   47.9210 N   0  0  0  0  0  0  0  0  0  0  0  0
   45.2270   31.9440   49.8750 H   0  0  0  0  0  0  0  0  0  0  0  0
   47.0250   30.2910   49.3500 H   0  0  0  0  0  0  0  0  0  0  0  0
   48.2970   30.0000   47.0630 C   0  0  0  0  0  0  0  0  0  0  0  0
   48.5060   28.7950   47.8880 C   0  0  0  0  0  0  0  0  0  0  0  0
   49.4260   29.9820   48.0870 C   0  0  0  0  0  0  0  0  0  0  0  0
  1  2  1  0  0  0  0
  1 30  1  0  0  0  0
  2  7  1  0  0  0  0
  3  8  1  0  0  0  0
  3  2  2  0  0  0  0
  4  3  1  0  0  0  0
  5  4  2  0  0  0  0
  5  6  1  0  0  0  0
  6  1  2  0  0  0  0
  9  5  1  0  0  0  0
 10 15  1  0  0  0  0
 10  9  1  0  0  0  0
 11 10  2  0  0  0  0
 12 13  2  0  0  0  0
 12 11  1  0  0  0  0
 13 14  1  0  0  0  0
 14 19  1  0  0  0  0
 14  9  2  0  0  0  0
 16 11  1  0  0  0  0
 17 12  1  0  0  0  0
 18 13  1  0  0  0  0
 21 19  1  0  0  0  0
 21 20  2  0  0  0  0
 22 21  1  0  0  0  0
 23 22  1  0  0  0  0
 24 21  1  0  0  0  0
 25 24  1  0  0  0  0
 26 32  1  0  0  0  0
 27 26  1  0  0  0  0
 27 33  1  0  0  0  0
 28 27  2  0  0  0  0
 29 30  2  0  0  0  0
 29 28  1  0  0  0  0
 30 31  1  0  0  0  0
 31 26  2  0  0  0  0
 34 28  1  0  0  0  0
 34 35  1  0  0  0  0
 34 36  1  0  0  0  0
 35 36  1  0  0  0  0
M  END
>  <minimizedAffinity>
-6.17420864

>  <minimizedRMSD>
0.524512053

$$$$
