
 OpenBabel03242515053D

 33 35  0  0  0  0  0  0  0  0999 V2000
   41.8860   35.1590   41.5520 C   0  0  0  0  0  0  0  0  0  0  0  0
   41.3200   34.2070   41.7280 H   0  0  0  0  0  0  0  0  0  0  0  0
   42.0390   35.6080   42.5640 H   0  0  0  0  0  0  0  0  0  0  0  0
   40.9970   36.0530   40.7530 C   0  0  0  0  0  0  0  0  0  0  0  0
   41.6360   36.7460   40.1650 H   0  0  0  0  0  0  0  0  0  0  0  0
   40.3300   36.6970   41.3760 H   0  0  0  0  0  0  0  0  0  0  0  0
   41.8180   36.2700   37.8250 Cl  0  0  0  0  0  0  0  0  0  0  0  0
   40.4860   35.3040   38.4090 C   0  0  0  0  0  0  0  0  0  0  0  0
   40.2000   35.2800   39.7740 C   0  0  0  0  0  0  0  0  0  0  0  0
   39.1400   34.4980   40.1480 C   0  0  0  0  0  0  0  0  0  0  0  0
   38.3320   33.7380   39.3060 C   0  0  0  0  0  0  0  0  0  0  0  0
   38.6420   33.7830   37.9660 C   0  0  0  0  0  0  0  0  0  0  0  0
   37.6790   32.8540   36.8140 Cl  0  0  0  0  0  0  0  0  0  0  0  0
   39.7060   34.5600   37.5350 C   0  0  0  0  0  0  0  0  0  0  0  0
   38.8800   34.4490   41.2020 H   0  0  0  0  0  0  0  0  0  0  0  0
   37.5140   33.1510   39.7080 H   0  0  0  0  0  0  0  0  0  0  0  0
   39.9690   34.6120   36.4820 H   0  0  0  0  0  0  0  0  0  0  0  0
   43.4410   34.7780   40.7550 S   0  0  0  0  0  0  0  0  0  0  0  0
   44.8070   34.6430   41.9060 C   0  0  0  0  0  0  0  0  0  0  0  0
   46.0940   34.6650   41.3540 C   0  0  0  0  0  0  0  0  0  0  0  0
   47.1810   34.5620   42.2180 C   0  0  0  0  0  0  0  0  0  0  0  0
   46.9320   34.4460   43.5410 N   0  0  0  0  0  0  0  0  0  0  0  0
   45.6880   34.4260   44.0570 C   0  0  0  0  0  0  0  0  0  0  0  0
   44.6430   34.5250   43.2310 N   0  0  0  0  0  0  0  0  0  0  0  0
   46.2540   34.7590   40.2880 H   0  0  0  0  0  0  0  0  0  0  0  0
   45.5560   34.2980   45.4900 C   0  0  0  0  0  0  0  0  0  0  0  0
   44.5930   34.8950   46.0430 O   0  0  0  0  0  0  0  0  0  0  0  0
   46.5440   33.4930   46.1730 N   0  0  0  0  0  0  0  0  0  0  0  0
   46.1450   32.9260   46.9500 H   0  0  0  0  0  0  0  0  0  0  0  0
   47.5390   33.5530   45.8340 H   0  0  0  0  0  0  0  0  0  0  0  0
   48.5560   34.5830   41.6610 C   0  0  0  0  0  3  0  0  0  0  0  0
   49.1180   35.9920   41.5450 C   0  0  0  0  0  2  0  0  0  0  0  0
   49.7240   34.9740   42.4670 C   0  0  0  0  0  2  0  0  0  0  0  0
  1  2  1  0  0  0  0
  1  3  1  0  0  0  0
  4  6  1  0  0  0  0
  4  1  1  0  0  0  0
  5  4  1  0  0  0  0
  7  8  1  0  0  0  0
  8  9  1  0  0  0  0
  9 10  2  0  0  0  0
  9  4  1  0  0  0  0
 10 15  1  0  0  0  0
 11 16  1  0  0  0  0
 11 10  1  0  0  0  0
 12 11  2  0  0  0  0
 13 12  1  0  0  0  0
 14 12  1  0  0  0  0
 14  8  2  0  0  0  0
 17 14  1  0  0  0  0
 18  1  1  0  0  0  0
 18 19  1  0  0  0  0
 19 24  1  0  0  0  0
 20 19  2  0  0  0  0
 20 21  1  0  0  0  0
 21 22  2  0  0  0  0
 22 23  1  0  0  0  0
 23 26  1  0  0  0  0
 24 23  2  0  0  0  0
 25 20  1  0  0  0  0
 26 27  2  0  0  0  0
 26 28  1  0  0  0  0
 28 29  1  0  0  0  0
 30 28  1  0  0  0  0
 31 21  1  0  0  0  0
 31 33  1  0  0  0  0
 32 31  1  0  0  0  0
 32 33  1  0  0  0  0
M  END
>  <minimizedAffinity>
-7.30080414

>  <minimizedRMSD>
0.289985985

$$$$
