
 OpenBabel03252504423D

 39 42  0  0  0  0  0  0  0  0999 V2000
   46.3730   32.2430   47.7260 C   0  0  0  0  0  0  0  0  0  0  0  0
   45.8970   31.8280   48.9340 C   0  0  0  0  0  0  0  0  0  0  0  0
   46.8850   31.1470   49.5180 N   0  0  0  0  0  0  0  0  0  0  0  0
   47.9680   31.1110   48.7350 C   0  0  0  0  0  0  0  0  0  0  0  0
   47.6360   31.8040   47.6090 N   0  0  0  0  0  0  0  0  0  0  0  0
   49.2500   30.5200   48.9130 N   0  0  0  0  0  0  0  0  0  0  0  0
   50.2820   31.3450   49.5860 C   0  0  0  0  0  0  0  0  0  0  0  0
   50.3720   30.7670   50.9970 C   0  0  0  0  0  0  0  0  0  0  0  0
   50.4970   29.2680   50.9410 C   0  0  0  0  0  0  0  0  0  0  0  0
   50.8780   28.8350   49.5340 C   0  0  0  0  0  0  0  0  0  0  0  0
   49.7850   29.2420   48.5690 C   0  0  0  0  0  0  0  0  0  0  0  0
   44.9040   32.0160   49.3400 H   0  0  0  0  0  0  0  0  0  0  0  0
   46.8590   30.6870   50.4590 H   0  0  0  0  0  0  0  0  0  0  0  0
   51.2350   31.2900   49.0490 H   0  0  0  0  0  0  0  0  0  0  0  0
   49.9360   32.3910   49.7010 H   0  0  0  0  0  0  0  0  0  0  0  0
   49.4630   31.0180   51.5480 H   0  0  0  0  0  0  0  0  0  0  0  0
   51.2830   31.1920   51.4880 H   0  0  0  0  0  0  0  0  0  0  0  0
   49.5330   28.7630   51.1570 H   0  0  0  0  0  0  0  0  0  0  0  0
   51.2690   28.8660   51.6440 H   0  0  0  0  0  0  0  0  0  0  0  0
   51.0160   27.7400   49.5130 H   0  0  0  0  0  0  0  0  0  0  0  0
   51.8280   29.3480   49.2910 H   0  0  0  0  0  0  0  0  0  0  0  0
   50.1600   29.2130   47.5230 H   0  0  0  0  0  0  0  0  0  0  0  0
   48.9850   28.4570   48.6920 H   0  0  0  0  0  0  0  0  0  0  0  0
   45.6320   33.0470   46.7100 C   0  0  0  0  0  0  0  0  0  0  0  0
   45.4060   34.0500   47.1400 H   0  0  0  0  0  0  0  0  0  0  0  0
   44.6680   32.5450   46.4590 H   0  0  0  0  0  0  0  0  0  0  0  0
   46.0410   33.9300   44.4440 C   0  0  0  0  0  3  0  0  0  0  0  0
   46.4440   33.2390   45.4920 C   0  0  0  0  0  3  0  0  0  0  0  0
   46.9500   34.0320   43.3070 C   0  0  0  0  0  0  0  0  0  0  0  0
   46.5770   34.7150   42.1150 C   0  0  0  0  0  0  0  0  0  0  0  0
   47.4960   34.7600   41.0890 C   0  0  0  0  0  0  0  0  0  0  0  0
   48.6990   34.1690   41.2380 N   0  0  0  0  0  0  0  0  0  0  0  0
   49.0290   33.5280   42.3760 C   0  0  0  0  0  0  0  0  0  0  0  0
   48.1850   33.4580   43.3840 N   0  0  0  0  0  0  0  0  0  0  0  0
   45.5950   35.1580   42.0870 H   0  0  0  0  0  0  0  0  0  0  0  0
   47.1840   35.2850   40.1980 H   0  0  0  0  0  0  0  0  0  0  0  0
   50.3670   32.8930   42.4900 C   0  0  0  0  0  3  0  0  0  0  0  0
   50.9470   32.1820   41.3010 C   0  0  0  0  0  2  0  0  0  0  0  0
   50.5300   31.4310   42.5370 C   0  0  0  0  0  2  0  0  0  0  0  0
  1  2  2  0  0  0  0
  2 12  1  0  0  0  0
  2  3  1  0  0  0  0
  3 13  1  0  0  0  0
  4  6  1  0  0  0  0
  4  3  1  0  0  0  0
  5  1  1  0  0  0  0
  5  4  2  0  0  0  0
  6  7  1  0  0  0  0
  7 15  1  0  0  0  0
  7  8  1  0  0  0  0
  8 17  1  0  0  0  0
  8 16  1  0  0  0  0
  9  8  1  0  0  0  0
  9 18  1  0  0  0  0
  9 19  1  0  0  0  0
 10  9  1  0  0  0  0
 11 23  1  0  0  0  0
 11  6  1  0  0  0  0
 11 10  1  0  0  0  0
 14  7  1  0  0  0  0
 20 10  1  0  0  0  0
 21 10  1  0  0  0  0
 22 11  1  0  0  0  0
 24 25  1  0  0  0  0
 24  1  1  0  0  0  0
 26 24  1  0  0  0  0
 27 28  2  0  0  0  0
 28 24  1  0  0  0  0
 29 34  1  0  0  0  0
 29 27  1  0  0  0  0
 30 29  2  0  0  0  0
 31 32  2  0  0  0  0
 31 30  1  0  0  0  0
 32 33  1  0  0  0  0
 33 37  1  0  0  0  0
 33 34  2  0  0  0  0
 35 30  1  0  0  0  0
 36 31  1  0  0  0  0
 37 39  1  0  0  0  0
 38 37  1  0  0  0  0
 38 39  1  0  0  0  0
M  END
>  <minimizedAffinity>
-5.8304615

>  <minimizedRMSD>
0.356308579

$$$$
