
 OpenBabel03252503303D

 31 33  0  0  1  0  0  0  0  0999 V2000
   45.2960   34.7890   42.6270 C   0  0  0  0  0  0  0  0  0  0  0  0
   46.3910   35.3110   41.8780 C   0  0  0  0  0  0  0  0  0  0  0  0
   47.6630   34.9020   42.2980 C   0  0  0  0  0  0  0  0  0  0  0  0
   47.7580   34.0720   43.3470 N   0  0  0  0  0  0  0  0  0  0  0  0
   46.6900   33.6030   44.0260 C   0  0  0  0  0  0  0  0  0  0  0  0
   45.4510   33.9700   43.6580 N   0  0  0  0  0  0  0  0  0  0  0  0
   43.5260   34.4600   41.1200 C   0  0  0  0  0  0  0  0  0  0  0  0
   44.3190   33.6820   40.5550 O   0  0  0  0  0  0  0  0  0  0  0  0
   43.9530   35.1350   42.2910 N   0  0  0  0  0  0  0  0  0  0  0  0
   42.2250   34.6200   40.5440 N   0  0  0  0  0  0  0  0  0  0  0  0
   41.9740   34.1630   39.1750 C   0  0  0  0  0  0  0  0  0  0  0  0
   40.9080   35.1230   38.7300 C   0  0  0  0  0  0  0  0  0  0  0  0
   40.5330   35.9750   39.8990 C   0  0  0  0  0  0  0  0  0  0  0  0
   41.0140   35.2150   41.0920 C   0  0  1  0  0  0  0  0  0  0  0  0
   46.1190   35.9660   41.0660 H   0  0  0  0  0  0  0  0  0  0  0  0
   46.9300   32.9390   44.8530 H   0  0  0  0  0  0  0  0  0  0  0  0
   43.2800   35.7720   42.7500 H   0  0  0  0  0  0  0  0  0  0  0  0
   42.8970   34.3430   38.5540 H   0  0  0  0  0  0  0  0  0  0  0  0
   41.6720   33.1300   39.0830 H   0  0  0  0  0  0  0  0  0  0  0  0
   41.2240   35.7310   37.8510 H   0  0  0  0  0  0  0  0  0  0  0  0
   39.9670   34.5750   38.4290 H   0  0  0  0  0  0  0  0  0  0  0  0
   41.0560   36.9590   39.8340 H   0  0  0  0  0  0  0  0  0  0  0  0
   39.4340   36.1570   39.9600 H   0  0  0  0  0  0  0  0  0  0  0  0
   41.4050   35.9650   41.8430 H   0  0  0  0  0  0  0  0  0  0  0  0
   48.7690   35.4530   41.5080 C   0  0  0  0  0  0  0  0  0  0  0  0
   49.9220   34.7240   41.7900 F   0  0  0  0  0  0  0  0  0  0  0  0
   49.0200   36.7350   41.9810 F   0  0  0  0  0  0  0  0  0  0  0  0
   48.5630   35.4030   40.1670 F   0  0  0  0  0  0  0  0  0  0  0  0
   40.0610   34.2780   41.7220 C   0  0  0  0  0  0  0  0  0  0  0  0
   40.3700   32.8130   41.6210 C   0  0  0  0  0  0  0  0  0  0  0  0
   39.1600   33.4390   40.9360 C   0  0  0  0  0  0  0  0  0  0  0  0
  1  6  1  0  0  0  0
  2  3  1  0  0  0  0
  2  1  2  0  0  0  0
  3  4  2  0  0  0  0
  4  5  1  0  0  0  0
  5 16  1  0  0  0  0
  6  5  2  0  0  0  0
  7  9  1  0  0  0  0
  8  7  2  0  0  0  0
  9  1  1  0  0  0  0
  9 17  1  0  0  0  0
 10 14  1  0  0  0  0
 10  7  1  0  0  0  0
 11 10  1  0  0  0  0
 12 11  1  0  0  0  0
 12 13  1  0  0  0  0
 13 23  1  0  0  0  0
 13 14  1  0  0  0  0
 14 29  1  0  0  0  0
 14 24  1  1  0  0  0
 15  2  1  0  0  0  0
 18 11  1  0  0  0  0
 19 11  1  0  0  0  0
 20 12  1  0  0  0  0
 21 12  1  0  0  0  0
 22 13  1  0  0  0  0
 25 26  1  0  0  0  0
 25 27  1  0  0  0  0
 25  3  1  0  0  0  0
 28 25  1  0  0  0  0
 30 29  1  0  0  0  0
 31 30  1  0  0  0  0
 31 29  1  0  0  0  0
M  END
>  <minimizedAffinity>
-6.62336254

>  <minimizedRMSD>
0.719629943

$$$$
