
 OpenBabel03252507113D

 18 19  0  0  0  0  0  0  0  0999 V2000
   46.8680   33.6500   43.7160 C   0  0  0  0  0  0  0  0  0  0  0  0
   45.7910   33.6500   44.6020 C   0  0  0  0  0  0  0  0  0  0  0  0
   44.8720   34.7330   44.6010 C   0  0  0  0  0  0  0  0  0  0  0  0
   45.0900   35.7400   43.7230 N   0  0  0  0  0  0  0  0  0  0  0  0
   46.1350   35.7150   42.8890 C   0  0  0  0  0  0  0  0  0  0  0  0
   47.0200   34.6840   42.8790 N   0  0  0  0  0  0  0  0  0  0  0  0
   44.1230   34.5580   45.3320 H   0  0  0  0  0  0  0  0  0  0  0  0
   46.1320   36.6110   42.2740 H   0  0  0  0  0  0  0  0  0  0  0  0
   47.9820   32.7030   43.4040 C   0  0  0  0  0  0  0  0  0  0  0  0
   47.8860   31.2880   43.7730 C   0  0  0  0  0  0  0  0  0  0  0  0
   47.6030   31.5710   42.3790 C   0  0  0  0  0  0  0  0  0  0  0  0
   45.7280   32.5360   45.4400 O   0  0  0  0  0  0  0  0  0  0  0  0
   45.7040   31.3710   47.8140 O   0  0  0  0  0  0  0  0  0  0  0  0
   45.8510   32.6970   47.1380 P   0  0  0  0  0  0  0  0  0  0  0  0
   47.3840   33.2910   47.5290 O   0  0  0  0  0  0  0  0  0  0  0  0
   47.3180   33.6410   48.4560 H   0  0  0  0  0  0  0  0  0  0  0  0
   44.7360   33.7870   47.7810 O   0  0  0  0  0  0  0  0  0  0  0  0
   43.8360   33.6850   47.3940 H   0  0  0  0  0  0  0  0  0  0  0  0
  1  2  1  0  0  0  0
  2 12  1  0  0  0  0
  3  2  2  0  0  0  0
  3  7  1  0  0  0  0
  4  3  1  0  0  0  0
  5  4  2  0  0  0  0
  6  5  1  0  0  0  0
  6  1  2  0  0  0  0
  8  5  1  0  0  0  0
  9  1  1  0  0  0  0
  9 10  1  0  0  0  0
 11  9  1  0  0  0  0
 11 10  1  0  0  0  0
 12 14  1  0  0  0  0
 14 15  1  0  0  0  0
 14 17  1  0  0  0  0
 14 13  2  0  0  0  0
 15 16  1  0  0  0  0
 18 17  1  0  0  0  0
M  END
>  <minimizedAffinity>
-4.28682613

>  <minimizedRMSD>
4.6224947

$$$$
