
 OpenBabel03252509113D

 25 28  0  0  0  0  0  0  0  0999 V2000
   46.3640   33.9200   44.9680 C   0  0  0  0  0  0  0  0  0  0  0  0
   47.0500   33.1900   44.0000 C   0  0  0  0  0  0  0  0  0  0  0  0
   47.2870   31.8130   44.1140 C   0  0  0  0  0  0  0  0  0  0  0  0
   46.8200   31.1460   45.2360 C   0  0  0  0  0  0  0  0  0  0  0  0
   46.8630   29.8700   45.6870 N   0  0  0  0  0  0  0  0  0  0  0  0
   46.2340   29.7960   46.8830 C   0  0  0  0  0  0  0  0  0  0  0  0
   45.8030   31.0400   47.1620 N   0  0  0  0  0  0  0  0  0  0  0  0
   46.1470   31.8850   46.1760 C   0  0  0  0  0  0  0  0  0  0  0  0
   45.8940   33.2450   46.0960 C   0  0  0  0  0  0  0  0  0  0  0  0
   46.2160   34.9920   44.8120 H   0  0  0  0  0  0  0  0  0  0  0  0
   47.3160   29.0710   45.1990 H   0  0  0  0  0  0  0  0  0  0  0  0
   46.1400   28.8650   47.4440 H   0  0  0  0  0  0  0  0  0  0  0  0
   45.3660   33.8040   46.8420 H   0  0  0  0  0  0  0  0  0  0  0  0
   49.1110   35.2630   41.7730 C   0  0  0  0  0  0  0  0  0  0  0  0
   48.4620   35.1360   40.5470 C   0  0  0  0  0  0  0  0  0  0  0  0
   47.3150   34.3370   40.4920 C   0  0  0  0  0  0  0  0  0  0  0  0
   46.9100   33.7340   41.6510 N   0  0  0  0  0  0  0  0  0  0  0  0
   47.5480   33.8680   42.8170 C   0  0  0  0  0  0  0  0  0  0  0  0
   48.6380   34.6290   42.8640 N   0  0  0  0  0  0  0  0  0  0  0  0
   49.9890   35.8380   41.9500 H   0  0  0  0  0  0  0  0  0  0  0  0
   48.8690   35.6530   39.7150 H   0  0  0  0  0  0  0  0  0  0  0  0
   46.8000   34.2250   39.5670 H   0  0  0  0  0  0  0  0  0  0  0  0
   48.0350   31.0910   43.0570 C   0  0  0  0  0  3  0  0  0  0  0  0
   49.1750   30.1850   43.5980 C   0  0  0  0  0  2  0  0  0  0  0  0
   49.4710   31.3850   42.7770 C   0  0  0  0  0  2  0  0  0  0  0  0
  1  9  1  0  0  0  0
  2  3  1  0  0  0  0
  2  1  2  0  0  0  0
  3  4  2  0  0  0  0
  4  5  1  0  0  0  0
  4  8  1  0  0  0  0
  5  6  1  0  0  0  0
  6  7  2  0  0  0  0
  6 12  1  0  0  0  0
  8  7  1  0  0  0  0
  9  8  2  0  0  0  0
  9 13  1  0  0  0  0
 10  1  1  0  0  0  0
 11  5  1  0  0  0  0
 14 20  1  0  0  0  0
 14 19  1  0  0  0  0
 15 14  2  0  0  0  0
 16 15  1  0  0  0  0
 16 17  2  0  0  0  0
 17 18  1  0  0  0  0
 18 19  2  0  0  0  0
 18  2  1  0  0  0  0
 21 15  1  0  0  0  0
 22 16  1  0  0  0  0
 23 24  1  0  0  0  0
 23  3  1  0  0  0  0
 25 23  1  0  0  0  0
 25 24  1  0  0  0  0
M  END
>  <minimizedAffinity>
-4.36249113

>  <minimizedRMSD>
3.53317285

$$$$
