
 OpenBabel03252503473D

 38 41  0  0  1  0  0  0  0  0999 V2000
   45.2160   34.8600   44.6370 C   0  0  0  0  0  0  0  0  0  0  0  0
   46.2030   34.6270   43.6840 C   0  0  0  0  0  0  0  0  0  0  0  0
   47.0490   33.5440   43.9140 C   0  0  0  0  0  0  0  0  0  0  0  0
   46.9190   32.7580   45.0050 N   0  0  0  0  0  0  0  0  0  0  0  0
   45.9400   33.0220   45.9090 C   0  0  0  0  0  0  0  0  0  0  0  0
   45.0960   34.0600   45.7330 N   0  0  0  0  0  0  0  0  0  0  0  0
   44.5380   35.6900   44.4990 H   0  0  0  0  0  0  0  0  0  0  0  0
   47.8850   33.1730   43.3530 H   0  0  0  0  0  0  0  0  0  0  0  0
   47.2390   31.7570   47.6150 C   0  0  2  0  0  0  0  0  0  0  0  0
   45.8290   32.1400   47.0700 C   0  0  1  0  0  0  0  0  0  0  0  0
   45.3210   32.6970   48.1930 O   0  0  0  0  0  0  0  0  0  0  0  0
   45.6040   31.8570   49.2360 C   0  0  0  0  0  0  0  0  0  0  0  0
   46.7740   30.9800   48.8450 C   0  0  2  0  0  0  0  0  0  0  0  0
   47.7550   31.1220   46.8950 H   0  0  0  0  0  0  0  0  0  0  0  0
   45.4070   31.1620   46.7870 H   0  0  0  0  0  0  0  0  0  0  0  0
   44.7210   31.1640   49.3350 H   0  0  0  0  0  0  0  0  0  0  0  0
   45.8080   32.3320   50.1970 H   0  0  0  0  0  0  0  0  0  0  0  0
   46.4260   29.9960   48.4310 H   0  0  0  0  0  0  0  0  0  0  0  0
   47.8840   32.8520   48.0520 O   0  0  0  0  0  0  0  0  0  0  0  0
   47.2540   33.5010   48.4110 H   0  0  0  0  0  0  0  0  0  0  0  0
   47.7300   30.8580   49.8100 O   0  0  0  0  0  0  0  0  0  0  0  0
   48.6060   31.1280   49.4310 H   0  0  0  0  0  0  0  0  0  0  0  0
   46.3350   35.4660   42.5130 C   0  0  0  0  0  0  0  0  0  0  0  0
   47.2490   36.1010   42.5060 H   0  0  0  0  0  0  0  0  0  0  0  0
   45.4910   36.1840   42.4730 H   0  0  0  0  0  0  0  0  0  0  0  0
   46.3280   34.6520   41.2850 C   0  0  0  0  0  0  0  0  0  0  0  0
   45.2180   33.9600   40.8100 C   0  0  0  0  0  0  0  0  0  0  0  0
   45.2390   33.1840   39.6790 C   0  0  0  0  0  0  0  0  0  0  0  0
   46.4150   33.0850   38.9830 C   0  0  0  0  0  0  0  0  0  0  0  0
   47.5290   33.7750   39.4490 C   0  0  0  0  0  0  0  0  0  0  0  0
   47.5310   34.5840   40.6110 C   0  0  0  0  0  0  0  0  0  0  0  0
   44.3450   34.1050   41.4350 H   0  0  0  0  0  0  0  0  0  0  0  0
   44.3120   32.7120   39.4340 H   0  0  0  0  0  0  0  0  0  0  0  0
   46.3890   32.4720   38.1110 H   0  0  0  0  0  0  0  0  0  0  0  0
   48.3780   33.5950   38.7820 H   0  0  0  0  0  0  0  0  0  0  0  0
   48.7940   35.2960   40.7940 C   0  0  0  0  0  0  0  0  0  0  0  0
   49.6700   34.7790   41.9220 C   0  0  0  0  0  0  0  0  0  0  0  0
   48.9810   36.1040   42.0330 C   0  0  0  0  0  0  0  0  0  0  0  0
  1  6  1  0  0  0  0
  2  3  1  0  0  0  0
  2  1  2  0  0  0  0
  3  4  2  0  0  0  0
  4  5  1  0  0  0  0
  5 10  1  0  0  0  0
  6  5  2  0  0  0  0
  7  1  1  0  0  0  0
  8  3  1  0  0  0  0
  9 14  1  6  0  0  0
  9 19  1  0  0  0  0
  9 13  1  0  0  0  0
 10 15  1  6  0  0  0
 10  9  1  0  0  0  0
 10 11  1  0  0  0  0
 11 12  1  0  0  0  0
 12 16  1  0  0  0  0
 12 17  1  0  0  0  0
 13 18  1  6  0  0  0
 13 12  1  0  0  0  0
 13 21  1  0  0  0  0
 19 20  1  0  0  0  0
 22 21  1  0  0  0  0
 23  2  1  0  0  0  0
 24 23  1  0  0  0  0
 25 23  1  0  0  0  0
 26 23  1  0  0  0  0
 27 26  1  0  0  0  0
 27 32  1  0  0  0  0
 28 27  2  0  0  0  0
 29 30  2  0  0  0  0
 29 28  1  0  0  0  0
 30 31  1  0  0  0  0
 31 36  1  0  0  0  0
 31 26  2  0  0  0  0
 33 28  1  0  0  0  0
 34 29  1  0  0  0  0
 35 30  1  0  0  0  0
 36 37  1  0  0  0  0
 36 38  1  0  0  0  0
 37 38  1  0  0  0  0
M  END
>  <minimizedAffinity>
-7.0882659

>  <minimizedRMSD>
1.71128523

$$$$
