REMARK  Name = 
REMARK  3 active torsions:
REMARK  status: ('A' for Active; 'I' for Inactive)
REMARK    1  A    between atoms: C_1  and  C_18
REMARK    2  A    between atoms: C_3  and  C_4
REMARK    3  A    between atoms: C_16  and  C_33
REMARK                            x       y       z     vdW  Elec       q    Type
REMARK                         _______ _______ _______ _____ _____    ______ ____
ROOT
ATOM      1  C   UNL     1      46.381  32.669  45.866  0.00  0.00    +0.000 C 
ATOM      2  C   UNL     1      46.971  32.834  47.202  0.00  0.00    +0.000 C 
ATOM      3  C   UNL     1      45.541  32.206  46.951  0.00  0.00    +0.000 C 
ATOM      4  H   UNL     1      47.139  32.029  45.286  0.00  0.00    +0.000 HD
ATOM      5  H   UNL     1      47.003  33.812  47.674  0.00  0.00    +0.000 HD
ATOM      6  H   UNL     1      47.628  32.095  47.690  0.00  0.00    +0.000 HD
ATOM      7  H   UNL     1      44.861  32.883  47.561  0.00  0.00    +0.000 HD
ENDROOT
BRANCH   3   8
ATOM      8  C   UNL     1      45.300  30.804  47.302  0.00  0.00    +0.000 A 
ATOM      9  C   UNL     1      45.174  30.269  48.544  0.00  0.00    +0.000 A 
ATOM     10  C   UNL     1      45.074  28.914  48.840  0.00  0.00    +0.000 A 
ATOM     11  C   UNL     1      45.108  28.034  47.749  0.00  0.00    +0.000 A 
ATOM     12  C   UNL     1      45.234  28.556  46.461  0.00  0.00    +0.000 A 
ATOM     13  C   UNL     1      45.197  27.650  45.416  0.00  0.00    +0.000 A 
ATOM     14  C   UNL     1      45.246  28.134  44.111  0.00  0.00    +0.000 A 
ATOM     15  C   UNL     1      45.326  29.489  43.861  0.00  0.00    +0.000 A 
ATOM     16  C   UNL     1      45.361  30.340  44.940  0.00  0.00    +0.000 A 
ATOM     17  C   UNL     1      45.324  29.912  46.260  0.00  0.00    +0.000 A 
ATOM     18  H   UNL     1      45.152  30.986  49.362  0.00  0.00    +0.000 HD
ATOM     19  H   UNL     1      44.975  28.562  49.854  0.00  0.00    +0.000 HD
ATOM     20  H   UNL     1      45.034  26.993  47.981  0.00  0.00    +0.000 HD
ATOM     21  H   UNL     1      45.132  26.593  45.643  0.00  0.00    +0.000 HD
ATOM     22  H   UNL     1      45.213  27.330  43.368  0.00  0.00    +0.000 HD
ATOM     23  H   UNL     1      45.349  29.657  42.813  0.00  0.00    +0.000 HD
ATOM     24  H   UNL     1      45.335  31.299  44.506  0.00  0.00    +0.000 HD
ENDBRANCH   3   8
BRANCH   1  29
ATOM     25  C   UNL     1      44.603  35.734  44.831  0.00  0.00    +0.000 A 
ATOM     26  C   UNL     1      45.144  35.975  43.521  0.00  0.00    +0.000 A 
ATOM     27  C   UNL     1      46.133  35.057  43.040  0.00  0.00    +0.000 A 
ATOM     28  N   UNL     1      46.513  34.025  43.811  0.00  0.00    +0.000 NA
ATOM     29  C   UNL     1      45.953  33.850  45.060  0.00  0.00    +0.000 A 
ATOM     30  N   UNL     1      45.032  34.676  45.550  0.00  0.00    +0.000 NA
ATOM     31  H   UNL     1      43.865  36.453  45.142  0.00  0.00    +0.000 HD
ATOM     32  H   UNL     1      44.809  36.819  42.933  0.00  0.00    +0.000 HD
BRANCH  27  33
ATOM     33  C   UNL     1      46.678  35.318  41.696  0.00  0.00    +0.000 C 
ATOM     34  C   UNL     1      46.698  34.174  40.745  0.00  0.00    +0.000 C 
ATOM     35  C   UNL     1      45.797  35.391  40.520  0.00  0.00    +0.000 C 
ENDBRANCH  27  33
ENDBRANCH   1  29
TORSDOF 3
