
 OpenBabel03252506113D

 24 26  0  0  0  0  0  0  0  0999 V2000
   37.9900   28.2400   39.6520 F   0  0  0  0  0  0  0  0  0  0  0  0
   37.6890   28.0280   40.9460 C   0  0  0  0  0  0  0  0  0  0  0  0
   37.8200   29.0550   41.8530 C   0  0  0  0  0  0  0  0  0  0  0  0
   37.5300   28.9120   43.1970 C   0  0  0  0  0  0  0  0  0  0  0  0
   37.0830   27.6860   43.6800 C   0  0  0  0  0  0  0  0  0  0  0  0
   36.9650   26.6810   42.7330 C   0  0  0  0  0  0  0  0  0  0  0  0
   37.2470   26.8000   41.3960 C   0  0  0  0  0  0  0  0  0  0  0  0
   37.6490   29.7490   43.8730 H   0  0  0  0  0  0  0  0  0  0  0  0
   36.8410   27.5170   44.7170 H   0  0  0  0  0  0  0  0  0  0  0  0
   36.6140   25.7280   43.1230 H   0  0  0  0  0  0  0  0  0  0  0  0
   37.8530   32.4670   40.4740 C   0  0  0  0  0  0  0  0  0  0  0  0
   39.2230   32.8090   40.5770 C   0  0  0  0  0  0  0  0  0  0  0  0
   40.1220   31.8620   41.1200 C   0  0  0  0  0  0  0  0  0  0  0  0
   39.5940   30.6680   41.5110 N   0  0  0  0  0  0  0  0  0  0  0  0
   38.2910   30.3770   41.3990 C   0  0  0  0  0  0  0  0  0  0  0  0
   37.4370   31.2690   40.8860 N   0  0  0  0  0  0  0  0  0  0  0  0
   39.5650   33.7830   40.2420 H   0  0  0  0  0  0  0  0  0  0  0  0
   41.1680   32.0940   41.2100 H   0  0  0  0  0  0  0  0  0  0  0  0
   36.9500   33.4170   39.9290 N   0  0  0  0  0  0  0  0  0  0  0  0
   37.1960   33.9650   39.0730 H   0  0  0  0  0  0  0  0  0  0  0  0
   35.9960   33.7100   40.2360 H   0  0  0  0  0  0  0  0  0  0  0  0
   37.0940   25.6760   40.4500 C   0  0  0  0  0  3  0  0  0  0  0  0
   36.5890   24.3600   40.8980 C   0  0  0  0  0  2  0  0  0  0  0  0
   38.0260   24.5510   40.5120 C   0  0  0  0  0  2  0  0  0  0  0  0
  1  2  1  0  0  0  0
  2  7  2  0  0  0  0
  2  3  1  0  0  0  0
  3  4  2  0  0  0  0
  4  5  1  0  0  0  0
  4  8  1  0  0  0  0
  5  9  1  0  0  0  0
  6 10  1  0  0  0  0
  6  5  2  0  0  0  0
  7  6  1  0  0  0  0
 11 12  2  0  0  0  0
 11 16  1  0  0  0  0
 12 13  1  0  0  0  0
 13 18  1  0  0  0  0
 13 14  2  0  0  0  0
 15 14  1  0  0  0  0
 15  3  1  0  0  0  0
 16 15  2  0  0  0  0
 17 12  1  0  0  0  0
 19 21  1  0  0  0  0
 19 11  1  0  0  0  0
 20 19  1  0  0  0  0
 22 24  1  0  0  0  0
 22 23  1  0  0  0  0
 22  7  1  0  0  0  0
 24 23  1  0  0  0  0
M  END
>  <minimizedAffinity>
-5.45991898

$$$$

 OpenBabel03252506113D

 24 26  0  0  0  0  0  0  0  0999 V2000
   39.2810   29.7180   41.8310 F   0  0  0  0  0  0  0  0  0  0  0  0
   38.0410   29.6970   41.3110 C   0  0  0  0  0  0  0  0  0  0  0  0
   37.6890   30.6180   40.3500 C   0  0  0  0  0  0  0  0  0  0  0  0
   36.4340   30.6590   39.7710 C   0  0  0  0  0  0  0  0  0  0  0  0
   35.4670   29.7370   40.1570 C   0  0  0  0  0  0  0  0  0  0  0  0
   35.8630   28.8280   41.1250 C   0  0  0  0  0  0  0  0  0  0  0  0
   37.1000   28.7700   41.7140 C   0  0  0  0  0  0  0  0  0  0  0  0
   36.2040   31.4030   39.0190 H   0  0  0  0  0  0  0  0  0  0  0  0
   34.4720   29.7200   39.7390 H   0  0  0  0  0  0  0  0  0  0  0  0
   35.0970   28.1130   41.4180 H   0  0  0  0  0  0  0  0  0  0  0  0
   40.0550   32.4920   38.2430 C   0  0  0  0  0  0  0  0  0  0  0  0
   40.4950   33.5040   39.1290 C   0  0  0  0  0  0  0  0  0  0  0  0
   39.9740   33.5330   40.4440 C   0  0  0  0  0  0  0  0  0  0  0  0
   39.0690   32.5650   40.7670 N   0  0  0  0  0  0  0  0  0  0  0  0
   38.6740   31.6210   39.9020 C   0  0  0  0  0  0  0  0  0  0  0  0
   39.1640   31.5900   38.6580 N   0  0  0  0  0  0  0  0  0  0  0  0
   41.2200   34.2400   38.7960 H   0  0  0  0  0  0  0  0  0  0  0  0
   40.2890   34.2890   41.1380 H   0  0  0  0  0  0  0  0  0  0  0  0
   40.5780   32.4630   36.9240 N   0  0  0  0  0  0  0  0  0  0  0  0
   41.5980   32.6070   36.7460 H   0  0  0  0  0  0  0  0  0  0  0  0
   40.1080   32.3120   36.0030 H   0  0  0  0  0  0  0  0  0  0  0  0
   37.4430   27.7670   42.7410 C   0  0  0  0  0  3  0  0  0  0  0  0
   36.9600   26.3720   42.6440 C   0  0  0  0  0  2  0  0  0  0  0  0
   36.4150   27.3120   43.6760 C   0  0  0  0  0  2  0  0  0  0  0  0
  2  7  1  0  0  0  0
  2  1  1  0  0  0  0
  3  2  2  0  0  0  0
  4  5  2  0  0  0  0
  4  3  1  0  0  0  0
  5  6  1  0  0  0  0
  6 10  1  0  0  0  0
  6  7  2  0  0  0  0
  7 22  1  0  0  0  0
  8  4  1  0  0  0  0
  9  5  1  0  0  0  0
 11 16  2  0  0  0  0
 11 12  1  0  0  0  0
 12 13  2  0  0  0  0
 13 14  1  0  0  0  0
 13 18  1  0  0  0  0
 15  3  1  0  0  0  0
 15 14  2  0  0  0  0
 16 15  1  0  0  0  0
 17 12  1  0  0  0  0
 19 11  1  0  0  0  0
 20 19  1  0  0  0  0
 21 19  1  0  0  0  0
 22 24  1  0  0  0  0
 23 22  1  0  0  0  0
 23 24  1  0  0  0  0
M  END
>  <minimizedAffinity>
-5.43372059

$$$$

 OpenBabel03252506113D

 24 26  0  0  0  0  0  0  0  0999 V2000
   36.1150   27.1290   39.6080 F   0  0  0  0  0  0  0  0  0  0  0  0
   36.3640   28.3690   40.0670 C   0  0  0  0  0  0  0  0  0  0  0  0
   36.1970   29.4500   39.2320 C   0  0  0  0  0  0  0  0  0  0  0  0
   36.4330   30.7530   39.6310 C   0  0  0  0  0  0  0  0  0  0  0  0
   36.8580   31.0080   40.9310 C   0  0  0  0  0  0  0  0  0  0  0  0
   37.0130   29.8920   41.7380 C   0  0  0  0  0  0  0  0  0  0  0  0
   36.7850   28.5920   41.3620 C   0  0  0  0  0  0  0  0  0  0  0  0
   36.2880   31.5720   38.9390 H   0  0  0  0  0  0  0  0  0  0  0  0
   37.0580   32.0030   41.2990 H   0  0  0  0  0  0  0  0  0  0  0  0
   37.3460   30.1050   42.7510 H   0  0  0  0  0  0  0  0  0  0  0  0
   36.2360   28.9730   35.5830 C   0  0  0  0  0  0  0  0  0  0  0  0
   34.8570   28.8510   35.2900 C   0  0  0  0  0  0  0  0  0  0  0  0
   33.9260   28.9350   36.3520 C   0  0  0  0  0  0  0  0  0  0  0  0
   34.4350   29.1290   37.6010 N   0  0  0  0  0  0  0  0  0  0  0  0
   35.7480   29.2410   37.8420 C   0  0  0  0  0  0  0  0  0  0  0  0
   36.6320   29.1630   36.8420 N   0  0  0  0  0  0  0  0  0  0  0  0
   34.5310   28.6970   34.2660 H   0  0  0  0  0  0  0  0  0  0  0  0
   32.8720   28.8460   36.1600 H   0  0  0  0  0  0  0  0  0  0  0  0
   37.1710   28.8900   34.5180 N   0  0  0  0  0  0  0  0  0  0  0  0
   37.0030   29.3850   33.6130 H   0  0  0  0  0  0  0  0  0  0  0  0
   38.0830   28.3860   34.4440 H   0  0  0  0  0  0  0  0  0  0  0  0
   36.9750   27.4560   42.2850 C   0  0  0  0  0  3  0  0  0  0  0  0
   36.3200   27.4260   43.6110 C   0  0  0  0  0  2  0  0  0  0  0  0
   37.8000   27.6270   43.4800 C   0  0  0  0  0  2  0  0  0  0  0  0
  1  2  1  0  0  0  0
  2  7  1  0  0  0  0
  3  4  1  0  0  0  0
  3  2  2  0  0  0  0
  4  5  2  0  0  0  0
  5  9  1  0  0  0  0
  5  6  1  0  0  0  0
  6 10  1  0  0  0  0
  7  6  2  0  0  0  0
  7 22  1  0  0  0  0
  8  4  1  0  0  0  0
 11 16  1  0  0  0  0
 12 11  2  0  0  0  0
 12 13  1  0  0  0  0
 13 14  2  0  0  0  0
 14 15  1  0  0  0  0
 15  3  1  0  0  0  0
 16 15  2  0  0  0  0
 17 12  1  0  0  0  0
 18 13  1  0  0  0  0
 19 11  1  0  0  0  0
 20 19  1  0  0  0  0
 21 19  1  0  0  0  0
 22 24  1  0  0  0  0
 22 23  1  0  0  0  0
 24 23  1  0  0  0  0
M  END
>  <minimizedAffinity>
-5.2369771

$$$$

 OpenBabel03252506113D

 24 26  0  0  0  0  0  0  0  0999 V2000
   37.9720   28.2290   39.6760 F   0  0  0  0  0  0  0  0  0  0  0  0
   37.6400   28.0170   40.9620 C   0  0  0  0  0  0  0  0  0  0  0  0
   37.6630   29.0660   41.8530 C   0  0  0  0  0  0  0  0  0  0  0  0
   37.3360   28.9240   43.1890 C   0  0  0  0  0  0  0  0  0  0  0  0
   36.9600   27.6770   43.6790 C   0  0  0  0  0  0  0  0  0  0  0  0
   36.9500   26.6500   42.7480 C   0  0  0  0  0  0  0  0  0  0  0  0
   37.2720   26.7670   41.4190 C   0  0  0  0  0  0  0  0  0  0  0  0
   37.3680   29.7790   43.8530 H   0  0  0  0  0  0  0  0  0  0  0  0
   36.6940   27.5070   44.7100 H   0  0  0  0  0  0  0  0  0  0  0  0
   36.6560   25.6810   43.1430 H   0  0  0  0  0  0  0  0  0  0  0  0
   39.6480   32.0940   41.1950 C   0  0  0  0  0  0  0  0  0  0  0  0
   38.7160   32.9110   40.5120 C   0  0  0  0  0  0  0  0  0  0  0  0
   37.4120   32.4110   40.2840 C   0  0  0  0  0  0  0  0  0  0  0  0
   37.1450   31.1570   40.7480 N   0  0  0  0  0  0  0  0  0  0  0  0
   38.0530   30.4110   41.3910 C   0  0  0  0  0  0  0  0  0  0  0  0
   39.2860   30.8790   41.6100 N   0  0  0  0  0  0  0  0  0  0  0  0
   39.0070   33.9000   40.1740 H   0  0  0  0  0  0  0  0  0  0  0  0
   36.6840   33.0090   39.7680 H   0  0  0  0  0  0  0  0  0  0  0  0
   40.9570   32.5950   41.4250 N   0  0  0  0  0  0  0  0  0  0  0  0
   41.1090   33.5760   41.7520 H   0  0  0  0  0  0  0  0  0  0  0  0
   41.8920   32.1400   41.3260 H   0  0  0  0  0  0  0  0  0  0  0  0
   37.2350   25.6210   40.4910 C   0  0  0  0  0  3  0  0  0  0  0  0
   36.6790   24.3140   40.9050 C   0  0  0  0  0  2  0  0  0  0  0  0
   38.1520   24.4990   40.6940 C   0  0  0  0  0  2  0  0  0  0  0  0
  1  2  1  0  0  0  0
  2  7  2  0  0  0  0
  2  3  1  0  0  0  0
  3  4  2  0  0  0  0
  4  5  1  0  0  0  0
  4  8  1  0  0  0  0
  5  9  1  0  0  0  0
  6 10  1  0  0  0  0
  6  5  2  0  0  0  0
  7  6  1  0  0  0  0
 11 19  1  0  0  0  0
 11 16  1  0  0  0  0
 12 11  2  0  0  0  0
 13 12  1  0  0  0  0
 13 14  2  0  0  0  0
 14 15  1  0  0  0  0
 15 16  2  0  0  0  0
 15  3  1  0  0  0  0
 17 12  1  0  0  0  0
 18 13  1  0  0  0  0
 19 20  1  0  0  0  0
 21 19  1  0  0  0  0
 22 24  1  0  0  0  0
 22 23  1  0  0  0  0
 22  7  1  0  0  0  0
 24 23  1  0  0  0  0
M  END
>  <minimizedAffinity>
-5.16390133

$$$$

 OpenBabel03252506113D

 24 26  0  0  0  0  0  0  0  0999 V2000
   40.2910   29.2800   41.9310 F   0  0  0  0  0  0  0  0  0  0  0  0
   39.1010   28.7050   42.1820 C   0  0  0  0  0  0  0  0  0  0  0  0
   37.9520   29.2680   41.6730 C   0  0  0  0  0  0  0  0  0  0  0  0
   36.6940   28.7350   41.8900 C   0  0  0  0  0  0  0  0  0  0  0  0
   36.5570   27.5790   42.6510 C   0  0  0  0  0  0  0  0  0  0  0  0
   37.7380   27.0460   43.1430 C   0  0  0  0  0  0  0  0  0  0  0  0
   38.9960   27.5570   42.9420 C   0  0  0  0  0  0  0  0  0  0  0  0
   35.8200   29.2130   41.4680 H   0  0  0  0  0  0  0  0  0  0  0  0
   35.6030   27.1180   42.8520 H   0  0  0  0  0  0  0  0  0  0  0  0
   37.6170   26.1420   43.7360 H   0  0  0  0  0  0  0  0  0  0  0  0
   38.4620   32.7760   40.6840 C   0  0  0  0  0  0  0  0  0  0  0  0
   38.1740   32.7330   39.2990 C   0  0  0  0  0  0  0  0  0  0  0  0
   37.8070   31.4960   38.7180 C   0  0  0  0  0  0  0  0  0  0  0  0
   37.7570   30.4170   39.5510 N   0  0  0  0  0  0  0  0  0  0  0  0
   38.0360   30.4950   40.8590 C   0  0  0  0  0  0  0  0  0  0  0  0
   38.3830   31.6610   41.4130 N   0  0  0  0  0  0  0  0  0  0  0  0
   38.2370   33.6380   38.7040 H   0  0  0  0  0  0  0  0  0  0  0  0
   37.5830   31.4330   37.6690 H   0  0  0  0  0  0  0  0  0  0  0  0
   38.8290   34.0170   41.2680 N   0  0  0  0  0  0  0  0  0  0  0  0
   38.3160   34.8960   41.0320 H   0  0  0  0  0  0  0  0  0  0  0  0
   39.5810   34.2560   41.9530 H   0  0  0  0  0  0  0  0  0  0  0  0
   40.2070   26.9270   43.5030 C   0  0  0  0  0  3  0  0  0  0  0  0
   41.1230   26.1340   42.6540 C   0  0  0  0  0  2  0  0  0  0  0  0
   40.2480   25.4760   43.6790 C   0  0  0  0  0  2  0  0  0  0  0  0
  1  2  1  0  0  0  0
  2  7  1  0  0  0  0
  3  4  1  0  0  0  0
  3  2  2  0  0  0  0
  4  5  2  0  0  0  0
  5  9  1  0  0  0  0
  5  6  1  0  0  0  0
  6 10  1  0  0  0  0
  7  6  2  0  0  0  0
  7 22  1  0  0  0  0
  8  4  1  0  0  0  0
 11 19  1  0  0  0  0
 11 16  1  0  0  0  0
 12 11  2  0  0  0  0
 13 12  1  0  0  0  0
 13 14  2  0  0  0  0
 14 15  1  0  0  0  0
 15 16  2  0  0  0  0
 15  3  1  0  0  0  0
 17 12  1  0  0  0  0
 18 13  1  0  0  0  0
 19 21  1  0  0  0  0
 20 19  1  0  0  0  0
 22 24  1  0  0  0  0
 23 22  1  0  0  0  0
 23 24  1  0  0  0  0
M  END
>  <minimizedAffinity>
-5.03343868

$$$$

 OpenBabel03252506113D

 24 26  0  0  0  0  0  0  0  0999 V2000
   37.2750   31.0250   37.3220 F   0  0  0  0  0  0  0  0  0  0  0  0
   36.4960   30.4210   38.2360 C   0  0  0  0  0  0  0  0  0  0  0  0
   36.5840   30.7940   39.5580 C   0  0  0  0  0  0  0  0  0  0  0  0
   35.8170   30.2190   40.5550 C   0  0  0  0  0  0  0  0  0  0  0  0
   34.9060   29.2170   40.2320 C   0  0  0  0  0  0  0  0  0  0  0  0
   34.8510   28.8730   38.8900 C   0  0  0  0  0  0  0  0  0  0  0  0
   35.6020   29.4290   37.8860 C   0  0  0  0  0  0  0  0  0  0  0  0
   35.9200   30.5460   41.5810 H   0  0  0  0  0  0  0  0  0  0  0  0
   34.2810   28.7330   40.9660 H   0  0  0  0  0  0  0  0  0  0  0  0
   34.1360   28.0880   38.6520 H   0  0  0  0  0  0  0  0  0  0  0  0
   39.4950   32.5020   41.0240 C   0  0  0  0  0  0  0  0  0  0  0  0
   39.2480   33.8510   40.6750 C   0  0  0  0  0  0  0  0  0  0  0  0
   38.0810   34.1610   39.9380 C   0  0  0  0  0  0  0  0  0  0  0  0
   37.2660   33.1180   39.6120 N   0  0  0  0  0  0  0  0  0  0  0  0
   37.5310   31.8510   39.9600 C   0  0  0  0  0  0  0  0  0  0  0  0
   38.6330   31.5540   40.6570 N   0  0  0  0  0  0  0  0  0  0  0  0
   39.9480   34.6260   40.9720 H   0  0  0  0  0  0  0  0  0  0  0  0
   37.8670   35.1760   39.6580 H   0  0  0  0  0  0  0  0  0  0  0  0
   40.6660   32.1910   41.7650 N   0  0  0  0  0  0  0  0  0  0  0  0
   40.9630   32.7790   42.5760 H   0  0  0  0  0  0  0  0  0  0  0  0
   41.3620   31.4190   41.6550 H   0  0  0  0  0  0  0  0  0  0  0  0
   35.4820   29.0050   36.4780 C   0  0  0  0  0  3  0  0  0  0  0  0
   34.1660   28.9440   35.8040 C   0  0  0  0  0  2  0  0  0  0  0  0
   34.9110   27.6940   36.1660 C   0  0  0  0  0  2  0  0  0  0  0  0
  1  2  1  0  0  0  0
  2  3  1  0  0  0  0
  3 15  1  0  0  0  0
  3  4  2  0  0  0  0
  4  8  1  0  0  0  0
  5  4  1  0  0  0  0
  5  9  1  0  0  0  0
  6  5  2  0  0  0  0
  7  2  2  0  0  0  0
  7  6  1  0  0  0  0
 10  6  1  0  0  0  0
 11 19  1  0  0  0  0
 12 17  1  0  0  0  0
 12 11  1  0  0  0  0
 13 12  2  0  0  0  0
 14 13  1  0  0  0  0
 14 15  2  0  0  0  0
 15 16  1  0  0  0  0
 16 11  2  0  0  0  0
 18 13  1  0  0  0  0
 19 20  1  0  0  0  0
 21 19  1  0  0  0  0
 22  7  1  0  0  0  0
 23 24  1  0  0  0  0
 23 22  1  0  0  0  0
 24 22  1  0  0  0  0
M  END
>  <minimizedAffinity>
-5.01567984

$$$$

 OpenBabel03252506113D

 24 26  0  0  0  0  0  0  0  0999 V2000
   37.7620   30.6190   40.8910 F   0  0  0  0  0  0  0  0  0  0  0  0
   38.7570   29.9660   41.5170 C   0  0  0  0  0  0  0  0  0  0  0  0
   40.0590   30.3680   41.3280 C   0  0  0  0  0  0  0  0  0  0  0  0
   41.1340   29.7460   41.9370 C   0  0  0  0  0  0  0  0  0  0  0  0
   40.9150   28.6630   42.7830 C   0  0  0  0  0  0  0  0  0  0  0  0
   39.5900   28.2920   42.9440 C   0  0  0  0  0  0  0  0  0  0  0  0
   38.5090   28.8940   42.3500 C   0  0  0  0  0  0  0  0  0  0  0  0
   42.1420   30.0980   41.7580 H   0  0  0  0  0  0  0  0  0  0  0  0
   41.7140   28.1390   43.2840 H   0  0  0  0  0  0  0  0  0  0  0  0
   39.4320   27.4440   43.6070 H   0  0  0  0  0  0  0  0  0  0  0  0
   40.4370   32.4420   38.3110 C   0  0  0  0  0  0  0  0  0  0  0  0
   40.9130   33.6600   38.8530 C   0  0  0  0  0  0  0  0  0  0  0  0
   41.0990   33.7560   40.2520 C   0  0  0  0  0  0  0  0  0  0  0  0
   40.8010   32.6490   40.9890 N   0  0  0  0  0  0  0  0  0  0  0  0
   40.3530   31.5100   40.4420 C   0  0  0  0  0  0  0  0  0  0  0  0
   40.1760   31.4140   39.1210 N   0  0  0  0  0  0  0  0  0  0  0  0
   41.1270   34.4980   38.1970 H   0  0  0  0  0  0  0  0  0  0  0  0
   41.4590   34.6690   40.6910 H   0  0  0  0  0  0  0  0  0  0  0  0
   40.2510   32.3440   36.9070 N   0  0  0  0  0  0  0  0  0  0  0  0
   40.9640   32.7200   36.2410 H   0  0  0  0  0  0  0  0  0  0  0  0
   39.4710   31.9330   36.3460 H   0  0  0  0  0  0  0  0  0  0  0  0
   37.1240   28.4360   42.5750 C   0  0  0  0  0  3  0  0  0  0  0  0
   36.7910   27.5090   43.6800 C   0  0  0  0  0  2  0  0  0  0  0  0
   36.7590   27.0570   42.2500 C   0  0  0  0  0  2  0  0  0  0  0  0
  1  2  1  0  0  0  0
  2  7  1  0  0  0  0
  3  2  2  0  0  0  0
  3  4  1  0  0  0  0
  4  5  2  0  0  0  0
  5  6  1  0  0  0  0
  5  9  1  0  0  0  0
  6 10  1  0  0  0  0
  7 22  1  0  0  0  0
  7  6  2  0  0  0  0
  8  4  1  0  0  0  0
 11 12  2  0  0  0  0
 11 16  1  0  0  0  0
 12 13  1  0  0  0  0
 13 18  1  0  0  0  0
 13 14  2  0  0  0  0
 15 14  1  0  0  0  0
 15  3  1  0  0  0  0
 16 15  2  0  0  0  0
 17 12  1  0  0  0  0
 19 11  1  0  0  0  0
 20 19  1  0  0  0  0
 21 19  1  0  0  0  0
 22 23  1  0  0  0  0
 24 22  1  0  0  0  0
 24 23  1  0  0  0  0
M  END
>  <minimizedAffinity>
-5.01203203

$$$$

 OpenBabel03252506113D

 24 26  0  0  0  0  0  0  0  0999 V2000
   36.3830   26.7040   38.7690 F   0  0  0  0  0  0  0  0  0  0  0  0
   36.5820   25.9380   39.8560 C   0  0  0  0  0  0  0  0  0  0  0  0
   37.0790   26.5060   41.0070 C   0  0  0  0  0  0  0  0  0  0  0  0
   37.3110   25.7830   42.1630 C   0  0  0  0  0  0  0  0  0  0  0  0
   37.0350   24.4190   42.1900 C   0  0  0  0  0  0  0  0  0  0  0  0
   36.5360   23.8890   41.0110 C   0  0  0  0  0  0  0  0  0  0  0  0
   36.3000   24.5860   39.8530 C   0  0  0  0  0  0  0  0  0  0  0  0
   37.7030   26.2730   43.0450 H   0  0  0  0  0  0  0  0  0  0  0  0
   37.1950   23.8050   43.0630 H   0  0  0  0  0  0  0  0  0  0  0  0
   36.3260   22.8220   41.0450 H   0  0  0  0  0  0  0  0  0  0  0  0
   36.6890   30.1600   41.2000 C   0  0  0  0  0  0  0  0  0  0  0  0
   38.0290   30.6030   41.0880 C   0  0  0  0  0  0  0  0  0  0  0  0
   39.0540   29.6390   40.9470 C   0  0  0  0  0  0  0  0  0  0  0  0
   38.6700   28.3310   40.9300 N   0  0  0  0  0  0  0  0  0  0  0  0
   37.3900   27.9470   41.0380 C   0  0  0  0  0  0  0  0  0  0  0  0
   36.4170   28.8540   41.1710 N   0  0  0  0  0  0  0  0  0  0  0  0
   38.2540   31.6640   41.1110 H   0  0  0  0  0  0  0  0  0  0  0  0
   40.0810   29.9450   40.8610 H   0  0  0  0  0  0  0  0  0  0  0  0
   35.6590   31.1270   41.3400 N   0  0  0  0  0  0  0  0  0  0  0  0
   35.6500   31.9940   40.7560 H   0  0  0  0  0  0  0  0  0  0  0  0
   34.8250   31.1550   41.9690 H   0  0  0  0  0  0  0  0  0  0  0  0
   35.7650   23.9450   38.6360 C   0  0  0  0  0  3  0  0  0  0  0  0
   34.8460   22.7880   38.7180 C   0  0  0  0  0  2  0  0  0  0  0  0
   36.2590   22.6260   38.2410 C   0  0  0  0  0  2  0  0  0  0  0  0
  1  2  1  0  0  0  0
  2  3  1  0  0  0  0
  3 15  1  0  0  0  0
  3  4  2  0  0  0  0
  4  5  1  0  0  0  0
  4  8  1  0  0  0  0
  5  9  1  0  0  0  0
  6 10  1  0  0  0  0
  6  5  2  0  0  0  0
  7  2  2  0  0  0  0
  7  6  1  0  0  0  0
 11 19  1  0  0  0  0
 12 17  1  0  0  0  0
 12 11  2  0  0  0  0
 13 12  1  0  0  0  0
 14 13  2  0  0  0  0
 14 15  1  0  0  0  0
 15 16  2  0  0  0  0
 16 11  1  0  0  0  0
 18 13  1  0  0  0  0
 19 21  1  0  0  0  0
 20 19  1  0  0  0  0
 22 23  1  0  0  0  0
 22  7  1  0  0  0  0
 24 22  1  0  0  0  0
 24 23  1  0  0  0  0
M  END
>  <minimizedAffinity>
-4.9828639

$$$$

 OpenBabel03252506113D

 24 26  0  0  0  0  0  0  0  0999 V2000
   36.8490   27.9080   40.5080 F   0  0  0  0  0  0  0  0  0  0  0  0
   37.8590   27.8370   41.3940 C   0  0  0  0  0  0  0  0  0  0  0  0
   38.7940   28.8450   41.4430 C   0  0  0  0  0  0  0  0  0  0  0  0
   39.8590   28.8410   42.3250 C   0  0  0  0  0  0  0  0  0  0  0  0
   40.0130   27.7830   43.2150 C   0  0  0  0  0  0  0  0  0  0  0  0
   39.0490   26.7900   43.1320 C   0  0  0  0  0  0  0  0  0  0  0  0
   37.9860   26.7730   42.2650 C   0  0  0  0  0  0  0  0  0  0  0  0
   40.5700   29.6570   42.3270 H   0  0  0  0  0  0  0  0  0  0  0  0
   40.8220   27.7260   43.9260 H   0  0  0  0  0  0  0  0  0  0  0  0
   39.1810   25.9690   43.8320 H   0  0  0  0  0  0  0  0  0  0  0  0
   37.7750   32.0670   39.9850 C   0  0  0  0  0  0  0  0  0  0  0  0
   38.5190   32.0900   38.7810 C   0  0  0  0  0  0  0  0  0  0  0  0
   39.3640   30.9960   38.4820 C   0  0  0  0  0  0  0  0  0  0  0  0
   39.4020   29.9820   39.3920 N   0  0  0  0  0  0  0  0  0  0  0  0
   38.6830   29.9930   40.5230 C   0  0  0  0  0  0  0  0  0  0  0  0
   37.8820   31.0240   40.8100 N   0  0  0  0  0  0  0  0  0  0  0  0
   38.4340   32.9360   38.1060 H   0  0  0  0  0  0  0  0  0  0  0  0
   39.9410   30.9860   37.5750 H   0  0  0  0  0  0  0  0  0  0  0  0
   36.9260   33.1640   40.2850 N   0  0  0  0  0  0  0  0  0  0  0  0
   36.3130   33.5880   39.5510 H   0  0  0  0  0  0  0  0  0  0  0  0
   36.7710   33.6880   41.1750 H   0  0  0  0  0  0  0  0  0  0  0  0
   37.0000   25.6750   42.2400 C   0  0  0  0  0  3  0  0  0  0  0  0
   37.4260   24.2600   42.3100 C   0  0  0  0  0  2  0  0  0  0  0  0
   36.8770   24.8440   41.0430 C   0  0  0  0  0  2  0  0  0  0  0  0
  1  2  1  0  0  0  0
  2  3  2  0  0  0  0
  2  7  1  0  0  0  0
  3  4  1  0  0  0  0
  4  8  1  0  0  0  0
  4  5  2  0  0  0  0
  5  9  1  0  0  0  0
  6  5  1  0  0  0  0
  6 10  1  0  0  0  0
  7  6  2  0  0  0  0
 11 19  1  0  0  0  0
 11 16  1  0  0  0  0
 12 11  2  0  0  0  0
 13 12  1  0  0  0  0
 13 14  2  0  0  0  0
 14 15  1  0  0  0  0
 15 16  2  0  0  0  0
 15  3  1  0  0  0  0
 17 12  1  0  0  0  0
 18 13  1  0  0  0  0
 19 21  1  0  0  0  0
 20 19  1  0  0  0  0
 22  7  1  0  0  0  0
 22 23  1  0  0  0  0
 24 22  1  0  0  0  0
 24 23  1  0  0  0  0
M  END
>  <minimizedAffinity>
-4.96958828

$$$$
