
 OpenBabel03252509243D

 21 23  0  0  1  0  0  0  0  0999 V2000
   44.7560   35.0760   45.4160 C   0  0  0  0  0  0  0  0  0  0  0  0
   45.0910   35.4550   44.0990 C   0  0  0  0  0  0  0  0  0  0  0  0
   46.0630   34.7040   43.4980 C   0  0  0  0  0  0  0  0  0  0  0  0
   46.6640   33.6430   44.1650 N   0  0  0  0  0  0  0  0  0  0  0  0
   46.3110   33.3230   45.4150 C   0  0  0  0  0  0  0  0  0  0  0  0
   45.3450   34.0490   46.0460 N   0  0  0  0  0  0  0  0  0  0  0  0
   43.9890   35.6480   45.9240 H   0  0  0  0  0  0  0  0  0  0  0  0
   46.8680   32.4800   45.7940 H   0  0  0  0  0  0  0  0  0  0  0  0
   46.4180   34.9800   42.0580 C   0  0  1  0  0  0  0  0  0  0  0  0
   47.9280   35.3100   41.9350 C   0  0  0  0  0  0  0  0  0  0  0  0
   47.2230   34.0530   41.3510 C   0  0  2  0  0  0  0  0  0  0  0  0
   45.7710   35.7250   41.5610 H   0  0  0  0  0  0  0  0  0  0  0  0
   48.1650   36.1100   41.2400 H   0  0  0  0  0  0  0  0  0  0  0  0
   48.5820   35.1660   42.7890 H   0  0  0  0  0  0  0  0  0  0  0  0
   47.5430   33.1130   41.8500 H   0  0  0  0  0  0  0  0  0  0  0  0
   47.1230   33.9750   39.8500 C   0  0  0  0  0  3  0  0  0  0  0  0
   48.2760   34.2870   38.9830 C   0  0  0  0  0  2  0  0  0  0  0  0
   47.9390   32.8430   39.1960 C   0  0  0  0  0  2  0  0  0  0  0  0
   44.4890   36.5680   43.4490 N   0  0  0  0  0  0  0  0  0  0  0  0
   43.9720   36.6410   42.5800 H   0  0  0  0  0  0  0  0  0  0  0  0
   44.5390   37.5330   43.8740 H   0  0  0  0  0  0  0  0  0  0  0  0
  1  7  1  0  0  0  0
  1  6  1  0  0  0  0
  2  1  2  0  0  0  0
  3  2  1  0  0  0  0
  3  4  2  0  0  0  0
  4  5  1  0  0  0  0
  5  8  1  0  0  0  0
  5  6  2  0  0  0  0
  9 12  1  6  0  0  0
  9  3  1  0  0  0  0
 10  9  1  0  0  0  0
 10 14  1  0  0  0  0
 11 15  1  1  0  0  0
 11 10  1  0  0  0  0
 11  9  1  0  0  0  0
 13 10  1  0  0  0  0
 16 11  1  0  0  0  0
 17 18  1  0  0  0  0
 17 16  1  0  0  0  0
 18 16  1  0  0  0  0
 19 21  1  0  0  0  0
 19  2  1  0  0  0  0
 20 19  1  0  0  0  0
M  END
>  <minimizedAffinity>
-4.46520138

>  <minimizedRMSD>
0.457144767

$$$$
