
 OpenBabel03252507393D

 32 36  0  0  0  0  0  0  0  0999 V2000
   38.1800   33.1220   40.0370 C   0  0  0  0  0  0  0  0  0  0  0  0
   39.1630   32.4650   39.2520 C   0  0  0  0  0  0  0  0  0  0  0  0
   40.3630   33.1200   39.0530 C   0  0  0  0  0  0  0  0  0  0  0  0
   40.5420   34.3380   39.6070 N   0  0  0  0  0  0  0  0  0  0  0  0
   39.5920   34.9500   40.3530 C   0  0  0  0  0  0  0  0  0  0  0  0
   38.4320   34.3440   40.5600 N   0  0  0  0  0  0  0  0  0  0  0  0
   39.0250   31.5020   38.8120 H   0  0  0  0  0  0  0  0  0  0  0  0
   39.8460   35.9250   40.7450 H   0  0  0  0  0  0  0  0  0  0  0  0
   42.7070   33.1690   38.3990 C   0  0  0  0  0  0  0  0  0  0  0  0
   41.4660   32.5680   38.2680 C   0  0  0  0  0  0  0  0  0  0  0  0
   41.3540   31.4980   37.4180 C   0  0  0  0  0  0  0  0  0  0  0  0
   42.4220   31.0090   36.6980 C   0  0  0  0  0  0  0  0  0  0  0  0
   42.5400   29.9890   35.8190 N   0  0  0  0  0  0  0  0  0  0  0  0
   43.8600   29.9560   35.4030 C   0  0  0  0  0  0  0  0  0  0  0  0
   44.5100   30.9500   36.0310 N   0  0  0  0  0  0  0  0  0  0  0  0
   43.6490   31.5990   36.8220 C   0  0  0  0  0  0  0  0  0  0  0  0
   43.7920   32.6800   37.6750 C   0  0  0  0  0  0  0  0  0  0  0  0
   42.9010   34.0170   39.0420 H   0  0  0  0  0  0  0  0  0  0  0  0
   40.3880   31.0420   37.3250 H   0  0  0  0  0  0  0  0  0  0  0  0
   41.7140   29.3780   35.5580 H   0  0  0  0  0  0  0  0  0  0  0  0
   44.1210   29.1840   34.6870 H   0  0  0  0  0  0  0  0  0  0  0  0
   44.7770   33.1320   37.7570 H   0  0  0  0  0  0  0  0  0  0  0  0
   36.9670   32.4650   40.2420 O   0  0  0  0  0  0  0  0  0  0  0  0
   36.9610   31.1770   40.7740 C   0  0  0  0  0  0  0  0  0  0  0  0
   36.0510   30.5780   39.9800 C   0  0  0  0  0  0  0  0  0  0  0  0
   36.0210   28.8050   40.6830 S   0  0  0  0  0  0  0  0  0  0  0  0
   37.3220   29.3220   41.9610 C   0  0  0  0  0  0  0  0  0  0  0  0
   37.4620   30.3760   41.6830 N   0  0  0  0  0  0  0  0  0  0  0  0
   35.2340   30.4300   39.1060 H   0  0  0  0  0  0  0  0  0  0  0  0
   37.8690   28.3590   42.9880 C   0  0  0  0  0  3  0  0  0  0  0  0
   37.0680   28.1020   44.2160 C   0  0  0  0  0  2  0  0  0  0  0  0
   37.1860   27.0620   43.1870 C   0  0  0  0  0  2  0  0  0  0  0  0
  1 23  1  0  0  0  0
  1  6  1  0  0  0  0
  2  1  2  0  0  0  0
  3  2  1  0  0  0  0
  3  4  2  0  0  0  0
  4  5  1  0  0  0  0
  5  6  2  0  0  0  0
  5  8  1  0  0  0  0
  7  2  1  0  0  0  0
  9 18  1  0  0  0  0
 10  9  1  0  0  0  0
 10  3  1  0  0  0  0
 11 10  2  0  0  0  0
 12 16  2  0  0  0  0
 12 11  1  0  0  0  0
 13 12  1  0  0  0  0
 14 13  1  0  0  0  0
 14 15  2  0  0  0  0
 15 16  1  0  0  0  0
 16 17  1  0  0  0  0
 17 22  1  0  0  0  0
 17  9  2  0  0  0  0
 19 11  1  0  0  0  0
 20 13  1  0  0  0  0
 21 14  1  0  0  0  0
 23 24  1  0  0  0  0
 24 28  1  0  0  0  0
 25 26  1  0  0  0  0
 25 24  2  0  0  0  0
 26 27  1  0  0  0  0
 27 30  1  0  0  0  0
 28 27  2  0  0  0  0
 29 25  1  0  0  0  0
 30 32  1  0  0  0  0
 30 31  1  0  0  0  0
 32 31  1  0  0  0  0
M  END
>  <minimizedAffinity>
-6.21077585

$$$$

 OpenBabel03252507393D

 32 36  0  0  0  0  0  0  0  0999 V2000
   37.9920   29.7600   42.3040 C   0  0  0  0  0  0  0  0  0  0  0  0
   38.9930   30.5930   41.7410 C   0  0  0  0  0  0  0  0  0  0  0  0
   38.5920   31.5330   40.8110 C   0  0  0  0  0  0  0  0  0  0  0  0
   37.2850   31.6160   40.4870 N   0  0  0  0  0  0  0  0  0  0  0  0
   36.3420   30.8120   41.0350 C   0  0  0  0  0  0  0  0  0  0  0  0
   36.7000   29.9010   41.9290 N   0  0  0  0  0  0  0  0  0  0  0  0
   40.0280   30.5310   41.9950 H   0  0  0  0  0  0  0  0  0  0  0  0
   35.3270   30.9670   40.6990 H   0  0  0  0  0  0  0  0  0  0  0  0
   39.5500   33.7630   40.6130 C   0  0  0  0  0  0  0  0  0  0  0  0
   39.5100   32.4590   40.1490 C   0  0  0  0  0  0  0  0  0  0  0  0
   40.3320   32.1210   39.1040 C   0  0  0  0  0  0  0  0  0  0  0  0
   41.1840   33.0270   38.5100 C   0  0  0  0  0  0  0  0  0  0  0  0
   42.0630   32.9180   37.4890 N   0  0  0  0  0  0  0  0  0  0  0  0
   42.6510   34.1600   37.3190 C   0  0  0  0  0  0  0  0  0  0  0  0
   42.1190   34.9900   38.2330 N   0  0  0  0  0  0  0  0  0  0  0  0
   41.2260   34.3150   38.9630 C   0  0  0  0  0  0  0  0  0  0  0  0
   40.4080   34.6840   40.0180 C   0  0  0  0  0  0  0  0  0  0  0  0
   38.9430   34.1300   41.4310 H   0  0  0  0  0  0  0  0  0  0  0  0
   40.2920   31.1090   38.7540 H   0  0  0  0  0  0  0  0  0  0  0  0
   42.2080   32.0040   36.9710 H   0  0  0  0  0  0  0  0  0  0  0  0
   43.3890   34.2400   36.5290 H   0  0  0  0  0  0  0  0  0  0  0  0
   40.4590   35.7140   40.3610 H   0  0  0  0  0  0  0  0  0  0  0  0
   38.3900   28.8090   43.2430 O   0  0  0  0  0  0  0  0  0  0  0  0
   38.3200   27.4540   42.9260 C   0  0  0  0  0  0  0  0  0  0  0  0
   39.5380   27.0360   43.3240 C   0  0  0  0  0  0  0  0  0  0  0  0
   39.4730   25.1760   42.9060 S   0  0  0  0  0  0  0  0  0  0  0  0
   37.7100   25.4160   42.2510 C   0  0  0  0  0  0  0  0  0  0  0  0
   37.5810   26.4930   42.4260 N   0  0  0  0  0  0  0  0  0  0  0  0
   40.6540   27.0710   43.7780 H   0  0  0  0  0  0  0  0  0  0  0  0
   36.8990   24.2740   41.6860 C   0  0  0  0  0  3  0  0  0  0  0  0
   36.6770   24.2220   40.2160 C   0  0  0  0  0  2  0  0  0  0  0  0
   37.5790   23.2570   40.8540 C   0  0  0  0  0  2  0  0  0  0  0  0
  1 23  1  0  0  0  0
  2  7  1  0  0  0  0
  2  1  2  0  0  0  0
  3  2  1  0  0  0  0
  4  3  2  0  0  0  0
  4  5  1  0  0  0  0
  5  6  2  0  0  0  0
  6  1  1  0  0  0  0
  8  5  1  0  0  0  0
  9 18  1  0  0  0  0
 10  9  1  0  0  0  0
 10  3  1  0  0  0  0
 11 10  2  0  0  0  0
 12 16  2  0  0  0  0
 12 11  1  0  0  0  0
 13 12  1  0  0  0  0
 14 13  1  0  0  0  0
 14 15  2  0  0  0  0
 15 16  1  0  0  0  0
 16 17  1  0  0  0  0
 17 22  1  0  0  0  0
 17  9  2  0  0  0  0
 19 11  1  0  0  0  0
 20 13  1  0  0  0  0
 21 14  1  0  0  0  0
 24 23  1  0  0  0  0
 24 25  2  0  0  0  0
 25 29  1  0  0  0  0
 26 25  1  0  0  0  0
 27 28  2  0  0  0  0
 27 26  1  0  0  0  0
 28 24  1  0  0  0  0
 30 27  1  0  0  0  0
 31 32  1  0  0  0  0
 31 30  1  0  0  0  0
 32 30  1  0  0  0  0
M  END
>  <minimizedAffinity>
-6.08821487

$$$$

 OpenBabel03252507393D

 32 36  0  0  0  0  0  0  0  0999 V2000
   36.4870   28.7770   41.8190 C   0  0  0  0  0  0  0  0  0  0  0  0
   37.4280   29.8390   41.8040 C   0  0  0  0  0  0  0  0  0  0  0  0
   37.3130   30.7790   40.7980 C   0  0  0  0  0  0  0  0  0  0  0  0
   36.3240   30.6460   39.8890 N   0  0  0  0  0  0  0  0  0  0  0  0
   35.4340   29.6250   39.9200 C   0  0  0  0  0  0  0  0  0  0  0  0
   35.5220   28.7090   40.8740 N   0  0  0  0  0  0  0  0  0  0  0  0
   38.2120   29.9470   42.5210 H   0  0  0  0  0  0  0  0  0  0  0  0
   34.6850   29.6200   39.1400 H   0  0  0  0  0  0  0  0  0  0  0  0
   37.6770   33.0910   40.1290 C   0  0  0  0  0  0  0  0  0  0  0  0
   38.2090   31.9250   40.6550 C   0  0  0  0  0  0  0  0  0  0  0  0
   39.5340   31.9230   41.0080 C   0  0  0  0  0  0  0  0  0  0  0  0
   40.3420   33.0290   40.8570 C   0  0  0  0  0  0  0  0  0  0  0  0
   41.6470   33.2490   41.1300 N   0  0  0  0  0  0  0  0  0  0  0  0
   41.9270   34.5570   40.7730 C   0  0  0  0  0  0  0  0  0  0  0  0
   40.7950   35.0990   40.2920 N   0  0  0  0  0  0  0  0  0  0  0  0
   39.8230   34.1810   40.3370 C   0  0  0  0  0  0  0  0  0  0  0  0
   38.4870   34.2130   39.9740 C   0  0  0  0  0  0  0  0  0  0  0  0
   36.6450   33.1960   39.8200 H   0  0  0  0  0  0  0  0  0  0  0  0
   39.9340   31.0150   41.4140 H   0  0  0  0  0  0  0  0  0  0  0  0
   42.2670   32.4950   41.5440 H   0  0  0  0  0  0  0  0  0  0  0  0
   42.9450   34.8930   40.9320 H   0  0  0  0  0  0  0  0  0  0  0  0
   38.0970   35.1400   39.5630 H   0  0  0  0  0  0  0  0  0  0  0  0
   36.5990   27.8250   42.8330 O   0  0  0  0  0  0  0  0  0  0  0  0
   37.7900   27.1210   42.9910 C   0  0  0  0  0  0  0  0  0  0  0  0
   37.5210   26.0040   42.2860 C   0  0  0  0  0  0  0  0  0  0  0  0
   39.1410   25.0160   42.4790 S   0  0  0  0  0  0  0  0  0  0  0  0
   39.8420   26.4290   43.5310 C   0  0  0  0  0  0  0  0  0  0  0  0
   38.9900   27.1220   43.5200 N   0  0  0  0  0  0  0  0  0  0  0  0
   36.9180   25.2130   41.6050 H   0  0  0  0  0  0  0  0  0  0  0  0
   41.2330   26.3820   44.1180 C   0  0  0  0  0  3  0  0  0  0  0  0
   42.3960   26.4660   43.1940 C   0  0  0  0  0  2  0  0  0  0  0  0
   42.0720   27.5990   44.0680 C   0  0  0  0  0  2  0  0  0  0  0  0
  1 23  1  0  0  0  0
  2  1  1  0  0  0  0
  2  7  1  0  0  0  0
  3  2  2  0  0  0  0
  4  5  2  0  0  0  0
  4  3  1  0  0  0  0
  5  6  1  0  0  0  0
  6  1  2  0  0  0  0
  8  5  1  0  0  0  0
  9 10  1  0  0  0  0
 10  3  1  0  0  0  0
 10 11  2  0  0  0  0
 11 19  1  0  0  0  0
 12 11  1  0  0  0  0
 12 13  1  0  0  0  0
 13 20  1  0  0  0  0
 14 21  1  0  0  0  0
 14 13  1  0  0  0  0
 15 16  1  0  0  0  0
 15 14  2  0  0  0  0
 16 12  2  0  0  0  0
 17  9  2  0  0  0  0
 17 16  1  0  0  0  0
 18  9  1  0  0  0  0
 22 17  1  0  0  0  0
 23 24  1  0  0  0  0
 24 28  1  0  0  0  0
 25 26  1  0  0  0  0
 25 24  2  0  0  0  0
 26 27  1  0  0  0  0
 27 30  1  0  0  0  0
 28 27  2  0  0  0  0
 29 25  1  0  0  0  0
 31 32  1  0  0  0  0
 31 30  1  0  0  0  0
 32 30  1  0  0  0  0
M  END
>  <minimizedAffinity>
-6.06921339

$$$$

 OpenBabel03252507393D

 32 36  0  0  0  0  0  0  0  0999 V2000
   38.2430   32.6620   39.4710 C   0  0  0  0  0  0  0  0  0  0  0  0
   39.6390   32.5660   39.2340 C   0  0  0  0  0  0  0  0  0  0  0  0
   40.4020   33.6960   39.4510 C   0  0  0  0  0  0  0  0  0  0  0  0
   39.7940   34.8250   39.8730 N   0  0  0  0  0  0  0  0  0  0  0  0
   38.4600   34.8990   40.0940 C   0  0  0  0  0  0  0  0  0  0  0  0
   37.7040   33.8290   39.8930 N   0  0  0  0  0  0  0  0  0  0  0  0
   40.1230   31.6750   38.9000 H   0  0  0  0  0  0  0  0  0  0  0  0
   38.0830   35.8550   40.4290 H   0  0  0  0  0  0  0  0  0  0  0  0
   42.6470   33.9110   40.3700 C   0  0  0  0  0  0  0  0  0  0  0  0
   41.8500   33.7460   39.2490 C   0  0  0  0  0  0  0  0  0  0  0  0
   42.4670   33.6390   38.0290 C   0  0  0  0  0  0  0  0  0  0  0  0
   43.8370   33.6900   37.8860 C   0  0  0  0  0  0  0  0  0  0  0  0
   44.6450   33.6080   36.8060 N   0  0  0  0  0  0  0  0  0  0  0  0
   45.9480   33.7230   37.2580 C   0  0  0  0  0  0  0  0  0  0  0  0
   45.9040   33.8710   38.5930 N   0  0  0  0  0  0  0  0  0  0  0  0
   44.6270   33.8530   38.9880 C   0  0  0  0  0  0  0  0  0  0  0  0
   44.0310   33.9630   40.2330 C   0  0  0  0  0  0  0  0  0  0  0  0
   42.2590   34.0050   41.3760 H   0  0  0  0  0  0  0  0  0  0  0  0
   41.8400   33.5120   37.1700 H   0  0  0  0  0  0  0  0  0  0  0  0
   44.2580   33.4800   35.8270 H   0  0  0  0  0  0  0  0  0  0  0  0
   46.7260   33.6770   36.5040 H   0  0  0  0  0  0  0  0  0  0  0  0
   44.6800   34.0920   41.0950 H   0  0  0  0  0  0  0  0  0  0  0  0
   37.4670   31.5240   39.2540 O   0  0  0  0  0  0  0  0  0  0  0  0
   37.5250   30.4660   40.1580 C   0  0  0  0  0  0  0  0  0  0  0  0
   37.5010   29.4120   39.3180 C   0  0  0  0  0  0  0  0  0  0  0  0
   37.5850   27.9410   40.5300 S   0  0  0  0  0  0  0  0  0  0  0  0
   37.6340   29.1700   41.9720 C   0  0  0  0  0  0  0  0  0  0  0  0
   37.5920   30.1200   41.4210 N   0  0  0  0  0  0  0  0  0  0  0  0
   37.4610   28.7850   38.2900 H   0  0  0  0  0  0  0  0  0  0  0  0
   37.7120   28.7200   43.4110 C   0  0  0  0  0  3  0  0  0  0  0  0
   36.8270   27.6100   43.8560 C   0  0  0  0  0  2  0  0  0  0  0  0
   38.2690   27.3830   43.7130 C   0  0  0  0  0  2  0  0  0  0  0  0
  1  6  1  0  0  0  0
  2  3  1  0  0  0  0
  2  1  2  0  0  0  0
  3  4  2  0  0  0  0
  4  5  1  0  0  0  0
  5  8  1  0  0  0  0
  6  5  2  0  0  0  0
  7  2  1  0  0  0  0
  9 18  1  0  0  0  0
 10  3  1  0  0  0  0
 10  9  2  0  0  0  0
 11 10  1  0  0  0  0
 12 11  2  0  0  0  0
 12 16  1  0  0  0  0
 13 14  1  0  0  0  0
 13 12  1  0  0  0  0
 14 15  2  0  0  0  0
 15 16  1  0  0  0  0
 16 17  2  0  0  0  0
 17  9  1  0  0  0  0
 17 22  1  0  0  0  0
 19 11  1  0  0  0  0
 20 13  1  0  0  0  0
 21 14  1  0  0  0  0
 23  1  1  0  0  0  0
 23 24  1  0  0  0  0
 24 28  1  0  0  0  0
 25 24  2  0  0  0  0
 25 26  1  0  0  0  0
 26 27  1  0  0  0  0
 27 30  1  0  0  0  0
 28 27  2  0  0  0  0
 29 25  1  0  0  0  0
 30 32  1  0  0  0  0
 30 31  1  0  0  0  0
 32 31  1  0  0  0  0
M  END
>  <minimizedAffinity>
-6.01625776

$$$$

 OpenBabel03252507393D

 32 36  0  0  0  0  0  0  0  0999 V2000
   38.4550   27.2200   43.3190 C   0  0  0  0  0  0  0  0  0  0  0  0
   37.7780   26.4000   42.3790 C   0  0  0  0  0  0  0  0  0  0  0  0
   38.2810   25.1330   42.1600 C   0  0  0  0  0  0  0  0  0  0  0  0
   39.3770   24.7380   42.8410 N   0  0  0  0  0  0  0  0  0  0  0  0
   40.0110   25.5340   43.7340 C   0  0  0  0  0  0  0  0  0  0  0  0
   39.5490   26.7560   43.9630 N   0  0  0  0  0  0  0  0  0  0  0  0
   36.9100   26.7090   41.8390 H   0  0  0  0  0  0  0  0  0  0  0  0
   40.8800   25.1130   44.2190 H   0  0  0  0  0  0  0  0  0  0  0  0
   38.4860   23.1310   40.7890 C   0  0  0  0  0  0  0  0  0  0  0  0
   37.6900   24.1780   41.2230 C   0  0  0  0  0  0  0  0  0  0  0  0
   36.4050   24.2500   40.7500 C   0  0  0  0  0  0  0  0  0  0  0  0
   35.8880   23.3270   39.8670 C   0  0  0  0  0  0  0  0  0  0  0  0
   34.6760   23.2040   39.2810 N   0  0  0  0  0  0  0  0  0  0  0  0
   34.7200   22.0750   38.4800 C   0  0  0  0  0  0  0  0  0  0  0  0
   35.9480   21.5420   38.5950 N   0  0  0  0  0  0  0  0  0  0  0  0
   36.6690   22.2920   39.4350 C   0  0  0  0  0  0  0  0  0  0  0  0
   37.9700   22.1940   39.8980 C   0  0  0  0  0  0  0  0  0  0  0  0
   39.5110   22.9840   41.1020 H   0  0  0  0  0  0  0  0  0  0  0  0
   35.7990   25.0660   41.0930 H   0  0  0  0  0  0  0  0  0  0  0  0
   33.8940   23.8960   39.4630 H   0  0  0  0  0  0  0  0  0  0  0  0
   33.8140   21.8360   37.9350 H   0  0  0  0  0  0  0  0  0  0  0  0
   38.5720   21.3630   39.5400 H   0  0  0  0  0  0  0  0  0  0  0  0
   37.9510   28.5010   43.5450 O   0  0  0  0  0  0  0  0  0  0  0  0
   37.9530   29.4350   42.5120 C   0  0  0  0  0  0  0  0  0  0  0  0
   39.1080   30.0840   42.7560 C   0  0  0  0  0  0  0  0  0  0  0  0
   39.1430   31.3730   41.3510 S   0  0  0  0  0  0  0  0  0  0  0  0
   37.4870   30.6920   40.7270 C   0  0  0  0  0  0  0  0  0  0  0  0
   37.3120   29.8970   41.4650 N   0  0  0  0  0  0  0  0  0  0  0  0
   40.1470   30.3840   43.2890 H   0  0  0  0  0  0  0  0  0  0  0  0
   36.7900   31.2600   39.5130 C   0  0  0  0  0  3  0  0  0  0  0  0
   37.5190   31.2690   38.2160 C   0  0  0  0  0  2  0  0  0  0  0  0
   36.3990   30.3430   38.4200 C   0  0  0  0  0  2  0  0  0  0  0  0
  1 23  1  0  0  0  0
  1  6  1  0  0  0  0
  2  1  2  0  0  0  0
  3  2  1  0  0  0  0
  3  4  2  0  0  0  0
  4  5  1  0  0  0  0
  5  6  2  0  0  0  0
  5  8  1  0  0  0  0
  7  2  1  0  0  0  0
  9 18  1  0  0  0  0
  9 10  1  0  0  0  0
 10  3  1  0  0  0  0
 11 19  1  0  0  0  0
 11 10  2  0  0  0  0
 12 11  1  0  0  0  0
 13 20  1  0  0  0  0
 13 12  1  0  0  0  0
 14 15  2  0  0  0  0
 14 13  1  0  0  0  0
 15 16  1  0  0  0  0
 16 12  2  0  0  0  0
 16 17  1  0  0  0  0
 17  9  2  0  0  0  0
 21 14  1  0  0  0  0
 22 17  1  0  0  0  0
 24 25  2  0  0  0  0
 24 23  1  0  0  0  0
 25 29  1  0  0  0  0
 26 25  1  0  0  0  0
 27 26  1  0  0  0  0
 27 28  2  0  0  0  0
 28 24  1  0  0  0  0
 30 27  1  0  0  0  0
 31 32  1  0  0  0  0
 31 30  1  0  0  0  0
 32 30  1  0  0  0  0
M  END
>  <minimizedAffinity>
-5.79076338

$$$$

 OpenBabel03252507393D

 32 36  0  0  0  0  0  0  0  0999 V2000
   33.9800   28.7340   36.6800 C   0  0  0  0  0  0  0  0  0  0  0  0
   34.3440   28.3290   37.9900 C   0  0  0  0  0  0  0  0  0  0  0  0
   35.6590   28.5090   38.3720 C   0  0  0  0  0  0  0  0  0  0  0  0
   36.5250   29.0570   37.4940 N   0  0  0  0  0  0  0  0  0  0  0  0
   36.1600   29.4380   36.2460 C   0  0  0  0  0  0  0  0  0  0  0  0
   34.9050   29.2760   35.8540 N   0  0  0  0  0  0  0  0  0  0  0  0
   33.6620   27.8950   38.6880 H   0  0  0  0  0  0  0  0  0  0  0  0
   36.9390   29.8640   35.6290 H   0  0  0  0  0  0  0  0  0  0  0  0
   36.5950   26.8310   39.8670 C   0  0  0  0  0  0  0  0  0  0  0  0
   36.1780   28.1400   39.6880 C   0  0  0  0  0  0  0  0  0  0  0  0
   36.2800   29.0000   40.7510 C   0  0  0  0  0  0  0  0  0  0  0  0
   36.7770   28.6090   41.9750 C   0  0  0  0  0  0  0  0  0  0  0  0
   36.9650   29.2720   43.1380 N   0  0  0  0  0  0  0  0  0  0  0  0
   37.5000   28.3710   44.0430 C   0  0  0  0  0  0  0  0  0  0  0  0
   37.6240   27.1890   43.4150 N   0  0  0  0  0  0  0  0  0  0  0  0
   37.1880   27.3190   42.1580 C   0  0  0  0  0  0  0  0  0  0  0  0
   37.0980   26.4280   41.1010 C   0  0  0  0  0  0  0  0  0  0  0  0
   36.5560   26.0750   39.0930 H   0  0  0  0  0  0  0  0  0  0  0  0
   35.9540   30.0100   40.6000 H   0  0  0  0  0  0  0  0  0  0  0  0
   36.7160   30.2970   43.2430 H   0  0  0  0  0  0  0  0  0  0  0  0
   37.7110   28.7520   45.0350 H   0  0  0  0  0  0  0  0  0  0  0  0
   37.4310   25.4080   41.2710 H   0  0  0  0  0  0  0  0  0  0  0  0
   32.6540   28.5550   36.2890 O   0  0  0  0  0  0  0  0  0  0  0  0
   31.8950   29.6540   35.8950 C   0  0  0  0  0  0  0  0  0  0  0  0
   31.2020   29.9030   37.0240 C   0  0  0  0  0  0  0  0  0  0  0  0
   30.1520   31.4130   36.5170 S   0  0  0  0  0  0  0  0  0  0  0  0
   30.9430   31.3470   34.7960 C   0  0  0  0  0  0  0  0  0  0  0  0
   31.6130   30.4850   34.9200 N   0  0  0  0  0  0  0  0  0  0  0  0
   30.8080   29.7940   38.1580 H   0  0  0  0  0  0  0  0  0  0  0  0
   30.5830   32.3300   33.7060 C   0  0  0  0  0  3  0  0  0  0  0  0
   29.7130   31.8670   32.5920 C   0  0  0  0  0  2  0  0  0  0  0  0
   29.1840   32.7960   33.5970 C   0  0  0  0  0  2  0  0  0  0  0  0
  1  2  1  0  0  0  0
  2  3  2  0  0  0  0
  2  7  1  0  0  0  0
  3 10  1  0  0  0  0
  4  3  1  0  0  0  0
  5  4  2  0  0  0  0
  6  5  1  0  0  0  0
  6  1  2  0  0  0  0
  8  5  1  0  0  0  0
  9 17  1  0  0  0  0
 10  9  2  0  0  0  0
 10 11  1  0  0  0  0
 11 12  2  0  0  0  0
 12 16  1  0  0  0  0
 12 13  1  0  0  0  0
 13 20  1  0  0  0  0
 13 14  1  0  0  0  0
 14 21  1  0  0  0  0
 15 14  2  0  0  0  0
 16 15  1  0  0  0  0
 17 22  1  0  0  0  0
 17 16  2  0  0  0  0
 18  9  1  0  0  0  0
 19 11  1  0  0  0  0
 23  1  1  0  0  0  0
 24 23  1  0  0  0  0
 24 25  2  0  0  0  0
 25 29  1  0  0  0  0
 26 25  1  0  0  0  0
 27 28  2  0  0  0  0
 27 26  1  0  0  0  0
 28 24  1  0  0  0  0
 30 27  1  0  0  0  0
 31 32  1  0  0  0  0
 31 30  1  0  0  0  0
 32 30  1  0  0  0  0
M  END
>  <minimizedAffinity>
-5.74206877

$$$$

 OpenBabel03252507393D

 32 36  0  0  0  0  0  0  0  0999 V2000
   36.2960   27.4100   37.8740 C   0  0  0  0  0  0  0  0  0  0  0  0
   37.0650   28.4360   38.4830 C   0  0  0  0  0  0  0  0  0  0  0  0
   37.0930   29.6680   37.8600 C   0  0  0  0  0  0  0  0  0  0  0  0
   36.3950   29.8380   36.7170 N   0  0  0  0  0  0  0  0  0  0  0  0
   35.6660   28.8470   36.1500 C   0  0  0  0  0  0  0  0  0  0  0  0
   35.6230   27.6550   36.7270 N   0  0  0  0  0  0  0  0  0  0  0  0
   37.6190   28.3050   39.3870 H   0  0  0  0  0  0  0  0  0  0  0  0
   35.1490   29.0980   35.2340 H   0  0  0  0  0  0  0  0  0  0  0  0
   39.2020   30.8580   38.1150 C   0  0  0  0  0  0  0  0  0  0  0  0
   37.8410   30.8160   38.3690 C   0  0  0  0  0  0  0  0  0  0  0  0
   37.2850   31.8510   39.0780 C   0  0  0  0  0  0  0  0  0  0  0  0
   38.0290   32.9150   39.5390 C   0  0  0  0  0  0  0  0  0  0  0  0
   37.7000   34.0210   40.2440 N   0  0  0  0  0  0  0  0  0  0  0  0
   38.8610   34.7520   40.4270 C   0  0  0  0  0  0  0  0  0  0  0  0
   39.8630   34.0790   39.8350 N   0  0  0  0  0  0  0  0  0  0  0  0
   39.3720   32.9610   39.2920 C   0  0  0  0  0  0  0  0  0  0  0  0
   39.9590   31.9310   38.5770 C   0  0  0  0  0  0  0  0  0  0  0  0
   39.7350   30.0930   37.5650 H   0  0  0  0  0  0  0  0  0  0  0  0
   36.2320   31.8060   39.2690 H   0  0  0  0  0  0  0  0  0  0  0  0
   36.7040   34.2090   40.5560 H   0  0  0  0  0  0  0  0  0  0  0  0
   38.7650   35.6790   40.9800 H   0  0  0  0  0  0  0  0  0  0  0  0
   41.0290   31.9890   38.3930 H   0  0  0  0  0  0  0  0  0  0  0  0
   36.2640   26.1640   38.5000 O   0  0  0  0  0  0  0  0  0  0  0  0
   36.6020   26.0590   39.8470 C   0  0  0  0  0  0  0  0  0  0  0  0
   36.6720   24.7200   39.9880 C   0  0  0  0  0  0  0  0  0  0  0  0
   37.1380   24.5420   41.8290 S   0  0  0  0  0  0  0  0  0  0  0  0
   37.1260   26.4310   41.9840 C   0  0  0  0  0  0  0  0  0  0  0  0
   36.8610   26.7100   40.9550 N   0  0  0  0  0  0  0  0  0  0  0  0
   36.6320   23.5490   39.7080 H   0  0  0  0  0  0  0  0  0  0  0  0
   37.4330   27.1340   43.2850 C   0  0  0  0  0  3  0  0  0  0  0  0
   38.8580   27.3110   43.6760 C   0  0  0  0  0  2  0  0  0  0  0  0
   38.0680   28.4690   43.2440 C   0  0  0  0  0  2  0  0  0  0  0  0
  1  2  1  0  0  0  0
  1 23  1  0  0  0  0
  2  7  1  0  0  0  0
  3 10  1  0  0  0  0
  3  2  2  0  0  0  0
  4  3  1  0  0  0  0
  5  4  2  0  0  0  0
  5  6  1  0  0  0  0
  6  1  2  0  0  0  0
  8  5  1  0  0  0  0
  9 10  2  0  0  0  0
  9 17  1  0  0  0  0
 10 11  1  0  0  0  0
 11 19  1  0  0  0  0
 11 12  2  0  0  0  0
 12 13  1  0  0  0  0
 13 14  1  0  0  0  0
 13 20  1  0  0  0  0
 14 21  1  0  0  0  0
 15 14  2  0  0  0  0
 16 12  1  0  0  0  0
 16 15  1  0  0  0  0
 17 16  2  0  0  0  0
 18  9  1  0  0  0  0
 22 17  1  0  0  0  0
 23 24  1  0  0  0  0
 24 25  2  0  0  0  0
 24 28  1  0  0  0  0
 25 26  1  0  0  0  0
 26 27  1  0  0  0  0
 27 30  1  0  0  0  0
 28 27  2  0  0  0  0
 29 25  1  0  0  0  0
 30 31  1  0  0  0  0
 32 30  1  0  0  0  0
 32 31  1  0  0  0  0
M  END
>  <minimizedAffinity>
-5.7269249

$$$$

 OpenBabel03252507393D

 32 36  0  0  0  0  0  0  0  0999 V2000
   38.6100   29.9100   42.0160 C   0  0  0  0  0  0  0  0  0  0  0  0
   37.8310   29.4680   40.9150 C   0  0  0  0  0  0  0  0  0  0  0  0
   37.7750   30.2850   39.8030 C   0  0  0  0  0  0  0  0  0  0  0  0
   38.4550   31.4510   39.8150 N   0  0  0  0  0  0  0  0  0  0  0  0
   39.1940   31.8580   40.8750 C   0  0  0  0  0  0  0  0  0  0  0  0
   39.2640   31.0930   41.9550 N   0  0  0  0  0  0  0  0  0  0  0  0
   37.2920   28.5460   40.9020 H   0  0  0  0  0  0  0  0  0  0  0  0
   39.6940   32.8100   40.7720 H   0  0  0  0  0  0  0  0  0  0  0  0
   35.7360   29.4550   38.7630 C   0  0  0  0  0  0  0  0  0  0  0  0
   37.0150   29.9610   38.5970 C   0  0  0  0  0  0  0  0  0  0  0  0
   37.4830   30.1250   37.3180 C   0  0  0  0  0  0  0  0  0  0  0  0
   36.7300   29.8060   36.2090 C   0  0  0  0  0  0  0  0  0  0  0  0
   36.9820   29.8830   34.8830 N   0  0  0  0  0  0  0  0  0  0  0  0
   35.8550   29.4240   34.2230 C   0  0  0  0  0  0  0  0  0  0  0  0
   34.9500   29.0790   35.1560 N   0  0  0  0  0  0  0  0  0  0  0  0
   35.4690   29.3070   36.3670 C   0  0  0  0  0  0  0  0  0  0  0  0
   34.9700   29.1320   37.6470 C   0  0  0  0  0  0  0  0  0  0  0  0
   35.2750   29.2890   39.7280 H   0  0  0  0  0  0  0  0  0  0  0  0
   38.4740   30.5160   37.2030 H   0  0  0  0  0  0  0  0  0  0  0  0
   37.9070   30.2440   34.5100 H   0  0  0  0  0  0  0  0  0  0  0  0
   35.8980   29.4210   33.1400 H   0  0  0  0  0  0  0  0  0  0  0  0
   33.9640   28.7330   37.7470 H   0  0  0  0  0  0  0  0  0  0  0  0
   38.6700   29.0880   43.1410 O   0  0  0  0  0  0  0  0  0  0  0  0
   38.6410   27.7040   42.9880 C   0  0  0  0  0  0  0  0  0  0  0  0
   39.8690   27.3730   43.4310 C   0  0  0  0  0  0  0  0  0  0  0  0
   39.8600   25.4760   43.2370 S   0  0  0  0  0  0  0  0  0  0  0  0
   38.0930   25.5830   42.5600 C   0  0  0  0  0  0  0  0  0  0  0  0
   37.9310   26.6690   42.6070 N   0  0  0  0  0  0  0  0  0  0  0  0
   40.9830   27.4940   43.8750 H   0  0  0  0  0  0  0  0  0  0  0  0
   37.3170   24.3590   42.1360 C   0  0  0  0  0  3  0  0  0  0  0  0
   36.6990   24.3450   40.7830 C   0  0  0  0  0  2  0  0  0  0  0  0
   37.8660   23.5010   41.0630 C   0  0  0  0  0  2  0  0  0  0  0  0
  1 23  1  0  0  0  0
  2  1  2  0  0  0  0
  3  4  2  0  0  0  0
  3  2  1  0  0  0  0
  4  5  1  0  0  0  0
  5  6  2  0  0  0  0
  6  1  1  0  0  0  0
  7  2  1  0  0  0  0
  8  5  1  0  0  0  0
  9 18  1  0  0  0  0
 10  9  1  0  0  0  0
 10  3  1  0  0  0  0
 11 10  2  0  0  0  0
 12 16  2  0  0  0  0
 12 11  1  0  0  0  0
 13 12  1  0  0  0  0
 14 13  1  0  0  0  0
 14 15  2  0  0  0  0
 15 16  1  0  0  0  0
 16 17  1  0  0  0  0
 17 22  1  0  0  0  0
 17  9  2  0  0  0  0
 19 11  1  0  0  0  0
 20 13  1  0  0  0  0
 21 14  1  0  0  0  0
 24 23  1  0  0  0  0
 24 25  2  0  0  0  0
 25 29  1  0  0  0  0
 26 25  1  0  0  0  0
 27 28  2  0  0  0  0
 27 26  1  0  0  0  0
 28 24  1  0  0  0  0
 30 27  1  0  0  0  0
 31 32  1  0  0  0  0
 31 30  1  0  0  0  0
 32 30  1  0  0  0  0
M  END
>  <minimizedAffinity>
-5.69695139

$$$$

 OpenBabel03252507393D

 32 36  0  0  0  0  0  0  0  0999 V2000
   37.2960   28.7700   42.2200 C   0  0  0  0  0  0  0  0  0  0  0  0
   37.0130   27.6440   41.4030 C   0  0  0  0  0  0  0  0  0  0  0  0
   37.5600   26.4320   41.7760 C   0  0  0  0  0  0  0  0  0  0  0  0
   38.3280   26.3740   42.8840 N   0  0  0  0  0  0  0  0  0  0  0  0
   38.5880   27.4600   43.6520 C   0  0  0  0  0  0  0  0  0  0  0  0
   38.0760   28.6350   43.3170 N   0  0  0  0  0  0  0  0  0  0  0  0
   36.4060   27.6860   40.5250 H   0  0  0  0  0  0  0  0  0  0  0  0
   39.2170   27.2950   44.5150 H   0  0  0  0  0  0  0  0  0  0  0  0
   36.4660   25.2170   39.9710 C   0  0  0  0  0  0  0  0  0  0  0  0
   37.3550   25.1890   41.0330 C   0  0  0  0  0  0  0  0  0  0  0  0
   37.9830   24.0030   41.3170 C   0  0  0  0  0  0  0  0  0  0  0  0
   37.7600   22.8550   40.5890 C   0  0  0  0  0  0  0  0  0  0  0  0
   38.2560   21.6010   40.6880 N   0  0  0  0  0  0  0  0  0  0  0  0
   37.6730   20.8490   39.6820 C   0  0  0  0  0  0  0  0  0  0  0  0
   36.8410   21.6540   39.0010 N   0  0  0  0  0  0  0  0  0  0  0  0
   36.8840   22.8770   39.5410 C   0  0  0  0  0  0  0  0  0  0  0  0
   36.2360   24.0610   39.2300 C   0  0  0  0  0  0  0  0  0  0  0  0
   35.9210   26.1010   39.6650 H   0  0  0  0  0  0  0  0  0  0  0  0
   38.6670   23.9940   42.1420 H   0  0  0  0  0  0  0  0  0  0  0  0
   38.9610   21.3360   41.4340 H   0  0  0  0  0  0  0  0  0  0  0  0
   37.9700   19.8080   39.6260 H   0  0  0  0  0  0  0  0  0  0  0  0
   35.5440   24.0540   38.3930 H   0  0  0  0  0  0  0  0  0  0  0  0
   36.7460   29.9960   41.8480 O   0  0  0  0  0  0  0  0  0  0  0  0
   37.4640   30.8510   41.0150 C   0  0  0  0  0  0  0  0  0  0  0  0
   36.4720   31.3640   40.2610 C   0  0  0  0  0  0  0  0  0  0  0  0
   37.4250   32.5470   39.1070 S   0  0  0  0  0  0  0  0  0  0  0  0
   39.0360   32.0380   39.9660 C   0  0  0  0  0  0  0  0  0  0  0  0
   38.6480   31.3190   40.7020 N   0  0  0  0  0  0  0  0  0  0  0  0
   35.3630   31.5660   39.8340 H   0  0  0  0  0  0  0  0  0  0  0  0
   40.3770   32.6090   39.5670 C   0  0  0  0  0  3  0  0  0  0  0  0
   40.5480   34.0870   39.5730 C   0  0  0  0  0  2  0  0  0  0  0  0
   41.2080   33.2690   40.5970 C   0  0  0  0  0  2  0  0  0  0  0  0
  1  6  1  0  0  0  0
  2  3  1  0  0  0  0
  2  1  2  0  0  0  0
  3  4  2  0  0  0  0
  4  5  1  0  0  0  0
  5  8  1  0  0  0  0
  6  5  2  0  0  0  0
  7  2  1  0  0  0  0
  9 10  1  0  0  0  0
 10 11  2  0  0  0  0
 10  3  1  0  0  0  0
 11 19  1  0  0  0  0
 12 13  1  0  0  0  0
 12 11  1  0  0  0  0
 13 20  1  0  0  0  0
 14 13  1  0  0  0  0
 15 16  1  0  0  0  0
 15 14  2  0  0  0  0
 16 12  2  0  0  0  0
 17 16  1  0  0  0  0
 17  9  2  0  0  0  0
 18  9  1  0  0  0  0
 21 14  1  0  0  0  0
 22 17  1  0  0  0  0
 23  1  1  0  0  0  0
 24 23  1  0  0  0  0
 25 24  2  0  0  0  0
 26 27  1  0  0  0  0
 26 25  1  0  0  0  0
 27 28  2  0  0  0  0
 28 24  1  0  0  0  0
 29 25  1  0  0  0  0
 30 31  1  0  0  0  0
 30 27  1  0  0  0  0
 30 32  1  0  0  0  0
 31 32  1  0  0  0  0
M  END
>  <minimizedAffinity>
-5.6733551

$$$$
