
 OpenBabel03252509213D

 19 21  0  0  0  0  0  0  0  0999 V2000
   45.0380   34.6530   44.8100 C   0  0  0  0  0  0  0  0  0  0  0  0
   45.8510   34.6360   43.6500 C   0  0  0  0  0  0  0  0  0  0  0  0
   46.9860   33.8300   43.7470 C   0  0  0  0  0  0  0  0  0  0  0  0
   47.2660   33.1170   44.8980 N   0  0  0  0  0  0  0  0  0  0  0  0
   46.4480   33.1770   45.9640 C   0  0  0  0  0  0  0  0  0  0  0  0
   45.3460   33.9410   45.9120 N   0  0  0  0  0  0  0  0  0  0  0  0
   44.1580   35.2570   44.7820 H   0  0  0  0  0  0  0  0  0  0  0  0
   46.8230   32.5580   46.7660 H   0  0  0  0  0  0  0  0  0  0  0  0
   47.8440   33.7080   42.5090 C   0  0  0  0  0  0  0  0  0  0  0  0
   49.1230   34.5460   42.6390 C   0  0  0  0  0  0  0  0  0  0  0  0
   49.0840   32.9830   42.6230 C   0  0  0  0  0  0  0  0  0  0  0  0
   47.3130   34.0460   41.6070 H   0  0  0  0  0  0  0  0  0  0  0  0
   49.5370   35.0280   41.7480 H   0  0  0  0  0  0  0  0  0  0  0  0
   49.3250   35.0090   43.6040 H   0  0  0  0  0  0  0  0  0  0  0  0
   49.5310   32.5530   41.6840 H   0  0  0  0  0  0  0  0  0  0  0  0
   49.4550   32.5250   43.5480 H   0  0  0  0  0  0  0  0  0  0  0  0
   45.5560   35.3930   42.4260 C   0  0  0  0  0  3  0  0  0  0  0  0
   44.6880   34.6410   41.4370 C   0  0  0  0  0  2  0  0  0  0  0  0
   44.1840   35.8770   42.1340 C   0  0  0  0  0  2  0  0  0  0  0  0
  1  6  1  0  0  0  0
  2  3  1  0  0  0  0
  2  1  2  0  0  0  0
  3  4  2  0  0  0  0
  4  5  1  0  0  0  0
  5  8  1  0  0  0  0
  6  5  2  0  0  0  0
  7  1  1  0  0  0  0
  9 11  1  0  0  0  0
  9 10  1  0  0  0  0
  9  3  1  0  0  0  0
 10 14  1  0  0  0  0
 11 10  1  0  0  0  0
 11 16  1  0  0  0  0
 12  9  1  0  0  0  0
 13 10  1  0  0  0  0
 15 11  1  0  0  0  0
 17  2  1  0  0  0  0
 18 19  1  0  0  0  0
 18 17  1  0  0  0  0
 19 17  1  0  0  0  0
M  END
>  <minimizedAffinity>
-3.72478938

>  <minimizedRMSD>
1.62618375

$$$$
