
 OpenBabel03252502033D

 28 31  0  0  0  0  0  0  0  0999 V2000
   40.4490   31.9770   38.5990 C   0  0  0  0  0  0  0  0  0  0  0  0
   40.9240   33.2440   38.5880 N   0  0  0  0  0  0  0  0  0  0  0  0
   41.9540   33.6990   37.8930 C   0  0  0  0  0  0  0  0  0  0  0  0
   42.6350   32.8360   37.0920 N   0  0  0  0  0  0  0  0  0  0  0  0
   42.2660   31.5430   37.0090 C   0  0  0  0  0  0  0  0  0  0  0  0
   42.9630   30.6730   36.1920 C   0  0  0  0  0  0  0  0  0  0  0  0
   42.5930   29.3480   36.1000 C   0  0  0  0  0  0  0  0  0  0  0  0
   41.5210   28.9380   36.8410 C   0  0  0  0  0  0  0  0  0  0  0  0
   40.8520   29.8380   37.6450 C   0  0  0  0  0  0  0  0  0  0  0  0
   41.1780   31.1580   37.7720 C   0  0  0  0  0  0  0  0  0  0  0  0
   42.2540   34.7290   37.9540 H   0  0  0  0  0  0  0  0  0  0  0  0
   43.8010   31.1000   35.6420 H   0  0  0  0  0  0  0  0  0  0  0  0
   43.1970   28.7480   35.4370 H   0  0  0  0  0  0  0  0  0  0  0  0
   41.2550   27.8930   36.7480 H   0  0  0  0  0  0  0  0  0  0  0  0
   40.0050   29.4480   38.2120 H   0  0  0  0  0  0  0  0  0  0  0  0
   37.0800   32.1750   39.8120 C   0  0  0  0  0  0  0  0  0  0  0  0
   36.8970   31.1060   40.6820 C   0  0  0  0  0  0  0  0  0  0  0  0
   37.9750   30.2840   40.8610 C   0  0  0  0  0  0  0  0  0  0  0  0
   39.1170   30.5250   40.2200 N   0  0  0  0  0  0  0  0  0  0  0  0
   39.3030   31.5320   39.3940 C   0  0  0  0  0  0  0  0  0  0  0  0
   38.2490   32.3490   39.2090 N   0  0  0  0  0  0  0  0  0  0  0  0
   36.2150   32.8420   39.6620 H   0  0  0  0  0  0  0  0  0  0  0  0
   35.6450   30.9320   41.3100 N   0  0  0  0  0  0  0  0  0  0  0  0
   35.1450   31.7490   41.7110 H   0  0  0  0  0  0  0  0  0  0  0  0
   35.2740   29.9530   41.3370 H   0  0  0  0  0  0  0  0  0  0  0  0
   37.8760   29.1400   41.7550 C   0  0  0  0  0  3  0  0  0  0  0  0
   38.3920   29.3810   43.1800 C   0  0  0  0  0  2  0  0  0  0  0  0
   39.0280   28.3910   42.2930 C   0  0  0  0  0  2  0  0  0  0  0  0
  1 20  1  0  0  0  0
  2  1  1  0  0  0  0
  3 11  1  0  0  0  0
  3  2  2  0  0  0  0
  4  3  1  0  0  0  0
  5  4  2  0  0  0  0
  5 10  1  0  0  0  0
  6  5  1  0  0  0  0
  7  6  2  0  0  0  0
  7  8  1  0  0  0  0
  8  9  2  0  0  0  0
  9 10  1  0  0  0  0
  9 15  1  0  0  0  0
 10  1  2  0  0  0  0
 12  6  1  0  0  0  0
 13  7  1  0  0  0  0
 14  8  1  0  0  0  0
 16 17  1  0  0  0  0
 17 18  2  0  0  0  0
 17 23  1  0  0  0  0
 18 26  1  0  0  0  0
 19 18  1  0  0  0  0
 20 19  2  0  0  0  0
 21 20  1  0  0  0  0
 21 16  2  0  0  0  0
 22 16  1  0  0  0  0
 23 25  1  0  0  0  0
 23 24  1  0  0  0  0
 26 28  1  0  0  0  0
 26 27  1  0  0  0  0
 28 27  1  0  0  0  0
M  END
>  <minimizedAffinity>
-5.62530136

$$$$

 OpenBabel03252502033D

 28 31  0  0  0  0  0  0  0  0999 V2000
   37.5780   27.4430   40.8150 C   0  0  0  0  0  0  0  0  0  0  0  0
   36.7820   26.5710   40.1530 N   0  0  0  0  0  0  0  0  0  0  0  0
   36.7270   25.2600   40.3220 C   0  0  0  0  0  0  0  0  0  0  0  0
   37.5400   24.6870   41.2520 N   0  0  0  0  0  0  0  0  0  0  0  0
   38.3820   25.4420   41.9830 C   0  0  0  0  0  0  0  0  0  0  0  0
   39.2030   24.8510   42.9260 C   0  0  0  0  0  0  0  0  0  0  0  0
   40.0690   25.6150   43.6800 C   0  0  0  0  0  0  0  0  0  0  0  0
   40.0790   26.9630   43.4580 C   0  0  0  0  0  0  0  0  0  0  0  0
   39.2440   27.5140   42.5080 C   0  0  0  0  0  0  0  0  0  0  0  0
   38.3700   26.8030   41.7350 C   0  0  0  0  0  0  0  0  0  0  0  0
   36.0580   24.6510   39.7430 H   0  0  0  0  0  0  0  0  0  0  0  0
   39.1180   23.7700   43.0250 H   0  0  0  0  0  0  0  0  0  0  0  0
   40.6680   25.0660   44.3880 H   0  0  0  0  0  0  0  0  0  0  0  0
   40.7680   27.5360   44.0650 H   0  0  0  0  0  0  0  0  0  0  0  0
   39.3000   28.5970   42.3790 H   0  0  0  0  0  0  0  0  0  0  0  0
   36.2460   30.7680   41.0000 C   0  0  0  0  0  0  0  0  0  0  0  0
   37.1640   31.6100   40.3820 C   0  0  0  0  0  0  0  0  0  0  0  0
   38.2850   31.0110   39.8790 C   0  0  0  0  0  0  0  0  0  0  0  0
   38.4540   29.6950   39.9960 N   0  0  0  0  0  0  0  0  0  0  0  0
   37.5940   28.8880   40.5790 C   0  0  0  0  0  0  0  0  0  0  0  0
   36.4850   29.4650   41.0780 N   0  0  0  0  0  0  0  0  0  0  0  0
   35.3380   31.2420   41.4080 H   0  0  0  0  0  0  0  0  0  0  0  0
   36.8960   32.9930   40.3130 N   0  0  0  0  0  0  0  0  0  0  0  0
   35.9460   33.3280   40.0600 H   0  0  0  0  0  0  0  0  0  0  0  0
   37.6980   33.6310   40.5310 H   0  0  0  0  0  0  0  0  0  0  0  0
   39.3010   31.8130   39.2140 C   0  0  0  0  0  3  0  0  0  0  0  0
   39.2160   31.8310   37.6820 C   0  0  0  0  0  2  0  0  0  0  0  0
   40.3870   31.2690   38.3750 C   0  0  0  0  0  2  0  0  0  0  0  0
  1 10  1  0  0  0  0
  2  3  1  0  0  0  0
  2  1  2  0  0  0  0
  3  4  2  0  0  0  0
  4  5  1  0  0  0  0
  5  6  1  0  0  0  0
  6 12  1  0  0  0  0
  6  7  2  0  0  0  0
  7 13  1  0  0  0  0
  8  7  1  0  0  0  0
  8 14  1  0  0  0  0
  9  8  2  0  0  0  0
 10  5  2  0  0  0  0
 10  9  1  0  0  0  0
 11  3  1  0  0  0  0
 15  9  1  0  0  0  0
 16 21  1  0  0  0  0
 16 22  1  0  0  0  0
 17 16  2  0  0  0  0
 18 19  2  0  0  0  0
 18 17  1  0  0  0  0
 19 20  1  0  0  0  0
 20  1  1  0  0  0  0
 20 21  2  0  0  0  0
 23 17  1  0  0  0  0
 23 25  1  0  0  0  0
 24 23  1  0  0  0  0
 26 18  1  0  0  0  0
 27 28  1  0  0  0  0
 27 26  1  0  0  0  0
 28 26  1  0  0  0  0
M  END
>  <minimizedAffinity>
-5.50876904

$$$$

 OpenBabel03252502033D

 28 31  0  0  0  0  0  0  0  0999 V2000
   39.1230   27.3880   42.3850 C   0  0  0  0  0  0  0  0  0  0  0  0
   39.9700   26.9000   43.3220 N   0  0  0  0  0  0  0  0  0  0  0  0
   40.1140   25.6350   43.6790 C   0  0  0  0  0  0  0  0  0  0  0  0
   39.3510   24.6910   43.0650 N   0  0  0  0  0  0  0  0  0  0  0  0
   38.4660   25.0400   42.1120 C   0  0  0  0  0  0  0  0  0  0  0  0
   37.6950   24.0740   41.4920 C   0  0  0  0  0  0  0  0  0  0  0  0
   36.7860   24.4210   40.5150 C   0  0  0  0  0  0  0  0  0  0  0  0
   36.6830   25.7440   40.1900 C   0  0  0  0  0  0  0  0  0  0  0  0
   37.4710   26.6780   40.8320 C   0  0  0  0  0  0  0  0  0  0  0  0
   38.3830   26.3870   41.8050 C   0  0  0  0  0  0  0  0  0  0  0  0
   40.8180   25.3490   44.4390 H   0  0  0  0  0  0  0  0  0  0  0  0
   37.8540   23.0490   41.8240 H   0  0  0  0  0  0  0  0  0  0  0  0
   36.2320   23.5990   40.0910 H   0  0  0  0  0  0  0  0  0  0  0  0
   35.9620   25.9850   39.4200 H   0  0  0  0  0  0  0  0  0  0  0  0
   37.3400   27.7180   40.5260 H   0  0  0  0  0  0  0  0  0  0  0  0
   40.2430   30.7920   42.2560 C   0  0  0  0  0  0  0  0  0  0  0  0
   39.2560   31.5210   41.6030 C   0  0  0  0  0  0  0  0  0  0  0  0
   38.1600   30.8150   41.1910 C   0  0  0  0  0  0  0  0  0  0  0  0
   38.0800   29.5050   41.4180 N   0  0  0  0  0  0  0  0  0  0  0  0
   39.0060   28.8050   42.0350 C   0  0  0  0  0  0  0  0  0  0  0  0
   40.0900   29.4880   42.4460 N   0  0  0  0  0  0  0  0  0  0  0  0
   41.1300   31.3540   42.5920 H   0  0  0  0  0  0  0  0  0  0  0  0
   39.4380   32.9060   41.4040 N   0  0  0  0  0  0  0  0  0  0  0  0
   39.8060   33.5000   42.1730 H   0  0  0  0  0  0  0  0  0  0  0  0
   39.1830   33.2750   40.4560 H   0  0  0  0  0  0  0  0  0  0  0  0
   37.0760   31.4960   40.4990 C   0  0  0  0  0  3  0  0  0  0  0  0
   36.3760   30.6680   39.4120 C   0  0  0  0  0  2  0  0  0  0  0  0
   37.1080   31.9020   39.0790 C   0  0  0  0  0  2  0  0  0  0  0  0
  1  2  1  0  0  0  0
  2  3  2  0  0  0  0
  3 11  1  0  0  0  0
  4  3  1  0  0  0  0
  5  4  2  0  0  0  0
  6 12  1  0  0  0  0
  6  5  1  0  0  0  0
  7  6  2  0  0  0  0
  8  7  1  0  0  0  0
  8  9  2  0  0  0  0
  9 10  1  0  0  0  0
 10  5  1  0  0  0  0
 10  1  2  0  0  0  0
 13  7  1  0  0  0  0
 14  8  1  0  0  0  0
 15  9  1  0  0  0  0
 16 21  1  0  0  0  0
 16 22  1  0  0  0  0
 17 16  2  0  0  0  0
 18 19  2  0  0  0  0
 18 17  1  0  0  0  0
 19 20  1  0  0  0  0
 20  1  1  0  0  0  0
 20 21  2  0  0  0  0
 23 17  1  0  0  0  0
 23 24  1  0  0  0  0
 25 23  1  0  0  0  0
 26 18  1  0  0  0  0
 27 26  1  0  0  0  0
 28 27  1  0  0  0  0
 28 26  1  0  0  0  0
M  END
>  <minimizedAffinity>
-5.50767517

$$$$

 OpenBabel03252502033D

 28 31  0  0  0  0  0  0  0  0999 V2000
   37.4060   28.6620   40.9410 C   0  0  0  0  0  0  0  0  0  0  0  0
   37.5460   29.2560   42.1500 N   0  0  0  0  0  0  0  0  0  0  0  0
   37.5060   28.6660   43.3330 C   0  0  0  0  0  0  0  0  0  0  0  0
   37.3070   27.3210   43.3870 N   0  0  0  0  0  0  0  0  0  0  0  0
   37.1520   26.6060   42.2560 C   0  0  0  0  0  0  0  0  0  0  0  0
   36.9510   25.2400   42.3190 C   0  0  0  0  0  0  0  0  0  0  0  0
   36.7920   24.4990   41.1670 C   0  0  0  0  0  0  0  0  0  0  0  0
   36.8430   25.1660   39.9760 C   0  0  0  0  0  0  0  0  0  0  0  0
   37.0460   26.5300   39.9540 C   0  0  0  0  0  0  0  0  0  0  0  0
   37.2080   27.3090   41.0650 C   0  0  0  0  0  0  0  0  0  0  0  0
   37.6280   29.2290   44.2400 H   0  0  0  0  0  0  0  0  0  0  0  0
   36.9280   24.8050   43.3180 H   0  0  0  0  0  0  0  0  0  0  0  0
   36.6410   23.4420   41.3180 H   0  0  0  0  0  0  0  0  0  0  0  0
   36.7160   24.5570   39.0900 H   0  0  0  0  0  0  0  0  0  0  0  0
   37.0760   27.0030   38.9710 H   0  0  0  0  0  0  0  0  0  0  0  0
   38.0880   31.4770   38.8280 C   0  0  0  0  0  0  0  0  0  0  0  0
   37.7440   31.1070   37.5320 C   0  0  0  0  0  0  0  0  0  0  0  0
   37.2560   29.8390   37.3790 C   0  0  0  0  0  0  0  0  0  0  0  0
   37.1340   29.0340   38.4320 N   0  0  0  0  0  0  0  0  0  0  0  0
   37.4560   29.3720   39.6620 C   0  0  0  0  0  0  0  0  0  0  0  0
   37.9380   30.6180   39.8270 N   0  0  0  0  0  0  0  0  0  0  0  0
   38.4820   32.4980   38.9610 H   0  0  0  0  0  0  0  0  0  0  0  0
   37.9160   32.0320   36.4810 N   0  0  0  0  0  0  0  0  0  0  0  0
   37.6340   33.0240   36.6070 H   0  0  0  0  0  0  0  0  0  0  0  0
   38.3360   31.6550   35.5980 H   0  0  0  0  0  0  0  0  0  0  0  0
   36.8690   29.3660   36.0590 C   0  0  0  0  0  3  0  0  0  0  0  0
   35.3600   29.1680   35.8540 C   0  0  0  0  0  2  0  0  0  0  0  0
   36.2970   28.0340   35.7770 C   0  0  0  0  0  2  0  0  0  0  0  0
  1 10  2  0  0  0  0
  1  2  1  0  0  0  0
  2  3  2  0  0  0  0
  3  4  1  0  0  0  0
  3 11  1  0  0  0  0
  5  6  1  0  0  0  0
  5  4  2  0  0  0  0
  6 12  1  0  0  0  0
  7 13  1  0  0  0  0
  7  6  2  0  0  0  0
  8  7  1  0  0  0  0
  9  8  2  0  0  0  0
  9 10  1  0  0  0  0
 10  5  1  0  0  0  0
 14  8  1  0  0  0  0
 15  9  1  0  0  0  0
 16 22  1  0  0  0  0
 16 21  1  0  0  0  0
 17 16  2  0  0  0  0
 18 17  1  0  0  0  0
 18 19  2  0  0  0  0
 19 20  1  0  0  0  0
 20 21  2  0  0  0  0
 20  1  1  0  0  0  0
 23 24  1  0  0  0  0
 23 17  1  0  0  0  0
 25 23  1  0  0  0  0
 26 18  1  0  0  0  0
 27 26  1  0  0  0  0
 28 27  1  0  0  0  0
 28 26  1  0  0  0  0
M  END
>  <minimizedAffinity>
-5.47799349

$$$$

 OpenBabel03252502033D

 28 31  0  0  0  0  0  0  0  0999 V2000
   36.6070   28.5890   38.1020 C   0  0  0  0  0  0  0  0  0  0  0  0
   37.6270   28.5050   37.2160 N   0  0  0  0  0  0  0  0  0  0  0  0
   37.5400   28.5660   35.8980 C   0  0  0  0  0  0  0  0  0  0  0  0
   36.3140   28.7320   35.3300 N   0  0  0  0  0  0  0  0  0  0  0  0
   35.2120   28.8310   36.0980 C   0  0  0  0  0  0  0  0  0  0  0  0
   33.9710   28.9990   35.5140 C   0  0  0  0  0  0  0  0  0  0  0  0
   32.8370   29.1020   36.2910 C   0  0  0  0  0  0  0  0  0  0  0  0
   32.9920   29.0310   37.6470 C   0  0  0  0  0  0  0  0  0  0  0  0
   34.2480   28.8620   38.1920 C   0  0  0  0  0  0  0  0  0  0  0  0
   35.4010   28.7540   37.4670 C   0  0  0  0  0  0  0  0  0  0  0  0
   38.4150   28.4880   35.2780 H   0  0  0  0  0  0  0  0  0  0  0  0
   33.9560   29.0440   34.4250 H   0  0  0  0  0  0  0  0  0  0  0  0
   31.9160   29.2320   35.7450 H   0  0  0  0  0  0  0  0  0  0  0  0
   32.0840   29.1150   38.2300 H   0  0  0  0  0  0  0  0  0  0  0  0
   34.3040   28.8130   39.2810 H   0  0  0  0  0  0  0  0  0  0  0  0
   37.0530   29.9570   41.3870 C   0  0  0  0  0  0  0  0  0  0  0  0
   37.0930   28.8860   42.2730 C   0  0  0  0  0  0  0  0  0  0  0  0
   36.9640   27.6420   41.7190 C   0  0  0  0  0  0  0  0  0  0  0  0
   36.8070   27.5060   40.4030 N   0  0  0  0  0  0  0  0  0  0  0  0
   36.7670   28.5100   39.5550 C   0  0  0  0  0  0  0  0  0  0  0  0
   36.8940   29.7400   40.0870 N   0  0  0  0  0  0  0  0  0  0  0  0
   37.1570   30.9630   41.8250 H   0  0  0  0  0  0  0  0  0  0  0  0
   37.2570   29.1350   43.6520 N   0  0  0  0  0  0  0  0  0  0  0  0
   37.9530   29.8340   43.9760 H   0  0  0  0  0  0  0  0  0  0  0  0
   36.6440   28.5820   44.2970 H   0  0  0  0  0  0  0  0  0  0  0  0
   36.9950   26.4620   42.5690 C   0  0  0  0  0  3  0  0  0  0  0  0
   38.3110   25.6730   42.5390 C   0  0  0  0  0  2  0  0  0  0  0  0
   37.0480   25.0710   42.0760 C   0  0  0  0  0  2  0  0  0  0  0  0
  1 20  1  0  0  0  0
  2  1  2  0  0  0  0
  3  2  1  0  0  0  0
  4  3  2  0  0  0  0
  4  5  1  0  0  0  0
  5 10  1  0  0  0  0
  6  5  2  0  0  0  0
  6  7  1  0  0  0  0
  7  8  2  0  0  0  0
  8  9  1  0  0  0  0
  8 14  1  0  0  0  0
  9 15  1  0  0  0  0
 10  1  1  0  0  0  0
 10  9  2  0  0  0  0
 11  3  1  0  0  0  0
 12  6  1  0  0  0  0
 13  7  1  0  0  0  0
 16 22  1  0  0  0  0
 16 17  1  0  0  0  0
 17 23  1  0  0  0  0
 18 17  2  0  0  0  0
 18 26  1  0  0  0  0
 19 18  1  0  0  0  0
 20 21  1  0  0  0  0
 20 19  2  0  0  0  0
 21 16  2  0  0  0  0
 23 24  1  0  0  0  0
 23 25  1  0  0  0  0
 27 26  1  0  0  0  0
 28 27  1  0  0  0  0
 28 26  1  0  0  0  0
M  END
>  <minimizedAffinity>
-5.4636569

$$$$

 OpenBabel03252502033D

 28 31  0  0  0  0  0  0  0  0999 V2000
   38.4360   28.1890   41.8790 C   0  0  0  0  0  0  0  0  0  0  0  0
   39.1900   27.9910   42.9860 N   0  0  0  0  0  0  0  0  0  0  0  0
   39.4280   26.8380   43.5890 C   0  0  0  0  0  0  0  0  0  0  0  0
   38.8770   25.7050   43.0730 N   0  0  0  0  0  0  0  0  0  0  0  0
   38.1050   25.7600   41.9710 C   0  0  0  0  0  0  0  0  0  0  0  0
   37.5500   24.6040   41.4530 C   0  0  0  0  0  0  0  0  0  0  0  0
   36.7590   24.6490   40.3250 C   0  0  0  0  0  0  0  0  0  0  0  0
   36.5500   25.8700   39.7490 C   0  0  0  0  0  0  0  0  0  0  0  0
   37.1220   27.0010   40.2960 C   0  0  0  0  0  0  0  0  0  0  0  0
   37.9110   27.0100   41.4100 C   0  0  0  0  0  0  0  0  0  0  0  0
   40.0420   26.7860   44.4680 H   0  0  0  0  0  0  0  0  0  0  0  0
   37.7780   23.6820   41.9880 H   0  0  0  0  0  0  0  0  0  0  0  0
   36.3720   23.6980   39.9970 H   0  0  0  0  0  0  0  0  0  0  0  0
   35.9250   25.8730   38.8650 H   0  0  0  0  0  0  0  0  0  0  0  0
   36.9160   27.9450   39.7880 H   0  0  0  0  0  0  0  0  0  0  0  0
   36.5170   31.1240   41.1330 C   0  0  0  0  0  0  0  0  0  0  0  0
   37.3060   31.9320   40.3220 C   0  0  0  0  0  0  0  0  0  0  0  0
   38.5480   31.4480   40.0180 C   0  0  0  0  0  0  0  0  0  0  0  0
   38.9440   30.2680   40.4920 N   0  0  0  0  0  0  0  0  0  0  0  0
   38.2070   29.4950   41.2590 C   0  0  0  0  0  0  0  0  0  0  0  0
   36.9820   29.9590   41.5660 N   0  0  0  0  0  0  0  0  0  0  0  0
   35.5130   31.5070   41.3820 H   0  0  0  0  0  0  0  0  0  0  0  0
   36.7980   33.1700   39.8760 N   0  0  0  0  0  0  0  0  0  0  0  0
   35.8220   33.2380   39.5270 H   0  0  0  0  0  0  0  0  0  0  0  0
   37.4560   33.9840   39.9230 H   0  0  0  0  0  0  0  0  0  0  0  0
   39.4440   32.2260   39.1750 C   0  0  0  0  0  3  0  0  0  0  0  0
   39.5260   31.7640   37.7130 C   0  0  0  0  0  2  0  0  0  0  0  0
   40.7040   31.7200   38.5950 C   0  0  0  0  0  2  0  0  0  0  0  0
  1  2  1  0  0  0  0
  2  3  2  0  0  0  0
  3 11  1  0  0  0  0
  4  3  1  0  0  0  0
  5  4  2  0  0  0  0
  6  5  1  0  0  0  0
  6 12  1  0  0  0  0
  7  6  2  0  0  0  0
  8  9  2  0  0  0  0
  8  7  1  0  0  0  0
  9 10  1  0  0  0  0
 10  1  2  0  0  0  0
 10  5  1  0  0  0  0
 13  7  1  0  0  0  0
 14  8  1  0  0  0  0
 15  9  1  0  0  0  0
 16 22  1  0  0  0  0
 16 21  1  0  0  0  0
 17 16  2  0  0  0  0
 18 17  1  0  0  0  0
 18 19  2  0  0  0  0
 19 20  1  0  0  0  0
 20 21  2  0  0  0  0
 20  1  1  0  0  0  0
 23 25  1  0  0  0  0
 23 17  1  0  0  0  0
 24 23  1  0  0  0  0
 26 18  1  0  0  0  0
 27 28  1  0  0  0  0
 27 26  1  0  0  0  0
 28 26  1  0  0  0  0
M  END
>  <minimizedAffinity>
-5.46080065

$$$$

 OpenBabel03252502033D

 28 31  0  0  0  0  0  0  0  0999 V2000
   40.2740   31.8450   38.1810 C   0  0  0  0  0  0  0  0  0  0  0  0
   40.8030   33.0910   38.1700 N   0  0  0  0  0  0  0  0  0  0  0  0
   41.9460   33.4630   37.6190 C   0  0  0  0  0  0  0  0  0  0  0  0
   42.7020   32.5260   36.9840 N   0  0  0  0  0  0  0  0  0  0  0  0
   42.2910   31.2450   36.9200 C   0  0  0  0  0  0  0  0  0  0  0  0
   43.0650   30.3000   36.2720 C   0  0  0  0  0  0  0  0  0  0  0  0
   42.6530   28.9850   36.2010 C   0  0  0  0  0  0  0  0  0  0  0  0
   41.4630   28.6630   36.7890 C   0  0  0  0  0  0  0  0  0  0  0  0
   40.7200   29.6360   37.4260 C   0  0  0  0  0  0  0  0  0  0  0  0
   41.0830   30.9490   37.5260 C   0  0  0  0  0  0  0  0  0  0  0  0
   42.2800   34.4830   37.6660 H   0  0  0  0  0  0  0  0  0  0  0  0
   43.9960   30.6600   35.8360 H   0  0  0  0  0  0  0  0  0  0  0  0
   43.3230   28.3220   35.6760 H   0  0  0  0  0  0  0  0  0  0  0  0
   41.1670   27.6240   36.7160 H   0  0  0  0  0  0  0  0  0  0  0  0
   39.7800   29.3130   37.8770 H   0  0  0  0  0  0  0  0  0  0  0  0
   37.9060   31.7840   40.8730 C   0  0  0  0  0  0  0  0  0  0  0  0
   36.7920   31.0850   40.4200 C   0  0  0  0  0  0  0  0  0  0  0  0
   36.8580   30.6140   39.1390 C   0  0  0  0  0  0  0  0  0  0  0  0
   37.9420   30.8340   38.3970 N   0  0  0  0  0  0  0  0  0  0  0  0
   39.0010   31.4930   38.8130 C   0  0  0  0  0  0  0  0  0  0  0  0
   38.9500   31.9620   40.0730 N   0  0  0  0  0  0  0  0  0  0  0  0
   37.8610   32.1670   41.9060 H   0  0  0  0  0  0  0  0  0  0  0  0
   35.6890   30.9110   41.2820 N   0  0  0  0  0  0  0  0  0  0  0  0
   35.8390   30.6470   42.2750 H   0  0  0  0  0  0  0  0  0  0  0  0
   34.7430   31.0630   40.8580 H   0  0  0  0  0  0  0  0  0  0  0  0
   35.7390   29.8710   38.5800 C   0  0  0  0  0  3  0  0  0  0  0  0
   35.8780   28.3430   38.6390 C   0  0  0  0  0  2  0  0  0  0  0  0
   35.8000   29.0550   37.3510 C   0  0  0  0  0  2  0  0  0  0  0  0
  1 20  1  0  0  0  0
  2  1  1  0  0  0  0
  3 11  1  0  0  0  0
  3  2  2  0  0  0  0
  4  3  1  0  0  0  0
  5  4  2  0  0  0  0
  5 10  1  0  0  0  0
  6  5  1  0  0  0  0
  7  6  2  0  0  0  0
  7  8  1  0  0  0  0
  8  9  2  0  0  0  0
  9 10  1  0  0  0  0
  9 15  1  0  0  0  0
 10  1  2  0  0  0  0
 12  6  1  0  0  0  0
 13  7  1  0  0  0  0
 14  8  1  0  0  0  0
 16 22  1  0  0  0  0
 17 16  1  0  0  0  0
 17 23  1  0  0  0  0
 18 17  2  0  0  0  0
 19 20  2  0  0  0  0
 19 18  1  0  0  0  0
 20 21  1  0  0  0  0
 21 16  2  0  0  0  0
 23 24  1  0  0  0  0
 25 23  1  0  0  0  0
 26 27  1  0  0  0  0
 26 18  1  0  0  0  0
 28 26  1  0  0  0  0
 28 27  1  0  0  0  0
M  END
>  <minimizedAffinity>
-5.26727486

$$$$

 OpenBabel03252502033D

 28 31  0  0  0  0  0  0  0  0999 V2000
   40.8020   31.7990   38.9060 C   0  0  0  0  0  0  0  0  0  0  0  0
   41.0920   31.4500   37.6300 N   0  0  0  0  0  0  0  0  0  0  0  0
   42.1770   31.7750   36.9470 C   0  0  0  0  0  0  0  0  0  0  0  0
   43.1270   32.5390   37.5510 N   0  0  0  0  0  0  0  0  0  0  0  0
   42.9640   32.9550   38.8220 C   0  0  0  0  0  0  0  0  0  0  0  0
   43.9340   33.7300   39.4290 C   0  0  0  0  0  0  0  0  0  0  0  0
   43.7770   34.1610   40.7300 C   0  0  0  0  0  0  0  0  0  0  0  0
   42.6350   33.7920   41.3830 C   0  0  0  0  0  0  0  0  0  0  0  0
   41.6900   33.0180   40.7420 C   0  0  0  0  0  0  0  0  0  0  0  0
   41.7970   32.5670   39.4570 C   0  0  0  0  0  0  0  0  0  0  0  0
   42.3140   31.4480   35.9320 H   0  0  0  0  0  0  0  0  0  0  0  0
   44.8060   33.9680   38.8220 H   0  0  0  0  0  0  0  0  0  0  0  0
   44.5860   34.7590   41.1170 H   0  0  0  0  0  0  0  0  0  0  0  0
   42.5400   34.1450   42.4020 H   0  0  0  0  0  0  0  0  0  0  0  0
   40.8010   32.7580   41.3190 H   0  0  0  0  0  0  0  0  0  0  0  0
   37.3810   32.1900   39.9090 C   0  0  0  0  0  0  0  0  0  0  0  0
   37.0700   31.1090   40.7260 C   0  0  0  0  0  0  0  0  0  0  0  0
   38.0760   30.2090   40.9430 C   0  0  0  0  0  0  0  0  0  0  0  0
   39.2720   30.3910   40.3840 N   0  0  0  0  0  0  0  0  0  0  0  0
   39.5780   31.4090   39.6100 C   0  0  0  0  0  0  0  0  0  0  0  0
   38.5960   32.3020   39.3880 N   0  0  0  0  0  0  0  0  0  0  0  0
   36.5750   32.9200   39.7290 H   0  0  0  0  0  0  0  0  0  0  0  0
   35.7710   31.0020   41.2660 N   0  0  0  0  0  0  0  0  0  0  0  0
   35.3010   31.8390   41.6640 H   0  0  0  0  0  0  0  0  0  0  0  0
   35.3330   30.0500   41.2340 H   0  0  0  0  0  0  0  0  0  0  0  0
   37.8420   29.0470   41.7860 C   0  0  0  0  0  3  0  0  0  0  0  0
   38.3230   29.1870   43.2370 C   0  0  0  0  0  2  0  0  0  0  0  0
   38.9020   28.1770   42.3330 C   0  0  0  0  0  2  0  0  0  0  0  0
  1 10  1  0  0  0  0
  1 20  1  0  0  0  0
  2  1  2  0  0  0  0
  3  4  2  0  0  0  0
  3  2  1  0  0  0  0
  4  5  1  0  0  0  0
  5  6  2  0  0  0  0
  5 10  1  0  0  0  0
  6  7  1  0  0  0  0
  7 13  1  0  0  0  0
  7  8  2  0  0  0  0
  8 14  1  0  0  0  0
  9 15  1  0  0  0  0
  9  8  1  0  0  0  0
 10  9  2  0  0  0  0
 11  3  1  0  0  0  0
 12  6  1  0  0  0  0
 16 17  1  0  0  0  0
 17 18  2  0  0  0  0
 17 23  1  0  0  0  0
 18 26  1  0  0  0  0
 19 18  1  0  0  0  0
 20 19  2  0  0  0  0
 21 20  1  0  0  0  0
 21 16  2  0  0  0  0
 22 16  1  0  0  0  0
 23 24  1  0  0  0  0
 25 23  1  0  0  0  0
 26 28  1  0  0  0  0
 26 27  1  0  0  0  0
 28 27  1  0  0  0  0
M  END
>  <minimizedAffinity>
-5.25040627

$$$$

 OpenBabel03252502033D

 28 31  0  0  0  0  0  0  0  0999 V2000
   37.9970   29.8890   40.5860 C   0  0  0  0  0  0  0  0  0  0  0  0
   36.6690   29.8180   40.3310 N   0  0  0  0  0  0  0  0  0  0  0  0
   35.7890   29.0250   40.9200 C   0  0  0  0  0  0  0  0  0  0  0  0
   36.2220   28.1740   41.8900 N   0  0  0  0  0  0  0  0  0  0  0  0
   37.5220   28.1420   42.2430 C   0  0  0  0  0  0  0  0  0  0  0  0
   37.9520   27.2760   43.2300 C   0  0  0  0  0  0  0  0  0  0  0  0
   39.2810   27.2370   43.5990 C   0  0  0  0  0  0  0  0  0  0  0  0
   40.1400   28.0810   42.9540 C   0  0  0  0  0  0  0  0  0  0  0  0
   39.6710   28.9310   41.9740 C   0  0  0  0  0  0  0  0  0  0  0  0
   38.3680   29.0080   41.5720 C   0  0  0  0  0  0  0  0  0  0  0  0
   34.7510   29.0440   40.6440 H   0  0  0  0  0  0  0  0  0  0  0  0
   37.1870   26.6460   43.6810 H   0  0  0  0  0  0  0  0  0  0  0  0
   39.5200   26.5290   44.3770 H   0  0  0  0  0  0  0  0  0  0  0  0
   41.1760   28.0260   43.2660 H   0  0  0  0  0  0  0  0  0  0  0  0
   40.4080   29.5790   41.4970 H   0  0  0  0  0  0  0  0  0  0  0  0
   39.3490   31.5630   37.7180 C   0  0  0  0  0  0  0  0  0  0  0  0
   40.4030   32.3520   38.1650 C   0  0  0  0  0  0  0  0  0  0  0  0
   40.6610   32.3050   39.5070 C   0  0  0  0  0  0  0  0  0  0  0  0
   39.9220   31.5390   40.3080 N   0  0  0  0  0  0  0  0  0  0  0  0
   38.9230   30.7890   39.8960 C   0  0  0  0  0  0  0  0  0  0  0  0
   38.6580   30.8250   38.5770 N   0  0  0  0  0  0  0  0  0  0  0  0
   39.1340   31.5940   36.6370 H   0  0  0  0  0  0  0  0  0  0  0  0
   41.1230   33.1340   37.2380 N   0  0  0  0  0  0  0  0  0  0  0  0
   41.4020   32.7330   36.3220 H   0  0  0  0  0  0  0  0  0  0  0  0
   41.3440   34.1150   37.5340 H   0  0  0  0  0  0  0  0  0  0  0  0
   41.7460   33.0970   40.0660 C   0  0  0  0  0  3  0  0  0  0  0  0
   43.0770   32.3510   40.2340 C   0  0  0  0  0  2  0  0  0  0  0  0
   42.3460   32.8820   41.3980 C   0  0  0  0  0  2  0  0  0  0  0  0
  1 10  1  0  0  0  0
  2  1  2  0  0  0  0
  2  3  1  0  0  0  0
  3  4  2  0  0  0  0
  4  5  1  0  0  0  0
  5  6  1  0  0  0  0
  6  7  2  0  0  0  0
  6 12  1  0  0  0  0
  7 13  1  0  0  0  0
  8 14  1  0  0  0  0
  8  7  1  0  0  0  0
  9  8  2  0  0  0  0
 10  9  1  0  0  0  0
 10  5  2  0  0  0  0
 11  3  1  0  0  0  0
 15  9  1  0  0  0  0
 16 17  2  0  0  0  0
 16 21  1  0  0  0  0
 17 18  1  0  0  0  0
 18 26  1  0  0  0  0
 18 19  2  0  0  0  0
 20 19  1  0  0  0  0
 20  1  1  0  0  0  0
 21 20  2  0  0  0  0
 22 16  1  0  0  0  0
 23 25  1  0  0  0  0
 23 17  1  0  0  0  0
 24 23  1  0  0  0  0
 26 27  1  0  0  0  0
 26 28  1  0  0  0  0
 27 28  1  0  0  0  0
M  END
>  <minimizedAffinity>
-5.15046024

$$$$
