
 OpenBabel03242520223D

 38 41  0  0  0  0  0  0  0  0999 V2000
   41.0230   35.9960   39.4410 C   0  0  0  0  0  0  0  0  0  0  0  0
   41.1970   37.0730   39.4240 H   0  0  0  0  0  0  0  0  0  0  0  0
   40.7350   35.5840   38.4360 H   0  0  0  0  0  0  0  0  0  0  0  0
   43.9250   34.6850   41.4960 C   0  0  0  0  0  0  0  0  0  0  0  0
   42.7940   35.4500   41.1140 C   0  0  0  0  0  0  0  0  0  0  0  0
   42.2130   35.2290   39.8820 C   0  0  0  0  0  0  0  0  0  0  0  0
   42.7920   34.2580   39.0970 N   0  0  0  0  0  0  0  0  0  0  0  0
   43.8830   33.5500   39.5150 C   0  0  0  0  0  0  0  0  0  0  0  0
   44.4400   33.7660   40.7040 N   0  0  0  0  0  0  0  0  0  0  0  0
   42.3600   36.2110   41.7570 H   0  0  0  0  0  0  0  0  0  0  0  0
   44.3010   32.7970   38.8620 H   0  0  0  0  0  0  0  0  0  0  0  0
   44.5440   34.9520   42.8330 C   0  0  0  0  0  0  0  0  0  0  0  0
   46.0620   35.3480   42.6860 C   0  0  0  0  0  0  0  0  0  0  0  0
   45.0220   36.1970   43.2800 C   0  0  0  0  0  0  0  0  0  0  0  0
   44.3900   34.0960   43.5360 H   0  0  0  0  0  0  0  0  0  0  0  0
   46.7350   34.8420   43.4080 H   0  0  0  0  0  0  0  0  0  0  0  0
   46.4490   35.4900   41.6810 H   0  0  0  0  0  0  0  0  0  0  0  0
   45.0150   36.4460   44.3570 H   0  0  0  0  0  0  0  0  0  0  0  0
   44.7850   37.1210   42.6760 H   0  0  0  0  0  0  0  0  0  0  0  0
   39.8360   35.6650   40.3530 C   0  0  0  0  0  0  0  0  0  0  0  0
   40.2320   35.6650   41.3790 H   0  0  0  0  0  0  0  0  0  0  0  0
   39.0630   36.4720   40.3190 H   0  0  0  0  0  0  0  0  0  0  0  0
   39.3140   33.3380   40.8760 C   0  0  0  0  0  0  0  0  0  0  0  0
   39.8150   33.4060   42.0310 O   0  0  0  0  0  0  0  0  0  0  0  0
   39.1890   34.4260   39.9800 N   0  0  0  0  0  0  0  0  0  0  0  0
   38.6770   34.4020   39.0880 H   0  0  0  0  0  0  0  0  0  0  0  0
   38.8050   32.0320   40.3840 C   0  0  0  0  0  0  0  0  0  0  0  0
   38.6770   31.8390   39.0110 C   0  0  0  0  0  0  0  0  0  0  0  0
   38.2170   30.6770   38.4300 C   0  0  0  0  0  0  0  0  0  0  0  0
   37.8640   29.6390   39.3030 C   0  0  0  0  0  0  0  0  0  0  0  0
   38.0110   29.8890   40.6530 C   0  0  0  0  0  0  0  0  0  0  0  0
   38.4590   31.0220   41.1990 N   0  0  0  0  0  0  0  0  0  0  0  0
   38.9450   32.6290   38.3210 H   0  0  0  0  0  0  0  0  0  0  0  0
   38.1370   30.5790   37.3510 H   0  0  0  0  0  0  0  0  0  0  0  0
   37.5020   28.7200   38.8910 H   0  0  0  0  0  0  0  0  0  0  0  0
   37.6410   28.7970   41.5910 C   0  0  0  0  0  0  0  0  0  0  0  0
   38.4320   27.5340   41.5610 C   0  0  0  0  0  0  0  0  0  0  0  0
   37.0430   27.5940   40.9130 C   0  0  0  0  0  0  0  0  0  0  0  0
  1  6  1  0  0  0  0
  1 20  1  0  0  0  0
  2  1  1  0  0  0  0
  3  1  1  0  0  0  0
  4 12  1  0  0  0  0
  5  4  1  0  0  0  0
  5 10  1  0  0  0  0
  6  5  2  0  0  0  0
  7  8  2  0  0  0  0
  7  6  1  0  0  0  0
  8  9  1  0  0  0  0
  9  4  2  0  0  0  0
 11  8  1  0  0  0  0
 12 14  1  0  0  0  0
 12 15  1  0  0  0  0
 13 12  1  0  0  0  0
 13 14  1  0  0  0  0
 13 16  1  0  0  0  0
 14 18  1  0  0  0  0
 17 13  1  0  0  0  0
 19 14  1  0  0  0  0
 20 21  1  0  0  0  0
 22 20  1  0  0  0  0
 23 24  2  0  0  0  0
 25 20  1  0  0  0  0
 25 23  1  0  0  0  0
 26 25  1  0  0  0  0
 27 23  1  0  0  0  0
 27 32  1  0  0  0  0
 28 27  2  0  0  0  0
 29 28  1  0  0  0  0
 29 30  2  0  0  0  0
 30 31  1  0  0  0  0
 31 32  2  0  0  0  0
 31 36  1  0  0  0  0
 33 28  1  0  0  0  0
 34 29  1  0  0  0  0
 35 30  1  0  0  0  0
 37 36  1  0  0  0  0
 38 37  1  0  0  0  0
 38 36  1  0  0  0  0
M  END
>  <minimizedAffinity>
-5.25264835

>  <minimizedRMSD>
0.478008747

$$$$
