
 OpenBabel03252504423D

 39 42  0  0  0  0  0  0  0  0999 V2000
   46.4070   32.2060   47.7590 C   0  0  0  0  0  0  0  0  0  0  0  0
   45.9400   31.8380   48.9860 C   0  0  0  0  0  0  0  0  0  0  0  0
   46.9170   31.1470   49.5730 N   0  0  0  0  0  0  0  0  0  0  0  0
   47.9870   31.0580   48.7750 C   0  0  0  0  0  0  0  0  0  0  0  0
   47.6550   31.7280   47.6350 N   0  0  0  0  0  0  0  0  0  0  0  0
   49.2540   30.4360   48.9510 N   0  0  0  0  0  0  0  0  0  0  0  0
   50.3190   31.2500   49.5830 C   0  0  0  0  0  0  0  0  0  0  0  0
   50.4160   30.7090   51.0090 C   0  0  0  0  0  0  0  0  0  0  0  0
   50.4970   29.2060   50.9930 C   0  0  0  0  0  0  0  0  0  0  0  0
   50.8440   28.7230   49.5940 C   0  0  0  0  0  0  0  0  0  0  0  0
   49.7470   29.1340   48.6350 C   0  0  0  0  0  0  0  0  0  0  0  0
   44.9590   32.0660   49.4020 H   0  0  0  0  0  0  0  0  0  0  0  0
   46.8940   30.7140   50.5270 H   0  0  0  0  0  0  0  0  0  0  0  0
   51.2610   31.1520   49.0340 H   0  0  0  0  0  0  0  0  0  0  0  0
   50.0040   32.3080   49.6740 H   0  0  0  0  0  0  0  0  0  0  0  0
   49.5240   31.0020   51.5660 H   0  0  0  0  0  0  0  0  0  0  0  0
   51.3460   31.1210   51.4740 H   0  0  0  0  0  0  0  0  0  0  0  0
   49.5230   28.7350   51.2390 H   0  0  0  0  0  0  0  0  0  0  0  0
   51.2690   28.8020   51.6960 H   0  0  0  0  0  0  0  0  0  0  0  0
   50.9510   27.6250   49.6020 H   0  0  0  0  0  0  0  0  0  0  0  0
   51.8030   29.2020   49.3220 H   0  0  0  0  0  0  0  0  0  0  0  0
   50.1040   29.0650   47.5840 H   0  0  0  0  0  0  0  0  0  0  0  0
   48.9280   28.3760   48.7920 H   0  0  0  0  0  0  0  0  0  0  0  0
   45.6730   33.0020   46.7320 C   0  0  0  0  0  0  0  0  0  0  0  0
   45.4640   34.0160   47.1440 H   0  0  0  0  0  0  0  0  0  0  0  0
   44.7000   32.5100   46.4940 H   0  0  0  0  0  0  0  0  0  0  0  0
   46.0990   33.8680   44.4620 C   0  0  0  0  0  3  0  0  0  0  0  0
   46.4820   33.1600   45.5070 C   0  0  0  0  0  3  0  0  0  0  0  0
   47.0010   33.9320   43.3180 C   0  0  0  0  0  0  0  0  0  0  0  0
   47.0190   35.0580   42.4470 C   0  0  0  0  0  0  0  0  0  0  0  0
   47.9010   35.0340   41.3880 C   0  0  0  0  0  0  0  0  0  0  0  0
   48.7060   33.9670   41.2080 N   0  0  0  0  0  0  0  0  0  0  0  0
   48.6700   32.9120   42.0460 C   0  0  0  0  0  0  0  0  0  0  0  0
   47.8450   32.8890   43.0710 N   0  0  0  0  0  0  0  0  0  0  0  0
   46.3410   35.8650   42.6700 H   0  0  0  0  0  0  0  0  0  0  0  0
   47.8920   35.9020   40.7450 H   0  0  0  0  0  0  0  0  0  0  0  0
   49.5770   31.7610   41.8040 C   0  0  0  0  0  3  0  0  0  0  0  0
   49.8040   30.7610   42.9010 C   0  0  0  0  0  2  0  0  0  0  0  0
   50.9050   31.6750   42.4330 C   0  0  0  0  0  2  0  0  0  0  0  0
  1  2  2  0  0  0  0
  2 12  1  0  0  0  0
  2  3  1  0  0  0  0
  3 13  1  0  0  0  0
  4  6  1  0  0  0  0
  4  3  1  0  0  0  0
  5  1  1  0  0  0  0
  5  4  2  0  0  0  0
  6  7  1  0  0  0  0
  7 15  1  0  0  0  0
  7  8  1  0  0  0  0
  8 17  1  0  0  0  0
  8 16  1  0  0  0  0
  9  8  1  0  0  0  0
  9 18  1  0  0  0  0
  9 19  1  0  0  0  0
 10 20  1  0  0  0  0
 10  9  1  0  0  0  0
 11 23  1  0  0  0  0
 11  6  1  0  0  0  0
 11 10  1  0  0  0  0
 14  7  1  0  0  0  0
 21 10  1  0  0  0  0
 22 11  1  0  0  0  0
 24 25  1  0  0  0  0
 24  1  1  0  0  0  0
 26 24  1  0  0  0  0
 27 28  2  0  0  0  0
 28 24  1  0  0  0  0
 29 27  1  0  0  0  0
 30 35  1  0  0  0  0
 30 29  2  0  0  0  0
 31 30  1  0  0  0  0
 32 31  2  0  0  0  0
 32 33  1  0  0  0  0
 33 34  2  0  0  0  0
 34 29  1  0  0  0  0
 36 31  1  0  0  0  0
 37 33  1  0  0  0  0
 37 39  1  0  0  0  0
 37 38  1  0  0  0  0
 39 38  1  0  0  0  0
M  END
>  <minimizedAffinity>
-5.56904745

>  <minimizedRMSD>
0.476429611

$$$$
