
 OpenBabel03252507203D

 38 41  0  0  1  0  0  0  0  0999 V2000
   47.4610   33.3920   43.1350 C   0  0  0  0  0  0  0  0  0  0  0  0
   48.3700   32.9990   43.9360 O   0  0  0  0  0  0  0  0  0  0  0  0
   47.4160   33.0250   41.7560 N   0  0  0  0  0  0  0  0  0  0  0  0
   46.2960   32.5900   40.9240 C   0  0  0  0  0  0  0  0  0  0  0  0
   46.2520   33.4370   39.6580 C   0  0  0  0  0  0  0  0  0  0  0  0
   47.4910   33.1990   38.8370 C   0  0  0  0  0  0  0  0  0  0  0  0
   48.5320   32.4920   39.6750 C   0  0  0  0  0  0  0  0  0  0  0  0
   48.6720   33.0850   41.0380 C   0  0  2  0  0  0  0  0  0  0  0  0
   45.3840   32.9090   41.5150 H   0  0  0  0  0  0  0  0  0  0  0  0
   46.3100   31.5180   40.7440 H   0  0  0  0  0  0  0  0  0  0  0  0
   46.1800   34.4890   40.0050 H   0  0  0  0  0  0  0  0  0  0  0  0
   45.3180   33.1070   39.1390 H   0  0  0  0  0  0  0  0  0  0  0  0
   47.8570   34.1950   38.5040 H   0  0  0  0  0  0  0  0  0  0  0  0
   47.2900   32.5470   37.9600 H   0  0  0  0  0  0  0  0  0  0  0  0
   49.4980   32.6450   39.1340 H   0  0  0  0  0  0  0  0  0  0  0  0
   48.3290   31.4210   39.7310 H   0  0  0  0  0  0  0  0  0  0  0  0
   48.9660   34.1600   40.9740 H   0  0  0  0  0  0  0  0  0  0  0  0
   46.0880   35.4100   42.9090 C   0  0  0  0  0  0  0  0  0  0  0  0
   46.4240   34.2530   43.6560 C   0  0  0  0  0  0  0  0  0  0  0  0
   45.7640   33.9920   44.8360 C   0  0  0  0  0  0  0  0  0  0  0  0
   44.8140   34.8550   45.2400 N   0  0  0  0  0  0  0  0  0  0  0  0
   44.4780   35.9700   44.5390 C   0  0  0  0  0  0  0  0  0  0  0  0
   45.1280   36.2210   43.3830 N   0  0  0  0  0  0  0  0  0  0  0  0
   46.6030   35.6230   41.9790 H   0  0  0  0  0  0  0  0  0  0  0  0
   43.6950   36.5850   44.9700 H   0  0  0  0  0  0  0  0  0  0  0  0
   46.1290   32.8060   45.5830 C   0  0  0  0  0  0  0  0  0  0  0  0
   45.7390   31.5740   45.1450 C   0  0  0  0  0  0  0  0  0  0  0  0
   46.1010   30.4600   45.8760 C   0  0  0  0  0  0  0  0  0  0  0  0
   46.8500   30.5330   47.0500 C   0  0  0  0  0  0  0  0  0  0  0  0
   47.2180   31.8180   47.4460 C   0  0  0  0  0  0  0  0  0  0  0  0
   46.8520   32.8820   46.7150 N   0  0  0  0  0  0  0  0  0  0  0  0
   45.1580   31.3570   44.2640 H   0  0  0  0  0  0  0  0  0  0  0  0
   45.8240   29.4600   45.5820 H   0  0  0  0  0  0  0  0  0  0  0  0
   47.1350   29.6700   47.6250 H   0  0  0  0  0  0  0  0  0  0  0  0
   47.7910   31.9400   48.3340 H   0  0  0  0  0  0  0  0  0  0  0  0
   49.7850   32.3370   41.7480 C   0  0  0  0  0  0  0  0  0  0  0  0
   51.0350   31.9600   41.0510 C   0  0  0  0  0  0  0  0  0  0  0  0
   51.0190   33.0970   42.0770 C   0  0  0  0  0  0  0  0  0  0  0  0
  1 19  1  0  0  0  0
  1  2  2  0  0  0  0
  3  1  1  0  0  0  0
  4  9  1  0  0  0  0
  4  3  1  0  0  0  0
  5 11  1  0  0  0  0
  5  4  1  0  0  0  0
  6  5  1  0  0  0  0
  6  7  1  0  0  0  0
  7 16  1  0  0  0  0
  7  8  1  0  0  0  0
  8 17  1  6  0  0  0
  8 36  1  0  0  0  0
  8  3  1  0  0  0  0
 10  4  1  0  0  0  0
 12  5  1  0  0  0  0
 13  6  1  0  0  0  0
 14  6  1  0  0  0  0
 15  7  1  0  0  0  0
 18 23  2  0  0  0  0
 18 19  1  0  0  0  0
 19 20  2  0  0  0  0
 20 21  1  0  0  0  0
 20 26  1  0  0  0  0
 22 25  1  0  0  0  0
 22 21  2  0  0  0  0
 23 22  1  0  0  0  0
 24 18  1  0  0  0  0
 26 31  1  0  0  0  0
 27 26  2  0  0  0  0
 27 28  1  0  0  0  0
 28 29  2  0  0  0  0
 29 30  1  0  0  0  0
 29 34  1  0  0  0  0
 30 35  1  0  0  0  0
 31 30  2  0  0  0  0
 32 27  1  0  0  0  0
 33 28  1  0  0  0  0
 36 38  1  0  0  0  0
 37 36  1  0  0  0  0
 37 38  1  0  0  0  0
M  END
>  <minimizedAffinity>
-5.347054

>  <minimizedRMSD>
0.726364553

$$$$
