
     RDKit          3D

 40 43  0  0  0  0  0  0  0  0999 V2000
   45.7991   33.2324   46.3641 C   0  0  0  0  0  0  0  0  0  0  0  0
   45.1936   33.1312   47.6264 C   0  0  0  0  0  0  0  0  0  0  0  0
   45.7584   32.3166   48.5348 C   0  0  0  0  0  0  0  0  0  0  0  0
   46.9240   31.5954   48.2079 C   0  0  0  0  0  0  0  0  0  0  0  0
   47.2453   32.1069   46.4884 S   0  0  0  0  0  0  0  0  0  0  0  0
   44.3348   35.9194   44.2471 C   0  0  0  0  0  0  0  0  0  0  0  0
   44.5068   35.3337   42.9659 C   0  0  0  0  0  0  0  0  0  0  0  0
   45.1130   34.0537   42.8866 C   0  0  0  0  0  0  0  0  0  0  0  0
   45.4914   33.4695   44.0540 N   0  0  0  0  0  0  0  0  0  0  0  0
   45.3051   34.0724   45.2625 C   0  0  0  0  0  0  0  0  0  0  0  0
   44.7280   35.2954   45.3631 N   0  0  0  0  0  0  0  0  0  0  0  0
   47.7868   30.6563   48.8607 C   0  0  1  0  0  0  0  0  0  0  0  0
   48.1652   29.4994   48.0006 C   0  0  0  0  0  0  0  0  0  0  0  0
   49.5822   29.0470   48.1305 C   0  0  0  0  0  0  0  0  0  0  0  0
   50.0785   29.0303   49.5521 C   0  0  0  0  0  0  0  0  0  0  0  0
   49.6684   30.2517   50.3401 C   0  0  0  0  0  0  0  0  0  0  0  0
   49.0884   31.2988   49.3912 C   0  0  2  0  0  0  0  0  0  0  0  0
   44.3009   33.6850   47.8735 H   0  0  0  0  0  0  0  0  0  0  0  0
   45.4440   32.1086   49.5460 H   0  0  0  0  0  0  0  0  0  0  0  0
   43.8786   36.8857   44.3238 H   0  0  0  0  0  0  0  0  0  0  0  0
   44.1886   35.8390   42.0639 H   0  0  0  0  0  0  0  0  0  0  0  0
   45.2548   33.5905   41.9411 H   0  0  0  0  0  0  0  0  0  0  0  0
   47.2773   30.3222   49.7928 H   0  0  0  0  0  0  0  0  0  0  0  0
   47.4892   28.6465   48.2259 H   0  0  0  0  0  0  0  0  0  0  0  0
   47.9984   29.7102   46.9036 H   0  0  0  0  0  0  0  0  0  0  0  0
   49.6084   27.9854   47.7800 H   0  0  0  0  0  0  0  0  0  0  0  0
   50.2168   29.6219   47.4342 H   0  0  0  0  0  0  0  0  0  0  0  0
   51.2023   29.0477   49.4994 H   0  0  0  0  0  0  0  0  0  0  0  0
   49.8216   28.0830   50.0667 H   0  0  0  0  0  0  0  0  0  0  0  0
   50.4778   30.6618   50.9542 H   0  0  0  0  0  0  0  0  0  0  0  0
   48.8272   29.9506   51.0191 H   0  0  0  0  0  0  0  0  0  0  0  0
   49.7704   31.5425   48.5738 H   0  0  0  0  0  0  0  0  0  0  0  0
   48.6795   32.4939   50.2251 C   0  0  0  0  0  0  0  0  0  0  0  0
   48.2263   33.6960   49.4810 C   0  0  0  0  0  0  0  0  0  0  0  0
   47.2377   32.8358   50.2515 C   0  0  0  0  0  0  0  0  0  0  0  0
   49.2483   32.6388   51.1675 H   0  0  0  0  0  0  0  0  0  0  0  0
   48.1845   33.6260   48.3885 H   0  0  0  0  0  0  0  0  0  0  0  0
   48.5538   34.6699   49.9068 H   0  0  0  0  0  0  0  0  0  0  0  0
   46.8428   33.3016   51.1618 H   0  0  0  0  0  0  0  0  0  0  0  0
   46.5174   32.2400   49.6473 H   0  0  0  0  0  0  0  0  0  0  0  0
  1  5  1  0
  1  2  2  0
  2  3  1  0
  4  3  2  0
  4 12  1  0
  5  4  1  0
  6 11  2  0
  7  6  1  0
  8  7  2  0
  8  9  1  0
  9 10  2  0
 10 11  1  0
 10  1  1  0
 12 17  1  0
 13 14  1  0
 13 12  1  0
 14 15  1  0
 15 16  1  0
 17 16  1  0
  2 18  1  0
  3 19  1  0
  6 20  1  0
  7 21  1  0
  8 22  1  0
 12 23  1  1
 13 24  1  0
 13 25  1  0
 14 26  1  0
 14 27  1  0
 15 28  1  0
 15 29  1  0
 16 30  1  0
 16 31  1  0
 17 32  1  6
 33 34  1  0
 34 35  1  0
 35 33  1  0
 33 36  1  0
 34 37  1  0
 34 38  1  0
 35 39  1  0
 35 40  1  0
 17 33  1  0
M  ISO  8  18  14  19  14  20  14  21  14  22  14  23  13  24  13  25  13
M  ISO  7  26  13  27  13  28  13  29  13  30  13  31  13  32  13
M  END
>  <DihAtoms>  (1) 
11,16,32,33

>  <DihDeg>  (1) 
179.99825734618545

$$$$
