
 OpenBabel03252509213D

 19 21  0  0  0  0  0  0  0  0999 V2000
   45.1480   34.5510   44.9600 C   0  0  0  0  0  0  0  0  0  0  0  0
   45.9380   34.5040   43.7850 C   0  0  0  0  0  0  0  0  0  0  0  0
   47.0080   33.6110   43.8380 C   0  0  0  0  0  0  0  0  0  0  0  0
   47.2500   32.8450   44.9640 N   0  0  0  0  0  0  0  0  0  0  0  0
   46.4580   32.9380   46.0460 C   0  0  0  0  0  0  0  0  0  0  0  0
   45.4180   33.7870   46.0360 N   0  0  0  0  0  0  0  0  0  0  0  0
   44.3180   35.2220   44.9650 H   0  0  0  0  0  0  0  0  0  0  0  0
   46.7980   32.2700   46.8240 H   0  0  0  0  0  0  0  0  0  0  0  0
   47.8320   33.4570   42.5800 C   0  0  0  0  0  0  0  0  0  0  0  0
   49.2000   34.1340   42.7320 C   0  0  0  0  0  0  0  0  0  0  0  0
   48.9810   32.5900   42.6350 C   0  0  0  0  0  0  0  0  0  0  0  0
   47.3330   33.9020   41.7060 H   0  0  0  0  0  0  0  0  0  0  0  0
   49.6580   34.6130   41.8600 H   0  0  0  0  0  0  0  0  0  0  0  0
   49.4660   34.5190   43.7160 H   0  0  0  0  0  0  0  0  0  0  0  0
   49.3650   32.1620   41.6680 H   0  0  0  0  0  0  0  0  0  0  0  0
   49.3070   32.0430   43.5290 H   0  0  0  0  0  0  0  0  0  0  0  0
   45.6810   35.3160   42.5870 C   0  0  0  0  0  3  0  0  0  0  0  0
   44.6740   34.7020   41.6360 C   0  0  0  0  0  2  0  0  0  0  0  0
   44.3710   35.9780   42.3750 C   0  0  0  0  0  2  0  0  0  0  0  0
  1  7  1  0  0  0  0
  1  6  1  0  0  0  0
  2  3  1  0  0  0  0
  2  1  2  0  0  0  0
  3  4  2  0  0  0  0
  4  5  1  0  0  0  0
  5  8  1  0  0  0  0
  6  5  2  0  0  0  0
  9 11  1  0  0  0  0
  9 10  1  0  0  0  0
  9  3  1  0  0  0  0
 10 14  1  0  0  0  0
 11 10  1  0  0  0  0
 11 16  1  0  0  0  0
 12  9  1  0  0  0  0
 13 10  1  0  0  0  0
 15 11  1  0  0  0  0
 17  2  1  0  0  0  0
 18 19  1  0  0  0  0
 18 17  1  0  0  0  0
 19 17  1  0  0  0  0
M  END
>  <minimizedAffinity>
-3.67015314

>  <minimizedRMSD>
1.69019651

$$$$
