
     RDKit          3D

 40 43  0  0  0  0  0  0  0  0999 V2000
   45.1252   33.9413   40.6982 C   0  0  0  0  0  0  0  0  0  0  0  0
   44.0807   33.6380   39.8786 C   0  0  0  0  0  0  0  0  0  0  0  0
   44.3775   33.1565   38.6294 C   0  0  0  0  0  0  0  0  0  0  0  0
   45.6590   32.9697   38.1759 C   0  0  0  0  0  0  0  0  0  0  0  0
   46.6882   33.2849   39.0259 C   0  0  0  0  0  0  0  0  0  0  0  0
   46.4438   33.7723   40.2920 C   0  0  0  0  0  0  0  0  0  0  0  0
   40.7943   35.2497   40.7913 C   0  0  0  0  0  0  0  0  0  0  0  0
   42.1003   35.0961   40.2673 C   0  0  0  0  0  0  0  0  0  0  0  0
   42.7386   33.8509   40.3988 C   0  0  0  0  0  0  0  0  0  0  0  0
   42.0379   32.8893   41.0256 N   0  0  0  0  0  0  0  0  0  0  0  0
   40.8069   33.0589   41.5112 C   0  0  0  0  0  0  0  0  0  0  0  0
   40.1881   34.2459   41.3905 N   0  0  0  0  0  0  0  0  0  0  0  0
   40.1902   36.5169   40.6375 N   0  0  0  0  0  0  0  0  0  0  0  0
   47.6044   34.0773   41.1191 C   0  0  0  0  0  0  0  0  0  0  0  0
   48.1351   35.3374   40.9410 C   0  0  0  0  0  0  0  0  0  0  0  0
   49.2490   35.7976   41.6515 C   0  0  0  0  0  0  0  0  0  0  0  0
   49.8252   34.9310   42.5673 C   0  0  0  0  0  0  0  0  0  0  0  0
   49.3070   33.6788   42.7520 C   0  0  0  0  0  0  0  0  0  0  0  0
   48.2028   33.2482   42.0349 C   0  0  0  0  0  0  0  0  0  0  0  0
   44.7278   34.8633   43.1091 N   0  0  0  0  0  0  0  0  0  0  0  0
   44.9030   34.4529   42.0278 C   0  0  0  0  0  0  0  0  0  0  0  0
   43.5519   32.9137   37.9738 H   0  0  0  0  0  0  0  0  0  0  0  0
   45.8411   32.5821   37.1687 H   0  0  0  0  0  0  0  0  0  0  0  0
   47.7115   33.1399   38.6745 H   0  0  0  0  0  0  0  0  0  0  0  0
   42.6670   35.8574   39.7658 H   0  0  0  0  0  0  0  0  0  0  0  0
   40.2752   32.2604   42.0097 H   0  0  0  0  0  0  0  0  0  0  0  0
   39.7819   36.5297   39.6650 H   0  0  0  0  0  0  0  0  0  0  0  0
   40.3851   36.9452   41.5486 H   0  0  0  0  0  0  0  0  0  0  0  0
   47.7441   36.0704   40.2476 H   0  0  0  0  0  0  0  0  0  0  0  0
   49.6643   36.7865   41.5109 H   0  0  0  0  0  0  0  0  0  0  0  0
   50.6947   35.2037   43.1649 H   0  0  0  0  0  0  0  0  0  0  0  0
   49.7201   32.9823   43.4460 H   0  0  0  0  0  0  0  0  0  0  0  0
   47.5516   31.9016   42.1544 C   0  0  0  0  0  0  0  0  0  0  0  0
   48.1482   30.6917   41.5841 C   0  0  0  0  0  0  0  0  0  0  0  0
   48.2802   30.8936   43.0663 C   0  0  0  0  0  0  0  0  0  0  0  0
   46.4409   31.9322   42.3556 H   0  0  0  0  0  0  0  0  0  0  0  0
   47.4530   29.8916   41.2429 H   0  0  0  0  0  0  0  0  0  0  0  0
   49.0640   30.7856   40.9663 H   0  0  0  0  0  0  0  0  0  0  0  0
   49.2808   31.1810   43.4335 H   0  0  0  0  0  0  0  0  0  0  0  0
   47.6793   30.3005   43.7661 H   0  0  0  0  0  0  0  0  0  0  0  0
  1 21  1  0
  2  9  1  0
  2  1  2  0
  3  2  1  0
  4  3  2  0
  4  5  1  0
  5  6  2  0
  6  1  1  0
  6 14  1  0
  7 12  2  0
  8  9  2  0
  8  7  1  0
  9 10  1  0
 10 11  2  0
 12 11  1  0
 13  7  1  0
 14 19  1  0
 15 14  2  0
 15 16  1  0
 16 17  2  0
 17 18  1  0
 19 18  2  0
 21 20  3  0
  3 22  1  0
  4 23  1  0
  5 24  1  0
  8 25  1  0
 11 26  1  0
 13 27  1  0
 13 28  1  0
 15 29  1  0
 16 30  1  0
 17 31  1  0
 18 32  1  0
 33 34  1  0
 34 35  1  0
 35 33  1  0
 33 36  1  0
 34 37  1  0
 34 38  1  0
 35 39  1  0
 35 40  1  0
 19 33  1  0
M  ISO  8  22  14  23  14  24  14  25  14  26  14  29  14  30  14  31  14
M  ISO  1  32  14
M  END
>  <DihAtoms>  (1) 
13,18,32,33

>  <DihDeg>  (1) 
90.00477307424924

$$$$
