
 OpenBabel03242519223D

 28 30  0  0  0  0  0  0  0  0999 V2000
   46.3650   33.7800   43.2370 C   0  0  0  0  0  0  0  0  0  0  0  0
   45.7190   34.8240   42.4190 C   0  0  0  0  0  0  0  0  0  0  0  0
   45.4000   36.0740   43.1730 C   0  0  0  0  0  0  0  0  0  0  0  0
   44.5730   35.8140   44.4170 C   0  0  0  0  0  0  0  0  0  0  0  0
   44.9900   34.5800   45.1770 C   0  0  0  0  0  0  0  0  0  0  0  0
   46.3410   34.0870   44.7310 C   0  0  0  0  0  0  0  0  0  0  0  0
   45.8540   32.7840   43.1490 H   0  0  0  0  0  0  0  0  0  0  0  0
   44.7330   34.4240   42.0490 H   0  0  0  0  0  0  0  0  0  0  0  0
   46.2510   35.1120   41.4990 H   0  0  0  0  0  0  0  0  0  0  0  0
   46.2290   36.7130   43.4530 H   0  0  0  0  0  0  0  0  0  0  0  0
   44.7330   36.6880   42.5080 H   0  0  0  0  0  0  0  0  0  0  0  0
   44.7140   36.6650   45.1270 H   0  0  0  0  0  0  0  0  0  0  0  0
   43.4980   35.7130   44.1590 H   0  0  0  0  0  0  0  0  0  0  0  0
   45.0320   34.7270   46.2630 H   0  0  0  0  0  0  0  0  0  0  0  0
   44.2660   33.7530   44.9990 H   0  0  0  0  0  0  0  0  0  0  0  0
   46.5770   33.1460   45.2510 H   0  0  0  0  0  0  0  0  0  0  0  0
   47.1470   34.8190   44.9850 H   0  0  0  0  0  0  0  0  0  0  0  0
   47.7760   33.5530   42.8710 C   0  0  0  0  0  0  0  0  0  0  0  0
   48.5760   34.7110   42.7340 C   0  0  0  0  0  0  0  0  0  0  0  0
   49.9250   34.5830   42.3940 C   0  0  0  0  0  0  0  0  0  0  0  0
   50.3960   33.3040   42.2110 N   0  0  0  0  0  0  0  0  0  0  0  0
   49.6040   32.2110   42.3500 C   0  0  0  0  0  0  0  0  0  0  0  0
   48.3120   32.3430   42.6740 N   0  0  0  0  0  0  0  0  0  0  0  0
   48.2850   35.7210   42.8590 H   0  0  0  0  0  0  0  0  0  0  0  0
   50.5930   35.4180   42.2740 H   0  0  0  0  0  0  0  0  0  0  0  0
   50.2250   30.8610   42.1250 C   0  0  0  0  0  0  0  0  0  0  0  0
   50.4330   30.0200   43.4060 C   0  0  0  0  0  0  0  0  0  0  0  0
   51.5780   30.5570   42.6350 C   0  0  0  0  0  0  0  0  0  0  0  0
  1  6  1  0  0  0  0
  2  3  1  0  0  0  0
  2  1  1  0  0  0  0
  3 10  1  0  0  0  0
  3  4  1  0  0  0  0
  4 12  1  0  0  0  0
  4  5  1  0  0  0  0
  5 14  1  0  0  0  0
  6 17  1  0  0  0  0
  6  5  1  0  0  0  0
  6 16  1  0  0  0  0
  7  1  1  0  0  0  0
  8  2  1  0  0  0  0
  9  2  1  0  0  0  0
 11  3  1  0  0  0  0
 13  4  1  0  0  0  0
 15  5  1  0  0  0  0
 18  1  1  0  0  0  0
 19 24  1  0  0  0  0
 19 18  1  0  0  0  0
 20 19  2  0  0  0  0
 21 22  2  0  0  0  0
 21 20  1  0  0  0  0
 22 23  1  0  0  0  0
 23 18  2  0  0  0  0
 25 20  1  0  0  0  0
 26 22  1  0  0  0  0
 26 28  1  0  0  0  0
 26 27  1  0  0  0  0
 28 27  1  0  0  0  0
M  END
>  <minimizedAffinity>
-4.17900991

>  <minimizedRMSD>
1.9882046

$$$$
