
 OpenBabel03252509143D

 39 43  0  0  1  0  0  0  0  0999 V2000
   47.5260   32.6220   44.2170 C   0  0  0  0  0  0  0  0  0  0  0  0
   46.8640   33.5260   43.3910 C   0  0  0  0  0  0  0  0  0  0  0  0
   45.7990   34.3050   43.8140 C   0  0  0  0  0  0  0  0  0  0  0  0
   45.3630   34.1820   45.1360 C   0  0  0  0  0  0  0  0  0  0  0  0
   44.3900   34.7580   45.8800 N   0  0  0  0  0  0  0  0  0  0  0  0
   44.4260   34.2460   47.1300 C   0  0  0  0  0  0  0  0  0  0  0  0
   45.4240   33.3590   47.1390 N   0  0  0  0  0  0  0  0  0  0  0  0
   46.0240   33.2910   45.9340 C   0  0  0  0  0  0  0  0  0  0  0  0
   47.0900   32.4970   45.5450 C   0  0  0  0  0  0  0  0  0  0  0  0
   48.3510   32.0360   43.8400 H   0  0  0  0  0  0  0  0  0  0  0  0
   43.7450   35.4800   45.4870 H   0  0  0  0  0  0  0  0  0  0  0  0
   43.7580   34.5210   47.9520 H   0  0  0  0  0  0  0  0  0  0  0  0
   47.5730   31.8080   46.2250 H   0  0  0  0  0  0  0  0  0  0  0  0
   47.5480   32.7490   39.8690 C   0  0  0  0  0  0  0  0  0  0  0  0
   48.1510   33.9150   39.4090 C   0  0  0  0  0  0  0  0  0  0  0  0
   48.3210   34.9620   40.3100 C   0  0  0  0  0  0  0  0  0  0  0  0
   47.8950   34.8180   41.6080 N   0  0  0  0  0  0  0  0  0  0  0  0
   47.3120   33.6610   42.0060 C   0  0  0  0  0  0  0  0  0  0  0  0
   47.1240   32.6100   41.1620 N   0  0  0  0  0  0  0  0  0  0  0  0
   47.3930   31.9090   39.2100 H   0  0  0  0  0  0  0  0  0  0  0  0
   48.4720   33.9810   38.3720 H   0  0  0  0  0  0  0  0  0  0  0  0
   48.7840   35.8760   39.9910 H   0  0  0  0  0  0  0  0  0  0  0  0
   44.9800   35.4440   42.7390 S   0  0  0  0  0  0  0  0  0  0  0  0
   42.6220   35.6230   41.5910 N   0  0  0  0  0  0  0  0  0  0  0  0
   43.7010   34.6680   41.7010 C   0  0  1  0  0  0  0  0  0  0  0  0
   44.3700   34.4540   40.3370 C   0  0  0  0  0  0  0  0  0  0  0  0
   43.4570   34.3020   39.3120 O   0  0  0  0  0  0  0  0  0  0  0  0
   42.1440   34.1560   39.6940 C   0  0  0  0  0  0  0  0  0  0  0  0
   41.7410   35.3590   40.4940 C   0  0  1  0  0  0  0  0  0  0  0  0
   42.1730   35.6920   42.5160 H   0  0  0  0  0  0  0  0  0  0  0  0
   43.3630   33.6970   42.1140 H   0  0  0  0  0  0  0  0  0  0  0  0
   44.9420   33.5330   40.3320 H   0  0  0  0  0  0  0  0  0  0  0  0
   44.9730   35.3550   40.1040 H   0  0  0  0  0  0  0  0  0  0  0  0
   42.0700   33.2260   40.2980 H   0  0  0  0  0  0  0  0  0  0  0  0
   41.5450   34.0760   38.7850 H   0  0  0  0  0  0  0  0  0  0  0  0
   41.8580   36.2350   39.7930 H   0  0  0  0  0  0  0  0  0  0  0  0
   40.2860   35.3670   40.8820 C   0  0  0  0  0  3  0  0  0  0  0  0
   39.2150   34.9740   39.9480 C   0  0  0  0  0  2  0  0  0  0  0  0
   39.5160   34.1600   41.1800 C   0  0  0  0  0  2  0  0  0  0  0  0
  1  9  1  0  0  0  0
  2  3  1  0  0  0  0
  2  1  2  0  0  0  0
  3  4  2  0  0  0  0
  4  5  1  0  0  0  0
  4  8  1  0  0  0  0
  5  6  1  0  0  0  0
  6  7  2  0  0  0  0
  6 12  1  0  0  0  0
  8  7  1  0  0  0  0
  9  8  2  0  0  0  0
  9 13  1  0  0  0  0
 10  1  1  0  0  0  0
 11  5  1  0  0  0  0
 14 19  1  0  0  0  0
 15 14  2  0  0  0  0
 15 16  1  0  0  0  0
 16 17  2  0  0  0  0
 17 18  1  0  0  0  0
 18  2  1  0  0  0  0
 19 18  2  0  0  0  0
 20 14  1  0  0  0  0
 21 15  1  0  0  0  0
 22 16  1  0  0  0  0
 23  3  1  0  0  0  0
 24 25  1  0  0  0  0
 24 30  1  0  0  0  0
 25 31  1  1  0  0  0
 25 23  1  0  0  0  0
 26 25  1  0  0  0  0
 27 28  1  0  0  0  0
 27 26  1  0  0  0  0
 28 34  1  0  0  0  0
 28 29  1  0  0  0  0
 29 36  1  6  0  0  0
 29 37  1  0  0  0  0
 29 24  1  0  0  0  0
 32 26  1  0  0  0  0
 33 26  1  0  0  0  0
 35 28  1  0  0  0  0
 37 39  1  0  0  0  0
 38 37  1  0  0  0  0
 38 39  1  0  0  0  0
M  END
>  <minimizedAffinity>
-5.88740253

>  <minimizedRMSD>
1.21849263

$$$$
