
 OpenBabel03242516113D

 33 36  0  0  0  0  0  0  0  0999 V2000
   48.2210   34.0600   41.9990 C   0  0  0  0  0  0  0  0  0  0  0  0
   48.3070   35.5760   41.9860 C   0  0  0  0  0  0  0  0  0  0  0  0
   49.5150   34.7410   42.1190 C   0  0  0  0  0  0  0  0  0  0  0  0
   47.9240   36.0720   42.9050 H   0  0  0  0  0  0  0  0  0  0  0  0
   48.0760   36.1500   41.0820 H   0  0  0  0  0  0  0  0  0  0  0  0
   50.2560   34.8060   41.3180 H   0  0  0  0  0  0  0  0  0  0  0  0
   49.9920   34.6600   43.1360 H   0  0  0  0  0  0  0  0  0  0  0  0
   47.8710   33.4400   40.6740 C   0  0  0  0  0  0  0  0  0  0  0  0
   48.1600   34.3300   39.4820 C   0  0  0  0  0  0  0  0  0  0  0  0
   47.8480   33.4460   38.2520 C   0  0  0  0  0  0  0  0  0  0  0  0
   46.4570   33.3910   38.1610 O   0  0  0  0  0  0  0  0  0  0  0  0
   46.0680   32.5480   39.2240 C   0  0  0  0  0  0  0  0  0  0  0  0
   46.3580   33.2100   40.5550 C   0  0  0  0  0  0  0  0  0  0  0  0
   48.3900   32.4950   40.5450 H   0  0  0  0  0  0  0  0  0  0  0  0
   49.2490   34.5200   39.3660 H   0  0  0  0  0  0  0  0  0  0  0  0
   47.5370   35.2210   39.4610 H   0  0  0  0  0  0  0  0  0  0  0  0
   48.3280   33.9530   37.3870 H   0  0  0  0  0  0  0  0  0  0  0  0
   48.2520   32.4300   38.4050 H   0  0  0  0  0  0  0  0  0  0  0  0
   44.9750   32.4140   39.1280 H   0  0  0  0  0  0  0  0  0  0  0  0
   46.5230   31.5480   39.1580 H   0  0  0  0  0  0  0  0  0  0  0  0
   45.8000   34.1400   40.6460 H   0  0  0  0  0  0  0  0  0  0  0  0
   46.1200   32.4450   41.3350 H   0  0  0  0  0  0  0  0  0  0  0  0
   46.6350   34.1240   43.9390 C   0  0  0  0  0  0  0  0  0  0  0  0
   47.6170   33.4340   43.2160 C   0  0  0  0  0  0  0  0  0  0  0  0
   48.0060   32.1490   43.6720 C   0  0  0  0  0  0  0  0  0  0  0  0
   47.4090   31.6450   44.7920 N   0  0  0  0  0  0  0  0  0  0  0  0
   46.4840   32.3360   45.4440 C   0  0  0  0  0  0  0  0  0  0  0  0
   46.0920   33.5630   45.0320 N   0  0  0  0  0  0  0  0  0  0  0  0
   46.2910   35.1000   43.6530 H   0  0  0  0  0  0  0  0  0  0  0  0
   48.7580   31.6130   43.1240 H   0  0  0  0  0  0  0  0  0  0  0  0
   45.8390   31.7780   46.6610 C   0  0  0  0  0  0  0  0  0  0  0  0
   45.3950   32.7580   47.7380 C   0  0  0  0  0  0  0  0  0  0  0  0
   46.5330   31.8330   47.9790 C   0  0  0  0  0  0  0  0  0  0  0  0
  1  3  1  0  0  0  0
  1 24  1  0  0  0  0
  2  1  1  0  0  0  0
  2  3  1  0  0  0  0
  2  4  1  0  0  0  0
  3  7  1  0  0  0  0
  5  2  1  0  0  0  0
  6  3  1  0  0  0  0
  8  1  1  0  0  0  0
  9  8  1  0  0  0  0
 10 18  1  0  0  0  0
 10  9  1  0  0  0  0
 11 10  1  0  0  0  0
 11 12  1  0  0  0  0
 12 13  1  0  0  0  0
 13 21  1  0  0  0  0
 13  8  1  0  0  0  0
 13 22  1  0  0  0  0
 14  8  1  0  0  0  0
 15  9  1  0  0  0  0
 16  9  1  0  0  0  0
 17 10  1  0  0  0  0
 19 12  1  0  0  0  0
 20 12  1  0  0  0  0
 23 28  1  0  0  0  0
 24 25  1  0  0  0  0
 24 23  2  0  0  0  0
 25 26  2  0  0  0  0
 26 27  1  0  0  0  0
 27 31  1  0  0  0  0
 28 27  2  0  0  0  0
 29 23  1  0  0  0  0
 30 25  1  0  0  0  0
 31 32  1  0  0  0  0
 31 33  1  0  0  0  0
 32 33  1  0  0  0  0
M  END
>  <minimizedAffinity>
-4.46177149

>  <minimizedRMSD>
2.43845153

$$$$
