
 OpenBabel03252504423D

 39 42  0  0  0  0  0  0  0  0999 V2000
   46.3120   32.1070   48.0090 C   0  0  0  0  0  0  0  0  0  0  0  0
   45.8440   31.5370   49.1550 C   0  0  0  0  0  0  0  0  0  0  0  0
   46.8550   30.8350   49.6700 N   0  0  0  0  0  0  0  0  0  0  0  0
   47.9460   30.9340   48.9030 C   0  0  0  0  0  0  0  0  0  0  0  0
   47.5930   31.7380   47.8580 N   0  0  0  0  0  0  0  0  0  0  0  0
   49.2500   30.3800   49.0290 N   0  0  0  0  0  0  0  0  0  0  0  0
   50.2400   31.1650   49.8050 C   0  0  0  0  0  0  0  0  0  0  0  0
   50.3430   30.4330   51.1430 C   0  0  0  0  0  0  0  0  0  0  0  0
   50.5320   28.9570   50.9170 C   0  0  0  0  0  0  0  0  0  0  0  0
   50.9430   28.7050   49.4750 C   0  0  0  0  0  0  0  0  0  0  0  0
   49.8420   29.1740   48.5480 C   0  0  0  0  0  0  0  0  0  0  0  0
   44.8400   31.6360   49.5670 H   0  0  0  0  0  0  0  0  0  0  0  0
   46.8410   30.2700   50.5520 H   0  0  0  0  0  0  0  0  0  0  0  0
   51.1990   31.2110   49.2790 H   0  0  0  0  0  0  0  0  0  0  0  0
   49.8480   32.1760   50.0350 H   0  0  0  0  0  0  0  0  0  0  0  0
   49.4200   30.5820   51.7060 H   0  0  0  0  0  0  0  0  0  0  0  0
   51.2300   30.8360   51.6910 H   0  0  0  0  0  0  0  0  0  0  0  0
   49.5880   28.3910   51.0610 H   0  0  0  0  0  0  0  0  0  0  0  0
   51.3140   28.5090   51.5800 H   0  0  0  0  0  0  0  0  0  0  0  0
   51.1280   27.6260   49.3310 H   0  0  0  0  0  0  0  0  0  0  0  0
   51.8720   29.2810   49.3050 H   0  0  0  0  0  0  0  0  0  0  0  0
   50.2270   29.2800   47.5110 H   0  0  0  0  0  0  0  0  0  0  0  0
   49.0750   28.3470   48.5700 H   0  0  0  0  0  0  0  0  0  0  0  0
   45.5460   32.9920   47.0810 C   0  0  0  0  0  0  0  0  0  0  0  0
   45.4040   33.9850   47.5660 H   0  0  0  0  0  0  0  0  0  0  0  0
   44.5420   32.5500   46.8790 H   0  0  0  0  0  0  0  0  0  0  0  0
   45.8450   33.9540   44.8300 C   0  0  0  0  0  3  0  0  0  0  0  0
   46.2820   33.1970   45.8170 C   0  0  0  0  0  3  0  0  0  0  0  0
   46.6770   34.0610   43.6370 C   0  0  0  0  0  0  0  0  0  0  0  0
   46.3960   35.0130   42.6170 C   0  0  0  0  0  0  0  0  0  0  0  0
   47.2330   35.0430   41.5210 C   0  0  0  0  0  0  0  0  0  0  0  0
   48.2720   34.1870   41.4460 N   0  0  0  0  0  0  0  0  0  0  0  0
   48.5170   33.2940   42.4250 C   0  0  0  0  0  0  0  0  0  0  0  0
   47.7470   33.2270   43.4900 N   0  0  0  0  0  0  0  0  0  0  0  0
   45.5440   35.6560   42.7630 H   0  0  0  0  0  0  0  0  0  0  0  0
   46.9940   35.7760   40.7640 H   0  0  0  0  0  0  0  0  0  0  0  0
   49.6750   32.3730   42.2940 C   0  0  0  0  0  3  0  0  0  0  0  0
   51.0560   32.9460   42.1400 C   0  0  0  0  0  2  0  0  0  0  0  0
   50.3870   32.1980   41.0180 C   0  0  0  0  0  2  0  0  0  0  0  0
  1  2  2  0  0  0  0
  2 12  1  0  0  0  0
  2  3  1  0  0  0  0
  3 13  1  0  0  0  0
  4  6  1  0  0  0  0
  4  3  1  0  0  0  0
  5  1  1  0  0  0  0
  5  4  2  0  0  0  0
  6  7  1  0  0  0  0
  7 15  1  0  0  0  0
  7  8  1  0  0  0  0
  8 17  1  0  0  0  0
  8 16  1  0  0  0  0
  9 18  1  0  0  0  0
  9  8  1  0  0  0  0
  9 19  1  0  0  0  0
 10  9  1  0  0  0  0
 11 23  1  0  0  0  0
 11  6  1  0  0  0  0
 11 10  1  0  0  0  0
 14  7  1  0  0  0  0
 20 10  1  0  0  0  0
 21 10  1  0  0  0  0
 22 11  1  0  0  0  0
 24 25  1  0  0  0  0
 24  1  1  0  0  0  0
 26 24  1  0  0  0  0
 27 28  2  0  0  0  0
 28 24  1  0  0  0  0
 29 27  1  0  0  0  0
 30 35  1  0  0  0  0
 30 29  2  0  0  0  0
 31 30  1  0  0  0  0
 32 31  2  0  0  0  0
 32 33  1  0  0  0  0
 33 34  2  0  0  0  0
 34 29  1  0  0  0  0
 36 31  1  0  0  0  0
 37 33  1  0  0  0  0
 38 37  1  0  0  0  0
 39 38  1  0  0  0  0
 39 37  1  0  0  0  0
M  END
>  <minimizedAffinity>
-5.87507153

>  <minimizedRMSD>
0.417309523

$$$$
