REMARK  Name = 
REMARK  2 active torsions:
REMARK  status: ('A' for Active; 'I' for Inactive)
REMARK    1  A    between atoms: C_2  and  C_17
REMARK    2  A    between atoms: C_3  and  C_7
REMARK                            x       y       z     vdW  Elec       q    Type
REMARK                         _______ _______ _______ _____ _____    ______ ____
ROOT
ATOM      1  C   UNL     1      44.578  35.911  44.311  0.00  0.00    +0.000 A 
ATOM      2  C   UNL     1      45.336  35.911  43.114  0.00  0.00    +0.000 A 
ATOM      3  C   UNL     1      46.306  34.911  43.039  0.00  0.00    +0.000 A 
ATOM      4  N   UNL     1      46.487  34.006  44.069  0.00  0.00    +0.000 NA
ATOM      5  C   UNL     1      45.730  34.062  45.179  0.00  0.00    +0.000 A 
ATOM      6  N   UNL     1      44.786  35.010  45.291  0.00  0.00    +0.000 NA
ATOM      7  H   UNL     1      43.824  36.660  44.413  0.00  0.00    +0.000 HD
ATOM      8  H   UNL     1      46.011  33.281  45.870  0.00  0.00    +0.000 HD
ENDROOT
BRANCH   3   9
ATOM      9  C   UNL     1      47.085  34.811  41.748  0.00  0.00    +0.000 C 
ATOM     10  C   UNL     1      48.467  35.463  41.887  0.00  0.00    +0.000 C 
ATOM     11  C   UNL     1      48.223  33.928  41.720  0.00  0.00    +0.000 C 
ATOM     12  H   UNL     1      46.564  35.306  40.915  0.00  0.00    +0.000 HD
ATOM     13  H   UNL     1      48.902  35.980  41.025  0.00  0.00    +0.000 HD
ATOM     14  H   UNL     1      48.771  35.794  42.879  0.00  0.00    +0.000 HD
ATOM     15  H   UNL     1      48.568  33.545  40.720  0.00  0.00    +0.000 HD
ATOM     16  H   UNL     1      48.571  33.333  42.573  0.00  0.00    +0.000 HD
ENDBRANCH   3   9
BRANCH   2  17
ATOM     17  C   UNL     1      45.145  36.871  42.018  0.00  0.00    +0.000 C 
ATOM     18  C   UNL     1      45.137  36.236  40.643  0.00  0.00    +0.000 C 
ATOM     19  C   UNL     1      43.900  36.877  41.212  0.00  0.00    +0.000 C 
ENDBRANCH   2  17
TORSDOF 2
