
 OpenBabel03252502103D

 42 46  0  0  0  0  0  0  0  0999 V2000
   38.4910   33.1970   40.1100 C   0  0  0  0  0  0  0  0  0  0  0  0
   37.9430   32.0480   40.6930 C   0  0  0  0  0  0  0  0  0  0  0  0
   38.8280   31.1540   41.2470 C   0  0  0  0  0  0  0  0  0  0  0  0
   40.1330   31.4110   41.2120 N   0  0  0  0  0  0  0  0  0  0  0  0
   40.6650   32.4980   40.6650 C   0  0  0  0  0  0  0  0  0  0  0  0
   39.8180   33.3790   40.1170 N   0  0  0  0  0  0  0  0  0  0  0  0
   38.3510   29.9950   41.8120 N   0  0  0  0  0  0  0  0  0  0  0  0
   39.2270   28.8750   42.2660 C   0  0  0  0  0  0  0  0  0  0  0  0
   38.3370   27.9710   43.0800 C   0  0  0  0  0  0  0  0  0  0  0  0
   36.9960   28.1950   42.4640 C   0  0  0  0  0  0  0  0  0  0  0  0
   36.9920   29.6310   42.0610 C   0  0  0  0  0  0  0  0  0  0  0  0
   37.8230   33.9340   39.6550 H   0  0  0  0  0  0  0  0  0  0  0  0
   39.6090   28.3640   41.3730 H   0  0  0  0  0  0  0  0  0  0  0  0
   40.0150   29.3400   42.9040 H   0  0  0  0  0  0  0  0  0  0  0  0
   38.3870   28.2030   44.1630 H   0  0  0  0  0  0  0  0  0  0  0  0
   38.6800   26.9300   42.9480 H   0  0  0  0  0  0  0  0  0  0  0  0
   36.9230   27.5100   41.5940 H   0  0  0  0  0  0  0  0  0  0  0  0
   36.1430   27.9230   43.1420 H   0  0  0  0  0  0  0  0  0  0  0  0
   36.3430   29.6240   41.1340 H   0  0  0  0  0  0  0  0  0  0  0  0
   36.5320   30.2040   42.8900 H   0  0  0  0  0  0  0  0  0  0  0  0
   42.0690   32.9580   40.5650 C   0  0  0  0  0  0  0  0  0  0  0  0
   42.6720   33.7300   41.4690 N   0  0  0  0  0  0  0  0  0  0  0  0
   43.9210   34.1610   41.4040 C   0  0  0  0  0  0  0  0  0  0  0  0
   44.6980   33.8190   40.3470 N   0  0  0  0  0  0  0  0  0  0  0  0
   44.2140   33.0440   39.3630 C   0  0  0  0  0  0  0  0  0  0  0  0
   45.0010   32.6790   38.2890 C   0  0  0  0  0  0  0  0  0  0  0  0
   44.5280   31.8840   37.2960 C   0  0  0  0  0  0  0  0  0  0  0  0
   43.2310   31.4530   37.3990 C   0  0  0  0  0  0  0  0  0  0  0  0
   42.4680   31.8440   38.4950 C   0  0  0  0  0  0  0  0  0  0  0  0
   42.9050   32.6360   39.5060 C   0  0  0  0  0  0  0  0  0  0  0  0
   44.3430   34.7950   42.1920 H   0  0  0  0  0  0  0  0  0  0  0  0
   46.0130   33.0670   38.2920 H   0  0  0  0  0  0  0  0  0  0  0  0
   45.2250   31.6620   36.5130 H   0  0  0  0  0  0  0  0  0  0  0  0
   41.1460   31.3130   38.4130 N   0  0  0  0  0  0  0  0  0  0  0  0
   40.6640   30.4710   38.7600 H   0  0  0  0  0  0  0  0  0  0  0  0
   40.6330   32.0360   37.8280 H   0  0  0  0  0  0  0  0  0  0  0  0
   42.7190   30.5770   36.3050 C   0  0  0  0  0  3  0  0  0  0  0  0
   43.6020   30.0270   35.2580 C   0  0  0  0  0  2  0  0  0  0  0  0
   43.0470   29.1170   36.3570 C   0  0  0  0  0  2  0  0  0  0  0  0
   36.5790   31.9250   40.7050 N   0  0  0  0  0  0  0  0  0  0  0  0
   35.9200   32.0690   41.5020 H   0  0  0  0  0  0  0  0  0  0  0  0
   35.9400   31.6590   39.8970 H   0  0  0  0  0  0  0  0  0  0  0  0
  1  6  2  0  0  0  0
  1  2  1  0  0  0  0
  2 40  1  0  0  0  0
  2  3  2  0  0  0  0
  3  7  1  0  0  0  0
  4  3  1  0  0  0  0
  5  4  2  0  0  0  0
  6  5  1  0  0  0  0
  7 11  1  0  0  0  0
  7  8  1  0  0  0  0
  8 14  1  0  0  0  0
  8  9  1  0  0  0  0
  9 15  1  0  0  0  0
 10  9  1  0  0  0  0
 10 18  1  0  0  0  0
 11 10  1  0  0  0  0
 11 20  1  0  0  0  0
 12  1  1  0  0  0  0
 13  8  1  0  0  0  0
 16  9  1  0  0  0  0
 17 10  1  0  0  0  0
 19 11  1  0  0  0  0
 21  5  1  0  0  0  0
 21 22  1  0  0  0  0
 23 22  2  0  0  0  0
 23 31  1  0  0  0  0
 24 23  1  0  0  0  0
 25 30  1  0  0  0  0
 25 24  2  0  0  0  0
 26 32  1  0  0  0  0
 26 25  1  0  0  0  0
 27 28  1  0  0  0  0
 27 26  2  0  0  0  0
 28 29  2  0  0  0  0
 29 30  1  0  0  0  0
 30 21  2  0  0  0  0
 33 27  1  0  0  0  0
 34 29  1  0  0  0  0
 34 35  1  0  0  0  0
 36 34  1  0  0  0  0
 37 39  1  0  0  0  0
 37 28  1  0  0  0  0
 38 37  1  0  0  0  0
 38 39  1  0  0  0  0
 40 41  1  0  0  0  0
 42 40  1  0  0  0  0
M  END
>  <minimizedAffinity>
-6.29082727

$$$$

 OpenBabel03252502103D

 42 46  0  0  0  0  0  0  0  0999 V2000
   35.8990   30.5420   40.5950 C   0  0  0  0  0  0  0  0  0  0  0  0
   36.9910   31.3010   40.1580 C   0  0  0  0  0  0  0  0  0  0  0  0
   37.8680   30.6840   39.2980 C   0  0  0  0  0  0  0  0  0  0  0  0
   37.6470   29.4270   38.9210 N   0  0  0  0  0  0  0  0  0  0  0  0
   36.6150   28.6970   39.3260 C   0  0  0  0  0  0  0  0  0  0  0  0
   35.7520   29.2810   40.1680 N   0  0  0  0  0  0  0  0  0  0  0  0
   38.9730   31.3710   38.8540 N   0  0  0  0  0  0  0  0  0  0  0  0
   40.0810   30.7410   38.0780 C   0  0  0  0  0  0  0  0  0  0  0  0
   40.9050   31.8870   37.5470 C   0  0  0  0  0  0  0  0  0  0  0  0
   40.6890   32.9460   38.5770 C   0  0  0  0  0  0  0  0  0  0  0  0
   39.2840   32.7530   39.0390 C   0  0  0  0  0  0  0  0  0  0  0  0
   35.1780   30.9910   41.2840 H   0  0  0  0  0  0  0  0  0  0  0  0
   40.6620   30.1150   38.7670 H   0  0  0  0  0  0  0  0  0  0  0  0
   39.5940   30.1800   37.2460 H   0  0  0  0  0  0  0  0  0  0  0  0
   40.6010   32.1780   36.5210 H   0  0  0  0  0  0  0  0  0  0  0  0
   41.9600   31.5680   37.5020 H   0  0  0  0  0  0  0  0  0  0  0  0
   41.4300   32.7660   39.3830 H   0  0  0  0  0  0  0  0  0  0  0  0
   40.8910   33.9840   38.1980 H   0  0  0  0  0  0  0  0  0  0  0  0
   39.3380   33.0680   40.1250 H   0  0  0  0  0  0  0  0  0  0  0  0
   38.6440   33.4290   38.4380 H   0  0  0  0  0  0  0  0  0  0  0  0
   36.1980   27.3160   38.9910 C   0  0  0  0  0  0  0  0  0  0  0  0
   35.3650   27.0030   37.9980 N   0  0  0  0  0  0  0  0  0  0  0  0
   34.9710   25.7810   37.6780 C   0  0  0  0  0  0  0  0  0  0  0  0
   35.4230   24.7200   38.3900 N   0  0  0  0  0  0  0  0  0  0  0  0
   36.2690   24.8940   39.4190 C   0  0  0  0  0  0  0  0  0  0  0  0
   36.7450   23.8190   40.1420 C   0  0  0  0  0  0  0  0  0  0  0  0
   37.6120   23.9810   41.1730 C   0  0  0  0  0  0  0  0  0  0  0  0
   38.0010   25.2600   41.4730 C   0  0  0  0  0  0  0  0  0  0  0  0
   37.4980   26.3190   40.7230 C   0  0  0  0  0  0  0  0  0  0  0  0
   36.6320   26.1970   39.6860 C   0  0  0  0  0  0  0  0  0  0  0  0
   34.2820   25.6090   36.8450 H   0  0  0  0  0  0  0  0  0  0  0  0
   36.3830   22.8450   39.8330 H   0  0  0  0  0  0  0  0  0  0  0  0
   37.9180   23.0780   41.6630 H   0  0  0  0  0  0  0  0  0  0  0  0
   38.0020   27.5670   41.1980 N   0  0  0  0  0  0  0  0  0  0  0  0
   38.7990   28.1790   40.9670 H   0  0  0  0  0  0  0  0  0  0  0  0
   37.3220   27.8220   41.9710 H   0  0  0  0  0  0  0  0  0  0  0  0
   38.9570   25.4300   42.6060 C   0  0  0  0  0  3  0  0  0  0  0  0
   39.6730   24.2900   43.2100 C   0  0  0  0  0  2  0  0  0  0  0  0
   40.4200   25.2890   42.3240 C   0  0  0  0  0  2  0  0  0  0  0  0
   37.0780   32.6000   40.5830 N   0  0  0  0  0  0  0  0  0  0  0  0
   36.8640   33.4730   40.0520 H   0  0  0  0  0  0  0  0  0  0  0  0
   37.3820   32.9560   41.5390 H   0  0  0  0  0  0  0  0  0  0  0  0
  1 12  1  0  0  0  0
  2 40  1  0  0  0  0
  2  1  2  0  0  0  0
  3  2  1  0  0  0  0
  4  3  2  0  0  0  0
  4  5  1  0  0  0  0
  5  6  2  0  0  0  0
  6  1  1  0  0  0  0
  7 11  1  0  0  0  0
  7  3  1  0  0  0  0
  8 13  1  0  0  0  0
  8  7  1  0  0  0  0
  9  8  1  0  0  0  0
  9 10  1  0  0  0  0
 10 11  1  0  0  0  0
 10 17  1  0  0  0  0
 11 19  1  0  0  0  0
 14  8  1  0  0  0  0
 15  9  1  0  0  0  0
 16  9  1  0  0  0  0
 18 10  1  0  0  0  0
 20 11  1  0  0  0  0
 21  5  1  0  0  0  0
 21 30  1  0  0  0  0
 22 21  2  0  0  0  0
 23 22  1  0  0  0  0
 23 24  2  0  0  0  0
 24 25  1  0  0  0  0
 25 30  2  0  0  0  0
 25 26  1  0  0  0  0
 26 27  2  0  0  0  0
 27 28  1  0  0  0  0
 27 33  1  0  0  0  0
 28 37  1  0  0  0  0
 29 34  1  0  0  0  0
 29 28  2  0  0  0  0
 30 29  1  0  0  0  0
 31 23  1  0  0  0  0
 32 26  1  0  0  0  0
 34 36  1  0  0  0  0
 35 34  1  0  0  0  0
 37 38  1  0  0  0  0
 39 37  1  0  0  0  0
 39 38  1  0  0  0  0
 40 42  1  0  0  0  0
 41 40  1  0  0  0  0
M  END
>  <minimizedAffinity>
-6.23438931

$$$$

 OpenBabel03252502103D

 42 46  0  0  0  0  0  0  0  0999 V2000
   37.2600   32.6940   40.3030 C   0  0  0  0  0  0  0  0  0  0  0  0
   38.5970   33.0720   40.4730 C   0  0  0  0  0  0  0  0  0  0  0  0
   39.5380   32.3380   39.7930 C   0  0  0  0  0  0  0  0  0  0  0  0
   39.1520   31.3280   39.0180 N   0  0  0  0  0  0  0  0  0  0  0  0
   37.8880   30.9600   38.8450 C   0  0  0  0  0  0  0  0  0  0  0  0
   36.9570   31.6630   39.5030 N   0  0  0  0  0  0  0  0  0  0  0  0
   40.8710   32.6460   39.9410 N   0  0  0  0  0  0  0  0  0  0  0  0
   41.9790   31.8020   39.4060 C   0  0  0  0  0  0  0  0  0  0  0  0
   43.2220   32.6470   39.5200 C   0  0  0  0  0  0  0  0  0  0  0  0
   42.9130   33.5210   40.6910 C   0  0  0  0  0  0  0  0  0  0  0  0
   41.4450   33.7710   40.6090 C   0  0  0  0  0  0  0  0  0  0  0  0
   36.4770   33.2490   40.8280 H   0  0  0  0  0  0  0  0  0  0  0  0
   42.0470   30.9010   40.0300 H   0  0  0  0  0  0  0  0  0  0  0  0
   41.7270   31.6040   38.3380 H   0  0  0  0  0  0  0  0  0  0  0  0
   43.4380   33.1980   38.5830 H   0  0  0  0  0  0  0  0  0  0  0  0
   44.0800   31.9820   39.7200 H   0  0  0  0  0  0  0  0  0  0  0  0
   43.1980   32.9520   41.6000 H   0  0  0  0  0  0  0  0  0  0  0  0
   43.5220   34.4650   40.7140 H   0  0  0  0  0  0  0  0  0  0  0  0
   41.1500   33.8550   41.6980 H   0  0  0  0  0  0  0  0  0  0  0  0
   41.3030   34.7230   40.0600 H   0  0  0  0  0  0  0  0  0  0  0  0
   37.2810   29.9000   38.0090 C   0  0  0  0  0  0  0  0  0  0  0  0
   36.8780   30.0750   36.7500 N   0  0  0  0  0  0  0  0  0  0  0  0
   36.3270   29.1500   35.9810 C   0  0  0  0  0  0  0  0  0  0  0  0
   36.1310   27.9000   36.4670 N   0  0  0  0  0  0  0  0  0  0  0  0
   36.4920   27.5870   37.7220 C   0  0  0  0  0  0  0  0  0  0  0  0
   36.3100   26.3130   38.2220 C   0  0  0  0  0  0  0  0  0  0  0  0
   36.6840   25.9820   39.4830 C   0  0  0  0  0  0  0  0  0  0  0  0
   37.2540   26.9640   40.2490 C   0  0  0  0  0  0  0  0  0  0  0  0
   37.4200   28.2370   39.7120 C   0  0  0  0  0  0  0  0  0  0  0  0
   37.0600   28.6060   38.4570 C   0  0  0  0  0  0  0  0  0  0  0  0
   36.0230   29.3750   34.9540 H   0  0  0  0  0  0  0  0  0  0  0  0
   35.8510   25.6020   37.5440 H   0  0  0  0  0  0  0  0  0  0  0  0
   36.4970   24.9650   39.7660 H   0  0  0  0  0  0  0  0  0  0  0  0
   38.0100   29.1210   40.6650 N   0  0  0  0  0  0  0  0  0  0  0  0
   38.9660   29.4250   40.8980 H   0  0  0  0  0  0  0  0  0  0  0  0
   37.1720   29.4840   41.2050 H   0  0  0  0  0  0  0  0  0  0  0  0
   37.6660   26.5910   41.6340 C   0  0  0  0  0  3  0  0  0  0  0  0
   36.7320   26.6490   42.7760 C   0  0  0  0  0  2  0  0  0  0  0  0
   37.1630   25.2990   42.1970 C   0  0  0  0  0  2  0  0  0  0  0  0
   38.8580   34.1610   41.2620 N   0  0  0  0  0  0  0  0  0  0  0  0
   39.1160   35.1290   40.9700 H   0  0  0  0  0  0  0  0  0  0  0  0
   38.8450   34.2160   42.3250 H   0  0  0  0  0  0  0  0  0  0  0  0
  1  2  1  0  0  0  0
  1 12  1  0  0  0  0
  2 40  1  0  0  0  0
  3  7  1  0  0  0  0
  3  2  2  0  0  0  0
  4  3  1  0  0  0  0
  5  4  2  0  0  0  0
  5  6  1  0  0  0  0
  6  1  2  0  0  0  0
  7 11  1  0  0  0  0
  8  9  1  0  0  0  0
  8  7  1  0  0  0  0
  8 13  1  0  0  0  0
  9 16  1  0  0  0  0
  9 10  1  0  0  0  0
 10 18  1  0  0  0  0
 10 17  1  0  0  0  0
 11 10  1  0  0  0  0
 11 19  1  0  0  0  0
 14  8  1  0  0  0  0
 15  9  1  0  0  0  0
 20 11  1  0  0  0  0
 21 30  1  0  0  0  0
 21  5  1  0  0  0  0
 22 21  2  0  0  0  0
 23 24  2  0  0  0  0
 23 22  1  0  0  0  0
 24 25  1  0  0  0  0
 25 26  2  0  0  0  0
 25 30  1  0  0  0  0
 26 27  1  0  0  0  0
 27 33  1  0  0  0  0
 27 28  2  0  0  0  0
 28 37  1  0  0  0  0
 29 28  1  0  0  0  0
 29 34  1  0  0  0  0
 30 29  2  0  0  0  0
 31 23  1  0  0  0  0
 32 26  1  0  0  0  0
 34 35  1  0  0  0  0
 34 36  1  0  0  0  0
 37 39  1  0  0  0  0
 37 38  1  0  0  0  0
 39 38  1  0  0  0  0
 40 42  1  0  0  0  0
 41 40  1  0  0  0  0
M  END
>  <minimizedAffinity>
-6.09500647

$$$$

 OpenBabel03252502103D

 42 46  0  0  0  0  0  0  0  0999 V2000
   40.5200   32.9290   38.6700 C   0  0  0  0  0  0  0  0  0  0  0  0
   41.4480   32.3090   37.8260 C   0  0  0  0  0  0  0  0  0  0  0  0
   41.5990   30.9500   37.9660 C   0  0  0  0  0  0  0  0  0  0  0  0
   40.8740   30.2960   38.8700 N   0  0  0  0  0  0  0  0  0  0  0  0
   39.9890   30.8710   39.6750 C   0  0  0  0  0  0  0  0  0  0  0  0
   39.8310   32.1960   39.5550 N   0  0  0  0  0  0  0  0  0  0  0  0
   42.5150   30.2880   37.1820 N   0  0  0  0  0  0  0  0  0  0  0  0
   42.8950   28.8590   37.3820 C   0  0  0  0  0  0  0  0  0  0  0  0
   43.6670   28.4700   36.1470 C   0  0  0  0  0  0  0  0  0  0  0  0
   44.2760   29.7660   35.7240 C   0  0  0  0  0  0  0  0  0  0  0  0
   43.2620   30.8010   36.0780 C   0  0  0  0  0  0  0  0  0  0  0  0
   40.3700   34.0100   38.5950 H   0  0  0  0  0  0  0  0  0  0  0  0
   43.5200   28.7990   38.2820 H   0  0  0  0  0  0  0  0  0  0  0  0
   41.9360   28.2920   37.4480 H   0  0  0  0  0  0  0  0  0  0  0  0
   43.0190   27.9980   35.3820 H   0  0  0  0  0  0  0  0  0  0  0  0
   44.4350   27.7310   36.4330 H   0  0  0  0  0  0  0  0  0  0  0  0
   45.2190   29.8810   36.2970 H   0  0  0  0  0  0  0  0  0  0  0  0
   44.5690   29.7870   34.6400 H   0  0  0  0  0  0  0  0  0  0  0  0
   43.9060   31.6950   36.3380 H   0  0  0  0  0  0  0  0  0  0  0  0
   42.6430   30.9780   35.1770 H   0  0  0  0  0  0  0  0  0  0  0  0
   39.0830   30.3060   40.7010 C   0  0  0  0  0  0  0  0  0  0  0  0
   39.3890   30.2010   41.9960 N   0  0  0  0  0  0  0  0  0  0  0  0
   38.6030   29.6960   42.9330 C   0  0  0  0  0  0  0  0  0  0  0  0
   37.3740   29.2320   42.6050 N   0  0  0  0  0  0  0  0  0  0  0  0
   36.9400   29.2790   41.3350 C   0  0  0  0  0  0  0  0  0  0  0  0
   35.6830   28.8200   40.9920 C   0  0  0  0  0  0  0  0  0  0  0  0
   35.2280   28.8760   39.7150 C   0  0  0  0  0  0  0  0  0  0  0  0
   36.0660   29.4080   38.7700 C   0  0  0  0  0  0  0  0  0  0  0  0
   37.3270   29.8580   39.1540 C   0  0  0  0  0  0  0  0  0  0  0  0
   37.8160   29.8190   40.4180 C   0  0  0  0  0  0  0  0  0  0  0  0
   38.9300   29.6450   43.9780 H   0  0  0  0  0  0  0  0  0  0  0  0
   35.0900   28.4160   41.8050 H   0  0  0  0  0  0  0  0  0  0  0  0
   34.2380   28.4950   39.5620 H   0  0  0  0  0  0  0  0  0  0  0  0
   38.0540   30.3560   38.0320 N   0  0  0  0  0  0  0  0  0  0  0  0
   38.1940   31.2770   37.5900 H   0  0  0  0  0  0  0  0  0  0  0  0
   38.5120   29.4840   37.6360 H   0  0  0  0  0  0  0  0  0  0  0  0
   35.5580   29.4690   37.3690 C   0  0  0  0  0  3  0  0  0  0  0  0
   35.3920   28.2600   36.5380 C   0  0  0  0  0  2  0  0  0  0  0  0
   34.1670   28.9850   37.1000 C   0  0  0  0  0  2  0  0  0  0  0  0
   42.0960   33.0880   36.9050 N   0  0  0  0  0  0  0  0  0  0  0  0
   41.9230   33.1610   35.8790 H   0  0  0  0  0  0  0  0  0  0  0  0
   42.9000   33.7650   37.0730 H   0  0  0  0  0  0  0  0  0  0  0  0
  1  6  1  0  0  0  0
  2  3  1  0  0  0  0
  2  1  2  0  0  0  0
  3  4  2  0  0  0  0
  4  5  1  0  0  0  0
  5 21  1  0  0  0  0
  6  5  2  0  0  0  0
  7  8  1  0  0  0  0
  7  3  1  0  0  0  0
  8 14  1  0  0  0  0
  8 13  1  0  0  0  0
  9 16  1  0  0  0  0
  9  8  1  0  0  0  0
 10 11  1  0  0  0  0
 10  9  1  0  0  0  0
 10 17  1  0  0  0  0
 11 19  1  0  0  0  0
 11  7  1  0  0  0  0
 12  1  1  0  0  0  0
 15  9  1  0  0  0  0
 18 10  1  0  0  0  0
 20 11  1  0  0  0  0
 21 22  1  0  0  0  0
 22 23  2  0  0  0  0
 23 31  1  0  0  0  0
 24 23  1  0  0  0  0
 25 24  2  0  0  0  0
 26 25  1  0  0  0  0
 26 32  1  0  0  0  0
 27 26  2  0  0  0  0
 28 29  2  0  0  0  0
 28 27  1  0  0  0  0
 29 30  1  0  0  0  0
 30 21  2  0  0  0  0
 30 25  1  0  0  0  0
 33 27  1  0  0  0  0
 34 29  1  0  0  0  0
 35 34  1  0  0  0  0
 36 34  1  0  0  0  0
 37 28  1  0  0  0  0
 38 39  1  0  0  0  0
 38 37  1  0  0  0  0
 39 37  1  0  0  0  0
 40 42  1  0  0  0  0
 40  2  1  0  0  0  0
 41 40  1  0  0  0  0
M  END
>  <minimizedAffinity>
-6.01209116

$$$$

 OpenBabel03252502103D

 42 46  0  0  0  0  0  0  0  0999 V2000
   36.1990   30.7780   41.0900 C   0  0  0  0  0  0  0  0  0  0  0  0
   37.2240   31.5370   40.5120 C   0  0  0  0  0  0  0  0  0  0  0  0
   38.3430   30.8530   40.1010 C   0  0  0  0  0  0  0  0  0  0  0  0
   38.4030   29.5330   40.2600 N   0  0  0  0  0  0  0  0  0  0  0  0
   37.4380   28.8010   40.8030 C   0  0  0  0  0  0  0  0  0  0  0  0
   36.3410   29.4520   41.2130 N   0  0  0  0  0  0  0  0  0  0  0  0
   39.3940   31.5470   39.5490 N   0  0  0  0  0  0  0  0  0  0  0  0
   40.7210   30.9350   39.2480 C   0  0  0  0  0  0  0  0  0  0  0  0
   41.4450   31.9430   38.3930 C   0  0  0  0  0  0  0  0  0  0  0  0
   40.8610   33.2380   38.8520 C   0  0  0  0  0  0  0  0  0  0  0  0
   39.4400   32.9260   39.1780 C   0  0  0  0  0  0  0  0  0  0  0  0
   35.2910   31.2820   41.4340 H   0  0  0  0  0  0  0  0  0  0  0  0
   41.2400   30.7710   40.2010 H   0  0  0  0  0  0  0  0  0  0  0  0
   40.5080   30.0040   38.6730 H   0  0  0  0  0  0  0  0  0  0  0  0
   41.3140   31.7420   37.3100 H   0  0  0  0  0  0  0  0  0  0  0  0
   42.5250   31.8790   38.6130 H   0  0  0  0  0  0  0  0  0  0  0  0
   41.4420   33.5540   39.7440 H   0  0  0  0  0  0  0  0  0  0  0  0
   40.9710   34.0680   38.1030 H   0  0  0  0  0  0  0  0  0  0  0  0
   39.2220   33.6360   40.0310 H   0  0  0  0  0  0  0  0  0  0  0  0
   38.8370   33.1550   38.2770 H   0  0  0  0  0  0  0  0  0  0  0  0
   37.3200   27.3420   41.0260 C   0  0  0  0  0  0  0  0  0  0  0  0
   37.7520   26.7130   42.1200 N   0  0  0  0  0  0  0  0  0  0  0  0
   37.6650   25.4120   42.3450 C   0  0  0  0  0  0  0  0  0  0  0  0
   37.0990   24.6040   41.4160 N   0  0  0  0  0  0  0  0  0  0  0  0
   36.6220   25.1090   40.2670 C   0  0  0  0  0  0  0  0  0  0  0  0
   36.0320   24.2950   39.3200 C   0  0  0  0  0  0  0  0  0  0  0  0
   35.5330   24.7960   38.1620 C   0  0  0  0  0  0  0  0  0  0  0  0
   35.6360   26.1480   37.9640 C   0  0  0  0  0  0  0  0  0  0  0  0
   36.2400   26.9350   38.9400 C   0  0  0  0  0  0  0  0  0  0  0  0
   36.7490   26.4720   40.1090 C   0  0  0  0  0  0  0  0  0  0  0  0
   38.0460   24.9720   43.2730 H   0  0  0  0  0  0  0  0  0  0  0  0
   35.9940   23.2390   39.5620 H   0  0  0  0  0  0  0  0  0  0  0  0
   35.0950   24.0750   37.5000 H   0  0  0  0  0  0  0  0  0  0  0  0
   36.2700   28.3060   38.5450 N   0  0  0  0  0  0  0  0  0  0  0  0
   35.6670   29.1300   38.6840 H   0  0  0  0  0  0  0  0  0  0  0  0
   37.1630   28.3710   37.9740 H   0  0  0  0  0  0  0  0  0  0  0  0
   35.0820   26.6920   36.6890 C   0  0  0  0  0  3  0  0  0  0  0  0
   34.3220   25.8540   35.7410 C   0  0  0  0  0  2  0  0  0  0  0  0
   33.6030   26.9020   36.5950 C   0  0  0  0  0  2  0  0  0  0  0  0
   37.0180   32.8830   40.3630 N   0  0  0  0  0  0  0  0  0  0  0  0
   36.7820   33.4120   39.4960 H   0  0  0  0  0  0  0  0  0  0  0  0
   37.0620   33.6370   41.1130 H   0  0  0  0  0  0  0  0  0  0  0  0
  1  6  1  0  0  0  0
  1 12  1  0  0  0  0
  2  1  2  0  0  0  0
  3  4  2  0  0  0  0
  3  2  1  0  0  0  0
  4  5  1  0  0  0  0
  5 21  1  0  0  0  0
  5  6  2  0  0  0  0
  7  3  1  0  0  0  0
  8  7  1  0  0  0  0
  8 13  1  0  0  0  0
  9 16  1  0  0  0  0
  9 10  1  0  0  0  0
  9  8  1  0  0  0  0
 10 11  1  0  0  0  0
 10 17  1  0  0  0  0
 11  7  1  0  0  0  0
 11 19  1  0  0  0  0
 14  8  1  0  0  0  0
 15  9  1  0  0  0  0
 18 10  1  0  0  0  0
 20 11  1  0  0  0  0
 21 22  1  0  0  0  0
 22 23  2  0  0  0  0
 23 31  1  0  0  0  0
 24 23  1  0  0  0  0
 25 24  2  0  0  0  0
 26 32  1  0  0  0  0
 26 25  1  0  0  0  0
 27 26  2  0  0  0  0
 28 27  1  0  0  0  0
 28 29  2  0  0  0  0
 29 30  1  0  0  0  0
 30 25  1  0  0  0  0
 30 21  2  0  0  0  0
 33 27  1  0  0  0  0
 34 35  1  0  0  0  0
 34 29  1  0  0  0  0
 36 34  1  0  0  0  0
 37 28  1  0  0  0  0
 38 39  1  0  0  0  0
 38 37  1  0  0  0  0
 39 37  1  0  0  0  0
 40  2  1  0  0  0  0
 40 42  1  0  0  0  0
 41 40  1  0  0  0  0
M  END
>  <minimizedAffinity>
-6.00322866

$$$$

 OpenBabel03252502103D

 42 46  0  0  0  0  0  0  0  0999 V2000
   37.8480   31.3920   38.5690 C   0  0  0  0  0  0  0  0  0  0  0  0
   39.1250   31.5230   38.0100 C   0  0  0  0  0  0  0  0  0  0  0  0
   40.1420   30.8330   38.6240 C   0  0  0  0  0  0  0  0  0  0  0  0
   39.8800   30.0860   39.6930 N   0  0  0  0  0  0  0  0  0  0  0  0
   38.6740   29.9500   40.2320 C   0  0  0  0  0  0  0  0  0  0  0  0
   37.6700   30.6190   39.6480 N   0  0  0  0  0  0  0  0  0  0  0  0
   41.4230   30.9430   38.1350 N   0  0  0  0  0  0  0  0  0  0  0  0
   42.6240   30.3960   38.8330 C   0  0  0  0  0  0  0  0  0  0  0  0
   43.7420   30.4650   37.8250 C   0  0  0  0  0  0  0  0  0  0  0  0
   43.3440   31.6270   36.9770 C   0  0  0  0  0  0  0  0  0  0  0  0
   41.8540   31.5770   36.9290 C   0  0  0  0  0  0  0  0  0  0  0  0
   37.0090   31.9270   38.1140 H   0  0  0  0  0  0  0  0  0  0  0  0
   42.8270   31.0340   39.7020 H   0  0  0  0  0  0  0  0  0  0  0  0
   42.3780   29.3380   39.0850 H   0  0  0  0  0  0  0  0  0  0  0  0
   43.8610   29.5130   37.2700 H   0  0  0  0  0  0  0  0  0  0  0  0
   44.6870   30.6550   38.3630 H   0  0  0  0  0  0  0  0  0  0  0  0
   43.7230   32.5390   37.4820 H   0  0  0  0  0  0  0  0  0  0  0  0
   43.8190   31.6190   35.9590 H   0  0  0  0  0  0  0  0  0  0  0  0
   41.5740   32.6710   36.8630 H   0  0  0  0  0  0  0  0  0  0  0  0
   41.5720   31.0150   36.0170 H   0  0  0  0  0  0  0  0  0  0  0  0
   38.1980   29.1490   41.3810 C   0  0  0  0  0  0  0  0  0  0  0  0
   38.1160   29.6050   42.6320 N   0  0  0  0  0  0  0  0  0  0  0  0
   37.6990   28.9110   43.6790 C   0  0  0  0  0  0  0  0  0  0  0  0
   37.3130   27.6220   43.5230 N   0  0  0  0  0  0  0  0  0  0  0  0
   37.3460   27.0370   42.3140 C   0  0  0  0  0  0  0  0  0  0  0  0
   36.9410   25.7280   42.1420 C   0  0  0  0  0  0  0  0  0  0  0  0
   36.9560   25.1320   40.9230 C   0  0  0  0  0  0  0  0  0  0  0  0
   37.3890   25.8820   39.8610 C   0  0  0  0  0  0  0  0  0  0  0  0
   37.7910   27.1970   40.0740 C   0  0  0  0  0  0  0  0  0  0  0  0
   37.7900   27.8270   41.2750 C   0  0  0  0  0  0  0  0  0  0  0  0
   37.6620   29.3610   44.6770 H   0  0  0  0  0  0  0  0  0  0  0  0
   36.6150   25.2140   43.0390 H   0  0  0  0  0  0  0  0  0  0  0  0
   36.6190   24.1150   40.9050 H   0  0  0  0  0  0  0  0  0  0  0  0
   38.2250   27.8020   38.8560 N   0  0  0  0  0  0  0  0  0  0  0  0
   37.7880   28.3740   38.1190 H   0  0  0  0  0  0  0  0  0  0  0  0
   39.2470   27.5240   38.8010 H   0  0  0  0  0  0  0  0  0  0  0  0
   37.3990   25.2200   38.5230 C   0  0  0  0  0  3  0  0  0  0  0  0
   36.9130   23.8410   38.3240 C   0  0  0  0  0  2  0  0  0  0  0  0
   36.0920   25.0300   37.8190 C   0  0  0  0  0  2  0  0  0  0  0  0
   39.2530   32.2860   36.8790 N   0  0  0  0  0  0  0  0  0  0  0  0
   39.3700   31.9700   35.8920 H   0  0  0  0  0  0  0  0  0  0  0  0
   39.2560   33.3480   36.8050 H   0  0  0  0  0  0  0  0  0  0  0  0
  1  6  1  0  0  0  0
  2  1  2  0  0  0  0
  2  3  1  0  0  0  0
  3  4  2  0  0  0  0
  4  5  1  0  0  0  0
  5 21  1  0  0  0  0
  6  5  2  0  0  0  0
  7  3  1  0  0  0  0
  7  8  1  0  0  0  0
  8 14  1  0  0  0  0
  8 13  1  0  0  0  0
  9 16  1  0  0  0  0
  9  8  1  0  0  0  0
 10 17  1  0  0  0  0
 10  9  1  0  0  0  0
 11 10  1  0  0  0  0
 11  7  1  0  0  0  0
 12  1  1  0  0  0  0
 15  9  1  0  0  0  0
 18 10  1  0  0  0  0
 19 11  1  0  0  0  0
 20 11  1  0  0  0  0
 21 22  1  0  0  0  0
 22 23  2  0  0  0  0
 23 31  1  0  0  0  0
 24 23  1  0  0  0  0
 25 24  2  0  0  0  0
 26 25  1  0  0  0  0
 26 32  1  0  0  0  0
 27 26  2  0  0  0  0
 28 29  2  0  0  0  0
 28 27  1  0  0  0  0
 29 30  1  0  0  0  0
 30 21  2  0  0  0  0
 30 25  1  0  0  0  0
 33 27  1  0  0  0  0
 34 29  1  0  0  0  0
 35 34  1  0  0  0  0
 36 34  1  0  0  0  0
 37 28  1  0  0  0  0
 38 37  1  0  0  0  0
 39 38  1  0  0  0  0
 39 37  1  0  0  0  0
 40  2  1  0  0  0  0
 41 40  1  0  0  0  0
 42 40  1  0  0  0  0
M  END
>  <minimizedAffinity>
-5.96831989

$$$$

 OpenBabel03252502103D

 42 46  0  0  0  0  0  0  0  0999 V2000
   36.6950   30.0890   38.1580 C   0  0  0  0  0  0  0  0  0  0  0  0
   36.5120   29.4220   39.3750 C   0  0  0  0  0  0  0  0  0  0  0  0
   37.6060   29.3310   40.2020 C   0  0  0  0  0  0  0  0  0  0  0  0
   38.7620   29.8710   39.8260 N   0  0  0  0  0  0  0  0  0  0  0  0
   38.9500   30.5090   38.6760 C   0  0  0  0  0  0  0  0  0  0  0  0
   37.8950   30.6030   37.8560 N   0  0  0  0  0  0  0  0  0  0  0  0
   37.4930   28.6650   41.4000 N   0  0  0  0  0  0  0  0  0  0  0  0
   38.6550   28.3430   42.2790 C   0  0  0  0  0  0  0  0  0  0  0  0
   38.0590   27.9010   43.5910 C   0  0  0  0  0  0  0  0  0  0  0  0
   36.7480   27.3230   43.1720 C   0  0  0  0  0  0  0  0  0  0  0  0
   36.3090   28.1590   42.0180 C   0  0  0  0  0  0  0  0  0  0  0  0
   35.8520   30.1820   37.4680 H   0  0  0  0  0  0  0  0  0  0  0  0
   39.2230   27.5340   41.8030 H   0  0  0  0  0  0  0  0  0  0  0  0
   39.2230   29.2960   42.3990 H   0  0  0  0  0  0  0  0  0  0  0  0
   37.9790   28.7370   44.3150 H   0  0  0  0  0  0  0  0  0  0  0  0
   38.7200   27.1380   44.0360 H   0  0  0  0  0  0  0  0  0  0  0  0
   36.9380   26.2680   42.8860 H   0  0  0  0  0  0  0  0  0  0  0  0
   35.9920   27.2850   44.0030 H   0  0  0  0  0  0  0  0  0  0  0  0
   35.7420   27.4160   41.3790 H   0  0  0  0  0  0  0  0  0  0  0  0
   35.6510   28.9550   42.4180 H   0  0  0  0  0  0  0  0  0  0  0  0
   40.1380   31.1890   38.1150 C   0  0  0  0  0  0  0  0  0  0  0  0
   40.3760   32.4980   38.2220 N   0  0  0  0  0  0  0  0  0  0  0  0
   41.4250   33.1330   37.7270 C   0  0  0  0  0  0  0  0  0  0  0  0
   42.3690   32.4440   37.0410 N   0  0  0  0  0  0  0  0  0  0  0  0
   42.2530   31.1190   36.8590 C   0  0  0  0  0  0  0  0  0  0  0  0
   43.2160   30.4050   36.1730 C   0  0  0  0  0  0  0  0  0  0  0  0
   43.1180   29.0630   35.9960 C   0  0  0  0  0  0  0  0  0  0  0  0
   42.0200   28.4370   36.5250 C   0  0  0  0  0  0  0  0  0  0  0  0
   41.0690   29.1900   37.2080 C   0  0  0  0  0  0  0  0  0  0  0  0
   41.1330   30.5310   37.4060 C   0  0  0  0  0  0  0  0  0  0  0  0
   41.5460   34.2140   37.8600 H   0  0  0  0  0  0  0  0  0  0  0  0
   44.0490   30.9840   35.7900 H   0  0  0  0  0  0  0  0  0  0  0  0
   43.9220   28.6120   35.4500 H   0  0  0  0  0  0  0  0  0  0  0  0
   39.9970   28.3670   37.6660 N   0  0  0  0  0  0  0  0  0  0  0  0
   39.7740   27.8570   38.5330 H   0  0  0  0  0  0  0  0  0  0  0  0
   39.3420   28.3400   36.8310 H   0  0  0  0  0  0  0  0  0  0  0  0
   41.9200   26.9610   36.3290 C   0  0  0  0  0  3  0  0  0  0  0  0
   42.9670   26.1870   35.6330 C   0  0  0  0  0  2  0  0  0  0  0  0
   42.8050   26.0780   37.1510 C   0  0  0  0  0  2  0  0  0  0  0  0
   35.2580   28.9530   39.6640 N   0  0  0  0  0  0  0  0  0  0  0  0
   34.5500   29.3510   40.3190 H   0  0  0  0  0  0  0  0  0  0  0  0
   34.7760   28.0890   39.2700 H   0  0  0  0  0  0  0  0  0  0  0  0
  1  2  1  0  0  0  0
  2 40  1  0  0  0  0
  2  3  2  0  0  0  0
  3  7  1  0  0  0  0
  4  3  1  0  0  0  0
  5  4  2  0  0  0  0
  6  1  2  0  0  0  0
  6  5  1  0  0  0  0
  7 11  1  0  0  0  0
  7  8  1  0  0  0  0
  8 14  1  0  0  0  0
  8  9  1  0  0  0  0
  9 16  1  0  0  0  0
  9 15  1  0  0  0  0
 10  9  1  0  0  0  0
 10 18  1  0  0  0  0
 11 20  1  0  0  0  0
 11 10  1  0  0  0  0
 12  1  1  0  0  0  0
 13  8  1  0  0  0  0
 17 10  1  0  0  0  0
 19 11  1  0  0  0  0
 21 22  1  0  0  0  0
 21  5  1  0  0  0  0
 23 31  1  0  0  0  0
 23 22  2  0  0  0  0
 24 23  1  0  0  0  0
 25 24  2  0  0  0  0
 25 30  1  0  0  0  0
 26 25  1  0  0  0  0
 27 26  2  0  0  0  0
 27 28  1  0  0  0  0
 28 29  2  0  0  0  0
 29 30  1  0  0  0  0
 29 34  1  0  0  0  0
 30 21  2  0  0  0  0
 32 26  1  0  0  0  0
 33 27  1  0  0  0  0
 34 35  1  0  0  0  0
 36 34  1  0  0  0  0
 37 28  1  0  0  0  0
 37 39  1  0  0  0  0
 38 37  1  0  0  0  0
 38 39  1  0  0  0  0
 40 41  1  0  0  0  0
 42 40  1  0  0  0  0
M  END
>  <minimizedAffinity>
-5.79517984

$$$$

 OpenBabel03252502103D

 42 46  0  0  0  0  0  0  0  0999 V2000
   36.9240   28.5390   39.5690 C   0  0  0  0  0  0  0  0  0  0  0  0
   37.4120   27.5240   40.4000 C   0  0  0  0  0  0  0  0  0  0  0  0
   38.5200   27.8240   41.1560 C   0  0  0  0  0  0  0  0  0  0  0  0
   39.0660   29.0350   41.0740 N   0  0  0  0  0  0  0  0  0  0  0  0
   38.6110   30.0070   40.2930 C   0  0  0  0  0  0  0  0  0  0  0  0
   37.5340   29.7310   39.5450 N   0  0  0  0  0  0  0  0  0  0  0  0
   39.0610   26.8590   41.9730 N   0  0  0  0  0  0  0  0  0  0  0  0
   40.3630   27.0130   42.6850 C   0  0  0  0  0  0  0  0  0  0  0  0
   40.4160   25.8820   43.6800 C   0  0  0  0  0  0  0  0  0  0  0  0
   39.5950   24.8270   43.0150 C   0  0  0  0  0  0  0  0  0  0  0  0
   38.5270   25.5710   42.2880 C   0  0  0  0  0  0  0  0  0  0  0  0
   36.0460   28.3430   38.9470 H   0  0  0  0  0  0  0  0  0  0  0  0
   41.1660   26.9310   41.9410 H   0  0  0  0  0  0  0  0  0  0  0  0
   40.3150   28.0000   43.2030 H   0  0  0  0  0  0  0  0  0  0  0  0
   40.0450   26.1890   44.6790 H   0  0  0  0  0  0  0  0  0  0  0  0
   41.4680   25.5690   43.7980 H   0  0  0  0  0  0  0  0  0  0  0  0
   40.2720   24.2770   42.3300 H   0  0  0  0  0  0  0  0  0  0  0  0
   39.1910   24.0610   43.7310 H   0  0  0  0  0  0  0  0  0  0  0  0
   38.3470   24.9180   41.3820 H   0  0  0  0  0  0  0  0  0  0  0  0
   37.6440   25.6170   42.9540 H   0  0  0  0  0  0  0  0  0  0  0  0
   39.0640   31.4030   40.1000 C   0  0  0  0  0  0  0  0  0  0  0  0
   38.6000   32.4450   40.7920 N   0  0  0  0  0  0  0  0  0  0  0  0
   38.9810   33.7030   40.6390 C   0  0  0  0  0  0  0  0  0  0  0  0
   39.9190   34.0150   39.7120 N   0  0  0  0  0  0  0  0  0  0  0  0
   40.4700   33.0590   38.9450 C   0  0  0  0  0  0  0  0  0  0  0  0
   41.4360   33.3650   38.0070 C   0  0  0  0  0  0  0  0  0  0  0  0
   42.0110   32.4060   37.2370 C   0  0  0  0  0  0  0  0  0  0  0  0
   41.5940   31.1140   37.4260 C   0  0  0  0  0  0  0  0  0  0  0  0
   40.6170   30.8450   38.3800 C   0  0  0  0  0  0  0  0  0  0  0  0
   40.0200   31.7750   39.1670 C   0  0  0  0  0  0  0  0  0  0  0  0
   38.5500   34.5030   41.2500 H   0  0  0  0  0  0  0  0  0  0  0  0
   41.7020   34.4130   37.9280 H   0  0  0  0  0  0  0  0  0  0  0  0
   42.7490   32.7550   36.5440 H   0  0  0  0  0  0  0  0  0  0  0  0
   40.3050   29.4530   38.4130 N   0  0  0  0  0  0  0  0  0  0  0  0
   40.6260   28.6360   38.9530 H   0  0  0  0  0  0  0  0  0  0  0  0
   39.5640   29.3550   37.6600 H   0  0  0  0  0  0  0  0  0  0  0  0
   42.2330   30.0650   36.5780 C   0  0  0  0  0  3  0  0  0  0  0  0
   43.4090   30.3460   35.7310 C   0  0  0  0  0  2  0  0  0  0  0  0
   43.5580   29.5180   37.0090 C   0  0  0  0  0  2  0  0  0  0  0  0
   36.7300   26.3360   40.4270 N   0  0  0  0  0  0  0  0  0  0  0  0
   36.0830   25.9750   41.1620 H   0  0  0  0  0  0  0  0  0  0  0  0
   36.7390   25.5610   39.6980 H   0  0  0  0  0  0  0  0  0  0  0  0
  1  2  1  0  0  0  0
  2 40  1  0  0  0  0
  2  3  2  0  0  0  0
  3  7  1  0  0  0  0
  4  3  1  0  0  0  0
  5  4  2  0  0  0  0
  6  1  2  0  0  0  0
  6  5  1  0  0  0  0
  7 11  1  0  0  0  0
  7  8  1  0  0  0  0
  8 14  1  0  0  0  0
  8  9  1  0  0  0  0
  9 16  1  0  0  0  0
  9 15  1  0  0  0  0
 10  9  1  0  0  0  0
 10 18  1  0  0  0  0
 11 20  1  0  0  0  0
 11 10  1  0  0  0  0
 12  1  1  0  0  0  0
 13  8  1  0  0  0  0
 17 10  1  0  0  0  0
 19 11  1  0  0  0  0
 21  5  1  0  0  0  0
 21 22  1  0  0  0  0
 23 22  2  0  0  0  0
 23 31  1  0  0  0  0
 24 23  1  0  0  0  0
 25 30  1  0  0  0  0
 25 24  2  0  0  0  0
 26 25  1  0  0  0  0
 27 28  1  0  0  0  0
 27 26  2  0  0  0  0
 28 29  2  0  0  0  0
 29 34  1  0  0  0  0
 29 30  1  0  0  0  0
 30 21  2  0  0  0  0
 32 26  1  0  0  0  0
 33 27  1  0  0  0  0
 34 35  1  0  0  0  0
 36 34  1  0  0  0  0
 37 39  1  0  0  0  0
 37 28  1  0  0  0  0
 38 37  1  0  0  0  0
 38 39  1  0  0  0  0
 40 41  1  0  0  0  0
 42 40  1  0  0  0  0
M  END
>  <minimizedAffinity>
-5.78406525

$$$$

 OpenBabel03252502103D

 42 46  0  0  0  0  0  0  0  0999 V2000
   38.6860   28.9150   36.5080 C   0  0  0  0  0  0  0  0  0  0  0  0
   37.3810   28.8460   36.0060 C   0  0  0  0  0  0  0  0  0  0  0  0
   36.3630   29.0910   36.8960 C   0  0  0  0  0  0  0  0  0  0  0  0
   36.6500   29.3810   38.1620 N   0  0  0  0  0  0  0  0  0  0  0  0
   37.8830   29.4530   38.6510 C   0  0  0  0  0  0  0  0  0  0  0  0
   38.8880   29.2130   37.7980 N   0  0  0  0  0  0  0  0  0  0  0  0
   35.0580   29.0130   36.4670 N   0  0  0  0  0  0  0  0  0  0  0  0
   33.8820   29.0710   37.3840 C   0  0  0  0  0  0  0  0  0  0  0  0
   32.6830   29.2570   36.4910 C   0  0  0  0  0  0  0  0  0  0  0  0
   33.1140   28.5930   35.2250 C   0  0  0  0  0  0  0  0  0  0  0  0
   34.5780   28.8580   35.1300 C   0  0  0  0  0  0  0  0  0  0  0  0
   39.5270   28.7230   35.8350 H   0  0  0  0  0  0  0  0  0  0  0  0
   33.8330   28.1190   37.9280 H   0  0  0  0  0  0  0  0  0  0  0  0
   34.0410   29.9650   38.0320 H   0  0  0  0  0  0  0  0  0  0  0  0
   32.4110   30.3260   36.3760 H   0  0  0  0  0  0  0  0  0  0  0  0
   31.8200   28.7440   36.9500 H   0  0  0  0  0  0  0  0  0  0  0  0
   32.8840   27.5130   35.3350 H   0  0  0  0  0  0  0  0  0  0  0  0
   32.5430   28.9390   34.3220 H   0  0  0  0  0  0  0  0  0  0  0  0
   34.9630   27.9280   34.6120 H   0  0  0  0  0  0  0  0  0  0  0  0
   34.7090   29.7670   34.5120 H   0  0  0  0  0  0  0  0  0  0  0  0
   38.3840   29.7890   40.0020 C   0  0  0  0  0  0  0  0  0  0  0  0
   38.7010   31.0220   40.4000 N   0  0  0  0  0  0  0  0  0  0  0  0
   39.1560   31.3510   41.5980 C   0  0  0  0  0  0  0  0  0  0  0  0
   39.3360   30.3920   42.5380 N   0  0  0  0  0  0  0  0  0  0  0  0
   39.0550   29.1070   42.2690 C   0  0  0  0  0  0  0  0  0  0  0  0
   39.2210   28.1240   43.2250 C   0  0  0  0  0  0  0  0  0  0  0  0
   38.9260   26.8240   42.9690 C   0  0  0  0  0  0  0  0  0  0  0  0
   38.4530   26.5200   41.7190 C   0  0  0  0  0  0  0  0  0  0  0  0
   38.3010   27.5380   40.7810 C   0  0  0  0  0  0  0  0  0  0  0  0
   38.5840   28.8460   41.0000 C   0  0  0  0  0  0  0  0  0  0  0  0
   39.3940   32.3910   41.8470 H   0  0  0  0  0  0  0  0  0  0  0  0
   39.6000   28.4580   44.1840 H   0  0  0  0  0  0  0  0  0  0  0  0
   39.0910   26.1470   43.7820 H   0  0  0  0  0  0  0  0  0  0  0  0
   37.8190   27.0220   39.5410 N   0  0  0  0  0  0  0  0  0  0  0  0
   36.8950   26.8930   39.1030 H   0  0  0  0  0  0  0  0  0  0  0  0
   38.7080   26.7270   39.0420 H   0  0  0  0  0  0  0  0  0  0  0  0
   38.1290   25.0890   41.4460 C   0  0  0  0  0  3  0  0  0  0  0  0
   38.2790   24.0380   42.4720 C   0  0  0  0  0  2  0  0  0  0  0  0
   36.8860   24.5180   42.0560 C   0  0  0  0  0  2  0  0  0  0  0  0
   37.2220   28.5840   34.6710 N   0  0  0  0  0  0  0  0  0  0  0  0
   36.9760   29.2460   33.9030 H   0  0  0  0  0  0  0  0  0  0  0  0
   37.3220   27.6490   34.1720 H   0  0  0  0  0  0  0  0  0  0  0  0
  1  6  1  0  0  0  0
  2  1  2  0  0  0  0
  2  3  1  0  0  0  0
  3  4  2  0  0  0  0
  4  5  1  0  0  0  0
  5 21  1  0  0  0  0
  6  5  2  0  0  0  0
  7  3  1  0  0  0  0
  7  8  1  0  0  0  0
  8 13  1  0  0  0  0
  8 14  1  0  0  0  0
  9 16  1  0  0  0  0
  9  8  1  0  0  0  0
 10 17  1  0  0  0  0
 10  9  1  0  0  0  0
 11 10  1  0  0  0  0
 11  7  1  0  0  0  0
 12  1  1  0  0  0  0
 15  9  1  0  0  0  0
 18 10  1  0  0  0  0
 19 11  1  0  0  0  0
 20 11  1  0  0  0  0
 21 22  2  0  0  0  0
 21 30  1  0  0  0  0
 22 23  1  0  0  0  0
 23 31  1  0  0  0  0
 23 24  2  0  0  0  0
 25 24  1  0  0  0  0
 25 26  1  0  0  0  0
 26 32  1  0  0  0  0
 27 26  2  0  0  0  0
 27 33  1  0  0  0  0
 28 27  1  0  0  0  0
 29 30  1  0  0  0  0
 29 28  2  0  0  0  0
 30 25  2  0  0  0  0
 34 29  1  0  0  0  0
 35 34  1  0  0  0  0
 36 34  1  0  0  0  0
 37 28  1  0  0  0  0
 37 39  1  0  0  0  0
 37 38  1  0  0  0  0
 39 38  1  0  0  0  0
 40  2  1  0  0  0  0
 41 40  1  0  0  0  0
 42 40  1  0  0  0  0
M  END
>  <minimizedAffinity>
-5.77287436

$$$$
