
 OpenBabel03252505213D

 22 24  0  0  0  0  0  0  0  0999 V2000
   44.7700   33.7740   46.9200 F   0  0  0  0  0  0  0  0  0  0  0  0
   45.6330   32.8390   46.4350 C   0  0  0  0  0  0  0  0  0  0  0  0
   46.1800   33.0560   45.1900 C   0  0  0  0  0  0  0  0  0  0  0  0
   47.0540   32.1190   44.6870 C   0  0  0  0  0  0  0  0  0  0  0  0
   47.3670   30.9950   45.4190 C   0  0  0  0  0  0  0  0  0  0  0  0
   46.8310   30.7650   46.6570 C   0  0  0  0  0  0  0  0  0  0  0  0
   45.9490   31.7130   47.1630 C   0  0  0  0  0  0  0  0  0  0  0  0
   47.4860   32.2980   43.6920 H   0  0  0  0  0  0  0  0  0  0  0  0
   48.0580   30.2560   45.0150 H   0  0  0  0  0  0  0  0  0  0  0  0
   47.0610   29.8840   47.2590 H   0  0  0  0  0  0  0  0  0  0  0  0
   44.6000   36.2230   44.2390 C   0  0  0  0  0  0  0  0  0  0  0  0
   45.1940   36.5080   42.9910 C   0  0  0  0  0  0  0  0  0  0  0  0
   46.1330   35.5910   42.5090 C   0  0  0  0  0  0  0  0  0  0  0  0
   46.4220   34.4870   43.2550 N   0  0  0  0  0  0  0  0  0  0  0  0
   45.8300   34.2560   44.4390 C   0  0  0  0  0  0  0  0  0  0  0  0
   44.9290   35.1140   44.9260 N   0  0  0  0  0  0  0  0  0  0  0  0
   43.8710   36.9390   44.6100 H   0  0  0  0  0  0  0  0  0  0  0  0
   44.9080   37.4180   42.4540 H   0  0  0  0  0  0  0  0  0  0  0  0
   46.6010   35.7910   41.5540 H   0  0  0  0  0  0  0  0  0  0  0  0
   45.2980   31.5860   48.4930 C   0  0  0  0  0  0  0  0  0  0  0  0
   45.0160   30.2320   49.0520 C   0  0  0  0  0  0  0  0  0  0  0  0
   46.0390   31.1300   49.6860 C   0  0  0  0  0  0  0  0  0  0  0  0
  2  1  1  0  0  0  0
  2  7  1  0  0  0  0
  3  2  2  0  0  0  0
  4  3  1  0  0  0  0
  4  5  2  0  0  0  0
  5  6  1  0  0  0  0
  6  7  2  0  0  0  0
  6 10  1  0  0  0  0
  7 20  1  0  0  0  0
  8  4  1  0  0  0  0
  9  5  1  0  0  0  0
 11 17  1  0  0  0  0
 11 16  1  0  0  0  0
 12 11  2  0  0  0  0
 13 12  1  0  0  0  0
 13 14  2  0  0  0  0
 14 15  1  0  0  0  0
 15 16  2  0  0  0  0
 15  3  1  0  0  0  0
 18 12  1  0  0  0  0
 19 13  1  0  0  0  0
 20 21  1  0  0  0  0
 20 22  1  0  0  0  0
 21 22  1  0  0  0  0
M  END
>  <minimizedAffinity>
-4.68227386

>  <minimizedRMSD>
1.35584152

$$$$
