
 OpenBabel03252501563D

 15 16  0  0  0  0  0  0  0  0999 V2000
   36.5270   30.9970   40.3630 C   0  0  0  0  0  0  0  0  0  0  0  0
   36.1770   29.7090   40.7590 C   0  0  0  0  0  0  0  0  0  0  0  0
   37.0740   29.0010   41.5660 C   0  0  0  0  0  0  0  0  0  0  0  0
   38.2250   29.6110   41.9150 N   0  0  0  0  0  0  0  0  0  0  0  0
   38.5440   30.8570   41.5230 C   0  0  0  0  0  0  0  0  0  0  0  0
   37.7010   31.5730   40.7380 N   0  0  0  0  0  0  0  0  0  0  0  0
   35.9020   31.6310   39.7350 H   0  0  0  0  0  0  0  0  0  0  0  0
   39.5100   31.1260   41.9240 H   0  0  0  0  0  0  0  0  0  0  0  0
   34.8720   29.2160   40.2730 C   0  0  0  0  0  0  0  0  0  0  0  0
   34.4120   28.4240   40.8730 H   0  0  0  0  0  0  0  0  0  0  0  0
   35.0410   28.9210   39.2030 H   0  0  0  0  0  0  0  0  0  0  0  0
   34.1550   30.0660   40.2840 H   0  0  0  0  0  0  0  0  0  0  0  0
   36.6610   27.6420   41.9610 C   0  0  0  0  0  3  0  0  0  0  0  0
   36.4940   27.4710   43.4940 C   0  0  0  0  0  2  0  0  0  0  0  0
   37.6020   26.7920   42.7880 C   0  0  0  0  0  2  0  0  0  0  0  0
  1  6  2  0  0  0  0
  1  2  1  0  0  0  0
  2  3  2  0  0  0  0
  3  4  1  0  0  0  0
  3 13  1  0  0  0  0
  5  4  2  0  0  0  0
  5  8  1  0  0  0  0
  6  5  1  0  0  0  0
  7  1  1  0  0  0  0
  9 12  1  0  0  0  0
  9  2  1  0  0  0  0
  9 10  1  0  0  0  0
 11  9  1  0  0  0  0
 13 15  1  0  0  0  0
 13 14  1  0  0  0  0
 15 14  1  0  0  0  0
M  END
>  <minimizedAffinity>
-3.61990833

$$$$

 OpenBabel03252501563D

 15 16  0  0  0  0  0  0  0  0999 V2000
   38.7600   31.2220   41.1680 C   0  0  0  0  0  0  0  0  0  0  0  0
   38.8020   30.1530   42.0590 C   0  0  0  0  0  0  0  0  0  0  0  0
   37.6050   29.4910   42.3500 C   0  0  0  0  0  0  0  0  0  0  0  0
   36.4810   29.9270   41.7480 N   0  0  0  0  0  0  0  0  0  0  0  0
   36.4620   30.9620   40.8890 C   0  0  0  0  0  0  0  0  0  0  0  0
   37.6020   31.6290   40.5840 N   0  0  0  0  0  0  0  0  0  0  0  0
   39.6340   31.8040   40.8760 H   0  0  0  0  0  0  0  0  0  0  0  0
   35.4520   31.1230   40.5400 H   0  0  0  0  0  0  0  0  0  0  0  0
   40.1310   29.8260   42.6140 C   0  0  0  0  0  0  0  0  0  0  0  0
   40.2590   28.7970   42.9660 H   0  0  0  0  0  0  0  0  0  0  0  0
   40.3220   30.5940   43.4120 H   0  0  0  0  0  0  0  0  0  0  0  0
   40.8880   29.9730   41.8130 H   0  0  0  0  0  0  0  0  0  0  0  0
   37.6980   28.3650   43.2980 C   0  0  0  0  0  3  0  0  0  0  0  0
   37.5950   26.9750   42.6140 C   0  0  0  0  0  2  0  0  0  0  0  0
   36.5020   27.4560   43.4880 C   0  0  0  0  0  2  0  0  0  0  0  0
  1  2  1  0  0  0  0
  2  3  2  0  0  0  0
  2  9  1  0  0  0  0
  3 13  1  0  0  0  0
  4  3  1  0  0  0  0
  5  4  2  0  0  0  0
  6  5  1  0  0  0  0
  6  1  2  0  0  0  0
  7  1  1  0  0  0  0
  8  5  1  0  0  0  0
  9 10  1  0  0  0  0
  9 11  1  0  0  0  0
 12  9  1  0  0  0  0
 13 15  1  0  0  0  0
 14 13  1  0  0  0  0
 14 15  1  0  0  0  0
M  END
>  <minimizedAffinity>
-3.6105988

$$$$

 OpenBabel03252501563D

 15 16  0  0  0  0  0  0  0  0999 V2000
   35.6630   28.6190   40.9870 C   0  0  0  0  0  0  0  0  0  0  0  0
   36.7220   28.5700   41.8890 C   0  0  0  0  0  0  0  0  0  0  0  0
   37.5390   29.6980   42.0080 C   0  0  0  0  0  0  0  0  0  0  0  0
   37.2510   30.7690   41.2420 N   0  0  0  0  0  0  0  0  0  0  0  0
   36.2220   30.7970   40.3760 C   0  0  0  0  0  0  0  0  0  0  0  0
   35.4090   29.7210   40.2320 N   0  0  0  0  0  0  0  0  0  0  0  0
   34.9700   27.7960   40.8180 H   0  0  0  0  0  0  0  0  0  0  0  0
   36.1940   31.7560   39.8790 H   0  0  0  0  0  0  0  0  0  0  0  0
   36.8750   27.3060   42.6380 C   0  0  0  0  0  0  0  0  0  0  0  0
   37.4040   27.3810   43.5930 H   0  0  0  0  0  0  0  0  0  0  0  0
   37.3550   26.5860   41.9210 H   0  0  0  0  0  0  0  0  0  0  0  0
   35.8600   26.9200   42.8780 H   0  0  0  0  0  0  0  0  0  0  0  0
   38.6480   29.6010   42.9760 C   0  0  0  0  0  3  0  0  0  0  0  0
   39.7790   30.6320   42.7200 C   0  0  0  0  0  2  0  0  0  0  0  0
   40.0220   29.1910   42.4910 C   0  0  0  0  0  2  0  0  0  0  0  0
  1  2  1  0  0  0  0
  2  3  2  0  0  0  0
  2  9  1  0  0  0  0
  3 13  1  0  0  0  0
  4  3  1  0  0  0  0
  5  4  2  0  0  0  0
  6  5  1  0  0  0  0
  6  1  2  0  0  0  0
  7  1  1  0  0  0  0
  8  5  1  0  0  0  0
  9 12  1  0  0  0  0
  9 10  1  0  0  0  0
 11  9  1  0  0  0  0
 14 13  1  0  0  0  0
 15 14  1  0  0  0  0
 15 13  1  0  0  0  0
M  END
>  <minimizedAffinity>
-3.49410272

$$$$

 OpenBabel03252501563D

 15 16  0  0  0  0  0  0  0  0999 V2000
   36.5130   28.0880   41.8530 C   0  0  0  0  0  0  0  0  0  0  0  0
   36.1740   29.1970   41.0830 C   0  0  0  0  0  0  0  0  0  0  0  0
   37.0020   30.3220   41.1480 C   0  0  0  0  0  0  0  0  0  0  0  0
   38.0810   30.2650   41.9530 N   0  0  0  0  0  0  0  0  0  0  0  0
   38.3920   29.1830   42.6890 C   0  0  0  0  0  0  0  0  0  0  0  0
   37.6120   28.0740   42.6530 N   0  0  0  0  0  0  0  0  0  0  0  0
   35.9360   27.1640   41.8740 H   0  0  0  0  0  0  0  0  0  0  0  0
   39.2950   29.3750   43.2510 H   0  0  0  0  0  0  0  0  0  0  0  0
   34.9510   29.0660   40.2640 C   0  0  0  0  0  0  0  0  0  0  0  0
   34.8960   29.7190   39.3870 H   0  0  0  0  0  0  0  0  0  0  0  0
   34.0940   29.2060   40.9760 H   0  0  0  0  0  0  0  0  0  0  0  0
   34.9040   28.0250   39.8750 H   0  0  0  0  0  0  0  0  0  0  0  0
   36.6040   31.4730   40.3160 C   0  0  0  0  0  3  0  0  0  0  0  0
   37.4690   31.6350   39.0370 C   0  0  0  0  0  2  0  0  0  0  0  0
   37.5690   32.6250   40.1330 C   0  0  0  0  0  2  0  0  0  0  0  0
  1  7  1  0  0  0  0
  1  6  1  0  0  0  0
  2  3  1  0  0  0  0
  2  1  2  0  0  0  0
  3  4  2  0  0  0  0
  4  5  1  0  0  0  0
  5  8  1  0  0  0  0
  6  5  2  0  0  0  0
  9 11  1  0  0  0  0
  9  2  1  0  0  0  0
 10  9  1  0  0  0  0
 12  9  1  0  0  0  0
 13  3  1  0  0  0  0
 14 15  1  0  0  0  0
 14 13  1  0  0  0  0
 15 13  1  0  0  0  0
M  END
>  <minimizedAffinity>
-3.48589945

$$$$

 OpenBabel03252501563D

 15 16  0  0  0  0  0  0  0  0999 V2000
   38.4610   28.9540   42.9020 C   0  0  0  0  0  0  0  0  0  0  0  0
   38.5420   27.5640   42.9250 C   0  0  0  0  0  0  0  0  0  0  0  0
   37.5600   26.8370   42.2450 C   0  0  0  0  0  0  0  0  0  0  0  0
   36.5930   27.5260   41.6060 N   0  0  0  0  0  0  0  0  0  0  0  0
   36.5340   28.8700   41.5960 C   0  0  0  0  0  0  0  0  0  0  0  0
   37.4670   29.6090   42.2450 N   0  0  0  0  0  0  0  0  0  0  0  0
   39.1740   29.6120   43.3990 H   0  0  0  0  0  0  0  0  0  0  0  0
   35.6750   29.1890   41.0230 H   0  0  0  0  0  0  0  0  0  0  0  0
   39.6760   26.9950   43.6800 C   0  0  0  0  0  0  0  0  0  0  0  0
   39.9850   25.9870   43.3830 H   0  0  0  0  0  0  0  0  0  0  0  0
   39.3860   27.0690   44.7620 H   0  0  0  0  0  0  0  0  0  0  0  0
   40.5630   27.6470   43.5190 H   0  0  0  0  0  0  0  0  0  0  0  0
   37.6850   25.3680   42.2950 C   0  0  0  0  0  3  0  0  0  0  0  0
   38.1470   24.7440   40.9520 C   0  0  0  0  0  2  0  0  0  0  0  0
   36.7700   24.5160   41.4420 C   0  0  0  0  0  2  0  0  0  0  0  0
  1  2  1  0  0  0  0
  1  7  1  0  0  0  0
  2  9  1  0  0  0  0
  3 13  1  0  0  0  0
  3  2  2  0  0  0  0
  4  3  1  0  0  0  0
  5  4  2  0  0  0  0
  5  6  1  0  0  0  0
  6  1  2  0  0  0  0
  8  5  1  0  0  0  0
  9 11  1  0  0  0  0
 10  9  1  0  0  0  0
 12  9  1  0  0  0  0
 14 15  1  0  0  0  0
 14 13  1  0  0  0  0
 15 13  1  0  0  0  0
M  END
>  <minimizedAffinity>
-3.40700603

$$$$

 OpenBabel03252501563D

 15 16  0  0  0  0  0  0  0  0999 V2000
   35.9610   27.3900   38.9410 C   0  0  0  0  0  0  0  0  0  0  0  0
   36.6650   27.0560   40.0940 C   0  0  0  0  0  0  0  0  0  0  0  0
   36.5420   27.8930   41.2070 C   0  0  0  0  0  0  0  0  0  0  0  0
   35.7440   28.9750   41.0980 N   0  0  0  0  0  0  0  0  0  0  0  0
   35.0700   29.2790   39.9740 C   0  0  0  0  0  0  0  0  0  0  0  0
   35.1670   28.4920   38.8740 N   0  0  0  0  0  0  0  0  0  0  0  0
   35.9880   26.8070   38.0210 H   0  0  0  0  0  0  0  0  0  0  0  0
   34.5040   30.1870   40.1280 H   0  0  0  0  0  0  0  0  0  0  0  0
   37.4870   25.8310   40.0170 C   0  0  0  0  0  0  0  0  0  0  0  0
   37.7040   25.3450   40.9740 H   0  0  0  0  0  0  0  0  0  0  0  0
   38.4100   26.1220   39.4480 H   0  0  0  0  0  0  0  0  0  0  0  0
   36.9340   25.0800   39.4100 H   0  0  0  0  0  0  0  0  0  0  0  0
   37.3060   27.5010   42.4060 C   0  0  0  0  0  3  0  0  0  0  0  0
   36.4270   27.3620   43.6780 C   0  0  0  0  0  2  0  0  0  0  0  0
   37.4080   28.4640   43.5690 C   0  0  0  0  0  2  0  0  0  0  0  0
  1  2  1  0  0  0  0
  2  3  2  0  0  0  0
  3 13  1  0  0  0  0
  4  3  1  0  0  0  0
  5  8  1  0  0  0  0
  5  4  2  0  0  0  0
  6  1  2  0  0  0  0
  6  5  1  0  0  0  0
  7  1  1  0  0  0  0
  9  2  1  0  0  0  0
  9 10  1  0  0  0  0
 11  9  1  0  0  0  0
 12  9  1  0  0  0  0
 13 15  1  0  0  0  0
 13 14  1  0  0  0  0
 15 14  1  0  0  0  0
M  END
>  <minimizedAffinity>
-3.39509678

$$$$

 OpenBabel03252501563D

 15 16  0  0  0  0  0  0  0  0999 V2000
   39.3610   24.4130   42.3880 C   0  0  0  0  0  0  0  0  0  0  0  0
   38.2570   25.2580   42.4650 C   0  0  0  0  0  0  0  0  0  0  0  0
   38.4110   26.4840   43.1200 C   0  0  0  0  0  0  0  0  0  0  0  0
   39.6210   26.7760   43.6370 N   0  0  0  0  0  0  0  0  0  0  0  0
   40.6760   25.9450   43.5510 C   0  0  0  0  0  0  0  0  0  0  0  0
   40.5640   24.7470   42.9250 N   0  0  0  0  0  0  0  0  0  0  0  0
   39.3470   23.4380   41.9010 H   0  0  0  0  0  0  0  0  0  0  0  0
   41.5300   26.3940   44.0380 H   0  0  0  0  0  0  0  0  0  0  0  0
   37.0170   24.7610   41.8370 C   0  0  0  0  0  0  0  0  0  0  0  0
   36.2980   25.5280   41.5320 H   0  0  0  0  0  0  0  0  0  0  0  0
   36.5900   24.0160   42.5610 H   0  0  0  0  0  0  0  0  0  0  0  0
   37.2930   24.2140   40.9090 H   0  0  0  0  0  0  0  0  0  0  0  0
   37.2160   27.3470   43.1770 C   0  0  0  0  0  3  0  0  0  0  0  0
   37.2850   28.5590   42.2100 C   0  0  0  0  0  2  0  0  0  0  0  0
   37.3520   28.7710   43.6730 C   0  0  0  0  0  2  0  0  0  0  0  0
  1  2  2  0  0  0  0
  1  6  1  0  0  0  0
  2  3  1  0  0  0  0
  3 13  1  0  0  0  0
  3  4  2  0  0  0  0
  5  4  1  0  0  0  0
  5  8  1  0  0  0  0
  6  5  2  0  0  0  0
  7  1  1  0  0  0  0
  9  2  1  0  0  0  0
  9 11  1  0  0  0  0
 10  9  1  0  0  0  0
 12  9  1  0  0  0  0
 13 15  1  0  0  0  0
 14 13  1  0  0  0  0
 14 15  1  0  0  0  0
M  END
>  <minimizedAffinity>
-3.37014174

$$$$

 OpenBabel03252501563D

 15 16  0  0  0  0  0  0  0  0999 V2000
   36.5680   29.2420   38.9830 C   0  0  0  0  0  0  0  0  0  0  0  0
   36.5700   28.3000   40.0080 C   0  0  0  0  0  0  0  0  0  0  0  0
   36.5820   28.7630   41.3280 C   0  0  0  0  0  0  0  0  0  0  0  0
   36.5900   30.0960   41.5290 N   0  0  0  0  0  0  0  0  0  0  0  0
   36.5870   30.9900   40.5240 C   0  0  0  0  0  0  0  0  0  0  0  0
   36.5770   30.5790   39.2310 N   0  0  0  0  0  0  0  0  0  0  0  0
   36.5600   28.9880   37.9230 H   0  0  0  0  0  0  0  0  0  0  0  0
   36.5960   31.9910   40.9310 H   0  0  0  0  0  0  0  0  0  0  0  0
   36.5600   26.8850   39.5850 C   0  0  0  0  0  0  0  0  0  0  0  0
   36.1620   26.1740   40.3160 H   0  0  0  0  0  0  0  0  0  0  0  0
   37.6140   26.6560   39.2730 H   0  0  0  0  0  0  0  0  0  0  0  0
   35.9120   26.7960   38.6860 H   0  0  0  0  0  0  0  0  0  0  0  0
   36.5830   27.7300   42.3800 C   0  0  0  0  0  3  0  0  0  0  0  0
   37.3070   28.1760   43.6790 C   0  0  0  0  0  2  0  0  0  0  0  0
   37.8970   27.1240   42.8230 C   0  0  0  0  0  2  0  0  0  0  0  0
  1  6  2  0  0  0  0
  1  2  1  0  0  0  0
  2  3  2  0  0  0  0
  3  4  1  0  0  0  0
  3 13  1  0  0  0  0
  5  8  1  0  0  0  0
  5  4  2  0  0  0  0
  6  5  1  0  0  0  0
  7  1  1  0  0  0  0
  9  2  1  0  0  0  0
  9 10  1  0  0  0  0
 11  9  1  0  0  0  0
 12  9  1  0  0  0  0
 13 15  1  0  0  0  0
 13 14  1  0  0  0  0
 15 14  1  0  0  0  0
M  END
>  <minimizedAffinity>
-3.36069751

$$$$

 OpenBabel03252501563D

 15 16  0  0  0  0  0  0  0  0999 V2000
   39.0000   28.1610   43.2220 C   0  0  0  0  0  0  0  0  0  0  0  0
   38.4720   29.2690   42.5650 C   0  0  0  0  0  0  0  0  0  0  0  0
   37.1880   29.1640   42.0230 C   0  0  0  0  0  0  0  0  0  0  0  0
   36.5350   27.9930   42.1710 N   0  0  0  0  0  0  0  0  0  0  0  0
   37.0630   26.9340   42.8100 C   0  0  0  0  0  0  0  0  0  0  0  0
   38.3070   26.9990   43.3470 N   0  0  0  0  0  0  0  0  0  0  0  0
   39.9900   28.1390   43.6780 H   0  0  0  0  0  0  0  0  0  0  0  0
   36.3560   26.1160   42.7980 H   0  0  0  0  0  0  0  0  0  0  0  0
   39.3420   30.4620   42.5080 C   0  0  0  0  0  0  0  0  0  0  0  0
   38.8270   31.4190   42.3780 H   0  0  0  0  0  0  0  0  0  0  0  0
   40.0940   30.2480   41.7010 H   0  0  0  0  0  0  0  0  0  0  0  0
   39.8910   30.5380   43.4730 H   0  0  0  0  0  0  0  0  0  0  0  0
   36.6690   30.3620   41.3370 C   0  0  0  0  0  3  0  0  0  0  0  0
   35.6090   30.0380   40.2510 C   0  0  0  0  0  2  0  0  0  0  0  0
   36.9420   30.5470   39.8600 C   0  0  0  0  0  2  0  0  0  0  0  0
  1  6  1  0  0  0  0
  1  7  1  0  0  0  0
  2  1  2  0  0  0  0
  3  4  2  0  0  0  0
  3  2  1  0  0  0  0
  4  5  1  0  0  0  0
  5  6  2  0  0  0  0
  8  5  1  0  0  0  0
  9  2  1  0  0  0  0
  9 12  1  0  0  0  0
 10  9  1  0  0  0  0
 11  9  1  0  0  0  0
 13  3  1  0  0  0  0
 14 13  1  0  0  0  0
 15 14  1  0  0  0  0
 15 13  1  0  0  0  0
M  END
>  <minimizedAffinity>
-3.35436511

$$$$
