
 OpenBabel03252509183D

 35 38  0  0  1  0  0  0  0  0999 V2000
   52.0030   28.8600   42.8480 C   0  0  1  0  0  0  0  0  0  0  0  0
   52.2690   28.4980   41.4270 C   0  0  0  0  0  0  0  0  0  0  0  0
   53.7070   28.5120   41.0260 C   0  0  0  0  0  0  0  0  0  0  0  0
   54.6240   27.9190   42.0630 C   0  0  0  0  0  0  0  0  0  0  0  0
   54.2950   28.3600   43.4700 C   0  0  0  0  0  0  0  0  0  0  0  0
   53.2840   29.5050   43.4220 C   0  0  2  0  0  0  0  0  0  0  0  0
   51.8750   27.9540   43.4830 H   0  0  0  0  0  0  0  0  0  0  0  0
   51.8450   27.4900   41.2260 H   0  0  0  0  0  0  0  0  0  0  0  0
   51.7320   29.1800   40.7050 H   0  0  0  0  0  0  0  0  0  0  0  0
   53.7900   27.8530   40.1260 H   0  0  0  0  0  0  0  0  0  0  0  0
   53.9880   29.5270   40.6980 H   0  0  0  0  0  0  0  0  0  0  0  0
   55.6550   28.3110   41.8400 H   0  0  0  0  0  0  0  0  0  0  0  0
   54.6990   26.8180   41.9670 H   0  0  0  0  0  0  0  0  0  0  0  0
   55.1810   28.6230   44.0590 H   0  0  0  0  0  0  0  0  0  0  0  0
   53.7720   27.5080   43.9790 H   0  0  0  0  0  0  0  0  0  0  0  0
   53.6240   30.3330   42.7970 H   0  0  0  0  0  0  0  0  0  0  0  0
   49.0770   31.7330   42.9060 C   0  0  0  0  0  0  0  0  0  0  0  0
   48.6970   30.5640   43.5840 C   0  0  0  0  0  0  0  0  0  0  0  0
   49.5770   29.5490   43.6360 C   0  0  0  0  0  0  0  0  0  0  0  0
   50.8390   29.6770   43.0210 C   0  0  0  0  0  0  0  0  0  0  0  0
   50.7750   31.3580   42.3180 S   0  0  0  0  0  0  0  0  0  0  0  0
   47.7300   30.4690   44.0530 H   0  0  0  0  0  0  0  0  0  0  0  0
   49.4700   28.5830   44.1040 H   0  0  0  0  0  0  0  0  0  0  0  0
   46.6050   34.4830   43.3180 C   0  0  0  0  0  0  0  0  0  0  0  0
   46.8500   35.2060   42.1220 C   0  0  0  0  0  0  0  0  0  0  0  0
   47.8460   34.7210   41.2350 C   0  0  0  0  0  0  0  0  0  0  0  0
   48.5020   33.5860   41.5940 N   0  0  0  0  0  0  0  0  0  0  0  0
   48.2310   32.9260   42.7560 C   0  0  0  0  0  0  0  0  0  0  0  0
   47.2840   33.3710   43.6190 N   0  0  0  0  0  0  0  0  0  0  0  0
   45.8560   34.8370   43.9990 H   0  0  0  0  0  0  0  0  0  0  0  0
   46.3010   36.1050   41.8790 H   0  0  0  0  0  0  0  0  0  0  0  0
   48.0520   35.2410   40.3310 H   0  0  0  0  0  0  0  0  0  0  0  0
   52.9750   29.9010   44.8500 C   0  0  0  0  0  3  0  0  0  0  0  0
   53.1880   28.8590   45.8860 C   0  0  0  0  0  2  0  0  0  0  0  0
   54.1250   30.0500   45.7710 C   0  0  0  0  0  2  0  0  0  0  0  0
  1 20  1  0  0  0  0
  1  6  1  0  0  0  0
  1  7  1  1  0  0  0
  2  1  1  0  0  0  0
  3  2  1  0  0  0  0
  3  4  1  0  0  0  0
  4  5  1  0  0  0  0
  5 15  1  0  0  0  0
  5 14  1  0  0  0  0
  6 16  1  6  0  0  0
  6  5  1  0  0  0  0
  6 33  1  0  0  0  0
  8  2  1  0  0  0  0
  9  2  1  0  0  0  0
 10  3  1  0  0  0  0
 11  3  1  0  0  0  0
 12  4  1  0  0  0  0
 13  4  1  0  0  0  0
 17 18  2  0  0  0  0
 18 19  1  0  0  0  0
 18 22  1  0  0  0  0
 19 23  1  0  0  0  0
 20 19  2  0  0  0  0
 21 17  1  0  0  0  0
 21 20  1  0  0  0  0
 24 29  1  0  0  0  0
 24 30  1  0  0  0  0
 25 24  2  0  0  0  0
 26 27  2  0  0  0  0
 26 25  1  0  0  0  0
 27 28  1  0  0  0  0
 28 17  1  0  0  0  0
 28 29  2  0  0  0  0
 31 25  1  0  0  0  0
 32 26  1  0  0  0  0
 33 35  1  0  0  0  0
 33 34  1  0  0  0  0
 35 34  1  0  0  0  0
M  END
>  <minimizedAffinity>
-2.89875221

>  <minimizedRMSD>
6.41058731

$$$$
