
 OpenBabel03242521173D

 32 34  0  0  0  0  0  0  0  0999 V2000
   44.5060   35.7860   44.6960 C   0  0  0  0  0  0  0  0  0  0  0  0
   45.1100   35.7310   43.4270 C   0  0  0  0  0  0  0  0  0  0  0  0
   46.0980   34.7550   43.2480 C   0  0  0  0  0  0  0  0  0  0  0  0
   46.4200   33.9220   44.2950 N   0  0  0  0  0  0  0  0  0  0  0  0
   45.8000   34.0330   45.4850 C   0  0  0  0  0  0  0  0  0  0  0  0
   44.8330   34.9630   45.7140 N   0  0  0  0  0  0  0  0  0  0  0  0
   43.7310   36.5260   44.8920 H   0  0  0  0  0  0  0  0  0  0  0  0
   44.7890   36.4210   42.6800 H   0  0  0  0  0  0  0  0  0  0  0  0
   46.7280   34.6710   41.9760 N   0  0  0  0  0  0  0  0  0  0  0  0
   47.9400   35.2230   41.8220 C   0  0  0  0  0  0  0  0  0  0  0  0
   48.5710   35.1520   40.5920 C   0  0  0  0  0  0  0  0  0  0  0  0
   47.9110   34.5090   39.5720 C   0  0  0  0  0  0  0  0  0  0  0  0
   48.5010   34.4510   38.4440 O   0  0  0  0  0  0  0  0  0  0  0  0
   46.6940   33.9500   39.7070 N   0  0  0  0  0  0  0  0  0  0  0  0
   46.1330   34.0560   40.9360 C   0  0  0  0  0  0  0  0  0  0  0  0
   45.0080   33.5710   41.1680 O   0  0  0  0  0  0  0  0  0  0  0  0
   48.4680   35.7340   42.6320 H   0  0  0  0  0  0  0  0  0  0  0  0
   49.5470   35.5780   40.4120 H   0  0  0  0  0  0  0  0  0  0  0  0
   46.2200   33.4700   38.9140 H   0  0  0  0  0  0  0  0  0  0  0  0
   46.3360   33.0160   46.4360 C   0  0  0  0  0  0  0  0  0  0  0  0
   46.5520   32.1020   45.8370 H   0  0  0  0  0  0  0  0  0  0  0  0
   47.3220   33.3290   46.8510 H   0  0  0  0  0  0  0  0  0  0  0  0
   45.3160   32.6900   47.5070 C   0  0  0  0  0  0  0  0  0  0  0  0
   45.7180   32.8390   48.5120 H   0  0  0  0  0  0  0  0  0  0  0  0
   44.4210   33.3460   47.3630 H   0  0  0  0  0  0  0  0  0  0  0  0
   45.3290   30.3550   48.2550 C   0  0  0  0  0  0  0  0  0  0  0  0
   46.0470   30.7760   49.2040 O   0  0  0  0  0  0  0  0  0  0  0  0
   44.8690   31.3270   47.3440 N   0  0  0  0  0  0  0  0  0  0  0  0
   44.2210   31.0070   46.5860 H   0  0  0  0  0  0  0  0  0  0  0  0
   45.0420   28.9070   48.1910 C   0  0  0  0  0  0  0  0  0  0  0  0
   46.0200   28.0560   47.3560 C   0  0  0  0  0  0  0  0  0  0  0  0
   44.6400   28.2780   46.9110 C   0  0  0  0  0  0  0  0  0  0  0  0
  1  7  1  0  0  0  0
  1  6  1  0  0  0  0
  2  1  2  0  0  0  0
  3  2  1  0  0  0  0
  3  4  2  0  0  0  0
  4  5  1  0  0  0  0
  5  6  2  0  0  0  0
  5 20  1  0  0  0  0
  8  2  1  0  0  0  0
  9  3  1  0  0  0  0
 10  9  1  0  0  0  0
 10 17  1  0  0  0  0
 11 10  2  0  0  0  0
 12 14  1  0  0  0  0
 12 11  1  0  0  0  0
 13 12  2  0  0  0  0
 14 15  1  0  0  0  0
 15 16  2  0  0  0  0
 15  9  1  0  0  0  0
 18 11  1  0  0  0  0
 19 14  1  0  0  0  0
 20 22  1  0  0  0  0
 20 23  1  0  0  0  0
 21 20  1  0  0  0  0
 23 24  1  0  0  0  0
 25 23  1  0  0  0  0
 26 27  2  0  0  0  0
 28 23  1  0  0  0  0
 28 26  1  0  0  0  0
 29 28  1  0  0  0  0
 30 26  1  0  0  0  0
 31 30  1  0  0  0  0
 32 31  1  0  0  0  0
 32 30  1  0  0  0  0
M  END
>  <minimizedAffinity>
-6.13906622

>  <minimizedRMSD>
0.522595942

$$$$
