
 OpenBabel03242518463D

 38 40  0  0  1  0  0  0  0  0999 V2000
   47.4610   33.0990   44.3460 C   0  0  2  0  0  0  0  0  0  0  0  0
   47.3200   33.4320   42.9050 C   0  0  1  0  0  0  0  0  0  0  0  0
   47.1930   32.1780   42.0390 C   0  0  0  0  0  0  0  0  0  0  0  0
   48.3130   31.4160   42.3730 O   0  0  0  0  0  0  0  0  0  0  0  0
   48.1930   30.8500   43.6250 C   0  0  0  0  0  0  0  0  0  0  0  0
   47.2620   31.5840   44.5410 C   0  0  1  0  0  0  0  0  0  0  0  0
   48.4780   33.3220   44.7030 H   0  0  0  0  0  0  0  0  0  0  0  0
   48.2340   33.9760   42.5300 H   0  0  0  0  0  0  0  0  0  0  0  0
   46.2450   31.6460   42.2550 H   0  0  0  0  0  0  0  0  0  0  0  0
   47.2710   32.4090   40.9780 H   0  0  0  0  0  0  0  0  0  0  0  0
   48.0050   29.7750   43.6010 H   0  0  0  0  0  0  0  0  0  0  0  0
   49.2170   30.9550   44.0910 H   0  0  0  0  0  0  0  0  0  0  0  0
   46.2050   31.3570   44.2950 H   0  0  0  0  0  0  0  0  0  0  0  0
   45.0140   36.2730   42.7520 C   0  0  0  0  0  0  0  0  0  0  0  0
   43.9580   35.8150   41.9140 C   0  0  0  0  0  0  0  0  0  0  0  0
   44.0960   34.4960   41.4210 C   0  0  0  0  0  0  0  0  0  0  0  0
   45.1870   33.7750   41.7640 N   0  0  0  0  0  0  0  0  0  0  0  0
   46.1540   34.2650   42.5620 C   0  0  0  0  0  0  0  0  0  0  0  0
   46.0620   35.5160   43.0540 N   0  0  0  0  0  0  0  0  0  0  0  0
   43.1020   36.4060   41.6560 H   0  0  0  0  0  0  0  0  0  0  0  0
   43.3220   34.1000   40.7810 H   0  0  0  0  0  0  0  0  0  0  0  0
   44.8930   37.5400   43.2330 O   0  0  0  0  0  0  0  0  0  0  0  0
   44.1150   37.8830   43.7530 H   0  0  0  0  0  0  0  0  0  0  0  0
   46.5430   33.7610   45.1690 O   0  0  0  0  0  0  0  0  0  0  0  0
   45.7050   33.2560   45.1630 H   0  0  0  0  0  0  0  0  0  0  0  0
   47.4860   31.3240   45.8740 O   0  0  0  0  0  0  0  0  0  0  0  0
   46.4890   28.8110   45.9410 F   0  0  0  0  0  0  0  0  0  0  0  0
   46.2670   29.7500   46.8810 C   0  0  0  0  0  0  0  0  0  0  0  0
   46.7390   31.0500   46.9280 C   0  0  0  0  0  0  0  0  0  0  0  0
   46.3420   31.7740   48.0410 C   0  0  0  0  0  0  0  0  0  0  0  0
   45.5440   31.3120   49.0650 C   0  0  0  0  0  0  0  0  0  0  0  0
   45.1070   30.0220   48.9690 C   0  0  0  0  0  0  0  0  0  0  0  0
   45.4570   29.2310   47.8910 C   0  0  0  0  0  0  0  0  0  0  0  0
   46.7560   32.8000   48.0100 H   0  0  0  0  0  0  0  0  0  0  0  0
   45.3150   31.9900   49.8750 H   0  0  0  0  0  0  0  0  0  0  0  0
   44.4790   29.6760   49.7880 H   0  0  0  0  0  0  0  0  0  0  0  0
   44.7880   27.5750   47.9420 S   0  0  0  0  0  0  0  0  0  0  0  0
   43.9050   27.3760   46.8590 H   0  0  0  0  0  0  0  0  0  0  0  0
  1  6  1  0  0  0  0
  1  7  1  1  0  0  0
  1 24  1  0  0  0  0
  2  8  1  6  0  0  0
  2  1  1  0  0  0  0
  3  9  1  0  0  0  0
  3  4  1  0  0  0  0
  3  2  1  0  0  0  0
  4  5  1  0  0  0  0
  5 12  1  0  0  0  0
  5  6  1  0  0  0  0
  6 13  1  6  0  0  0
  6 26  1  0  0  0  0
 10  3  1  0  0  0  0
 11  5  1  0  0  0  0
 14 19  1  0  0  0  0
 14 22  1  0  0  0  0
 15 14  2  0  0  0  0
 16 17  2  0  0  0  0
 16 15  1  0  0  0  0
 17 18  1  0  0  0  0
 18  2  1  0  0  0  0
 18 19  2  0  0  0  0
 20 15  1  0  0  0  0
 21 16  1  0  0  0  0
 22 23  1  0  0  0  0
 25 24  1  0  0  0  0
 26 29  1  0  0  0  0
 27 28  1  0  0  0  0
 28 29  2  0  0  0  0
 28 33  1  0  0  0  0
 29 30  1  0  0  0  0
 30 31  2  0  0  0  0
 31 35  1  0  0  0  0
 32 31  1  0  0  0  0
 32 36  1  0  0  0  0
 33 37  1  0  0  0  0
 33 32  2  0  0  0  0
 34 30  1  0  0  0  0
 38 37  1  0  0  0  0
M  END
>  <minimizedAffinity>
-5.15697145

>  <minimizedRMSD>
0.446171224

$$$$
