
 OpenBabel03242517163D

 26 27  0  0  0  0  0  0  0  0999 V2000
   41.2920   35.9620   39.9700 C   0  0  0  0  0  0  0  0  0  0  0  0
   40.9440   37.0060   40.1950 H   0  0  0  0  0  0  0  0  0  0  0  0
   42.0740   36.0440   39.1710 H   0  0  0  0  0  0  0  0  0  0  0  0
   40.8620   35.5530   37.2470 F   0  0  0  0  0  0  0  0  0  0  0  0
   40.0360   34.9160   38.1070 C   0  0  0  0  0  0  0  0  0  0  0  0
   40.2220   35.0980   39.4880 C   0  0  0  0  0  0  0  0  0  0  0  0
   39.3280   34.4040   40.2470 C   0  0  0  0  0  0  0  0  0  0  0  0
   38.3080   33.5810   39.8100 C   0  0  0  0  0  0  0  0  0  0  0  0
   38.2020   33.4620   38.4200 C   0  0  0  0  0  0  0  0  0  0  0  0
   39.0430   34.1100   37.5480 C   0  0  0  0  0  0  0  0  0  0  0  0
   39.3980   34.4880   41.3240 H   0  0  0  0  0  0  0  0  0  0  0  0
   37.6460   33.0690   40.4930 H   0  0  0  0  0  0  0  0  0  0  0  0
   37.4190   32.8280   38.0150 H   0  0  0  0  0  0  0  0  0  0  0  0
   38.9740   34.0290   36.4720 H   0  0  0  0  0  0  0  0  0  0  0  0
   43.2580   35.5080   41.3720 C   0  0  0  0  0  0  0  0  0  0  0  0
   41.9800   35.3560   41.1480 C   0  0  0  0  0  0  0  0  0  0  0  0
   44.3100   35.7060   43.6520 C   0  0  0  0  0  0  0  0  0  0  0  0
   43.9930   34.9500   42.4930 C   0  0  0  0  0  0  0  0  0  0  0  0
   44.4210   33.6310   42.4680 C   0  0  0  0  0  0  0  0  0  0  0  0
   45.1080   33.1640   43.5510 N   0  0  0  0  0  0  0  0  0  0  0  0
   45.3890   33.9030   44.6260 C   0  0  0  0  0  0  0  0  0  0  0  0
   44.9810   35.1810   44.6630 N   0  0  0  0  0  0  0  0  0  0  0  0
   43.9620   36.7320   43.6400 H   0  0  0  0  0  0  0  0  0  0  0  0
   44.2310   32.9760   41.6360 H   0  0  0  0  0  0  0  0  0  0  0  0
   46.2970   33.1600   45.9710 S   0  0  0  0  0  0  0  0  0  0  0  0
   45.6630   31.9300   46.2750 H   0  0  0  0  0  0  0  0  0  0  0  0
  1  2  1  0  0  0  0
  1 16  1  0  0  0  0
  3  1  1  0  0  0  0
  4  5  1  0  0  0  0
  5  6  1  0  0  0  0
  6  1  1  0  0  0  0
  6  7  2  0  0  0  0
  7 11  1  0  0  0  0
  8  7  1  0  0  0  0
  8 12  1  0  0  0  0
  9  8  2  0  0  0  0
 10  5  2  0  0  0  0
 10  9  1  0  0  0  0
 13  9  1  0  0  0  0
 14 10  1  0  0  0  0
 15 18  1  0  0  0  0
 16 15  2  0  0  0  0
 17 22  1  0  0  0  0
 18 17  2  0  0  0  0
 19 18  1  0  0  0  0
 19 20  2  0  0  0  0
 20 21  1  0  0  0  0
 21 22  2  0  0  0  0
 21 25  1  0  0  0  0
 23 17  1  0  0  0  0
 24 19  1  0  0  0  0
 25 26  1  0  0  0  0
M  END
>  <minimizedAffinity>
-5.83803511

>  <minimizedRMSD>
0.257099241

$$$$
