
     RDKit          3D

 20 21  0  0  0  0  0  0  0  0999 V2000
   44.6323   35.4573   45.1252 C   0  0  0  0  0  0  0  0  0  0  0  0
   45.1015   35.7236   43.7907 C   0  0  0  0  0  0  0  0  0  0  0  0
   46.0441   34.8254   43.3638 C   0  0  0  0  0  0  0  0  0  0  0  0
   46.4911   33.7791   44.1443 N   0  0  0  0  0  0  0  0  0  0  0  0
   46.0089   33.5920   45.3806 C   0  0  0  0  0  0  0  0  0  0  0  0
   45.0740   34.4312   45.8800 N   0  0  0  0  0  0  0  0  0  0  0  0
   46.5346   34.9678   41.9417 C   0  0  1  0  0  0  0  0  0  0  0  0
   48.0571   35.2827   41.9327 C   0  0  0  0  0  0  0  0  0  0  0  0
   47.3909   33.9709   41.4032 C   0  0  2  0  0  0  0  0  0  0  0  0
   44.6485   36.8111   43.0257 N   0  0  0  0  0  0  0  0  0  0  0  0
   43.8858   36.1231   45.5321 H   0  0  0  0  0  0  0  0  0  0  0  0
   46.4820   32.7266   45.8233 H   0  0  0  0  0  0  0  0  0  0  0  0
   45.9478   35.6846   41.3371 H   0  0  0  0  0  0  0  0  0  0  0  0
   48.6262   35.2022   42.8508 H   0  0  0  0  0  0  0  0  0  0  0  0
   48.3795   35.9980   41.1635 H   0  0  0  0  0  0  0  0  0  0  0  0
   47.6954   33.0400   41.9262 H   0  0  0  0  0  0  0  0  0  0  0  0
   43.7451   36.7313   42.5259 H   0  0  0  0  0  0  0  0  0  0  0  0
   45.2077   37.6937   42.9551 H   0  0  0  0  0  0  0  0  0  0  0  0
   47.5673   33.7474   39.5912 S   0  0  0  0  0  0  0  0  0  0  0  0
   46.3551   33.2958   39.0413 H   0  0  0  0  0  0  0  0  0  0  0  0
  1  6  2  0
  2  1  1  0
  3  2  2  0
  3  4  1  0
  4  5  2  0
  5  6  1  0
  7  3  1  0
  8  7  1  0
  9  8  1  0
  9  7  1  0
 10  2  1  0
  1 11  1  0
  5 12  1  0
  7 13  1  6
  8 14  1  0
  8 15  1  0
  9 16  1  1
 10 17  1  0
 10 18  1  0
 19 20  1  0
  9 19  1  0
M  ISO  7  11  14  12  14  13  13  14  13  15  13  16  13  20  11
M  END
>  <DihAtoms>  (1) 
7,8,18,19

>  <DihDeg>  (1) 
-152.2782124114781

$$$$
