
 OpenBabel03242519183D

 35 37  0  0  1  0  0  0  0  0999 V2000
   38.0020   28.3620   43.4260 C   0  0  0  0  0  0  0  0  0  0  0  0
   37.2930   28.1950   44.2610 H   0  0  0  0  0  0  0  0  0  0  0  0
   38.7970   29.0340   43.8050 H   0  0  0  0  0  0  0  0  0  0  0  0
   37.2730   28.9690   42.3280 C   0  0  0  0  0  0  0  0  0  0  0  0
   36.2440   28.3170   41.6870 C   0  0  0  0  0  0  0  0  0  0  0  0
   35.5390   28.8770   40.6250 C   0  0  0  0  0  0  0  0  0  0  0  0
   35.9340   30.1240   40.2550 N   0  0  0  0  0  0  0  0  0  0  0  0
   36.9360   30.7510   40.8850 C   0  0  0  0  0  0  0  0  0  0  0  0
   37.5940   30.1850   41.9030 N   0  0  0  0  0  0  0  0  0  0  0  0
   35.9870   27.3310   42.0350 H   0  0  0  0  0  0  0  0  0  0  0  0
   34.7460   28.3220   40.1640 H   0  0  0  0  0  0  0  0  0  0  0  0
   37.3940   32.1130   40.4590 C   0  0  2  0  0  0  0  0  0  0  0  0
   37.1490   32.5480   39.0530 C   0  0  0  0  0  0  0  0  0  0  0  0
   38.5580   32.1730   39.5430 C   0  0  2  0  0  0  0  0  0  0  0  0
   37.4410   32.8030   41.3220 H   0  0  0  0  0  0  0  0  0  0  0  0
   36.9910   33.6340   38.9280 H   0  0  0  0  0  0  0  0  0  0  0  0
   36.6080   31.8600   38.3920 H   0  0  0  0  0  0  0  0  0  0  0  0
   39.2680   32.9960   39.6930 H   0  0  0  0  0  0  0  0  0  0  0  0
   39.2190   30.7110   38.7540 S   0  0  0  0  0  0  0  0  0  0  0  0
   39.0390   29.5440   39.5150 H   0  0  0  0  0  0  0  0  0  0  0  0
   38.6190   27.0880   43.0070 C   0  0  0  0  0  0  0  0  0  0  0  0
   38.4590   26.9080   41.9050 H   0  0  0  0  0  0  0  0  0  0  0  0
   38.2140   26.1800   43.4880 H   0  0  0  0  0  0  0  0  0  0  0  0
   39.9130   24.4210   43.2030 Cl  0  0  0  0  0  0  0  0  0  0  0  0
   40.8220   25.8970   43.2410 C   0  0  0  0  0  0  0  0  0  0  0  0
   40.1090   27.0840   43.1440 C   0  0  0  0  0  0  0  0  0  0  0  0
   40.8200   28.2600   43.1770 C   0  0  0  0  0  0  0  0  0  0  0  0
   42.1920   28.2670   43.3010 C   0  0  0  0  0  0  0  0  0  0  0  0
   42.8960   27.0570   43.3980 C   0  0  0  0  0  0  0  0  0  0  0  0
   42.1770   25.8760   43.3640 C   0  0  0  0  0  0  0  0  0  0  0  0
   40.3290   29.2310   43.1060 H   0  0  0  0  0  0  0  0  0  0  0  0
   42.7700   29.1870   43.3290 H   0  0  0  0  0  0  0  0  0  0  0  0
   43.9600   27.0350   43.4950 H   0  0  0  0  0  0  0  0  0  0  0  0
   42.7960   24.6260   43.4540 O   0  0  0  0  0  0  0  0  0  0  0  0
   42.6130   23.9430   44.1510 H   0  0  0  0  0  0  0  0  0  0  0  0
  1  3  1  0  0  0  0
  1  2  1  0  0  0  0
  4  1  1  0  0  0  0
  5 10  1  0  0  0  0
  5  4  2  0  0  0  0
  6  5  1  0  0  0  0
  7  6  2  0  0  0  0
  7  8  1  0  0  0  0
  8  9  2  0  0  0  0
  9  4  1  0  0  0  0
 11  6  1  0  0  0  0
 12  8  1  0  0  0  0
 12 15  1  1  0  0  0
 13 14  1  0  0  0  0
 13 12  1  0  0  0  0
 14 18  1  1  0  0  0
 14 12  1  0  0  0  0
 16 13  1  0  0  0  0
 17 13  1  0  0  0  0
 19 20  1  0  0  0  0
 19 14  1  0  0  0  0
 21 26  1  0  0  0  0
 21  1  1  0  0  0  0
 21 23  1  0  0  0  0
 22 21  1  0  0  0  0
 24 25  1  0  0  0  0
 25 30  1  0  0  0  0
 26 27  1  0  0  0  0
 26 25  2  0  0  0  0
 27 28  2  0  0  0  0
 28 32  1  0  0  0  0
 28 29  1  0  0  0  0
 29 33  1  0  0  0  0
 30 29  2  0  0  0  0
 30 34  1  0  0  0  0
 31 27  1  0  0  0  0
 34 35  1  0  0  0  0
M  END
>  <minimizedAffinity>
-5.782763

$$$$

 OpenBabel03242519183D

 35 37  0  0  1  0  0  0  0  0999 V2000
   37.6210   28.8330   43.3950 C   0  0  0  0  0  0  0  0  0  0  0  0
   37.2180   29.4310   44.2350 H   0  0  0  0  0  0  0  0  0  0  0  0
   38.7240   28.9340   43.4230 H   0  0  0  0  0  0  0  0  0  0  0  0
   37.0710   29.3610   42.1590 C   0  0  0  0  0  0  0  0  0  0  0  0
   36.1720   28.6480   41.4000 C   0  0  0  0  0  0  0  0  0  0  0  0
   35.6410   29.1320   40.2060 C   0  0  0  0  0  0  0  0  0  0  0  0
   36.0700   30.3670   39.8340 N   0  0  0  0  0  0  0  0  0  0  0  0
   36.9450   31.0530   40.5810 C   0  0  0  0  0  0  0  0  0  0  0  0
   37.4370   30.5600   41.7230 N   0  0  0  0  0  0  0  0  0  0  0  0
   35.8780   27.6760   41.7570 H   0  0  0  0  0  0  0  0  0  0  0  0
   34.9430   28.5320   39.6560 H   0  0  0  0  0  0  0  0  0  0  0  0
   37.4440   32.4020   40.1580 C   0  0  2  0  0  0  0  0  0  0  0  0
   37.2010   32.8510   38.7550 C   0  0  0  0  0  0  0  0  0  0  0  0
   38.6020   32.4270   39.2310 C   0  0  2  0  0  0  0  0  0  0  0  0
   37.5210   33.0850   41.0230 H   0  0  0  0  0  0  0  0  0  0  0  0
   37.0780   33.9420   38.6370 H   0  0  0  0  0  0  0  0  0  0  0  0
   36.6320   32.1850   38.0960 H   0  0  0  0  0  0  0  0  0  0  0  0
   39.3390   33.2260   39.3790 H   0  0  0  0  0  0  0  0  0  0  0  0
   39.2070   30.9490   38.4300 S   0  0  0  0  0  0  0  0  0  0  0  0
   38.9960   29.7840   39.1870 H   0  0  0  0  0  0  0  0  0  0  0  0
   37.2730   27.4070   43.5590 C   0  0  0  0  0  0  0  0  0  0  0  0
   36.5020   27.0930   42.7970 H   0  0  0  0  0  0  0  0  0  0  0  0
   36.8200   27.1340   44.5270 H   0  0  0  0  0  0  0  0  0  0  0  0
   36.6210   24.8750   42.1500 Cl  0  0  0  0  0  0  0  0  0  0  0  0
   38.2360   25.2770   42.6320 C   0  0  0  0  0  0  0  0  0  0  0  0
   38.4210   26.4870   43.2850 C   0  0  0  0  0  0  0  0  0  0  0  0
   39.6980   26.8140   43.6750 C   0  0  0  0  0  0  0  0  0  0  0  0
   40.7620   25.9750   43.4270 C   0  0  0  0  0  0  0  0  0  0  0  0
   40.5560   24.7550   42.7650 C   0  0  0  0  0  0  0  0  0  0  0  0
   39.2700   24.4300   42.3740 C   0  0  0  0  0  0  0  0  0  0  0  0
   39.9210   27.7470   44.1930 H   0  0  0  0  0  0  0  0  0  0  0  0
   41.7780   26.2170   43.7280 H   0  0  0  0  0  0  0  0  0  0  0  0
   41.3640   24.0860   42.5610 H   0  0  0  0  0  0  0  0  0  0  0  0
   38.9730   23.2370   41.7100 O   0  0  0  0  0  0  0  0  0  0  0  0
   38.3400   22.5420   42.0300 H   0  0  0  0  0  0  0  0  0  0  0  0
  1  3  1  0  0  0  0
  1 21  1  0  0  0  0
  1  2  1  0  0  0  0
  4  1  1  0  0  0  0
  5 10  1  0  0  0  0
  5  4  2  0  0  0  0
  6  5  1  0  0  0  0
  7  6  2  0  0  0  0
  7  8  1  0  0  0  0
  8  9  2  0  0  0  0
  9  4  1  0  0  0  0
 11  6  1  0  0  0  0
 12  8  1  0  0  0  0
 12 15  1  1  0  0  0
 13 14  1  0  0  0  0
 13 12  1  0  0  0  0
 14 18  1  1  0  0  0
 14 12  1  0  0  0  0
 16 13  1  0  0  0  0
 17 13  1  0  0  0  0
 19 20  1  0  0  0  0
 19 14  1  0  0  0  0
 21 23  1  0  0  0  0
 22 21  1  0  0  0  0
 24 25  1  0  0  0  0
 25 26  1  0  0  0  0
 26 21  1  0  0  0  0
 26 27  2  0  0  0  0
 27 31  1  0  0  0  0
 28 27  1  0  0  0  0
 28 32  1  0  0  0  0
 29 28  2  0  0  0  0
 30 25  2  0  0  0  0
 30 29  1  0  0  0  0
 33 29  1  0  0  0  0
 34 35  1  0  0  0  0
 34 30  1  0  0  0  0
M  END
>  <minimizedAffinity>
-5.5620718

$$$$

 OpenBabel03242519183D

 35 37  0  0  1  0  0  0  0  0999 V2000
   35.7900   29.6400   41.0530 C   0  0  0  0  0  0  0  0  0  0  0  0
   35.0190   29.9890   41.7670 H   0  0  0  0  0  0  0  0  0  0  0  0
   35.2620   29.0950   40.2450 H   0  0  0  0  0  0  0  0  0  0  0  0
   36.7070   28.7710   41.7660 C   0  0  0  0  0  0  0  0  0  0  0  0
   37.7160   29.2710   42.5590 C   0  0  0  0  0  0  0  0  0  0  0  0
   38.6130   28.4550   43.2440 C   0  0  0  0  0  0  0  0  0  0  0  0
   38.4290   27.1180   43.0800 N   0  0  0  0  0  0  0  0  0  0  0  0
   37.4440   26.6410   42.3070 C   0  0  0  0  0  0  0  0  0  0  0  0
   36.5980   27.4530   41.6620 N   0  0  0  0  0  0  0  0  0  0  0  0
   37.8010   30.3410   42.6410 H   0  0  0  0  0  0  0  0  0  0  0  0
   39.3790   28.9000   43.8470 H   0  0  0  0  0  0  0  0  0  0  0  0
   37.2580   25.1690   42.1000 C   0  0  2  0  0  0  0  0  0  0  0  0
   38.4240   24.2590   42.3050 C   0  0  0  0  0  0  0  0  0  0  0  0
   37.8910   24.5760   40.8970 C   0  0  2  0  0  0  0  0  0  0  0  0
   36.2060   24.8750   42.2690 H   0  0  0  0  0  0  0  0  0  0  0  0
   38.1620   23.2500   42.6680 H   0  0  0  0  0  0  0  0  0  0  0  0
   39.3690   24.7070   42.6350 H   0  0  0  0  0  0  0  0  0  0  0  0
   37.3360   23.7800   40.3850 H   0  0  0  0  0  0  0  0  0  0  0  0
   39.0490   25.4900   39.8880 S   0  0  0  0  0  0  0  0  0  0  0  0
   38.8110   26.8750   39.8920 H   0  0  0  0  0  0  0  0  0  0  0  0
   36.5050   30.7870   40.4600 C   0  0  0  0  0  0  0  0  0  0  0  0
   37.5630   30.8450   40.8490 H   0  0  0  0  0  0  0  0  0  0  0  0
   36.0830   31.7820   40.6850 H   0  0  0  0  0  0  0  0  0  0  0  0
   38.3410   32.7510   39.1960 Cl  0  0  0  0  0  0  0  0  0  0  0  0
   37.5250   31.5250   38.2820 C   0  0  0  0  0  0  0  0  0  0  0  0
   36.6900   30.6640   38.9800 C   0  0  0  0  0  0  0  0  0  0  0  0
   36.0350   29.6900   38.2640 C   0  0  0  0  0  0  0  0  0  0  0  0
   36.1980   29.5670   36.9010 C   0  0  0  0  0  0  0  0  0  0  0  0
   37.0470   30.4470   36.2130 C   0  0  0  0  0  0  0  0  0  0  0  0
   37.7040   31.4240   36.9370 C   0  0  0  0  0  0  0  0  0  0  0  0
   35.3620   28.9780   38.7430 H   0  0  0  0  0  0  0  0  0  0  0  0
   35.6880   28.8030   36.3200 H   0  0  0  0  0  0  0  0  0  0  0  0
   37.1910   30.3730   35.1560 H   0  0  0  0  0  0  0  0  0  0  0  0
   38.5690   32.3430   36.3330 O   0  0  0  0  0  0  0  0  0  0  0  0
   38.4660   33.3300   36.3560 H   0  0  0  0  0  0  0  0  0  0  0  0
  1  4  1  0  0  0  0
  1  2  1  0  0  0  0
  3  1  1  0  0  0  0
  4  5  1  0  0  0  0
  5 10  1  0  0  0  0
  5  6  2  0  0  0  0
  6 11  1  0  0  0  0
  7  6  1  0  0  0  0
  8  7  2  0  0  0  0
  9  4  2  0  0  0  0
  9  8  1  0  0  0  0
 12 15  1  1  0  0  0
 12 13  1  0  0  0  0
 12  8  1  0  0  0  0
 13 17  1  0  0  0  0
 13 16  1  0  0  0  0
 14 18  1  6  0  0  0
 14 12  1  0  0  0  0
 14 13  1  0  0  0  0
 19 20  1  0  0  0  0
 19 14  1  0  0  0  0
 21 23  1  0  0  0  0
 21 22  1  0  0  0  0
 21  1  1  0  0  0  0
 25 26  1  0  0  0  0
 25 24  1  0  0  0  0
 26 21  1  0  0  0  0
 27 31  1  0  0  0  0
 27 26  2  0  0  0  0
 28 27  1  0  0  0  0
 29 28  2  0  0  0  0
 29 30  1  0  0  0  0
 30 25  2  0  0  0  0
 32 28  1  0  0  0  0
 33 29  1  0  0  0  0
 34 35  1  0  0  0  0
 34 30  1  0  0  0  0
M  END
>  <minimizedAffinity>
-5.54178619

$$$$

 OpenBabel03242519183D

 35 37  0  0  1  0  0  0  0  0999 V2000
   36.7260   27.1930   40.4690 C   0  0  0  0  0  0  0  0  0  0  0  0
   37.5860   26.5990   40.1030 H   0  0  0  0  0  0  0  0  0  0  0  0
   35.8140   26.5930   40.2840 H   0  0  0  0  0  0  0  0  0  0  0  0
   36.6960   28.4440   39.7330 C   0  0  0  0  0  0  0  0  0  0  0  0
   36.4930   28.4840   38.3730 C   0  0  0  0  0  0  0  0  0  0  0  0
   36.4710   29.6730   37.6460 C   0  0  0  0  0  0  0  0  0  0  0  0
   36.6630   30.8050   38.3730 N   0  0  0  0  0  0  0  0  0  0  0  0
   36.8580   30.7560   39.6980 C   0  0  0  0  0  0  0  0  0  0  0  0
   36.8740   29.5970   40.3660 N   0  0  0  0  0  0  0  0  0  0  0  0
   36.3490   27.5470   37.8630 H   0  0  0  0  0  0  0  0  0  0  0  0
   36.3090   29.6430   36.5870 H   0  0  0  0  0  0  0  0  0  0  0  0
   37.1000   32.0000   40.4980 C   0  0  2  0  0  0  0  0  0  0  0  0
   37.5550   33.2330   39.7910 C   0  0  0  0  0  0  0  0  0  0  0  0
   38.5120   32.4170   40.6770 C   0  0  2  0  0  0  0  0  0  0  0  0
   36.4900   32.0030   41.4190 H   0  0  0  0  0  0  0  0  0  0  0  0
   37.2150   34.1790   40.2490 H   0  0  0  0  0  0  0  0  0  0  0  0
   37.6620   33.1870   38.7000 H   0  0  0  0  0  0  0  0  0  0  0  0
   38.7830   32.8510   41.6470 H   0  0  0  0  0  0  0  0  0  0  0  0
   39.8480   31.6550   39.7660 S   0  0  0  0  0  0  0  0  0  0  0  0
   39.5950   30.3130   39.4340 H   0  0  0  0  0  0  0  0  0  0  0  0
   36.8450   27.4390   41.9200 C   0  0  0  0  0  0  0  0  0  0  0  0
   36.0630   26.8580   42.4900 H   0  0  0  0  0  0  0  0  0  0  0  0
   36.6910   28.4830   42.2420 H   0  0  0  0  0  0  0  0  0  0  0  0
   37.1170   24.4910   42.1710 Cl  0  0  0  0  0  0  0  0  0  0  0  0
   38.3720   25.5820   42.6590 C   0  0  0  0  0  0  0  0  0  0  0  0
   38.1320   26.9390   42.4970 C   0  0  0  0  0  0  0  0  0  0  0  0
   39.1200   27.8130   42.8840 C   0  0  0  0  0  0  0  0  0  0  0  0
   40.3100   27.3640   43.4150 C   0  0  0  0  0  0  0  0  0  0  0  0
   40.5340   25.9880   43.5730 C   0  0  0  0  0  0  0  0  0  0  0  0
   39.5380   25.1120   43.1810 C   0  0  0  0  0  0  0  0  0  0  0  0
   39.0040   28.8930   42.7870 H   0  0  0  0  0  0  0  0  0  0  0  0
   41.1010   28.0400   43.7270 H   0  0  0  0  0  0  0  0  0  0  0  0
   41.4470   25.6130   43.9820 H   0  0  0  0  0  0  0  0  0  0  0  0
   39.6760   23.7260   43.3010 O   0  0  0  0  0  0  0  0  0  0  0  0
   39.0760   23.1320   43.8230 H   0  0  0  0  0  0  0  0  0  0  0  0
  1 21  1  0  0  0  0
  2  1  1  0  0  0  0
  3  1  1  0  0  0  0
  4  9  1  0  0  0  0
  4  1  1  0  0  0  0
  5  4  2  0  0  0  0
  6  5  1  0  0  0  0
  6  7  2  0  0  0  0
  7  8  1  0  0  0  0
  8  9  2  0  0  0  0
  8 12  1  0  0  0  0
 10  5  1  0  0  0  0
 11  6  1  0  0  0  0
 12 14  1  0  0  0  0
 12 15  1  1  0  0  0
 13 16  1  0  0  0  0
 13 12  1  0  0  0  0
 13 14  1  0  0  0  0
 14 18  1  1  0  0  0
 17 13  1  0  0  0  0
 19 14  1  0  0  0  0
 20 19  1  0  0  0  0
 21 23  1  0  0  0  0
 21 22  1  0  0  0  0
 21 26  1  0  0  0  0
 24 25  1  0  0  0  0
 25 30  1  0  0  0  0
 26 25  2  0  0  0  0
 26 27  1  0  0  0  0
 27 28  2  0  0  0  0
 28 29  1  0  0  0  0
 28 32  1  0  0  0  0
 29 33  1  0  0  0  0
 30 34  1  0  0  0  0
 30 29  2  0  0  0  0
 31 27  1  0  0  0  0
 34 35  1  0  0  0  0
M  END
>  <minimizedAffinity>
-5.53792858

$$$$

 OpenBabel03242519183D

 35 37  0  0  1  0  0  0  0  0999 V2000
   36.5180   27.3340   38.6370 C   0  0  0  0  0  0  0  0  0  0  0  0
   36.0430   26.6870   37.8750 H   0  0  0  0  0  0  0  0  0  0  0  0
   37.4820   27.6810   38.2140 H   0  0  0  0  0  0  0  0  0  0  0  0
   36.7200   26.5450   39.8390 C   0  0  0  0  0  0  0  0  0  0  0  0
   36.6000   25.1740   39.8370 C   0  0  0  0  0  0  0  0  0  0  0  0
   36.7780   24.3980   40.9810 C   0  0  0  0  0  0  0  0  0  0  0  0
   37.0840   25.0880   42.1120 N   0  0  0  0  0  0  0  0  0  0  0  0
   37.2000   26.4230   42.1020 C   0  0  0  0  0  0  0  0  0  0  0  0
   37.0220   27.1390   40.9860 N   0  0  0  0  0  0  0  0  0  0  0  0
   36.3550   24.6960   38.9040 H   0  0  0  0  0  0  0  0  0  0  0  0
   36.6720   23.3340   40.9200 H   0  0  0  0  0  0  0  0  0  0  0  0
   37.5060   27.1880   43.3540 C   0  0  2  0  0  0  0  0  0  0  0  0
   38.0510   28.5730   43.2370 C   0  0  0  0  0  0  0  0  0  0  0  0
   38.9390   27.3960   43.6790 C   0  0  2  0  0  0  0  0  0  0  0  0
   36.8820   26.8360   44.1960 H   0  0  0  0  0  0  0  0  0  0  0  0
   37.7630   29.2510   44.0590 H   0  0  0  0  0  0  0  0  0  0  0  0
   38.1730   28.9900   42.2310 H   0  0  0  0  0  0  0  0  0  0  0  0
   39.2200   27.3550   44.7380 H   0  0  0  0  0  0  0  0  0  0  0  0
   40.2390   27.0120   42.5140 S   0  0  0  0  0  0  0  0  0  0  0  0
   39.9080   25.9600   41.6430 H   0  0  0  0  0  0  0  0  0  0  0  0
   35.6740   28.5130   38.9180 C   0  0  0  0  0  0  0  0  0  0  0  0
   35.4420   28.5870   40.0200 H   0  0  0  0  0  0  0  0  0  0  0  0
   34.6820   28.5150   38.4350 H   0  0  0  0  0  0  0  0  0  0  0  0
   35.7660   30.4860   41.1360 Cl  0  0  0  0  0  0  0  0  0  0  0  0
   36.4640   30.8060   39.5830 C   0  0  0  0  0  0  0  0  0  0  0  0
   36.3590   29.8100   38.6220 C   0  0  0  0  0  0  0  0  0  0  0  0
   36.9060   30.0550   37.3850 C   0  0  0  0  0  0  0  0  0  0  0  0
   37.5400   31.2460   37.1030 C   0  0  0  0  0  0  0  0  0  0  0  0
   37.6370   32.2410   38.0870 C   0  0  0  0  0  0  0  0  0  0  0  0
   37.0850   31.9900   39.3300 C   0  0  0  0  0  0  0  0  0  0  0  0
   36.8620   29.3210   36.5800 H   0  0  0  0  0  0  0  0  0  0  0  0
   37.9780   31.4570   36.1310 H   0  0  0  0  0  0  0  0  0  0  0  0
   38.1220   33.1740   37.8940 H   0  0  0  0  0  0  0  0  0  0  0  0
   37.1350   32.9240   40.3690 O   0  0  0  0  0  0  0  0  0  0  0  0
   36.3480   33.3110   40.8330 H   0  0  0  0  0  0  0  0  0  0  0  0
  1 21  1  0  0  0  0
  1  4  1  0  0  0  0
  2  1  1  0  0  0  0
  3  1  1  0  0  0  0
  4  9  1  0  0  0  0
  5  4  2  0  0  0  0
  5  6  1  0  0  0  0
  6  7  2  0  0  0  0
  8  7  1  0  0  0  0
  8 12  1  0  0  0  0
  9  8  2  0  0  0  0
 10  5  1  0  0  0  0
 11  6  1  0  0  0  0
 12 14  1  0  0  0  0
 12 15  1  1  0  0  0
 13 12  1  0  0  0  0
 13 14  1  0  0  0  0
 13 16  1  0  0  0  0
 14 18  1  1  0  0  0
 17 13  1  0  0  0  0
 19 14  1  0  0  0  0
 20 19  1  0  0  0  0
 21 22  1  0  0  0  0
 23 21  1  0  0  0  0
 25 24  1  0  0  0  0
 26 21  1  0  0  0  0
 26 25  2  0  0  0  0
 27 26  1  0  0  0  0
 28 27  2  0  0  0  0
 28 29  1  0  0  0  0
 29 30  2  0  0  0  0
 30 25  1  0  0  0  0
 30 34  1  0  0  0  0
 31 27  1  0  0  0  0
 32 28  1  0  0  0  0
 33 29  1  0  0  0  0
 34 35  1  0  0  0  0
M  END
>  <minimizedAffinity>
-5.46143723

$$$$

 OpenBabel03242519183D

 35 37  0  0  1  0  0  0  0  0999 V2000
   40.0510   29.6530   41.6950 C   0  0  0  0  0  0  0  0  0  0  0  0
   40.4580   29.2490   40.7470 H   0  0  0  0  0  0  0  0  0  0  0  0
   40.8870   29.6840   42.4210 H   0  0  0  0  0  0  0  0  0  0  0  0
   38.9900   28.7690   42.1440 C   0  0  0  0  0  0  0  0  0  0  0  0
   38.1940   29.0780   43.2230 C   0  0  0  0  0  0  0  0  0  0  0  0
   37.1780   28.2400   43.6770 C   0  0  0  0  0  0  0  0  0  0  0  0
   37.0200   27.0830   42.9800 N   0  0  0  0  0  0  0  0  0  0  0  0
   37.8000   26.7920   41.9300 C   0  0  0  0  0  0  0  0  0  0  0  0
   38.7680   27.6200   41.5190 N   0  0  0  0  0  0  0  0  0  0  0  0
   38.3770   30.0120   43.7270 H   0  0  0  0  0  0  0  0  0  0  0  0
   36.5880   28.5330   44.5230 H   0  0  0  0  0  0  0  0  0  0  0  0
   37.6480   25.5040   41.1790 C   0  0  2  0  0  0  0  0  0  0  0  0
   37.0490   24.3290   41.8780 C   0  0  0  0  0  0  0  0  0  0  0  0
   38.5540   24.3940   41.5630 C   0  0  2  0  0  0  0  0  0  0  0  0
   37.5660   25.6880   40.0920 H   0  0  0  0  0  0  0  0  0  0  0  0
   36.4820   23.6450   41.2230 H   0  0  0  0  0  0  0  0  0  0  0  0
   36.7100   24.4680   42.9110 H   0  0  0  0  0  0  0  0  0  0  0  0
   38.9210   23.7490   40.7540 H   0  0  0  0  0  0  0  0  0  0  0  0
   39.5820   24.4720   43.0230 S   0  0  0  0  0  0  0  0  0  0  0  0
   39.9680   25.7810   43.3570 H   0  0  0  0  0  0  0  0  0  0  0  0
   39.5440   31.0250   41.4980 C   0  0  0  0  0  0  0  0  0  0  0  0
   40.3930   31.7690   41.4880 H   0  0  0  0  0  0  0  0  0  0  0  0
   38.8680   31.4020   42.2840 H   0  0  0  0  0  0  0  0  0  0  0  0
   41.3200   31.9210   39.2920 Cl  0  0  0  0  0  0  0  0  0  0  0  0
   39.6250   31.6410   39.0610 C   0  0  0  0  0  0  0  0  0  0  0  0
   38.8940   31.2270   40.1650 C   0  0  0  0  0  0  0  0  0  0  0  0
   37.5480   31.0050   39.9930 C   0  0  0  0  0  0  0  0  0  0  0  0
   36.9400   31.1870   38.7700 C   0  0  0  0  0  0  0  0  0  0  0  0
   37.6960   31.6070   37.6650 C   0  0  0  0  0  0  0  0  0  0  0  0
   39.0500   31.8280   37.8420 C   0  0  0  0  0  0  0  0  0  0  0  0
   36.9090   30.6790   40.8140 H   0  0  0  0  0  0  0  0  0  0  0  0
   35.8780   31.0170   38.6160 H   0  0  0  0  0  0  0  0  0  0  0  0
   37.2490   31.7550   36.7050 H   0  0  0  0  0  0  0  0  0  0  0  0
   39.8780   32.2470   36.7970 O   0  0  0  0  0  0  0  0  0  0  0  0
   40.4190   33.0790   36.7900 H   0  0  0  0  0  0  0  0  0  0  0  0
  1  4  1  0  0  0  0
  1  3  1  0  0  0  0
  2  1  1  0  0  0  0
  4  5  1  0  0  0  0
  5  6  2  0  0  0  0
  5 10  1  0  0  0  0
  6 11  1  0  0  0  0
  7  6  1  0  0  0  0
  8  7  2  0  0  0  0
  9  8  1  0  0  0  0
  9  4  2  0  0  0  0
 12 15  1  6  0  0  0
 12 14  1  0  0  0  0
 12 13  1  0  0  0  0
 12  8  1  0  0  0  0
 13 17  1  0  0  0  0
 14 18  1  6  0  0  0
 14 13  1  0  0  0  0
 14 19  1  0  0  0  0
 16 13  1  0  0  0  0
 19 20  1  0  0  0  0
 21  1  1  0  0  0  0
 21 23  1  0  0  0  0
 22 21  1  0  0  0  0
 25 24  1  0  0  0  0
 25 26  1  0  0  0  0
 26 21  1  0  0  0  0
 27 26  2  0  0  0  0
 27 31  1  0  0  0  0
 28 27  1  0  0  0  0
 29 30  1  0  0  0  0
 29 28  2  0  0  0  0
 30 25  2  0  0  0  0
 32 28  1  0  0  0  0
 33 29  1  0  0  0  0
 34 30  1  0  0  0  0
 35 34  1  0  0  0  0
M  END
>  <minimizedAffinity>
-5.44183397

$$$$

 OpenBabel03242519183D

 35 37  0  0  1  0  0  0  0  0999 V2000
   36.6800   27.3150   38.5590 C   0  0  0  0  0  0  0  0  0  0  0  0
   36.3840   26.6200   37.7490 H   0  0  0  0  0  0  0  0  0  0  0  0
   37.6560   27.7530   38.2710 H   0  0  0  0  0  0  0  0  0  0  0  0
   36.7820   26.5560   39.7920 C   0  0  0  0  0  0  0  0  0  0  0  0
   36.5930   25.1940   39.8260 C   0  0  0  0  0  0  0  0  0  0  0  0
   36.6760   24.4480   40.9990 C   0  0  0  0  0  0  0  0  0  0  0  0
   36.9610   25.1580   42.1230 N   0  0  0  0  0  0  0  0  0  0  0  0
   37.1440   26.4850   42.0790 C   0  0  0  0  0  0  0  0  0  0  0  0
   37.0570   27.1720   40.9350 N   0  0  0  0  0  0  0  0  0  0  0  0
   36.3710   24.6980   38.8960 H   0  0  0  0  0  0  0  0  0  0  0  0
   36.5200   23.3880   40.9650 H   0  0  0  0  0  0  0  0  0  0  0  0
   37.4270   27.2740   43.3220 C   0  0  2  0  0  0  0  0  0  0  0  0
   37.9930   28.6490   43.1880 C   0  0  0  0  0  0  0  0  0  0  0  0
   38.8530   27.4710   43.6800 C   0  0  2  0  0  0  0  0  0  0  0  0
   36.7760   26.9490   44.1540 H   0  0  0  0  0  0  0  0  0  0  0  0
   37.6920   29.3490   43.9870 H   0  0  0  0  0  0  0  0  0  0  0  0
   38.1470   29.0420   42.1760 H   0  0  0  0  0  0  0  0  0  0  0  0
   39.1050   27.4510   44.7470 H   0  0  0  0  0  0  0  0  0  0  0  0
   40.1790   27.0440   42.5590 S   0  0  0  0  0  0  0  0  0  0  0  0
   39.8570   25.9770   41.7040 H   0  0  0  0  0  0  0  0  0  0  0  0
   35.6940   28.4050   38.6920 C   0  0  0  0  0  0  0  0  0  0  0  0
   35.1430   28.3300   39.6750 H   0  0  0  0  0  0  0  0  0  0  0  0
   34.8900   28.4190   37.9360 H   0  0  0  0  0  0  0  0  0  0  0  0
   36.8560   29.4310   36.1580 Cl  0  0  0  0  0  0  0  0  0  0  0  0
   36.8950   30.3440   37.6310 C   0  0  0  0  0  0  0  0  0  0  0  0
   36.3220   29.7620   38.7530 C   0  0  0  0  0  0  0  0  0  0  0  0
   36.3500   30.4770   39.9280 C   0  0  0  0  0  0  0  0  0  0  0  0
   36.9250   31.7270   39.9950 C   0  0  0  0  0  0  0  0  0  0  0  0
   37.5000   32.2990   38.8490 C   0  0  0  0  0  0  0  0  0  0  0  0
   37.4690   31.5770   37.6700 C   0  0  0  0  0  0  0  0  0  0  0  0
   35.9210   30.0850   40.8500 H   0  0  0  0  0  0  0  0  0  0  0  0
   36.9570   32.3060   40.9140 H   0  0  0  0  0  0  0  0  0  0  0  0
   37.9520   33.2670   38.8740 H   0  0  0  0  0  0  0  0  0  0  0  0
   38.0170   32.0690   36.4820 O   0  0  0  0  0  0  0  0  0  0  0  0
   38.7350   31.6310   35.9550 H   0  0  0  0  0  0  0  0  0  0  0  0
  1 21  1  0  0  0  0
  1  4  1  0  0  0  0
  2  1  1  0  0  0  0
  3  1  1  0  0  0  0
  4  5  2  0  0  0  0
  4  9  1  0  0  0  0
  5  6  1  0  0  0  0
  6  7  2  0  0  0  0
  8  7  1  0  0  0  0
  8 12  1  0  0  0  0
  9  8  2  0  0  0  0
 10  5  1  0  0  0  0
 11  6  1  0  0  0  0
 12 14  1  0  0  0  0
 12 15  1  1  0  0  0
 13 12  1  0  0  0  0
 13 14  1  0  0  0  0
 13 16  1  0  0  0  0
 14 18  1  1  0  0  0
 17 13  1  0  0  0  0
 19 14  1  0  0  0  0
 20 19  1  0  0  0  0
 21 26  1  0  0  0  0
 21 22  1  0  0  0  0
 23 21  1  0  0  0  0
 24 25  1  0  0  0  0
 25 30  2  0  0  0  0
 25 26  1  0  0  0  0
 26 27  2  0  0  0  0
 27 28  1  0  0  0  0
 27 31  1  0  0  0  0
 28 32  1  0  0  0  0
 29 33  1  0  0  0  0
 29 28  2  0  0  0  0
 30 29  1  0  0  0  0
 34 30  1  0  0  0  0
 35 34  1  0  0  0  0
M  END
>  <minimizedAffinity>
-5.4021287

$$$$

 OpenBabel03242519183D

 35 37  0  0  1  0  0  0  0  0999 V2000
   37.2020   29.1320   42.4380 C   0  0  0  0  0  0  0  0  0  0  0  0
   36.8210   28.5300   41.5900 H   0  0  0  0  0  0  0  0  0  0  0  0
   36.3320   29.6510   42.8870 H   0  0  0  0  0  0  0  0  0  0  0  0
   38.1740   30.0790   41.9210 C   0  0  0  0  0  0  0  0  0  0  0  0
   39.3310   30.3800   42.6020 C   0  0  0  0  0  0  0  0  0  0  0  0
   40.2710   31.2920   42.1280 C   0  0  0  0  0  0  0  0  0  0  0  0
   39.9710   31.8740   40.9370 N   0  0  0  0  0  0  0  0  0  0  0  0
   38.8420   31.5740   40.2810 C   0  0  0  0  0  0  0  0  0  0  0  0
   37.9590   30.6920   40.7630 N   0  0  0  0  0  0  0  0  0  0  0  0
   39.5010   29.8800   43.5400 H   0  0  0  0  0  0  0  0  0  0  0  0
   41.1550   31.4870   42.7020 H   0  0  0  0  0  0  0  0  0  0  0  0
   38.4950   32.2370   38.9830 C   0  0  2  0  0  0  0  0  0  0  0  0
   37.5490   31.5510   38.0540 C   0  0  0  0  0  0  0  0  0  0  0  0
   39.0550   31.6310   37.7500 C   0  0  2  0  0  0  0  0  0  0  0  0
   38.6050   33.3340   39.0570 H   0  0  0  0  0  0  0  0  0  0  0  0
   36.9300   32.2310   37.4430 H   0  0  0  0  0  0  0  0  0  0  0  0
   37.1150   30.5970   38.3790 H   0  0  0  0  0  0  0  0  0  0  0  0
   39.3650   32.3190   36.9540 H   0  0  0  0  0  0  0  0  0  0  0  0
   39.8670   30.0380   37.7620 S   0  0  0  0  0  0  0  0  0  0  0  0
   40.5000   29.7510   38.9830 H   0  0  0  0  0  0  0  0  0  0  0  0
   37.8120   28.2590   43.4610 C   0  0  0  0  0  0  0  0  0  0  0  0
   37.1350   28.1610   44.3590 H   0  0  0  0  0  0  0  0  0  0  0  0
   38.7670   28.6130   43.8840 H   0  0  0  0  0  0  0  0  0  0  0  0
   40.5480   27.1250   43.6790 Cl  0  0  0  0  0  0  0  0  0  0  0  0
   39.2130   26.2100   43.0590 C   0  0  0  0  0  0  0  0  0  0  0  0
   37.9810   26.8450   43.0010 C   0  0  0  0  0  0  0  0  0  0  0  0
   36.9160   26.1300   42.5070 C   0  0  0  0  0  0  0  0  0  0  0  0
   37.0610   24.8270   42.0820 C   0  0  0  0  0  0  0  0  0  0  0  0
   38.3150   24.2010   42.1480 C   0  0  0  0  0  0  0  0  0  0  0  0
   39.3830   24.9240   42.6460 C   0  0  0  0  0  0  0  0  0  0  0  0
   35.9180   26.5610   42.4310 H   0  0  0  0  0  0  0  0  0  0  0  0
   36.2310   24.2460   41.6890 H   0  0  0  0  0  0  0  0  0  0  0  0
   38.4540   23.1920   41.8250 H   0  0  0  0  0  0  0  0  0  0  0  0
   40.6670   24.3810   42.7470 O   0  0  0  0  0  0  0  0  0  0  0  0
   41.4810   24.7440   42.3100 H   0  0  0  0  0  0  0  0  0  0  0  0
  1  3  1  0  0  0  0
  1 21  1  0  0  0  0
  2  1  1  0  0  0  0
  4  1  1  0  0  0  0
  4  5  1  0  0  0  0
  5 10  1  0  0  0  0
  6  5  2  0  0  0  0
  6 11  1  0  0  0  0
  7  6  1  0  0  0  0
  8  9  1  0  0  0  0
  8  7  2  0  0  0  0
  9  4  2  0  0  0  0
 12 15  1  1  0  0  0
 12  8  1  0  0  0  0
 13 17  1  0  0  0  0
 13 12  1  0  0  0  0
 14 18  1  6  0  0  0
 14 19  1  0  0  0  0
 14 13  1  0  0  0  0
 14 12  1  0  0  0  0
 16 13  1  0  0  0  0
 19 20  1  0  0  0  0
 21 23  1  0  0  0  0
 21 22  1  0  0  0  0
 25 24  1  0  0  0  0
 26 25  1  0  0  0  0
 26 21  1  0  0  0  0
 27 26  2  0  0  0  0
 28 29  2  0  0  0  0
 28 27  1  0  0  0  0
 29 30  1  0  0  0  0
 30 34  1  0  0  0  0
 30 25  2  0  0  0  0
 31 27  1  0  0  0  0
 32 28  1  0  0  0  0
 33 29  1  0  0  0  0
 35 34  1  0  0  0  0
M  END
>  <minimizedAffinity>
-5.32388878

$$$$

 OpenBabel03242519183D

 35 37  0  0  1  0  0  0  0  0999 V2000
   36.7690   27.5670   40.7740 C   0  0  0  0  0  0  0  0  0  0  0  0
   37.5510   26.9510   40.2890 H   0  0  0  0  0  0  0  0  0  0  0  0
   35.7910   27.2070   40.3970 H   0  0  0  0  0  0  0  0  0  0  0  0
   36.9980   28.9540   40.4150 C   0  0  0  0  0  0  0  0  0  0  0  0
   36.3400   29.9870   41.0430 C   0  0  0  0  0  0  0  0  0  0  0  0
   36.5370   31.3240   40.7070 C   0  0  0  0  0  0  0  0  0  0  0  0
   37.4300   31.5500   39.7070 N   0  0  0  0  0  0  0  0  0  0  0  0
   38.0660   30.5370   39.1020 C   0  0  0  0  0  0  0  0  0  0  0  0
   37.8550   29.2630   39.4500 N   0  0  0  0  0  0  0  0  0  0  0  0
   35.6460   29.7320   41.8260 H   0  0  0  0  0  0  0  0  0  0  0  0
   35.9960   32.0870   41.2320 H   0  0  0  0  0  0  0  0  0  0  0  0
   39.0290   30.7810   37.9800 C   0  0  2  0  0  0  0  0  0  0  0  0
   40.1050   29.7790   37.7230 C   0  0  0  0  0  0  0  0  0  0  0  0
   40.4160   31.1480   38.3540 C   0  0  2  0  0  0  0  0  0  0  0  0
   38.5710   31.4140   37.1970 H   0  0  0  0  0  0  0  0  0  0  0  0
   40.4100   29.6920   36.6650 H   0  0  0  0  0  0  0  0  0  0  0  0
   40.1260   28.8800   38.3510 H   0  0  0  0  0  0  0  0  0  0  0  0
   40.9250   31.8840   37.7190 H   0  0  0  0  0  0  0  0  0  0  0  0
   41.0040   31.0360   40.0390 S   0  0  0  0  0  0  0  0  0  0  0  0
   39.9900   31.2360   40.9910 H   0  0  0  0  0  0  0  0  0  0  0  0
   36.8060   27.3900   42.2400 C   0  0  0  0  0  0  0  0  0  0  0  0
   36.0700   26.5980   42.5660 H   0  0  0  0  0  0  0  0  0  0  0  0
   36.5270   28.2760   42.8350 H   0  0  0  0  0  0  0  0  0  0  0  0
   37.1590   24.4410   42.1630 Cl  0  0  0  0  0  0  0  0  0  0  0  0
   38.3950   25.5070   42.7450 C   0  0  0  0  0  0  0  0  0  0  0  0
   38.1170   26.8660   42.7360 C   0  0  0  0  0  0  0  0  0  0  0  0
   39.0900   27.7200   43.1990 C   0  0  0  0  0  0  0  0  0  0  0  0
   40.3010   27.2500   43.6570 C   0  0  0  0  0  0  0  0  0  0  0  0
   40.5640   25.8710   43.6590 C   0  0  0  0  0  0  0  0  0  0  0  0
   39.5830   25.0160   43.1920 C   0  0  0  0  0  0  0  0  0  0  0  0
   38.9440   28.8010   43.2220 H   0  0  0  0  0  0  0  0  0  0  0  0
   41.0810   27.9100   44.0270 H   0  0  0  0  0  0  0  0  0  0  0  0
   41.4950   25.4800   44.0090 H   0  0  0  0  0  0  0  0  0  0  0  0
   39.7590   23.6290   43.1580 O   0  0  0  0  0  0  0  0  0  0  0  0
   39.1860   22.9650   43.6210 H   0  0  0  0  0  0  0  0  0  0  0  0
  1 21  1  0  0  0  0
  2  1  1  0  0  0  0
  3  1  1  0  0  0  0
  4  1  1  0  0  0  0
  4  5  1  0  0  0  0
  5 10  1  0  0  0  0
  6  5  2  0  0  0  0
  6 11  1  0  0  0  0
  7  6  1  0  0  0  0
  8  9  1  0  0  0  0
  8  7  2  0  0  0  0
  9  4  2  0  0  0  0
 12 15  1  6  0  0  0
 12 14  1  0  0  0  0
 12  8  1  0  0  0  0
 13 12  1  0  0  0  0
 13 17  1  0  0  0  0
 13 14  1  0  0  0  0
 14 18  1  6  0  0  0
 14 19  1  0  0  0  0
 16 13  1  0  0  0  0
 19 20  1  0  0  0  0
 21 22  1  0  0  0  0
 21 26  1  0  0  0  0
 21 23  1  0  0  0  0
 24 25  1  0  0  0  0
 25 30  1  0  0  0  0
 26 25  2  0  0  0  0
 26 27  1  0  0  0  0
 27 31  1  0  0  0  0
 27 28  2  0  0  0  0
 28 29  1  0  0  0  0
 28 32  1  0  0  0  0
 29 33  1  0  0  0  0
 30 29  2  0  0  0  0
 34 30  1  0  0  0  0
 34 35  1  0  0  0  0
M  END
>  <minimizedAffinity>
-5.25971127

$$$$
