
 OpenBabel03252508583D

 32 33  0  0  1  0  0  0  0  0999 V2000
   48.1450   33.0650   42.4890 N   0  0  0  0  0  0  0  0  0  0  0  0
   48.0430   31.6620   42.3740 C   0  0  0  0  0  0  0  0  0  0  0  0
   47.6370   31.1150   41.0490 C   0  0  0  0  0  0  0  0  0  0  0  0
   48.0730   31.9250   39.8770 C   0  0  0  0  0  0  0  0  0  0  0  0
   48.8840   33.1380   40.2710 C   0  0  0  0  0  0  0  0  0  0  0  0
   48.0110   33.8580   41.3250 C   0  0  2  0  0  0  0  0  0  0  0  0
   49.0320   31.2030   42.6250 H   0  0  0  0  0  0  0  0  0  0  0  0
   47.3540   31.2650   43.1750 H   0  0  0  0  0  0  0  0  0  0  0  0
   46.5090   31.1170   41.0370 H   0  0  0  0  0  0  0  0  0  0  0  0
   47.9210   30.0460   40.9990 H   0  0  0  0  0  0  0  0  0  0  0  0
   47.2560   32.2940   39.2250 H   0  0  0  0  0  0  0  0  0  0  0  0
   48.7690   31.2920   39.2830 H   0  0  0  0  0  0  0  0  0  0  0  0
   49.0020   33.8090   39.4150 H   0  0  0  0  0  0  0  0  0  0  0  0
   49.8580   32.8760   40.7430 H   0  0  0  0  0  0  0  0  0  0  0  0
   47.0160   33.8750   40.8450 H   0  0  0  0  0  0  0  0  0  0  0  0
   47.6800   33.6320   43.7260 C   0  0  0  0  0  0  0  0  0  0  0  0
   47.8750   34.7210   43.8240 H   0  0  0  0  0  0  0  0  0  0  0  0
   48.2570   33.1570   44.5600 H   0  0  0  0  0  0  0  0  0  0  0  0
   46.2250   33.3730   43.9140 C   0  0  0  0  0  0  0  0  0  0  0  0
   45.6860   34.3220   43.8240 H   0  0  0  0  0  0  0  0  0  0  0  0
   45.7940   32.6710   43.1730 H   0  0  0  0  0  0  0  0  0  0  0  0
   45.3240   32.9530   47.5330 C   0  0  0  0  0  0  0  0  0  0  0  0
   45.5660   33.5420   46.2740 C   0  0  0  0  0  0  0  0  0  0  0  0
   45.9810   32.7590   45.2240 C   0  0  0  0  0  0  0  0  0  0  0  0
   46.1400   31.4470   45.4600 N   0  0  0  0  0  0  0  0  0  0  0  0
   45.9090   30.8850   46.6680 C   0  0  0  0  0  0  0  0  0  0  0  0
   45.5030   31.6160   47.7100 N   0  0  0  0  0  0  0  0  0  0  0  0
   45.0020   33.5280   48.3660 H   0  0  0  0  0  0  0  0  0  0  0  0
   45.4110   34.6120   46.1770 H   0  0  0  0  0  0  0  0  0  0  0  0
   46.0570   29.8160   46.7900 H   0  0  0  0  0  0  0  0  0  0  0  0
   48.7850   35.4820   41.4790 S   0  0  0  0  0  0  0  0  0  0  0  0
   48.0830   36.2300   42.4380 H   0  0  0  0  0  0  0  0  0  0  0  0
  1 16  1  0  0  0  0
  2  1  1  0  0  0  0
  2  7  1  0  0  0  0
  2  8  1  0  0  0  0
  3  2  1  0  0  0  0
  4  5  1  0  0  0  0
  4  3  1  0  0  0  0
  5 14  1  0  0  0  0
  5  6  1  0  0  0  0
  6 15  1  6  0  0  0
  6 31  1  0  0  0  0
  6  1  1  0  0  0  0
  9  3  1  0  0  0  0
 10  3  1  0  0  0  0
 11  4  1  0  0  0  0
 12  4  1  0  0  0  0
 13  5  1  0  0  0  0
 16 17  1  0  0  0  0
 16 19  1  0  0  0  0
 16 18  1  0  0  0  0
 19 24  1  0  0  0  0
 20 19  1  0  0  0  0
 21 19  1  0  0  0  0
 22 27  1  0  0  0  0
 22 28  1  0  0  0  0
 23 22  2  0  0  0  0
 24 25  2  0  0  0  0
 24 23  1  0  0  0  0
 25 26  1  0  0  0  0
 26 30  1  0  0  0  0
 26 27  2  0  0  0  0
 29 23  1  0  0  0  0
 31 32  1  0  0  0  0
M  END
>  <minimizedAffinity>
-3.14436698

>  <minimizedRMSD>
2.79673553

$$$$
