
 OpenBabel03252501393D

 28 29  0  0  0  0  0  0  0  0999 V2000
   39.4150   30.7210   42.1990 C   0  0  0  0  0  0  0  0  0  0  0  0
   38.9910   30.6590   40.9930 O   0  0  0  0  0  0  0  0  0  0  0  0
   40.4200   31.7190   42.3670 N   0  0  0  0  0  0  0  0  0  0  0  0
   40.8340   31.9020   43.2930 H   0  0  0  0  0  0  0  0  0  0  0  0
   40.6900   32.3410   41.0800 C   0  0  0  0  0  0  0  0  0  0  0  0
   40.0010   33.3950   40.5490 C   0  0  0  0  0  0  0  0  0  0  0  0
   40.4180   33.8410   39.3110 C   0  0  0  0  0  0  0  0  0  0  0  0
   41.4630   33.2120   38.7210 N   0  0  0  0  0  0  0  0  0  0  0  0
   42.1100   32.1820   39.2790 C   0  0  0  0  0  0  0  0  0  0  0  0
   41.7270   31.7200   40.4940 N   0  0  0  0  0  0  0  0  0  0  0  0
   39.8820   34.6750   38.8780 H   0  0  0  0  0  0  0  0  0  0  0  0
   42.9520   31.7200   38.7400 H   0  0  0  0  0  0  0  0  0  0  0  0
   38.9390   33.9290   41.3030 N   0  0  0  0  0  0  0  0  0  0  0  0
   38.0920   33.3400   41.4900 H   0  0  0  0  0  0  0  0  0  0  0  0
   38.9940   34.8950   41.6690 H   0  0  0  0  0  0  0  0  0  0  0  0
   38.9750   29.9250   43.2640 O   0  0  0  0  0  0  0  0  0  0  0  0
   41.0150   27.7930   43.4690 Cl  0  0  0  0  0  0  0  0  0  0  0  0
   39.3240   27.6000   43.0520 C   0  0  0  0  0  0  0  0  0  0  0  0
   38.4420   28.6650   42.9810 C   0  0  0  0  0  0  0  0  0  0  0  0
   37.1260   28.4490   42.6490 C   0  0  0  0  0  0  0  0  0  0  0  0
   36.6200   27.2010   42.3750 C   0  0  0  0  0  0  0  0  0  0  0  0
   37.4900   26.1100   42.4400 C   0  0  0  0  0  0  0  0  0  0  0  0
   36.9250   24.4730   42.1030 Cl  0  0  0  0  0  0  0  0  0  0  0  0
   38.8010   26.3630   42.7750 C   0  0  0  0  0  0  0  0  0  0  0  0
   36.4750   29.3130   42.6070 H   0  0  0  0  0  0  0  0  0  0  0  0
   35.5740   27.0560   42.1140 H   0  0  0  0  0  0  0  0  0  0  0  0
   39.8880   24.9320   42.8470 S   0  0  0  0  0  0  0  0  0  0  0  0
   39.7860   24.3370   44.1410 H   0  0  0  0  0  0  0  0  0  0  0  0
  1  3  1  0  0  0  0
  1 16  1  0  0  0  0
  2  1  2  0  0  0  0
  3  4  1  0  0  0  0
  5  3  1  0  0  0  0
  6  5  1  0  0  0  0
  6 13  1  0  0  0  0
  7  6  2  0  0  0  0
  8  9  2  0  0  0  0
  8  7  1  0  0  0  0
  9 10  1  0  0  0  0
 10  5  2  0  0  0  0
 11  7  1  0  0  0  0
 12  9  1  0  0  0  0
 13 14  1  0  0  0  0
 13 15  1  0  0  0  0
 18 17  1  0  0  0  0
 19 18  1  0  0  0  0
 19 16  1  0  0  0  0
 20 19  2  0  0  0  0
 21 22  2  0  0  0  0
 21 20  1  0  0  0  0
 22 24  1  0  0  0  0
 23 22  1  0  0  0  0
 24 27  1  0  0  0  0
 24 18  2  0  0  0  0
 25 20  1  0  0  0  0
 26 21  1  0  0  0  0
 27 28  1  0  0  0  0
M  END
>  <minimizedAffinity>
-5.56906033

$$$$

 OpenBabel03252501393D

 28 29  0  0  0  0  0  0  0  0999 V2000
   37.8560   31.0390   41.0090 C   0  0  0  0  0  0  0  0  0  0  0  0
   39.0960   30.9490   41.3130 O   0  0  0  0  0  0  0  0  0  0  0  0
   37.6220   31.9860   39.9690 N   0  0  0  0  0  0  0  0  0  0  0  0
   36.6720   32.1440   39.6010 H   0  0  0  0  0  0  0  0  0  0  0  0
   38.8850   32.6030   39.5960 C   0  0  0  0  0  0  0  0  0  0  0  0
   39.4860   33.6400   40.2540 C   0  0  0  0  0  0  0  0  0  0  0  0
   40.6870   34.0820   39.7380 C   0  0  0  0  0  0  0  0  0  0  0  0
   41.1770   33.4660   38.6350 N   0  0  0  0  0  0  0  0  0  0  0  0
   40.5550   32.4510   38.0230 C   0  0  0  0  0  0  0  0  0  0  0  0
   39.3730   31.9930   38.5030 N   0  0  0  0  0  0  0  0  0  0  0  0
   41.1740   34.9030   40.2480 H   0  0  0  0  0  0  0  0  0  0  0  0
   41.0140   31.9990   37.1300 H   0  0  0  0  0  0  0  0  0  0  0  0
   38.8330   34.1610   41.3880 N   0  0  0  0  0  0  0  0  0  0  0  0
   37.9060   34.6360   41.2770 H   0  0  0  0  0  0  0  0  0  0  0  0
   39.2680   34.0740   42.3230 H   0  0  0  0  0  0  0  0  0  0  0  0
   36.8140   30.3130   41.6000 O   0  0  0  0  0  0  0  0  0  0  0  0
   36.1810   28.7370   39.1780 Cl  0  0  0  0  0  0  0  0  0  0  0  0
   36.7150   28.1220   40.7300 C   0  0  0  0  0  0  0  0  0  0  0  0
   36.9880   28.9430   41.8100 C   0  0  0  0  0  0  0  0  0  0  0  0
   37.4050   28.3990   43.0010 C   0  0  0  0  0  0  0  0  0  0  0  0
   37.5720   27.0480   43.1880 C   0  0  0  0  0  0  0  0  0  0  0  0
   37.3030   26.1980   42.1130 C   0  0  0  0  0  0  0  0  0  0  0  0
   37.4900   24.4510   42.2640 Cl  0  0  0  0  0  0  0  0  0  0  0  0
   36.8880   26.7760   40.9350 C   0  0  0  0  0  0  0  0  0  0  0  0
   37.6060   29.0820   43.8170 H   0  0  0  0  0  0  0  0  0  0  0  0
   37.9030   26.6420   44.1410 H   0  0  0  0  0  0  0  0  0  0  0  0
   36.5510   25.6470   39.5760 S   0  0  0  0  0  0  0  0  0  0  0  0
   37.7720   25.3770   38.8860 H   0  0  0  0  0  0  0  0  0  0  0  0
  1  2  2  0  0  0  0
  1 16  1  0  0  0  0
  3  1  1  0  0  0  0
  4  3  1  0  0  0  0
  5  3  1  0  0  0  0
  5  6  1  0  0  0  0
  6 13  1  0  0  0  0
  7 11  1  0  0  0  0
  7  6  2  0  0  0  0
  8  7  1  0  0  0  0
  9 10  1  0  0  0  0
  9  8  2  0  0  0  0
 10  5  2  0  0  0  0
 12  9  1  0  0  0  0
 13 15  1  0  0  0  0
 14 13  1  0  0  0  0
 16 19  1  0  0  0  0
 17 18  1  0  0  0  0
 18 24  2  0  0  0  0
 18 19  1  0  0  0  0
 19 20  2  0  0  0  0
 20 21  1  0  0  0  0
 20 25  1  0  0  0  0
 21 26  1  0  0  0  0
 22 23  1  0  0  0  0
 22 21  2  0  0  0  0
 24 22  1  0  0  0  0
 27 24  1  0  0  0  0
 28 27  1  0  0  0  0
M  END
>  <minimizedAffinity>
-5.46042204

$$$$

 OpenBabel03252501393D

 28 29  0  0  0  0  0  0  0  0999 V2000
   40.9920   33.0050   40.1610 C   0  0  0  0  0  0  0  0  0  0  0  0
   41.5950   31.9120   39.8790 O   0  0  0  0  0  0  0  0  0  0  0  0
   41.7380   34.1510   39.7580 N   0  0  0  0  0  0  0  0  0  0  0  0
   41.3620   35.1020   39.8960 H   0  0  0  0  0  0  0  0  0  0  0  0
   42.9990   33.7180   39.1780 C   0  0  0  0  0  0  0  0  0  0  0  0
   43.2920   33.6980   37.8430 C   0  0  0  0  0  0  0  0  0  0  0  0
   44.5510   33.2510   37.4970 C   0  0  0  0  0  0  0  0  0  0  0  0
   45.3920   32.8700   38.4890 N   0  0  0  0  0  0  0  0  0  0  0  0
   45.0630   32.9070   39.7860 C   0  0  0  0  0  0  0  0  0  0  0  0
   43.8350   33.3410   40.1600 N   0  0  0  0  0  0  0  0  0  0  0  0
   44.7970   33.2290   36.4430 H   0  0  0  0  0  0  0  0  0  0  0  0
   45.7990   32.5820   40.5360 H   0  0  0  0  0  0  0  0  0  0  0  0
   42.2950   34.1310   36.9480 N   0  0  0  0  0  0  0  0  0  0  0  0
   41.4050   33.5850   36.8630 H   0  0  0  0  0  0  0  0  0  0  0  0
   42.4420   34.9830   36.3790 H   0  0  0  0  0  0  0  0  0  0  0  0
   39.7460   33.1140   40.7910 O   0  0  0  0  0  0  0  0  0  0  0  0
   37.2480   32.5320   39.3170 Cl  0  0  0  0  0  0  0  0  0  0  0  0
   37.9470   31.5950   40.6220 C   0  0  0  0  0  0  0  0  0  0  0  0
   39.1260   31.9500   41.2540 C   0  0  0  0  0  0  0  0  0  0  0  0
   39.6240   31.1730   42.2720 C   0  0  0  0  0  0  0  0  0  0  0  0
   39.0000   30.0300   42.7140 C   0  0  0  0  0  0  0  0  0  0  0  0
   37.8090   29.6500   42.0920 C   0  0  0  0  0  0  0  0  0  0  0  0
   36.9420   28.1990   42.5940 Cl  0  0  0  0  0  0  0  0  0  0  0  0
   37.3390   30.4520   41.0760 C   0  0  0  0  0  0  0  0  0  0  0  0
   40.5490   31.4920   42.7350 H   0  0  0  0  0  0  0  0  0  0  0  0
   39.4150   29.4330   43.5220 H   0  0  0  0  0  0  0  0  0  0  0  0
   35.8020   29.9280   40.3030 S   0  0  0  0  0  0  0  0  0  0  0  0
   36.0990   28.9840   39.2740 H   0  0  0  0  0  0  0  0  0  0  0  0
  1 16  1  0  0  0  0
  2  1  2  0  0  0  0
  3  4  1  0  0  0  0
  3  1  1  0  0  0  0
  5  3  1  0  0  0  0
  5 10  1  0  0  0  0
  6  5  2  0  0  0  0
  7  6  1  0  0  0  0
  7  8  2  0  0  0  0
  8  9  1  0  0  0  0
  9 10  2  0  0  0  0
  9 12  1  0  0  0  0
 11  7  1  0  0  0  0
 13  6  1  0  0  0  0
 14 13  1  0  0  0  0
 15 13  1  0  0  0  0
 16 19  1  0  0  0  0
 17 18  1  0  0  0  0
 18 24  2  0  0  0  0
 18 19  1  0  0  0  0
 19 20  2  0  0  0  0
 20 21  1  0  0  0  0
 20 25  1  0  0  0  0
 21 26  1  0  0  0  0
 22 23  1  0  0  0  0
 22 21  2  0  0  0  0
 24 22  1  0  0  0  0
 27 24  1  0  0  0  0
 28 27  1  0  0  0  0
M  END
>  <minimizedAffinity>
-5.36375332

$$$$

 OpenBabel03252501393D

 28 29  0  0  0  0  0  0  0  0999 V2000
   39.4660   32.0850   40.2840 C   0  0  0  0  0  0  0  0  0  0  0  0
   40.5470   31.4030   40.2210 O   0  0  0  0  0  0  0  0  0  0  0  0
   39.5220   33.2600   39.4790 N   0  0  0  0  0  0  0  0  0  0  0  0
   38.7100   33.8930   39.4080 H   0  0  0  0  0  0  0  0  0  0  0  0
   40.8330   33.3470   38.8560 C   0  0  0  0  0  0  0  0  0  0  0  0
   41.1460   32.9000   37.6020 C   0  0  0  0  0  0  0  0  0  0  0  0
   42.4530   33.0790   37.1950 C   0  0  0  0  0  0  0  0  0  0  0  0
   43.3160   33.6740   38.0520 N   0  0  0  0  0  0  0  0  0  0  0  0
   42.9650   34.0980   39.2730 C   0  0  0  0  0  0  0  0  0  0  0  0
   41.6910   33.9380   39.7040 N   0  0  0  0  0  0  0  0  0  0  0  0
   42.7160   32.7300   36.2050 H   0  0  0  0  0  0  0  0  0  0  0  0
   43.7220   34.5730   39.9150 H   0  0  0  0  0  0  0  0  0  0  0  0
   40.1200   32.3040   36.8450 N   0  0  0  0  0  0  0  0  0  0  0  0
   39.6960   31.4030   37.1690 H   0  0  0  0  0  0  0  0  0  0  0  0
   39.7880   32.7540   35.9740 H   0  0  0  0  0  0  0  0  0  0  0  0
   38.3330   31.7570   41.0400 O   0  0  0  0  0  0  0  0  0  0  0  0
   36.9110   30.2600   38.9210 Cl  0  0  0  0  0  0  0  0  0  0  0  0
   37.4690   29.6380   40.4610 C   0  0  0  0  0  0  0  0  0  0  0  0
   38.1290   30.4200   41.3920 C   0  0  0  0  0  0  0  0  0  0  0  0
   38.5430   29.8730   42.5830 C   0  0  0  0  0  0  0  0  0  0  0  0
   38.3340   28.5540   42.9120 C   0  0  0  0  0  0  0  0  0  0  0  0
   37.6710   27.7440   41.9880 C   0  0  0  0  0  0  0  0  0  0  0  0
   37.3600   26.0420   42.3280 Cl  0  0  0  0  0  0  0  0  0  0  0  0
   37.2700   28.3250   40.8060 C   0  0  0  0  0  0  0  0  0  0  0  0
   39.0550   30.5250   43.2800 H   0  0  0  0  0  0  0  0  0  0  0  0
   38.6710   28.1450   43.8610 H   0  0  0  0  0  0  0  0  0  0  0  0
   36.4190   27.2470   39.6450 S   0  0  0  0  0  0  0  0  0  0  0  0
   37.3890   26.5620   38.8520 H   0  0  0  0  0  0  0  0  0  0  0  0
  1 16  1  0  0  0  0
  2  1  2  0  0  0  0
  3  1  1  0  0  0  0
  4  3  1  0  0  0  0
  5  3  1  0  0  0  0
  5 10  1  0  0  0  0
  6  5  2  0  0  0  0
  7  6  1  0  0  0  0
  7  8  2  0  0  0  0
  8  9  1  0  0  0  0
  9 10  2  0  0  0  0
  9 12  1  0  0  0  0
 11  7  1  0  0  0  0
 13 14  1  0  0  0  0
 13  6  1  0  0  0  0
 15 13  1  0  0  0  0
 16 19  1  0  0  0  0
 17 18  1  0  0  0  0
 18 24  2  0  0  0  0
 18 19  1  0  0  0  0
 19 20  2  0  0  0  0
 20 21  1  0  0  0  0
 20 25  1  0  0  0  0
 21 26  1  0  0  0  0
 22 23  1  0  0  0  0
 22 21  2  0  0  0  0
 24 22  1  0  0  0  0
 27 24  1  0  0  0  0
 28 27  1  0  0  0  0
M  END
>  <minimizedAffinity>
-5.28860998

$$$$

 OpenBabel03252501393D

 28 29  0  0  0  0  0  0  0  0999 V2000
   40.2920   32.8380   40.6620 C   0  0  0  0  0  0  0  0  0  0  0  0
   41.1110   31.9400   40.2590 O   0  0  0  0  0  0  0  0  0  0  0  0
   40.8780   34.1380   40.6710 N   0  0  0  0  0  0  0  0  0  0  0  0
   40.3270   34.9650   40.9450 H   0  0  0  0  0  0  0  0  0  0  0  0
   42.2670   34.0350   40.2520 C   0  0  0  0  0  0  0  0  0  0  0  0
   43.3340   33.8390   41.0850 C   0  0  0  0  0  0  0  0  0  0  0  0
   44.5760   33.7680   40.4870 C   0  0  0  0  0  0  0  0  0  0  0  0
   44.6480   33.8960   39.1400 N   0  0  0  0  0  0  0  0  0  0  0  0
   43.5750   34.0870   38.3620 C   0  0  0  0  0  0  0  0  0  0  0  0
   42.3410   34.1610   38.9170 N   0  0  0  0  0  0  0  0  0  0  0  0
   45.4290   33.6130   41.1340 H   0  0  0  0  0  0  0  0  0  0  0  0
   43.7110   34.1820   37.2740 H   0  0  0  0  0  0  0  0  0  0  0  0
   43.0740   33.7260   42.4640 N   0  0  0  0  0  0  0  0  0  0  0  0
   42.6900   34.5500   42.9860 H   0  0  0  0  0  0  0  0  0  0  0  0
   43.2620   32.8360   42.9580 H   0  0  0  0  0  0  0  0  0  0  0  0
   38.9670   32.6190   41.0580 O   0  0  0  0  0  0  0  0  0  0  0  0
   36.6570   31.5260   39.5690 Cl  0  0  0  0  0  0  0  0  0  0  0  0
   37.5320   30.7540   40.8750 C   0  0  0  0  0  0  0  0  0  0  0  0
   38.6060   31.3480   41.5140 C   0  0  0  0  0  0  0  0  0  0  0  0
   39.2530   30.6910   42.5330 C   0  0  0  0  0  0  0  0  0  0  0  0
   38.8840   29.4400   42.9680 C   0  0  0  0  0  0  0  0  0  0  0  0
   37.8030   28.8180   42.3380 C   0  0  0  0  0  0  0  0  0  0  0  0
   37.2620   27.2140   42.8320 Cl  0  0  0  0  0  0  0  0  0  0  0  0
   37.1790   29.5060   41.3220 C   0  0  0  0  0  0  0  0  0  0  0  0
   40.0870   31.1970   43.0020 H   0  0  0  0  0  0  0  0  0  0  0  0
   39.4120   28.9400   43.7760 H   0  0  0  0  0  0  0  0  0  0  0  0
   35.7920   28.6700   40.5400 S   0  0  0  0  0  0  0  0  0  0  0  0
   36.2870   27.8150   39.5090 H   0  0  0  0  0  0  0  0  0  0  0  0
  1  3  1  0  0  0  0
  1 16  1  0  0  0  0
  2  1  2  0  0  0  0
  3  4  1  0  0  0  0
  5  3  1  0  0  0  0
  5  6  1  0  0  0  0
  6 13  1  0  0  0  0
  7  6  2  0  0  0  0
  7 11  1  0  0  0  0
  8  7  1  0  0  0  0
  9 10  1  0  0  0  0
  9  8  2  0  0  0  0
 10  5  2  0  0  0  0
 12  9  1  0  0  0  0
 13 15  1  0  0  0  0
 13 14  1  0  0  0  0
 16 19  1  0  0  0  0
 17 18  1  0  0  0  0
 18 24  2  0  0  0  0
 18 19  1  0  0  0  0
 19 20  2  0  0  0  0
 20 21  1  0  0  0  0
 20 25  1  0  0  0  0
 21 26  1  0  0  0  0
 22 23  1  0  0  0  0
 22 21  2  0  0  0  0
 24 22  1  0  0  0  0
 27 24  1  0  0  0  0
 28 27  1  0  0  0  0
M  END
>  <minimizedAffinity>
-5.14589691

$$$$

 OpenBabel03252501393D

 28 29  0  0  0  0  0  0  0  0999 V2000
   38.0340   27.1680   42.0170 C   0  0  0  0  0  0  0  0  0  0  0  0
   38.8140   26.8580   41.0510 O   0  0  0  0  0  0  0  0  0  0  0  0
   37.1510   26.1030   42.3620 N   0  0  0  0  0  0  0  0  0  0  0  0
   36.4850   26.2000   43.1430 H   0  0  0  0  0  0  0  0  0  0  0  0
   37.3840   24.9840   41.4630 C   0  0  0  0  0  0  0  0  0  0  0  0
   38.2810   23.9730   41.6710 C   0  0  0  0  0  0  0  0  0  0  0  0
   38.3490   23.0010   40.6940 C   0  0  0  0  0  0  0  0  0  0  0  0
   37.5360   23.1160   39.6160 N   0  0  0  0  0  0  0  0  0  0  0  0
   36.6700   24.1250   39.4540 C   0  0  0  0  0  0  0  0  0  0  0  0
   36.5780   25.0960   40.3940 N   0  0  0  0  0  0  0  0  0  0  0  0
   39.0540   22.1940   40.8450 H   0  0  0  0  0  0  0  0  0  0  0  0
   36.0410   24.1520   38.5510 H   0  0  0  0  0  0  0  0  0  0  0  0
   39.0470   24.0120   42.8520 N   0  0  0  0  0  0  0  0  0  0  0  0
   39.7370   24.7870   42.9940 H   0  0  0  0  0  0  0  0  0  0  0  0
   38.9300   23.2780   43.5720 H   0  0  0  0  0  0  0  0  0  0  0  0
   38.0110   28.3970   42.6890 O   0  0  0  0  0  0  0  0  0  0  0  0
   40.4700   30.0140   42.3850 Cl  0  0  0  0  0  0  0  0  0  0  0  0
   38.8780   30.3830   41.7530 C   0  0  0  0  0  0  0  0  0  0  0  0
   37.7830   29.5600   41.9490 C   0  0  0  0  0  0  0  0  0  0  0  0
   36.5590   29.9040   41.4260 C   0  0  0  0  0  0  0  0  0  0  0  0
   36.3540   31.0530   40.6990 C   0  0  0  0  0  0  0  0  0  0  0  0
   37.4440   31.9000   40.4870 C   0  0  0  0  0  0  0  0  0  0  0  0
   37.2700   33.3940   39.5660 Cl  0  0  0  0  0  0  0  0  0  0  0  0
   38.6540   31.5240   41.0250 C   0  0  0  0  0  0  0  0  0  0  0  0
   35.7330   29.2290   41.6060 H   0  0  0  0  0  0  0  0  0  0  0  0
   35.3750   31.3030   40.2960 H   0  0  0  0  0  0  0  0  0  0  0  0
   40.0310   32.6430   40.7300 S   0  0  0  0  0  0  0  0  0  0  0  0
   40.6190   32.3310   39.4670 H   0  0  0  0  0  0  0  0  0  0  0  0
  1  3  1  0  0  0  0
  1 16  1  0  0  0  0
  2  1  2  0  0  0  0
  3  4  1  0  0  0  0
  5  6  1  0  0  0  0
  5  3  1  0  0  0  0
  6 13  1  0  0  0  0
  7 11  1  0  0  0  0
  7  6  2  0  0  0  0
  8  7  1  0  0  0  0
  9  8  2  0  0  0  0
  9 10  1  0  0  0  0
 10  5  2  0  0  0  0
 12  9  1  0  0  0  0
 13 14  1  0  0  0  0
 13 15  1  0  0  0  0
 18 19  1  0  0  0  0
 18 17  1  0  0  0  0
 19 16  1  0  0  0  0
 20 25  1  0  0  0  0
 20 19  2  0  0  0  0
 21 20  1  0  0  0  0
 22 21  2  0  0  0  0
 22 24  1  0  0  0  0
 23 22  1  0  0  0  0
 24 18  2  0  0  0  0
 26 21  1  0  0  0  0
 27 24  1  0  0  0  0
 28 27  1  0  0  0  0
M  END
>  <minimizedAffinity>
-5.09814072

$$$$

 OpenBabel03252501393D

 28 29  0  0  0  0  0  0  0  0999 V2000
   37.6900   29.8560   41.3780 C   0  0  0  0  0  0  0  0  0  0  0  0
   38.4550   30.5590   42.1260 O   0  0  0  0  0  0  0  0  0  0  0  0
   37.7630   30.2520   40.0100 N   0  0  0  0  0  0  0  0  0  0  0  0
   37.2220   29.7550   39.2860 H   0  0  0  0  0  0  0  0  0  0  0  0
   38.6690   31.3830   39.8900 C   0  0  0  0  0  0  0  0  0  0  0  0
   38.3220   32.6970   40.0440 C   0  0  0  0  0  0  0  0  0  0  0  0
   39.3340   33.6220   39.8900 C   0  0  0  0  0  0  0  0  0  0  0  0
   40.5790   33.1690   39.6020 N   0  0  0  0  0  0  0  0  0  0  0  0
   40.8740   31.8710   39.4600 C   0  0  0  0  0  0  0  0  0  0  0  0
   39.9030   30.9370   39.6050 N   0  0  0  0  0  0  0  0  0  0  0  0
   39.0750   34.6650   40.0100 H   0  0  0  0  0  0  0  0  0  0  0  0
   41.9090   31.5780   39.2260 H   0  0  0  0  0  0  0  0  0  0  0  0
   36.9770   32.9870   40.3440 N   0  0  0  0  0  0  0  0  0  0  0  0
   36.2330   32.7690   39.6400 H   0  0  0  0  0  0  0  0  0  0  0  0
   36.7280   33.4120   41.2540 H   0  0  0  0  0  0  0  0  0  0  0  0
   36.8610   28.8120   41.8050 O   0  0  0  0  0  0  0  0  0  0  0  0
   38.7310   27.4870   43.6760 Cl  0  0  0  0  0  0  0  0  0  0  0  0
   38.0360   26.8070   42.2180 C   0  0  0  0  0  0  0  0  0  0  0  0
   37.1650   27.5090   41.4020 C   0  0  0  0  0  0  0  0  0  0  0  0
   36.6530   26.9190   40.2720 C   0  0  0  0  0  0  0  0  0  0  0  0
   36.9640   25.6350   39.8920 C   0  0  0  0  0  0  0  0  0  0  0  0
   37.8400   24.9050   40.6990 C   0  0  0  0  0  0  0  0  0  0  0  0
   38.2930   23.2510   40.2880 Cl  0  0  0  0  0  0  0  0  0  0  0  0
   38.3340   25.5270   41.8240 C   0  0  0  0  0  0  0  0  0  0  0  0
   35.9770   27.5090   39.6660 H   0  0  0  0  0  0  0  0  0  0  0  0
   36.5450   25.1910   38.9920 H   0  0  0  0  0  0  0  0  0  0  0  0
   39.4590   24.5530   42.8340 S   0  0  0  0  0  0  0  0  0  0  0  0
   38.6960   23.7580   43.7420 H   0  0  0  0  0  0  0  0  0  0  0  0
  1 16  1  0  0  0  0
  1  2  2  0  0  0  0
  3  1  1  0  0  0  0
  4  3  1  0  0  0  0
  5  3  1  0  0  0  0
  5  6  1  0  0  0  0
  6 13  1  0  0  0  0
  7 11  1  0  0  0  0
  7  6  2  0  0  0  0
  8  7  1  0  0  0  0
  9  8  2  0  0  0  0
  9 10  1  0  0  0  0
 10  5  2  0  0  0  0
 12  9  1  0  0  0  0
 13 15  1  0  0  0  0
 14 13  1  0  0  0  0
 18 17  1  0  0  0  0
 19 16  1  0  0  0  0
 19 18  2  0  0  0  0
 20 19  1  0  0  0  0
 21 20  2  0  0  0  0
 21 22  1  0  0  0  0
 22 24  2  0  0  0  0
 23 22  1  0  0  0  0
 24 18  1  0  0  0  0
 24 27  1  0  0  0  0
 25 20  1  0  0  0  0
 26 21  1  0  0  0  0
 27 28  1  0  0  0  0
M  END
>  <minimizedAffinity>
-5.08700943

$$$$

 OpenBabel03252501393D

 28 29  0  0  0  0  0  0  0  0999 V2000
   40.0640   32.6870   40.8370 C   0  0  0  0  0  0  0  0  0  0  0  0
   40.9300   31.8440   40.4140 O   0  0  0  0  0  0  0  0  0  0  0  0
   40.5170   34.0340   40.7100 N   0  0  0  0  0  0  0  0  0  0  0  0
   39.9120   34.8230   40.9850 H   0  0  0  0  0  0  0  0  0  0  0  0
   41.8660   34.0320   40.1690 C   0  0  0  0  0  0  0  0  0  0  0  0
   43.0150   33.9350   40.9040 C   0  0  0  0  0  0  0  0  0  0  0  0
   44.2000   33.9510   40.1970 C   0  0  0  0  0  0  0  0  0  0  0  0
   44.1410   34.0610   38.8480 N   0  0  0  0  0  0  0  0  0  0  0  0
   42.9920   34.1530   38.1680 C   0  0  0  0  0  0  0  0  0  0  0  0
   41.8100   34.1400   38.8310 N   0  0  0  0  0  0  0  0  0  0  0  0
   45.1180   33.8750   40.7650 H   0  0  0  0  0  0  0  0  0  0  0  0
   43.0210   34.2400   37.0710 H   0  0  0  0  0  0  0  0  0  0  0  0
   42.8890   33.8270   42.3020 N   0  0  0  0  0  0  0  0  0  0  0  0
   42.4900   34.6260   42.8480 H   0  0  0  0  0  0  0  0  0  0  0  0
   43.1910   32.9630   42.7860 H   0  0  0  0  0  0  0  0  0  0  0  0
   38.8080   32.3730   41.3700 O   0  0  0  0  0  0  0  0  0  0  0  0
   38.6320   29.8220   42.8560 Cl  0  0  0  0  0  0  0  0  0  0  0  0
   37.8720   30.2070   41.3250 C   0  0  0  0  0  0  0  0  0  0  0  0
   38.0140   31.4360   40.7040 C   0  0  0  0  0  0  0  0  0  0  0  0
   37.3920   31.6780   39.5030 C   0  0  0  0  0  0  0  0  0  0  0  0
   36.6130   30.7420   38.8630 C   0  0  0  0  0  0  0  0  0  0  0  0
   36.4540   29.4940   39.4700 C   0  0  0  0  0  0  0  0  0  0  0  0
   35.4740   28.2350   38.7190 Cl  0  0  0  0  0  0  0  0  0  0  0  0
   37.0920   29.2870   40.6720 C   0  0  0  0  0  0  0  0  0  0  0  0
   37.5330   32.6540   39.0570 H   0  0  0  0  0  0  0  0  0  0  0  0
   36.1310   30.9580   37.9130 H   0  0  0  0  0  0  0  0  0  0  0  0
   36.8620   27.6670   41.4180 S   0  0  0  0  0  0  0  0  0  0  0  0
   35.6570   27.6760   42.1840 H   0  0  0  0  0  0  0  0  0  0  0  0
  1 16  1  0  0  0  0
  2  1  2  0  0  0  0
  3  1  1  0  0  0  0
  3  4  1  0  0  0  0
  5  3  1  0  0  0  0
  5  6  1  0  0  0  0
  6 13  1  0  0  0  0
  7 11  1  0  0  0  0
  7  6  2  0  0  0  0
  8  7  1  0  0  0  0
  9 10  1  0  0  0  0
  9  8  2  0  0  0  0
 10  5  2  0  0  0  0
 12  9  1  0  0  0  0
 13 15  1  0  0  0  0
 13 14  1  0  0  0  0
 18 17  1  0  0  0  0
 19 18  1  0  0  0  0
 19 16  1  0  0  0  0
 20 19  2  0  0  0  0
 21 22  2  0  0  0  0
 21 20  1  0  0  0  0
 22 24  1  0  0  0  0
 23 22  1  0  0  0  0
 24 18  2  0  0  0  0
 24 27  1  0  0  0  0
 25 20  1  0  0  0  0
 26 21  1  0  0  0  0
 27 28  1  0  0  0  0
M  END
>  <minimizedAffinity>
-5.0328207

$$$$

 OpenBabel03252501393D

 28 29  0  0  0  0  0  0  0  0999 V2000
   37.0490   30.2250   40.3470 C   0  0  0  0  0  0  0  0  0  0  0  0
   37.7420   30.4060   39.2870 O   0  0  0  0  0  0  0  0  0  0  0  0
   37.4010   31.1380   41.3840 N   0  0  0  0  0  0  0  0  0  0  0  0
   36.9050   31.1280   42.2890 H   0  0  0  0  0  0  0  0  0  0  0  0
   38.4910   31.9820   40.9230 C   0  0  0  0  0  0  0  0  0  0  0  0
   38.3500   33.1430   40.2150 C   0  0  0  0  0  0  0  0  0  0  0  0
   39.5140   33.8000   39.8720 C   0  0  0  0  0  0  0  0  0  0  0  0
   40.6940   33.2560   40.2560 N   0  0  0  0  0  0  0  0  0  0  0  0
   40.7860   32.1150   40.9510 C   0  0  0  0  0  0  0  0  0  0  0  0
   39.6620   31.4450   41.3030 N   0  0  0  0  0  0  0  0  0  0  0  0
   39.4180   34.7200   39.3120 H   0  0  0  0  0  0  0  0  0  0  0  0
   41.7810   31.7330   41.2280 H   0  0  0  0  0  0  0  0  0  0  0  0
   37.0430   33.5630   39.9010 N   0  0  0  0  0  0  0  0  0  0  0  0
   36.4550   32.9810   39.2590 H   0  0  0  0  0  0  0  0  0  0  0  0
   36.6680   34.4400   40.3030 H   0  0  0  0  0  0  0  0  0  0  0  0
   36.0510   29.2570   40.5180 O   0  0  0  0  0  0  0  0  0  0  0  0
   35.9630   27.5520   38.1030 Cl  0  0  0  0  0  0  0  0  0  0  0  0
   36.4250   27.0670   39.7220 C   0  0  0  0  0  0  0  0  0  0  0  0
   36.4350   27.9420   40.7940 C   0  0  0  0  0  0  0  0  0  0  0  0
   36.8080   27.5010   42.0410 C   0  0  0  0  0  0  0  0  0  0  0  0
   37.1840   26.2020   42.2930 C   0  0  0  0  0  0  0  0  0  0  0  0
   37.1830   25.3000   41.2270 C   0  0  0  0  0  0  0  0  0  0  0  0
   37.6500   23.6150   41.4590 Cl  0  0  0  0  0  0  0  0  0  0  0  0
   36.8030   25.7760   39.9920 C   0  0  0  0  0  0  0  0  0  0  0  0
   36.7990   28.2220   42.8480 H   0  0  0  0  0  0  0  0  0  0  0  0
   37.4750   25.8780   43.2880 H   0  0  0  0  0  0  0  0  0  0  0  0
   36.8150   24.5820   38.6470 S   0  0  0  0  0  0  0  0  0  0  0  0
   38.1310   24.5170   38.0960 H   0  0  0  0  0  0  0  0  0  0  0  0
  1 16  1  0  0  0  0
  1  3  1  0  0  0  0
  2  1  2  0  0  0  0
  3  4  1  0  0  0  0
  5 10  1  0  0  0  0
  5  3  1  0  0  0  0
  6  5  2  0  0  0  0
  7  6  1  0  0  0  0
  7  8  2  0  0  0  0
  8  9  1  0  0  0  0
  9 12  1  0  0  0  0
  9 10  2  0  0  0  0
 11  7  1  0  0  0  0
 13  6  1  0  0  0  0
 13 15  1  0  0  0  0
 14 13  1  0  0  0  0
 16 19  1  0  0  0  0
 17 18  1  0  0  0  0
 18 24  2  0  0  0  0
 18 19  1  0  0  0  0
 19 20  2  0  0  0  0
 20 21  1  0  0  0  0
 20 25  1  0  0  0  0
 21 26  1  0  0  0  0
 22 23  1  0  0  0  0
 22 21  2  0  0  0  0
 24 22  1  0  0  0  0
 27 24  1  0  0  0  0
 28 27  1  0  0  0  0
M  END
>  <minimizedAffinity>
-5.02229595

$$$$
