
     RDKit          3D

 36 37  0  0  0  0  0  0  0  0999 V2000
   44.6765   35.2835   45.0751 O   0  0  0  0  0  0  0  0  0  0  0  0
   45.4875   34.2458   44.3330 P   0  0  2  0  0  0  0  0  0  0  0  0
   44.5251   33.0586   43.6460 O   0  0  0  0  0  0  0  0  0  0  0  0
   46.5222   33.4637   45.4045 O   0  0  0  0  0  0  0  0  0  0  0  0
   46.2098   32.1379   45.4216 C   0  0  0  0  0  0  0  0  0  0  0  0
   45.7526   32.0460   49.1198 C   0  0  0  0  0  0  0  0  0  0  0  0
   46.0557   32.5312   47.8353 C   0  0  0  0  0  0  0  0  0  0  0  0
   45.8956   31.6438   46.7733 C   0  0  0  0  0  0  0  0  0  0  0  0
   45.4606   30.3698   47.0230 N   0  0  0  0  0  0  0  0  0  0  0  0
   45.1798   29.9402   48.2677 C   0  0  0  0  0  0  0  0  0  0  0  0
   45.3254   30.7708   49.2988 N   0  0  0  0  0  0  0  0  0  0  0  0
   46.4069   35.0308   43.1648 O   0  0  0  0  0  0  0  0  0  0  0  0
   46.9294   34.0840   42.2849 C   0  0  1  0  0  0  0  0  0  0  0  0
   46.4042   34.2688   40.8768 C   0  0  0  0  0  0  0  0  0  0  0  0
   47.3318   33.3747   40.0952 C   0  0  0  0  0  0  0  0  0  0  0  0
   48.6332   33.3531   40.8689 C   0  0  0  0  0  0  0  0  0  0  0  0
   48.4093   34.2900   42.0450 C   0  0  1  0  0  0  0  0  0  0  0  0
   48.7684   35.7102   41.7212 C   0  0  0  0  0  0  0  0  0  0  0  0
   44.7399   32.7824   42.7475 H   0  0  0  0  0  0  0  0  0  0  0  0
   45.4456   31.7753   44.7445 H   0  0  0  0  0  0  0  0  0  0  0  0
   47.1516   31.5945   45.1105 H   0  0  0  0  0  0  0  0  0  0  0  0
   45.8530   32.6746   49.9850 H   0  0  0  0  0  0  0  0  0  0  0  0
   46.3887   33.5470   47.7554 H   0  0  0  0  0  0  0  0  0  0  0  0
   44.8432   28.9169   48.3576 H   0  0  0  0  0  0  0  0  0  0  0  0
   46.7522   33.0549   42.5774 H   0  0  0  0  0  0  0  0  0  0  0  0
   46.3968   35.3212   40.5469 H   0  0  0  0  0  0  0  0  0  0  0  0
   45.3773   33.9017   40.7252 H   0  0  0  0  0  0  0  0  0  0  0  0
   47.4514   33.6939   39.0397 H   0  0  0  0  0  0  0  0  0  0  0  0
   46.9487   32.3302   40.1130 H   0  0  0  0  0  0  0  0  0  0  0  0
   49.3983   33.8558   40.2228 H   0  0  0  0  0  0  0  0  0  0  0  0
   48.9373   32.3419   41.1786 H   0  0  0  0  0  0  0  0  0  0  0  0
   49.0321   33.9883   42.9254 H   0  0  0  0  0  0  0  0  0  0  0  0
   49.8588   35.7630   41.6031 H   0  0  0  0  0  0  0  0  0  0  0  0
   48.2849   36.1075   40.8302 H   0  0  0  0  0  0  0  0  0  0  0  0
   48.2615   36.7370   43.1362 S   0  0  0  0  0  0  0  0  0  0  0  0
   48.9617   36.4084   44.3086 H   0  0  0  0  0  0  0  0  0  0  0  0
  2  1  2  0
  2  4  1  1
  3  2  1  0
  4  5  1  0
  5  8  1  0
  6 11  2  0
  7  6  1  0
  8  9  1  0
  8  7  2  0
  9 10  2  0
 10 11  1  0
 12  2  1  0
 13 12  1  0
 14 13  1  0
 15 16  1  0
 15 14  1  0
 16 17  1  0
 17 13  1  0
 18 17  1  0
  3 19  1  0
  5 20  1  0
  5 21  1  0
  6 22  1  0
  7 23  1  0
 10 24  1  0
 13 25  1  1
 14 26  1  0
 14 27  1  0
 15 28  1  0
 15 29  1  0
 16 30  1  0
 16 31  1  0
 17 32  1  1
 18 33  1  0
 18 34  1  0
 35 36  1  0
 18 35  1  0
M  ISO  8  19   3  20   8  21   8  22  14  23  14  24  14  25  13  26  13
M  ISO  8  27  13  28  13  29  13  30  13  31  13  32  13  33   8  34   8
M  ISO  1  36  11
M  END
>  <DihAtoms>  (1) 
16,17,34,35

>  <DihDeg>  (1) 
168.3959607065657

$$$$
