REMARK  Name = 
REMARK  2 active torsions:
REMARK  status: ('A' for Active; 'I' for Inactive)
REMARK    1  A    between atoms: C_3  and  C_7
REMARK    2  A    between atoms: C_10  and  S_23
REMARK                            x       y       z     vdW  Elec       q    Type
REMARK                         _______ _______ _______ _____ _____    ______ ____
ROOT
ATOM      1  C   UNL     1      46.768  35.123  41.796  0.00  0.00    +0.000 C 
ATOM      2  C   UNL     1      46.848  33.823  41.072  0.00  0.00    +0.000 C 
ATOM      3  C   UNL     1      47.807  34.204  39.944  0.00  0.00    +0.000 C 
ATOM      4  C   UNL     1      48.704  35.259  40.526  0.00  0.00    +0.000 C 
ATOM      5  C   UNL     1      48.254  35.447  41.970  0.00  0.00    +0.000 C 
ATOM      6  H   UNL     1      46.364  35.899  41.132  0.00  0.00    +0.000 HD
ATOM      7  H   UNL     1      45.873  33.496  40.693  0.00  0.00    +0.000 HD
ATOM      8  H   UNL     1      47.322  33.041  41.696  0.00  0.00    +0.000 HD
ATOM      9  H   UNL     1      47.265  34.577  39.043  0.00  0.00    +0.000 HD
ATOM     10  H   UNL     1      48.381  33.308  39.645  0.00  0.00    +0.000 HD
ATOM     11  H   UNL     1      48.656  36.214  39.960  0.00  0.00    +0.000 HD
ATOM     12  H   UNL     1      48.744  34.772  42.675  0.00  0.00    +0.000 HD
ATOM     13  H   UNL     1      48.386  36.517  42.256  0.00  0.00    +0.000 HD
ENDROOT
BRANCH   1  16
ATOM     14  C   UNL     1      44.516  35.889  44.715  0.00  0.00    +0.000 A 
ATOM     15  C   UNL     1      45.111  36.040  43.467  0.00  0.00    +0.000 A 
ATOM     16  C   UNL     1      46.058  35.097  43.084  0.00  0.00    +0.000 A 
ATOM     17  N   UNL     1      46.345  34.081  43.957  0.00  0.00    +0.000 NA
ATOM     18  C   UNL     1      45.751  33.961  45.160  0.00  0.00    +0.000 A 
ATOM     19  N   UNL     1      44.841  34.855  45.544  0.00  0.00    +0.000 NA
ATOM     20  H   UNL     1      43.761  36.617  45.053  0.00  0.00    +0.000 HD
ATOM     21  H   UNL     1      44.875  36.834  42.804  0.00  0.00    +0.000 HD
ATOM     22  H   UNL     1      46.001  33.143  45.829  0.00  0.00    +0.000 HD
ENDBRANCH   1  16
BRANCH   4  23
ATOM     23  S   UNL     1      50.408  34.664  40.555  0.00  0.00    +0.000 S 
ATOM     24  H   UNL     1      51.132  35.217  41.618  0.00  0.00    +0.000 HD
ENDBRANCH   4  23
TORSDOF 2
