
 OpenBabel03242512223D

 34 36  0  0  0  0  0  0  0  0999 V2000
   36.7620   28.9140   41.8220 C   0  0  0  0  0  0  0  0  0  0  0  0
   36.8180   27.5660   41.6000 C   0  0  0  0  0  0  0  0  0  0  0  0
   36.6530   27.0900   40.3300 C   0  0  0  0  0  0  0  0  0  0  0  0
   36.4320   27.9770   39.2820 C   0  0  0  0  0  0  0  0  0  0  0  0
   36.3810   29.3330   39.5420 C   0  0  0  0  0  0  0  0  0  0  0  0
   36.5490   29.8310   40.8460 C   0  0  0  0  0  0  0  0  0  0  0  0
   36.7060   26.0190   40.2020 H   0  0  0  0  0  0  0  0  0  0  0  0
   36.3050   27.5780   38.2850 H   0  0  0  0  0  0  0  0  0  0  0  0
   36.2070   30.0020   38.7040 H   0  0  0  0  0  0  0  0  0  0  0  0
   37.0560   26.6970   42.7680 C   0  0  0  0  0  0  0  0  0  0  0  0
   36.6220   25.7130   42.6680 H   0  0  0  0  0  0  0  0  0  0  0  0
   36.6580   27.1570   43.6790 H   0  0  0  0  0  0  0  0  0  0  0  0
   38.5420   26.4620   42.9500 C   0  0  0  0  0  0  0  0  0  0  0  0
   39.0660   25.2460   42.5060 C   0  0  0  0  0  0  0  0  0  0  0  0
   40.4240   25.0610   42.6830 C   0  0  0  0  0  0  0  0  0  0  0  0
   41.1470   26.0380   43.2590 N   0  0  0  0  0  0  0  0  0  0  0  0
   40.6070   27.2100   43.6790 C   0  0  0  0  0  0  0  0  0  0  0  0
   39.2970   27.4230   43.5250 N   0  0  0  0  0  0  0  0  0  0  0  0
   38.4750   24.4830   42.0520 H   0  0  0  0  0  0  0  0  0  0  0  0
   40.9480   24.1660   42.3820 H   0  0  0  0  0  0  0  0  0  0  0  0
   41.2200   27.9750   44.1390 H   0  0  0  0  0  0  0  0  0  0  0  0
   36.9190   29.4970   43.0900 O   0  0  0  0  0  0  0  0  0  0  0  0
   36.1640   30.0510   43.4420 H   0  0  0  0  0  0  0  0  0  0  0  0
   36.4780   31.2110   40.9780 O   0  0  0  0  0  0  0  0  0  0  0  0
   37.6970   31.8730   40.8030 C   0  0  0  0  0  0  0  0  0  0  0  0
   37.6910   33.0490   40.0810 C   0  0  0  0  0  0  0  0  0  0  0  0
   38.8660   33.7800   39.8560 C   0  0  0  0  0  0  0  0  0  0  0  0
   40.0160   33.3260   40.3520 N   0  0  0  0  0  0  0  0  0  0  0  0
   40.0100   32.1790   41.0540 C   0  0  0  0  0  0  0  0  0  0  0  0
   38.9000   31.4690   41.2780 N   0  0  0  0  0  0  0  0  0  0  0  0
   36.7580   33.4190   39.6790 H   0  0  0  0  0  0  0  0  0  0  0  0
   38.7540   34.6920   39.2770 H   0  0  0  0  0  0  0  0  0  0  0  0
   41.5710   31.5930   41.7070 S   0  0  0  0  0  0  0  0  0  0  0  0
   42.1820   32.6440   42.4500 H   0  0  0  0  0  0  0  0  0  0  0  0
  1 22  1  0  0  0  0
  2  1  1  0  0  0  0
  2 10  1  0  0  0  0
  3  2  2  0  0  0  0
  4  5  2  0  0  0  0
  4  3  1  0  0  0  0
  5  6  1  0  0  0  0
  6 24  1  0  0  0  0
  6  1  2  0  0  0  0
  7  3  1  0  0  0  0
  8  4  1  0  0  0  0
  9  5  1  0  0  0  0
 10 13  1  0  0  0  0
 10 12  1  0  0  0  0
 11 10  1  0  0  0  0
 13 18  1  0  0  0  0
 14 15  1  0  0  0  0
 14 13  2  0  0  0  0
 15 16  2  0  0  0  0
 16 17  1  0  0  0  0
 17 21  1  0  0  0  0
 18 17  2  0  0  0  0
 19 14  1  0  0  0  0
 20 15  1  0  0  0  0
 22 23  1  0  0  0  0
 25 24  1  0  0  0  0
 25 30  1  0  0  0  0
 26 25  2  0  0  0  0
 27 26  1  0  0  0  0
 27 28  2  0  0  0  0
 28 29  1  0  0  0  0
 29 30  2  0  0  0  0
 29 33  1  0  0  0  0
 31 26  1  0  0  0  0
 32 27  1  0  0  0  0
 33 34  1  0  0  0  0
M  END
>  <minimizedAffinity>
-5.80246019

$$$$

 OpenBabel03242512223D

 34 36  0  0  0  0  0  0  0  0999 V2000
   36.4220   31.0730   39.7880 C   0  0  0  0  0  0  0  0  0  0  0  0
   36.0470   29.9740   39.0660 C   0  0  0  0  0  0  0  0  0  0  0  0
   36.4820   29.8390   37.7780 C   0  0  0  0  0  0  0  0  0  0  0  0
   37.2990   30.8170   37.2180 C   0  0  0  0  0  0  0  0  0  0  0  0
   37.6590   31.9140   37.9760 C   0  0  0  0  0  0  0  0  0  0  0  0
   37.2140   32.0600   39.3020 C   0  0  0  0  0  0  0  0  0  0  0  0
   36.1620   28.9550   37.2470 H   0  0  0  0  0  0  0  0  0  0  0  0
   37.6320   30.6890   36.1970 H   0  0  0  0  0  0  0  0  0  0  0  0
   38.2970   32.6610   37.5130 H   0  0  0  0  0  0  0  0  0  0  0  0
   35.1800   28.9870   39.7370 C   0  0  0  0  0  0  0  0  0  0  0  0
   34.6100   28.3790   39.0500 H   0  0  0  0  0  0  0  0  0  0  0  0
   34.4810   29.4860   40.4160 H   0  0  0  0  0  0  0  0  0  0  0  0
   36.0200   28.0100   40.5340 C   0  0  0  0  0  0  0  0  0  0  0  0
   36.5130   26.8850   39.8690 C   0  0  0  0  0  0  0  0  0  0  0  0
   37.2780   26.0120   40.6190 C   0  0  0  0  0  0  0  0  0  0  0  0
   37.4990   26.2890   41.9170 N   0  0  0  0  0  0  0  0  0  0  0  0
   37.0060   27.3920   42.5340 C   0  0  0  0  0  0  0  0  0  0  0  0
   36.2620   28.2570   41.8390 N   0  0  0  0  0  0  0  0  0  0  0  0
   36.3260   26.6830   38.8380 H   0  0  0  0  0  0  0  0  0  0  0  0
   37.7160   25.1090   40.2220 H   0  0  0  0  0  0  0  0  0  0  0  0
   37.2040   27.5830   43.5810 H   0  0  0  0  0  0  0  0  0  0  0  0
   36.0260   31.2990   41.1160 O   0  0  0  0  0  0  0  0  0  0  0  0
   35.5110   32.1350   41.3100 H   0  0  0  0  0  0  0  0  0  0  0  0
   37.6430   33.2060   39.9590 O   0  0  0  0  0  0  0  0  0  0  0  0
   38.9960   33.1960   40.3130 C   0  0  0  0  0  0  0  0  0  0  0  0
   39.7680   34.2730   39.9270 C   0  0  0  0  0  0  0  0  0  0  0  0
   41.1330   34.3490   40.2380 C   0  0  0  0  0  0  0  0  0  0  0  0
   41.6960   33.3560   40.9240 N   0  0  0  0  0  0  0  0  0  0  0  0
   40.9350   32.3120   41.2950 C   0  0  0  0  0  0  0  0  0  0  0  0
   39.6330   32.2230   41.0070 N   0  0  0  0  0  0  0  0  0  0  0  0
   39.3110   35.0800   39.3710 H   0  0  0  0  0  0  0  0  0  0  0  0
   41.6500   35.2380   39.8890 H   0  0  0  0  0  0  0  0  0  0  0  0
   41.7210   30.9920   42.2160 S   0  0  0  0  0  0  0  0  0  0  0  0
   42.4000   31.5530   43.3350 H   0  0  0  0  0  0  0  0  0  0  0  0
  1 22  1  0  0  0  0
  2 10  1  0  0  0  0
  2  1  2  0  0  0  0
  3  2  1  0  0  0  0
  4  3  2  0  0  0  0
  4  5  1  0  0  0  0
  5  6  2  0  0  0  0
  6  1  1  0  0  0  0
  6 24  1  0  0  0  0
  7  3  1  0  0  0  0
  8  4  1  0  0  0  0
  9  5  1  0  0  0  0
 10 12  1  0  0  0  0
 10 13  1  0  0  0  0
 11 10  1  0  0  0  0
 13 18  1  0  0  0  0
 14 13  2  0  0  0  0
 14 15  1  0  0  0  0
 15 16  2  0  0  0  0
 16 17  1  0  0  0  0
 17 21  1  0  0  0  0
 18 17  2  0  0  0  0
 19 14  1  0  0  0  0
 20 15  1  0  0  0  0
 22 23  1  0  0  0  0
 24 25  1  0  0  0  0
 25 30  1  0  0  0  0
 26 27  1  0  0  0  0
 26 25  2  0  0  0  0
 27 28  2  0  0  0  0
 28 29  1  0  0  0  0
 29 33  1  0  0  0  0
 30 29  2  0  0  0  0
 31 26  1  0  0  0  0
 32 27  1  0  0  0  0
 33 34  1  0  0  0  0
M  END
>  <minimizedAffinity>
-5.75587416

$$$$

 OpenBabel03242512223D

 34 36  0  0  0  0  0  0  0  0999 V2000
   36.6610   29.1490   41.5550 C   0  0  0  0  0  0  0  0  0  0  0  0
   36.6050   27.8170   41.2480 C   0  0  0  0  0  0  0  0  0  0  0  0
   36.3360   27.4380   39.9630 C   0  0  0  0  0  0  0  0  0  0  0  0
   36.1250   28.4060   38.9860 C   0  0  0  0  0  0  0  0  0  0  0  0
   36.1900   29.7410   39.3310 C   0  0  0  0  0  0  0  0  0  0  0  0
   36.4650   30.1400   40.6520 C   0  0  0  0  0  0  0  0  0  0  0  0
   36.3020   26.3770   39.7670 H   0  0  0  0  0  0  0  0  0  0  0  0
   35.9150   28.0820   37.9750 H   0  0  0  0  0  0  0  0  0  0  0  0
   36.0210   30.4740   38.5470 H   0  0  0  0  0  0  0  0  0  0  0  0
   36.8400   26.8590   42.3450 C   0  0  0  0  0  0  0  0  0  0  0  0
   35.9310   26.4810   42.7870 H   0  0  0  0  0  0  0  0  0  0  0  0
   37.4430   27.3180   43.1350 H   0  0  0  0  0  0  0  0  0  0  0  0
   37.5690   25.6370   41.8230 C   0  0  0  0  0  0  0  0  0  0  0  0
   38.9520   25.7300   41.6520 C   0  0  0  0  0  0  0  0  0  0  0  0
   39.5910   24.6000   41.1780 C   0  0  0  0  0  0  0  0  0  0  0  0
   38.8610   23.5010   40.9130 N   0  0  0  0  0  0  0  0  0  0  0  0
   37.5170   23.4420   41.0910 C   0  0  0  0  0  0  0  0  0  0  0  0
   36.8680   24.5160   41.5480 N   0  0  0  0  0  0  0  0  0  0  0  0
   39.5120   26.6120   41.8670 H   0  0  0  0  0  0  0  0  0  0  0  0
   40.6540   24.5440   41.0040 H   0  0  0  0  0  0  0  0  0  0  0  0
   36.9630   22.5400   40.8670 H   0  0  0  0  0  0  0  0  0  0  0  0
   36.9300   29.6350   42.8450 O   0  0  0  0  0  0  0  0  0  0  0  0
   36.2380   30.2160   43.2740 H   0  0  0  0  0  0  0  0  0  0  0  0
   36.5030   31.5100   40.8710 O   0  0  0  0  0  0  0  0  0  0  0  0
   37.7730   32.0820   40.7390 C   0  0  0  0  0  0  0  0  0  0  0  0
   37.8740   33.2620   40.0310 C   0  0  0  0  0  0  0  0  0  0  0  0
   39.1070   33.9060   39.8480 C   0  0  0  0  0  0  0  0  0  0  0  0
   40.2050   33.3640   40.3710 N   0  0  0  0  0  0  0  0  0  0  0  0
   40.0940   32.2140   41.0590 C   0  0  0  0  0  0  0  0  0  0  0  0
   38.9280   31.5860   41.2440 N   0  0  0  0  0  0  0  0  0  0  0  0
   36.9830   33.7040   39.6070 H   0  0  0  0  0  0  0  0  0  0  0  0
   39.0780   34.8290   39.2760 H   0  0  0  0  0  0  0  0  0  0  0  0
   41.5880   31.5080   41.7500 S   0  0  0  0  0  0  0  0  0  0  0  0
   42.2520   32.5040   42.5220 H   0  0  0  0  0  0  0  0  0  0  0  0
  1 22  1  0  0  0  0
  2  1  1  0  0  0  0
  2 10  1  0  0  0  0
  3  2  2  0  0  0  0
  4  5  2  0  0  0  0
  4  3  1  0  0  0  0
  5  6  1  0  0  0  0
  6 24  1  0  0  0  0
  6  1  2  0  0  0  0
  7  3  1  0  0  0  0
  8  4  1  0  0  0  0
  9  5  1  0  0  0  0
 10 11  1  0  0  0  0
 10 12  1  0  0  0  0
 13 10  1  0  0  0  0
 14 13  1  0  0  0  0
 14 19  1  0  0  0  0
 15 14  2  0  0  0  0
 16 17  2  0  0  0  0
 16 15  1  0  0  0  0
 17 18  1  0  0  0  0
 18 13  2  0  0  0  0
 20 15  1  0  0  0  0
 21 17  1  0  0  0  0
 22 23  1  0  0  0  0
 25 24  1  0  0  0  0
 25 30  1  0  0  0  0
 26 25  2  0  0  0  0
 27 26  1  0  0  0  0
 27 28  2  0  0  0  0
 28 29  1  0  0  0  0
 29 30  2  0  0  0  0
 29 33  1  0  0  0  0
 31 26  1  0  0  0  0
 32 27  1  0  0  0  0
 33 34  1  0  0  0  0
M  END
>  <minimizedAffinity>
-5.58878517

$$$$

 OpenBabel03242512223D

 34 36  0  0  0  0  0  0  0  0999 V2000
   37.1260   29.7980   41.8540 C   0  0  0  0  0  0  0  0  0  0  0  0
   38.0360   29.3820   42.7860 C   0  0  0  0  0  0  0  0  0  0  0  0
   39.2570   29.9920   42.8480 C   0  0  0  0  0  0  0  0  0  0  0  0
   39.5590   31.0260   41.9660 C   0  0  0  0  0  0  0  0  0  0  0  0
   38.6160   31.4210   41.0380 C   0  0  0  0  0  0  0  0  0  0  0  0
   37.3570   30.7970   40.9680 C   0  0  0  0  0  0  0  0  0  0  0  0
   39.9430   29.6310   43.5990 H   0  0  0  0  0  0  0  0  0  0  0  0
   40.5310   31.4950   42.0340 H   0  0  0  0  0  0  0  0  0  0  0  0
   38.8790   32.2310   40.3630 H   0  0  0  0  0  0  0  0  0  0  0  0
   37.6340   28.2790   43.6790 C   0  0  0  0  0  0  0  0  0  0  0  0
   36.5680   28.2200   43.8360 H   0  0  0  0  0  0  0  0  0  0  0  0
   38.1210   28.3760   44.6550 H   0  0  0  0  0  0  0  0  0  0  0  0
   38.0220   26.9460   43.0720 C   0  0  0  0  0  0  0  0  0  0  0  0
   39.3100   26.4680   43.3240 C   0  0  0  0  0  0  0  0  0  0  0  0
   39.6350   25.2490   42.7600 C   0  0  0  0  0  0  0  0  0  0  0  0
   38.7150   24.6080   42.0160 N   0  0  0  0  0  0  0  0  0  0  0  0
   37.4710   25.1000   41.7900 C   0  0  0  0  0  0  0  0  0  0  0  0
   37.1230   26.2750   42.3200 N   0  0  0  0  0  0  0  0  0  0  0  0
   40.0250   26.9920   43.9170 H   0  0  0  0  0  0  0  0  0  0  0  0
   40.5960   24.7730   42.8810 H   0  0  0  0  0  0  0  0  0  0  0  0
   36.7560   24.5560   41.1860 H   0  0  0  0  0  0  0  0  0  0  0  0
   35.8480   29.2330   41.7140 O   0  0  0  0  0  0  0  0  0  0  0  0
   35.6160   28.8260   40.8290 H   0  0  0  0  0  0  0  0  0  0  0  0
   36.4970   31.2840   39.9920 O   0  0  0  0  0  0  0  0  0  0  0  0
   36.4130   30.4880   38.8460 C   0  0  0  0  0  0  0  0  0  0  0  0
   37.2730   30.7690   37.8040 C   0  0  0  0  0  0  0  0  0  0  0  0
   37.2590   30.0230   36.6170 C   0  0  0  0  0  0  0  0  0  0  0  0
   36.3940   29.0180   36.4940 N   0  0  0  0  0  0  0  0  0  0  0  0
   35.5600   28.7530   37.5150 C   0  0  0  0  0  0  0  0  0  0  0  0
   35.5590   29.4530   38.6540 N   0  0  0  0  0  0  0  0  0  0  0  0
   37.9770   31.5840   37.9040 H   0  0  0  0  0  0  0  0  0  0  0  0
   37.9770   30.3250   35.8600 H   0  0  0  0  0  0  0  0  0  0  0  0
   34.4070   27.3970   37.3200 S   0  0  0  0  0  0  0  0  0  0  0  0
   35.1290   26.2320   36.9330 H   0  0  0  0  0  0  0  0  0  0  0  0
  1  2  1  0  0  0  0
  2  3  2  0  0  0  0
  2 10  1  0  0  0  0
  3  7  1  0  0  0  0
  4  8  1  0  0  0  0
  4  3  1  0  0  0  0
  5  4  2  0  0  0  0
  6  5  1  0  0  0  0
  6  1  2  0  0  0  0
  9  5  1  0  0  0  0
 10 11  1  0  0  0  0
 10 12  1  0  0  0  0
 13 14  1  0  0  0  0
 13 10  1  0  0  0  0
 14 19  1  0  0  0  0
 15 20  1  0  0  0  0
 15 14  2  0  0  0  0
 16 15  1  0  0  0  0
 17 16  2  0  0  0  0
 17 18  1  0  0  0  0
 18 13  2  0  0  0  0
 21 17  1  0  0  0  0
 22  1  1  0  0  0  0
 23 22  1  0  0  0  0
 24  6  1  0  0  0  0
 25 24  1  0  0  0  0
 26 31  1  0  0  0  0
 26 25  2  0  0  0  0
 27 26  1  0  0  0  0
 28 27  2  0  0  0  0
 28 29  1  0  0  0  0
 29 30  2  0  0  0  0
 30 25  1  0  0  0  0
 32 27  1  0  0  0  0
 33 29  1  0  0  0  0
 34 33  1  0  0  0  0
M  END
>  <minimizedAffinity>
-5.5467968

$$$$

 OpenBabel03242512223D

 34 36  0  0  0  0  0  0  0  0999 V2000
   38.2740   29.3180   42.6540 C   0  0  0  0  0  0  0  0  0  0  0  0
   38.5390   28.0330   43.0390 C   0  0  0  0  0  0  0  0  0  0  0  0
   39.8380   27.6220   43.1500 C   0  0  0  0  0  0  0  0  0  0  0  0
   40.8710   28.5120   42.8700 C   0  0  0  0  0  0  0  0  0  0  0  0
   40.5660   29.8030   42.4830 C   0  0  0  0  0  0  0  0  0  0  0  0
   39.2320   30.2320   42.3670 C   0  0  0  0  0  0  0  0  0  0  0  0
   40.0000   26.6000   43.4580 H   0  0  0  0  0  0  0  0  0  0  0  0
   41.8910   28.1650   42.9650 H   0  0  0  0  0  0  0  0  0  0  0  0
   41.3930   30.4750   42.2720 H   0  0  0  0  0  0  0  0  0  0  0  0
   37.3850   27.1570   43.3150 C   0  0  0  0  0  0  0  0  0  0  0  0
   36.4740   27.6980   43.5190 H   0  0  0  0  0  0  0  0  0  0  0  0
   37.5940   26.5000   44.1660 H   0  0  0  0  0  0  0  0  0  0  0  0
   37.0780   26.3000   42.1030 C   0  0  0  0  0  0  0  0  0  0  0  0
   37.0210   24.9160   42.2840 C   0  0  0  0  0  0  0  0  0  0  0  0
   36.7360   24.1600   41.1620 C   0  0  0  0  0  0  0  0  0  0  0  0
   36.5360   24.7860   39.9880 N   0  0  0  0  0  0  0  0  0  0  0  0
   36.5980   26.1340   39.8460 C   0  0  0  0  0  0  0  0  0  0  0  0
   36.8710   26.8950   40.9090 N   0  0  0  0  0  0  0  0  0  0  0  0
   37.1830   24.4400   43.2240 H   0  0  0  0  0  0  0  0  0  0  0  0
   36.6640   23.0840   41.1710 H   0  0  0  0  0  0  0  0  0  0  0  0
   36.4310   26.6030   38.8840 H   0  0  0  0  0  0  0  0  0  0  0  0
   36.9740   29.8310   42.5120 O   0  0  0  0  0  0  0  0  0  0  0  0
   36.7090   30.1800   41.6130 H   0  0  0  0  0  0  0  0  0  0  0  0
   39.0570   31.5510   41.9700 O   0  0  0  0  0  0  0  0  0  0  0  0
   39.4200   31.8090   40.6440 C   0  0  0  0  0  0  0  0  0  0  0  0
   38.7570   31.1160   39.6520 C   0  0  0  0  0  0  0  0  0  0  0  0
   39.0540   31.3100   38.2950 C   0  0  0  0  0  0  0  0  0  0  0  0
   40.0000   32.1860   37.9590 N   0  0  0  0  0  0  0  0  0  0  0  0
   40.6380   32.8550   38.9340 C   0  0  0  0  0  0  0  0  0  0  0  0
   40.3690   32.6830   40.2320 N   0  0  0  0  0  0  0  0  0  0  0  0
   37.9880   30.4060   39.9250 H   0  0  0  0  0  0  0  0  0  0  0  0
   38.4750   30.7160   37.5940 H   0  0  0  0  0  0  0  0  0  0  0  0
   41.9050   34.0250   38.4500 S   0  0  0  0  0  0  0  0  0  0  0  0
   41.3600   34.9210   37.4870 H   0  0  0  0  0  0  0  0  0  0  0  0
  1  2  1  0  0  0  0
  2  3  2  0  0  0  0
  2 10  1  0  0  0  0
  3  7  1  0  0  0  0
  4  8  1  0  0  0  0
  4  3  1  0  0  0  0
  5  4  2  0  0  0  0
  6  5  1  0  0  0  0
  6  1  2  0  0  0  0
  9  5  1  0  0  0  0
 10 11  1  0  0  0  0
 10 12  1  0  0  0  0
 13 14  1  0  0  0  0
 13 10  1  0  0  0  0
 14 19  1  0  0  0  0
 15 20  1  0  0  0  0
 15 14  2  0  0  0  0
 16 15  1  0  0  0  0
 17 16  2  0  0  0  0
 17 18  1  0  0  0  0
 18 13  2  0  0  0  0
 21 17  1  0  0  0  0
 22  1  1  0  0  0  0
 23 22  1  0  0  0  0
 24  6  1  0  0  0  0
 25 24  1  0  0  0  0
 26 31  1  0  0  0  0
 26 25  2  0  0  0  0
 27 26  1  0  0  0  0
 28 27  2  0  0  0  0
 28 29  1  0  0  0  0
 29 30  2  0  0  0  0
 30 25  1  0  0  0  0
 32 27  1  0  0  0  0
 33 29  1  0  0  0  0
 34 33  1  0  0  0  0
M  END
>  <minimizedAffinity>
-5.50151062

$$$$

 OpenBabel03242512223D

 34 36  0  0  0  0  0  0  0  0999 V2000
   36.6160   28.1690   41.4780 C   0  0  0  0  0  0  0  0  0  0  0  0
   37.2560   27.0770   41.9950 C   0  0  0  0  0  0  0  0  0  0  0  0
   37.3600   25.9430   41.2400 C   0  0  0  0  0  0  0  0  0  0  0  0
   36.8160   25.9120   39.9590 C   0  0  0  0  0  0  0  0  0  0  0  0
   36.1770   27.0340   39.4680 C   0  0  0  0  0  0  0  0  0  0  0  0
   36.0660   28.2050   40.2400 C   0  0  0  0  0  0  0  0  0  0  0  0
   37.8740   25.1060   41.6880 H   0  0  0  0  0  0  0  0  0  0  0  0
   36.9110   25.0040   39.3790 H   0  0  0  0  0  0  0  0  0  0  0  0
   35.7630   26.9810   38.4660 H   0  0  0  0  0  0  0  0  0  0  0  0
   37.8020   27.1960   43.3600 C   0  0  0  0  0  0  0  0  0  0  0  0
   37.5520   26.3600   43.9970 H   0  0  0  0  0  0  0  0  0  0  0  0
   37.4470   28.1130   43.8400 H   0  0  0  0  0  0  0  0  0  0  0  0
   39.3170   27.2250   43.3160 C   0  0  0  0  0  0  0  0  0  0  0  0
   39.9990   26.0550   43.6580 C   0  0  0  0  0  0  0  0  0  0  0  0
   41.3790   26.1100   43.6060 C   0  0  0  0  0  0  0  0  0  0  0  0
   41.9730   27.2600   43.2390 N   0  0  0  0  0  0  0  0  0  0  0  0
   41.2810   28.3800   42.9120 C   0  0  0  0  0  0  0  0  0  0  0  0
   39.9460   28.3630   42.9510 N   0  0  0  0  0  0  0  0  0  0  0  0
   39.5090   25.1530   43.9470 H   0  0  0  0  0  0  0  0  0  0  0  0
   42.0190   25.2750   43.8460 H   0  0  0  0  0  0  0  0  0  0  0  0
   41.7930   29.2880   42.6200 H   0  0  0  0  0  0  0  0  0  0  0  0
   36.4600   29.3780   42.1770 O   0  0  0  0  0  0  0  0  0  0  0  0
   35.5270   29.7010   42.3390 H   0  0  0  0  0  0  0  0  0  0  0  0
   35.4010   29.2640   39.6350 O   0  0  0  0  0  0  0  0  0  0  0  0
   36.2420   30.2320   39.0790 C   0  0  0  0  0  0  0  0  0  0  0  0
   36.6030   30.0840   37.7550 C   0  0  0  0  0  0  0  0  0  0  0  0
   37.4420   31.0070   37.1140 C   0  0  0  0  0  0  0  0  0  0  0  0
   37.9010   32.0510   37.8020 N   0  0  0  0  0  0  0  0  0  0  0  0
   37.5430   32.1850   39.0910 C   0  0  0  0  0  0  0  0  0  0  0  0
   36.7440   31.3160   39.7180 N   0  0  0  0  0  0  0  0  0  0  0  0
   36.2300   29.2370   37.1960 H   0  0  0  0  0  0  0  0  0  0  0  0
   37.6650   30.8000   36.0720 H   0  0  0  0  0  0  0  0  0  0  0  0
   38.1760   33.5990   39.9900 S   0  0  0  0  0  0  0  0  0  0  0  0
   37.8830   34.7810   39.2510 H   0  0  0  0  0  0  0  0  0  0  0  0
  1  2  1  0  0  0  0
  1 22  1  0  0  0  0
  2 10  1  0  0  0  0
  3  7  1  0  0  0  0
  3  2  2  0  0  0  0
  4  3  1  0  0  0  0
  5  4  2  0  0  0  0
  5  6  1  0  0  0  0
  6  1  2  0  0  0  0
  8  4  1  0  0  0  0
  9  5  1  0  0  0  0
 10 12  1  0  0  0  0
 10 11  1  0  0  0  0
 13 10  1  0  0  0  0
 13 14  1  0  0  0  0
 14 19  1  0  0  0  0
 15 14  2  0  0  0  0
 15 20  1  0  0  0  0
 16 15  1  0  0  0  0
 17 18  1  0  0  0  0
 17 16  2  0  0  0  0
 18 13  2  0  0  0  0
 21 17  1  0  0  0  0
 22 23  1  0  0  0  0
 24  6  1  0  0  0  0
 25 24  1  0  0  0  0
 25 30  1  0  0  0  0
 26 25  2  0  0  0  0
 27 26  1  0  0  0  0
 27 28  2  0  0  0  0
 28 29  1  0  0  0  0
 29 30  2  0  0  0  0
 29 33  1  0  0  0  0
 31 26  1  0  0  0  0
 32 27  1  0  0  0  0
 34 33  1  0  0  0  0
M  END
>  <minimizedAffinity>
-5.46305513

$$$$

 OpenBabel03242512223D

 34 36  0  0  0  0  0  0  0  0999 V2000
   36.8780   28.9450   41.8200 C   0  0  0  0  0  0  0  0  0  0  0  0
   37.4500   30.1550   41.5370 C   0  0  0  0  0  0  0  0  0  0  0  0
   38.7300   30.4010   41.9450 C   0  0  0  0  0  0  0  0  0  0  0  0
   39.4350   29.4230   42.6420 C   0  0  0  0  0  0  0  0  0  0  0  0
   38.8260   28.2130   42.9100 C   0  0  0  0  0  0  0  0  0  0  0  0
   37.5080   27.9520   42.4930 C   0  0  0  0  0  0  0  0  0  0  0  0
   39.1410   31.3690   41.6990 H   0  0  0  0  0  0  0  0  0  0  0  0
   40.4470   29.6400   42.9550 H   0  0  0  0  0  0  0  0  0  0  0  0
   39.4000   27.4690   43.4550 H   0  0  0  0  0  0  0  0  0  0  0  0
   36.6320   31.1330   40.7950 C   0  0  0  0  0  0  0  0  0  0  0  0
   36.9030   32.1590   40.9960 H   0  0  0  0  0  0  0  0  0  0  0  0
   35.5700   31.0050   41.0290 H   0  0  0  0  0  0  0  0  0  0  0  0
   36.8270   30.9530   39.3030 C   0  0  0  0  0  0  0  0  0  0  0  0
   37.6560   31.8620   38.6420 C   0  0  0  0  0  0  0  0  0  0  0  0
   37.8180   31.6720   37.2830 C   0  0  0  0  0  0  0  0  0  0  0  0
   37.1820   30.6470   36.6880 N   0  0  0  0  0  0  0  0  0  0  0  0
   36.3830   29.7800   37.3590 C   0  0  0  0  0  0  0  0  0  0  0  0
   36.2040   29.9340   38.6740 N   0  0  0  0  0  0  0  0  0  0  0  0
   38.1510   32.6700   39.1330 H   0  0  0  0  0  0  0  0  0  0  0  0
   38.4320   32.3050   36.6610 H   0  0  0  0  0  0  0  0  0  0  0  0
   35.8880   28.9650   36.8460 H   0  0  0  0  0  0  0  0  0  0  0  0
   35.5700   28.6000   41.4420 O   0  0  0  0  0  0  0  0  0  0  0  0
   34.9260   28.3580   42.1690 H   0  0  0  0  0  0  0  0  0  0  0  0
   37.0090   26.6990   42.8240 O   0  0  0  0  0  0  0  0  0  0  0  0
   37.2110   25.7200   41.8460 C   0  0  0  0  0  0  0  0  0  0  0  0
   37.9340   24.5980   42.2020 C   0  0  0  0  0  0  0  0  0  0  0  0
   38.1860   23.5660   41.2880 C   0  0  0  0  0  0  0  0  0  0  0  0
   37.7160   23.6710   40.0460 N   0  0  0  0  0  0  0  0  0  0  0  0
   37.0140   24.7680   39.7110 C   0  0  0  0  0  0  0  0  0  0  0  0
   36.7640   25.7620   40.5690 N   0  0  0  0  0  0  0  0  0  0  0  0
   38.3140   24.5120   43.2110 H   0  0  0  0  0  0  0  0  0  0  0  0
   38.7620   22.7270   41.6670 H   0  0  0  0  0  0  0  0  0  0  0  0
   36.3950   24.8820   38.0340 S   0  0  0  0  0  0  0  0  0  0  0  0
   35.6670   23.6960   37.7310 H   0  0  0  0  0  0  0  0  0  0  0  0
  1  6  1  0  0  0  0
  2  1  2  0  0  0  0
  2  3  1  0  0  0  0
  3  4  2  0  0  0  0
  4  5  1  0  0  0  0
  4  8  1  0  0  0  0
  5  9  1  0  0  0  0
  6 24  1  0  0  0  0
  6  5  2  0  0  0  0
  7  3  1  0  0  0  0
 10 11  1  0  0  0  0
 10 12  1  0  0  0  0
 10  2  1  0  0  0  0
 13 10  1  0  0  0  0
 14 19  1  0  0  0  0
 14 13  2  0  0  0  0
 15 14  1  0  0  0  0
 16 15  2  0  0  0  0
 16 17  1  0  0  0  0
 17 18  2  0  0  0  0
 18 13  1  0  0  0  0
 20 15  1  0  0  0  0
 21 17  1  0  0  0  0
 22  1  1  0  0  0  0
 22 23  1  0  0  0  0
 25 26  1  0  0  0  0
 25 24  1  0  0  0  0
 26 31  1  0  0  0  0
 27 32  1  0  0  0  0
 27 26  2  0  0  0  0
 28 27  1  0  0  0  0
 29 28  2  0  0  0  0
 29 30  1  0  0  0  0
 30 25  2  0  0  0  0
 33 29  1  0  0  0  0
 34 33  1  0  0  0  0
M  END
>  <minimizedAffinity>
-5.39930248

$$$$

 OpenBabel03242512223D

 34 36  0  0  0  0  0  0  0  0999 V2000
   37.9350   29.4340   40.7870 C   0  0  0  0  0  0  0  0  0  0  0  0
   37.4850   29.9090   39.5870 C   0  0  0  0  0  0  0  0  0  0  0  0
   36.1780   29.7180   39.2390 C   0  0  0  0  0  0  0  0  0  0  0  0
   35.3230   29.0450   40.1070 C   0  0  0  0  0  0  0  0  0  0  0  0
   35.8110   28.5790   41.3120 C   0  0  0  0  0  0  0  0  0  0  0  0
   37.1560   28.7720   41.6760 C   0  0  0  0  0  0  0  0  0  0  0  0
   35.8670   30.1100   38.2820 H   0  0  0  0  0  0  0  0  0  0  0  0
   34.2920   28.9060   39.8110 H   0  0  0  0  0  0  0  0  0  0  0  0
   35.1210   28.0580   41.9690 H   0  0  0  0  0  0  0  0  0  0  0  0
   38.4590   30.6090   38.7280 C   0  0  0  0  0  0  0  0  0  0  0  0
   38.0880   30.8130   37.7340 H   0  0  0  0  0  0  0  0  0  0  0  0
   39.3830   30.0290   38.6380 H   0  0  0  0  0  0  0  0  0  0  0  0
   38.7920   31.9660   39.3150 C   0  0  0  0  0  0  0  0  0  0  0  0
   37.7560   32.8960   39.4320 C   0  0  0  0  0  0  0  0  0  0  0  0
   38.0880   34.1230   39.9730 C   0  0  0  0  0  0  0  0  0  0  0  0
   39.3610   34.3480   40.3470 N   0  0  0  0  0  0  0  0  0  0  0  0
   40.3450   33.4230   40.2210 C   0  0  0  0  0  0  0  0  0  0  0  0
   40.0600   32.2260   39.7020 N   0  0  0  0  0  0  0  0  0  0  0  0
   36.7530   32.6970   39.1280 H   0  0  0  0  0  0  0  0  0  0  0  0
   37.3790   34.9240   40.1160 H   0  0  0  0  0  0  0  0  0  0  0  0
   41.3590   33.6390   40.5340 H   0  0  0  0  0  0  0  0  0  0  0  0
   39.2600   29.5820   41.2310 O   0  0  0  0  0  0  0  0  0  0  0  0
   39.7780   28.7500   41.4290 H   0  0  0  0  0  0  0  0  0  0  0  0
   37.5240   28.2570   42.9120 O   0  0  0  0  0  0  0  0  0  0  0  0
   38.1730   27.0190   42.8520 C   0  0  0  0  0  0  0  0  0  0  0  0
   39.2670   26.8290   43.6720 C   0  0  0  0  0  0  0  0  0  0  0  0
   39.9790   25.6210   43.6790 C   0  0  0  0  0  0  0  0  0  0  0  0
   39.5880   24.6340   42.8750 N   0  0  0  0  0  0  0  0  0  0  0  0
   38.5210   24.8310   42.0810 C   0  0  0  0  0  0  0  0  0  0  0  0
   37.8300   25.9750   42.0600 N   0  0  0  0  0  0  0  0  0  0  0  0
   39.5850   27.6290   44.3260 H   0  0  0  0  0  0  0  0  0  0  0  0
   40.8230   25.5720   44.3610 H   0  0  0  0  0  0  0  0  0  0  0  0
   38.0190   23.4860   41.0090 S   0  0  0  0  0  0  0  0  0  0  0  0
   37.8630   22.3080   41.7940 H   0  0  0  0  0  0  0  0  0  0  0  0
  1 22  1  0  0  0  0
  1  6  1  0  0  0  0
  2  1  2  0  0  0  0
  3  2  1  0  0  0  0
  3  4  2  0  0  0  0
  4  5  1  0  0  0  0
  5  6  2  0  0  0  0
  5  9  1  0  0  0  0
  6 24  1  0  0  0  0
  7  3  1  0  0  0  0
  8  4  1  0  0  0  0
 10 13  1  0  0  0  0
 10  2  1  0  0  0  0
 11 10  1  0  0  0  0
 12 10  1  0  0  0  0
 13 14  2  0  0  0  0
 13 18  1  0  0  0  0
 14 15  1  0  0  0  0
 15 20  1  0  0  0  0
 15 16  2  0  0  0  0
 17 16  1  0  0  0  0
 17 21  1  0  0  0  0
 18 17  2  0  0  0  0
 19 14  1  0  0  0  0
 22 23  1  0  0  0  0
 25 24  1  0  0  0  0
 25 26  1  0  0  0  0
 26 27  2  0  0  0  0
 26 31  1  0  0  0  0
 27 32  1  0  0  0  0
 28 27  1  0  0  0  0
 29 28  2  0  0  0  0
 30 29  1  0  0  0  0
 30 25  2  0  0  0  0
 33 34  1  0  0  0  0
 33 29  1  0  0  0  0
M  END
>  <minimizedAffinity>
-5.39206457

$$$$

 OpenBabel03242512223D

 34 36  0  0  0  0  0  0  0  0999 V2000
   37.0730   29.4600   41.8200 C   0  0  0  0  0  0  0  0  0  0  0  0
   37.1680   30.4440   40.8750 C   0  0  0  0  0  0  0  0  0  0  0  0
   38.3180   31.1760   40.7860 C   0  0  0  0  0  0  0  0  0  0  0  0
   39.3750   30.9130   41.6520 C   0  0  0  0  0  0  0  0  0  0  0  0
   39.2440   29.9110   42.5940 C   0  0  0  0  0  0  0  0  0  0  0  0
   38.0630   29.1540   42.6930 C   0  0  0  0  0  0  0  0  0  0  0  0
   38.3490   31.9420   40.0250 H   0  0  0  0  0  0  0  0  0  0  0  0
   40.2760   31.5050   41.5630 H   0  0  0  0  0  0  0  0  0  0  0  0
   40.0850   29.7290   43.2570 H   0  0  0  0  0  0  0  0  0  0  0  0
   36.0010   30.6570   39.9980 C   0  0  0  0  0  0  0  0  0  0  0  0
   35.8360   31.6930   39.7460 H   0  0  0  0  0  0  0  0  0  0  0  0
   35.0910   30.2670   40.4660 H   0  0  0  0  0  0  0  0  0  0  0  0
   36.2080   29.9520   38.6730 C   0  0  0  0  0  0  0  0  0  0  0  0
   35.6270   28.6920   38.5090 C   0  0  0  0  0  0  0  0  0  0  0  0
   35.8300   28.0740   37.2900 C   0  0  0  0  0  0  0  0  0  0  0  0
   36.5600   28.7060   36.3520 N   0  0  0  0  0  0  0  0  0  0  0  0
   37.1110   29.9310   36.5420 C   0  0  0  0  0  0  0  0  0  0  0  0
   36.9340   30.5570   37.7090 N   0  0  0  0  0  0  0  0  0  0  0  0
   35.0520   28.2080   39.2670 H   0  0  0  0  0  0  0  0  0  0  0  0
   35.4340   27.1020   37.0400 H   0  0  0  0  0  0  0  0  0  0  0  0
   37.6920   30.4090   35.7640 H   0  0  0  0  0  0  0  0  0  0  0  0
   35.9330   28.6570   41.9880 O   0  0  0  0  0  0  0  0  0  0  0  0
   35.4800   28.6760   42.8800 H   0  0  0  0  0  0  0  0  0  0  0  0
   38.0550   28.1770   43.6800 O   0  0  0  0  0  0  0  0  0  0  0  0
   38.4480   26.9090   43.2410 C   0  0  0  0  0  0  0  0  0  0  0  0
   39.6650   26.4280   43.6790 C   0  0  0  0  0  0  0  0  0  0  0  0
   40.1400   25.1670   43.2900 C   0  0  0  0  0  0  0  0  0  0  0  0
   39.3960   24.4170   42.4790 N   0  0  0  0  0  0  0  0  0  0  0  0
   38.2120   24.8960   42.0590 C   0  0  0  0  0  0  0  0  0  0  0  0
   37.7440   26.0950   42.4180 N   0  0  0  0  0  0  0  0  0  0  0  0
   40.2690   27.0360   44.3380 H   0  0  0  0  0  0  0  0  0  0  0  0
   41.1090   24.8820   43.6900 H   0  0  0  0  0  0  0  0  0  0  0  0
   37.2350   23.8650   40.9680 S   0  0  0  0  0  0  0  0  0  0  0  0
   37.0850   22.5790   41.5630 H   0  0  0  0  0  0  0  0  0  0  0  0
  1 22  1  0  0  0  0
  1  6  1  0  0  0  0
  2  1  2  0  0  0  0
  3  2  1  0  0  0  0
  3  4  2  0  0  0  0
  4  5  1  0  0  0  0
  5  6  2  0  0  0  0
  5  9  1  0  0  0  0
  6 24  1  0  0  0  0
  7  3  1  0  0  0  0
  8  4  1  0  0  0  0
 10 12  1  0  0  0  0
 10  2  1  0  0  0  0
 11 10  1  0  0  0  0
 13 10  1  0  0  0  0
 14 13  1  0  0  0  0
 14 19  1  0  0  0  0
 15 14  2  0  0  0  0
 16 17  2  0  0  0  0
 16 15  1  0  0  0  0
 17 18  1  0  0  0  0
 18 13  2  0  0  0  0
 20 15  1  0  0  0  0
 21 17  1  0  0  0  0
 22 23  1  0  0  0  0
 25 26  1  0  0  0  0
 25 24  1  0  0  0  0
 26 31  1  0  0  0  0
 27 26  2  0  0  0  0
 27 32  1  0  0  0  0
 28 27  1  0  0  0  0
 29 30  1  0  0  0  0
 29 28  2  0  0  0  0
 30 25  2  0  0  0  0
 33 34  1  0  0  0  0
 33 29  1  0  0  0  0
M  END
>  <minimizedAffinity>
-5.37237024

$$$$
