
 OpenBabel03252506233D

 24 25  0  0  0  0  0  0  0  0999 V2000
   37.7350   30.7740   41.1540 C   0  0  0  0  0  0  0  0  0  0  0  0
   36.8250   31.4100   40.2860 C   0  0  0  0  0  0  0  0  0  0  0  0
   37.3250   32.6160   39.9420 C   0  0  0  0  0  0  0  0  0  0  0  0
   38.5100   32.7240   40.5790 N   0  0  0  0  0  0  0  0  0  0  0  0
   38.7500   31.6250   41.2990 N   0  0  0  0  0  0  0  0  0  0  0  0
   35.8860   30.9820   39.9620 H   0  0  0  0  0  0  0  0  0  0  0  0
   36.8500   33.3340   39.2850 H   0  0  0  0  0  0  0  0  0  0  0  0
   37.5790   28.0560   43.5910 C   0  0  0  0  0  0  0  0  0  0  0  0
   37.1410   26.9690   42.8370 C   0  0  0  0  0  0  0  0  0  0  0  0
   36.9020   27.1910   41.4780 C   0  0  0  0  0  0  0  0  0  0  0  0
   37.1060   28.4370   40.9700 N   0  0  0  0  0  0  0  0  0  0  0  0
   37.5300   29.4610   41.7290 C   0  0  0  0  0  0  0  0  0  0  0  0
   37.7670   29.2760   43.0380 N   0  0  0  0  0  0  0  0  0  0  0  0
   37.7640   27.8830   44.6460 H   0  0  0  0  0  0  0  0  0  0  0  0
   36.9740   25.9890   43.2100 H   0  0  0  0  0  0  0  0  0  0  0  0
   36.5590   26.4430   40.7670 H   0  0  0  0  0  0  0  0  0  0  0  0
   39.3680   33.8780   40.4740 C   0  0  0  0  0  0  0  0  0  0  0  0
   39.0100   34.5900   39.7400 H   0  0  0  0  0  0  0  0  0  0  0  0
   39.4030   34.3100   41.5160 H   0  0  0  0  0  0  0  0  0  0  0  0
   40.7690   33.3850   40.2060 C   0  0  0  0  0  0  0  0  0  0  0  0
   40.9020   32.4830   40.8610 H   0  0  0  0  0  0  0  0  0  0  0  0
   41.5390   34.1110   40.5760 H   0  0  0  0  0  0  0  0  0  0  0  0
   41.0360   32.9830   38.4710 S   0  0  0  0  0  0  0  0  0  0  0  0
   41.9190   31.8950   38.3960 H   0  0  0  0  0  0  0  0  0  0  0  0
  1  5  2  0  0  0  0
  1 12  1  0  0  0  0
  2  1  1  0  0  0  0
  3  2  2  0  0  0  0
  3  4  1  0  0  0  0
  4  5  1  0  0  0  0
  6  2  1  0  0  0  0
  7  3  1  0  0  0  0
  8 14  1  0  0  0  0
  9 15  1  0  0  0  0
  9  8  2  0  0  0  0
 10  9  1  0  0  0  0
 11 10  2  0  0  0  0
 11 12  1  0  0  0  0
 12 13  2  0  0  0  0
 13  8  1  0  0  0  0
 16 10  1  0  0  0  0
 17  4  1  0  0  0  0
 17 19  1  0  0  0  0
 18 17  1  0  0  0  0
 20 17  1  0  0  0  0
 20 22  1  0  0  0  0
 20 21  1  0  0  0  0
 23 20  1  0  0  0  0
 24 23  1  0  0  0  0
M  END
>  <minimizedAffinity>
-3.91686964

$$$$

 OpenBabel03252506233D

 24 25  0  0  0  0  0  0  0  0999 V2000
   37.1470   30.4440   41.1290 C   0  0  0  0  0  0  0  0  0  0  0  0
   36.0990   29.7980   40.4430 C   0  0  0  0  0  0  0  0  0  0  0  0
   35.8280   28.6310   41.0650 C   0  0  0  0  0  0  0  0  0  0  0  0
   36.6840   28.5560   42.1060 N   0  0  0  0  0  0  0  0  0  0  0  0
   37.4670   29.6380   42.1400 N   0  0  0  0  0  0  0  0  0  0  0  0
   35.6070   30.1920   39.5650 H   0  0  0  0  0  0  0  0  0  0  0  0
   35.0710   27.9160   40.7680 H   0  0  0  0  0  0  0  0  0  0  0  0
   37.4810   33.7510   39.6100 C   0  0  0  0  0  0  0  0  0  0  0  0
   38.7540   34.1610   40.0050 C   0  0  0  0  0  0  0  0  0  0  0  0
   39.4900   33.2790   40.8000 C   0  0  0  0  0  0  0  0  0  0  0  0
   38.9350   32.0860   41.1430 N   0  0  0  0  0  0  0  0  0  0  0  0
   37.7050   31.7240   40.7430 C   0  0  0  0  0  0  0  0  0  0  0  0
   36.9750   32.5520   39.9780 N   0  0  0  0  0  0  0  0  0  0  0  0
   36.9100   34.4360   38.9930 H   0  0  0  0  0  0  0  0  0  0  0  0
   39.2070   35.0870   39.7500 H   0  0  0  0  0  0  0  0  0  0  0  0
   40.4910   33.4600   41.1820 H   0  0  0  0  0  0  0  0  0  0  0  0
   36.7200   27.4500   43.0290 C   0  0  0  0  0  0  0  0  0  0  0  0
   35.9140   27.4920   43.7520 H   0  0  0  0  0  0  0  0  0  0  0  0
   36.6720   26.5270   42.3800 H   0  0  0  0  0  0  0  0  0  0  0  0
   38.0940   27.4180   43.6540 C   0  0  0  0  0  0  0  0  0  0  0  0
   37.9270   27.1770   44.7370 H   0  0  0  0  0  0  0  0  0  0  0  0
   38.5640   28.4350   43.6650 H   0  0  0  0  0  0  0  0  0  0  0  0
   39.1760   26.2090   42.8710 S   0  0  0  0  0  0  0  0  0  0  0  0
   40.0240   25.6700   43.8500 H   0  0  0  0  0  0  0  0  0  0  0  0
  1  5  2  0  0  0  0
  2  3  2  0  0  0  0
  2  1  1  0  0  0  0
  3  4  1  0  0  0  0
  4  5  1  0  0  0  0
  4 17  1  0  0  0  0
  6  2  1  0  0  0  0
  7  3  1  0  0  0  0
  8 13  2  0  0  0  0
  8  9  1  0  0  0  0
  9 10  2  0  0  0  0
 10 11  1  0  0  0  0
 10 16  1  0  0  0  0
 12  1  1  0  0  0  0
 12 11  2  0  0  0  0
 13 12  1  0  0  0  0
 14  8  1  0  0  0  0
 15  9  1  0  0  0  0
 17 20  1  0  0  0  0
 17 18  1  0  0  0  0
 19 17  1  0  0  0  0
 20 22  1  0  0  0  0
 20 21  1  0  0  0  0
 23 20  1  0  0  0  0
 23 24  1  0  0  0  0
M  END
>  <minimizedAffinity>
-3.91164279

$$$$

 OpenBabel03252506233D

 24 25  0  0  0  0  0  0  0  0999 V2000
   37.7530   29.1070   42.1050 C   0  0  0  0  0  0  0  0  0  0  0  0
   37.6340   28.8630   43.4880 C   0  0  0  0  0  0  0  0  0  0  0  0
   37.4260   27.5430   43.6790 C   0  0  0  0  0  0  0  0  0  0  0  0
   37.4180   26.9860   42.4500 N   0  0  0  0  0  0  0  0  0  0  0  0
   37.6130   27.9200   41.5160 N   0  0  0  0  0  0  0  0  0  0  0  0
   37.7000   29.6250   44.2520 H   0  0  0  0  0  0  0  0  0  0  0  0
   37.2960   27.0550   44.6360 H   0  0  0  0  0  0  0  0  0  0  0  0
   39.3860   32.2480   41.1980 C   0  0  0  0  0  0  0  0  0  0  0  0
   38.4250   32.9020   40.4280 C   0  0  0  0  0  0  0  0  0  0  0  0
   37.2100   32.2410   40.2290 C   0  0  0  0  0  0  0  0  0  0  0  0
   37.0300   31.0140   40.7880 N   0  0  0  0  0  0  0  0  0  0  0  0
   37.9800   30.4150   41.5260 C   0  0  0  0  0  0  0  0  0  0  0  0
   39.1570   31.0270   41.7330 N   0  0  0  0  0  0  0  0  0  0  0  0
   40.3290   32.7610   41.3520 H   0  0  0  0  0  0  0  0  0  0  0  0
   38.5420   33.8580   39.9810 H   0  0  0  0  0  0  0  0  0  0  0  0
   36.3700   32.6240   39.6540 H   0  0  0  0  0  0  0  0  0  0  0  0
   37.2220   25.5760   42.2160 C   0  0  0  0  0  0  0  0  0  0  0  0
   36.8810   25.0570   43.1040 H   0  0  0  0  0  0  0  0  0  0  0  0
   36.4770   25.5230   41.3690 H   0  0  0  0  0  0  0  0  0  0  0  0
   38.5050   25.0230   41.6450 C   0  0  0  0  0  0  0  0  0  0  0  0
   38.9280   25.8410   41.0040 H   0  0  0  0  0  0  0  0  0  0  0  0
   38.3080   24.1830   40.9300 H   0  0  0  0  0  0  0  0  0  0  0  0
   39.6680   24.5260   42.9280 S   0  0  0  0  0  0  0  0  0  0  0  0
   40.9710   24.7770   42.4690 H   0  0  0  0  0  0  0  0  0  0  0  0
  1  2  1  0  0  0  0
  2  3  2  0  0  0  0
  2  6  1  0  0  0  0
  3  7  1  0  0  0  0
  4  3  1  0  0  0  0
  5  1  2  0  0  0  0
  5  4  1  0  0  0  0
  8 14  1  0  0  0  0
  8 13  1  0  0  0  0
  9  8  2  0  0  0  0
 10  9  1  0  0  0  0
 10 11  2  0  0  0  0
 11 12  1  0  0  0  0
 12 13  2  0  0  0  0
 12  1  1  0  0  0  0
 15  9  1  0  0  0  0
 16 10  1  0  0  0  0
 17  4  1  0  0  0  0
 17 18  1  0  0  0  0
 19 17  1  0  0  0  0
 20 17  1  0  0  0  0
 20 23  1  0  0  0  0
 21 20  1  0  0  0  0
 22 20  1  0  0  0  0
 24 23  1  0  0  0  0
M  END
>  <minimizedAffinity>
-3.81158805

$$$$

 OpenBabel03252506233D

 24 25  0  0  0  0  0  0  0  0999 V2000
   37.5650   27.7780   41.6160 C   0  0  0  0  0  0  0  0  0  0  0  0
   36.5690   27.5580   40.6430 C   0  0  0  0  0  0  0  0  0  0  0  0
   36.0090   28.7440   40.3200 C   0  0  0  0  0  0  0  0  0  0  0  0
   36.6400   29.6700   41.0720 N   0  0  0  0  0  0  0  0  0  0  0  0
   37.5650   29.0910   41.8410 N   0  0  0  0  0  0  0  0  0  0  0  0
   36.3130   26.5900   40.2370 H   0  0  0  0  0  0  0  0  0  0  0  0
   35.2160   28.8940   39.6000 H   0  0  0  0  0  0  0  0  0  0  0  0
   40.0630   26.0890   43.6800 C   0  0  0  0  0  0  0  0  0  0  0  0
   39.9230   24.7480   43.3250 C   0  0  0  0  0  0  0  0  0  0  0  0
   38.9560   24.4400   42.3640 C   0  0  0  0  0  0  0  0  0  0  0  0
   38.2130   25.4480   41.8350 N   0  0  0  0  0  0  0  0  0  0  0  0
   38.3760   26.7300   42.2020 C   0  0  0  0  0  0  0  0  0  0  0  0
   39.2980   27.0550   43.1220 N   0  0  0  0  0  0  0  0  0  0  0  0
   40.8130   26.3270   44.4260 H   0  0  0  0  0  0  0  0  0  0  0  0
   40.4910   23.9440   43.7240 H   0  0  0  0  0  0  0  0  0  0  0  0
   38.7340   23.4440   41.9890 H   0  0  0  0  0  0  0  0  0  0  0  0
   36.3320   31.0780   41.0250 C   0  0  0  0  0  0  0  0  0  0  0  0
   35.2700   31.2690   41.1230 H   0  0  0  0  0  0  0  0  0  0  0  0
   36.9340   31.5360   41.8640 H   0  0  0  0  0  0  0  0  0  0  0  0
   36.9350   31.6380   39.7590 C   0  0  0  0  0  0  0  0  0  0  0  0
   36.0640   31.9340   39.1160 H   0  0  0  0  0  0  0  0  0  0  0  0
   37.4600   30.8440   39.1670 H   0  0  0  0  0  0  0  0  0  0  0  0
   38.0220   33.0380   40.0780 S   0  0  0  0  0  0  0  0  0  0  0  0
   37.9140   33.9390   39.0080 H   0  0  0  0  0  0  0  0  0  0  0  0
  1  5  2  0  0  0  0
  1 12  1  0  0  0  0
  2  1  1  0  0  0  0
  3  2  2  0  0  0  0
  3  4  1  0  0  0  0
  4  5  1  0  0  0  0
  6  2  1  0  0  0  0
  7  3  1  0  0  0  0
  8 14  1  0  0  0  0
  9  8  1  0  0  0  0
  9 15  1  0  0  0  0
 10  9  2  0  0  0  0
 11 12  2  0  0  0  0
 11 10  1  0  0  0  0
 12 13  1  0  0  0  0
 13  8  2  0  0  0  0
 16 10  1  0  0  0  0
 17  4  1  0  0  0  0
 17 18  1  0  0  0  0
 17 19  1  0  0  0  0
 20 23  1  0  0  0  0
 20 17  1  0  0  0  0
 21 20  1  0  0  0  0
 22 20  1  0  0  0  0
 24 23  1  0  0  0  0
M  END
>  <minimizedAffinity>
-3.73256826

$$$$

 OpenBabel03252506233D

 24 25  0  0  0  0  0  0  0  0999 V2000
   37.3450   27.4650   41.5710 C   0  0  0  0  0  0  0  0  0  0  0  0
   37.9830   28.1730   42.6090 C   0  0  0  0  0  0  0  0  0  0  0  0
   37.6330   29.4740   42.5260 C   0  0  0  0  0  0  0  0  0  0  0  0
   36.8010   29.5680   41.4670 N   0  0  0  0  0  0  0  0  0  0  0  0
   36.6330   28.3700   40.9020 N   0  0  0  0  0  0  0  0  0  0  0  0
   38.6430   27.7260   43.3410 H   0  0  0  0  0  0  0  0  0  0  0  0
   37.9650   30.2630   43.1890 H   0  0  0  0  0  0  0  0  0  0  0  0
   38.5710   24.0330   41.8420 C   0  0  0  0  0  0  0  0  0  0  0  0
   37.7780   23.3340   40.9330 C   0  0  0  0  0  0  0  0  0  0  0  0
   36.8180   24.0650   40.2290 C   0  0  0  0  0  0  0  0  0  0  0  0
   36.7080   25.4010   40.4630 N   0  0  0  0  0  0  0  0  0  0  0  0
   37.4910   26.0410   41.3470 C   0  0  0  0  0  0  0  0  0  0  0  0
   38.4220   25.3630   42.0380 N   0  0  0  0  0  0  0  0  0  0  0  0
   39.3150   23.4640   42.3880 H   0  0  0  0  0  0  0  0  0  0  0  0
   37.8450   22.2920   40.7330 H   0  0  0  0  0  0  0  0  0  0  0  0
   36.1310   23.6590   39.4910 H   0  0  0  0  0  0  0  0  0  0  0  0
   36.1990   30.8050   41.0360 C   0  0  0  0  0  0  0  0  0  0  0  0
   35.1170   30.7470   41.0080 H   0  0  0  0  0  0  0  0  0  0  0  0
   36.5720   31.5820   41.7660 H   0  0  0  0  0  0  0  0  0  0  0  0
   36.8200   31.1810   39.7130 C   0  0  0  0  0  0  0  0  0  0  0  0
   35.9950   31.0930   38.9560 H   0  0  0  0  0  0  0  0  0  0  0  0
   37.5790   30.4250   39.3850 H   0  0  0  0  0  0  0  0  0  0  0  0
   37.5200   32.8410   39.7310 S   0  0  0  0  0  0  0  0  0  0  0  0
   37.3540   33.4080   38.4580 H   0  0  0  0  0  0  0  0  0  0  0  0
  1  2  1  0  0  0  0
  2  6  1  0  0  0  0
  3  2  2  0  0  0  0
  3  7  1  0  0  0  0
  4  3  1  0  0  0  0
  5  4  1  0  0  0  0
  5  1  2  0  0  0  0
  8 13  1  0  0  0  0
  8 14  1  0  0  0  0
  9  8  2  0  0  0  0
 10 11  2  0  0  0  0
 10  9  1  0  0  0  0
 11 12  1  0  0  0  0
 12  1  1  0  0  0  0
 12 13  2  0  0  0  0
 15  9  1  0  0  0  0
 16 10  1  0  0  0  0
 17  4  1  0  0  0  0
 17 19  1  0  0  0  0
 18 17  1  0  0  0  0
 20 23  1  0  0  0  0
 20 17  1  0  0  0  0
 21 20  1  0  0  0  0
 22 20  1  0  0  0  0
 24 23  1  0  0  0  0
M  END
>  <minimizedAffinity>
-3.65019941

$$$$

 OpenBabel03252506233D

 24 25  0  0  0  0  0  0  0  0999 V2000
   37.8720   29.3330   41.9020 C   0  0  0  0  0  0  0  0  0  0  0  0
   38.2350   29.0770   43.2400 C   0  0  0  0  0  0  0  0  0  0  0  0
   38.0420   27.7660   43.5000 C   0  0  0  0  0  0  0  0  0  0  0  0
   37.5730   27.2260   42.3550 N   0  0  0  0  0  0  0  0  0  0  0  0
   37.4730   28.1610   41.4070 N   0  0  0  0  0  0  0  0  0  0  0  0
   38.6050   29.8250   43.9270 H   0  0  0  0  0  0  0  0  0  0  0  0
   38.2340   27.2730   44.4440 H   0  0  0  0  0  0  0  0  0  0  0  0
   37.0020   32.2390   39.8650 C   0  0  0  0  0  0  0  0  0  0  0  0
   38.0710   33.1100   40.0710 C   0  0  0  0  0  0  0  0  0  0  0  0
   39.0920   32.6770   40.9210 C   0  0  0  0  0  0  0  0  0  0  0  0
   38.9910   31.4480   41.4950 N   0  0  0  0  0  0  0  0  0  0  0  0
   37.9450   30.6350   41.2730 C   0  0  0  0  0  0  0  0  0  0  0  0
   36.9500   31.0250   40.4610 N   0  0  0  0  0  0  0  0  0  0  0  0
   36.2100   32.5760   39.2060 H   0  0  0  0  0  0  0  0  0  0  0  0
   38.1710   34.0730   39.6350 H   0  0  0  0  0  0  0  0  0  0  0  0
   39.9840   33.2440   41.1760 H   0  0  0  0  0  0  0  0  0  0  0  0
   37.2370   25.8310   42.2130 C   0  0  0  0  0  0  0  0  0  0  0  0
   36.4550   25.5260   42.9000 H   0  0  0  0  0  0  0  0  0  0  0  0
   36.9340   25.7130   41.1320 H   0  0  0  0  0  0  0  0  0  0  0  0
   38.5110   25.0350   42.3530 C   0  0  0  0  0  0  0  0  0  0  0  0
   38.2160   24.0810   42.8650 H   0  0  0  0  0  0  0  0  0  0  0  0
   39.2250   25.5230   43.0650 H   0  0  0  0  0  0  0  0  0  0  0  0
   39.2950   24.7120   40.7640 S   0  0  0  0  0  0  0  0  0  0  0  0
   39.9100   23.4520   40.8180 H   0  0  0  0  0  0  0  0  0  0  0  0
  1  2  1  0  0  0  0
  2  3  2  0  0  0  0
  2  6  1  0  0  0  0
  3  7  1  0  0  0  0
  4  3  1  0  0  0  0
  5  1  2  0  0  0  0
  5  4  1  0  0  0  0
  8  9  2  0  0  0  0
  8 13  1  0  0  0  0
  9 10  1  0  0  0  0
 10 16  1  0  0  0  0
 10 11  2  0  0  0  0
 12 11  1  0  0  0  0
 12  1  1  0  0  0  0
 13 12  2  0  0  0  0
 14  8  1  0  0  0  0
 15  9  1  0  0  0  0
 17 20  1  0  0  0  0
 17  4  1  0  0  0  0
 17 18  1  0  0  0  0
 19 17  1  0  0  0  0
 20 21  1  0  0  0  0
 20 22  1  0  0  0  0
 23 24  1  0  0  0  0
 23 20  1  0  0  0  0
M  END
>  <minimizedAffinity>
-3.63774109

$$$$

 OpenBabel03252506233D

 24 25  0  0  0  0  0  0  0  0999 V2000
   38.0970   28.0130   41.9760 C   0  0  0  0  0  0  0  0  0  0  0  0
   37.2410   26.9030   41.8320 C   0  0  0  0  0  0  0  0  0  0  0  0
   37.8260   25.8270   42.4010 C   0  0  0  0  0  0  0  0  0  0  0  0
   39.0090   26.2590   42.8840 N   0  0  0  0  0  0  0  0  0  0  0  0
   39.1670   27.5610   42.6280 N   0  0  0  0  0  0  0  0  0  0  0  0
   36.2780   26.9310   41.3410 H   0  0  0  0  0  0  0  0  0  0  0  0
   37.4070   24.8300   42.4480 H   0  0  0  0  0  0  0  0  0  0  0  0
   36.2190   30.9280   40.8210 C   0  0  0  0  0  0  0  0  0  0  0  0
   37.2140   31.8650   40.5450 C   0  0  0  0  0  0  0  0  0  0  0  0
   38.5370   31.4730   40.7630 C   0  0  0  0  0  0  0  0  0  0  0  0
   38.7830   30.2180   41.2270 N   0  0  0  0  0  0  0  0  0  0  0  0
   37.7970   29.3410   41.4820 C   0  0  0  0  0  0  0  0  0  0  0  0
   36.5160   29.6910   41.2810 N   0  0  0  0  0  0  0  0  0  0  0  0
   35.1920   31.2330   40.6520 H   0  0  0  0  0  0  0  0  0  0  0  0
   37.0470   32.8490   40.1830 H   0  0  0  0  0  0  0  0  0  0  0  0
   39.4150   32.0920   40.5930 H   0  0  0  0  0  0  0  0  0  0  0  0
   39.9480   25.4080   43.5720 C   0  0  0  0  0  0  0  0  0  0  0  0
   40.2710   25.8320   44.5150 H   0  0  0  0  0  0  0  0  0  0  0  0
   39.4070   24.4250   43.7010 H   0  0  0  0  0  0  0  0  0  0  0  0
   41.0810   25.1100   42.6200 C   0  0  0  0  0  0  0  0  0  0  0  0
   40.8660   25.7110   41.6970 H   0  0  0  0  0  0  0  0  0  0  0  0
   41.0550   24.0450   42.2700 H   0  0  0  0  0  0  0  0  0  0  0  0
   42.6890   25.5260   43.3170 S   0  0  0  0  0  0  0  0  0  0  0  0
   43.5200   25.9760   42.2800 H   0  0  0  0  0  0  0  0  0  0  0  0
  1  5  2  0  0  0  0
  2  1  1  0  0  0  0
  2  3  2  0  0  0  0
  3  7  1  0  0  0  0
  3  4  1  0  0  0  0
  4 17  1  0  0  0  0
  5  4  1  0  0  0  0
  6  2  1  0  0  0  0
  8 13  1  0  0  0  0
  9 10  1  0  0  0  0
  9  8  2  0  0  0  0
 10 11  2  0  0  0  0
 11 12  1  0  0  0  0
 12  1  1  0  0  0  0
 13 12  2  0  0  0  0
 14  8  1  0  0  0  0
 15  9  1  0  0  0  0
 16 10  1  0  0  0  0
 17 19  1  0  0  0  0
 17 18  1  0  0  0  0
 20 23  1  0  0  0  0
 20 17  1  0  0  0  0
 21 20  1  0  0  0  0
 22 20  1  0  0  0  0
 24 23  1  0  0  0  0
M  END
>  <minimizedAffinity>
-3.61787581

$$$$

 OpenBabel03252506233D

 24 25  0  0  0  0  0  0  0  0999 V2000
   37.8720   28.0530   41.6540 C   0  0  0  0  0  0  0  0  0  0  0  0
   38.4380   28.4560   42.8810 C   0  0  0  0  0  0  0  0  0  0  0  0
   38.7530   29.7670   42.8030 C   0  0  0  0  0  0  0  0  0  0  0  0
   38.3930   30.1640   41.5650 N   0  0  0  0  0  0  0  0  0  0  0  0
   37.8690   29.1410   40.8840 N   0  0  0  0  0  0  0  0  0  0  0  0
   38.5850   27.8040   43.7300 H   0  0  0  0  0  0  0  0  0  0  0  0
   39.2030   30.3570   43.5910 H   0  0  0  0  0  0  0  0  0  0  0  0
   36.5430   25.1630   39.8570 C   0  0  0  0  0  0  0  0  0  0  0  0
   36.5440   24.1540   40.8190 C   0  0  0  0  0  0  0  0  0  0  0  0
   37.0100   24.4890   42.0930 C   0  0  0  0  0  0  0  0  0  0  0  0
   37.4310   25.7620   42.3240 N   0  0  0  0  0  0  0  0  0  0  0  0
   37.4150   26.7080   41.3710 C   0  0  0  0  0  0  0  0  0  0  0  0
   36.9720   26.4140   40.1380 N   0  0  0  0  0  0  0  0  0  0  0  0
   36.1820   24.9020   38.8680 H   0  0  0  0  0  0  0  0  0  0  0  0
   36.2210   23.1550   40.6620 H   0  0  0  0  0  0  0  0  0  0  0  0
   37.0700   23.8120   42.9410 H   0  0  0  0  0  0  0  0  0  0  0  0
   38.5650   31.5100   41.0780 C   0  0  0  0  0  0  0  0  0  0  0  0
   38.9340   32.1800   41.8470 H   0  0  0  0  0  0  0  0  0  0  0  0
   39.2780   31.4160   40.2080 H   0  0  0  0  0  0  0  0  0  0  0  0
   37.2570   31.9490   40.4680 C   0  0  0  0  0  0  0  0  0  0  0  0
   36.9810   32.9000   40.9950 H   0  0  0  0  0  0  0  0  0  0  0  0
   36.4260   31.2410   40.7220 H   0  0  0  0  0  0  0  0  0  0  0  0
   37.3790   32.1960   38.6880 S   0  0  0  0  0  0  0  0  0  0  0  0
   36.5320   33.2540   38.3260 H   0  0  0  0  0  0  0  0  0  0  0  0
  1  2  1  0  0  0  0
  2  6  1  0  0  0  0
  3  2  2  0  0  0  0
  3  7  1  0  0  0  0
  4  3  1  0  0  0  0
  5  4  1  0  0  0  0
  5  1  2  0  0  0  0
  8 13  2  0  0  0  0
  8  9  1  0  0  0  0
  9 10  2  0  0  0  0
 10 11  1  0  0  0  0
 10 16  1  0  0  0  0
 12  1  1  0  0  0  0
 12 11  2  0  0  0  0
 13 12  1  0  0  0  0
 14  8  1  0  0  0  0
 15  9  1  0  0  0  0
 17  4  1  0  0  0  0
 17 18  1  0  0  0  0
 19 17  1  0  0  0  0
 20 22  1  0  0  0  0
 20 21  1  0  0  0  0
 20 17  1  0  0  0  0
 23 20  1  0  0  0  0
 24 23  1  0  0  0  0
M  END
>  <minimizedAffinity>
-3.592026

$$$$

 OpenBabel03252506233D

 24 25  0  0  0  0  0  0  0  0999 V2000
   37.7700   30.1680   40.1560 C   0  0  0  0  0  0  0  0  0  0  0  0
   36.7750   31.0060   39.6120 C   0  0  0  0  0  0  0  0  0  0  0  0
   37.3250   31.7510   38.6290 C   0  0  0  0  0  0  0  0  0  0  0  0
   38.6230   31.3840   38.5670 N   0  0  0  0  0  0  0  0  0  0  0  0
   38.8830   30.4420   39.4770 N   0  0  0  0  0  0  0  0  0  0  0  0
   35.7470   31.0310   39.9440 H   0  0  0  0  0  0  0  0  0  0  0  0
   36.8080   32.4870   38.0280 H   0  0  0  0  0  0  0  0  0  0  0  0
   36.8540   27.1170   41.9450 C   0  0  0  0  0  0  0  0  0  0  0  0
   37.1080   27.4350   43.2790 C   0  0  0  0  0  0  0  0  0  0  0  0
   37.5980   28.7160   43.5460 C   0  0  0  0  0  0  0  0  0  0  0  0
   37.7990   29.5720   42.5090 N   0  0  0  0  0  0  0  0  0  0  0  0
   37.5420   29.2300   41.2360 C   0  0  0  0  0  0  0  0  0  0  0  0
   37.0710   28.0060   40.9490 N   0  0  0  0  0  0  0  0  0  0  0  0
   36.4740   26.1220   41.7380 H   0  0  0  0  0  0  0  0  0  0  0  0
   36.9590   26.7840   44.1050 H   0  0  0  0  0  0  0  0  0  0  0  0
   37.8410   29.1050   44.5320 H   0  0  0  0  0  0  0  0  0  0  0  0
   39.5670   31.9520   37.6360 C   0  0  0  0  0  0  0  0  0  0  0  0
   39.7330   31.3110   36.7780 H   0  0  0  0  0  0  0  0  0  0  0  0
   39.1280   32.9530   37.3510 H   0  0  0  0  0  0  0  0  0  0  0  0
   40.8250   32.2800   38.4010 C   0  0  0  0  0  0  0  0  0  0  0  0
   41.6230   32.4200   37.6250 H   0  0  0  0  0  0  0  0  0  0  0  0
   41.1790   31.4050   39.0070 H   0  0  0  0  0  0  0  0  0  0  0  0
   40.6410   33.7490   39.4270 S   0  0  0  0  0  0  0  0  0  0  0  0
   41.8700   34.4260   39.4600 H   0  0  0  0  0  0  0  0  0  0  0  0
  1 12  1  0  0  0  0
  2  6  1  0  0  0  0
  2  1  1  0  0  0  0
  3  2  2  0  0  0  0
  4  3  1  0  0  0  0
  4  5  1  0  0  0  0
  5  1  2  0  0  0  0
  7  3  1  0  0  0  0
  8  9  1  0  0  0  0
  9 10  2  0  0  0  0
  9 15  1  0  0  0  0
 10 16  1  0  0  0  0
 11 10  1  0  0  0  0
 12 11  2  0  0  0  0
 13 12  1  0  0  0  0
 13  8  2  0  0  0  0
 14  8  1  0  0  0  0
 17 20  1  0  0  0  0
 17  4  1  0  0  0  0
 18 17  1  0  0  0  0
 19 17  1  0  0  0  0
 20 22  1  0  0  0  0
 20 23  1  0  0  0  0
 21 20  1  0  0  0  0
 23 24  1  0  0  0  0
M  END
>  <minimizedAffinity>
-3.5233171

$$$$
