REMARK  Name = 
REMARK  4 active torsions:
REMARK  status: ('A' for Active; 'I' for Inactive)
REMARK    1  A    between atoms: C_1  and  C_4
REMARK    2  A    between atoms: C_1  and  C_8
REMARK    3  A    between atoms: C_8  and  N_9
REMARK    4  A    between atoms: C_14  and  S_31
REMARK                            x       y       z     vdW  Elec       q    Type
REMARK                         _______ _______ _______ _____ _____    ______ ____
ROOT
ATOM      1  N   UNL     1      48.351  34.165  40.747  0.00  0.00    +0.000 NA
ATOM      2  C   UNL     1      49.247  33.133  41.101  0.00  0.00    +0.000 C 
ATOM      3  C   UNL     1      49.148  31.855  40.342  0.00  0.00    +0.000 C 
ATOM      4  C   UNL     1      48.707  32.000  38.926  0.00  0.00    +0.000 C 
ATOM      5  C   UNL     1      48.480  33.440  38.527  0.00  0.00    +0.000 C 
ATOM      6  C   UNL     1      47.526  33.993  39.611  0.00  0.00    +0.000 C 
ATOM      7  H   UNL     1      50.296  33.504  40.977  0.00  0.00    +0.000 HD
ATOM      8  H   UNL     1      49.167  32.925  42.207  0.00  0.00    +0.000 HD
ATOM      9  H   UNL     1      48.360  31.238  40.861  0.00  0.00    +0.000 HD
ATOM     10  H   UNL     1      50.089  31.286  40.473  0.00  0.00    +0.000 HD
ATOM     11  H   UNL     1      47.781  31.452  38.660  0.00  0.00    +0.000 HD
ATOM     12  H   UNL     1      49.546  31.650  38.285  0.00  0.00    +0.000 HD
ATOM     13  H   UNL     1      47.962  33.488  37.564  0.00  0.00    +0.000 HD
ATOM     14  H   UNL     1      49.413  34.047  38.538  0.00  0.00    +0.000 HD
ATOM     15  H   UNL     1      46.749  33.210  39.672  0.00  0.00    +0.000 HD
ENDROOT
BRANCH   1  16
ATOM     16  C   UNL     1      47.816  34.937  41.836  0.00  0.00    +0.000 C 
ATOM     17  H   UNL     1      48.178  35.986  41.864  0.00  0.00    +0.000 HD
ATOM     18  H   UNL     1      48.177  34.479  42.791  0.00  0.00    +0.000 HD
BRANCH  16  19
ATOM     19  C   UNL     1      46.327  34.930  41.809  0.00  0.00    +0.000 C 
ATOM     20  H   UNL     1      45.982  35.809  41.254  0.00  0.00    +0.000 HD
ATOM     21  H   UNL     1      45.890  34.035  41.323  0.00  0.00    +0.000 HD
BRANCH  19  24
ATOM     22  C   UNL     1      44.471  35.977  44.898  0.00  0.00    +0.000 A 
ATOM     23  C   UNL     1      44.992  35.974  43.587  0.00  0.00    +0.000 A 
ATOM     24  C   UNL     1      45.792  34.935  43.175  0.00  0.00    +0.000 A 
ATOM     25  N   UNL     1      46.041  33.960  44.064  0.00  0.00    +0.000 NA
ATOM     26  C   UNL     1      45.541  33.967  45.320  0.00  0.00    +0.000 A 
ATOM     27  N   UNL     1      44.759  34.960  45.754  0.00  0.00    +0.000 NA
ATOM     28  H   UNL     1      43.849  36.764  45.250  0.00  0.00    +0.000 HD
ATOM     29  H   UNL     1      44.737  36.805  42.938  0.00  0.00    +0.000 HD
ATOM     30  H   UNL     1      45.782  33.146  45.989  0.00  0.00    +0.000 HD
ENDBRANCH  19  24
ENDBRANCH  16  19
ENDBRANCH   1  16
BRANCH   6  31
ATOM     31  S   UNL     1      46.948  35.554  38.910  0.00  0.00    +0.000 S 
ATOM     32  H   UNL     1      47.334  36.602  39.762  0.00  0.00    +0.000 HD
ENDBRANCH   6  31
TORSDOF 4
