
 OpenBabel03252509253D

 20 21  0  0  1  0  0  0  0  0999 V2000
   36.4330   29.8090   41.2800 C   0  0  0  0  0  0  0  0  0  0  0  0
   36.9310   28.8280   42.2080 C   0  0  0  0  0  0  0  0  0  0  0  0
   36.9710   27.5630   41.6830 C   0  0  0  0  0  0  0  0  0  0  0  0
   36.5670   27.2720   40.3970 N   0  0  0  0  0  0  0  0  0  0  0  0
   36.1110   28.2380   39.5860 C   0  0  0  0  0  0  0  0  0  0  0  0
   36.0410   29.5150   40.0240 N   0  0  0  0  0  0  0  0  0  0  0  0
   36.3730   30.8310   41.6210 H   0  0  0  0  0  0  0  0  0  0  0  0
   35.8490   27.8090   38.6300 H   0  0  0  0  0  0  0  0  0  0  0  0
   37.5630   26.4770   42.5510 C   0  0  1  0  0  0  0  0  0  0  0  0
   37.0230   25.0880   42.1090 C   0  0  0  0  0  0  0  0  0  0  0  0
   38.5030   25.5760   41.9850 C   0  0  2  0  0  0  0  0  0  0  0  0
   37.4390   26.6560   43.6360 H   0  0  0  0  0  0  0  0  0  0  0  0
   36.4620   25.0000   41.1870 H   0  0  0  0  0  0  0  0  0  0  0  0
   36.8200   24.3850   42.9290 H   0  0  0  0  0  0  0  0  0  0  0  0
   38.8990   25.6330   40.9490 H   0  0  0  0  0  0  0  0  0  0  0  0
   39.6700   24.6330   43.0400 S   0  0  0  0  0  0  0  0  0  0  0  0
   40.7680   25.4390   43.3860 H   0  0  0  0  0  0  0  0  0  0  0  0
   37.3130   29.1470   43.5220 N   0  0  0  0  0  0  0  0  0  0  0  0
   38.2500   29.5540   43.6880 H   0  0  0  0  0  0  0  0  0  0  0  0
   36.6670   28.9770   44.3290 H   0  0  0  0  0  0  0  0  0  0  0  0
  1  7  1  0  0  0  0
  1  2  1  0  0  0  0
  2 18  1  0  0  0  0
  3  2  2  0  0  0  0
  3  9  1  0  0  0  0
  4  3  1  0  0  0  0
  5  6  1  0  0  0  0
  5  4  2  0  0  0  0
  6  1  2  0  0  0  0
  8  5  1  0  0  0  0
  9 12  1  1  0  0  0
 10  9  1  0  0  0  0
 10 14  1  0  0  0  0
 11 15  1  6  0  0  0
 11 10  1  0  0  0  0
 11  9  1  0  0  0  0
 11 16  1  0  0  0  0
 13 10  1  0  0  0  0
 16 17  1  0  0  0  0
 18 19  1  0  0  0  0
 18 20  1  0  0  0  0
M  END
>  <minimizedAffinity>
-3.76999784

$$$$

 OpenBabel03252509253D

 20 21  0  0  1  0  0  0  0  0999 V2000
   35.1710   29.3280   39.3180 C   0  0  0  0  0  0  0  0  0  0  0  0
   35.8560   29.3570   40.5840 C   0  0  0  0  0  0  0  0  0  0  0  0
   36.5250   28.1940   40.8590 C   0  0  0  0  0  0  0  0  0  0  0  0
   36.5300   27.1100   40.0050 N   0  0  0  0  0  0  0  0  0  0  0  0
   35.8670   27.1530   38.8410 C   0  0  0  0  0  0  0  0  0  0  0  0
   35.1830   28.2640   38.4890 N   0  0  0  0  0  0  0  0  0  0  0  0
   34.6210   30.2110   39.0290 H   0  0  0  0  0  0  0  0  0  0  0  0
   35.9940   26.2140   38.3220 H   0  0  0  0  0  0  0  0  0  0  0  0
   37.3490   28.1580   42.1260 C   0  0  1  0  0  0  0  0  0  0  0  0
   36.6000   27.3550   43.2260 C   0  0  0  0  0  0  0  0  0  0  0  0
   37.9360   26.9310   42.5340 C   0  0  2  0  0  0  0  0  0  0  0  0
   37.6750   29.1570   42.4740 H   0  0  0  0  0  0  0  0  0  0  0  0
   35.7160   26.7860   42.9660 H   0  0  0  0  0  0  0  0  0  0  0  0
   36.6980   27.7580   44.2440 H   0  0  0  0  0  0  0  0  0  0  0  0
   37.8930   25.9810   41.9610 H   0  0  0  0  0  0  0  0  0  0  0  0
   39.3690   26.8980   43.6780 S   0  0  0  0  0  0  0  0  0  0  0  0
   40.5580   27.1420   42.9700 H   0  0  0  0  0  0  0  0  0  0  0  0
   35.8150   30.4650   41.4470 N   0  0  0  0  0  0  0  0  0  0  0  0
   36.4430   31.2680   41.2630 H   0  0  0  0  0  0  0  0  0  0  0  0
   35.1640   30.4870   42.2680 H   0  0  0  0  0  0  0  0  0  0  0  0
  1  2  1  0  0  0  0
  2  3  2  0  0  0  0
  2 18  1  0  0  0  0
  3  9  1  0  0  0  0
  4  3  1  0  0  0  0
  5  4  2  0  0  0  0
  6  5  1  0  0  0  0
  6  1  2  0  0  0  0
  7  1  1  0  0  0  0
  8  5  1  0  0  0  0
  9 12  1  1  0  0  0
  9 11  1  0  0  0  0
  9 10  1  0  0  0  0
 10 14  1  0  0  0  0
 11 15  1  6  0  0  0
 11 10  1  0  0  0  0
 11 16  1  0  0  0  0
 13 10  1  0  0  0  0
 17 16  1  0  0  0  0
 18 20  1  0  0  0  0
 19 18  1  0  0  0  0
M  END
>  <minimizedAffinity>
-3.70376778

$$$$

 OpenBabel03252509253D

 20 21  0  0  1  0  0  0  0  0999 V2000
   40.3010   24.6620   43.1090 C   0  0  0  0  0  0  0  0  0  0  0  0
   38.9740   24.9690   42.6450 C   0  0  0  0  0  0  0  0  0  0  0  0
   38.6610   26.2990   42.7550 C   0  0  0  0  0  0  0  0  0  0  0  0
   39.5360   27.2360   43.2630 N   0  0  0  0  0  0  0  0  0  0  0  0
   40.7590   26.8760   43.6800 C   0  0  0  0  0  0  0  0  0  0  0  0
   41.1500   25.5850   43.6040 N   0  0  0  0  0  0  0  0  0  0  0  0
   40.6210   23.6320   43.0540 H   0  0  0  0  0  0  0  0  0  0  0  0
   41.2850   27.7480   44.0400 H   0  0  0  0  0  0  0  0  0  0  0  0
   37.3210   26.7360   42.2110 C   0  0  1  0  0  0  0  0  0  0  0  0
   36.4920   27.4270   43.3290 C   0  0  0  0  0  0  0  0  0  0  0  0
   37.0600   28.1230   42.0490 C   0  0  2  0  0  0  0  0  0  0  0  0
   36.7600   25.9290   41.7020 H   0  0  0  0  0  0  0  0  0  0  0  0
   36.9670   27.6790   44.2700 H   0  0  0  0  0  0  0  0  0  0  0  0
   35.4150   27.2080   43.3140 H   0  0  0  0  0  0  0  0  0  0  0  0
   37.7930   28.9360   42.2360 H   0  0  0  0  0  0  0  0  0  0  0  0
   35.7560   28.7180   40.9050 S   0  0  0  0  0  0  0  0  0  0  0  0
   36.2410   28.7360   39.5870 H   0  0  0  0  0  0  0  0  0  0  0  0
   38.0930   23.9910   42.1530 N   0  0  0  0  0  0  0  0  0  0  0  0
   38.1940   23.6710   41.1740 H   0  0  0  0  0  0  0  0  0  0  0  0
   37.3400   23.5870   42.7600 H   0  0  0  0  0  0  0  0  0  0  0  0
  1  6  1  0  0  0  0
  2  3  1  0  0  0  0
  2  1  2  0  0  0  0
  3  4  2  0  0  0  0
  4  5  1  0  0  0  0
  5  8  1  0  0  0  0
  6  5  2  0  0  0  0
  7  1  1  0  0  0  0
  9 12  1  6  0  0  0
  9  3  1  0  0  0  0
  9 10  1  0  0  0  0
 10 13  1  0  0  0  0
 11  9  1  0  0  0  0
 11 15  1  1  0  0  0
 11 10  1  0  0  0  0
 14 10  1  0  0  0  0
 16 11  1  0  0  0  0
 17 16  1  0  0  0  0
 18  2  1  0  0  0  0
 18 20  1  0  0  0  0
 19 18  1  0  0  0  0
M  END
>  <minimizedAffinity>
-3.69156122

$$$$

 OpenBabel03252509253D

 20 21  0  0  1  0  0  0  0  0999 V2000
   37.1660   29.1340   42.2450 C   0  0  0  0  0  0  0  0  0  0  0  0
   36.2780   29.6570   41.2400 C   0  0  0  0  0  0  0  0  0  0  0  0
   35.9760   28.7440   40.2630 C   0  0  0  0  0  0  0  0  0  0  0  0
   36.4820   27.4610   40.2540 N   0  0  0  0  0  0  0  0  0  0  0  0
   37.3070   27.0420   41.2230 C   0  0  0  0  0  0  0  0  0  0  0  0
   37.6550   27.8780   42.2270 N   0  0  0  0  0  0  0  0  0  0  0  0
   37.4500   29.7950   43.0500 H   0  0  0  0  0  0  0  0  0  0  0  0
   37.5890   26.0160   41.0360 H   0  0  0  0  0  0  0  0  0  0  0  0
   34.9800   29.1700   39.2100 C   0  0  1  0  0  0  0  0  0  0  0  0
   35.7230   29.5830   37.9100 C   0  0  0  0  0  0  0  0  0  0  0  0
   34.7830   28.3440   38.0710 C   0  0  2  0  0  0  0  0  0  0  0  0
   34.2660   29.9410   39.5570 H   0  0  0  0  0  0  0  0  0  0  0  0
   36.7820   29.3800   37.8100 H   0  0  0  0  0  0  0  0  0  0  0  0
   35.2900   30.4440   37.3790 H   0  0  0  0  0  0  0  0  0  0  0  0
   35.2660   27.3580   37.9070 H   0  0  0  0  0  0  0  0  0  0  0  0
   33.2520   28.4570   37.0680 S   0  0  0  0  0  0  0  0  0  0  0  0
   32.2200   27.7250   37.6790 H   0  0  0  0  0  0  0  0  0  0  0  0
   35.7960   30.9760   41.2600 N   0  0  0  0  0  0  0  0  0  0  0  0
   34.9930   31.2080   41.8700 H   0  0  0  0  0  0  0  0  0  0  0  0
   36.2360   31.7220   40.6690 H   0  0  0  0  0  0  0  0  0  0  0  0
  1  7  1  0  0  0  0
  2 18  1  0  0  0  0
  2  1  2  0  0  0  0
  3  2  1  0  0  0  0
  4  3  2  0  0  0  0
  4  5  1  0  0  0  0
  5  6  2  0  0  0  0
  6  1  1  0  0  0  0
  8  5  1  0  0  0  0
  9 12  1  1  0  0  0
  9  3  1  0  0  0  0
 10 11  1  0  0  0  0
 10  9  1  0  0  0  0
 11 15  1  1  0  0  0
 11  9  1  0  0  0  0
 13 10  1  0  0  0  0
 14 10  1  0  0  0  0
 16 17  1  0  0  0  0
 16 11  1  0  0  0  0
 18 19  1  0  0  0  0
 20 18  1  0  0  0  0
M  END
>  <minimizedAffinity>
-3.68930697

$$$$

 OpenBabel03252509253D

 20 21  0  0  1  0  0  0  0  0999 V2000
   38.6190   32.1740   40.8270 C   0  0  0  0  0  0  0  0  0  0  0  0
   39.1240   31.2690   41.8250 C   0  0  0  0  0  0  0  0  0  0  0  0
   38.2410   30.2700   42.1400 C   0  0  0  0  0  0  0  0  0  0  0  0
   36.9960   30.1560   41.5570 N   0  0  0  0  0  0  0  0  0  0  0  0
   36.5900   31.0390   40.6330 C   0  0  0  0  0  0  0  0  0  0  0  0
   37.4010   32.0550   40.2610 N   0  0  0  0  0  0  0  0  0  0  0  0
   39.2590   32.9890   40.5240 H   0  0  0  0  0  0  0  0  0  0  0  0
   35.5950   30.7780   40.3010 H   0  0  0  0  0  0  0  0  0  0  0  0
   38.7140   29.2160   43.1150 C   0  0  1  0  0  0  0  0  0  0  0  0
   37.5000   28.4270   43.6780 C   0  0  0  0  0  0  0  0  0  0  0  0
   38.6190   27.8470   42.7530 C   0  0  2  0  0  0  0  0  0  0  0  0
   39.3730   29.6100   43.9130 H   0  0  0  0  0  0  0  0  0  0  0  0
   36.5220   28.5590   43.2320 H   0  0  0  0  0  0  0  0  0  0  0  0
   37.5720   28.1560   44.7410 H   0  0  0  0  0  0  0  0  0  0  0  0
   38.2730   27.4700   41.7680 H   0  0  0  0  0  0  0  0  0  0  0  0
   39.6520   26.5720   43.5730 S   0  0  0  0  0  0  0  0  0  0  0  0
   40.9370   26.5530   43.0040 H   0  0  0  0  0  0  0  0  0  0  0  0
   40.3860   31.4200   42.4220 N   0  0  0  0  0  0  0  0  0  0  0  0
   41.2250   31.0850   41.9160 H   0  0  0  0  0  0  0  0  0  0  0  0
   40.4890   31.8630   43.3660 H   0  0  0  0  0  0  0  0  0  0  0  0
  1  2  1  0  0  0  0
  2  3  2  0  0  0  0
  2 18  1  0  0  0  0
  3  9  1  0  0  0  0
  4  3  1  0  0  0  0
  5  4  2  0  0  0  0
  6  5  1  0  0  0  0
  6  1  2  0  0  0  0
  7  1  1  0  0  0  0
  8  5  1  0  0  0  0
  9 10  1  0  0  0  0
  9 12  1  1  0  0  0
 10 14  1  0  0  0  0
 11 15  1  6  0  0  0
 11  9  1  0  0  0  0
 11 16  1  0  0  0  0
 11 10  1  0  0  0  0
 13 10  1  0  0  0  0
 17 16  1  0  0  0  0
 18 20  1  0  0  0  0
 19 18  1  0  0  0  0
M  END
>  <minimizedAffinity>
-3.64719367

$$$$

 OpenBabel03252509253D

 20 21  0  0  1  0  0  0  0  0999 V2000
   37.1060   30.8190   41.0620 C   0  0  0  0  0  0  0  0  0  0  0  0
   37.7240   29.9370   42.0170 C   0  0  0  0  0  0  0  0  0  0  0  0
   37.0910   28.7260   42.1170 C   0  0  0  0  0  0  0  0  0  0  0  0
   35.9730   28.4000   41.3770 N   0  0  0  0  0  0  0  0  0  0  0  0
   35.4500   29.2740   40.5060 C   0  0  0  0  0  0  0  0  0  0  0  0
   36.0140   30.4910   40.3420 N   0  0  0  0  0  0  0  0  0  0  0  0
   37.5490   31.7940   40.9250 H   0  0  0  0  0  0  0  0  0  0  0  0
   34.5860   28.8320   40.0300 H   0  0  0  0  0  0  0  0  0  0  0  0
   37.7170   27.6970   43.0300 C   0  0  1  0  0  0  0  0  0  0  0  0
   37.3470   26.2650   42.5520 C   0  0  0  0  0  0  0  0  0  0  0  0
   38.7790   26.8930   42.5380 C   0  0  2  0  0  0  0  0  0  0  0  0
   37.4970   27.8580   44.1020 H   0  0  0  0  0  0  0  0  0  0  0  0
   36.8670   26.1290   41.5900 H   0  0  0  0  0  0  0  0  0  0  0  0
   37.1510   25.5420   43.3560 H   0  0  0  0  0  0  0  0  0  0  0  0
   39.2440   26.9930   41.5350 H   0  0  0  0  0  0  0  0  0  0  0  0
   39.9490   26.0600   43.6800 S   0  0  0  0  0  0  0  0  0  0  0  0
   40.9350   26.9660   44.1050 H   0  0  0  0  0  0  0  0  0  0  0  0
   38.8480   30.3030   42.7760 N   0  0  0  0  0  0  0  0  0  0  0  0
   39.7870   30.2430   42.3440 H   0  0  0  0  0  0  0  0  0  0  0  0
   38.7480   30.6320   43.7660 H   0  0  0  0  0  0  0  0  0  0  0  0
  1  2  1  0  0  0  0
  2  3  2  0  0  0  0
  2 18  1  0  0  0  0
  3  9  1  0  0  0  0
  4  3  1  0  0  0  0
  5  4  2  0  0  0  0
  6  5  1  0  0  0  0
  6  1  2  0  0  0  0
  7  1  1  0  0  0  0
  8  5  1  0  0  0  0
  9 12  1  1  0  0  0
 10  9  1  0  0  0  0
 10 14  1  0  0  0  0
 11 15  1  6  0  0  0
 11 10  1  0  0  0  0
 11  9  1  0  0  0  0
 11 16  1  0  0  0  0
 13 10  1  0  0  0  0
 16 17  1  0  0  0  0
 18 20  1  0  0  0  0
 19 18  1  0  0  0  0
M  END
>  <minimizedAffinity>
-3.57045102

$$$$

 OpenBabel03252509253D

 20 21  0  0  1  0  0  0  0  0999 V2000
   36.0290   28.5240   41.2890 C   0  0  0  0  0  0  0  0  0  0  0  0
   36.5460   29.8670   41.2990 C   0  0  0  0  0  0  0  0  0  0  0  0
   37.9120   29.9150   41.4000 C   0  0  0  0  0  0  0  0  0  0  0  0
   38.6980   28.7860   41.4890 N   0  0  0  0  0  0  0  0  0  0  0  0
   38.1460   27.5640   41.4770 C   0  0  0  0  0  0  0  0  0  0  0  0
   36.8060   27.4250   41.3760 N   0  0  0  0  0  0  0  0  0  0  0  0
   34.9590   28.4030   41.2100 H   0  0  0  0  0  0  0  0  0  0  0  0
   38.9250   26.8190   41.5550 H   0  0  0  0  0  0  0  0  0  0  0  0
   38.5580   31.2800   41.3290 C   0  0  1  0  0  0  0  0  0  0  0  0
   40.0230   31.2030   41.8410 C   0  0  0  0  0  0  0  0  0  0  0  0
   39.5820   31.5100   40.3720 C   0  0  2  0  0  0  0  0  0  0  0  0
   37.9740   32.0770   41.8270 H   0  0  0  0  0  0  0  0  0  0  0  0
   40.4780   30.2360   42.0190 H   0  0  0  0  0  0  0  0  0  0  0  0
   40.3570   32.0690   42.4290 H   0  0  0  0  0  0  0  0  0  0  0  0
   39.9210   30.7760   39.6120 H   0  0  0  0  0  0  0  0  0  0  0  0
   40.0080   33.2080   39.8250 S   0  0  0  0  0  0  0  0  0  0  0  0
   39.1010   33.6400   38.8430 H   0  0  0  0  0  0  0  0  0  0  0  0
   35.7210   31.0020   41.2310 N   0  0  0  0  0  0  0  0  0  0  0  0
   35.3650   31.3100   40.3090 H   0  0  0  0  0  0  0  0  0  0  0  0
   35.4650   31.5360   42.0950 H   0  0  0  0  0  0  0  0  0  0  0  0
  1  2  2  0  0  0  0
  1  6  1  0  0  0  0
  2  3  1  0  0  0  0
  3  4  2  0  0  0  0
  5  4  1  0  0  0  0
  5  8  1  0  0  0  0
  6  5  2  0  0  0  0
  7  1  1  0  0  0  0
  9  3  1  0  0  0  0
  9 12  1  1  0  0  0
  9 10  1  0  0  0  0
 10 13  1  0  0  0  0
 10 14  1  0  0  0  0
 11 15  1  6  0  0  0
 11  9  1  0  0  0  0
 11 10  1  0  0  0  0
 16 11  1  0  0  0  0
 17 16  1  0  0  0  0
 18  2  1  0  0  0  0
 18 20  1  0  0  0  0
 19 18  1  0  0  0  0
M  END
>  <minimizedAffinity>
-3.56535578

$$$$

 OpenBabel03252509253D

 20 21  0  0  1  0  0  0  0  0999 V2000
   37.1350   30.2050   36.6290 C   0  0  0  0  0  0  0  0  0  0  0  0
   37.7210   31.4070   37.1600 C   0  0  0  0  0  0  0  0  0  0  0  0
   37.4070   31.6210   38.4770 C   0  0  0  0  0  0  0  0  0  0  0  0
   36.6060   30.7660   39.2060 N   0  0  0  0  0  0  0  0  0  0  0  0
   36.0920   29.6630   38.6440 C   0  0  0  0  0  0  0  0  0  0  0  0
   36.3540   29.3740   37.3500 N   0  0  0  0  0  0  0  0  0  0  0  0
   37.3380   29.9670   35.5960 H   0  0  0  0  0  0  0  0  0  0  0  0
   35.4990   29.1320   39.3740 H   0  0  0  0  0  0  0  0  0  0  0  0
   38.0470   32.8120   39.1510 C   0  0  1  0  0  0  0  0  0  0  0  0
   38.1680   32.5580   40.6800 C   0  0  0  0  0  0  0  0  0  0  0  0
   39.3600   32.6860   39.6760 C   0  0  2  0  0  0  0  0  0  0  0  0
   37.5550   33.7760   38.9170 H   0  0  0  0  0  0  0  0  0  0  0  0
   37.9700   31.5700   41.0750 H   0  0  0  0  0  0  0  0  0  0  0  0
   37.9820   33.4370   41.3140 H   0  0  0  0  0  0  0  0  0  0  0  0
   40.0010   31.7840   39.5830 H   0  0  0  0  0  0  0  0  0  0  0  0
   40.4100   34.1590   39.9780 S   0  0  0  0  0  0  0  0  0  0  0  0
   41.0130   34.5750   38.7790 H   0  0  0  0  0  0  0  0  0  0  0  0
   38.5130   32.2740   36.3900 N   0  0  0  0  0  0  0  0  0  0  0  0
   39.5100   32.0400   36.2360 H   0  0  0  0  0  0  0  0  0  0  0  0
   38.1110   33.1480   35.9730 H   0  0  0  0  0  0  0  0  0  0  0  0
  1  2  2  0  0  0  0
  1  6  1  0  0  0  0
  2  3  1  0  0  0  0
  3  9  1  0  0  0  0
  3  4  2  0  0  0  0
  5  4  1  0  0  0  0
  5  8  1  0  0  0  0
  6  5  2  0  0  0  0
  7  1  1  0  0  0  0
  9 12  1  6  0  0  0
  9 11  1  0  0  0  0
  9 10  1  0  0  0  0
 10 13  1  0  0  0  0
 10 14  1  0  0  0  0
 11 15  1  6  0  0  0
 11 16  1  0  0  0  0
 11 10  1  0  0  0  0
 17 16  1  0  0  0  0
 18  2  1  0  0  0  0
 19 18  1  0  0  0  0
 20 18  1  0  0  0  0
M  END
>  <minimizedAffinity>
-3.45366716

$$$$

 OpenBabel03252509253D

 20 21  0  0  1  0  0  0  0  0999 V2000
   36.9350   31.4340   38.6290 C   0  0  0  0  0  0  0  0  0  0  0  0
   36.5430   30.7910   39.8550 C   0  0  0  0  0  0  0  0  0  0  0  0
   36.6100   29.4240   39.7890 C   0  0  0  0  0  0  0  0  0  0  0  0
   37.0100   28.7460   38.6570 N   0  0  0  0  0  0  0  0  0  0  0  0
   37.3610   29.4120   37.5470 C   0  0  0  0  0  0  0  0  0  0  0  0
   37.3260   30.7630   37.5270 N   0  0  0  0  0  0  0  0  0  0  0  0
   36.9090   32.5130   38.6030 H   0  0  0  0  0  0  0  0  0  0  0  0
   37.6400   28.7060   36.7790 H   0  0  0  0  0  0  0  0  0  0  0  0
   36.3030   28.6590   41.0560 C   0  0  1  0  0  0  0  0  0  0  0  0
   36.8100   27.1950   40.9310 C   0  0  0  0  0  0  0  0  0  0  0  0
   37.3720   28.2780   41.9100 C   0  0  2  0  0  0  0  0  0  0  0  0
   35.2420   28.7170   41.3660 H   0  0  0  0  0  0  0  0  0  0  0  0
   37.4450   26.9180   40.0990 H   0  0  0  0  0  0  0  0  0  0  0  0
   36.1580   26.4360   41.3850 H   0  0  0  0  0  0  0  0  0  0  0  0
   38.4380   28.5490   41.7580 H   0  0  0  0  0  0  0  0  0  0  0  0
   37.0820   27.8820   43.6770 S   0  0  0  0  0  0  0  0  0  0  0  0
   37.0050   29.0650   44.4310 H   0  0  0  0  0  0  0  0  0  0  0  0
   36.1160   31.5040   40.9870 N   0  0  0  0  0  0  0  0  0  0  0  0
   36.8250   31.9220   41.6140 H   0  0  0  0  0  0  0  0  0  0  0  0
   35.0960   31.6160   41.2040 H   0  0  0  0  0  0  0  0  0  0  0  0
  1  2  1  0  0  0  0
  2 18  1  0  0  0  0
  3  2  2  0  0  0  0
  3  9  1  0  0  0  0
  4  3  1  0  0  0  0
  5  4  2  0  0  0  0
  6  5  1  0  0  0  0
  6  1  2  0  0  0  0
  7  1  1  0  0  0  0
  8  5  1  0  0  0  0
  9 12  1  1  0  0  0
  9 11  1  0  0  0  0
 10  9  1  0  0  0  0
 10 14  1  0  0  0  0
 10 11  1  0  0  0  0
 11 15  1  6  0  0  0
 11 16  1  0  0  0  0
 13 10  1  0  0  0  0
 16 17  1  0  0  0  0
 18 20  1  0  0  0  0
 18 19  1  0  0  0  0
M  END
>  <minimizedAffinity>
-3.4458282

$$$$
