REMARK  Name = 
REMARK  5 active torsions:
REMARK  status: ('A' for Active; 'I' for Inactive)
REMARK    1  A    between atoms: C_3  and  O_7
REMARK    2  A    between atoms: C_5  and  S_16
REMARK    3  A    between atoms: O_7  and  P_9
REMARK    4  A    between atoms: P_9  and  O_10
REMARK    5  A    between atoms: P_9  and  O_11
REMARK                            x       y       z     vdW  Elec       q    Type
REMARK                         _______ _______ _______ _____ _____    ______ ____
ROOT
ATOM      1  C   UNL     1      44.593  35.989  44.509  0.00  0.00    +0.000 A 
ATOM      2  C   UNL     1      45.223  36.000  43.252  0.00  0.00    +0.000 A 
ATOM      3  C   UNL     1      46.096  34.952  42.965  0.00  0.00    +0.000 A 
ATOM      4  N   UNL     1      46.292  33.983  43.905  0.00  0.00    +0.000 NA
ATOM      5  C   UNL     1      45.670  34.010  45.094  0.00  0.00    +0.000 A 
ATOM      6  N   UNL     1      44.817  35.003  45.415  0.00  0.00    +0.000 NA
ATOM      7  H   UNL     1      43.923  36.820  44.690  0.00  0.00    +0.000 HD
ATOM      8  H   UNL     1      45.052  36.775  42.528  0.00  0.00    +0.000 HD
ENDROOT
BRANCH   5   9
ATOM      9  S   UNL     1      46.033  32.666  46.217  0.00  0.00    +0.000 S 
ATOM     10  H   UNL     1      45.222  31.573  45.840  0.00  0.00    +0.000 HD
ENDBRANCH   5   9
BRANCH   3  11
ATOM     11  O   UNL     1      46.716  34.964  41.727  0.00  0.00    +0.000 OA
BRANCH  11  13
ATOM     12  O   UNL     1      48.643  33.340  40.963  0.00  0.00    +0.000 OA
ATOM     13  P   UNL     1      48.412  34.676  41.638  0.00  0.00    +0.000 P 
BRANCH  13  14
ATOM     14  O   UNL     1      49.126  35.926  40.788  0.00  0.00    +0.000 OA
ATOM     15  H   UNL     1      48.987  35.783  39.837  0.00  0.00    +0.000 HD
ENDBRANCH  13  14
BRANCH  13  16
ATOM     16  O   UNL     1      48.987  34.598  43.224  0.00  0.00    +0.000 OA
ATOM     17  H   UNL     1      48.585  35.365  43.707  0.00  0.00    +0.000 HD
ENDBRANCH  13  16
ENDBRANCH  11  13
ENDBRANCH   3  11
TORSDOF 5
