
     RDKit          3D

 32 33  0  0  0  0  0  0  0  0999 V2000
   46.3274   34.9300   41.8088 C   0  0  0  0  0  0  0  0  0  0  0  0
   44.4715   35.9773   44.8981 C   0  0  0  0  0  0  0  0  0  0  0  0
   44.9915   35.9735   43.5868 C   0  0  0  0  0  0  0  0  0  0  0  0
   45.7921   34.9353   43.1751 C   0  0  0  0  0  0  0  0  0  0  0  0
   46.0411   33.9601   44.0638 N   0  0  0  0  0  0  0  0  0  0  0  0
   45.5408   33.9674   45.3199 C   0  0  0  0  0  0  0  0  0  0  0  0
   44.7591   34.9600   45.7536 N   0  0  0  0  0  0  0  0  0  0  0  0
   47.8156   34.9369   41.8357 C   0  0  0  0  0  0  0  0  0  0  0  0
   48.3513   34.1652   40.7470 N   0  0  0  0  0  0  0  0  0  0  0  0
   49.2472   33.1329   41.1014 C   0  0  0  0  0  0  0  0  0  0  0  0
   49.1478   31.8555   40.3422 C   0  0  0  0  0  0  0  0  0  0  0  0
   48.7074   32.0004   38.9263 C   0  0  0  0  0  0  0  0  0  0  0  0
   48.4805   33.4396   38.5266 C   0  0  0  0  0  0  0  0  0  0  0  0
   47.5256   33.9928   39.6106 C   0  0  2  0  0  0  0  0  0  0  0  0
   45.9818   35.8089   41.2538 H   0  0  0  0  0  0  0  0  0  0  0  0
   45.8901   34.0354   41.3226 H   0  0  0  0  0  0  0  0  0  0  0  0
   43.8491   36.7637   45.2500 H   0  0  0  0  0  0  0  0  0  0  0  0
   44.7368   36.8049   42.9376 H   0  0  0  0  0  0  0  0  0  0  0  0
   45.7818   33.1459   45.9893 H   0  0  0  0  0  0  0  0  0  0  0  0
   48.1782   35.9855   41.8638 H   0  0  0  0  0  0  0  0  0  0  0  0
   48.1771   34.4794   42.7906 H   0  0  0  0  0  0  0  0  0  0  0  0
   50.2962   33.5043   40.9769 H   0  0  0  0  0  0  0  0  0  0  0  0
   49.1666   32.9253   42.2066 H   0  0  0  0  0  0  0  0  0  0  0  0
   48.3597   31.2378   40.8605 H   0  0  0  0  0  0  0  0  0  0  0  0
   50.0891   31.2861   40.4734 H   0  0  0  0  0  0  0  0  0  0  0  0
   47.7813   31.4516   38.6596 H   0  0  0  0  0  0  0  0  0  0  0  0
   49.5458   31.6496   38.2854 H   0  0  0  0  0  0  0  0  0  0  0  0
   47.9615   33.4884   37.5644 H   0  0  0  0  0  0  0  0  0  0  0  0
   49.4126   34.0473   38.5382 H   0  0  0  0  0  0  0  0  0  0  0  0
   46.7490   33.2099   39.6717 H   0  0  0  0  0  0  0  0  0  0  0  0
   46.9484   35.5542   38.9099 S   0  0  0  0  0  0  0  0  0  0  0  0
   47.6119   36.6116   39.5536 H   0  0  0  0  0  0  0  0  0  0  0  0
  1  8  1  0
  1  4  1  0
  2  7  2  0
  3  2  1  0
  4  3  2  0
  4  5  1  0
  5  6  2  0
  6  7  1  0
  9 10  1  0
  9  8  1  0
 11 10  1  0
 12 11  1  0
 13 12  1  0
 13 14  1  0
 14  9  1  0
  1 15  1  0
  1 16  1  0
  2 17  1  0
  3 18  1  0
  6 19  1  0
  8 20  1  0
  8 21  1  0
 10 22  1  0
 10 23  1  0
 11 24  1  0
 11 25  1  0
 12 26  1  0
 12 27  1  0
 13 28  1  0
 13 29  1  0
 14 30  1  1
 31 32  1  0
 14 31  1  0
M  ISO  8  15   8  16   8  17  14  18  14  19  14  20   8  21   8  22  13
M  ISO  8  23  13  24  13  25  13  26  13  27  13  28  13  29  13  30  13
M  ISO  1  32  11
M  END
>  <DihAtoms>  (1) 
12,13,30,31

>  <DihDeg>  (1) 
-89.03698829175109

$$$$
