
 OpenBabel03242518193D

 23 24  0  0  0  0  0  0  0  0999 V2000
   45.8420   32.2100   44.6090 C   0  0  0  0  0  0  0  0  0  0  0  0
   44.9920   31.5710   44.3030 H   0  0  0  0  0  0  0  0  0  0  0  0
   46.7360   31.8680   44.0320 H   0  0  0  0  0  0  0  0  0  0  0  0
   44.7510   35.7060   44.7210 C   0  0  0  0  0  0  0  0  0  0  0  0
   45.2540   36.2460   43.5280 C   0  0  0  0  0  0  0  0  0  0  0  0
   45.9640   35.4110   42.6910 C   0  0  0  0  0  0  0  0  0  0  0  0
   46.1450   34.1150   43.0530 N   0  0  0  0  0  0  0  0  0  0  0  0
   45.6440   33.6250   44.2170 C   0  0  0  0  0  0  0  0  0  0  0  0
   44.9370   34.4380   45.0610 N   0  0  0  0  0  0  0  0  0  0  0  0
   44.1850   36.3060   45.4220 H   0  0  0  0  0  0  0  0  0  0  0  0
   46.3430   35.8390   41.7800 H   0  0  0  0  0  0  0  0  0  0  0  0
   44.9800   37.6180   43.2930 N   0  0  0  0  0  0  0  0  0  0  0  0
   44.4400   37.5770   42.3770 H   0  0  0  0  0  0  0  0  0  0  0  0
   45.3250   38.2940   43.9810 H   0  0  0  0  0  0  0  0  0  0  0  0
   46.1210   32.1060   46.0860 C   0  0  0  0  0  0  0  0  0  0  0  0
   47.2630   32.5700   46.6860 C   0  0  0  0  0  0  0  0  0  0  0  0
   47.1560   32.2970   48.0400 C   0  0  0  0  0  0  0  0  0  0  0  0
   45.9290   31.6680   48.2000 C   0  0  0  0  0  0  0  0  0  0  0  0
   45.3990   31.5980   47.0310 O   0  0  0  0  0  0  0  0  0  0  0  0
   48.1370   33.0660   46.2840 H   0  0  0  0  0  0  0  0  0  0  0  0
   47.7960   32.4700   48.9060 H   0  0  0  0  0  0  0  0  0  0  0  0
   45.0650   31.0110   49.6210 S   0  0  0  0  0  0  0  0  0  0  0  0
   44.1180   30.0440   49.2240 H   0  0  0  0  0  0  0  0  0  0  0  0
  1 15  1  0  0  0  0
  2  1  1  0  0  0  0
  3  1  1  0  0  0  0
  4  9  1  0  0  0  0
  4 10  1  0  0  0  0
  5  4  2  0  0  0  0
  6  7  2  0  0  0  0
  6  5  1  0  0  0  0
  7  8  1  0  0  0  0
  8  1  1  0  0  0  0
  8  9  2  0  0  0  0
 11  6  1  0  0  0  0
 12  5  1  0  0  0  0
 12 14  1  0  0  0  0
 13 12  1  0  0  0  0
 15 16  2  0  0  0  0
 15 19  1  0  0  0  0
 16 17  1  0  0  0  0
 17 18  2  0  0  0  0
 17 21  1  0  0  0  0
 18 22  1  0  0  0  0
 19 18  1  0  0  0  0
 20 16  1  0  0  0  0
 23 22  1  0  0  0  0
M  END
>  <minimizedAffinity>
-3.98509026

>  <minimizedRMSD>
0.631040752

$$$$
