REMARK  Name = 
REMARK  2 active torsions:
REMARK  status: ('A' for Active; 'I' for Inactive)
REMARK    1  A    between atoms: C_5  and  C_7
REMARK    2  A    between atoms: C_10  and  S_17
REMARK                            x       y       z     vdW  Elec       q    Type
REMARK                         _______ _______ _______ _____ _____    ______ ____
ROOT
ATOM      1  C   UNL     1      44.584  35.786  44.727  0.00  0.00    +0.000 A 
ATOM      2  C   UNL     1      45.276  35.569  43.507  0.00  0.00    +0.000 A 
ATOM      3  C   UNL     1      46.141  34.462  43.427  0.00  0.00    +0.000 A 
ATOM      4  N   UNL     1      46.259  33.664  44.534  0.00  0.00    +0.000 NA
ATOM      5  C   UNL     1      45.574  33.923  45.669  0.00  0.00    +0.000 A 
ATOM      6  N   UNL     1      44.733  34.985  45.772  0.00  0.00    +0.000 NA
ATOM      7  H   UNL     1      43.919  36.626  44.808  0.00  0.00    +0.000 HD
ATOM      8  H   UNL     1      45.157  36.221  42.651  0.00  0.00    +0.000 HD
ATOM      9  H   UNL     1      46.699  34.231  42.537  0.00  0.00    +0.000 HD
ENDROOT
BRANCH   5  10
ATOM     10  C   UNL     1      45.867  32.928  46.709  0.00  0.00    +0.000 A 
ATOM     11  C   UNL     1      45.122  32.788  47.905  0.00  0.00    +0.000 A 
ATOM     12  C   UNL     1      45.496  31.830  48.782  0.00  0.00    +0.000 A 
ATOM     13  C   UNL     1      46.612  31.003  48.483  0.00  0.00    +0.000 A 
ATOM     14  S   UNL     1      47.148  31.640  46.852  0.00  0.00    +0.000 S 
ATOM     15  H   UNL     1      44.278  33.434  48.102  0.00  0.00    +0.000 HD
ATOM     16  H   UNL     1      45.033  31.617  49.705  0.00  0.00    +0.000 HD
BRANCH  13  17
ATOM     17  S   UNL     1      47.351  29.679  49.399  0.00  0.00    +0.000 S 
ATOM     18  H   UNL     1      48.237  30.173  50.402  0.00  0.00    +0.000 HD
ENDBRANCH  13  17
ENDBRANCH   5  10
TORSDOF 2
