
 OpenBabel03242517593D

 17 17  0  0  0  0  0  0  0  0999 V2000
   45.4070   35.9460   43.0760 C   0  0  0  0  0  0  0  0  0  0  0  0
   46.2390   34.8290   42.9960 C   0  0  0  0  0  0  0  0  0  0  0  0
   46.2500   33.9630   44.0900 C   0  0  0  0  0  0  0  0  0  0  0  0
   45.4710   34.2370   45.1540 N   0  0  0  0  0  0  0  0  0  0  0  0
   44.6710   35.3330   45.2050 C   0  0  0  0  0  0  0  0  0  0  0  0
   44.6410   36.1890   44.1610 N   0  0  0  0  0  0  0  0  0  0  0  0
   45.3710   36.6440   42.2480 H   0  0  0  0  0  0  0  0  0  0  0  0
   46.8800   33.0940   44.0560 H   0  0  0  0  0  0  0  0  0  0  0  0
   44.0700   35.4980   46.0890 H   0  0  0  0  0  0  0  0  0  0  0  0
   47.0270   34.6350   41.8040 C   0  0  0  0  0  0  0  0  0  0  0  0
   46.4670   34.8470   40.9010 H   0  0  0  0  0  0  0  0  0  0  0  0
   47.3870   33.5680   41.7380 H   0  0  0  0  0  0  0  0  0  0  0  0
   48.2890   35.4840   41.9180 C   0  0  0  0  0  0  0  0  0  0  0  0
   48.4770   36.0010   40.9470 H   0  0  0  0  0  0  0  0  0  0  0  0
   48.1220   36.2720   42.6780 H   0  0  0  0  0  0  0  0  0  0  0  0
   49.6980   34.4880   42.4660 S   0  0  0  0  0  0  0  0  0  0  0  0
   50.1200   33.5700   41.5150 H   0  0  0  0  0  0  0  0  0  0  0  0
  1  6  1  0  0  0  0
  2  1  2  0  0  0  0
  2  3  1  0  0  0  0
  3  4  2  0  0  0  0
  4  5  1  0  0  0  0
  5  9  1  0  0  0  0
  6  5  2  0  0  0  0
  7  1  1  0  0  0  0
  8  3  1  0  0  0  0
 10 13  1  0  0  0  0
 10  2  1  0  0  0  0
 11 10  1  0  0  0  0
 12 10  1  0  0  0  0
 13 16  1  0  0  0  0
 13 15  1  0  0  0  0
 14 13  1  0  0  0  0
 17 16  1  0  0  0  0
M  END
>  <minimizedAffinity>
-3.34449959

>  <minimizedRMSD>
1.45090997

$$$$
