
 OpenBabel03242517523D

 25 26  0  0  0  0  0  0  0  0999 V2000
   37.1860   31.4280   39.0010 C   0  0  0  0  0  0  0  0  0  0  0  0
   36.4760   30.3240   39.3840 C   0  0  0  0  0  0  0  0  0  0  0  0
   36.1200   29.4210   38.3880 C   0  0  0  0  0  0  0  0  0  0  0  0
   36.4540   29.6070   37.0720 C   0  0  0  0  0  0  0  0  0  0  0  0
   37.1670   30.7240   36.7080 C   0  0  0  0  0  0  0  0  0  0  0  0
   37.5390   31.6450   37.6810 C   0  0  0  0  0  0  0  0  0  0  0  0
   35.5590   28.5180   38.5870 H   0  0  0  0  0  0  0  0  0  0  0  0
   36.1770   28.9050   36.2980 H   0  0  0  0  0  0  0  0  0  0  0  0
   37.4340   30.8760   35.6670 H   0  0  0  0  0  0  0  0  0  0  0  0
   38.1060   32.5440   37.4310 H   0  0  0  0  0  0  0  0  0  0  0  0
   37.6040   32.5230   40.2910 S   0  0  0  0  0  0  0  0  0  0  0  0
   37.6950   33.9460   39.8080 O   0  0  0  0  0  0  0  0  0  0  0  0
   38.9920   32.1450   40.7910 O   0  0  0  0  0  0  0  0  0  0  0  0
   36.7020   32.5090   41.3190 H   0  0  0  0  0  0  0  0  0  0  0  0
   36.0510   29.9640   40.6480 O   0  0  0  0  0  0  0  0  0  0  0  0
   38.0220   28.8360   43.3660 C   0  0  0  0  0  0  0  0  0  0  0  0
   37.9760   27.4510   43.2500 C   0  0  0  0  0  0  0  0  0  0  0  0
   37.2430   26.8990   42.2000 C   0  0  0  0  0  0  0  0  0  0  0  0
   36.6230   27.7510   41.3630 N   0  0  0  0  0  0  0  0  0  0  0  0
   36.6790   29.0830   41.4940 C   0  0  0  0  0  0  0  0  0  0  0  0
   37.3830   29.6100   42.5000 N   0  0  0  0  0  0  0  0  0  0  0  0
   38.6010   29.2260   44.1950 H   0  0  0  0  0  0  0  0  0  0  0  0
   38.4640   26.7600   43.9050 H   0  0  0  0  0  0  0  0  0  0  0  0
   37.1280   25.1280   41.9710 S   0  0  0  0  0  0  0  0  0  0  0  0
   35.7610   24.8050   41.7300 H   0  0  0  0  0  0  0  0  0  0  0  0
  1  2  1  0  0  0  0
  1 11  1  0  0  0  0
  2 15  1  0  0  0  0
  3  7  1  0  0  0  0
  3  2  2  0  0  0  0
  4  3  1  0  0  0  0
  5  4  2  0  0  0  0
  5  6  1  0  0  0  0
  6  1  2  0  0  0  0
  8  4  1  0  0  0  0
  9  5  1  0  0  0  0
 10  6  1  0  0  0  0
 11 13  2  0  0  0  0
 11 14  1  0  0  0  0
 12 11  2  0  0  0  0
 15 20  1  0  0  0  0
 16 22  1  0  0  0  0
 17 16  1  0  0  0  0
 17 23  1  0  0  0  0
 18 17  2  0  0  0  0
 19 20  2  0  0  0  0
 19 18  1  0  0  0  0
 20 21  1  0  0  0  0
 21 16  2  0  0  0  0
 24 18  1  0  0  0  0
 25 24  1  0  0  0  0
M  END
>  <minimizedAffinity>
-4.75299072

$$$$

 OpenBabel03242517523D

 25 26  0  0  0  0  0  0  0  0999 V2000
   36.4790   30.1060   38.7260 C   0  0  0  0  0  0  0  0  0  0  0  0
   36.3980   30.3250   40.0730 C   0  0  0  0  0  0  0  0  0  0  0  0
   36.8430   31.5560   40.5440 C   0  0  0  0  0  0  0  0  0  0  0  0
   37.3470   32.5240   39.7140 C   0  0  0  0  0  0  0  0  0  0  0  0
   37.4190   32.2830   38.3630 C   0  0  0  0  0  0  0  0  0  0  0  0
   36.9810   31.0630   37.8610 C   0  0  0  0  0  0  0  0  0  0  0  0
   36.8220   31.8270   41.5910 H   0  0  0  0  0  0  0  0  0  0  0  0
   37.6920   33.4800   40.0810 H   0  0  0  0  0  0  0  0  0  0  0  0
   37.8160   33.0460   37.7020 H   0  0  0  0  0  0  0  0  0  0  0  0
   37.0220   30.8350   36.7940 H   0  0  0  0  0  0  0  0  0  0  0  0
   35.9060   28.5490   38.1940 S   0  0  0  0  0  0  0  0  0  0  0  0
   36.2650   28.2830   36.7550 O   0  0  0  0  0  0  0  0  0  0  0  0
   34.3850   28.5620   38.2670 O   0  0  0  0  0  0  0  0  0  0  0  0
   36.4140   27.5120   38.9280 H   0  0  0  0  0  0  0  0  0  0  0  0
   35.9260   29.4820   41.0600 O   0  0  0  0  0  0  0  0  0  0  0  0
   38.1880   28.3080   43.5200 C   0  0  0  0  0  0  0  0  0  0  0  0
   38.2060   26.9320   43.3160 C   0  0  0  0  0  0  0  0  0  0  0  0
   37.4130   26.4040   42.2980 C   0  0  0  0  0  0  0  0  0  0  0  0
   36.6760   27.2670   41.5750 N   0  0  0  0  0  0  0  0  0  0  0  0
   36.6720   28.5900   41.7890 C   0  0  0  0  0  0  0  0  0  0  0  0
   37.4330   29.0950   42.7640 N   0  0  0  0  0  0  0  0  0  0  0  0
   38.8160   28.6800   44.3190 H   0  0  0  0  0  0  0  0  0  0  0  0
   38.7860   26.2330   43.8800 H   0  0  0  0  0  0  0  0  0  0  0  0
   37.3730   24.6470   41.9630 S   0  0  0  0  0  0  0  0  0  0  0  0
   36.0090   24.2580   41.8200 H   0  0  0  0  0  0  0  0  0  0  0  0
  1  2  1  0  0  0  0
  2  3  2  0  0  0  0
  2 15  1  0  0  0  0
  3  7  1  0  0  0  0
  4  8  1  0  0  0  0
  4  3  1  0  0  0  0
  5  4  2  0  0  0  0
  6  5  1  0  0  0  0
  6  1  2  0  0  0  0
  9  5  1  0  0  0  0
 10  6  1  0  0  0  0
 11 13  2  0  0  0  0
 11  1  1  0  0  0  0
 11 14  1  0  0  0  0
 12 11  2  0  0  0  0
 15 20  1  0  0  0  0
 16 22  1  0  0  0  0
 17 16  1  0  0  0  0
 17 23  1  0  0  0  0
 18 17  2  0  0  0  0
 19 20  2  0  0  0  0
 19 18  1  0  0  0  0
 20 21  1  0  0  0  0
 21 16  2  0  0  0  0
 24 18  1  0  0  0  0
 25 24  1  0  0  0  0
M  END
>  <minimizedAffinity>
-4.5890851

$$$$

 OpenBabel03242517523D

 25 26  0  0  0  0  0  0  0  0999 V2000
   36.3910   29.7670   38.3520 C   0  0  0  0  0  0  0  0  0  0  0  0
   35.6500   29.5520   39.4810 C   0  0  0  0  0  0  0  0  0  0  0  0
   34.3670   29.0430   39.3110 C   0  0  0  0  0  0  0  0  0  0  0  0
   33.8440   28.7620   38.0760 C   0  0  0  0  0  0  0  0  0  0  0  0
   34.6060   28.9850   36.9540 C   0  0  0  0  0  0  0  0  0  0  0  0
   35.8930   29.4930   37.0910 C   0  0  0  0  0  0  0  0  0  0  0  0
   33.7010   28.8380   40.1390 H   0  0  0  0  0  0  0  0  0  0  0  0
   32.8470   28.3660   37.9440 H   0  0  0  0  0  0  0  0  0  0  0  0
   34.1960   28.7640   35.9730 H   0  0  0  0  0  0  0  0  0  0  0  0
   36.5280   29.6830   36.2230 H   0  0  0  0  0  0  0  0  0  0  0  0
   37.9900   30.4040   38.6270 S   0  0  0  0  0  0  0  0  0  0  0  0
   38.4990   31.1670   37.4320 O   0  0  0  0  0  0  0  0  0  0  0  0
   38.9330   29.2260   38.8240 O   0  0  0  0  0  0  0  0  0  0  0  0
   38.0510   31.2540   39.6970 H   0  0  0  0  0  0  0  0  0  0  0  0
   35.9990   29.7700   40.8000 O   0  0  0  0  0  0  0  0  0  0  0  0
   38.0890   28.6620   43.4350 C   0  0  0  0  0  0  0  0  0  0  0  0
   38.0690   27.2770   43.3090 C   0  0  0  0  0  0  0  0  0  0  0  0
   37.3100   26.7190   42.2800 C   0  0  0  0  0  0  0  0  0  0  0  0
   36.6420   27.5640   41.4740 N   0  0  0  0  0  0  0  0  0  0  0  0
   36.6750   28.8960   41.6140 C   0  0  0  0  0  0  0  0  0  0  0  0
   37.4030   29.4300   42.5990 N   0  0  0  0  0  0  0  0  0  0  0  0
   38.6890   29.0580   44.2460 H   0  0  0  0  0  0  0  0  0  0  0  0
   38.5940   26.5920   43.9390 H   0  0  0  0  0  0  0  0  0  0  0  0
   37.2250   24.9480   42.0400 S   0  0  0  0  0  0  0  0  0  0  0  0
   35.8570   24.5970   41.8460 H   0  0  0  0  0  0  0  0  0  0  0  0
  1 11  1  0  0  0  0
  1  2  1  0  0  0  0
  2 15  1  0  0  0  0
  3  2  2  0  0  0  0
  3  7  1  0  0  0  0
  4  3  1  0  0  0  0
  5  6  1  0  0  0  0
  5  4  2  0  0  0  0
  6  1  2  0  0  0  0
  8  4  1  0  0  0  0
  9  5  1  0  0  0  0
 10  6  1  0  0  0  0
 11 13  2  0  0  0  0
 11 14  1  0  0  0  0
 12 11  2  0  0  0  0
 15 20  1  0  0  0  0
 16 22  1  0  0  0  0
 17 16  1  0  0  0  0
 17 23  1  0  0  0  0
 18 17  2  0  0  0  0
 19 20  2  0  0  0  0
 19 18  1  0  0  0  0
 20 21  1  0  0  0  0
 21 16  2  0  0  0  0
 24 18  1  0  0  0  0
 25 24  1  0  0  0  0
M  END
>  <minimizedAffinity>
-4.48031616

$$$$

 OpenBabel03242517523D

 25 26  0  0  0  0  0  0  0  0999 V2000
   37.8450   31.7450   39.5240 C   0  0  0  0  0  0  0  0  0  0  0  0
   37.1180   30.7210   40.0660 C   0  0  0  0  0  0  0  0  0  0  0  0
   36.4950   29.8470   39.1810 C   0  0  0  0  0  0  0  0  0  0  0  0
   36.5890   29.9850   37.8210 C   0  0  0  0  0  0  0  0  0  0  0  0
   37.3240   31.0210   37.2970 C   0  0  0  0  0  0  0  0  0  0  0  0
   37.9600   31.9120   38.1550 C   0  0  0  0  0  0  0  0  0  0  0  0
   35.8980   29.0070   39.5090 H   0  0  0  0  0  0  0  0  0  0  0  0
   36.1050   29.3060   37.1340 H   0  0  0  0  0  0  0  0  0  0  0  0
   37.4020   31.1350   36.2200 H   0  0  0  0  0  0  0  0  0  0  0  0
   38.5530   32.7470   37.7760 H   0  0  0  0  0  0  0  0  0  0  0  0
   38.6030   32.8070   40.6800 S   0  0  0  0  0  0  0  0  0  0  0  0
   38.8920   34.1610   40.0870 O   0  0  0  0  0  0  0  0  0  0  0  0
   39.9480   32.2010   41.0560 O   0  0  0  0  0  0  0  0  0  0  0  0
   37.8400   33.0160   41.7950 H   0  0  0  0  0  0  0  0  0  0  0  0
   36.9090   30.4190   41.3970 O   0  0  0  0  0  0  0  0  0  0  0  0
   37.0000   27.4100   43.2620 C   0  0  0  0  0  0  0  0  0  0  0  0
   38.3590   27.1880   43.4590 C   0  0  0  0  0  0  0  0  0  0  0  0
   39.2620   28.1100   42.9300 C   0  0  0  0  0  0  0  0  0  0  0  0
   38.7540   29.1600   42.2580 N   0  0  0  0  0  0  0  0  0  0  0  0
   37.4410   29.3540   42.0800 C   0  0  0  0  0  0  0  0  0  0  0  0
   36.5770   28.4700   42.5880 N   0  0  0  0  0  0  0  0  0  0  0  0
   36.3310   26.6720   43.6880 H   0  0  0  0  0  0  0  0  0  0  0  0
   38.7790   26.3610   43.9900 H   0  0  0  0  0  0  0  0  0  0  0  0
   41.0280   27.9080   43.1330 S   0  0  0  0  0  0  0  0  0  0  0  0
   41.6440   28.1330   41.8670 H   0  0  0  0  0  0  0  0  0  0  0  0
  1  2  1  0  0  0  0
  1 11  1  0  0  0  0
  2 15  1  0  0  0  0
  3  7  1  0  0  0  0
  3  2  2  0  0  0  0
  4  3  1  0  0  0  0
  5  4  2  0  0  0  0
  5  6  1  0  0  0  0
  6  1  2  0  0  0  0
  8  4  1  0  0  0  0
  9  5  1  0  0  0  0
 10  6  1  0  0  0  0
 11 13  2  0  0  0  0
 11 14  1  0  0  0  0
 12 11  2  0  0  0  0
 15 20  1  0  0  0  0
 16 17  1  0  0  0  0
 16 22  1  0  0  0  0
 17 23  1  0  0  0  0
 18 24  1  0  0  0  0
 18 17  2  0  0  0  0
 19 18  1  0  0  0  0
 20 19  2  0  0  0  0
 20 21  1  0  0  0  0
 21 16  2  0  0  0  0
 25 24  1  0  0  0  0
M  END
>  <minimizedAffinity>
-4.4741807

$$$$

 OpenBabel03242517523D

 25 26  0  0  0  0  0  0  0  0999 V2000
   39.4980   31.9600   40.6880 C   0  0  0  0  0  0  0  0  0  0  0  0
   38.6990   30.8900   40.3940 C   0  0  0  0  0  0  0  0  0  0  0  0
   37.4650   31.1590   39.8110 C   0  0  0  0  0  0  0  0  0  0  0  0
   37.0440   32.4340   39.5340 C   0  0  0  0  0  0  0  0  0  0  0  0
   37.8630   33.4950   39.8380 C   0  0  0  0  0  0  0  0  0  0  0  0
   39.1030   33.2590   40.4210 C   0  0  0  0  0  0  0  0  0  0  0  0
   36.7610   30.3840   39.5410 H   0  0  0  0  0  0  0  0  0  0  0  0
   36.0860   32.6430   39.0810 H   0  0  0  0  0  0  0  0  0  0  0  0
   37.5340   34.5070   39.6200 H   0  0  0  0  0  0  0  0  0  0  0  0
   39.7800   34.0770   40.6760 H   0  0  0  0  0  0  0  0  0  0  0  0
   41.0300   31.5620   41.4160 S   0  0  0  0  0  0  0  0  0  0  0  0
   40.8810   31.2070   42.8720 O   0  0  0  0  0  0  0  0  0  0  0  0
   41.9100   32.8030   41.3590 O   0  0  0  0  0  0  0  0  0  0  0  0
   41.6520   30.5040   40.8110 H   0  0  0  0  0  0  0  0  0  0  0  0
   38.9450   29.5460   40.5950 O   0  0  0  0  0  0  0  0  0  0  0  0
   37.4740   28.6110   43.6780 C   0  0  0  0  0  0  0  0  0  0  0  0
   37.1530   27.2700   43.4940 C   0  0  0  0  0  0  0  0  0  0  0  0
   37.4590   26.6800   42.2680 C   0  0  0  0  0  0  0  0  0  0  0  0
   38.0470   27.4540   41.3370 N   0  0  0  0  0  0  0  0  0  0  0  0
   38.3460   28.7440   41.5350 C   0  0  0  0  0  0  0  0  0  0  0  0
   38.0540   29.3080   42.7110 N   0  0  0  0  0  0  0  0  0  0  0  0
   37.2210   29.0330   44.6430 H   0  0  0  0  0  0  0  0  0  0  0  0
   36.6880   26.6410   44.2220 H   0  0  0  0  0  0  0  0  0  0  0  0
   37.0840   24.9610   41.9400 S   0  0  0  0  0  0  0  0  0  0  0  0
   36.4700   24.8830   40.6570 H   0  0  0  0  0  0  0  0  0  0  0  0
  1 11  1  0  0  0  0
  2 15  1  0  0  0  0
  2  1  2  0  0  0  0
  3  2  1  0  0  0  0
  4  3  2  0  0  0  0
  4  5  1  0  0  0  0
  5  6  2  0  0  0  0
  6 10  1  0  0  0  0
  6  1  1  0  0  0  0
  7  3  1  0  0  0  0
  8  4  1  0  0  0  0
  9  5  1  0  0  0  0
 11 12  2  0  0  0  0
 13 11  2  0  0  0  0
 14 11  1  0  0  0  0
 15 20  1  0  0  0  0
 16 22  1  0  0  0  0
 17 16  1  0  0  0  0
 17 23  1  0  0  0  0
 18 17  2  0  0  0  0
 19 20  2  0  0  0  0
 19 18  1  0  0  0  0
 20 21  1  0  0  0  0
 21 16  2  0  0  0  0
 24 18  1  0  0  0  0
 25 24  1  0  0  0  0
M  END
>  <minimizedAffinity>
-4.43517733

$$$$

 OpenBabel03242517523D

 25 26  0  0  0  0  0  0  0  0999 V2000
   36.8560   30.2870   38.9190 C   0  0  0  0  0  0  0  0  0  0  0  0
   36.3260   29.9140   40.1230 C   0  0  0  0  0  0  0  0  0  0  0  0
   35.1280   29.2060   40.0970 C   0  0  0  0  0  0  0  0  0  0  0  0
   34.4880   28.8860   38.9290 C   0  0  0  0  0  0  0  0  0  0  0  0
   35.0380   29.2710   37.7300 C   0  0  0  0  0  0  0  0  0  0  0  0
   36.2350   29.9790   37.7220 C   0  0  0  0  0  0  0  0  0  0  0  0
   34.6280   28.8660   40.9930 H   0  0  0  0  0  0  0  0  0  0  0  0
   33.5580   28.3360   38.9090 H   0  0  0  0  0  0  0  0  0  0  0  0
   34.5350   29.0180   36.8020 H   0  0  0  0  0  0  0  0  0  0  0  0
   36.7030   30.3010   36.7890 H   0  0  0  0  0  0  0  0  0  0  0  0
   38.3560   31.1700   39.0130 S   0  0  0  0  0  0  0  0  0  0  0  0
   38.1260   32.6330   39.2900 O   0  0  0  0  0  0  0  0  0  0  0  0
   39.0320   31.0870   37.6520 O   0  0  0  0  0  0  0  0  0  0  0  0
   39.1890   30.7070   39.9940 H   0  0  0  0  0  0  0  0  0  0  0  0
   36.8180   30.1420   41.3930 O   0  0  0  0  0  0  0  0  0  0  0  0
   37.6360   27.5270   43.6370 C   0  0  0  0  0  0  0  0  0  0  0  0
   39.0270   27.5140   43.6310 C   0  0  0  0  0  0  0  0  0  0  0  0
   39.6930   28.4390   42.8270 C   0  0  0  0  0  0  0  0  0  0  0  0
   38.9390   29.2880   42.1050 N   0  0  0  0  0  0  0  0  0  0  0  0
   37.6000   29.2820   42.1250 C   0  0  0  0  0  0  0  0  0  0  0  0
   36.9630   28.3960   42.8960 N   0  0  0  0  0  0  0  0  0  0  0  0
   37.1550   26.7940   44.2740 H   0  0  0  0  0  0  0  0  0  0  0  0
   39.6410   26.8480   44.1990 H   0  0  0  0  0  0  0  0  0  0  0  0
   41.4800   28.4970   42.7560 S   0  0  0  0  0  0  0  0  0  0  0  0
   41.8610   28.5800   41.3850 H   0  0  0  0  0  0  0  0  0  0  0  0
  1 11  1  0  0  0  0
  1  2  1  0  0  0  0
  2 15  1  0  0  0  0
  3  2  2  0  0  0  0
  3  7  1  0  0  0  0
  4  3  1  0  0  0  0
  5  4  2  0  0  0  0
  6  5  1  0  0  0  0
  6  1  2  0  0  0  0
  8  4  1  0  0  0  0
  9  5  1  0  0  0  0
 10  6  1  0  0  0  0
 11 12  2  0  0  0  0
 11 14  1  0  0  0  0
 13 11  2  0  0  0  0
 15 20  1  0  0  0  0
 16 22  1  0  0  0  0
 17 16  1  0  0  0  0
 17 23  1  0  0  0  0
 18 17  2  0  0  0  0
 19 20  2  0  0  0  0
 19 18  1  0  0  0  0
 20 21  1  0  0  0  0
 21 16  2  0  0  0  0
 24 18  1  0  0  0  0
 25 24  1  0  0  0  0
M  END
>  <minimizedAffinity>
-4.37393379

$$$$

 OpenBabel03242517523D

 25 26  0  0  0  0  0  0  0  0999 V2000
   38.8770   26.6920   42.5670 C   0  0  0  0  0  0  0  0  0  0  0  0
   39.1810   27.9800   42.9100 C   0  0  0  0  0  0  0  0  0  0  0  0
   40.5240   28.2840   43.1090 C   0  0  0  0  0  0  0  0  0  0  0  0
   41.5180   27.3500   42.9760 C   0  0  0  0  0  0  0  0  0  0  0  0
   41.1900   26.0610   42.6320 C   0  0  0  0  0  0  0  0  0  0  0  0
   39.8570   25.7250   42.4240 C   0  0  0  0  0  0  0  0  0  0  0  0
   40.8680   29.2720   43.3830 H   0  0  0  0  0  0  0  0  0  0  0  0
   42.5610   27.5860   43.1320 H   0  0  0  0  0  0  0  0  0  0  0  0
   41.9740   25.3170   42.5250 H   0  0  0  0  0  0  0  0  0  0  0  0
   39.5580   24.7120   42.1500 H   0  0  0  0  0  0  0  0  0  0  0  0
   37.1810   26.3710   42.3290 S   0  0  0  0  0  0  0  0  0  0  0  0
   36.6840   26.9350   41.0240 O   0  0  0  0  0  0  0  0  0  0  0  0
   36.4120   27.0860   43.4320 O   0  0  0  0  0  0  0  0  0  0  0  0
   36.8840   25.0360   42.3240 H   0  0  0  0  0  0  0  0  0  0  0  0
   38.3290   29.0520   43.0890 O   0  0  0  0  0  0  0  0  0  0  0  0
   36.4370   31.0030   40.8170 C   0  0  0  0  0  0  0  0  0  0  0  0
   37.3590   31.9230   40.3310 C   0  0  0  0  0  0  0  0  0  0  0  0
   38.6690   31.8610   40.8050 C   0  0  0  0  0  0  0  0  0  0  0  0
   38.9560   30.9070   41.7100 N   0  0  0  0  0  0  0  0  0  0  0  0
   38.0510   30.0300   42.1660 C   0  0  0  0  0  0  0  0  0  0  0  0
   36.7970   30.0900   41.7100 N   0  0  0  0  0  0  0  0  0  0  0  0
   35.4310   31.0830   40.4250 H   0  0  0  0  0  0  0  0  0  0  0  0
   37.1490   32.6860   39.6110 H   0  0  0  0  0  0  0  0  0  0  0  0
   39.9230   33.0030   40.2360 S   0  0  0  0  0  0  0  0  0  0  0  0
   40.6270   33.4860   41.3770 H   0  0  0  0  0  0  0  0  0  0  0  0
  1  2  1  0  0  0  0
  2 15  1  0  0  0  0
  2  3  2  0  0  0  0
  3  7  1  0  0  0  0
  4  3  1  0  0  0  0
  4  8  1  0  0  0  0
  5  4  2  0  0  0  0
  6  1  2  0  0  0  0
  6  5  1  0  0  0  0
  9  5  1  0  0  0  0
 10  6  1  0  0  0  0
 11  1  1  0  0  0  0
 11 13  2  0  0  0  0
 12 11  2  0  0  0  0
 14 11  1  0  0  0  0
 16 21  1  0  0  0  0
 17 18  1  0  0  0  0
 17 16  2  0  0  0  0
 18 19  2  0  0  0  0
 19 20  1  0  0  0  0
 20 15  1  0  0  0  0
 21 20  2  0  0  0  0
 22 16  1  0  0  0  0
 23 17  1  0  0  0  0
 24 18  1  0  0  0  0
 24 25  1  0  0  0  0
M  END
>  <minimizedAffinity>
-4.36516333

$$$$

 OpenBabel03242517523D

 25 26  0  0  0  0  0  0  0  0999 V2000
   38.6710   27.7020   42.6440 C   0  0  0  0  0  0  0  0  0  0  0  0
   38.7100   29.0490   42.4070 C   0  0  0  0  0  0  0  0  0  0  0  0
   39.9500   29.6740   42.5000 C   0  0  0  0  0  0  0  0  0  0  0  0
   41.0960   28.9920   42.8150 C   0  0  0  0  0  0  0  0  0  0  0  0
   41.0340   27.6400   43.0490 C   0  0  0  0  0  0  0  0  0  0  0  0
   39.8100   26.9850   42.9630 C   0  0  0  0  0  0  0  0  0  0  0  0
   40.0870   30.7330   42.3310 H   0  0  0  0  0  0  0  0  0  0  0  0
   42.0580   29.4780   42.8870 H   0  0  0  0  0  0  0  0  0  0  0  0
   41.9400   27.0950   43.2990 H   0  0  0  0  0  0  0  0  0  0  0  0
   39.7210   25.9120   43.1430 H   0  0  0  0  0  0  0  0  0  0  0  0
   37.0930   26.9740   42.5120 S   0  0  0  0  0  0  0  0  0  0  0  0
   36.2120   27.3380   43.6790 O   0  0  0  0  0  0  0  0  0  0  0  0
   37.2720   25.4630   42.5580 O   0  0  0  0  0  0  0  0  0  0  0  0
   36.4240   27.3460   41.3790 H   0  0  0  0  0  0  0  0  0  0  0  0
   37.6740   29.9000   42.0790 O   0  0  0  0  0  0  0  0  0  0  0  0
   37.4090   32.5560   39.7510 C   0  0  0  0  0  0  0  0  0  0  0  0
   37.1570   31.9100   38.5450 C   0  0  0  0  0  0  0  0  0  0  0  0
   37.0760   30.5180   38.5460 C   0  0  0  0  0  0  0  0  0  0  0  0
   37.2500   29.8870   39.7220 N   0  0  0  0  0  0  0  0  0  0  0  0
   37.4930   30.5300   40.8720 C   0  0  0  0  0  0  0  0  0  0  0  0
   37.5700   31.8630   40.8700 N   0  0  0  0  0  0  0  0  0  0  0  0
   37.4650   33.6370   39.7100 H   0  0  0  0  0  0  0  0  0  0  0  0
   37.0150   32.3950   37.6030 H   0  0  0  0  0  0  0  0  0  0  0  0
   36.7540   29.6010   37.0430 S   0  0  0  0  0  0  0  0  0  0  0  0
   37.6790   28.5180   36.9830 H   0  0  0  0  0  0  0  0  0  0  0  0
  1  6  1  0  0  0  0
  2  3  1  0  0  0  0
  2  1  2  0  0  0  0
  3  4  2  0  0  0  0
  4  8  1  0  0  0  0
  4  5  1  0  0  0  0
  5  9  1  0  0  0  0
  6  5  2  0  0  0  0
  6 10  1  0  0  0  0
  7  3  1  0  0  0  0
 11 13  2  0  0  0  0
 11  1  1  0  0  0  0
 11 12  2  0  0  0  0
 14 11  1  0  0  0  0
 15  2  1  0  0  0  0
 16 21  1  0  0  0  0
 17 18  1  0  0  0  0
 17 16  2  0  0  0  0
 18 19  2  0  0  0  0
 19 20  1  0  0  0  0
 20 15  1  0  0  0  0
 21 20  2  0  0  0  0
 22 16  1  0  0  0  0
 23 17  1  0  0  0  0
 24 18  1  0  0  0  0
 25 24  1  0  0  0  0
M  END
>  <minimizedAffinity>
-4.32596779

$$$$

 OpenBabel03242517523D

 25 26  0  0  0  0  0  0  0  0999 V2000
   36.7660   28.7150   41.1130 C   0  0  0  0  0  0  0  0  0  0  0  0
   36.5180   29.9040   40.4840 C   0  0  0  0  0  0  0  0  0  0  0  0
   36.0550   29.8440   39.1740 C   0  0  0  0  0  0  0  0  0  0  0  0
   35.8480   28.6580   38.5190 C   0  0  0  0  0  0  0  0  0  0  0  0
   36.1030   27.4750   39.1710 C   0  0  0  0  0  0  0  0  0  0  0  0
   36.5660   27.5010   40.4810 C   0  0  0  0  0  0  0  0  0  0  0  0
   35.8300   30.7260   38.5890 H   0  0  0  0  0  0  0  0  0  0  0  0
   35.4880   28.6120   37.5020 H   0  0  0  0  0  0  0  0  0  0  0  0
   35.9400   26.5320   38.6570 H   0  0  0  0  0  0  0  0  0  0  0  0
   36.7800   26.5820   41.0310 H   0  0  0  0  0  0  0  0  0  0  0  0
   37.3430   28.8530   42.7520 S   0  0  0  0  0  0  0  0  0  0  0  0
   38.8460   28.7720   42.8230 O   0  0  0  0  0  0  0  0  0  0  0  0
   36.8080   27.6630   43.5360 O   0  0  0  0  0  0  0  0  0  0  0  0
   36.9800   30.0270   43.3510 H   0  0  0  0  0  0  0  0  0  0  0  0
   36.6640   31.1880   40.9710 O   0  0  0  0  0  0  0  0  0  0  0  0
   38.3880   34.0860   39.8870 C   0  0  0  0  0  0  0  0  0  0  0  0
   39.7170   33.8070   40.1880 C   0  0  0  0  0  0  0  0  0  0  0  0
   40.0170   32.5810   40.7810 C   0  0  0  0  0  0  0  0  0  0  0  0
   38.9930   31.7430   41.0260 N   0  0  0  0  0  0  0  0  0  0  0  0
   37.7190   32.0320   40.7280 C   0  0  0  0  0  0  0  0  0  0  0  0
   37.4330   33.2070   40.1590 N   0  0  0  0  0  0  0  0  0  0  0  0
   38.1950   35.0470   39.4270 H   0  0  0  0  0  0  0  0  0  0  0  0
   40.5420   34.4600   40.0000 H   0  0  0  0  0  0  0  0  0  0  0  0
   41.6980   32.1360   41.2040 S   0  0  0  0  0  0  0  0  0  0  0  0
   41.6920   31.6060   42.5270 H   0  0  0  0  0  0  0  0  0  0  0  0
  1 11  1  0  0  0  0
  2 15  1  0  0  0  0
  2  1  1  0  0  0  0
  3  2  2  0  0  0  0
  4  5  2  0  0  0  0
  4  3  1  0  0  0  0
  5  6  1  0  0  0  0
  6 10  1  0  0  0  0
  6  1  2  0  0  0  0
  7  3  1  0  0  0  0
  8  4  1  0  0  0  0
  9  5  1  0  0  0  0
 11 12  2  0  0  0  0
 11 14  1  0  0  0  0
 11 13  2  0  0  0  0
 16 21  2  0  0  0  0
 16 17  1  0  0  0  0
 17 18  2  0  0  0  0
 18 19  1  0  0  0  0
 18 24  1  0  0  0  0
 20 15  1  0  0  0  0
 20 19  2  0  0  0  0
 21 20  1  0  0  0  0
 22 16  1  0  0  0  0
 23 17  1  0  0  0  0
 24 25  1  0  0  0  0
M  END
>  <minimizedAffinity>
-4.30541897

$$$$
