
 OpenBabel03242519523D

 27 28  0  0  1  0  0  0  0  0999 V2000
   46.8080   33.1610   42.6730 C   0  0  2  0  0  0  0  0  0  0  0  0
   46.1300   33.2080   41.3570 C   0  0  0  0  0  0  0  0  0  0  0  0
   45.3680   34.4710   41.1230 C   0  0  0  0  0  0  0  0  0  0  0  0
   44.3850   34.7860   42.2330 C   0  0  0  0  0  0  0  0  0  0  0  0
   44.9180   34.4980   43.6160 C   0  0  1  0  0  0  0  0  0  0  0  0
   46.4210   34.3070   43.5970 C   0  0  0  0  0  0  0  0  0  0  0  0
   46.5560   32.2390   43.2730 H   0  0  0  0  0  0  0  0  0  0  0  0
   45.4550   32.3420   41.2160 H   0  0  0  0  0  0  0  0  0  0  0  0
   46.8980   33.1500   40.5530 H   0  0  0  0  0  0  0  0  0  0  0  0
   45.9410   35.3570   40.8680 H   0  0  0  0  0  0  0  0  0  0  0  0
   44.7240   34.2780   40.2150 H   0  0  0  0  0  0  0  0  0  0  0  0
   43.4130   34.2900   42.0480 H   0  0  0  0  0  0  0  0  0  0  0  0
   44.1780   35.8740   42.1750 H   0  0  0  0  0  0  0  0  0  0  0  0
   44.4570   33.5480   43.9510 H   0  0  0  0  0  0  0  0  0  0  0  0
   46.7800   34.0900   44.6020 H   0  0  0  0  0  0  0  0  0  0  0  0
   46.8500   35.2340   43.1450 H   0  0  0  0  0  0  0  0  0  0  0  0
   48.2760   33.1810   42.5430 C   0  0  0  0  0  0  0  0  0  0  0  0
   48.8810   34.4490   42.6560 C   0  0  0  0  0  0  0  0  0  0  0  0
   50.2730   34.5830   42.5450 C   0  0  0  0  0  0  0  0  0  0  0  0
   50.9710   33.4290   42.3260 N   0  0  0  0  0  0  0  0  0  0  0  0
   50.3700   32.2160   42.2210 C   0  0  0  0  0  0  0  0  0  0  0  0
   49.0240   32.0990   42.3300 N   0  0  0  0  0  0  0  0  0  0  0  0
   48.4050   35.4030   42.8280 H   0  0  0  0  0  0  0  0  0  0  0  0
   50.7970   35.5030   42.6200 H   0  0  0  0  0  0  0  0  0  0  0  0
   51.0120   31.3730   42.0490 H   0  0  0  0  0  0  0  0  0  0  0  0
   44.5400   35.8700   44.7330 S   0  0  0  0  0  0  0  0  0  0  0  0
   45.5730   36.7980   44.7480 H   0  0  0  0  0  0  0  0  0  0  0  0
  1  7  1  1  0  0  0
  1  6  1  0  0  0  0
  2  1  1  0  0  0  0
  3  2  1  0  0  0  0
  3  4  1  0  0  0  0
  4  5  1  0  0  0  0
  5 14  1  1  0  0  0
  5 26  1  0  0  0  0
  6  5  1  0  0  0  0
  6 15  1  0  0  0  0
  8  2  1  0  0  0  0
  9  2  1  0  0  0  0
 10  3  1  0  0  0  0
 11  3  1  0  0  0  0
 12  4  1  0  0  0  0
 13  4  1  0  0  0  0
 16  6  1  0  0  0  0
 17 18  1  0  0  0  0
 17  1  1  0  0  0  0
 18 23  1  0  0  0  0
 19 24  1  0  0  0  0
 19 18  2  0  0  0  0
 20 19  1  0  0  0  0
 21 20  2  0  0  0  0
 21 22  1  0  0  0  0
 22 17  2  0  0  0  0
 25 21  1  0  0  0  0
 26 27  1  0  0  0  0
M  END
>  <minimizedAffinity>
-3.86448622

>  <minimizedRMSD>
1.50210786

$$$$
