
 OpenBabel03242517443D

 22 23  0  0  0  0  0  0  0  0999 V2000
   41.6680   33.6860   41.0970 C   0  0  0  0  0  0  0  0  0  0  0  0
   41.5990   32.3320   41.3430 C   0  0  0  0  0  0  0  0  0  0  0  0
   40.3750   31.7040   41.3760 C   0  0  0  0  0  0  0  0  0  0  0  0
   39.2050   32.3950   41.1660 C   0  0  0  0  0  0  0  0  0  0  0  0
   39.2690   33.7470   40.9200 C   0  0  0  0  0  0  0  0  0  0  0  0
   40.4930   34.3870   40.8850 C   0  0  0  0  0  0  0  0  0  0  0  0
   42.5490   31.8380   41.5010 H   0  0  0  0  0  0  0  0  0  0  0  0
   40.3540   30.6270   41.5740 H   0  0  0  0  0  0  0  0  0  0  0  0
   38.2430   31.8870   41.1940 H   0  0  0  0  0  0  0  0  0  0  0  0
   38.3190   34.2510   40.7600 H   0  0  0  0  0  0  0  0  0  0  0  0
   40.4160   36.1410   40.5540 S   0  0  0  0  0  0  0  0  0  0  0  0
   40.2950   36.4340   39.1980 H   0  0  0  0  0  0  0  0  0  0  0  0
   43.1390   34.6750   41.0150 S   0  0  0  0  0  0  0  0  0  0  0  0
   44.0020   35.6650   43.4500 C   0  0  0  0  0  0  0  0  0  0  0  0
   44.0140   34.5580   42.5640 C   0  0  0  0  0  0  0  0  0  0  0  0
   44.7160   33.4110   42.9430 C   0  0  0  0  0  0  0  0  0  0  0  0
   45.3510   33.4210   44.1440 N   0  0  0  0  0  0  0  0  0  0  0  0
   45.3160   34.4840   44.9510 C   0  0  0  0  0  0  0  0  0  0  0  0
   44.6590   35.6090   44.6380 N   0  0  0  0  0  0  0  0  0  0  0  0
   43.4520   36.5250   43.1200 H   0  0  0  0  0  0  0  0  0  0  0  0
   44.7380   32.5680   42.2920 H   0  0  0  0  0  0  0  0  0  0  0  0
   45.8250   34.4910   45.9130 H   0  0  0  0  0  0  0  0  0  0  0  0
  1  2  1  0  0  0  0
  2  3  2  0  0  0  0
  2  7  1  0  0  0  0
  3  8  1  0  0  0  0
  4  9  1  0  0  0  0
  4  3  1  0  0  0  0
  5  4  2  0  0  0  0
  6  5  1  0  0  0  0
  6  1  2  0  0  0  0
 10  5  1  0  0  0  0
 11  6  1  0  0  0  0
 12 11  1  0  0  0  0
 13  1  1  0  0  0  0
 13 15  1  0  0  0  0
 14 19  1  0  0  0  0
 15 16  1  0  0  0  0
 15 14  2  0  0  0  0
 16 17  2  0  0  0  0
 17 18  1  0  0  0  0
 18 22  1  0  0  0  0
 19 18  2  0  0  0  0
 20 14  1  0  0  0  0
 21 16  1  0  0  0  0
M  END
>  <minimizedAffinity>
-3.91903853

>  <minimizedRMSD>
1.22928011

$$$$
