
 OpenBabel03252508213D

 27 28  0  0  0  0  0  0  0  0999 V2000
   44.5710   33.6820   41.1470 C   0  0  0  0  0  0  0  0  0  0  0  0
   44.4440   32.6520   41.5100 H   0  0  0  0  0  0  0  0  0  0  0  0
   44.0130   34.3320   41.8540 H   0  0  0  0  0  0  0  0  0  0  0  0
   45.9440   34.1690   41.0690 C   0  0  0  0  0  0  0  0  0  0  0  0
   46.7960   33.9750   40.0130 C   0  0  0  0  0  0  0  0  0  0  0  0
   48.0990   34.4460   39.9560 C   0  0  0  0  0  0  0  0  0  0  0  0
   48.5560   35.1620   41.0610 C   0  0  0  0  0  0  0  0  0  0  0  0
   47.7220   35.3760   42.1450 C   0  0  0  0  0  0  0  0  0  0  0  0
   46.4370   34.8880   42.1520 C   0  0  0  0  0  0  0  0  0  0  0  0
   46.4350   33.4190   39.1600 H   0  0  0  0  0  0  0  0  0  0  0  0
   48.7260   34.2610   39.0910 H   0  0  0  0  0  0  0  0  0  0  0  0
   49.5640   35.5560   41.0780 H   0  0  0  0  0  0  0  0  0  0  0  0
   48.1120   35.9290   42.9680 H   0  0  0  0  0  0  0  0  0  0  0  0
   45.4320   35.2070   43.5830 S   0  0  0  0  0  0  0  0  0  0  0  0
   45.3270   34.0960   44.4250 H   0  0  0  0  0  0  0  0  0  0  0  0
   43.8570   33.8670   39.8080 C   0  0  0  0  0  0  0  0  0  0  0  0
   44.5140   34.5190   39.1770 H   0  0  0  0  0  0  0  0  0  0  0  0
   43.7250   32.9170   39.2590 H   0  0  0  0  0  0  0  0  0  0  0  0
   41.0540   35.6650   41.5710 C   0  0  0  0  0  0  0  0  0  0  0  0
   42.2820   34.9860   41.3540 C   0  0  0  0  0  0  0  0  0  0  0  0
   42.5800   34.5810   40.0650 C   0  0  0  0  0  0  0  0  0  0  0  0
   41.6650   34.8680   39.0860 N   0  0  0  0  0  0  0  0  0  0  0  0
   40.5210   35.5090   39.3230 C   0  0  0  0  0  0  0  0  0  0  0  0
   40.2100   35.9100   40.5630 N   0  0  0  0  0  0  0  0  0  0  0  0
   40.8720   35.9600   42.6000 H   0  0  0  0  0  0  0  0  0  0  0  0
   42.9360   34.8050   42.1830 H   0  0  0  0  0  0  0  0  0  0  0  0
   39.8700   35.6820   38.4650 H   0  0  0  0  0  0  0  0  0  0  0  0
  1  2  1  0  0  0  0
  1  3  1  0  0  0  0
  4  1  1  0  0  0  0
  4  9  1  0  0  0  0
  5  4  2  0  0  0  0
  6  5  1  0  0  0  0
  6  7  2  0  0  0  0
  7 12  1  0  0  0  0
  7  8  1  0  0  0  0
  8  9  2  0  0  0  0
  8 13  1  0  0  0  0
  9 14  1  0  0  0  0
 10  5  1  0  0  0  0
 11  6  1  0  0  0  0
 14 15  1  0  0  0  0
 16 21  1  0  0  0  0
 16  1  1  0  0  0  0
 17 16  1  0  0  0  0
 18 16  1  0  0  0  0
 19 25  1  0  0  0  0
 20 19  1  0  0  0  0
 20 26  1  0  0  0  0
 21 20  2  0  0  0  0
 22 23  2  0  0  0  0
 22 21  1  0  0  0  0
 23 24  1  0  0  0  0
 24 19  2  0  0  0  0
 27 23  1  0  0  0  0
M  END
>  <minimizedAffinity>
-4.63338375

>  <minimizedRMSD>
1.60045791

$$$$
