
 OpenBabel03252506233D

 24 25  0  0  0  0  0  0  0  0999 V2000
   46.4820   33.0410   45.5640 C   0  0  0  0  0  0  0  0  0  0  0  0
   46.6850   31.7180   45.1240 C   0  0  0  0  0  0  0  0  0  0  0  0
   47.1840   30.9920   46.1480 C   0  0  0  0  0  0  0  0  0  0  0  0
   47.2880   31.8430   47.1910 N   0  0  0  0  0  0  0  0  0  0  0  0
   46.8680   33.0610   46.8390 N   0  0  0  0  0  0  0  0  0  0  0  0
   46.4690   31.3640   44.1260 H   0  0  0  0  0  0  0  0  0  0  0  0
   47.4420   29.9420   46.1120 H   0  0  0  0  0  0  0  0  0  0  0  0
   44.4610   35.8700   44.4390 C   0  0  0  0  0  0  0  0  0  0  0  0
   44.9510   36.1300   43.1600 C   0  0  0  0  0  0  0  0  0  0  0  0
   45.9870   35.3150   42.6960 C   0  0  0  0  0  0  0  0  0  0  0  0
   46.4550   34.3250   43.5040 N   0  0  0  0  0  0  0  0  0  0  0  0
   45.9570   34.1040   44.7310 C   0  0  0  0  0  0  0  0  0  0  0  0
   44.9620   34.8730   45.2030 N   0  0  0  0  0  0  0  0  0  0  0  0
   43.6580   36.5040   44.7990 H   0  0  0  0  0  0  0  0  0  0  0  0
   44.6020   36.8960   42.5120 H   0  0  0  0  0  0  0  0  0  0  0  0
   46.4680   35.3970   41.7250 H   0  0  0  0  0  0  0  0  0  0  0  0
   47.7860   31.4560   48.4870 C   0  0  0  0  0  0  0  0  0  0  0  0
   48.7950   31.0620   48.4380 H   0  0  0  0  0  0  0  0  0  0  0  0
   47.7160   32.3900   49.1170 H   0  0  0  0  0  0  0  0  0  0  0  0
   46.7910   30.4980   49.0940 C   0  0  0  0  0  0  0  0  0  0  0  0
   47.2550   30.1470   50.0540 H   0  0  0  0  0  0  0  0  0  0  0  0
   46.6890   29.5660   48.4800 H   0  0  0  0  0  0  0  0  0  0  0  0
   45.1870   31.2660   49.3820 S   0  0  0  0  0  0  0  0  0  0  0  0
   45.3120   32.1740   50.4440 H   0  0  0  0  0  0  0  0  0  0  0  0
  1  5  2  0  0  0  0
  2  1  1  0  0  0  0
  2  3  2  0  0  0  0
  3  4  1  0  0  0  0
  4 17  1  0  0  0  0
  5  4  1  0  0  0  0
  6  2  1  0  0  0  0
  7  3  1  0  0  0  0
  8 14  1  0  0  0  0
  8 13  1  0  0  0  0
  9  8  2  0  0  0  0
 10  9  1  0  0  0  0
 10 11  2  0  0  0  0
 11 12  1  0  0  0  0
 12 13  2  0  0  0  0
 12  1  1  0  0  0  0
 15  9  1  0  0  0  0
 16 10  1  0  0  0  0
 17 20  1  0  0  0  0
 17 19  1  0  0  0  0
 18 17  1  0  0  0  0
 20 23  1  0  0  0  0
 20 21  1  0  0  0  0
 22 20  1  0  0  0  0
 23 24  1  0  0  0  0
M  END
>  <minimizedAffinity>
-4.01967859

>  <minimizedRMSD>
0.903036594

$$$$
