
 OpenBabel03242517523D

 25 26  0  0  0  0  0  0  0  0999 V2000
   45.6370   30.4040   47.0060 C   0  0  0  0  0  0  0  0  0  0  0  0
   46.5090   31.4310   46.7720 C   0  0  0  0  0  0  0  0  0  0  0  0
   46.6960   32.3510   47.7990 C   0  0  0  0  0  0  0  0  0  0  0  0
   46.0460   32.2550   49.0010 C   0  0  0  0  0  0  0  0  0  0  0  0
   45.1740   31.2150   49.2150 C   0  0  0  0  0  0  0  0  0  0  0  0
   44.9660   30.2780   48.2090 C   0  0  0  0  0  0  0  0  0  0  0  0
   47.3630   33.1990   47.7140 H   0  0  0  0  0  0  0  0  0  0  0  0
   46.1920   32.9700   49.7980 H   0  0  0  0  0  0  0  0  0  0  0  0
   44.6570   31.1340   50.1660 H   0  0  0  0  0  0  0  0  0  0  0  0
   44.2810   29.4380   48.3420 H   0  0  0  0  0  0  0  0  0  0  0  0
   45.4440   29.2830   45.6850 S   0  0  0  0  0  0  0  0  0  0  0  0
   44.8200   29.9410   44.4820 O   0  0  0  0  0  0  0  0  0  0  0  0
   44.4790   28.1950   46.1350 O   0  0  0  0  0  0  0  0  0  0  0  0
   46.6270   28.7360   45.2700 H   0  0  0  0  0  0  0  0  0  0  0  0
   47.2510   31.6950   45.6370 O   0  0  0  0  0  0  0  0  0  0  0  0
   47.7300   33.7490   42.7920 C   0  0  0  0  0  0  0  0  0  0  0  0
   46.7180   34.6970   42.8990 C   0  0  0  0  0  0  0  0  0  0  0  0
   45.8510   34.6180   43.9890 C   0  0  0  0  0  0  0  0  0  0  0  0
   46.0520   33.6210   44.8700 N   0  0  0  0  0  0  0  0  0  0  0  0
   47.0340   32.7180   44.7470 C   0  0  0  0  0  0  0  0  0  0  0  0
   47.8640   32.7950   43.7030 N   0  0  0  0  0  0  0  0  0  0  0  0
   48.3830   33.8440   41.9320 H   0  0  0  0  0  0  0  0  0  0  0  0
   46.5450   35.4960   42.2090 H   0  0  0  0  0  0  0  0  0  0  0  0
   44.5200   35.7940   44.2090 S   0  0  0  0  0  0  0  0  0  0  0  0
   43.3390   35.0640   44.5310 H   0  0  0  0  0  0  0  0  0  0  0  0
  1  6  1  0  0  0  0
  2  1  2  0  0  0  0
  2  3  1  0  0  0  0
  3  4  2  0  0  0  0
  4  5  1  0  0  0  0
  4  8  1  0  0  0  0
  5  9  1  0  0  0  0
  6 10  1  0  0  0  0
  6  5  2  0  0  0  0
  7  3  1  0  0  0  0
 11 13  2  0  0  0  0
 11  1  1  0  0  0  0
 12 11  2  0  0  0  0
 14 11  1  0  0  0  0
 15  2  1  0  0  0  0
 16 17  2  0  0  0  0
 16 21  1  0  0  0  0
 17 18  1  0  0  0  0
 18 24  1  0  0  0  0
 18 19  2  0  0  0  0
 20 19  1  0  0  0  0
 20 15  1  0  0  0  0
 21 20  2  0  0  0  0
 22 16  1  0  0  0  0
 23 17  1  0  0  0  0
 24 25  1  0  0  0  0
M  END
>  <minimizedAffinity>
-4.54159975

>  <minimizedRMSD>
1.45966911

$$$$
