
 OpenBabel03252507143D

 35 36  0  0  1  0  0  0  0  0999 V2000
   38.7780   29.0710   41.7500 O   0  0  0  0  0  0  0  0  0  0  0  0
   37.3190   29.0430   42.0020 P   0  0  1  0  0  0  0  0  0  0  0  0
   37.0990   29.2740   43.6760 O   0  0  0  0  0  0  0  0  0  0  0  0
   37.3960   30.1750   43.9540 H   0  0  0  0  0  0  0  0  0  0  0  0
   36.5480   30.3670   41.2120 O   0  0  0  0  0  0  0  0  0  0  0  0
   37.1710   31.9240   39.5530 C   0  0  0  0  0  0  0  0  0  0  0  0
   36.7800   30.6470   39.8800 C   0  0  0  0  0  0  0  0  0  0  0  0
   36.6370   29.6880   38.8450 C   0  0  0  0  0  0  0  0  0  0  0  0
   36.8980   30.1030   37.5820 N   0  0  0  0  0  0  0  0  0  0  0  0
   37.2710   31.3380   37.3050 C   0  0  0  0  0  0  0  0  0  0  0  0
   37.4060   32.2470   38.3060 N   0  0  0  0  0  0  0  0  0  0  0  0
   38.6240   33.3010   41.0350 C   0  0  0  0  0  0  0  0  0  0  0  0
   39.4310   32.3290   41.2920 O   0  0  0  0  0  0  0  0  0  0  0  0
   37.4440   33.1730   40.1680 N   0  0  0  0  0  0  0  0  0  0  0  0
   36.3320   28.7040   39.1240 H   0  0  0  0  0  0  0  0  0  0  0  0
   37.4890   31.6980   36.2910 H   0  0  0  0  0  0  0  0  0  0  0  0
   38.8670   34.2480   41.5080 H   0  0  0  0  0  0  0  0  0  0  0  0
   36.8970   34.0520   40.0930 H   0  0  0  0  0  0  0  0  0  0  0  0
   36.6000   27.6210   41.5770 O   0  0  0  0  0  0  0  0  0  0  0  0
   37.3360   26.6300   41.0750 C   0  0  2  0  0  0  0  0  0  0  0  0
   36.7730   25.8050   39.9900 C   0  0  0  0  0  0  0  0  0  0  0  0
   37.5520   24.5100   39.9130 C   0  0  0  0  0  0  0  0  0  0  0  0
   37.2310   23.6770   40.9800 O   0  0  0  0  0  0  0  0  0  0  0  0
   36.9860   24.4220   42.1250 C   0  0  0  0  0  0  0  0  0  0  0  0
   37.8400   25.6650   42.1630 C   0  0  1  0  0  0  0  0  0  0  0  0
   38.3020   27.0810   40.7230 H   0  0  0  0  0  0  0  0  0  0  0  0
   36.8610   26.3240   39.0090 H   0  0  0  0  0  0  0  0  0  0  0  0
   35.7000   25.5430   40.1560 H   0  0  0  0  0  0  0  0  0  0  0  0
   37.2170   24.0240   38.9590 H   0  0  0  0  0  0  0  0  0  0  0  0
   38.6150   24.7080   39.7870 H   0  0  0  0  0  0  0  0  0  0  0  0
   35.9370   24.7360   42.2060 H   0  0  0  0  0  0  0  0  0  0  0  0
   37.2560   23.7940   43.0040 H   0  0  0  0  0  0  0  0  0  0  0  0
   37.6180   26.1650   43.1280 H   0  0  0  0  0  0  0  0  0  0  0  0
   39.5870   25.3410   42.0860 S   0  0  0  0  0  0  0  0  0  0  0  0
   40.1220   24.8330   43.2630 H   0  0  0  0  0  0  0  0  0  0  0  0
  2  1  2  6  0  0  0
  2  3  1  0  0  0  0
  3  4  1  0  0  0  0
  5  2  1  0  0  0  0
  6  7  1  0  0  0  0
  6 14  1  0  0  0  0
  7  5  1  0  0  0  0
  8 15  1  0  0  0  0
  8  7  2  0  0  0  0
  9  8  1  0  0  0  0
 10  9  2  0  0  0  0
 10 11  1  0  0  0  0
 11  6  2  0  0  0  0
 12 13  2  0  0  0  0
 12 17  1  0  0  0  0
 14 12  1  0  0  0  0
 16 10  1  0  0  0  0
 18 14  1  0  0  0  0
 19  2  1  0  0  0  0
 20 26  1  6  0  0  0
 20 19  1  0  0  0  0
 20 25  1  0  0  0  0
 21 28  1  0  0  0  0
 21 20  1  0  0  0  0
 22 21  1  0  0  0  0
 22 23  1  0  0  0  0
 23 24  1  0  0  0  0
 24 25  1  0  0  0  0
 24 31  1  0  0  0  0
 24 32  1  0  0  0  0
 25 33  1  1  0  0  0
 27 21  1  0  0  0  0
 29 22  1  0  0  0  0
 30 22  1  0  0  0  0
 34 25  1  0  0  0  0
 34 35  1  0  0  0  0
M  END
>  <minimizedAffinity>
-5.30949259

$$$$

 OpenBabel03252507143D

 35 36  0  0  1  0  0  0  0  0999 V2000
   34.5640   29.1090   39.9390 O   0  0  0  0  0  0  0  0  0  0  0  0
   35.8060   29.4440   40.6720 P   0  0  1  0  0  0  0  0  0  0  0  0
   35.5620   30.9680   41.3920 O   0  0  0  0  0  0  0  0  0  0  0  0
   34.8550   30.9290   42.0810 H   0  0  0  0  0  0  0  0  0  0  0  0
   36.0650   28.3230   41.9550 O   0  0  0  0  0  0  0  0  0  0  0  0
   37.6760   26.6160   42.1920 C   0  0  0  0  0  0  0  0  0  0  0  0
   37.3370   27.9410   42.3350 C   0  0  0  0  0  0  0  0  0  0  0  0
   38.2980   28.8420   42.8590 C   0  0  0  0  0  0  0  0  0  0  0  0
   39.5080   28.3280   43.1890 N   0  0  0  0  0  0  0  0  0  0  0  0
   39.7990   27.0490   43.0380 C   0  0  0  0  0  0  0  0  0  0  0  0
   38.8690   26.1970   42.5350 N   0  0  0  0  0  0  0  0  0  0  0  0
   36.8290   25.2110   40.3180 C   0  0  0  0  0  0  0  0  0  0  0  0
   37.0320   26.1210   39.4290 O   0  0  0  0  0  0  0  0  0  0  0  0
   37.1200   25.3880   41.7490 N   0  0  0  0  0  0  0  0  0  0  0  0
   38.0110   29.8650   42.9600 H   0  0  0  0  0  0  0  0  0  0  0  0
   40.7700   26.6090   43.2970 H   0  0  0  0  0  0  0  0  0  0  0  0
   36.4170   24.2770   39.9460 H   0  0  0  0  0  0  0  0  0  0  0  0
   36.8720   24.5590   42.3200 H   0  0  0  0  0  0  0  0  0  0  0  0
   37.1400   29.5340   39.7070 O   0  0  0  0  0  0  0  0  0  0  0  0
   37.4310   30.6730   39.0800 C   0  0  2  0  0  0  0  0  0  0  0  0
   37.5780   30.6610   37.6130 C   0  0  0  0  0  0  0  0  0  0  0  0
   38.3400   31.8980   37.1930 C   0  0  0  0  0  0  0  0  0  0  0  0
   39.6870   31.7860   37.5260 O   0  0  0  0  0  0  0  0  0  0  0  0
   39.8380   31.0920   38.7180 C   0  0  0  0  0  0  0  0  0  0  0  0
   38.6850   31.3550   39.6550 C   0  0  1  0  0  0  0  0  0  0  0  0
   36.6360   31.4150   39.3580 H   0  0  0  0  0  0  0  0  0  0  0  0
   36.5840   30.6770   37.1130 H   0  0  0  0  0  0  0  0  0  0  0  0
   38.1450   29.7730   37.2410 H   0  0  0  0  0  0  0  0  0  0  0  0
   38.2450   31.9350   36.0760 H   0  0  0  0  0  0  0  0  0  0  0  0
   37.8490   32.7960   37.5610 H   0  0  0  0  0  0  0  0  0  0  0  0
   39.9040   30.0060   38.5690 H   0  0  0  0  0  0  0  0  0  0  0  0
   40.7680   31.4580   39.2090 H   0  0  0  0  0  0  0  0  0  0  0  0
   38.9160   30.8080   40.5930 H   0  0  0  0  0  0  0  0  0  0  0  0
   38.4550   33.0730   40.0490 S   0  0  0  0  0  0  0  0  0  0  0  0
   39.3990   33.5860   40.9290 H   0  0  0  0  0  0  0  0  0  0  0  0
  2  1  2  6  0  0  0
  2  3  1  0  0  0  0
  2  5  1  0  0  0  0
  3  4  1  0  0  0  0
  5  7  1  0  0  0  0
  6  7  2  0  0  0  0
  6 11  1  0  0  0  0
  7  8  1  0  0  0  0
  8 15  1  0  0  0  0
  8  9  2  0  0  0  0
 10  9  1  0  0  0  0
 10 16  1  0  0  0  0
 11 10  2  0  0  0  0
 12 14  1  0  0  0  0
 13 12  2  0  0  0  0
 14  6  1  0  0  0  0
 14 18  1  0  0  0  0
 17 12  1  0  0  0  0
 19  2  1  0  0  0  0
 20 26  1  1  0  0  0
 20 25  1  0  0  0  0
 20 19  1  0  0  0  0
 21 20  1  0  0  0  0
 22 23  1  0  0  0  0
 22 30  1  0  0  0  0
 22 21  1  0  0  0  0
 23 24  1  0  0  0  0
 24 32  1  0  0  0  0
 24 25  1  0  0  0  0
 25 34  1  0  0  0  0
 25 33  1  1  0  0  0
 27 21  1  0  0  0  0
 28 21  1  0  0  0  0
 29 22  1  0  0  0  0
 31 24  1  0  0  0  0
 34 35  1  0  0  0  0
M  END
>  <minimizedAffinity>
-5.17063236

$$$$

 OpenBabel03252507143D

 35 36  0  0  1  0  0  0  0  0999 V2000
   35.8500   28.4000   41.3890 O   0  0  0  0  0  0  0  0  0  0  0  0
   36.9830   29.2350   41.8520 P   0  0  1  0  0  0  0  0  0  0  0  0
   36.9330   29.2390   43.5540 O   0  0  0  0  0  0  0  0  0  0  0  0
   37.1060   28.3370   43.9190 H   0  0  0  0  0  0  0  0  0  0  0  0
   38.4820   28.5130   41.4000 O   0  0  0  0  0  0  0  0  0  0  0  0
   38.5110   26.2810   42.1610 C   0  0  0  0  0  0  0  0  0  0  0  0
   39.0740   27.5350   42.1740 C   0  0  0  0  0  0  0  0  0  0  0  0
   40.2250   27.7610   42.9710 C   0  0  0  0  0  0  0  0  0  0  0  0
   40.6990   26.7080   43.6800 N   0  0  0  0  0  0  0  0  0  0  0  0
   40.1310   25.5170   43.6430 C   0  0  0  0  0  0  0  0  0  0  0  0
   39.0300   25.3130   42.8750 N   0  0  0  0  0  0  0  0  0  0  0  0
   37.4490   25.3100   40.1280 C   0  0  0  0  0  0  0  0  0  0  0  0
   38.3940   25.6980   39.3430 O   0  0  0  0  0  0  0  0  0  0  0  0
   37.4280   25.5760   41.5740 N   0  0  0  0  0  0  0  0  0  0  0  0
   40.6430   28.7430   42.9650 H   0  0  0  0  0  0  0  0  0  0  0  0
   40.4960   24.6480   44.2070 H   0  0  0  0  0  0  0  0  0  0  0  0
   36.6420   24.7600   39.6520 H   0  0  0  0  0  0  0  0  0  0  0  0
   36.5790   25.2100   42.0430 H   0  0  0  0  0  0  0  0  0  0  0  0
   36.9130   30.7960   41.3260 O   0  0  0  0  0  0  0  0  0  0  0  0
   37.8690   31.2720   40.5300 C   0  0  2  0  0  0  0  0  0  0  0  0
   38.9850   32.0260   41.1310 C   0  0  0  0  0  0  0  0  0  0  0  0
   39.6600   32.8370   40.0470 C   0  0  0  0  0  0  0  0  0  0  0  0
   38.8690   33.9210   39.6760 O   0  0  0  0  0  0  0  0  0  0  0  0
   37.5240   33.5850   39.7360 C   0  0  0  0  0  0  0  0  0  0  0  0
   37.3050   32.1340   39.3870 C   0  0  1  0  0  0  0  0  0  0  0  0
   38.2870   30.4010   39.9580 H   0  0  0  0  0  0  0  0  0  0  0  0
   39.7390   31.3360   41.5710 H   0  0  0  0  0  0  0  0  0  0  0  0
   38.6510   32.7360   41.9250 H   0  0  0  0  0  0  0  0  0  0  0  0
   40.6040   33.2210   40.5150 H   0  0  0  0  0  0  0  0  0  0  0  0
   39.9750   32.1960   39.2260 H   0  0  0  0  0  0  0  0  0  0  0  0
   37.0900   33.7570   40.7300 H   0  0  0  0  0  0  0  0  0  0  0  0
   36.9850   34.2040   38.9820 H   0  0  0  0  0  0  0  0  0  0  0  0
   36.2070   31.9720   39.4080 H   0  0  0  0  0  0  0  0  0  0  0  0
   37.9090   31.6820   37.7770 S   0  0  0  0  0  0  0  0  0  0  0  0
   37.1260   32.1420   36.7260 H   0  0  0  0  0  0  0  0  0  0  0  0
  2  1  2  6  0  0  0
  2  3  1  0  0  0  0
  3  4  1  0  0  0  0
  5  2  1  0  0  0  0
  5  7  1  0  0  0  0
  6  7  2  0  0  0  0
  6 11  1  0  0  0  0
  7  8  1  0  0  0  0
  8  9  2  0  0  0  0
 10  9  1  0  0  0  0
 10 16  1  0  0  0  0
 11 10  2  0  0  0  0
 12 14  1  0  0  0  0
 13 12  2  0  0  0  0
 14 18  1  0  0  0  0
 14  6  1  0  0  0  0
 15  8  1  0  0  0  0
 17 12  1  0  0  0  0
 19  2  1  0  0  0  0
 20 26  1  6  0  0  0
 20 21  1  0  0  0  0
 20 19  1  0  0  0  0
 21 27  1  0  0  0  0
 21 28  1  0  0  0  0
 22 29  1  0  0  0  0
 22 21  1  0  0  0  0
 23 24  1  0  0  0  0
 23 22  1  0  0  0  0
 24 31  1  0  0  0  0
 25 33  1  6  0  0  0
 25 24  1  0  0  0  0
 25 20  1  0  0  0  0
 30 22  1  0  0  0  0
 32 24  1  0  0  0  0
 34 25  1  0  0  0  0
 35 34  1  0  0  0  0
M  END
>  <minimizedAffinity>
-5.05573416

$$$$

 OpenBabel03252507143D

 35 36  0  0  1  0  0  0  0  0999 V2000
   38.0910   31.7020   38.7820 O   0  0  0  0  0  0  0  0  0  0  0  0
   37.8460   32.4510   40.0360 P   0  0  1  0  0  0  0  0  0  0  0  0
   36.9730   33.8520   39.6150 O   0  0  0  0  0  0  0  0  0  0  0  0
   36.0760   33.6230   39.2670 H   0  0  0  0  0  0  0  0  0  0  0  0
   36.8380   31.5360   41.0930 O   0  0  0  0  0  0  0  0  0  0  0  0
   36.2170   29.2700   41.2940 C   0  0  0  0  0  0  0  0  0  0  0  0
   37.1670   30.2480   41.4680 C   0  0  0  0  0  0  0  0  0  0  0  0
   38.4240   29.8920   42.0180 C   0  0  0  0  0  0  0  0  0  0  0  0
   38.6080   28.5880   42.3400 N   0  0  0  0  0  0  0  0  0  0  0  0
   37.6720   27.6750   42.1580 C   0  0  0  0  0  0  0  0  0  0  0  0
   36.4720   28.0300   41.6300 N   0  0  0  0  0  0  0  0  0  0  0  0
   34.6200   29.2790   39.3820 C   0  0  0  0  0  0  0  0  0  0  0  0
   35.5220   29.5890   38.5160 O   0  0  0  0  0  0  0  0  0  0  0  0
   34.8900   29.1090   40.8170 N   0  0  0  0  0  0  0  0  0  0  0  0
   39.1440   30.6690   42.1440 H   0  0  0  0  0  0  0  0  0  0  0  0
   37.7960   26.6140   42.4100 H   0  0  0  0  0  0  0  0  0  0  0  0
   33.6170   29.1480   38.9850 H   0  0  0  0  0  0  0  0  0  0  0  0
   34.0400   28.8830   41.3670 H   0  0  0  0  0  0  0  0  0  0  0  0
   39.2260   32.9140   40.8110 O   0  0  0  0  0  0  0  0  0  0  0  0
   40.4120   32.6900   40.2470 C   0  0  2  0  0  0  0  0  0  0  0  0
   41.3540   31.7700   40.9100 C   0  0  0  0  0  0  0  0  0  0  0  0
   42.7430   32.0280   40.3700 C   0  0  0  0  0  0  0  0  0  0  0  0
   43.2520   33.2230   40.8700 O   0  0  0  0  0  0  0  0  0  0  0  0
   42.2400   34.1610   41.0180 C   0  0  0  0  0  0  0  0  0  0  0  0
   41.1790   33.9930   39.9590 C   0  0  1  0  0  0  0  0  0  0  0  0
   40.2170   32.3210   39.2040 H   0  0  0  0  0  0  0  0  0  0  0  0
   41.0880   30.7100   40.6990 H   0  0  0  0  0  0  0  0  0  0  0  0
   41.3900   31.9100   42.0170 H   0  0  0  0  0  0  0  0  0  0  0  0
   43.3680   31.1790   40.7550 H   0  0  0  0  0  0  0  0  0  0  0  0
   42.7580   31.9400   39.2860 H   0  0  0  0  0  0  0  0  0  0  0  0
   41.7460   34.0970   41.9970 H   0  0  0  0  0  0  0  0  0  0  0  0
   42.6920   35.1710   40.8940 H   0  0  0  0  0  0  0  0  0  0  0  0
   40.4460   34.8100   40.1220 H   0  0  0  0  0  0  0  0  0  0  0  0
   41.7960   34.1140   38.2960 S   0  0  0  0  0  0  0  0  0  0  0  0
   42.1100   35.4080   37.8990 H   0  0  0  0  0  0  0  0  0  0  0  0
  2  1  2  6  0  0  0
  2 19  1  0  0  0  0
  2  5  1  0  0  0  0
  3  2  1  0  0  0  0
  4  3  1  0  0  0  0
  5  7  1  0  0  0  0
  6  7  2  0  0  0  0
  6 11  1  0  0  0  0
  7  8  1  0  0  0  0
  8 15  1  0  0  0  0
  8  9  2  0  0  0  0
 10  9  1  0  0  0  0
 10 16  1  0  0  0  0
 11 10  2  0  0  0  0
 12 14  1  0  0  0  0
 13 12  2  0  0  0  0
 14  6  1  0  0  0  0
 14 18  1  0  0  0  0
 17 12  1  0  0  0  0
 20 26  1  6  0  0  0
 20 19  1  0  0  0  0
 20 21  1  0  0  0  0
 21 28  1  0  0  0  0
 22 29  1  0  0  0  0
 22 23  1  0  0  0  0
 22 21  1  0  0  0  0
 23 24  1  0  0  0  0
 24 31  1  0  0  0  0
 25 33  1  1  0  0  0
 25 20  1  0  0  0  0
 25 24  1  0  0  0  0
 27 21  1  0  0  0  0
 30 22  1  0  0  0  0
 32 24  1  0  0  0  0
 34 25  1  0  0  0  0
 35 34  1  0  0  0  0
M  END
>  <minimizedAffinity>
-5.03998518

$$$$

 OpenBabel03252507143D

 35 36  0  0  1  0  0  0  0  0999 V2000
   37.4830   29.2250   43.2250 O   0  0  0  0  0  0  0  0  0  0  0  0
   37.1240   29.1500   41.7900 P   0  0  1  0  0  0  0  0  0  0  0  0
   36.0050   30.3990   41.4930 O   0  0  0  0  0  0  0  0  0  0  0  0
   36.4210   31.2880   41.6120 H   0  0  0  0  0  0  0  0  0  0  0  0
   38.5040   29.4740   40.8100 O   0  0  0  0  0  0  0  0  0  0  0  0
   38.7860   31.0960   39.1210 C   0  0  0  0  0  0  0  0  0  0  0  0
   38.8490   30.7630   40.4530 C   0  0  0  0  0  0  0  0  0  0  0  0
   39.2610   31.7470   41.3870 C   0  0  0  0  0  0  0  0  0  0  0  0
   39.5700   32.9710   40.8940 N   0  0  0  0  0  0  0  0  0  0  0  0
   39.4980   33.2560   39.6070 C   0  0  0  0  0  0  0  0  0  0  0  0
   39.1010   32.3040   38.7230 N   0  0  0  0  0  0  0  0  0  0  0  0
   37.0590   30.1620   37.5870 C   0  0  0  0  0  0  0  0  0  0  0  0
   36.0980   30.3220   38.4310 O   0  0  0  0  0  0  0  0  0  0  0  0
   38.4580   30.5210   37.8660 N   0  0  0  0  0  0  0  0  0  0  0  0
   39.3030   31.4640   42.4150 H   0  0  0  0  0  0  0  0  0  0  0  0
   39.7410   34.2380   39.1840 H   0  0  0  0  0  0  0  0  0  0  0  0
   36.7750   29.7340   36.6310 H   0  0  0  0  0  0  0  0  0  0  0  0
   39.0980   30.3010   37.0800 H   0  0  0  0  0  0  0  0  0  0  0  0
   36.4300   27.7180   41.3550 O   0  0  0  0  0  0  0  0  0  0  0  0
   37.1880   26.7310   40.8800 C   0  0  2  0  0  0  0  0  0  0  0  0
   36.6220   25.8230   39.8650 C   0  0  0  0  0  0  0  0  0  0  0  0
   37.4520   24.5590   39.8300 C   0  0  0  0  0  0  0  0  0  0  0  0
   37.2060   23.7750   40.9530 O   0  0  0  0  0  0  0  0  0  0  0  0
   36.9710   24.5740   42.0630 C   0  0  0  0  0  0  0  0  0  0  0  0
   37.7730   25.8500   41.9990 C   0  0  1  0  0  0  0  0  0  0  0  0
   38.1210   27.2000   40.4670 H   0  0  0  0  0  0  0  0  0  0  0  0
   36.6510   26.2890   38.8550 H   0  0  0  0  0  0  0  0  0  0  0  0
   35.5680   25.5290   40.0870 H   0  0  0  0  0  0  0  0  0  0  0  0
   37.1030   24.0060   38.9190 H   0  0  0  0  0  0  0  0  0  0  0  0
   38.5000   24.7920   39.6520 H   0  0  0  0  0  0  0  0  0  0  0  0
   35.9140   24.8500   42.1680 H   0  0  0  0  0  0  0  0  0  0  0  0
   37.3000   24.0080   42.9650 H   0  0  0  0  0  0  0  0  0  0  0  0
   37.5650   26.3950   42.9440 H   0  0  0  0  0  0  0  0  0  0  0  0
   39.5270   25.5940   41.8730 S   0  0  0  0  0  0  0  0  0  0  0  0
   40.1270   25.1750   43.0540 H   0  0  0  0  0  0  0  0  0  0  0  0
  2  1  2  1  0  0  0
  3  4  1  0  0  0  0
  3  2  1  0  0  0  0
  5  2  1  0  0  0  0
  6  7  1  0  0  0  0
  7  5  1  0  0  0  0
  7  8  2  0  0  0  0
  8 15  1  0  0  0  0
  9  8  1  0  0  0  0
 10  9  2  0  0  0  0
 11  6  2  0  0  0  0
 11 10  1  0  0  0  0
 12 14  1  0  0  0  0
 12 13  2  0  0  0  0
 14  6  1  0  0  0  0
 16 10  1  0  0  0  0
 17 12  1  0  0  0  0
 18 14  1  0  0  0  0
 19  2  1  0  0  0  0
 20 26  1  6  0  0  0
 20 19  1  0  0  0  0
 20 25  1  0  0  0  0
 21 28  1  0  0  0  0
 21 20  1  0  0  0  0
 22 21  1  0  0  0  0
 22 23  1  0  0  0  0
 23 24  1  0  0  0  0
 24 31  1  0  0  0  0
 24 32  1  0  0  0  0
 25 24  1  0  0  0  0
 25 33  1  1  0  0  0
 27 21  1  0  0  0  0
 29 22  1  0  0  0  0
 30 22  1  0  0  0  0
 34 25  1  0  0  0  0
 34 35  1  0  0  0  0
M  END
>  <minimizedAffinity>
-4.84082842

$$$$

 OpenBabel03252507143D

 35 36  0  0  1  0  0  0  0  0999 V2000
   35.1960   29.4020   38.8100 O   0  0  0  0  0  0  0  0  0  0  0  0
   36.3110   29.7030   39.7380 P   0  0  1  0  0  0  0  0  0  0  0  0
   35.6210   30.3810   41.1400 O   0  0  0  0  0  0  0  0  0  0  0  0
   35.0560   29.7230   41.6140 H   0  0  0  0  0  0  0  0  0  0  0  0
   37.0950   28.2470   40.2230 O   0  0  0  0  0  0  0  0  0  0  0  0
   38.2190   28.4610   42.2860 C   0  0  0  0  0  0  0  0  0  0  0  0
   38.2840   28.2670   40.9260 C   0  0  0  0  0  0  0  0  0  0  0  0
   39.5530   28.0970   40.3180 C   0  0  0  0  0  0  0  0  0  0  0  0
   40.6360   28.1390   41.1310 N   0  0  0  0  0  0  0  0  0  0  0  0
   40.5360   28.3280   42.4340 C   0  0  0  0  0  0  0  0  0  0  0  0
   39.3130   28.4880   43.0050 N   0  0  0  0  0  0  0  0  0  0  0  0
   36.3560   27.5710   43.6790 C   0  0  0  0  0  0  0  0  0  0  0  0
   36.3580   26.4190   43.1010 O   0  0  0  0  0  0  0  0  0  0  0  0
   37.2640   28.6680   43.3150 N   0  0  0  0  0  0  0  0  0  0  0  0
   39.5770   27.9490   39.2610 H   0  0  0  0  0  0  0  0  0  0  0  0
   41.3970   28.3650   43.1140 H   0  0  0  0  0  0  0  0  0  0  0  0
   35.6240   27.6940   44.4720 H   0  0  0  0  0  0  0  0  0  0  0  0
   37.1050   29.5290   43.8700 H   0  0  0  0  0  0  0  0  0  0  0  0
   37.4080   30.7730   39.1290 O   0  0  0  0  0  0  0  0  0  0  0  0
   37.8500   31.7740   39.8890 C   0  0  2  0  0  0  0  0  0  0  0  0
   37.4510   33.1530   39.5530 C   0  0  0  0  0  0  0  0  0  0  0  0
   38.4080   34.1120   40.2260 C   0  0  0  0  0  0  0  0  0  0  0  0
   39.6450   34.1050   39.5860 O   0  0  0  0  0  0  0  0  0  0  0  0
   39.9460   32.8330   39.1210 C   0  0  0  0  0  0  0  0  0  0  0  0
   39.3830   31.7690   40.0310 C   0  0  1  0  0  0  0  0  0  0  0  0
   37.5360   31.5530   40.9440 H   0  0  0  0  0  0  0  0  0  0  0  0
   36.4230   33.3700   39.9210 H   0  0  0  0  0  0  0  0  0  0  0  0
   37.4830   33.3590   38.4560 H   0  0  0  0  0  0  0  0  0  0  0  0
   37.9430   35.1250   40.1020 H   0  0  0  0  0  0  0  0  0  0  0  0
   38.4440   33.9310   41.2980 H   0  0  0  0  0  0  0  0  0  0  0  0
   39.5540   32.6490   38.1120 H   0  0  0  0  0  0  0  0  0  0  0  0
   41.0540   32.7260   39.1150 H   0  0  0  0  0  0  0  0  0  0  0  0
   39.7150   30.7960   39.6140 H   0  0  0  0  0  0  0  0  0  0  0  0
   39.9520   31.8840   41.7120 S   0  0  0  0  0  0  0  0  0  0  0  0
   41.2640   31.4690   41.8970 H   0  0  0  0  0  0  0  0  0  0  0  0
  2  1  2  6  0  0  0
  2  5  1  0  0  0  0
  2  3  1  0  0  0  0
  3  4  1  0  0  0  0
  5  7  1  0  0  0  0
  6 11  1  0  0  0  0
  6 14  1  0  0  0  0
  7  6  2  0  0  0  0
  8  7  1  0  0  0  0
  8  9  2  0  0  0  0
  9 10  1  0  0  0  0
 10 11  2  0  0  0  0
 10 16  1  0  0  0  0
 12 17  1  0  0  0  0
 13 12  2  0  0  0  0
 14 12  1  0  0  0  0
 14 18  1  0  0  0  0
 15  8  1  0  0  0  0
 19  2  1  0  0  0  0
 19 20  1  0  0  0  0
 20 25  1  0  0  0  0
 20 26  1  1  0  0  0
 21 20  1  0  0  0  0
 21 27  1  0  0  0  0
 21 22  1  0  0  0  0
 22 30  1  0  0  0  0
 23 22  1  0  0  0  0
 24 23  1  0  0  0  0
 24 25  1  0  0  0  0
 25 33  1  6  0  0  0
 25 34  1  0  0  0  0
 28 21  1  0  0  0  0
 29 22  1  0  0  0  0
 31 24  1  0  0  0  0
 32 24  1  0  0  0  0
 34 35  1  0  0  0  0
M  END
>  <minimizedAffinity>
-4.83351994

$$$$

 OpenBabel03252507143D

 35 36  0  0  1  0  0  0  0  0999 V2000
   36.5530   27.6110   41.7800 O   0  0  0  0  0  0  0  0  0  0  0  0
   37.6540   28.1450   42.6140 P   0  0  1  0  0  0  0  0  0  0  0  0
   36.9630   29.2820   43.6790 O   0  0  0  0  0  0  0  0  0  0  0  0
   36.3420   28.8470   44.3120 H   0  0  0  0  0  0  0  0  0  0  0  0
   38.3270   26.8940   43.5910 O   0  0  0  0  0  0  0  0  0  0  0  0
   39.8820   25.1980   43.0720 C   0  0  0  0  0  0  0  0  0  0  0  0
   39.6420   26.4980   43.4510 C   0  0  0  0  0  0  0  0  0  0  0  0
   40.7450   27.3610   43.6760 C   0  0  0  0  0  0  0  0  0  0  0  0
   41.9820   26.8360   43.5000 N   0  0  0  0  0  0  0  0  0  0  0  0
   42.1740   25.5820   43.1360 C   0  0  0  0  0  0  0  0  0  0  0  0
   41.1090   24.7670   42.9220 N   0  0  0  0  0  0  0  0  0  0  0  0
   38.3910   23.9640   41.5050 C   0  0  0  0  0  0  0  0  0  0  0  0
   38.2790   24.9560   40.6910 O   0  0  0  0  0  0  0  0  0  0  0  0
   39.1800   24.0090   42.7450 N   0  0  0  0  0  0  0  0  0  0  0  0
   40.5330   28.3650   43.9700 H   0  0  0  0  0  0  0  0  0  0  0  0
   43.1650   25.1340   42.9860 H   0  0  0  0  0  0  0  0  0  0  0  0
   37.8550   23.0630   41.2200 H   0  0  0  0  0  0  0  0  0  0  0  0
   39.1370   23.1260   43.2870 H   0  0  0  0  0  0  0  0  0  0  0  0
   38.8360   28.8990   41.7460 O   0  0  0  0  0  0  0  0  0  0  0  0
   38.5330   29.5080   40.6010 C   0  0  2  0  0  0  0  0  0  0  0  0
   39.0000   28.9160   39.3340 C   0  0  0  0  0  0  0  0  0  0  0  0
   38.9530   29.9780   38.2580 C   0  0  0  0  0  0  0  0  0  0  0  0
   39.9780   30.9030   38.4310 O   0  0  0  0  0  0  0  0  0  0  0  0
   40.2240   31.1110   39.7810 C   0  0  0  0  0  0  0  0  0  0  0  0
   38.9590   30.9870   40.5940 C   0  0  1  0  0  0  0  0  0  0  0  0
   37.4150   29.6060   40.5650 H   0  0  0  0  0  0  0  0  0  0  0  0
   38.3420   28.0740   39.0230 H   0  0  0  0  0  0  0  0  0  0  0  0
   40.0500   28.5410   39.3920 H   0  0  0  0  0  0  0  0  0  0  0  0
   39.1220   29.4260   37.2960 H   0  0  0  0  0  0  0  0  0  0  0  0
   37.9550   30.4060   38.1820 H   0  0  0  0  0  0  0  0  0  0  0  0
   40.9540   30.4000   40.1910 H   0  0  0  0  0  0  0  0  0  0  0  0
   40.6080   32.1490   39.9010 H   0  0  0  0  0  0  0  0  0  0  0  0
   39.2400   31.2190   41.6420 H   0  0  0  0  0  0  0  0  0  0  0  0
   37.6710   32.1060   40.0950 S   0  0  0  0  0  0  0  0  0  0  0  0
   37.8870   33.4260   40.4730 H   0  0  0  0  0  0  0  0  0  0  0  0
  2  1  2  6  0  0  0
  2  5  1  0  0  0  0
  2  3  1  0  0  0  0
  3  4  1  0  0  0  0
  6  7  1  0  0  0  0
  7  5  1  0  0  0  0
  7  8  2  0  0  0  0
  8 15  1  0  0  0  0
  9  8  1  0  0  0  0
 10  9  2  0  0  0  0
 11  6  2  0  0  0  0
 11 10  1  0  0  0  0
 12 14  1  0  0  0  0
 13 12  2  0  0  0  0
 14  6  1  0  0  0  0
 14 18  1  0  0  0  0
 16 10  1  0  0  0  0
 17 12  1  0  0  0  0
 19  2  1  0  0  0  0
 20 26  1  6  0  0  0
 20 19  1  0  0  0  0
 21 28  1  0  0  0  0
 21 20  1  0  0  0  0
 22 23  1  0  0  0  0
 22 21  1  0  0  0  0
 23 24  1  0  0  0  0
 24 32  1  0  0  0  0
 24 31  1  0  0  0  0
 24 25  1  0  0  0  0
 25 20  1  0  0  0  0
 25 33  1  1  0  0  0
 27 21  1  0  0  0  0
 29 22  1  0  0  0  0
 30 22  1  0  0  0  0
 34 35  1  0  0  0  0
 34 25  1  0  0  0  0
M  END
>  <minimizedAffinity>
-4.82341051

$$$$

 OpenBabel03252507143D

 35 36  0  0  1  0  0  0  0  0999 V2000
   39.2010   28.2470   43.3060 O   0  0  0  0  0  0  0  0  0  0  0  0
   38.0520   28.3360   42.3760 P   0  0  1  0  0  0  0  0  0  0  0  0
   36.9190   29.3910   43.0850 O   0  0  0  0  0  0  0  0  0  0  0  0
   37.2770   30.3100   43.1480 H   0  0  0  0  0  0  0  0  0  0  0  0
   38.5410   29.0580   40.8890 O   0  0  0  0  0  0  0  0  0  0  0  0
   37.2360   30.5940   39.6620 C   0  0  0  0  0  0  0  0  0  0  0  0
   38.2300   30.3690   40.5860 C   0  0  0  0  0  0  0  0  0  0  0  0
   38.8790   31.4820   41.1780 C   0  0  0  0  0  0  0  0  0  0  0  0
   38.4700   32.7130   40.7860 N   0  0  0  0  0  0  0  0  0  0  0  0
   37.5120   32.8910   39.8950 C   0  0  0  0  0  0  0  0  0  0  0  0
   36.8970   31.8160   39.3370 N   0  0  0  0  0  0  0  0  0  0  0  0
   35.2420   29.1160   39.4550 C   0  0  0  0  0  0  0  0  0  0  0  0
   35.0570   29.0400   40.7280 O   0  0  0  0  0  0  0  0  0  0  0  0
   36.3350   29.8780   38.8330 N   0  0  0  0  0  0  0  0  0  0  0  0
   39.6470   31.2820   41.8920 H   0  0  0  0  0  0  0  0  0  0  0  0
   37.1620   33.8760   39.5630 H   0  0  0  0  0  0  0  0  0  0  0  0
   34.5270   28.5700   38.8450 H   0  0  0  0  0  0  0  0  0  0  0  0
   36.3420   29.8070   37.7980 H   0  0  0  0  0  0  0  0  0  0  0  0
   37.3110   26.8890   42.0980 O   0  0  0  0  0  0  0  0  0  0  0  0
   37.7100   26.1240   41.0830 C   0  0  2  0  0  0  0  0  0  0  0  0
   36.8380   25.0200   40.6390 C   0  0  0  0  0  0  0  0  0  0  0  0
   37.6670   24.0430   39.8350 C   0  0  0  0  0  0  0  0  0  0  0  0
   38.5060   23.3070   40.6670 O   0  0  0  0  0  0  0  0  0  0  0  0
   38.9510   24.0870   41.7250 C   0  0  0  0  0  0  0  0  0  0  0  0
   39.1110   25.5290   41.3120 C   0  0  1  0  0  0  0  0  0  0  0  0
   37.9050   26.8040   40.2120 H   0  0  0  0  0  0  0  0  0  0  0  0
   36.0180   25.3990   39.9890 H   0  0  0  0  0  0  0  0  0  0  0  0
   36.3830   24.4570   41.4890 H   0  0  0  0  0  0  0  0  0  0  0  0
   36.9230   23.3470   39.3640 H   0  0  0  0  0  0  0  0  0  0  0  0
   38.1650   24.5470   39.0100 H   0  0  0  0  0  0  0  0  0  0  0  0
   38.2680   24.0600   42.5850 H   0  0  0  0  0  0  0  0  0  0  0  0
   39.9510   23.7050   42.0320 H   0  0  0  0  0  0  0  0  0  0  0  0
   39.5170   26.0620   42.1970 H   0  0  0  0  0  0  0  0  0  0  0  0
   40.2280   25.7690   39.9500 S   0  0  0  0  0  0  0  0  0  0  0  0
   41.5690   25.6260   40.2830 H   0  0  0  0  0  0  0  0  0  0  0  0
  2  3  1  0  0  0  0
  2  1  2  1  0  0  0
  3  4  1  0  0  0  0
  5  2  1  0  0  0  0
  6  7  1  0  0  0  0
  7  5  1  0  0  0  0
  7  8  2  0  0  0  0
  8 15  1  0  0  0  0
  9  8  1  0  0  0  0
 10  9  2  0  0  0  0
 11  6  2  0  0  0  0
 11 10  1  0  0  0  0
 12 13  2  0  0  0  0
 14 12  1  0  0  0  0
 14  6  1  0  0  0  0
 16 10  1  0  0  0  0
 17 12  1  0  0  0  0
 18 14  1  0  0  0  0
 19  2  1  0  0  0  0
 20 26  1  6  0  0  0
 20 25  1  0  0  0  0
 20 19  1  0  0  0  0
 21 20  1  0  0  0  0
 21 28  1  0  0  0  0
 22 21  1  0  0  0  0
 22 23  1  0  0  0  0
 23 24  1  0  0  0  0
 24 32  1  0  0  0  0
 24 31  1  0  0  0  0
 25 24  1  0  0  0  0
 25 33  1  1  0  0  0
 27 21  1  0  0  0  0
 29 22  1  0  0  0  0
 30 22  1  0  0  0  0
 34 35  1  0  0  0  0
 34 25  1  0  0  0  0
M  END
>  <minimizedAffinity>
-4.80311346

$$$$

 OpenBabel03252507143D

 35 36  0  0  1  0  0  0  0  0999 V2000
   39.8070   30.4150   39.0220 O   0  0  0  0  0  0  0  0  0  0  0  0
   39.3150   31.7790   39.3210 P   0  0  1  0  0  0  0  0  0  0  0  0
   38.4650   32.3140   37.9450 O   0  0  0  0  0  0  0  0  0  0  0  0
   37.6540   31.7700   37.7930 H   0  0  0  0  0  0  0  0  0  0  0  0
   38.1820   31.7360   40.6200 O   0  0  0  0  0  0  0  0  0  0  0  0
   36.9290   29.9750   41.5640 C   0  0  0  0  0  0  0  0  0  0  0  0
   38.1170   30.6620   41.4850 C   0  0  0  0  0  0  0  0  0  0  0  0
   39.2070   30.2400   42.2880 C   0  0  0  0  0  0  0  0  0  0  0  0
   39.0000   29.1690   43.0920 N   0  0  0  0  0  0  0  0  0  0  0  0
   37.8440   28.5330   43.1410 C   0  0  0  0  0  0  0  0  0  0  0  0
   36.8080   28.9470   42.3670 N   0  0  0  0  0  0  0  0  0  0  0  0
   35.4410   29.6440   39.5940 C   0  0  0  0  0  0  0  0  0  0  0  0
   36.4120   29.3430   38.8010 O   0  0  0  0  0  0  0  0  0  0  0  0
   35.6210   29.9880   41.0120 N   0  0  0  0  0  0  0  0  0  0  0  0
   40.1180   30.7900   42.2090 H   0  0  0  0  0  0  0  0  0  0  0  0
   37.6530   27.6630   43.7830 H   0  0  0  0  0  0  0  0  0  0  0  0
   34.4510   29.6300   39.1460 H   0  0  0  0  0  0  0  0  0  0  0  0
   34.7320   30.2240   41.4890 H   0  0  0  0  0  0  0  0  0  0  0  0
   40.5170   32.8620   39.6410 O   0  0  0  0  0  0  0  0  0  0  0  0
   41.7520   32.6330   39.1970 C   0  0  2  0  0  0  0  0  0  0  0  0
   42.8770   33.3590   39.8140 C   0  0  0  0  0  0  0  0  0  0  0  0
   44.0630   33.3010   38.8760 C   0  0  0  0  0  0  0  0  0  0  0  0
   43.8680   34.1370   37.7810 O   0  0  0  0  0  0  0  0  0  0  0  0
   42.5300   34.1550   37.4140 C   0  0  0  0  0  0  0  0  0  0  0  0
   41.8720   32.8230   37.6740 C   0  0  1  0  0  0  0  0  0  0  0  0
   41.9380   31.5290   39.2910 H   0  0  0  0  0  0  0  0  0  0  0  0
   43.1710   32.8890   40.7790 H   0  0  0  0  0  0  0  0  0  0  0  0
   42.6480   34.4360   40.0010 H   0  0  0  0  0  0  0  0  0  0  0  0
   44.9280   33.6870   39.4770 H   0  0  0  0  0  0  0  0  0  0  0  0
   44.3090   32.2700   38.6300 H   0  0  0  0  0  0  0  0  0  0  0  0
   41.9550   34.9210   37.9530 H   0  0  0  0  0  0  0  0  0  0  0  0
   42.4800   34.3550   36.3190 H   0  0  0  0  0  0  0  0  0  0  0  0
   40.8290   32.9140   37.3040 H   0  0  0  0  0  0  0  0  0  0  0  0
   42.6480   31.4610   36.8360 S   0  0  0  0  0  0  0  0  0  0  0  0
   42.3970   31.4160   35.4700 H   0  0  0  0  0  0  0  0  0  0  0  0
  2  1  2  6  0  0  0
  2 19  1  0  0  0  0
  2  5  1  0  0  0  0
  3  2  1  0  0  0  0
  4  3  1  0  0  0  0
  5  7  1  0  0  0  0
  6 11  1  0  0  0  0
  7  6  2  0  0  0  0
  7  8  1  0  0  0  0
  8  9  2  0  0  0  0
  9 10  1  0  0  0  0
 10 16  1  0  0  0  0
 11 10  2  0  0  0  0
 12 14  1  0  0  0  0
 13 12  2  0  0  0  0
 14 18  1  0  0  0  0
 14  6  1  0  0  0  0
 15  8  1  0  0  0  0
 17 12  1  0  0  0  0
 20 26  1  1  0  0  0
 20 19  1  0  0  0  0
 20 21  1  0  0  0  0
 21 28  1  0  0  0  0
 21 27  1  0  0  0  0
 22 29  1  0  0  0  0
 22 21  1  0  0  0  0
 23 22  1  0  0  0  0
 24 25  1  0  0  0  0
 24 23  1  0  0  0  0
 24 31  1  0  0  0  0
 25 33  1  6  0  0  0
 25 20  1  0  0  0  0
 30 22  1  0  0  0  0
 32 24  1  0  0  0  0
 34 25  1  0  0  0  0
 35 34  1  0  0  0  0
M  END
>  <minimizedAffinity>
-4.80197001

$$$$
