
     RDKit          3D

 36 37  0  0  0  0  0  0  0  0999 V2000
   46.6566   34.8990   42.0449 C   0  0  0  0  0  0  0  0  0  0  0  0
   45.1859   34.9000   41.8047 C   0  0  0  0  0  0  0  0  0  0  0  0
   44.3144   35.5301   42.7310 C   0  0  0  0  0  0  0  0  0  0  0  0
   42.6572   35.2687   42.0147 S   0  0  0  0  0  0  0  0  0  0  0  0
   43.4162   34.3244   40.5366 C   0  0  0  0  0  0  0  0  0  0  0  0
   44.5304   34.3753   40.8062 N   0  0  0  0  0  0  0  0  0  0  0  0
   42.6548   33.7923   39.5081 O   0  0  0  0  0  0  0  0  0  0  0  0
   40.6938   34.1268   37.7563 O   0  0  0  0  0  0  0  0  0  0  0  0
   41.7390   34.8798   38.5691 P   0  0  0  0  0  0  0  0  0  0  0  0
   40.9498   35.9533   39.6287 O   0  0  0  0  0  0  0  0  0  0  0  0
   42.7617   35.7919   37.5804 O   0  0  0  0  0  0  0  0  0  0  0  0
   47.4561   34.5622   40.8246 C   0  0  0  0  0  0  0  0  0  0  0  0
   48.7008   33.8442   41.1290 C   0  0  0  0  0  0  0  0  0  0  0  0
   49.0331   32.7781   40.2924 C   0  0  0  0  0  0  0  0  0  0  0  0
   50.1816   32.0385   40.4925 C   0  0  0  0  0  0  0  0  0  0  0  0
   50.9824   32.3985   41.5512 N   0  0  0  0  0  0  0  0  0  0  0  0
   50.6176   33.4550   42.3501 C   0  0  0  0  0  0  0  0  0  0  0  0
   49.5080   34.1417   42.1276 N   0  0  0  0  0  0  0  0  0  0  0  0
   47.9550   32.3479   38.9245 S   0  0  0  0  0  0  0  0  0  0  0  0
   48.6117   32.9817   37.3727 C   0  0  0  0  0  0  0  0  0  0  0  0
   48.2990   34.4517   37.2838 C   0  0  0  0  0  0  0  0  0  0  0  0
   46.9772   34.2398   42.8491 H   0  0  0  0  0  0  0  0  0  0  0  0
   46.9352   35.9604   42.3076 H   0  0  0  0  0  0  0  0  0  0  0  0
   44.5537   36.0481   43.6498 H   0  0  0  0  0  0  0  0  0  0  0  0
   40.5940   35.4397   40.3849 H   0  0  0  0  0  0  0  0  0  0  0  0
   43.2882   35.2477   36.9730 H   0  0  0  0  0  0  0  0  0  0  0  0
   46.7841   33.9739   40.1689 H   0  0  0  0  0  0  0  0  0  0  0  0
   47.7285   35.4730   40.2163 H   0  0  0  0  0  0  0  0  0  0  0  0
   50.4639   31.2077   39.8604 H   0  0  0  0  0  0  0  0  0  0  0  0
   51.2647   33.7266   43.1853 H   0  0  0  0  0  0  0  0  0  0  0  0
   48.1105   32.5000   36.5231 H   0  0  0  0  0  0  0  0  0  0  0  0
   49.7053   32.8334   37.2766 H   0  0  0  0  0  0  0  0  0  0  0  0
   48.8366   34.9546   38.1362 H   0  0  0  0  0  0  0  0  0  0  0  0
   47.2310   34.6530   37.4270 H   0  0  0  0  0  0  0  0  0  0  0  0
   48.9372   35.1499   35.7373 S   0  0  0  0  0  0  0  0  0  0  0  0
   49.6077   34.1438   35.0155 H   0  0  0  0  0  0  0  0  0  0  0  0
  2  1  1  0
  2  3  2  0
  4  3  1  0
  5  6  2  0
  5  4  1  0
  6  2  1  0
  7  5  1  0
  8  9  2  0
  9  7  1  0
  9 10  1  0
 11  9  1  0
 12 13  1  0
 12  1  1  0
 13 18  2  0
 14 15  2  0
 14 13  1  0
 15 16  1  0
 16 17  2  0
 18 17  1  0
 19 14  1  0
 20 19  1  0
 21 20  1  0
  1 22  1  0
  1 23  1  0
  3 24  1  0
 10 25  1  0
 11 26  1  0
 12 27  1  0
 12 28  1  0
 15 29  1  0
 17 30  1  0
 20 31  1  0
 20 32  1  0
 21 33  1  0
 21 34  1  0
 35 36  1  0
 21 35  1  0
M  ISO  8  22   8  23   8  24  14  25   3  26   3  27   8  28   8  29  14
M  ISO  6  30  14  31   8  32   8  33   8  34   8  36  11
M  END
>  <DihAtoms>  (1) 
19,20,34,35

>  <DihDeg>  (1) 
88.23662850698707

$$$$
