
 OpenBabel03252507483D

 36 37  0  0  0  0  0  0  0  0999 V2000
   47.1930   34.4300   40.8630 C   0  0  0  0  0  0  0  0  0  0  0  0
   46.5790   33.6160   40.4300 H   0  0  0  0  0  0  0  0  0  0  0  0
   47.3510   35.1560   40.0130 H   0  0  0  0  0  0  0  0  0  0  0  0
   48.5160   33.9560   41.2930 C   0  0  0  0  0  0  0  0  0  0  0  0
   48.9540   32.7440   40.7590 C   0  0  0  0  0  0  0  0  0  0  0  0
   50.1820   32.2100   41.0990 C   0  0  0  0  0  0  0  0  0  0  0  0
   50.9510   32.9260   41.9860 N   0  0  0  0  0  0  0  0  0  0  0  0
   50.4810   34.1150   42.4880 C   0  0  0  0  0  0  0  0  0  0  0  0
   49.2980   34.5960   42.1390 N   0  0  0  0  0  0  0  0  0  0  0  0
   50.5470   31.2740   40.7000 H   0  0  0  0  0  0  0  0  0  0  0  0
   51.1050   34.6700   43.1900 H   0  0  0  0  0  0  0  0  0  0  0  0
   47.9120   31.8480   39.6060 S   0  0  0  0  0  0  0  0  0  0  0  0
   48.7140   31.7090   38.0000 C   0  0  0  0  0  0  0  0  0  0  0  0
   48.2290   30.9290   37.3990 H   0  0  0  0  0  0  0  0  0  0  0  0
   49.7950   31.4810   38.0780 H   0  0  0  0  0  0  0  0  0  0  0  0
   48.5300   33.0060   37.2570 C   0  0  0  0  0  0  0  0  0  0  0  0
   49.4330   33.6420   37.4770 H   0  0  0  0  0  0  0  0  0  0  0  0
   47.6590   33.5650   37.6180 H   0  0  0  0  0  0  0  0  0  0  0  0
   48.4790   32.7170   35.4680 S   0  0  0  0  0  0  0  0  0  0  0  0
   47.9830   31.4240   35.2200 H   0  0  0  0  0  0  0  0  0  0  0  0
   46.3840   35.0130   41.9800 C   0  0  0  0  0  0  0  0  0  0  0  0
   46.7020   34.5410   42.9070 H   0  0  0  0  0  0  0  0  0  0  0  0
   46.6550   36.1070   42.0130 H   0  0  0  0  0  0  0  0  0  0  0  0
   44.9150   34.9530   41.7370 C   0  0  0  0  0  0  0  0  0  0  0  0
   44.0120   35.4570   42.7090 C   0  0  0  0  0  0  0  0  0  0  0  0
   42.3700   35.1660   41.9700 S   0  0  0  0  0  0  0  0  0  0  0  0
   43.1760   34.3880   40.4220 C   0  0  0  0  0  0  0  0  0  0  0  0
   44.2870   34.4770   40.6970 N   0  0  0  0  0  0  0  0  0  0  0  0
   44.2250   35.9100   43.6680 H   0  0  0  0  0  0  0  0  0  0  0  0
   42.4430   33.9020   39.3510 O   0  0  0  0  0  0  0  0  0  0  0  0
   40.4700   34.3180   37.6310 O   0  0  0  0  0  0  0  0  0  0  0  0
   41.5460   35.0290   38.4400 P   0  0  0  0  0  0  0  0  0  0  0  0
   40.8020   36.1080   39.5260 O   0  0  0  0  0  0  0  0  0  0  0  0
   40.4420   35.5940   40.2800 H   0  0  0  0  0  0  0  0  0  0  0  0
   42.5810   35.9260   37.4510 O   0  0  0  0  0  0  0  0  0  0  0  0
   43.0840   35.3770   36.8290 H   0  0  0  0  0  0  0  0  0  0  0  0
  1  4  1  0  0  0  0
  1 21  1  0  0  0  0
  2  1  1  0  0  0  0
  3  1  1  0  0  0  0
  4  9  1  0  0  0  0
  5  6  1  0  0  0  0
  5  4  2  0  0  0  0
  6  7  2  0  0  0  0
  7  8  1  0  0  0  0
  8 11  1  0  0  0  0
  9  8  2  0  0  0  0
 10  6  1  0  0  0  0
 12  5  1  0  0  0  0
 13 15  1  0  0  0  0
 13 12  1  0  0  0  0
 14 13  1  0  0  0  0
 16 17  1  0  0  0  0
 16 18  1  0  0  0  0
 16 13  1  0  0  0  0
 19 16  1  0  0  0  0
 20 19  1  0  0  0  0
 21 23  1  0  0  0  0
 21 22  1  0  0  0  0
 24 21  1  0  0  0  0
 24 25  2  0  0  0  0
 25 29  1  0  0  0  0
 26 25  1  0  0  0  0
 27 28  2  0  0  0  0
 27 26  1  0  0  0  0
 28 24  1  0  0  0  0
 30 27  1  0  0  0  0
 31 32  2  0  0  0  0
 32 30  1  0  0  0  0
 32 33  1  0  0  0  0
 33 34  1  0  0  0  0
 35 32  1  0  0  0  0
 36 35  1  0  0  0  0
M  END
>  <minimizedAffinity>
-4.41612625

>  <minimizedRMSD>
0.796756983

$$$$
