
 OpenBabel03242514583D

 18 18  0  0  0  0  0  0  0  0999 V2000
   37.0920   29.4970   41.7740 C   0  0  0  0  0  0  0  0  0  0  0  0
   36.3990   28.2680   41.7950 C   0  0  0  0  0  0  0  0  0  0  0  0
   36.9490   27.2230   42.5360 C   0  0  0  0  0  0  0  0  0  0  0  0
   38.1130   27.4610   43.1860 N   0  0  0  0  0  0  0  0  0  0  0  0
   38.7580   28.6390   43.1540 C   0  0  0  0  0  0  0  0  0  0  0  0
   38.2610   29.6600   42.4550 N   0  0  0  0  0  0  0  0  0  0  0  0
   35.4710   28.1390   41.2550 H   0  0  0  0  0  0  0  0  0  0  0  0
   36.4660   26.2650   42.5890 H   0  0  0  0  0  0  0  0  0  0  0  0
   39.6780   28.7390   43.6980 H   0  0  0  0  0  0  0  0  0  0  0  0
   36.3060   30.8000   40.7960 S   0  0  0  0  0  0  0  0  0  0  0  0
   36.7430   30.7320   39.0790 C   0  0  0  0  0  0  0  0  0  0  0  0
   37.4310   29.8960   38.8250 H   0  0  0  0  0  0  0  0  0  0  0  0
   35.8200   30.5200   38.4840 H   0  0  0  0  0  0  0  0  0  0  0  0
   37.3000   32.0110   38.5240 C   0  0  0  0  0  0  0  0  0  0  0  0
   36.6270   32.4330   37.7640 H   0  0  0  0  0  0  0  0  0  0  0  0
   38.2760   31.7420   38.0430 H   0  0  0  0  0  0  0  0  0  0  0  0
   37.7110   33.1560   39.8650 S   0  0  0  0  0  0  0  0  0  0  0  0
   37.2880   34.4730   39.5390 H   0  0  0  0  0  0  0  0  0  0  0  0
  1  2  2  0  0  0  0
  1  6  1  0  0  0  0
  2  3  1  0  0  0  0
  3  8  1  0  0  0  0
  3  4  2  0  0  0  0
  5  4  1  0  0  0  0
  5  9  1  0  0  0  0
  6  5  2  0  0  0  0
  7  2  1  0  0  0  0
 10  1  1  0  0  0  0
 11 10  1  0  0  0  0
 12 11  1  0  0  0  0
 13 11  1  0  0  0  0
 14 11  1  0  0  0  0
 14 17  1  0  0  0  0
 15 14  1  0  0  0  0
 16 14  1  0  0  0  0
 18 17  1  0  0  0  0
M  END
>  <minimizedAffinity>
-3.06366301

$$$$

 OpenBabel03242514583D

 18 18  0  0  0  0  0  0  0  0999 V2000
   38.2630   26.9560   43.0840 C   0  0  0  0  0  0  0  0  0  0  0  0
   39.5050   26.6510   43.6790 C   0  0  0  0  0  0  0  0  0  0  0  0
   40.0100   25.3630   43.5090 C   0  0  0  0  0  0  0  0  0  0  0  0
   39.2710   24.4920   42.7820 N   0  0  0  0  0  0  0  0  0  0  0  0
   38.0900   24.8020   42.2220 C   0  0  0  0  0  0  0  0  0  0  0  0
   37.5770   26.0240   42.3650 N   0  0  0  0  0  0  0  0  0  0  0  0
   40.0490   27.3910   44.2500 H   0  0  0  0  0  0  0  0  0  0  0  0
   40.9510   25.0730   43.9400 H   0  0  0  0  0  0  0  0  0  0  0  0
   37.5700   24.0470   41.6620 H   0  0  0  0  0  0  0  0  0  0  0  0
   37.6850   28.6490   43.3470 S   0  0  0  0  0  0  0  0  0  0  0  0
   37.9160   29.6860   41.9270 C   0  0  0  0  0  0  0  0  0  0  0  0
   38.6480   30.5070   42.0880 H   0  0  0  0  0  0  0  0  0  0  0  0
   38.3640   29.0720   41.1070 H   0  0  0  0  0  0  0  0  0  0  0  0
   36.6500   30.2600   41.3600 C   0  0  0  0  0  0  0  0  0  0  0  0
   36.8720   31.0750   40.6560 H   0  0  0  0  0  0  0  0  0  0  0  0
   36.0790   30.6720   42.2310 H   0  0  0  0  0  0  0  0  0  0  0  0
   35.6140   28.9470   40.6690 S   0  0  0  0  0  0  0  0  0  0  0  0
   35.0680   29.3510   39.4200 H   0  0  0  0  0  0  0  0  0  0  0  0
  1 10  1  0  0  0  0
  1  2  1  0  0  0  0
  2  7  1  0  0  0  0
  3  2  2  0  0  0  0
  3  8  1  0  0  0  0
  4  3  1  0  0  0  0
  5  6  1  0  0  0  0
  5  4  2  0  0  0  0
  6  1  2  0  0  0  0
  9  5  1  0  0  0  0
 11 12  1  0  0  0  0
 11 10  1  0  0  0  0
 13 11  1  0  0  0  0
 14 11  1  0  0  0  0
 14 16  1  0  0  0  0
 15 14  1  0  0  0  0
 17 14  1  0  0  0  0
 18 17  1  0  0  0  0
M  END
>  <minimizedAffinity>
-3.02819061

$$$$

 OpenBabel03242514583D

 18 18  0  0  0  0  0  0  0  0999 V2000
   37.0100   29.3780   41.8190 C   0  0  0  0  0  0  0  0  0  0  0  0
   38.3080   29.7280   42.2470 C   0  0  0  0  0  0  0  0  0  0  0  0
   39.0040   28.8090   43.0300 C   0  0  0  0  0  0  0  0  0  0  0  0
   38.3850   27.6400   43.3240 N   0  0  0  0  0  0  0  0  0  0  0  0
   37.1480   27.3260   42.9050 C   0  0  0  0  0  0  0  0  0  0  0  0
   36.4530   28.1820   42.1560 N   0  0  0  0  0  0  0  0  0  0  0  0
   38.7490   30.6780   41.9790 H   0  0  0  0  0  0  0  0  0  0  0  0
   39.9960   29.0190   43.3860 H   0  0  0  0  0  0  0  0  0  0  0  0
   36.7330   26.3760   43.1870 H   0  0  0  0  0  0  0  0  0  0  0  0
   36.1800   30.6240   40.8030 S   0  0  0  0  0  0  0  0  0  0  0  0
   37.2740   31.4170   39.6540 C   0  0  0  0  0  0  0  0  0  0  0  0
   38.2920   30.9710   39.6250 H   0  0  0  0  0  0  0  0  0  0  0  0
   36.8760   31.2650   38.6200 H   0  0  0  0  0  0  0  0  0  0  0  0
   37.3930   32.9030   39.8280 C   0  0  0  0  0  0  0  0  0  0  0  0
   36.4880   33.3160   40.2960 H   0  0  0  0  0  0  0  0  0  0  0  0
   37.5010   33.3290   38.7970 H   0  0  0  0  0  0  0  0  0  0  0  0
   38.9270   33.3180   40.6940 S   0  0  0  0  0  0  0  0  0  0  0  0
   38.6900   34.3190   41.6740 H   0  0  0  0  0  0  0  0  0  0  0  0
  1  6  2  0  0  0  0
  1  2  1  0  0  0  0
  2  3  2  0  0  0  0
  3  4  1  0  0  0  0
  3  8  1  0  0  0  0
  5  9  1  0  0  0  0
  5  4  2  0  0  0  0
  6  5  1  0  0  0  0
  7  2  1  0  0  0  0
 10  1  1  0  0  0  0
 11 14  1  0  0  0  0
 11 10  1  0  0  0  0
 12 11  1  0  0  0  0
 13 11  1  0  0  0  0
 14 15  1  0  0  0  0
 14 17  1  0  0  0  0
 16 14  1  0  0  0  0
 17 18  1  0  0  0  0
M  END
>  <minimizedAffinity>
-2.97043014

$$$$

 OpenBabel03242514583D

 18 18  0  0  0  0  0  0  0  0999 V2000
   38.2710   26.7270   43.0040 C   0  0  0  0  0  0  0  0  0  0  0  0
   37.7280   25.6370   42.2920 C   0  0  0  0  0  0  0  0  0  0  0  0
   38.4380   24.4380   42.2980 C   0  0  0  0  0  0  0  0  0  0  0  0
   39.6020   24.4020   42.9890 N   0  0  0  0  0  0  0  0  0  0  0  0
   40.1030   25.4510   43.6620 C   0  0  0  0  0  0  0  0  0  0  0  0
   39.4510   26.6140   43.6770 N   0  0  0  0  0  0  0  0  0  0  0  0
   36.7920   25.7270   41.7580 H   0  0  0  0  0  0  0  0  0  0  0  0
   38.0740   23.5730   41.7730 H   0  0  0  0  0  0  0  0  0  0  0  0
   41.0340   25.3340   44.1820 H   0  0  0  0  0  0  0  0  0  0  0  0
   37.2840   28.2420   42.9500 S   0  0  0  0  0  0  0  0  0  0  0  0
   36.2800   28.3600   41.4930 C   0  0  0  0  0  0  0  0  0  0  0  0
   36.0100   27.3740   41.0560 H   0  0  0  0  0  0  0  0  0  0  0  0
   35.2990   28.8170   41.7720 H   0  0  0  0  0  0  0  0  0  0  0  0
   36.8450   29.2380   40.4140 C   0  0  0  0  0  0  0  0  0  0  0  0
   36.5100   28.9030   39.4230 H   0  0  0  0  0  0  0  0  0  0  0  0
   37.9590   29.1330   40.4810 H   0  0  0  0  0  0  0  0  0  0  0  0
   36.4930   30.9780   40.7650 S   0  0  0  0  0  0  0  0  0  0  0  0
   36.0800   31.6490   39.5830 H   0  0  0  0  0  0  0  0  0  0  0  0
  1  6  1  0  0  0  0
  2  3  1  0  0  0  0
  2  1  2  0  0  0  0
  3  4  2  0  0  0  0
  4  5  1  0  0  0  0
  5  6  2  0  0  0  0
  5  9  1  0  0  0  0
  7  2  1  0  0  0  0
  8  3  1  0  0  0  0
 10  1  1  0  0  0  0
 11 13  1  0  0  0  0
 11 10  1  0  0  0  0
 12 11  1  0  0  0  0
 14 16  1  0  0  0  0
 14 17  1  0  0  0  0
 14 11  1  0  0  0  0
 15 14  1  0  0  0  0
 18 17  1  0  0  0  0
M  END
>  <minimizedAffinity>
-2.90017724

$$$$

 OpenBabel03242514583D

 18 18  0  0  0  0  0  0  0  0999 V2000
   37.8700   31.2350   40.9400 C   0  0  0  0  0  0  0  0  0  0  0  0
   36.9630   31.8070   40.0240 C   0  0  0  0  0  0  0  0  0  0  0  0
   37.2820   33.0530   39.4850 C   0  0  0  0  0  0  0  0  0  0  0  0
   38.4440   33.6270   39.8790 N   0  0  0  0  0  0  0  0  0  0  0  0
   39.2950   33.0650   40.7530 C   0  0  0  0  0  0  0  0  0  0  0  0
   39.0220   31.8750   41.2880 N   0  0  0  0  0  0  0  0  0  0  0  0
   36.0490   31.2990   39.7480 H   0  0  0  0  0  0  0  0  0  0  0  0
   36.6300   33.5380   38.7830 H   0  0  0  0  0  0  0  0  0  0  0  0
   40.1950   33.5920   41.0100 H   0  0  0  0  0  0  0  0  0  0  0  0
   37.3840   29.6170   41.5860 S   0  0  0  0  0  0  0  0  0  0  0  0
   38.2050   29.2040   43.1020 C   0  0  0  0  0  0  0  0  0  0  0  0
   39.2630   29.5430   43.1450 H   0  0  0  0  0  0  0  0  0  0  0  0
   37.7050   29.7510   43.9390 H   0  0  0  0  0  0  0  0  0  0  0  0
   38.1400   27.7500   43.4720 C   0  0  0  0  0  0  0  0  0  0  0  0
   37.7490   27.6230   44.4920 H   0  0  0  0  0  0  0  0  0  0  0  0
   39.1940   27.3720   43.4330 H   0  0  0  0  0  0  0  0  0  0  0  0
   37.2350   26.8160   42.2130 S   0  0  0  0  0  0  0  0  0  0  0  0
   36.3480   25.8890   42.8240 H   0  0  0  0  0  0  0  0  0  0  0  0
  1  6  1  0  0  0  0
  1 10  1  0  0  0  0
  2  1  2  0  0  0  0
  3  4  2  0  0  0  0
  3  2  1  0  0  0  0
  4  5  1  0  0  0  0
  5  9  1  0  0  0  0
  5  6  2  0  0  0  0
  7  2  1  0  0  0  0
  8  3  1  0  0  0  0
 10 11  1  0  0  0  0
 11 12  1  0  0  0  0
 11 14  1  0  0  0  0
 11 13  1  0  0  0  0
 14 15  1  0  0  0  0
 16 14  1  0  0  0  0
 17 18  1  0  0  0  0
 17 14  1  0  0  0  0
M  END
>  <minimizedAffinity>
-2.89949965

$$$$

 OpenBabel03242514583D

 18 18  0  0  0  0  0  0  0  0999 V2000
   36.3340   27.9780   40.7970 C   0  0  0  0  0  0  0  0  0  0  0  0
   36.5870   27.9740   42.1840 C   0  0  0  0  0  0  0  0  0  0  0  0
   37.0620   26.7950   42.7560 C   0  0  0  0  0  0  0  0  0  0  0  0
   37.2480   25.7320   41.9370 N   0  0  0  0  0  0  0  0  0  0  0  0
   37.0020   25.7560   40.6160 C   0  0  0  0  0  0  0  0  0  0  0  0
   36.5460   26.8670   40.0370 N   0  0  0  0  0  0  0  0  0  0  0  0
   36.4190   28.8560   42.7870 H   0  0  0  0  0  0  0  0  0  0  0  0
   37.2720   26.7320   43.8080 H   0  0  0  0  0  0  0  0  0  0  0  0
   37.1770   24.8660   40.0420 H   0  0  0  0  0  0  0  0  0  0  0  0
   35.7280   29.5490   40.1360 S   0  0  0  0  0  0  0  0  0  0  0  0
   36.3150   30.9530   41.0460 C   0  0  0  0  0  0  0  0  0  0  0  0
   35.5120   31.5150   41.5700 H   0  0  0  0  0  0  0  0  0  0  0  0
   36.9820   30.5910   41.8680 H   0  0  0  0  0  0  0  0  0  0  0  0
   37.1440   31.9140   40.2440 C   0  0  0  0  0  0  0  0  0  0  0  0
   38.1180   32.0870   40.7260 H   0  0  0  0  0  0  0  0  0  0  0  0
   36.5700   32.8760   40.2220 H   0  0  0  0  0  0  0  0  0  0  0  0
   37.2580   31.3700   38.5220 S   0  0  0  0  0  0  0  0  0  0  0  0
   38.5860   31.5190   38.0410 H   0  0  0  0  0  0  0  0  0  0  0  0
  1  2  1  0  0  0  0
  2  3  2  0  0  0  0
  2  7  1  0  0  0  0
  3  8  1  0  0  0  0
  4  3  1  0  0  0  0
  5  4  2  0  0  0  0
  6  5  1  0  0  0  0
  6  1  2  0  0  0  0
  9  5  1  0  0  0  0
 10  1  1  0  0  0  0
 10 11  1  0  0  0  0
 11 12  1  0  0  0  0
 11 13  1  0  0  0  0
 14 15  1  0  0  0  0
 14 11  1  0  0  0  0
 16 14  1  0  0  0  0
 17 14  1  0  0  0  0
 18 17  1  0  0  0  0
M  END
>  <minimizedAffinity>
-2.85241437

$$$$

 OpenBabel03242514583D

 18 18  0  0  0  0  0  0  0  0999 V2000
   36.3630   30.4710   39.9090 C   0  0  0  0  0  0  0  0  0  0  0  0
   36.6790   30.4010   38.5360 C   0  0  0  0  0  0  0  0  0  0  0  0
   37.3720   31.4700   37.9730 C   0  0  0  0  0  0  0  0  0  0  0  0
   37.6950   32.5050   38.7850 N   0  0  0  0  0  0  0  0  0  0  0  0
   37.3860   32.5530   40.0910 C   0  0  0  0  0  0  0  0  0  0  0  0
   36.7230   31.5480   40.6630 N   0  0  0  0  0  0  0  0  0  0  0  0
   36.3930   29.5460   37.9380 H   0  0  0  0  0  0  0  0  0  0  0  0
   37.6400   31.4730   36.9320 H   0  0  0  0  0  0  0  0  0  0  0  0
   37.6810   33.4150   40.6600 H   0  0  0  0  0  0  0  0  0  0  0  0
   35.4700   29.0400   40.5610 S   0  0  0  0  0  0  0  0  0  0  0  0
   36.3970   28.1440   41.7780 C   0  0  0  0  0  0  0  0  0  0  0  0
   36.1490   28.4240   42.8250 H   0  0  0  0  0  0  0  0  0  0  0  0
   36.1230   27.0620   41.7090 H   0  0  0  0  0  0  0  0  0  0  0  0
   37.8860   28.1990   41.5940 C   0  0  0  0  0  0  0  0  0  0  0  0
   38.1430   28.4980   40.5690 H   0  0  0  0  0  0  0  0  0  0  0  0
   38.2600   27.1580   41.7780 H   0  0  0  0  0  0  0  0  0  0  0  0
   38.6440   29.2270   42.8770 S   0  0  0  0  0  0  0  0  0  0  0  0
   39.6390   30.0710   42.3120 H   0  0  0  0  0  0  0  0  0  0  0  0
  1 10  1  0  0  0  0
  1  6  1  0  0  0  0
  2  1  2  0  0  0  0
  3  2  1  0  0  0  0
  3  4  2  0  0  0  0
  4  5  1  0  0  0  0
  5  9  1  0  0  0  0
  5  6  2  0  0  0  0
  7  2  1  0  0  0  0
  8  3  1  0  0  0  0
 10 11  1  0  0  0  0
 11 12  1  0  0  0  0
 13 11  1  0  0  0  0
 14 11  1  0  0  0  0
 14 16  1  0  0  0  0
 14 17  1  0  0  0  0
 15 14  1  0  0  0  0
 18 17  1  0  0  0  0
M  END
>  <minimizedAffinity>
-2.82502913

$$$$

 OpenBabel03242514583D

 18 18  0  0  0  0  0  0  0  0999 V2000
   38.2860   29.7450   42.1350 C   0  0  0  0  0  0  0  0  0  0  0  0
   38.4480   28.9160   43.2650 C   0  0  0  0  0  0  0  0  0  0  0  0
   37.5160   27.8990   43.4640 C   0  0  0  0  0  0  0  0  0  0  0  0
   36.5180   27.7770   42.5570 N   0  0  0  0  0  0  0  0  0  0  0  0
   36.3810   28.5770   41.4860 C   0  0  0  0  0  0  0  0  0  0  0  0
   37.2540   29.5600   41.2650 N   0  0  0  0  0  0  0  0  0  0  0  0
   39.2670   29.0630   43.9550 H   0  0  0  0  0  0  0  0  0  0  0  0
   37.5880   27.2360   44.3070 H   0  0  0  0  0  0  0  0  0  0  0  0
   35.5580   28.4090   40.8180 H   0  0  0  0  0  0  0  0  0  0  0  0
   39.5410   31.0340   41.9480 S   0  0  0  0  0  0  0  0  0  0  0  0
   38.9700   32.4220   41.0040 C   0  0  0  0  0  0  0  0  0  0  0  0
   37.9610   32.7810   41.3020 H   0  0  0  0  0  0  0  0  0  0  0  0
   39.6430   33.2920   41.2040 H   0  0  0  0  0  0  0  0  0  0  0  0
   38.9990   32.2200   39.5160 C   0  0  0  0  0  0  0  0  0  0  0  0
   39.5360   31.2960   39.2580 H   0  0  0  0  0  0  0  0  0  0  0  0
   39.5540   33.0980   39.0950 H   0  0  0  0  0  0  0  0  0  0  0  0
   37.3270   32.3200   38.8310 S   0  0  0  0  0  0  0  0  0  0  0  0
   37.1220   31.2930   37.8700 H   0  0  0  0  0  0  0  0  0  0  0  0
  1  2  1  0  0  0  0
  2  3  2  0  0  0  0
  2  7  1  0  0  0  0
  3  8  1  0  0  0  0
  4  3  1  0  0  0  0
  5  4  2  0  0  0  0
  6  5  1  0  0  0  0
  6  1  2  0  0  0  0
  9  5  1  0  0  0  0
 10  1  1  0  0  0  0
 11 13  1  0  0  0  0
 11 12  1  0  0  0  0
 11 10  1  0  0  0  0
 14 11  1  0  0  0  0
 15 14  1  0  0  0  0
 16 14  1  0  0  0  0
 17 14  1  0  0  0  0
 18 17  1  0  0  0  0
M  END
>  <minimizedAffinity>
-2.79233289

$$$$

 OpenBabel03242514583D

 18 18  0  0  0  0  0  0  0  0999 V2000
   37.6940   26.0000   42.3840 C   0  0  0  0  0  0  0  0  0  0  0  0
   36.9220   24.8570   42.0890 C   0  0  0  0  0  0  0  0  0  0  0  0
   37.5640   23.7770   41.4860 C   0  0  0  0  0  0  0  0  0  0  0  0
   38.8870   23.9000   41.2240 N   0  0  0  0  0  0  0  0  0  0  0  0
   39.6050   24.9980   41.5140 C   0  0  0  0  0  0  0  0  0  0  0  0
   39.0230   26.0500   42.0900 N   0  0  0  0  0  0  0  0  0  0  0  0
   35.8660   24.8180   42.3220 H   0  0  0  0  0  0  0  0  0  0  0  0
   37.0270   22.8790   41.2370 H   0  0  0  0  0  0  0  0  0  0  0  0
   40.6510   25.0100   41.2700 H   0  0  0  0  0  0  0  0  0  0  0  0
   36.7850   27.3520   43.1710 S   0  0  0  0  0  0  0  0  0  0  0  0
   37.6830   28.8810   43.1680 C   0  0  0  0  0  0  0  0  0  0  0  0
   37.6300   29.4330   44.1310 H   0  0  0  0  0  0  0  0  0  0  0  0
   38.7710   28.6560   43.0370 H   0  0  0  0  0  0  0  0  0  0  0  0
   37.3240   29.8130   42.0470 C   0  0  0  0  0  0  0  0  0  0  0  0
   37.3990   30.8610   42.3710 H   0  0  0  0  0  0  0  0  0  0  0  0
   36.2600   29.5850   41.7820 H   0  0  0  0  0  0  0  0  0  0  0  0
   38.2930   29.4270   40.5670 S   0  0  0  0  0  0  0  0  0  0  0  0
   38.7620   30.6210   39.9550 H   0  0  0  0  0  0  0  0  0  0  0  0
  1 10  1  0  0  0  0
  2  7  1  0  0  0  0
  2  1  2  0  0  0  0
  3  2  1  0  0  0  0
  4  3  2  0  0  0  0
  4  5  1  0  0  0  0
  5  6  2  0  0  0  0
  6  1  1  0  0  0  0
  8  3  1  0  0  0  0
  9  5  1  0  0  0  0
 11 10  1  0  0  0  0
 11 12  1  0  0  0  0
 13 11  1  0  0  0  0
 14 15  1  0  0  0  0
 14 11  1  0  0  0  0
 16 14  1  0  0  0  0
 17 14  1  0  0  0  0
 18 17  1  0  0  0  0
M  END
>  <minimizedAffinity>
-2.72742033

$$$$
