REMARK  Name = 
REMARK  8 active torsions:
REMARK  status: ('A' for Active; 'I' for Inactive)
REMARK    1  A    between atoms: C_2  and  O_17
REMARK    2  A    between atoms: C_3  and  C_7
REMARK    3  A    between atoms: O_17  and  P_19
REMARK    4  A    between atoms: P_19  and  O_20
REMARK    5  A    between atoms: P_19  and  O_22
REMARK    6  A    between atoms: O_20  and  C_21
REMARK    7  A    between atoms: C_21  and  S_39
REMARK    8  A    between atoms: O_22  and  C_23
REMARK                            x       y       z     vdW  Elec       q    Type
REMARK                         _______ _______ _______ _____ _____    ______ ____
ROOT
ATOM      1  C   UNL     1      45.123  35.549  43.249  0.00  0.00    +0.000 A 
ATOM      2  C   UNL     1      45.513  34.228  43.312  0.00  0.00    +0.000 A 
ATOM      3  C   UNL     1      45.462  33.530  44.486  0.00  0.00    +0.000 A 
ATOM      4  N   UNL     1      44.994  34.237  45.591  0.00  0.00    +0.000 NA
ATOM      5  C   UNL     1      44.620  35.502  45.533  0.00  0.00    +0.000 A 
ATOM      6  N   UNL     1      44.690  36.152  44.349  0.00  0.00    +0.000 NA
ATOM      7  H   UNL     1      45.166  36.102  42.313  0.00  0.00    +0.000 HD
ATOM      8  H   UNL     1      44.262  36.001  46.438  0.00  0.00    +0.000 HD
ENDROOT
BRANCH   3   9
ATOM      9  C   UNL     1      45.821  32.192  44.732  0.00  0.00    +0.000 A 
ATOM     10  C   UNL     1      45.483  31.144  43.855  0.00  0.00    +0.000 A 
ATOM     11  C   UNL     1      45.769  29.825  44.090  0.00  0.00    +0.000 A 
ATOM     12  C   UNL     1      46.427  29.468  45.253  0.00  0.00    +0.000 A 
ATOM     13  C   UNL     1      46.779  30.522  46.157  0.00  0.00    +0.000 A 
ATOM     14  C   UNL     1      47.426  30.178  47.308  0.00  0.00    +0.000 A 
ATOM     15  C   UNL     1      47.791  31.147  48.214  0.00  0.00    +0.000 A 
ATOM     16  C   UNL     1      47.492  32.494  47.942  0.00  0.00    +0.000 A 
ATOM     17  C   UNL     1      46.821  32.786  46.735  0.00  0.00    +0.000 A 
ATOM     18  C   UNL     1      46.471  31.806  45.864  0.00  0.00    +0.000 A 
ATOM     19  H   UNL     1      44.967  31.374  42.933  0.00  0.00    +0.000 HD
ATOM     20  H   UNL     1      45.491  29.056  43.389  0.00  0.00    +0.000 HD
ATOM     21  H   UNL     1      46.683  28.450  45.506  0.00  0.00    +0.000 HD
ATOM     22  H   UNL     1      47.650  29.136  47.501  0.00  0.00    +0.000 HD
ATOM     23  H   UNL     1      48.298  30.802  49.103  0.00  0.00    +0.000 HD
ATOM     24  H   UNL     1      47.822  33.172  48.713  0.00  0.00    +0.000 HD
ATOM     25  H   UNL     1      46.719  33.852  46.721  0.00  0.00    +0.000 HD
ENDBRANCH   3   9
BRANCH   2  26
ATOM     26  O   UNL     1      45.947  33.647  42.153  0.00  0.00    +0.000 OA
BRANCH  26  28
ATOM     27  O   UNL     1      48.157  32.373  41.545  0.00  0.00    +0.000 OA
ATOM     28  P   UNL     1      47.505  33.722  41.547  0.00  0.00    +0.000 P 
BRANCH  28  29
ATOM     29  O   UNL     1      47.565  34.288  39.963  0.00  0.00    +0.000 OA
BRANCH  29  30
ATOM     30  C   UNL     1      46.803  33.376  39.209  0.00  0.00    +0.000 C 
ATOM     31  H   UNL     1      47.095  32.336  39.339  0.00  0.00    +0.000 HD
ATOM     32  H   UNL     1      45.758  33.494  39.603  0.00  0.00    +0.000 HD
BRANCH  30  33
ATOM     33  S   UNL     1      46.751  33.824  37.464  0.00  0.00    +0.000 S 
ATOM     34  H   UNL     1      47.689  32.992  36.794  0.00  0.00    +0.000 HD
ENDBRANCH  30  33
ENDBRANCH  29  30
ENDBRANCH  28  29
BRANCH  28  35
ATOM     35  O   UNL     1      48.400  34.764  42.529  0.00  0.00    +0.000 OA
BRANCH  35  36
ATOM     36  C   UNL     1      49.606  35.365  42.242  0.00  0.00    +0.000 C 
ATOM     37  O   UNL     1      49.343  36.394  41.633  0.00  0.00    +0.000 OA
ATOM     38  N   UNL     1      50.702  34.597  42.743  0.00  0.00    +0.000 N 
ATOM     39  H   UNL     1      51.531  33.996  42.537  0.00  0.00    +0.000 HD
ATOM     40  H   UNL     1      50.992  34.451  43.759  0.00  0.00    +0.000 HD
ENDBRANCH  35  36
ENDBRANCH  28  35
ENDBRANCH  26  28
ENDBRANCH   2  26
TORSDOF 8
