
 OpenBabel03252508103D

 40 42  0  0  0  0  0  0  0  0999 V2000
   45.1070   35.4980   43.2750 C   0  0  0  0  0  0  0  0  0  0  0  0
   45.5140   34.1830   43.3390 C   0  0  0  0  0  0  0  0  0  0  0  0
   45.4850   33.4890   44.5160 C   0  0  0  0  0  0  0  0  0  0  0  0
   45.0210   34.1950   45.6230 N   0  0  0  0  0  0  0  0  0  0  0  0
   44.6300   35.4550   45.5650 C   0  0  0  0  0  0  0  0  0  0  0  0
   44.6790   36.1010   44.3770 N   0  0  0  0  0  0  0  0  0  0  0  0
   45.1330   36.0480   42.3360 H   0  0  0  0  0  0  0  0  0  0  0  0
   44.2760   35.9530   46.4710 H   0  0  0  0  0  0  0  0  0  0  0  0
   45.8640   32.1570   44.7630 C   0  0  0  0  0  0  0  0  0  0  0  0
   45.5450   31.1040   43.8850 C   0  0  0  0  0  0  0  0  0  0  0  0
   45.8500   29.7890   44.1210 C   0  0  0  0  0  0  0  0  0  0  0  0
   46.5090   29.4420   45.2870 C   0  0  0  0  0  0  0  0  0  0  0  0
   46.8420   30.5010   46.1920 C   0  0  0  0  0  0  0  0  0  0  0  0
   47.4900   30.1670   47.3450 C   0  0  0  0  0  0  0  0  0  0  0  0
   47.8360   31.1420   48.2530 C   0  0  0  0  0  0  0  0  0  0  0  0
   47.5180   32.4840   47.9800 C   0  0  0  0  0  0  0  0  0  0  0  0
   46.8470   32.7660   46.7700 C   0  0  0  0  0  0  0  0  0  0  0  0
   46.5150   31.7800   45.8980 C   0  0  0  0  0  0  0  0  0  0  0  0
   45.0290   31.3260   42.9610 H   0  0  0  0  0  0  0  0  0  0  0  0
   45.5860   29.0160   43.4190 H   0  0  0  0  0  0  0  0  0  0  0  0
   46.7800   28.4280   45.5410 H   0  0  0  0  0  0  0  0  0  0  0  0
   47.7290   29.1290   47.5390 H   0  0  0  0  0  0  0  0  0  0  0  0
   48.3450   30.8040   49.1440 H   0  0  0  0  0  0  0  0  0  0  0  0
   47.8350   33.1670   48.7520 H   0  0  0  0  0  0  0  0  0  0  0  0
   46.7290   33.8300   46.7560 H   0  0  0  0  0  0  0  0  0  0  0  0
   45.9430   33.6020   42.1770 O   0  0  0  0  0  0  0  0  0  0  0  0
   48.1520   32.4380   41.3790 O   0  0  0  0  0  0  0  0  0  0  0  0
   47.4680   33.7640   41.5090 P   0  0  1  0  0  0  0  0  0  0  0  0
   47.4400   34.4450   39.9700 O   0  0  0  0  0  0  0  0  0  0  0  0
   48.2350   33.6020   39.1720 C   0  0  0  0  0  0  0  0  0  0  0  0
   49.2180   33.3900   39.5880 H   0  0  0  0  0  0  0  0  0  0  0  0
   47.6620   32.6370   39.1290 H   0  0  0  0  0  0  0  0  0  0  0  0
   48.3620   34.2030   37.4770 S   0  0  0  0  0  0  0  0  0  0  0  0
   49.6660   33.8700   37.0150 H   0  0  0  0  0  0  0  0  0  0  0  0
   48.3820   34.7570   42.5240 O   0  0  0  0  0  0  0  0  0  0  0  0
   49.5900   35.3600   42.2500 C   0  0  0  0  0  0  0  0  0  0  0  0
   49.3310   36.3950   41.6490 O   0  0  0  0  0  0  0  0  0  0  0  0
   50.6830   34.5870   42.7490 N   0  0  0  0  0  0  0  0  0  0  0  0
   51.5130   33.9880   42.5420 H   0  0  0  0  0  0  0  0  0  0  0  0
   50.9680   34.4310   43.7650 H   0  0  0  0  0  0  0  0  0  0  0  0
  1  2  2  0  0  0  0
  1  6  1  0  0  0  0
  2  3  1  0  0  0  0
  3  9  1  0  0  0  0
  3  4  2  0  0  0  0
  5  4  1  0  0  0  0
  5  8  1  0  0  0  0
  6  5  2  0  0  0  0
  7  1  1  0  0  0  0
  9 18  1  0  0  0  0
 10 11  1  0  0  0  0
 10  9  2  0  0  0  0
 11 12  2  0  0  0  0
 12 21  1  0  0  0  0
 12 13  1  0  0  0  0
 13 14  1  0  0  0  0
 14 22  1  0  0  0  0
 14 15  2  0  0  0  0
 15 23  1  0  0  0  0
 16 15  1  0  0  0  0
 16 24  1  0  0  0  0
 17 16  2  0  0  0  0
 18 13  2  0  0  0  0
 18 17  1  0  0  0  0
 19 10  1  0  0  0  0
 20 11  1  0  0  0  0
 25 17  1  0  0  0  0
 26  2  1  0  0  0  0
 28 27  2  6  0  0  0
 28 26  1  0  0  0  0
 28 35  1  0  0  0  0
 29 28  1  0  0  0  0
 30 31  1  0  0  0  0
 30 29  1  0  0  0  0
 32 30  1  0  0  0  0
 33 30  1  0  0  0  0
 34 33  1  0  0  0  0
 36 35  1  0  0  0  0
 36 38  1  0  0  0  0
 37 36  2  0  0  0  0
 38 40  1  0  0  0  0
 39 38  1  0  0  0  0
M  END
>  <minimizedAffinity>
-5.91453075

>  <minimizedRMSD>
0.438315302

$$$$
