
 OpenBabel03252508483D

 38 39  0  0  0  0  0  0  0  0999 V2000
   37.1330   30.8510   38.5430 C   0  0  0  0  0  0  0  0  0  0  0  0
   36.1930   30.0810   39.2320 C   0  0  0  0  0  0  0  0  0  0  0  0
   35.4790   29.1380   38.5340 C   0  0  0  0  0  0  0  0  0  0  0  0
   35.6960   28.9710   37.1940 C   0  0  0  0  0  0  0  0  0  0  0  0
   36.6040   29.7030   36.4920 C   0  0  0  0  0  0  0  0  0  0  0  0
   37.3050   30.6430   37.2260 C   0  0  0  0  0  0  0  0  0  0  0  0
   34.7490   28.5420   39.0730 H   0  0  0  0  0  0  0  0  0  0  0  0
   35.0940   28.2020   36.6990 H   0  0  0  0  0  0  0  0  0  0  0  0
   36.7600   29.5520   35.4290 H   0  0  0  0  0  0  0  0  0  0  0  0
   38.0420   31.2540   36.7090 H   0  0  0  0  0  0  0  0  0  0  0  0
   38.2200   34.0240   40.2980 C   0  0  0  0  0  0  0  0  0  0  0  0
   37.4350   33.1500   39.5070 C   0  0  0  0  0  0  0  0  0  0  0  0
   37.8610   31.8360   39.3350 C   0  0  0  0  0  0  0  0  0  0  0  0
   39.0200   31.4590   39.9450 N   0  0  0  0  0  0  0  0  0  0  0  0
   39.7590   32.3100   40.6990 C   0  0  0  0  0  0  0  0  0  0  0  0
   39.3510   33.5780   40.8670 N   0  0  0  0  0  0  0  0  0  0  0  0
   37.8570   35.0350   40.4070 H   0  0  0  0  0  0  0  0  0  0  0  0
   36.5190   33.4640   39.0300 H   0  0  0  0  0  0  0  0  0  0  0  0
   40.6710   31.9410   41.1540 H   0  0  0  0  0  0  0  0  0  0  0  0
   35.9810   30.2910   40.6910 C   0  0  0  0  0  0  0  0  0  0  0  0
   36.8260   30.8770   41.1110 H   0  0  0  0  0  0  0  0  0  0  0  0
   35.0960   30.9820   40.7700 H   0  0  0  0  0  0  0  0  0  0  0  0
   35.7940   29.0770   41.4430 N   0  0  0  0  0  0  0  0  0  0  0  0
   35.5740   28.3050   40.8010 H   0  0  0  0  0  0  0  0  0  0  0  0
   37.2030   28.6310   42.3240 S   0  0  0  0  0  0  0  0  0  0  0  0
   37.2290   29.2910   43.6780 O   0  0  0  0  0  0  0  0  0  0  0  0
   36.9760   28.7300   44.4800 H   0  0  0  0  0  0  0  0  0  0  0  0
   38.4430   28.9540   41.5730 O   0  0  0  0  0  0  0  0  0  0  0  0
   38.4700   29.5200   40.7760 H   0  0  0  0  0  0  0  0  0  0  0  0
   37.1320   26.9630   42.5580 O   0  0  0  0  0  0  0  0  0  0  0  0
   38.0920   26.3860   41.7520 C   0  0  0  0  0  0  0  0  0  0  0  0
   38.9030   27.1280   41.5000 H   0  0  0  0  0  0  0  0  0  0  0  0
   37.7390   25.9840   40.8050 H   0  0  0  0  0  0  0  0  0  0  0  0
   38.8380   25.2980   42.5400 C   0  0  0  0  0  0  0  0  0  0  0  0
   38.1410   24.6780   43.1150 H   0  0  0  0  0  0  0  0  0  0  0  0
   39.4840   24.7230   41.8460 H   0  0  0  0  0  0  0  0  0  0  0  0
   39.9580   26.1910   43.6800 S   0  0  0  0  0  0  0  0  0  0  0  0
   40.5660   27.2740   43.0160 H   0  0  0  0  0  0  0  0  0  0  0  0
  1  2  1  0  0  0  0
  1 13  1  0  0  0  0
  2 20  1  0  0  0  0
  3  7  1  0  0  0  0
  3  2  2  0  0  0  0
  4  3  1  0  0  0  0
  5  4  2  0  0  0  0
  5  6  1  0  0  0  0
  6  1  2  0  0  0  0
  8  4  1  0  0  0  0
  9  5  1  0  0  0  0
 10  6  1  0  0  0  0
 11 17  1  0  0  0  0
 11 16  1  0  0  0  0
 12 11  2  0  0  0  0
 13 12  1  0  0  0  0
 13 14  2  0  0  0  0
 14 15  1  0  0  0  0
 15 16  2  0  0  0  0
 15 19  1  0  0  0  0
 18 12  1  0  0  0  0
 20 22  1  0  0  0  0
 20 21  1  0  0  0  0
 20 23  1  0  0  0  0
 23 25  1  0  0  0  0
 24 23  1  0  0  0  0
 25 30  1  0  0  0  0
 25 26  1  0  0  0  0
 26 27  1  0  0  0  0
 28 25  1  0  0  0  0
 29 28  1  0  0  0  0
 31 34  1  0  0  0  0
 31 30  1  0  0  0  0
 32 31  1  0  0  0  0
 33 31  1  0  0  0  0
 34 35  1  0  0  0  0
 34 37  1  0  0  0  0
 36 34  1  0  0  0  0
 38 37  1  0  0  0  0
M  END
>  <minimizedAffinity>
-5.16449594

$$$$

 OpenBabel03252508483D

 38 39  0  0  0  0  0  0  0  0999 V2000
   36.9080   28.2360   40.8570 C   0  0  0  0  0  0  0  0  0  0  0  0
   37.1330   29.2180   41.8250 C   0  0  0  0  0  0  0  0  0  0  0  0
   37.3970   28.8210   43.1130 C   0  0  0  0  0  0  0  0  0  0  0  0
   37.4350   27.4890   43.4230 C   0  0  0  0  0  0  0  0  0  0  0  0
   37.2210   26.5070   42.5040 C   0  0  0  0  0  0  0  0  0  0  0  0
   36.9580   26.9430   41.2180 C   0  0  0  0  0  0  0  0  0  0  0  0
   37.5700   29.5860   43.8620 H   0  0  0  0  0  0  0  0  0  0  0  0
   37.6510   27.2420   44.4660 H   0  0  0  0  0  0  0  0  0  0  0  0
   37.2570   25.4560   42.7730 H   0  0  0  0  0  0  0  0  0  0  0  0
   36.7810   26.1940   40.4480 H   0  0  0  0  0  0  0  0  0  0  0  0
   35.2070   29.2230   37.6220 C   0  0  0  0  0  0  0  0  0  0  0  0
   35.3610   28.7350   38.9420 C   0  0  0  0  0  0  0  0  0  0  0  0
   36.6330   28.7170   39.5070 C   0  0  0  0  0  0  0  0  0  0  0  0
   37.6700   29.1760   38.7510 N   0  0  0  0  0  0  0  0  0  0  0  0
   37.5040   29.6400   37.4870 C   0  0  0  0  0  0  0  0  0  0  0  0
   36.2770   29.6590   36.9400 N   0  0  0  0  0  0  0  0  0  0  0  0
   34.2040   29.2220   37.2200 H   0  0  0  0  0  0  0  0  0  0  0  0
   34.5290   28.3750   39.5290 H   0  0  0  0  0  0  0  0  0  0  0  0
   38.3740   29.9890   36.9440 H   0  0  0  0  0  0  0  0  0  0  0  0
   37.0830   30.6590   41.4520 C   0  0  0  0  0  0  0  0  0  0  0  0
   36.4120   30.7960   40.5780 H   0  0  0  0  0  0  0  0  0  0  0  0
   36.5460   31.1690   42.2990 H   0  0  0  0  0  0  0  0  0  0  0  0
   38.3710   31.2470   41.1890 N   0  0  0  0  0  0  0  0  0  0  0  0
   38.8950   30.6520   40.5350 H   0  0  0  0  0  0  0  0  0  0  0  0
   38.2430   32.8090   40.4790 S   0  0  0  0  0  0  0  0  0  0  0  0
   38.8030   33.8690   41.3920 O   0  0  0  0  0  0  0  0  0  0  0  0
   39.7220   34.2330   41.1810 H   0  0  0  0  0  0  0  0  0  0  0  0
   36.8390   33.1330   40.1200 O   0  0  0  0  0  0  0  0  0  0  0  0
   36.0630   32.6190   40.4200 H   0  0  0  0  0  0  0  0  0  0  0  0
   39.1710   32.7890   39.0710 O   0  0  0  0  0  0  0  0  0  0  0  0
   40.1630   31.8440   39.2380 C   0  0  0  0  0  0  0  0  0  0  0  0
   40.2280   31.1680   38.3370 H   0  0  0  0  0  0  0  0  0  0  0  0
   40.0600   31.1930   40.1030 H   0  0  0  0  0  0  0  0  0  0  0  0
   41.5340   32.5370   39.2610 C   0  0  0  0  0  0  0  0  0  0  0  0
   42.2350   32.0500   38.5740 H   0  0  0  0  0  0  0  0  0  0  0  0
   41.3970   33.6210   39.0700 H   0  0  0  0  0  0  0  0  0  0  0  0
   42.1410   32.3800   40.9800 S   0  0  0  0  0  0  0  0  0  0  0  0
   41.0940   32.6210   41.8910 H   0  0  0  0  0  0  0  0  0  0  0  0
  1  6  2  0  0  0  0
  1  2  1  0  0  0  0
  2  3  2  0  0  0  0
  3  4  1  0  0  0  0
  3  7  1  0  0  0  0
  4  8  1  0  0  0  0
  5  9  1  0  0  0  0
  5  4  2  0  0  0  0
  6  5  1  0  0  0  0
 10  6  1  0  0  0  0
 11 12  1  0  0  0  0
 12 13  2  0  0  0  0
 12 18  1  0  0  0  0
 13  1  1  0  0  0  0
 14 13  1  0  0  0  0
 15 14  2  0  0  0  0
 16 15  1  0  0  0  0
 16 11  2  0  0  0  0
 17 11  1  0  0  0  0
 19 15  1  0  0  0  0
 20  2  1  0  0  0  0
 20 22  1  0  0  0  0
 21 20  1  0  0  0  0
 23 20  1  0  0  0  0
 24 23  1  0  0  0  0
 25 23  1  0  0  0  0
 25 26  1  0  0  0  0
 27 26  1  0  0  0  0
 28 29  1  0  0  0  0
 28 25  1  0  0  0  0
 30 31  1  0  0  0  0
 30 25  1  0  0  0  0
 31 34  1  0  0  0  0
 31 33  1  0  0  0  0
 32 31  1  0  0  0  0
 34 37  1  0  0  0  0
 35 34  1  0  0  0  0
 36 34  1  0  0  0  0
 37 38  1  0  0  0  0
M  END
>  <minimizedAffinity>
-5.047153

$$$$

 OpenBabel03252508483D

 38 39  0  0  0  0  0  0  0  0999 V2000
   37.4010   29.0340   39.6390 C   0  0  0  0  0  0  0  0  0  0  0  0
   36.9220   30.3310   39.4410 C   0  0  0  0  0  0  0  0  0  0  0  0
   36.7600   30.7800   38.1520 C   0  0  0  0  0  0  0  0  0  0  0  0
   37.0670   29.9610   37.1000 C   0  0  0  0  0  0  0  0  0  0  0  0
   37.5350   28.6920   37.2590 C   0  0  0  0  0  0  0  0  0  0  0  0
   37.6860   28.2740   38.5680 C   0  0  0  0  0  0  0  0  0  0  0  0
   36.3890   31.7880   38.0010 H   0  0  0  0  0  0  0  0  0  0  0  0
   36.9150   30.3810   36.1010 H   0  0  0  0  0  0  0  0  0  0  0  0
   37.7710   28.0610   36.4080 H   0  0  0  0  0  0  0  0  0  0  0  0
   38.0570   27.2660   38.7460 H   0  0  0  0  0  0  0  0  0  0  0  0
   36.7940   27.6240   43.1000 C   0  0  0  0  0  0  0  0  0  0  0  0
   36.5390   27.9940   41.7570 C   0  0  0  0  0  0  0  0  0  0  0  0
   37.5520   28.6110   41.0270 C   0  0  0  0  0  0  0  0  0  0  0  0
   38.7440   28.8260   41.6520 N   0  0  0  0  0  0  0  0  0  0  0  0
   38.9700   28.4650   42.9400 C   0  0  0  0  0  0  0  0  0  0  0  0
   37.9950   27.8690   43.6450 N   0  0  0  0  0  0  0  0  0  0  0  0
   35.9840   27.1470   43.6320 H   0  0  0  0  0  0  0  0  0  0  0  0
   35.5890   27.8170   41.2760 H   0  0  0  0  0  0  0  0  0  0  0  0
   39.9430   28.6670   43.3720 H   0  0  0  0  0  0  0  0  0  0  0  0
   36.5990   31.1950   40.6100 C   0  0  0  0  0  0  0  0  0  0  0  0
   35.5220   31.0960   40.8610 H   0  0  0  0  0  0  0  0  0  0  0  0
   37.1340   30.7300   41.4830 H   0  0  0  0  0  0  0  0  0  0  0  0
   36.9450   32.5820   40.4340 N   0  0  0  0  0  0  0  0  0  0  0  0
   36.3930   33.1600   41.0800 H   0  0  0  0  0  0  0  0  0  0  0  0
   38.6070   32.8870   40.7590 S   0  0  0  0  0  0  0  0  0  0  0  0
   39.2300   31.7450   41.5180 O   0  0  0  0  0  0  0  0  0  0  0  0
   39.8120   31.1000   41.0010 H   0  0  0  0  0  0  0  0  0  0  0  0
   38.7930   34.1590   41.5030 O   0  0  0  0  0  0  0  0  0  0  0  0
   38.0670   34.6600   41.9250 H   0  0  0  0  0  0  0  0  0  0  0  0
   39.3860   33.0130   39.2690 O   0  0  0  0  0  0  0  0  0  0  0  0
   40.2730   31.9600   39.1710 C   0  0  0  0  0  0  0  0  0  0  0  0
   39.8550   31.0360   39.6660 H   0  0  0  0  0  0  0  0  0  0  0  0
   41.2560   32.1230   39.6060 H   0  0  0  0  0  0  0  0  0  0  0  0
   40.4120   31.5410   37.6990 C   0  0  0  0  0  0  0  0  0  0  0  0
   39.4360   31.5130   37.2020 H   0  0  0  0  0  0  0  0  0  0  0  0
   41.1520   32.2010   37.2010 H   0  0  0  0  0  0  0  0  0  0  0  0
   41.1420   29.8630   37.7270 S   0  0  0  0  0  0  0  0  0  0  0  0
   42.1670   29.7930   38.6910 H   0  0  0  0  0  0  0  0  0  0  0  0
  1 13  1  0  0  0  0
  2  1  1  0  0  0  0
  2 20  1  0  0  0  0
  3  2  2  0  0  0  0
  4  5  2  0  0  0  0
  4  3  1  0  0  0  0
  5  6  1  0  0  0  0
  6 10  1  0  0  0  0
  6  1  2  0  0  0  0
  7  3  1  0  0  0  0
  8  4  1  0  0  0  0
  9  5  1  0  0  0  0
 11 17  1  0  0  0  0
 11 16  1  0  0  0  0
 12 11  2  0  0  0  0
 13 14  2  0  0  0  0
 13 12  1  0  0  0  0
 14 15  1  0  0  0  0
 15 19  1  0  0  0  0
 15 16  2  0  0  0  0
 18 12  1  0  0  0  0
 20 21  1  0  0  0  0
 20 22  1  0  0  0  0
 23 20  1  0  0  0  0
 23 25  1  0  0  0  0
 23 24  1  0  0  0  0
 25 28  1  0  0  0  0
 25 26  1  0  0  0  0
 27 26  1  0  0  0  0
 28 29  1  0  0  0  0
 30 25  1  0  0  0  0
 31 30  1  0  0  0  0
 31 33  1  0  0  0  0
 31 32  1  0  0  0  0
 34 37  1  0  0  0  0
 34 31  1  0  0  0  0
 35 34  1  0  0  0  0
 36 34  1  0  0  0  0
 37 38  1  0  0  0  0
M  END
>  <minimizedAffinity>
-4.96209383

$$$$

 OpenBabel03252508483D

 38 39  0  0  0  0  0  0  0  0999 V2000
   34.9610   29.0750   38.3010 C   0  0  0  0  0  0  0  0  0  0  0  0
   35.7290   29.1690   37.1390 C   0  0  0  0  0  0  0  0  0  0  0  0
   35.0910   29.1000   35.9240 C   0  0  0  0  0  0  0  0  0  0  0  0
   33.7330   28.9410   35.8740 C   0  0  0  0  0  0  0  0  0  0  0  0
   32.9550   28.8470   36.9870 C   0  0  0  0  0  0  0  0  0  0  0  0
   33.6300   28.9200   38.1920 C   0  0  0  0  0  0  0  0  0  0  0  0
   35.6910   29.1730   35.0230 H   0  0  0  0  0  0  0  0  0  0  0  0
   33.2890   28.8940   34.8750 H   0  0  0  0  0  0  0  0  0  0  0  0
   31.8790   28.7220   36.9220 H   0  0  0  0  0  0  0  0  0  0  0  0
   33.0510   28.8490   39.1110 H   0  0  0  0  0  0  0  0  0  0  0  0
   36.6570   30.3140   41.4500 C   0  0  0  0  0  0  0  0  0  0  0  0
   35.9380   30.3510   40.2320 C   0  0  0  0  0  0  0  0  0  0  0  0
   35.6910   29.1560   39.5620 C   0  0  0  0  0  0  0  0  0  0  0  0
   36.1600   28.0050   40.1220 N   0  0  0  0  0  0  0  0  0  0  0  0
   36.8480   27.9890   41.2910 C   0  0  0  0  0  0  0  0  0  0  0  0
   37.0870   29.1410   41.9400 N   0  0  0  0  0  0  0  0  0  0  0  0
   36.8280   31.2620   41.9400 H   0  0  0  0  0  0  0  0  0  0  0  0
   35.5720   31.2710   39.8000 H   0  0  0  0  0  0  0  0  0  0  0  0
   37.1910   27.0370   41.6780 H   0  0  0  0  0  0  0  0  0  0  0  0
   37.2050   29.3400   37.2310 C   0  0  0  0  0  0  0  0  0  0  0  0
   37.5060   29.4230   38.2970 H   0  0  0  0  0  0  0  0  0  0  0  0
   37.6430   28.3600   36.8930 H   0  0  0  0  0  0  0  0  0  0  0  0
   37.7200   30.4560   36.4790 N   0  0  0  0  0  0  0  0  0  0  0  0
   36.9510   30.9140   35.9730 H   0  0  0  0  0  0  0  0  0  0  0  0
   38.4540   31.6410   37.4880 S   0  0  0  0  0  0  0  0  0  0  0  0
   37.4420   32.6500   37.9640 O   0  0  0  0  0  0  0  0  0  0  0  0
   37.1010   32.5630   38.9120 H   0  0  0  0  0  0  0  0  0  0  0  0
   39.5750   32.3280   36.7980 O   0  0  0  0  0  0  0  0  0  0  0  0
   39.7530   32.2600   35.8380 H   0  0  0  0  0  0  0  0  0  0  0  0
   39.0610   30.8330   38.8370 O   0  0  0  0  0  0  0  0  0  0  0  0
   40.1630   31.5350   39.2840 C   0  0  0  0  0  0  0  0  0  0  0  0
   40.4310   32.3610   38.5630 H   0  0  0  0  0  0  0  0  0  0  0  0
   41.0680   30.9540   39.4360 H   0  0  0  0  0  0  0  0  0  0  0  0
   39.8010   32.2920   40.5710 C   0  0  0  0  0  0  0  0  0  0  0  0
   38.7570   32.1160   40.8530 H   0  0  0  0  0  0  0  0  0  0  0  0
   40.5310   32.0310   41.3650 H   0  0  0  0  0  0  0  0  0  0  0  0
   40.0500   34.0650   40.1920 S   0  0  0  0  0  0  0  0  0  0  0  0
   41.2350   34.2440   39.4520 H   0  0  0  0  0  0  0  0  0  0  0  0
  1 13  1  0  0  0  0
  2 20  1  0  0  0  0
  2  1  2  0  0  0  0
  3  2  1  0  0  0  0
  4  3  2  0  0  0  0
  4  5  1  0  0  0  0
  5  6  2  0  0  0  0
  6  1  1  0  0  0  0
  6 10  1  0  0  0  0
  7  3  1  0  0  0  0
  8  4  1  0  0  0  0
  9  5  1  0  0  0  0
 11 17  1  0  0  0  0
 11 16  1  0  0  0  0
 12 11  2  0  0  0  0
 13 14  2  0  0  0  0
 13 12  1  0  0  0  0
 14 15  1  0  0  0  0
 15 19  1  0  0  0  0
 15 16  2  0  0  0  0
 18 12  1  0  0  0  0
 20 21  1  0  0  0  0
 22 20  1  0  0  0  0
 23 20  1  0  0  0  0
 23 25  1  0  0  0  0
 24 23  1  0  0  0  0
 25 26  1  0  0  0  0
 25 30  1  0  0  0  0
 26 27  1  0  0  0  0
 28 25  1  0  0  0  0
 29 28  1  0  0  0  0
 30 31  1  0  0  0  0
 31 33  1  0  0  0  0
 31 34  1  0  0  0  0
 32 31  1  0  0  0  0
 34 35  1  0  0  0  0
 34 36  1  0  0  0  0
 37 34  1  0  0  0  0
 38 37  1  0  0  0  0
M  END
>  <minimizedAffinity>
-4.91686344

$$$$

 OpenBabel03252508483D

 38 39  0  0  0  0  0  0  0  0999 V2000
   36.5790   27.3720   40.0600 C   0  0  0  0  0  0  0  0  0  0  0  0
   36.1160   28.3310   40.9630 C   0  0  0  0  0  0  0  0  0  0  0  0
   36.3340   28.1290   42.3040 C   0  0  0  0  0  0  0  0  0  0  0  0
   36.9910   27.0060   42.7270 C   0  0  0  0  0  0  0  0  0  0  0  0
   37.4560   26.0520   41.8740 C   0  0  0  0  0  0  0  0  0  0  0  0
   37.2190   26.2890   40.5310 C   0  0  0  0  0  0  0  0  0  0  0  0
   35.9720   28.8760   43.0030 H   0  0  0  0  0  0  0  0  0  0  0  0
   37.1320   26.9070   43.8070 H   0  0  0  0  0  0  0  0  0  0  0  0
   37.9760   25.1700   42.2330 H   0  0  0  0  0  0  0  0  0  0  0  0
   37.5720   25.5540   39.8100 H   0  0  0  0  0  0  0  0  0  0  0  0
   35.0000   27.5720   36.6250 C   0  0  0  0  0  0  0  0  0  0  0  0
   35.1490   27.2610   37.9980 C   0  0  0  0  0  0  0  0  0  0  0  0
   36.3200   27.6400   38.6490 C   0  0  0  0  0  0  0  0  0  0  0  0
   37.2670   28.2980   37.9220 N   0  0  0  0  0  0  0  0  0  0  0  0
   37.1070   28.5870   36.6060 C   0  0  0  0  0  0  0  0  0  0  0  0
   35.9780   28.2230   35.9760 N   0  0  0  0  0  0  0  0  0  0  0  0
   34.0780   27.2620   36.1550 H   0  0  0  0  0  0  0  0  0  0  0  0
   34.3890   26.7390   38.5610 H   0  0  0  0  0  0  0  0  0  0  0  0
   37.9020   29.1120   36.0910 H   0  0  0  0  0  0  0  0  0  0  0  0
   35.4030   29.5410   40.4670 C   0  0  0  0  0  0  0  0  0  0  0  0
   35.5410   29.6330   39.3690 H   0  0  0  0  0  0  0  0  0  0  0  0
   34.3070   29.3160   40.5920 H   0  0  0  0  0  0  0  0  0  0  0  0
   35.7870   30.7650   41.1230 N   0  0  0  0  0  0  0  0  0  0  0  0
   36.1430   30.5540   42.0640 H   0  0  0  0  0  0  0  0  0  0  0  0
   37.0300   31.5980   40.2740 S   0  0  0  0  0  0  0  0  0  0  0  0
   36.8650   33.0910   40.3980 O   0  0  0  0  0  0  0  0  0  0  0  0
   37.4660   33.5770   41.0480 H   0  0  0  0  0  0  0  0  0  0  0  0
   37.0720   31.2050   38.8420 O   0  0  0  0  0  0  0  0  0  0  0  0
   36.3710   30.6930   38.3920 H   0  0  0  0  0  0  0  0  0  0  0  0
   38.4920   31.1720   40.9960 O   0  0  0  0  0  0  0  0  0  0  0  0
   39.2400   30.4920   40.0560 C   0  0  0  0  0  0  0  0  0  0  0  0
   40.2000   31.0410   39.8330 H   0  0  0  0  0  0  0  0  0  0  0  0
   38.7560   30.3180   39.0990 H   0  0  0  0  0  0  0  0  0  0  0  0
   39.7230   29.1600   40.6520 C   0  0  0  0  0  0  0  0  0  0  0  0
   38.9830   28.3670   40.4990 H   0  0  0  0  0  0  0  0  0  0  0  0
   40.7280   28.9230   40.2460 H   0  0  0  0  0  0  0  0  0  0  0  0
   39.9420   29.4680   42.4430 S   0  0  0  0  0  0  0  0  0  0  0  0
   40.5520   30.7200   42.6520 H   0  0  0  0  0  0  0  0  0  0  0  0
  1  6  2  0  0  0  0
  1  2  1  0  0  0  0
  2  3  2  0  0  0  0
  3  4  1  0  0  0  0
  3  7  1  0  0  0  0
  4  8  1  0  0  0  0
  5  9  1  0  0  0  0
  5  4  2  0  0  0  0
  6  5  1  0  0  0  0
 10  6  1  0  0  0  0
 11 12  1  0  0  0  0
 12 18  1  0  0  0  0
 12 13  2  0  0  0  0
 13  1  1  0  0  0  0
 14 13  1  0  0  0  0
 15 14  2  0  0  0  0
 16 15  1  0  0  0  0
 16 11  2  0  0  0  0
 17 11  1  0  0  0  0
 19 15  1  0  0  0  0
 20 22  1  0  0  0  0
 20  2  1  0  0  0  0
 20 23  1  0  0  0  0
 21 20  1  0  0  0  0
 23 24  1  0  0  0  0
 25 26  1  0  0  0  0
 25 30  1  0  0  0  0
 25 23  1  0  0  0  0
 26 27  1  0  0  0  0
 28 25  1  0  0  0  0
 29 28  1  0  0  0  0
 31 34  1  0  0  0  0
 31 30  1  0  0  0  0
 32 31  1  0  0  0  0
 33 31  1  0  0  0  0
 34 37  1  0  0  0  0
 35 34  1  0  0  0  0
 36 34  1  0  0  0  0
 37 38  1  0  0  0  0
M  END
>  <minimizedAffinity>
-4.88800907

$$$$

 OpenBabel03252508483D

 38 39  0  0  0  0  0  0  0  0999 V2000
   36.5170   29.8020   37.9020 C   0  0  0  0  0  0  0  0  0  0  0  0
   36.3630   30.4490   39.1310 C   0  0  0  0  0  0  0  0  0  0  0  0
   36.9330   31.6880   39.2950 C   0  0  0  0  0  0  0  0  0  0  0  0
   37.6340   32.2590   38.2680 C   0  0  0  0  0  0  0  0  0  0  0  0
   37.8030   31.6560   37.0590 C   0  0  0  0  0  0  0  0  0  0  0  0
   37.2150   30.4100   36.9290 C   0  0  0  0  0  0  0  0  0  0  0  0
   36.8120   32.1880   40.2500 H   0  0  0  0  0  0  0  0  0  0  0  0
   38.0620   33.2460   38.4660 H   0  0  0  0  0  0  0  0  0  0  0  0
   38.3630   32.1290   36.2590 H   0  0  0  0  0  0  0  0  0  0  0  0
   37.3230   29.8880   35.9800 H   0  0  0  0  0  0  0  0  0  0  0  0
   34.0970   26.9760   37.2030 C   0  0  0  0  0  0  0  0  0  0  0  0
   34.6100   28.2930   37.2720 C   0  0  0  0  0  0  0  0  0  0  0  0
   35.8900   28.4900   37.7850 C   0  0  0  0  0  0  0  0  0  0  0  0
   36.5850   27.3910   38.1940 N   0  0  0  0  0  0  0  0  0  0  0  0
   36.0780   26.1360   38.1210 C   0  0  0  0  0  0  0  0  0  0  0  0
   34.8440   25.9440   37.6260 N   0  0  0  0  0  0  0  0  0  0  0  0
   33.1010   26.8640   36.8000 H   0  0  0  0  0  0  0  0  0  0  0  0
   34.0460   29.1540   36.9440 H   0  0  0  0  0  0  0  0  0  0  0  0
   36.6880   25.3090   38.4650 H   0  0  0  0  0  0  0  0  0  0  0  0
   35.5940   29.7970   40.2270 C   0  0  0  0  0  0  0  0  0  0  0  0
   34.5060   29.9210   40.0450 H   0  0  0  0  0  0  0  0  0  0  0  0
   35.7740   28.6930   40.1030 H   0  0  0  0  0  0  0  0  0  0  0  0
   35.9360   30.2620   41.5470 N   0  0  0  0  0  0  0  0  0  0  0  0
   35.1370   30.1240   42.1780 H   0  0  0  0  0  0  0  0  0  0  0  0
   37.2750   29.4100   42.2120 S   0  0  0  0  0  0  0  0  0  0  0  0
   37.0680   29.1340   43.6780 O   0  0  0  0  0  0  0  0  0  0  0  0
   36.7900   28.2000   43.9460 H   0  0  0  0  0  0  0  0  0  0  0  0
   38.5480   30.1450   42.0040 O   0  0  0  0  0  0  0  0  0  0  0  0
   38.6040   31.0750   41.7060 H   0  0  0  0  0  0  0  0  0  0  0  0
   37.3670   27.9300   41.4100 O   0  0  0  0  0  0  0  0  0  0  0  0
   37.0010   26.9450   42.3050 C   0  0  0  0  0  0  0  0  0  0  0  0
   35.8880   26.7680   42.2740 H   0  0  0  0  0  0  0  0  0  0  0  0
   37.2540   27.1310   43.3450 H   0  0  0  0  0  0  0  0  0  0  0  0
   37.5870   25.5980   41.8530 C   0  0  0  0  0  0  0  0  0  0  0  0
   37.9360   25.0110   42.7100 H   0  0  0  0  0  0  0  0  0  0  0  0
   36.8440   25.0720   41.2190 H   0  0  0  0  0  0  0  0  0  0  0  0
   39.0020   26.0110   40.7680 S   0  0  0  0  0  0  0  0  0  0  0  0
   38.6660   27.0780   39.9120 H   0  0  0  0  0  0  0  0  0  0  0  0
  1  2  1  0  0  0  0
  2  3  2  0  0  0  0
  2 20  1  0  0  0  0
  3  7  1  0  0  0  0
  4  8  1  0  0  0  0
  4  3  1  0  0  0  0
  5  4  2  0  0  0  0
  6  5  1  0  0  0  0
  6  1  2  0  0  0  0
  9  5  1  0  0  0  0
 10  6  1  0  0  0  0
 11 12  2  0  0  0  0
 11 16  1  0  0  0  0
 12 13  1  0  0  0  0
 13  1  1  0  0  0  0
 13 14  2  0  0  0  0
 15 14  1  0  0  0  0
 15 19  1  0  0  0  0
 16 15  2  0  0  0  0
 17 11  1  0  0  0  0
 18 12  1  0  0  0  0
 20 23  1  0  0  0  0
 21 20  1  0  0  0  0
 22 20  1  0  0  0  0
 23 24  1  0  0  0  0
 23 25  1  0  0  0  0
 25 26  1  0  0  0  0
 26 27  1  0  0  0  0
 28 25  1  0  0  0  0
 29 28  1  0  0  0  0
 30 25  1  0  0  0  0
 30 31  1  0  0  0  0
 31 33  1  0  0  0  0
 32 31  1  0  0  0  0
 34 31  1  0  0  0  0
 34 35  1  0  0  0  0
 36 34  1  0  0  0  0
 37 34  1  0  0  0  0
 38 37  1  0  0  0  0
M  END
>  <minimizedAffinity>
-4.83438587

$$$$

 OpenBabel03252508483D

 38 39  0  0  0  0  0  0  0  0999 V2000
   36.4150   29.8890   38.3030 C   0  0  0  0  0  0  0  0  0  0  0  0
   35.4690   29.0570   38.9040 C   0  0  0  0  0  0  0  0  0  0  0  0
   34.6140   28.3450   38.0970 C   0  0  0  0  0  0  0  0  0  0  0  0
   34.7030   28.4630   36.7370 C   0  0  0  0  0  0  0  0  0  0  0  0
   35.6140   29.2640   36.1190 C   0  0  0  0  0  0  0  0  0  0  0  0
   36.4570   29.9660   36.9620 C   0  0  0  0  0  0  0  0  0  0  0  0
   33.8800   27.7000   38.5680 H   0  0  0  0  0  0  0  0  0  0  0  0
   33.9930   27.8680   36.1540 H   0  0  0  0  0  0  0  0  0  0  0  0
   35.6660   29.3410   35.0380 H   0  0  0  0  0  0  0  0  0  0  0  0
   37.2030   30.6200   36.5140 H   0  0  0  0  0  0  0  0  0  0  0  0
   37.9560   32.5250   40.5410 C   0  0  0  0  0  0  0  0  0  0  0  0
   37.0320   31.9090   39.6630 C   0  0  0  0  0  0  0  0  0  0  0  0
   37.2960   30.6200   39.2090 C   0  0  0  0  0  0  0  0  0  0  0  0
   38.4390   30.0150   39.6410 N   0  0  0  0  0  0  0  0  0  0  0  0
   39.3120   30.6220   40.4830 C   0  0  0  0  0  0  0  0  0  0  0  0
   39.0600   31.8650   40.9220 N   0  0  0  0  0  0  0  0  0  0  0  0
   37.7160   33.5260   40.8710 H   0  0  0  0  0  0  0  0  0  0  0  0
   36.1300   32.4010   39.3290 H   0  0  0  0  0  0  0  0  0  0  0  0
   40.2010   30.0810   40.7850 H   0  0  0  0  0  0  0  0  0  0  0  0
   35.4000   28.9540   40.3880 C   0  0  0  0  0  0  0  0  0  0  0  0
   35.6650   29.9320   40.8430 H   0  0  0  0  0  0  0  0  0  0  0  0
   34.3090   28.8220   40.6290 H   0  0  0  0  0  0  0  0  0  0  0  0
   36.2140   27.9060   40.9470 N   0  0  0  0  0  0  0  0  0  0  0  0
   36.9910   27.6950   40.3080 H   0  0  0  0  0  0  0  0  0  0  0  0
   36.8970   28.3470   42.4640 S   0  0  0  0  0  0  0  0  0  0  0  0
   36.1360   27.7210   43.6040 O   0  0  0  0  0  0  0  0  0  0  0  0
   36.5440   26.9120   44.0530 H   0  0  0  0  0  0  0  0  0  0  0  0
   36.9480   29.8210   42.6320 O   0  0  0  0  0  0  0  0  0  0  0  0
   36.4830   30.4570   42.0520 H   0  0  0  0  0  0  0  0  0  0  0  0
   38.4700   27.7430   42.4910 O   0  0  0  0  0  0  0  0  0  0  0  0
   38.5360   26.7050   41.5840 C   0  0  0  0  0  0  0  0  0  0  0  0
   39.5140   26.7240   41.0220 H   0  0  0  0  0  0  0  0  0  0  0  0
   37.7500   26.6790   40.8340 H   0  0  0  0  0  0  0  0  0  0  0  0
   38.5880   25.3670   42.3390 C   0  0  0  0  0  0  0  0  0  0  0  0
   39.5220   24.8330   42.1330 H   0  0  0  0  0  0  0  0  0  0  0  0
   38.4020   25.5500   43.4170 H   0  0  0  0  0  0  0  0  0  0  0  0
   37.1670   24.3930   41.7200 S   0  0  0  0  0  0  0  0  0  0  0  0
   36.0290   25.2130   41.5990 H   0  0  0  0  0  0  0  0  0  0  0  0
  1  2  1  0  0  0  0
  1 13  1  0  0  0  0
  2 20  1  0  0  0  0
  3  7  1  0  0  0  0
  3  2  2  0  0  0  0
  4  3  1  0  0  0  0
  5  4  2  0  0  0  0
  5  6  1  0  0  0  0
  6  1  2  0  0  0  0
  8  4  1  0  0  0  0
  9  5  1  0  0  0  0
 10  6  1  0  0  0  0
 11 17  1  0  0  0  0
 11 16  1  0  0  0  0
 12 11  2  0  0  0  0
 13 14  2  0  0  0  0
 13 12  1  0  0  0  0
 14 15  1  0  0  0  0
 15 19  1  0  0  0  0
 15 16  2  0  0  0  0
 18 12  1  0  0  0  0
 20 22  1  0  0  0  0
 20 21  1  0  0  0  0
 20 23  1  0  0  0  0
 23 25  1  0  0  0  0
 24 23  1  0  0  0  0
 25 30  1  0  0  0  0
 25 28  1  0  0  0  0
 25 26  1  0  0  0  0
 26 27  1  0  0  0  0
 29 28  1  0  0  0  0
 31 34  1  0  0  0  0
 31 30  1  0  0  0  0
 32 31  1  0  0  0  0
 33 31  1  0  0  0  0
 34 36  1  0  0  0  0
 35 34  1  0  0  0  0
 37 34  1  0  0  0  0
 38 37  1  0  0  0  0
M  END
>  <minimizedAffinity>
-4.82662821

$$$$

 OpenBabel03252508483D

 38 39  0  0  0  0  0  0  0  0999 V2000
   40.7810   28.4740   42.7080 C   0  0  0  0  0  0  0  0  0  0  0  0
   39.4160   28.4550   43.0060 C   0  0  0  0  0  0  0  0  0  0  0  0
   38.8680   27.2940   43.4960 C   0  0  0  0  0  0  0  0  0  0  0  0
   39.6560   26.1920   43.6800 C   0  0  0  0  0  0  0  0  0  0  0  0
   40.9890   26.1760   43.4000 C   0  0  0  0  0  0  0  0  0  0  0  0
   41.5070   27.3620   42.9090 C   0  0  0  0  0  0  0  0  0  0  0  0
   37.8080   27.2830   43.7260 H   0  0  0  0  0  0  0  0  0  0  0  0
   39.1570   25.3010   44.0730 H   0  0  0  0  0  0  0  0  0  0  0  0
   41.5950   25.2890   43.5550 H   0  0  0  0  0  0  0  0  0  0  0  0
   42.5680   27.3990   42.6700 H   0  0  0  0  0  0  0  0  0  0  0  0
   41.7380   31.3720   40.4690 C   0  0  0  0  0  0  0  0  0  0  0  0
   41.1900   30.1280   40.8620 C   0  0  0  0  0  0  0  0  0  0  0  0
   41.3070   29.7330   42.1930 C   0  0  0  0  0  0  0  0  0  0  0  0
   41.9480   30.5760   43.0510 N   0  0  0  0  0  0  0  0  0  0  0  0
   42.4680   31.7650   42.6560 C   0  0  0  0  0  0  0  0  0  0  0  0
   42.3560   32.1480   41.3730 N   0  0  0  0  0  0  0  0  0  0  0  0
   41.6270   31.6430   39.4290 H   0  0  0  0  0  0  0  0  0  0  0  0
   40.6850   29.4710   40.1700 H   0  0  0  0  0  0  0  0  0  0  0  0
   42.9640   32.3850   43.3930 H   0  0  0  0  0  0  0  0  0  0  0  0
   38.5880   29.6740   42.7930 C   0  0  0  0  0  0  0  0  0  0  0  0
   38.8480   30.4400   43.5520 H   0  0  0  0  0  0  0  0  0  0  0  0
   38.9450   30.1130   41.8200 H   0  0  0  0  0  0  0  0  0  0  0  0
   37.1680   29.4320   42.7930 N   0  0  0  0  0  0  0  0  0  0  0  0
   36.7200   30.0100   43.5160 H   0  0  0  0  0  0  0  0  0  0  0  0
   36.4370   29.8310   41.2870 S   0  0  0  0  0  0  0  0  0  0  0  0
   35.5740   31.0590   41.4100 O   0  0  0  0  0  0  0  0  0  0  0  0
   35.9470   31.9320   41.0610 H   0  0  0  0  0  0  0  0  0  0  0  0
   35.6400   28.6980   40.7500 O   0  0  0  0  0  0  0  0  0  0  0  0
   35.3980   27.9030   41.2660 H   0  0  0  0  0  0  0  0  0  0  0  0
   37.6850   30.1740   40.2080 O   0  0  0  0  0  0  0  0  0  0  0  0
   37.3690   31.3540   39.5650 C   0  0  0  0  0  0  0  0  0  0  0  0
   37.9840   32.2080   39.9700 H   0  0  0  0  0  0  0  0  0  0  0  0
   36.3300   31.6660   39.6270 H   0  0  0  0  0  0  0  0  0  0  0  0
   37.8060   31.2690   38.0940 C   0  0  0  0  0  0  0  0  0  0  0  0
   37.6070   32.2090   37.5670 H   0  0  0  0  0  0  0  0  0  0  0  0
   38.8650   30.9420   38.0460 H   0  0  0  0  0  0  0  0  0  0  0  0
   36.8080   29.9230   37.3570 S   0  0  0  0  0  0  0  0  0  0  0  0
   36.7290   28.8320   38.2440 H   0  0  0  0  0  0  0  0  0  0  0  0
  1  6  2  0  0  0  0
  1  2  1  0  0  0  0
  2  3  2  0  0  0  0
  3  4  1  0  0  0  0
  3  7  1  0  0  0  0
  4  8  1  0  0  0  0
  5  9  1  0  0  0  0
  5  4  2  0  0  0  0
  6  5  1  0  0  0  0
 10  6  1  0  0  0  0
 11 12  2  0  0  0  0
 11 16  1  0  0  0  0
 12 13  1  0  0  0  0
 13  1  1  0  0  0  0
 13 14  2  0  0  0  0
 15 14  1  0  0  0  0
 15 19  1  0  0  0  0
 16 15  2  0  0  0  0
 17 11  1  0  0  0  0
 18 12  1  0  0  0  0
 20 23  1  0  0  0  0
 20  2  1  0  0  0  0
 20 21  1  0  0  0  0
 22 20  1  0  0  0  0
 23 24  1  0  0  0  0
 25 26  1  0  0  0  0
 25 23  1  0  0  0  0
 27 26  1  0  0  0  0
 28 29  1  0  0  0  0
 28 25  1  0  0  0  0
 30 25  1  0  0  0  0
 31 33  1  0  0  0  0
 31 32  1  0  0  0  0
 31 30  1  0  0  0  0
 34 31  1  0  0  0  0
 35 34  1  0  0  0  0
 36 34  1  0  0  0  0
 37 34  1  0  0  0  0
 37 38  1  0  0  0  0
M  END
>  <minimizedAffinity>
-4.82641745

$$$$

 OpenBabel03252508483D

 38 39  0  0  0  0  0  0  0  0999 V2000
   36.9270   27.7680   40.3230 C   0  0  0  0  0  0  0  0  0  0  0  0
   36.0500   28.8560   40.3460 C   0  0  0  0  0  0  0  0  0  0  0  0
   35.0850   28.9400   39.3720 C   0  0  0  0  0  0  0  0  0  0  0  0
   35.0000   27.9720   38.4090 C   0  0  0  0  0  0  0  0  0  0  0  0
   35.8380   26.9000   38.3580 C   0  0  0  0  0  0  0  0  0  0  0  0
   36.7970   26.8470   39.3540 C   0  0  0  0  0  0  0  0  0  0  0  0
   34.4060   29.7860   39.3920 H   0  0  0  0  0  0  0  0  0  0  0  0
   34.2090   28.1000   37.6640 H   0  0  0  0  0  0  0  0  0  0  0  0
   35.7500   26.1430   37.5850 H   0  0  0  0  0  0  0  0  0  0  0  0
   37.4900   26.0080   39.3550 H   0  0  0  0  0  0  0  0  0  0  0  0
   38.8090   27.0490   43.5280 C   0  0  0  0  0  0  0  0  0  0  0  0
   37.7700   27.0170   42.5670 C   0  0  0  0  0  0  0  0  0  0  0  0
   37.9300   27.7310   41.3820 C   0  0  0  0  0  0  0  0  0  0  0  0
   39.0900   28.4260   41.2110 N   0  0  0  0  0  0  0  0  0  0  0  0
   40.0740   28.4460   42.1440 C   0  0  0  0  0  0  0  0  0  0  0  0
   39.9230   27.7580   43.2870 N   0  0  0  0  0  0  0  0  0  0  0  0
   38.6480   26.4830   44.4340 H   0  0  0  0  0  0  0  0  0  0  0  0
   36.8570   26.4610   42.7170 H   0  0  0  0  0  0  0  0  0  0  0  0
   40.9700   29.0200   41.9400 H   0  0  0  0  0  0  0  0  0  0  0  0
   36.1730   29.8920   41.4090 C   0  0  0  0  0  0  0  0  0  0  0  0
   35.5110   29.6320   42.2620 H   0  0  0  0  0  0  0  0  0  0  0  0
   37.2140   29.7790   41.8190 H   0  0  0  0  0  0  0  0  0  0  0  0
   35.9050   31.2340   40.9600 N   0  0  0  0  0  0  0  0  0  0  0  0
   35.6010   31.8090   41.7560 H   0  0  0  0  0  0  0  0  0  0  0  0
   37.2970   31.9850   40.2820 S   0  0  0  0  0  0  0  0  0  0  0  0
   38.5600   31.4610   40.9150 O   0  0  0  0  0  0  0  0  0  0  0  0
   39.1020   30.7870   40.3930 H   0  0  0  0  0  0  0  0  0  0  0  0
   37.2360   33.4640   40.4090 O   0  0  0  0  0  0  0  0  0  0  0  0
   36.5940   33.9410   40.9720 H   0  0  0  0  0  0  0  0  0  0  0  0
   37.3270   31.5830   38.6450 O   0  0  0  0  0  0  0  0  0  0  0  0
   38.4670   30.8390   38.4180 C   0  0  0  0  0  0  0  0  0  0  0  0
   38.7410   30.2370   39.3320 H   0  0  0  0  0  0  0  0  0  0  0  0
   39.3550   31.4010   38.1420 H   0  0  0  0  0  0  0  0  0  0  0  0
   38.1740   29.7630   37.3600 C   0  0  0  0  0  0  0  0  0  0  0  0
   37.2490   29.2240   37.5900 H   0  0  0  0  0  0  0  0  0  0  0  0
   38.1850   30.2300   36.3540 H   0  0  0  0  0  0  0  0  0  0  0  0
   39.5950   28.6100   37.4180 S   0  0  0  0  0  0  0  0  0  0  0  0
   40.8010   29.3280   37.5340 H   0  0  0  0  0  0  0  0  0  0  0  0
  1  2  1  0  0  0  0
  1 13  1  0  0  0  0
  2 20  1  0  0  0  0
  3  7  1  0  0  0  0
  3  2  2  0  0  0  0
  4  3  1  0  0  0  0
  5  4  2  0  0  0  0
  5  6  1  0  0  0  0
  6 10  1  0  0  0  0
  6  1  2  0  0  0  0
  8  4  1  0  0  0  0
  9  5  1  0  0  0  0
 11 17  1  0  0  0  0
 12 18  1  0  0  0  0
 12 11  2  0  0  0  0
 13 12  1  0  0  0  0
 14 13  2  0  0  0  0
 14 15  1  0  0  0  0
 15 16  2  0  0  0  0
 16 11  1  0  0  0  0
 19 15  1  0  0  0  0
 20 22  1  0  0  0  0
 20 21  1  0  0  0  0
 23 20  1  0  0  0  0
 23 24  1  0  0  0  0
 25 28  1  0  0  0  0
 25 26  1  0  0  0  0
 25 23  1  0  0  0  0
 27 26  1  0  0  0  0
 28 29  1  0  0  0  0
 30 25  1  0  0  0  0
 31 30  1  0  0  0  0
 31 32  1  0  0  0  0
 33 31  1  0  0  0  0
 34 37  1  0  0  0  0
 34 35  1  0  0  0  0
 34 31  1  0  0  0  0
 36 34  1  0  0  0  0
 37 38  1  0  0  0  0
M  END
>  <minimizedAffinity>
-4.81306219

$$$$
