REMARK  Name = 
REMARK  10 active torsions:
REMARK  status: ('A' for Active; 'I' for Inactive)
REMARK    1  A    between atoms: C_1  and  C_9
REMARK    2  A    between atoms: C_2  and  C_13
REMARK    3  A    between atoms: C_13  and  N_14
REMARK    4  A    between atoms: N_14  and  S_15
REMARK    5  A    between atoms: S_15  and  O_16
REMARK    6  A    between atoms: S_15  and  O_17
REMARK    7  A    between atoms: S_15  and  O_18
REMARK    8  A    between atoms: O_18  and  C_19
REMARK    9  A    between atoms: C_19  and  C_20
REMARK   10  A    between atoms: C_20  and  S_37
REMARK                            x       y       z     vdW  Elec       q    Type
REMARK                         _______ _______ _______ _____ _____    ______ ____
ROOT
ATOM      1  C   UNL     1      43.656  34.961  41.879  0.00  0.00    +0.000 A 
ATOM      2  C   UNL     1      43.914  33.623  42.186  0.00  0.00    +0.000 A 
ATOM      3  C   UNL     1      44.975  33.332  43.009  0.00  0.00    +0.000 A 
ATOM      4  C   UNL     1      45.751  34.343  43.506  0.00  0.00    +0.000 A 
ATOM      5  C   UNL     1      45.527  35.657  43.227  0.00  0.00    +0.000 A 
ATOM      6  C   UNL     1      44.451  35.913  42.396  0.00  0.00    +0.000 A 
ATOM      7  H   UNL     1      45.173  32.292  43.245  0.00  0.00    +0.000 HD
ATOM      8  H   UNL     1      46.579  34.042  44.155  0.00  0.00    +0.000 HD
ATOM      9  H   UNL     1      46.156  36.442  43.634  0.00  0.00    +0.000 HD
ATOM     10  H   UNL     1      44.232  36.949  42.144  0.00  0.00    +0.000 HD
ENDROOT
BRANCH   1  13
ATOM     11  C   UNL     1      40.222  35.801  40.525  0.00  0.00    +0.000 A 
ATOM     12  C   UNL     1      41.258  35.584  41.465  0.00  0.00    +0.000 A 
ATOM     13  C   UNL     1      42.517  35.210  41.002  0.00  0.00    +0.000 A 
ATOM     14  N   UNL     1      42.684  35.074  39.656  0.00  0.00    +0.000 NA
ATOM     15  C   UNL     1      41.679  35.286  38.770  0.00  0.00    +0.000 A 
ATOM     16  N   UNL     1      40.464  35.647  39.214  0.00  0.00    +0.000 NA
ATOM     17  H   UNL     1      39.260  36.090  40.923  0.00  0.00    +0.000 HD
ATOM     18  H   UNL     1      41.110  35.696  42.529  0.00  0.00    +0.000 HD
ATOM     19  H   UNL     1      41.884  35.159  37.714  0.00  0.00    +0.000 HD
ENDBRANCH   1  13
BRANCH   2  20
ATOM     20  C   UNL     1      43.049  32.548  41.626  0.00  0.00    +0.000 C 
ATOM     21  H   UNL     1      42.127  32.995  41.199  0.00  0.00    +0.000 HD
ATOM     22  H   UNL     1      43.606  32.150  40.733  0.00  0.00    +0.000 HD
BRANCH  20  23
ATOM     23  N   UNL     1      42.712  31.510  42.566  0.00  0.00    +0.000 NA
ATOM     24  H   UNL     1      42.958  31.813  43.517  0.00  0.00    +0.000 HD
BRANCH  23  25
ATOM     25  S   UNL     1      41.031  31.143  42.559  0.00  0.00    +0.000 S 
BRANCH  25  26
ATOM     26  O   UNL     1      40.202  32.396  42.449  0.00  0.00    +0.000 OA
ATOM     27  H   UNL     1      39.800  32.616  41.548  0.00  0.00    +0.000 HD
ENDBRANCH  25  26
BRANCH  25  28
ATOM     28  O   UNL     1      40.635  30.372  43.765  0.00  0.00    +0.000 OA
ATOM     29  H   UNL     1      41.203  30.254  44.553  0.00  0.00    +0.000 HD
ENDBRANCH  25  28
BRANCH  25  30
ATOM     30  O   UNL     1      40.737  30.200  41.193  0.00  0.00    +0.000 OA
BRANCH  30  31
ATOM     31  C   UNL     1      40.093  29.052  41.608  0.00  0.00    +0.000 C 
ATOM     32  H   UNL     1      39.136  28.898  41.031  0.00  0.00    +0.000 HD
ATOM     33  H   UNL     1      39.827  29.010  42.661  0.00  0.00    +0.000 HD
BRANCH  31  34
ATOM     34  C   UNL     1      40.937  27.825  41.229  0.00  0.00    +0.000 C 
ATOM     35  H   UNL     1      41.075  27.760  40.144  0.00  0.00    +0.000 HD
ATOM     36  H   UNL     1      41.886  27.844  41.803  0.00  0.00    +0.000 HD
BRANCH  34  37
ATOM     37  S   UNL     1      39.995  26.372  41.822  0.00  0.00    +0.000 S 
ATOM     38  H   UNL     1      38.611  26.619  41.733  0.00  0.00    +0.000 HD
ENDBRANCH  34  37
ENDBRANCH  31  34
ENDBRANCH  30  31
ENDBRANCH  25  30
ENDBRANCH  23  25
ENDBRANCH  20  23
ENDBRANCH   2  20
TORSDOF 10
