REMARK  Name = 
REMARK  4 active torsions:
REMARK  status: ('A' for Active; 'I' for Inactive)
REMARK    1  A    between atoms: C_2  and  N_11
REMARK    2  A    between atoms: C_3  and  C_7
REMARK    3  A    between atoms: C_9  and  C_10
REMARK    4  A    between atoms: C_10  and  C_22
REMARK                            x       y       z     vdW  Elec       q    Type
REMARK                         _______ _______ _______ _____ _____    ______ ____
ROOT
ATOM      1  C   UNL     1      46.575  35.068  41.929  0.00  0.00    +0.000 C 
ATOM      2  C   UNL     1      48.115  35.290  41.931  0.00  0.00    +0.000 C 
ATOM      3  C   UNL     1      47.351  34.075  41.312  0.00  0.00    +0.000 C 
ATOM      4  H   UNL     1      46.026  35.852  41.364  0.00  0.00    +0.000 HD
ATOM      5  H   UNL     1      48.489  35.991  41.158  0.00  0.00    +0.000 HD
ATOM      6  H   UNL     1      48.674  35.136  42.848  0.00  0.00    +0.000 HD
ATOM      7  H   UNL     1      47.550  33.133  41.912  0.00  0.00    +0.000 HD
ENDROOT
BRANCH   1  10
ATOM      8  C   UNL     1      44.676  35.377  45.151  0.00  0.00    +0.000 A 
ATOM      9  C   UNL     1      45.128  35.698  43.839  0.00  0.00    +0.000 A 
ATOM     10  C   UNL     1      46.069  34.861  43.336  0.00  0.00    +0.000 A 
ATOM     11  N   UNL     1      46.550  33.783  44.048  0.00  0.00    +0.000 NA
ATOM     12  C   UNL     1      46.095  33.511  45.297  0.00  0.00    +0.000 A 
ATOM     13  N   UNL     1      45.149  34.320  45.846  0.00  0.00    +0.000 NA
ATOM     14  H   UNL     1      43.916  36.055  45.554  0.00  0.00    +0.000 HD
ATOM     15  H   UNL     1      46.439  32.687  45.885  0.00  0.00    +0.000 HD
BRANCH   9  16
ATOM     16  N   UNL     1      44.654  36.816  43.112  0.00  0.00    +0.000 N 
ATOM     17  H   UNL     1      43.999  36.810  42.282  0.00  0.00    +0.000 HD
ATOM     18  H   UNL     1      44.920  37.821  43.337  0.00  0.00    +0.000 HD
ENDBRANCH   9  16
ENDBRANCH   1  10
BRANCH   3  19
ATOM     19  C   UNL     1      47.394  33.909  39.807  0.00  0.00    +0.000 C 
ATOM     20  H   UNL     1      46.370  33.709  39.424  0.00  0.00    +0.000 HD
ATOM     21  H   UNL     1      47.756  34.867  39.351  0.00  0.00    +0.000 HD
BRANCH  19  22
ATOM     22  C   UNL     1      48.319  32.756  39.465  0.00  0.00    +0.000 C 
ATOM     23  C   UNL     1      49.750  33.126  39.624  0.00  0.00    +0.000 C 
ATOM     24  C   UNL     1      50.690  32.080  40.081  0.00  0.00    +0.000 C 
ATOM     25  C   UNL     1      50.100  30.706  39.837  0.00  0.00    +0.000 C 
ATOM     26  C   UNL     1      48.899  30.666  40.764  0.00  0.00    +0.000 C 
ATOM     27  C   UNL     1      47.844  31.536  40.144  0.00  0.00    +0.000 C 
ENDBRANCH  19  22
ENDBRANCH   3  19
TORSDOF 4
