
     RDKit          3D

 34 35  0  0  0  0  0  0  0  0999 V2000
   46.5344   33.6265   44.3369 C   0  0  0  0  0  0  0  0  0  0  0  0
   46.2439   33.2138   45.6486 C   0  0  0  0  0  0  0  0  0  0  0  0
   45.2991   33.9066   46.3654 C   0  0  0  0  0  0  0  0  0  0  0  0
   44.6936   34.9572   45.7640 N   0  0  0  0  0  0  0  0  0  0  0  0
   44.9648   35.3556   44.5156 C   0  0  0  0  0  0  0  0  0  0  0  0
   45.8956   34.6815   43.7969 N   0  0  0  0  0  0  0  0  0  0  0  0
   45.0494   33.4665   47.6478 O   0  0  0  0  0  0  0  0  0  0  0  0
   45.3361   30.8670   47.4643 O   0  0  0  0  0  0  0  0  0  0  0  0
   45.8136   32.0962   48.2684 P   0  0  2  0  0  0  0  0  0  0  0  0
   45.3256   31.8283   49.8548 O   0  0  0  0  0  0  0  0  0  0  0  0
   47.4563   32.2219   48.1226 O   0  0  0  0  0  0  0  0  0  0  0  0
   48.4676   31.4328   48.5453 C   0  0  0  0  0  0  0  0  0  0  0  0
   49.2101   31.9881   49.4325 O   0  0  0  0  0  0  0  0  0  0  0  0
   47.2580   33.1538   43.6879 H   0  0  0  0  0  0  0  0  0  0  0  0
   46.8281   32.3735   45.9150 H   0  0  0  0  0  0  0  0  0  0  0  0
   44.3804   36.2130   44.2084 H   0  0  0  0  0  0  0  0  0  0  0  0
   45.6500   32.4884   50.4983 H   0  0  0  0  0  0  0  0  0  0  0  0
   49.2854   30.1934   48.5782 C   0  0  0  0  0  0  0  0  0  0  0  0
   50.7579   30.4969   48.5539 C   0  0  0  0  0  0  0  0  0  0  0  0
   51.3382   30.8782   47.2511 C   0  0  0  0  0  0  0  0  0  0  0  0
   50.8586   30.0518   46.0870 C   0  0  0  0  0  0  0  0  0  0  0  0
   49.3760   29.9130   46.0894 C   0  0  0  0  0  0  0  0  0  0  0  0
   48.8482   29.3625   47.3917 C   0  0  0  0  0  0  0  0  0  0  0  0
   49.1528   29.5476   49.4535 H   0  0  0  0  0  0  0  0  0  0  0  0
   50.9837   31.2787   49.3039 H   0  0  0  0  0  0  0  0  0  0  0  0
   51.3234   29.5945   48.9394 H   0  0  0  0  0  0  0  0  0  0  0  0
   52.4475   30.6593   47.3111 H   0  0  0  0  0  0  0  0  0  0  0  0
   51.2977   31.9624   47.0438 H   0  0  0  0  0  0  0  0  0  0  0  0
   51.1361   30.6430   45.1704 H   0  0  0  0  0  0  0  0  0  0  0  0
   51.3137   29.0489   46.0906 H   0  0  0  0  0  0  0  0  0  0  0  0
   48.8548   30.8378   45.7958 H   0  0  0  0  0  0  0  0  0  0  0  0
   49.1008   29.1631   45.3057 H   0  0  0  0  0  0  0  0  0  0  0  0
   49.1032   28.2884   47.4958 H   0  0  0  0  0  0  0  0  0  0  0  0
   47.7406   29.4187   47.3473 H   0  0  0  0  0  0  0  0  0  0  0  0
  1  2  2  0
  2  3  1  0
  3  7  1  0
  4  3  2  0
  5  4  1  0
  6  1  1  0
  6  5  2  0
  9  7  1  6
  9  8  2  0
  9 10  1  0
 11  9  1  0
 11 12  1  0
 12 13  2  0
  1 14  1  0
  2 15  1  0
  5 16  1  0
 10 17  1  0
 18 19  1  0
 19 20  1  0
 20 21  1  0
 21 22  1  0
 22 23  1  0
 23 18  1  0
 18 24  1  0
 19 25  1  0
 19 26  1  0
 20 27  1  0
 20 28  1  0
 21 29  1  0
 21 30  1  0
 22 31  1  0
 22 32  1  0
 23 33  1  0
 23 34  1  0
 12 18  1  0
M  ISO  4  14  14  15  14  16  14  17   3
M  END
>  <DihAtoms>  (1) 
10,11,17,18

>  <DihDeg>  (1) 
179.48205074285886

$$$$
