
 OpenBabel03252508083D

 41 44  0  0  0  0  0  0  0  0999 V2000
   45.2940   35.4970   43.1680 C   0  0  0  0  0  0  0  0  0  0  0  0
   45.6370   34.1600   43.2880 C   0  0  0  0  0  0  0  0  0  0  0  0
   45.4580   33.5080   44.4830 C   0  0  0  0  0  0  0  0  0  0  0  0
   44.9290   34.2430   45.5250 N   0  0  0  0  0  0  0  0  0  0  0  0
   44.6010   35.5300   45.4020 C   0  0  0  0  0  0  0  0  0  0  0  0
   44.7890   36.1450   44.2170 N   0  0  0  0  0  0  0  0  0  0  0  0
   45.4040   36.0730   42.2740 H   0  0  0  0  0  0  0  0  0  0  0  0
   44.1880   36.0840   46.2360 H   0  0  0  0  0  0  0  0  0  0  0  0
   45.7570   32.1550   44.7660 C   0  0  0  0  0  0  0  0  0  0  0  0
   45.3750   31.0820   43.9560 C   0  0  0  0  0  0  0  0  0  0  0  0
   45.6080   29.7670   44.2600 C   0  0  0  0  0  0  0  0  0  0  0  0
   46.2570   29.4410   45.4300 C   0  0  0  0  0  0  0  0  0  0  0  0
   46.6590   30.5210   46.2720 C   0  0  0  0  0  0  0  0  0  0  0  0
   47.3040   30.2040   47.4350 C   0  0  0  0  0  0  0  0  0  0  0  0
   47.7220   31.2010   48.2920 C   0  0  0  0  0  0  0  0  0  0  0  0
   47.4800   32.5440   47.9590 C   0  0  0  0  0  0  0  0  0  0  0  0
   46.8110   32.8140   46.7520 C   0  0  0  0  0  0  0  0  0  0  0  0
   46.4050   31.8060   45.9220 C   0  0  0  0  0  0  0  0  0  0  0  0
   44.8590   31.3000   43.0250 H   0  0  0  0  0  0  0  0  0  0  0  0
   45.2870   28.9820   43.5900 H   0  0  0  0  0  0  0  0  0  0  0  0
   46.4760   28.4280   45.7410 H   0  0  0  0  0  0  0  0  0  0  0  0
   47.4950   29.1520   47.6950 H   0  0  0  0  0  0  0  0  0  0  0  0
   48.2220   30.8850   49.1910 H   0  0  0  0  0  0  0  0  0  0  0  0
   47.8420   33.2330   48.6860 H   0  0  0  0  0  0  0  0  0  0  0  0
   46.7430   33.8780   46.6680 H   0  0  0  0  0  0  0  0  0  0  0  0
   46.1470   33.5450   42.1780 O   0  0  0  0  0  0  0  0  0  0  0  0
   48.2880   32.0390   42.2440 O   0  0  0  0  0  0  0  0  0  0  0  0
   47.7970   33.3830   41.8400 P   0  0  1  0  0  0  0  0  0  0  0  0
   48.0990   33.5420   40.1840 O   0  0  0  0  0  0  0  0  0  0  0  0
   47.3330   32.6810   39.4030 C   0  0  0  0  0  0  0  0  0  0  0  0
   46.8240   33.4960   38.2280 C   0  0  0  0  0  0  0  0  0  0  0  0
   48.0100   34.1130   37.5470 C   0  0  0  0  0  0  0  0  0  0  0  0
   49.1150   33.1650   37.2270 C   0  0  0  0  0  0  0  0  0  0  0  0
   49.4560   32.2070   38.3410 C   0  0  0  0  0  0  0  0  0  0  0  0
   48.1810   31.5770   38.7950 C   0  0  0  0  0  0  0  0  0  0  0  0
   48.6230   34.5960   42.6590 O   0  0  0  0  0  0  0  0  0  0  0  0
   49.7630   35.2570   42.2320 C   0  0  0  0  0  0  0  0  0  0  0  0
   49.3430   36.3000   41.6990 O   0  0  0  0  0  0  0  0  0  0  0  0
   50.9470   34.5020   42.5630 N   0  0  0  0  0  0  0  0  0  0  0  0
   51.1880   34.4420   43.5580 H   0  0  0  0  0  0  0  0  0  0  0  0
   51.6090   34.0000   41.9440 H   0  0  0  0  0  0  0  0  0  0  0  0
  1  2  2  0  0  0  0
  1  6  1  0  0  0  0
  2  3  1  0  0  0  0
  3  9  1  0  0  0  0
  3  4  2  0  0  0  0
  5  4  1  0  0  0  0
  5  8  1  0  0  0  0
  6  5  2  0  0  0  0
  7  1  1  0  0  0  0
  9 18  1  0  0  0  0
 10 11  1  0  0  0  0
 10  9  2  0  0  0  0
 11 12  2  0  0  0  0
 12 21  1  0  0  0  0
 12 13  1  0  0  0  0
 13 14  1  0  0  0  0
 14 22  1  0  0  0  0
 14 15  2  0  0  0  0
 15 23  1  0  0  0  0
 16 15  1  0  0  0  0
 16 24  1  0  0  0  0
 17 16  2  0  0  0  0
 18 13  2  0  0  0  0
 18 17  1  0  0  0  0
 19 10  1  0  0  0  0
 20 11  1  0  0  0  0
 25 17  1  0  0  0  0
 26  2  1  0  0  0  0
 28 26  1  0  0  0  0
 28 27  2  1  0  0  0
 28 36  1  0  0  0  0
 29 28  1  0  0  0  0
 30 29  1  0  0  0  0
 31 30  1  0  0  0  0
 32 31  1  0  0  0  0
 33 32  1  0  0  0  0
 33 34  1  0  0  0  0
 34 35  1  0  0  0  0
 35 30  1  0  0  0  0
 37 39  1  0  0  0  0
 37 36  1  0  0  0  0
 38 37  2  0  0  0  0
 39 40  1  0  0  0  0
 41 39  1  0  0  0  0
M  END
>  <minimizedAffinity>
-6.03174639

>  <minimizedRMSD>
0.95547986

$$$$
