
     RDKit          3D

 30 31  0  0  0  0  0  0  0  0999 V2000
   44.9148   35.1057   44.9432 C   0  0  0  0  0  0  0  0  0  0  0  0
   45.8265   34.7551   43.9485 C   0  0  0  0  0  0  0  0  0  0  0  0
   46.6824   33.6977   44.2188 C   0  0  0  0  0  0  0  0  0  0  0  0
   46.6051   33.0593   45.4078 N   0  0  0  0  0  0  0  0  0  0  0  0
   45.7088   33.4327   46.3383 C   0  0  0  0  0  0  0  0  0  0  0  0
   44.8536   34.4533   46.1276 N   0  0  0  0  0  0  0  0  0  0  0  0
   45.7967   35.5537   42.6794 C   0  0  0  0  0  0  0  0  0  0  0  0
   45.3491   36.8055   43.0307 F   0  0  0  0  0  0  0  0  0  0  0  0
   44.9101   34.9457   41.8287 F   0  0  0  0  0  0  0  0  0  0  0  0
   47.0755   35.5490   42.1553 F   0  0  0  0  0  0  0  0  0  0  0  0
   45.6234   32.7772   47.5696 O   0  0  0  0  0  0  0  0  0  0  0  0
   44.2201   35.9163   44.8026 H   0  0  0  0  0  0  0  0  0  0  0  0
   47.3775   33.4447   43.4367 H   0  0  0  0  0  0  0  0  0  0  0  0
   46.4690   31.6929   47.9022 C   0  0  0  0  0  0  0  0  0  0  0  0
   47.7057   32.1806   48.6002 C   0  0  0  0  0  0  0  0  0  0  0  0
   48.9221   32.2190   47.7329 C   0  0  0  0  0  0  0  0  0  0  0  0
   49.1892   30.9324   47.0048 C   0  0  0  0  0  0  0  0  0  0  0  0
   47.9715   30.0747   46.7983 C   0  0  0  0  0  0  0  0  0  0  0  0
   46.7834   30.9703   46.6088 C   0  0  0  0  0  0  0  0  0  0  0  0
   45.9766   30.9804   48.5967 H   0  0  0  0  0  0  0  0  0  0  0  0
   47.9401   31.5994   49.5357 H   0  0  0  0  0  0  0  0  0  0  0  0
   47.5106   33.2204   48.9447 H   0  0  0  0  0  0  0  0  0  0  0  0
   49.7941   32.3951   48.4180 H   0  0  0  0  0  0  0  0  0  0  0  0
   48.8417   33.0740   47.0541 H   0  0  0  0  0  0  0  0  0  0  0  0
   49.5865   31.2012   46.0011 H   0  0  0  0  0  0  0  0  0  0  0  0
   49.9838   30.3218   47.5042 H   0  0  0  0  0  0  0  0  0  0  0  0
   47.8332   29.3937   47.6440 H   0  0  0  0  0  0  0  0  0  0  0  0
   48.0979   29.4940   45.8399 H   0  0  0  0  0  0  0  0  0  0  0  0
   45.8938   30.4112   46.2736 H   0  0  0  0  0  0  0  0  0  0  0  0
   47.0687   31.7915   45.8875 H   0  0  0  0  0  0  0  0  0  0  0  0
  1  6  2  0
  2  3  2  0
  2  1  1  0
  3  4  1  0
  4  5  2  0
  5 11  1  0
  6  5  1  0
  7  8  1  0
  7  2  1  0
  9  7  1  0
 10  7  1  0
  1 12  1  0
  3 13  1  0
 14 15  1  0
 15 16  1  0
 16 17  1  0
 17 18  1  0
 18 19  1  0
 19 14  1  0
 14 20  1  0
 15 21  1  0
 15 22  1  0
 16 23  1  0
 16 24  1  0
 17 25  1  0
 17 26  1  0
 18 27  1  0
 18 28  1  0
 19 29  1  0
 19 30  1  0
 11 14  1  0
M  ISO  2  12  14  13  14
M  END
>  <DihAtoms>  (1) 
4,10,13,14

>  <DihDeg>  (1) 
-118.56017576723124

$$$$
