
 OpenBabel03252503203D

 36 39  0  0  0  0  0  0  0  0999 V2000
   38.2220   32.7750   39.9720 C   0  0  0  0  0  0  0  0  0  0  0  0
   37.6290   33.8970   39.8600 O   0  0  0  0  0  0  0  0  0  0  0  0
   37.6330   31.5740   40.6500 C   0  0  0  0  0  0  0  0  0  0  0  0
   38.2010   30.8570   41.6740 C   0  0  0  0  0  0  0  0  0  0  0  0
   37.3090   29.8710   41.9560 N   0  0  0  0  0  0  0  0  0  0  0  0
   36.2560   29.9970   41.1360 C   0  0  0  0  0  0  0  0  0  0  0  0
   36.4460   31.0430   40.3260 N   0  0  0  0  0  0  0  0  0  0  0  0
   35.0840   29.2180   41.0480 N   0  0  0  0  0  0  0  0  0  0  0  0
   39.1400   31.0270   42.1550 H   0  0  0  0  0  0  0  0  0  0  0  0
   35.0210   28.5860   40.2110 H   0  0  0  0  0  0  0  0  0  0  0  0
   34.3340   29.2700   41.7710 H   0  0  0  0  0  0  0  0  0  0  0  0
   37.4280   28.8350   42.9650 C   0  0  0  0  0  0  0  0  0  0  0  0
   38.0580   29.2680   43.7710 H   0  0  0  0  0  0  0  0  0  0  0  0
   36.4270   28.6410   43.3590 H   0  0  0  0  0  0  0  0  0  0  0  0
   38.1030   27.5860   42.4690 C   0  0  0  0  0  3  0  0  0  0  0  0
   37.1550   26.4690   42.1960 C   0  0  0  0  0  2  0  0  0  0  0  0
   37.8320   25.1420   42.1790 C   0  0  0  0  0  2  0  0  0  0  0  0
   39.2480   25.1820   41.7100 C   0  0  0  0  0  2  0  0  0  0  0  0
   40.0950   26.1800   42.4370 C   0  0  0  0  0  2  0  0  0  0  0  0
   39.2330   27.1020   43.3110 C   0  0  0  0  0  2  0  0  0  0  0  0
   40.5690   33.4730   39.9430 C   0  0  0  0  0  0  0  0  0  0  0  0
   39.5190   32.7100   39.4010 C   0  0  0  0  0  0  0  0  0  0  0  0
   39.8710   31.9350   38.3130 C   0  0  0  0  0  0  0  0  0  0  0  0
   41.1080   31.9020   37.8070 N   0  0  0  0  0  0  0  0  0  0  0  0
   42.0910   32.6660   38.3750 C   0  0  0  0  0  0  0  0  0  0  0  0
   41.8020   33.4450   39.4410 N   0  0  0  0  0  0  0  0  0  0  0  0
   40.3440   34.0990   40.7990 H   0  0  0  0  0  0  0  0  0  0  0  0
   43.0650   32.5890   37.9100 H   0  0  0  0  0  0  0  0  0  0  0  0
   38.8630   31.1280   37.7050 C   0  0  0  0  0  0  0  0  0  0  0  0
   37.7620   31.3770   36.9470 C   0  0  0  0  0  0  0  0  0  0  0  0
   36.9860   30.4150   36.5040 C   0  0  0  0  0  0  0  0  0  0  0  0
   37.3340   29.1640   36.8360 C   0  0  0  0  0  0  0  0  0  0  0  0
   38.8420   29.3620   37.8310 S   0  0  0  0  0  0  0  0  0  0  0  0
   37.5900   32.4550   36.7460 H   0  0  0  0  0  0  0  0  0  0  0  0
   36.0960   30.5310   35.8980 H   0  0  0  0  0  0  0  0  0  0  0  0
   36.8620   28.1630   36.5990 H   0  0  0  0  0  0  0  0  0  0  0  0
  1  3  1  0  0  0  0
  2  1  2  0  0  0  0
  3  4  2  0  0  0  0
  4  5  1  0  0  0  0
  4  9  1  0  0  0  0
  5 12  1  0  0  0  0
  6  5  1  0  0  0  0
  7  3  1  0  0  0  0
  7  6  2  0  0  0  0
  8  6  1  0  0  0  0
  8 11  1  0  0  0  0
 10  8  1  0  0  0  0
 12 14  1  0  0  0  0
 12 13  1  0  0  0  0
 15 12  1  0  0  0  0
 15 20  1  0  0  0  0
 16 15  1  0  0  0  0
 17 16  1  0  0  0  0
 18 17  1  0  0  0  0
 18 19  1  0  0  0  0
 19 20  1  0  0  0  0
 21 27  1  0  0  0  0
 22 21  2  0  0  0  0
 22  1  1  0  0  0  0
 23 22  1  0  0  0  0
 24 23  2  0  0  0  0
 24 25  1  0  0  0  0
 25 26  2  0  0  0  0
 26 21  1  0  0  0  0
 28 25  1  0  0  0  0
 29 33  1  0  0  0  0
 29 23  1  0  0  0  0
 30 29  2  0  0  0  0
 31 32  2  0  0  0  0
 31 30  1  0  0  0  0
 32 33  1  0  0  0  0
 34 30  1  0  0  0  0
 35 31  1  0  0  0  0
 36 32  1  0  0  0  0
M  END
>  <minimizedAffinity>
-5.90597153

$$$$

 OpenBabel03252503203D

 36 39  0  0  0  0  0  0  0  0999 V2000
   39.3660   30.2410   40.0690 C   0  0  0  0  0  0  0  0  0  0  0  0
   40.2560   29.9660   39.2010 O   0  0  0  0  0  0  0  0  0  0  0  0
   38.8800   29.2800   41.1140 C   0  0  0  0  0  0  0  0  0  0  0  0
   39.4130   28.0480   41.3980 C   0  0  0  0  0  0  0  0  0  0  0  0
   38.6480   27.5530   42.4050 N   0  0  0  0  0  0  0  0  0  0  0  0
   37.7010   28.4520   42.7090 C   0  0  0  0  0  0  0  0  0  0  0  0
   37.8340   29.5210   41.9180 N   0  0  0  0  0  0  0  0  0  0  0  0
   36.6810   28.3940   43.6800 N   0  0  0  0  0  0  0  0  0  0  0  0
   40.2500   27.5690   40.9340 H   0  0  0  0  0  0  0  0  0  0  0  0
   35.7100   28.2450   43.3090 H   0  0  0  0  0  0  0  0  0  0  0  0
   36.8850   28.4930   44.6980 H   0  0  0  0  0  0  0  0  0  0  0  0
   38.7910   26.2740   43.0760 C   0  0  0  0  0  0  0  0  0  0  0  0
   39.8800   26.1480   43.2600 H   0  0  0  0  0  0  0  0  0  0  0  0
   38.2730   26.3440   44.0370 H   0  0  0  0  0  0  0  0  0  0  0  0
   38.3230   25.1060   42.2530 C   0  0  0  0  0  3  0  0  0  0  0  0
   39.4070   24.4770   41.4470 C   0  0  0  0  0  2  0  0  0  0  0  0
   38.8760   23.6740   40.3100 C   0  0  0  0  0  2  0  0  0  0  0  0
   37.5450   23.0490   40.5700 C   0  0  0  0  0  2  0  0  0  0  0  0
   36.5070   24.0190   41.0420 C   0  0  0  0  0  2  0  0  0  0  0  0
   37.1370   25.3740   41.3910 C   0  0  0  0  0  2  0  0  0  0  0  0
   39.4670   32.6120   40.6740 C   0  0  0  0  0  0  0  0  0  0  0  0
   38.8310   31.5540   40.0010 C   0  0  0  0  0  0  0  0  0  0  0  0
   37.6930   31.9130   39.3050 C   0  0  0  0  0  0  0  0  0  0  0  0
   37.2220   33.1640   39.2670 N   0  0  0  0  0  0  0  0  0  0  0  0
   37.8820   34.1550   39.9400 C   0  0  0  0  0  0  0  0  0  0  0  0
   39.0010   33.8600   40.6390 N   0  0  0  0  0  0  0  0  0  0  0  0
   40.3650   32.3820   41.2350 H   0  0  0  0  0  0  0  0  0  0  0  0
   37.4420   35.1410   39.8640 H   0  0  0  0  0  0  0  0  0  0  0  0
   36.9880   30.8960   38.5930 C   0  0  0  0  0  0  0  0  0  0  0  0
   35.9880   30.0270   38.8990 C   0  0  0  0  0  0  0  0  0  0  0  0
   35.5130   29.1730   38.0220 C   0  0  0  0  0  0  0  0  0  0  0  0
   36.0640   29.1980   36.8010 C   0  0  0  0  0  0  0  0  0  0  0  0
   37.3260   30.5030   36.9000 S   0  0  0  0  0  0  0  0  0  0  0  0
   35.6220   30.1140   39.9420 H   0  0  0  0  0  0  0  0  0  0  0  0
   34.7210   28.4520   38.1870 H   0  0  0  0  0  0  0  0  0  0  0  0
   35.8590   28.5890   35.8690 H   0  0  0  0  0  0  0  0  0  0  0  0
  1  3  1  0  0  0  0
  2  1  2  0  0  0  0
  3  4  2  0  0  0  0
  3  7  1  0  0  0  0
  4  5  1  0  0  0  0
  5  6  1  0  0  0  0
  5 12  1  0  0  0  0
  6  8  1  0  0  0  0
  7  6  2  0  0  0  0
  8 11  1  0  0  0  0
  9  4  1  0  0  0  0
 10  8  1  0  0  0  0
 12 13  1  0  0  0  0
 12 14  1  0  0  0  0
 15 12  1  0  0  0  0
 16 15  1  0  0  0  0
 17 18  1  0  0  0  0
 17 16  1  0  0  0  0
 18 19  1  0  0  0  0
 19 20  1  0  0  0  0
 20 15  1  0  0  0  0
 21 27  1  0  0  0  0
 22  1  1  0  0  0  0
 22 21  2  0  0  0  0
 23 22  1  0  0  0  0
 24 23  2  0  0  0  0
 24 25  1  0  0  0  0
 25 26  2  0  0  0  0
 26 21  1  0  0  0  0
 28 25  1  0  0  0  0
 29 30  2  0  0  0  0
 29 23  1  0  0  0  0
 30 34  1  0  0  0  0
 31 35  1  0  0  0  0
 31 30  1  0  0  0  0
 32 33  1  0  0  0  0
 32 31  2  0  0  0  0
 33 29  1  0  0  0  0
 36 32  1  0  0  0  0
M  END
>  <minimizedAffinity>
-5.88525343

$$$$

 OpenBabel03252503203D

 36 39  0  0  0  0  0  0  0  0999 V2000
   37.2740   27.7280   42.5060 C   0  0  0  0  0  0  0  0  0  0  0  0
   36.3720   27.2930   43.2950 O   0  0  0  0  0  0  0  0  0  0  0  0
   37.0510   28.7950   41.4760 C   0  0  0  0  0  0  0  0  0  0  0  0
   36.9530   28.6090   40.1190 C   0  0  0  0  0  0  0  0  0  0  0  0
   36.7550   29.8500   39.6030 N   0  0  0  0  0  0  0  0  0  0  0  0
   36.7350   30.7360   40.6100 C   0  0  0  0  0  0  0  0  0  0  0  0
   36.9170   30.0960   41.7680 N   0  0  0  0  0  0  0  0  0  0  0  0
   36.5580   32.1340   40.5760 N   0  0  0  0  0  0  0  0  0  0  0  0
   37.0170   27.6920   39.5740 H   0  0  0  0  0  0  0  0  0  0  0  0
   37.4200   32.7050   40.7600 H   0  0  0  0  0  0  0  0  0  0  0  0
   35.6280   32.5660   40.3800 H   0  0  0  0  0  0  0  0  0  0  0  0
   36.5850   30.2100   38.2080 C   0  0  0  0  0  0  0  0  0  0  0  0
   36.0090   31.1590   38.2070 H   0  0  0  0  0  0  0  0  0  0  0  0
   37.5790   30.3950   37.7900 H   0  0  0  0  0  0  0  0  0  0  0  0
   35.8070   29.1960   37.4150 C   0  0  0  0  0  3  0  0  0  0  0  0
   35.9430   29.3670   35.9410 C   0  0  0  0  0  2  0  0  0  0  0  0
   34.8380   28.7100   35.1880 C   0  0  0  0  0  2  0  0  0  0  0  0
   34.2860   27.4900   35.8500 C   0  0  0  0  0  2  0  0  0  0  0  0
   33.8780   27.7110   37.2730 C   0  0  0  0  0  2  0  0  0  0  0  0
   34.3680   29.0730   37.7830 C   0  0  0  0  0  2  0  0  0  0  0  0
   39.5500   27.7740   43.4070 C   0  0  0  0  0  0  0  0  0  0  0  0
   38.5530   27.1310   42.6530 C   0  0  0  0  0  0  0  0  0  0  0  0
   38.9340   25.9230   42.1020 C   0  0  0  0  0  0  0  0  0  0  0  0
   40.1510   25.3950   42.2650 N   0  0  0  0  0  0  0  0  0  0  0  0
   41.0830   26.0640   43.0100 C   0  0  0  0  0  0  0  0  0  0  0  0
   40.7650   27.2520   43.5710 N   0  0  0  0  0  0  0  0  0  0  0  0
   39.3010   28.7260   43.8610 H   0  0  0  0  0  0  0  0  0  0  0  0
   42.0460   25.5760   43.0960 H   0  0  0  0  0  0  0  0  0  0  0  0
   37.9770   25.2050   41.3220 C   0  0  0  0  0  0  0  0  0  0  0  0
   36.9020   24.4220   41.6030 C   0  0  0  0  0  0  0  0  0  0  0  0
   36.1730   23.8710   40.6600 C   0  0  0  0  0  0  0  0  0  0  0  0
   36.5420   24.1200   39.3950 C   0  0  0  0  0  0  0  0  0  0  0  0
   38.0020   25.1920   39.5510 S   0  0  0  0  0  0  0  0  0  0  0  0
   36.7080   24.2990   42.6880 H   0  0  0  0  0  0  0  0  0  0  0  0
   35.3060   23.2380   40.8020 H   0  0  0  0  0  0  0  0  0  0  0  0
   36.1080   23.7850   38.4050 H   0  0  0  0  0  0  0  0  0  0  0  0
  1 22  1  0  0  0  0
  1  2  2  0  0  0  0
  3  7  1  0  0  0  0
  3  1  1  0  0  0  0
  4  3  2  0  0  0  0
  5  4  1  0  0  0  0
  5  6  1  0  0  0  0
  6  7  2  0  0  0  0
  8  6  1  0  0  0  0
  8 10  1  0  0  0  0
  9  4  1  0  0  0  0
 11  8  1  0  0  0  0
 12  5  1  0  0  0  0
 13 12  1  0  0  0  0
 14 12  1  0  0  0  0
 15 20  1  0  0  0  0
 15 12  1  0  0  0  0
 16 15  1  0  0  0  0
 17 18  1  0  0  0  0
 17 16  1  0  0  0  0
 18 19  1  0  0  0  0
 19 20  1  0  0  0  0
 21 26  1  0  0  0  0
 21 27  1  0  0  0  0
 22 21  2  0  0  0  0
 23 24  2  0  0  0  0
 23 22  1  0  0  0  0
 24 25  1  0  0  0  0
 25 28  1  0  0  0  0
 25 26  2  0  0  0  0
 29 30  2  0  0  0  0
 29 23  1  0  0  0  0
 30 34  1  0  0  0  0
 31 35  1  0  0  0  0
 31 30  1  0  0  0  0
 32 33  1  0  0  0  0
 32 31  2  0  0  0  0
 33 29  1  0  0  0  0
 36 32  1  0  0  0  0
M  END
>  <minimizedAffinity>
-5.87829924

$$$$

 OpenBabel03252503203D

 36 39  0  0  0  0  0  0  0  0999 V2000
   41.1480   30.8540   41.3680 C   0  0  0  0  0  0  0  0  0  0  0  0
   41.7140   31.8390   41.9430 O   0  0  0  0  0  0  0  0  0  0  0  0
   40.2170   29.8970   42.0540 C   0  0  0  0  0  0  0  0  0  0  0  0
   40.4510   28.5670   42.2960 C   0  0  0  0  0  0  0  0  0  0  0  0
   39.3370   28.1200   42.9330 N   0  0  0  0  0  0  0  0  0  0  0  0
   38.4780   29.1420   43.0640 C   0  0  0  0  0  0  0  0  0  0  0  0
   39.0110   30.2420   42.5250 N   0  0  0  0  0  0  0  0  0  0  0  0
   37.1980   29.1730   43.6550 N   0  0  0  0  0  0  0  0  0  0  0  0
   41.3170   27.9930   42.0450 H   0  0  0  0  0  0  0  0  0  0  0  0
   36.3910   29.2400   42.9860 H   0  0  0  0  0  0  0  0  0  0  0  0
   37.0690   29.1310   44.6900 H   0  0  0  0  0  0  0  0  0  0  0  0
   39.0720   26.7770   43.4120 C   0  0  0  0  0  0  0  0  0  0  0  0
   40.0460   26.3890   43.7810 H   0  0  0  0  0  0  0  0  0  0  0  0
   38.3770   26.8550   44.2530 H   0  0  0  0  0  0  0  0  0  0  0  0
   38.5770   25.8420   42.3420 C   0  0  0  0  0  3  0  0  0  0  0  0
   37.1000   25.6470   42.3640 C   0  0  0  0  0  2  0  0  0  0  0  0
   36.6810   24.4030   41.6610 C   0  0  0  0  0  2  0  0  0  0  0  0
   37.5680   24.0120   40.5250 C   0  0  0  0  0  2  0  0  0  0  0  0
   39.0160   23.9310   40.8940 C   0  0  0  0  0  2  0  0  0  0  0  0
   39.2650   24.5210   42.2890 C   0  0  0  0  0  2  0  0  0  0  0  0
   42.5720   29.9440   39.5960 C   0  0  0  0  0  0  0  0  0  0  0  0
   41.4500   30.6940   39.9910 C   0  0  0  0  0  0  0  0  0  0  0  0
   40.7170   31.2280   38.9490 C   0  0  0  0  0  0  0  0  0  0  0  0
   41.0360   31.0540   37.6630 N   0  0  0  0  0  0  0  0  0  0  0  0
   42.1390   30.3140   37.3360 C   0  0  0  0  0  0  0  0  0  0  0  0
   42.8950   29.7680   38.3150 N   0  0  0  0  0  0  0  0  0  0  0  0
   43.1810   29.5030   40.3760 H   0  0  0  0  0  0  0  0  0  0  0  0
   42.3360   30.2170   36.2760 H   0  0  0  0  0  0  0  0  0  0  0  0
   39.5600   32.0030   39.2660 C   0  0  0  0  0  0  0  0  0  0  0  0
   38.2220   31.7640   39.2970 C   0  0  0  0  0  0  0  0  0  0  0  0
   37.3540   32.6880   39.6380 C   0  0  0  0  0  0  0  0  0  0  0  0
   37.8540   33.8900   39.9590 C   0  0  0  0  0  0  0  0  0  0  0  0
   39.6520   33.7000   39.7650 S   0  0  0  0  0  0  0  0  0  0  0  0
   37.9450   30.7290   39.0100 H   0  0  0  0  0  0  0  0  0  0  0  0
   36.2780   32.5760   39.6880 H   0  0  0  0  0  0  0  0  0  0  0  0
   37.3530   34.8510   40.2840 H   0  0  0  0  0  0  0  0  0  0  0  0
  1  2  2  0  0  0  0
  1  3  1  0  0  0  0
  3  4  2  0  0  0  0
  3  7  1  0  0  0  0
  4  5  1  0  0  0  0
  5  6  1  0  0  0  0
  5 12  1  0  0  0  0
  6  8  1  0  0  0  0
  7  6  2  0  0  0  0
  8 11  1  0  0  0  0
  9  4  1  0  0  0  0
 10  8  1  0  0  0  0
 12 13  1  0  0  0  0
 12 14  1  0  0  0  0
 15 16  1  0  0  0  0
 15 12  1  0  0  0  0
 17 16  1  0  0  0  0
 18 19  1  0  0  0  0
 18 17  1  0  0  0  0
 19 20  1  0  0  0  0
 20 15  1  0  0  0  0
 21 22  1  0  0  0  0
 21 27  1  0  0  0  0
 22  1  1  0  0  0  0
 23 29  1  0  0  0  0
 23 22  2  0  0  0  0
 24 23  1  0  0  0  0
 25 24  2  0  0  0  0
 25 26  1  0  0  0  0
 26 21  2  0  0  0  0
 28 25  1  0  0  0  0
 29 30  2  0  0  0  0
 29 33  1  0  0  0  0
 30 31  1  0  0  0  0
 31 35  1  0  0  0  0
 31 32  2  0  0  0  0
 32 36  1  0  0  0  0
 33 32  1  0  0  0  0
 34 30  1  0  0  0  0
M  END
>  <minimizedAffinity>
-5.75949192

$$$$

 OpenBabel03252503203D

 36 39  0  0  0  0  0  0  0  0999 V2000
   39.9990   32.7650   39.9290 C   0  0  0  0  0  0  0  0  0  0  0  0
   40.0690   34.0280   40.0800 O   0  0  0  0  0  0  0  0  0  0  0  0
   39.0190   31.8820   40.6440 C   0  0  0  0  0  0  0  0  0  0  0  0
   39.3170   30.9330   41.5890 C   0  0  0  0  0  0  0  0  0  0  0  0
   38.1210   30.3960   41.9440 N   0  0  0  0  0  0  0  0  0  0  0  0
   37.1520   31.0010   41.2410 C   0  0  0  0  0  0  0  0  0  0  0  0
   37.6950   31.9180   40.4350 N   0  0  0  0  0  0  0  0  0  0  0  0
   35.7580   30.7910   41.2610 N   0  0  0  0  0  0  0  0  0  0  0  0
   40.2780   30.6640   41.9730 H   0  0  0  0  0  0  0  0  0  0  0  0
   35.3620   30.2960   40.4240 H   0  0  0  0  0  0  0  0  0  0  0  0
   35.1660   31.1090   42.0590 H   0  0  0  0  0  0  0  0  0  0  0  0
   37.8770   29.3470   42.9160 C   0  0  0  0  0  0  0  0  0  0  0  0
   38.5700   29.5480   43.7600 H   0  0  0  0  0  0  0  0  0  0  0  0
   36.8470   29.4520   43.2670 H   0  0  0  0  0  0  0  0  0  0  0  0
   38.1690   27.9650   42.3970 C   0  0  0  0  0  3  0  0  0  0  0  0
   36.9430   27.1570   42.1440 C   0  0  0  0  0  2  0  0  0  0  0  0
   37.2250   25.6950   42.1040 C   0  0  0  0  0  2  0  0  0  0  0  0
   38.5860   25.3470   41.5980 C   0  0  0  0  0  2  0  0  0  0  0  0
   39.6920   26.0640   42.3060 C   0  0  0  0  0  2  0  0  0  0  0  0
   39.1410   27.1780   43.2070 C   0  0  0  0  0  2  0  0  0  0  0  0
   40.5130   31.8150   37.7310 C   0  0  0  0  0  0  0  0  0  0  0  0
   40.9310   32.2070   39.0160 C   0  0  0  0  0  0  0  0  0  0  0  0
   42.2720   32.0010   39.2750 C   0  0  0  0  0  0  0  0  0  0  0  0
   43.1170   31.4710   38.3850 N   0  0  0  0  0  0  0  0  0  0  0  0
   42.6560   31.1080   37.1490 C   0  0  0  0  0  0  0  0  0  0  0  0
   41.3520   31.2860   36.8420 N   0  0  0  0  0  0  0  0  0  0  0  0
   39.4690   31.9570   37.4780 H   0  0  0  0  0  0  0  0  0  0  0  0
   43.3970   30.6860   36.4830 H   0  0  0  0  0  0  0  0  0  0  0  0
   42.7770   32.3730   40.5580 C   0  0  0  0  0  0  0  0  0  0  0  0
   42.8500   31.7690   41.7730 C   0  0  0  0  0  0  0  0  0  0  0  0
   43.3850   32.3610   42.8170 C   0  0  0  0  0  0  0  0  0  0  0  0
   43.8610   33.5990   42.6250 C   0  0  0  0  0  0  0  0  0  0  0  0
   43.5310   33.9450   40.8700 S   0  0  0  0  0  0  0  0  0  0  0  0
   42.4200   30.7470   41.7930 H   0  0  0  0  0  0  0  0  0  0  0  0
   43.4800   31.9480   43.8130 H   0  0  0  0  0  0  0  0  0  0  0  0
   44.3630   34.3300   43.3280 H   0  0  0  0  0  0  0  0  0  0  0  0
  1  2  2  0  0  0  0
  1  3  1  0  0  0  0
  3  4  2  0  0  0  0
  4  5  1  0  0  0  0
  4  9  1  0  0  0  0
  5 12  1  0  0  0  0
  6  8  1  0  0  0  0
  6  5  1  0  0  0  0
  7  3  1  0  0  0  0
  7  6  2  0  0  0  0
  8 11  1  0  0  0  0
 10  8  1  0  0  0  0
 12 14  1  0  0  0  0
 12 13  1  0  0  0  0
 15 12  1  0  0  0  0
 15 20  1  0  0  0  0
 16 15  1  0  0  0  0
 17 16  1  0  0  0  0
 18 17  1  0  0  0  0
 18 19  1  0  0  0  0
 19 20  1  0  0  0  0
 21 22  1  0  0  0  0
 22 23  2  0  0  0  0
 22  1  1  0  0  0  0
 23 29  1  0  0  0  0
 24 23  1  0  0  0  0
 25 24  2  0  0  0  0
 26 25  1  0  0  0  0
 26 21  2  0  0  0  0
 27 21  1  0  0  0  0
 28 25  1  0  0  0  0
 29 33  1  0  0  0  0
 29 30  2  0  0  0  0
 30 34  1  0  0  0  0
 30 31  1  0  0  0  0
 31 35  1  0  0  0  0
 32 31  2  0  0  0  0
 32 36  1  0  0  0  0
 33 32  1  0  0  0  0
M  END
>  <minimizedAffinity>
-5.73602676

$$$$

 OpenBabel03252503203D

 36 39  0  0  0  0  0  0  0  0999 V2000
   36.9080   29.9290   36.5850 C   0  0  0  0  0  0  0  0  0  0  0  0
   36.8870   30.6500   35.5360 O   0  0  0  0  0  0  0  0  0  0  0  0
   36.9150   30.4720   37.9840 C   0  0  0  0  0  0  0  0  0  0  0  0
   36.7860   29.7440   39.1400 C   0  0  0  0  0  0  0  0  0  0  0  0
   36.8510   30.6570   40.1440 N   0  0  0  0  0  0  0  0  0  0  0  0
   37.0120   31.8750   39.6080 C   0  0  0  0  0  0  0  0  0  0  0  0
   37.0520   31.7720   38.2770 N   0  0  0  0  0  0  0  0  0  0  0  0
   37.1320   33.1300   40.2400 N   0  0  0  0  0  0  0  0  0  0  0  0
   36.6620   28.6870   39.2430 H   0  0  0  0  0  0  0  0  0  0  0  0
   36.2950   33.7590   40.1630 H   0  0  0  0  0  0  0  0  0  0  0  0
   37.9990   33.4070   40.7500 H   0  0  0  0  0  0  0  0  0  0  0  0
   36.7670   30.4080   41.5710 C   0  0  0  0  0  0  0  0  0  0  0  0
   37.0660   31.3580   42.0630 H   0  0  0  0  0  0  0  0  0  0  0  0
   35.7210   30.1950   41.8100 H   0  0  0  0  0  0  0  0  0  0  0  0
   37.6980   29.3270   42.0500 C   0  0  0  0  0  3  0  0  0  0  0  0
   37.0110   28.2550   42.8240 C   0  0  0  0  0  2  0  0  0  0  0  0
   37.9530   27.4810   43.6800 C   0  0  0  0  0  2  0  0  0  0  0  0
   39.3350   27.3690   43.1250 C   0  0  0  0  0  2  0  0  0  0  0  0
   39.9420   28.6860   42.7550 C   0  0  0  0  0  2  0  0  0  0  0  0
   38.8950   29.8080   42.7950 C   0  0  0  0  0  2  0  0  0  0  0  0
   38.1520   27.8500   36.2210 C   0  0  0  0  0  0  0  0  0  0  0  0
   36.9270   28.5270   36.3620 C   0  0  0  0  0  0  0  0  0  0  0  0
   35.8090   27.7230   36.2640 C   0  0  0  0  0  0  0  0  0  0  0  0
   35.8710   26.4040   36.0530 N   0  0  0  0  0  0  0  0  0  0  0  0
   37.0900   25.7980   35.9240 C   0  0  0  0  0  0  0  0  0  0  0  0
   38.2180   26.5370   36.0100 N   0  0  0  0  0  0  0  0  0  0  0  0
   39.0600   28.4370   36.2900 H   0  0  0  0  0  0  0  0  0  0  0  0
   37.0610   24.7290   35.7540 H   0  0  0  0  0  0  0  0  0  0  0  0
   34.5250   28.3330   36.3970 C   0  0  0  0  0  0  0  0  0  0  0  0
   33.6840   28.5860   37.4350 C   0  0  0  0  0  0  0  0  0  0  0  0
   32.5270   29.1830   37.2680 C   0  0  0  0  0  0  0  0  0  0  0  0
   32.2110   29.5370   36.0140 C   0  0  0  0  0  0  0  0  0  0  0  0
   33.6300   28.9920   35.0180 S   0  0  0  0  0  0  0  0  0  0  0  0
   34.0680   28.2420   38.4170 H   0  0  0  0  0  0  0  0  0  0  0  0
   31.8050   29.4190   38.0400 H   0  0  0  0  0  0  0  0  0  0  0  0
   31.3000   30.0540   35.5850 H   0  0  0  0  0  0  0  0  0  0  0  0
  1  3  1  0  0  0  0
  2  1  2  0  0  0  0
  3  7  1  0  0  0  0
  3  4  2  0  0  0  0
  4  9  1  0  0  0  0
  4  5  1  0  0  0  0
  5 12  1  0  0  0  0
  6  5  1  0  0  0  0
  6  8  1  0  0  0  0
  7  6  2  0  0  0  0
  8 11  1  0  0  0  0
 10  8  1  0  0  0  0
 12 14  1  0  0  0  0
 12 15  1  0  0  0  0
 12 13  1  0  0  0  0
 15 20  1  0  0  0  0
 15 16  1  0  0  0  0
 16 17  1  0  0  0  0
 18 17  1  0  0  0  0
 19 20  1  0  0  0  0
 19 18  1  0  0  0  0
 21 27  1  0  0  0  0
 21 22  1  0  0  0  0
 22  1  1  0  0  0  0
 23 22  2  0  0  0  0
 23 29  1  0  0  0  0
 24 23  1  0  0  0  0
 25 26  1  0  0  0  0
 25 24  2  0  0  0  0
 26 21  2  0  0  0  0
 28 25  1  0  0  0  0
 29 30  2  0  0  0  0
 30 34  1  0  0  0  0
 31 30  1  0  0  0  0
 31 35  1  0  0  0  0
 32 31  2  0  0  0  0
 33 32  1  0  0  0  0
 33 29  1  0  0  0  0
 36 32  1  0  0  0  0
M  END
>  <minimizedAffinity>
-5.72188425

$$$$

 OpenBabel03252503203D

 36 39  0  0  0  0  0  0  0  0999 V2000
   39.3160   32.1180   40.7230 C   0  0  0  0  0  0  0  0  0  0  0  0
   38.4490   33.0140   40.9830 O   0  0  0  0  0  0  0  0  0  0  0  0
   39.5130   30.8720   41.5350 C   0  0  0  0  0  0  0  0  0  0  0  0
   38.5240   30.0760   42.0580 C   0  0  0  0  0  0  0  0  0  0  0  0
   39.1770   29.0780   42.7070 N   0  0  0  0  0  0  0  0  0  0  0  0
   40.4980   29.2710   42.5760 C   0  0  0  0  0  0  0  0  0  0  0  0
   40.7150   30.3750   41.8560 N   0  0  0  0  0  0  0  0  0  0  0  0
   41.5740   28.5060   43.0700 N   0  0  0  0  0  0  0  0  0  0  0  0
   37.4650   30.2020   41.9770 H   0  0  0  0  0  0  0  0  0  0  0  0
   42.1010   28.9300   43.8730 H   0  0  0  0  0  0  0  0  0  0  0  0
   41.8230   27.5790   42.6590 H   0  0  0  0  0  0  0  0  0  0  0  0
   38.5920   27.9660   43.4330 C   0  0  0  0  0  0  0  0  0  0  0  0
   39.2710   27.7720   44.2900 H   0  0  0  0  0  0  0  0  0  0  0  0
   37.6200   28.2920   43.8130 H   0  0  0  0  0  0  0  0  0  0  0  0
   38.4970   26.7010   42.6240 C   0  0  0  0  0  3  0  0  0  0  0  0
   37.0990   26.2180   42.4430 C   0  0  0  0  0  2  0  0  0  0  0  0
   37.0400   24.7730   42.0830 C   0  0  0  0  0  2  0  0  0  0  0  0
   38.2100   24.2900   41.2920 C   0  0  0  0  0  2  0  0  0  0  0  0
   39.5320   24.6100   41.9170 C   0  0  0  0  0  2  0  0  0  0  0  0
   39.3660   25.5840   43.0910 C   0  0  0  0  0  2  0  0  0  0  0  0
   41.2550   33.1890   39.6790 C   0  0  0  0  0  0  0  0  0  0  0  0
   40.1220   32.3620   39.5800 C   0  0  0  0  0  0  0  0  0  0  0  0
   39.8930   31.8420   38.3210 C   0  0  0  0  0  0  0  0  0  0  0  0
   40.6790   32.0970   37.2700 N   0  0  0  0  0  0  0  0  0  0  0  0
   41.7690   32.9100   37.4230 C   0  0  0  0  0  0  0  0  0  0  0  0
   42.0400   33.4470   38.6330 N   0  0  0  0  0  0  0  0  0  0  0  0
   41.4780   33.6220   40.6470 H   0  0  0  0  0  0  0  0  0  0  0  0
   42.3560   33.0710   36.5280 H   0  0  0  0  0  0  0  0  0  0  0  0
   38.7620   30.9900   38.1370 C   0  0  0  0  0  0  0  0  0  0  0  0
   37.4360   31.1900   37.9130 C   0  0  0  0  0  0  0  0  0  0  0  0
   36.5930   30.1930   37.7760 C   0  0  0  0  0  0  0  0  0  0  0  0
   37.1050   28.9580   37.8690 C   0  0  0  0  0  0  0  0  0  0  0  0
   38.8790   29.2240   38.1660 S   0  0  0  0  0  0  0  0  0  0  0  0
   37.1470   32.2590   37.8580 H   0  0  0  0  0  0  0  0  0  0  0  0
   35.5280   30.2690   37.5960 H   0  0  0  0  0  0  0  0  0  0  0  0
   36.6250   27.9360   37.7930 H   0  0  0  0  0  0  0  0  0  0  0  0
  1  2  2  0  0  0  0
  1  3  1  0  0  0  0
  3  7  1  0  0  0  0
  3  4  2  0  0  0  0
  4  5  1  0  0  0  0
  5 12  1  0  0  0  0
  6  5  1  0  0  0  0
  6  8  1  0  0  0  0
  7  6  2  0  0  0  0
  8 10  1  0  0  0  0
  9  4  1  0  0  0  0
 11  8  1  0  0  0  0
 12 14  1  0  0  0  0
 12 13  1  0  0  0  0
 15 20  1  0  0  0  0
 15 12  1  0  0  0  0
 16 15  1  0  0  0  0
 17 16  1  0  0  0  0
 18 19  1  0  0  0  0
 18 17  1  0  0  0  0
 19 20  1  0  0  0  0
 21 27  1  0  0  0  0
 22 21  1  0  0  0  0
 22  1  1  0  0  0  0
 23 22  2  0  0  0  0
 24 25  2  0  0  0  0
 24 23  1  0  0  0  0
 25 26  1  0  0  0  0
 26 21  2  0  0  0  0
 28 25  1  0  0  0  0
 29 33  1  0  0  0  0
 29 23  1  0  0  0  0
 30 29  2  0  0  0  0
 31 32  2  0  0  0  0
 31 30  1  0  0  0  0
 32 33  1  0  0  0  0
 34 30  1  0  0  0  0
 35 31  1  0  0  0  0
 36 32  1  0  0  0  0
M  END
>  <minimizedAffinity>
-5.67926168

$$$$

 OpenBabel03252503203D

 36 39  0  0  0  0  0  0  0  0999 V2000
   35.5370   29.1290   39.5720 C   0  0  0  0  0  0  0  0  0  0  0  0
   34.4260   29.2830   40.1760 O   0  0  0  0  0  0  0  0  0  0  0  0
   36.4490   30.2540   39.1820 C   0  0  0  0  0  0  0  0  0  0  0  0
   36.9370   31.2320   40.0130 C   0  0  0  0  0  0  0  0  0  0  0  0
   37.7110   32.0180   39.2200 N   0  0  0  0  0  0  0  0  0  0  0  0
   37.6860   31.5280   37.9720 C   0  0  0  0  0  0  0  0  0  0  0  0
   36.9100   30.4410   37.9380 N   0  0  0  0  0  0  0  0  0  0  0  0
   38.3290   31.9950   36.8080 N   0  0  0  0  0  0  0  0  0  0  0  0
   36.7550   31.3590   41.0590 H   0  0  0  0  0  0  0  0  0  0  0  0
   37.7060   32.4570   36.1000 H   0  0  0  0  0  0  0  0  0  0  0  0
   39.3570   31.8850   36.6660 H   0  0  0  0  0  0  0  0  0  0  0  0
   38.4610   33.1980   39.6100 C   0  0  0  0  0  0  0  0  0  0  0  0
   38.3270   33.9280   38.7830 H   0  0  0  0  0  0  0  0  0  0  0  0
   38.0020   33.5980   40.5180 H   0  0  0  0  0  0  0  0  0  0  0  0
   39.9350   32.9480   39.7730 C   0  0  0  0  0  3  0  0  0  0  0  0
   40.2710   32.1710   40.9990 C   0  0  0  0  0  2  0  0  0  0  0  0
   41.6950   32.3390   41.4050 C   0  0  0  0  0  2  0  0  0  0  0  0
   42.6330   32.5700   40.2670 C   0  0  0  0  0  2  0  0  0  0  0  0
   42.2210   33.6910   39.3650 C   0  0  0  0  0  2  0  0  0  0  0  0
   40.7960   34.1610   39.6860 C   0  0  0  0  0  2  0  0  0  0  0  0
   35.4730   27.2020   38.0620 C   0  0  0  0  0  0  0  0  0  0  0  0
   35.8870   27.7860   39.2720 C   0  0  0  0  0  0  0  0  0  0  0  0
   36.6300   26.9570   40.0900 C   0  0  0  0  0  0  0  0  0  0  0  0
   36.9390   25.6970   39.7680 N   0  0  0  0  0  0  0  0  0  0  0  0
   36.5090   25.1790   38.5770 C   0  0  0  0  0  0  0  0  0  0  0  0
   35.7770   25.9460   37.7380 N   0  0  0  0  0  0  0  0  0  0  0  0
   34.8870   27.8120   37.3850 H   0  0  0  0  0  0  0  0  0  0  0  0
   36.7960   24.1530   38.3870 H   0  0  0  0  0  0  0  0  0  0  0  0
   37.0900   27.4760   41.3380 C   0  0  0  0  0  0  0  0  0  0  0  0
   36.5740   27.5580   42.5930 C   0  0  0  0  0  0  0  0  0  0  0  0
   37.2370   28.1010   43.5870 C   0  0  0  0  0  0  0  0  0  0  0  0
   38.4580   28.5760   43.3050 C   0  0  0  0  0  0  0  0  0  0  0  0
   38.6790   28.2340   41.5330 S   0  0  0  0  0  0  0  0  0  0  0  0
   35.5560   27.1260   42.6880 H   0  0  0  0  0  0  0  0  0  0  0  0
   36.8970   28.2040   44.6100 H   0  0  0  0  0  0  0  0  0  0  0  0
   39.2360   29.0840   43.9500 H   0  0  0  0  0  0  0  0  0  0  0  0
  1  2  2  0  0  0  0
  3  1  1  0  0  0  0
  3  4  2  0  0  0  0
  4  9  1  0  0  0  0
  5 12  1  0  0  0  0
  5  4  1  0  0  0  0
  6  5  1  0  0  0  0
  7  6  2  0  0  0  0
  7  3  1  0  0  0  0
  8  6  1  0  0  0  0
 10  8  1  0  0  0  0
 11  8  1  0  0  0  0
 12 15  1  0  0  0  0
 12 14  1  0  0  0  0
 13 12  1  0  0  0  0
 15 16  1  0  0  0  0
 16 17  1  0  0  0  0
 18 17  1  0  0  0  0
 19 20  1  0  0  0  0
 19 18  1  0  0  0  0
 20 15  1  0  0  0  0
 21 22  1  0  0  0  0
 22  1  1  0  0  0  0
 22 23  2  0  0  0  0
 23 29  1  0  0  0  0
 24 23  1  0  0  0  0
 25 24  2  0  0  0  0
 26 21  2  0  0  0  0
 26 25  1  0  0  0  0
 27 21  1  0  0  0  0
 28 25  1  0  0  0  0
 29 33  1  0  0  0  0
 29 30  2  0  0  0  0
 30 34  1  0  0  0  0
 30 31  1  0  0  0  0
 31 35  1  0  0  0  0
 32 31  2  0  0  0  0
 32 36  1  0  0  0  0
 33 32  1  0  0  0  0
M  END
>  <minimizedAffinity>
-5.67077923

$$$$

 OpenBabel03252503203D

 36 39  0  0  0  0  0  0  0  0999 V2000
   40.9060   31.2740   38.1600 C   0  0  0  0  0  0  0  0  0  0  0  0
   41.1090   30.3570   37.2990 O   0  0  0  0  0  0  0  0  0  0  0  0
   39.6510   31.4090   38.9700 C   0  0  0  0  0  0  0  0  0  0  0  0
   39.0940   30.4480   39.7770 C   0  0  0  0  0  0  0  0  0  0  0  0
   37.9790   31.0230   40.2970 N   0  0  0  0  0  0  0  0  0  0  0  0
   37.8760   32.2720   39.8210 C   0  0  0  0  0  0  0  0  0  0  0  0
   38.9020   32.5200   39.0010 N   0  0  0  0  0  0  0  0  0  0  0  0
   36.8970   33.2540   40.0710 N   0  0  0  0  0  0  0  0  0  0  0  0
   39.4520   29.4580   39.9640 H   0  0  0  0  0  0  0  0  0  0  0  0
   36.2270   33.4380   39.2840 H   0  0  0  0  0  0  0  0  0  0  0  0
   36.8460   33.7610   40.9830 H   0  0  0  0  0  0  0  0  0  0  0  0
   37.0280   30.4290   41.2180 C   0  0  0  0  0  0  0  0  0  0  0  0
   36.8930   31.1700   42.0350 H   0  0  0  0  0  0  0  0  0  0  0  0
   36.0800   30.3100   40.6850 H   0  0  0  0  0  0  0  0  0  0  0  0
   37.5070   29.1440   41.8340 C   0  0  0  0  0  3  0  0  0  0  0  0
   36.4200   28.1450   42.0420 C   0  0  0  0  0  2  0  0  0  0  0  0
   36.7820   27.1150   43.0540 C   0  0  0  0  0  2  0  0  0  0  0  0
   38.2410   26.8010   43.1160 C   0  0  0  0  0  2  0  0  0  0  0  0
   39.1090   28.0090   43.2800 C   0  0  0  0  0  2  0  0  0  0  0  0
   38.3020   29.3000   43.0850 C   0  0  0  0  0  2  0  0  0  0  0  0
   42.1720   33.2170   37.3740 C   0  0  0  0  0  0  0  0  0  0  0  0
   41.9680   32.2010   38.3250 C   0  0  0  0  0  0  0  0  0  0  0  0
   42.8630   32.2060   39.3770 C   0  0  0  0  0  0  0  0  0  0  0  0
   43.8500   33.1000   39.4940 N   0  0  0  0  0  0  0  0  0  0  0  0
   44.0030   34.0670   38.5390 C   0  0  0  0  0  0  0  0  0  0  0  0
   43.1550   34.1090   37.4870 N   0  0  0  0  0  0  0  0  0  0  0  0
   41.4960   33.2560   36.5280 H   0  0  0  0  0  0  0  0  0  0  0  0
   44.8240   34.7540   38.7010 H   0  0  0  0  0  0  0  0  0  0  0  0
   42.7230   31.2070   40.3870 C   0  0  0  0  0  0  0  0  0  0  0  0
   42.1480   31.1590   41.6180 C   0  0  0  0  0  0  0  0  0  0  0  0
   42.1650   30.0730   42.3560 C   0  0  0  0  0  0  0  0  0  0  0  0
   42.7810   29.0040   41.8330 C   0  0  0  0  0  0  0  0  0  0  0  0
   43.3680   29.5670   40.2080 S   0  0  0  0  0  0  0  0  0  0  0  0
   41.6730   32.1120   41.9270 H   0  0  0  0  0  0  0  0  0  0  0  0
   41.7320   29.9560   43.3410 H   0  0  0  0  0  0  0  0  0  0  0  0
   42.9450   27.9590   42.2350 H   0  0  0  0  0  0  0  0  0  0  0  0
  1 22  1  0  0  0  0
  1  3  1  0  0  0  0
  2  1  2  0  0  0  0
  3  7  1  0  0  0  0
  3  4  2  0  0  0  0
  4  9  1  0  0  0  0
  4  5  1  0  0  0  0
  5 12  1  0  0  0  0
  6  8  1  0  0  0  0
  6  5  1  0  0  0  0
  7  6  2  0  0  0  0
  8 11  1  0  0  0  0
 10  8  1  0  0  0  0
 12 15  1  0  0  0  0
 12 13  1  0  0  0  0
 14 12  1  0  0  0  0
 15 16  1  0  0  0  0
 15 20  1  0  0  0  0
 16 17  1  0  0  0  0
 17 18  1  0  0  0  0
 18 19  1  0  0  0  0
 20 19  1  0  0  0  0
 21 26  2  0  0  0  0
 21 22  1  0  0  0  0
 22 23  2  0  0  0  0
 23 24  1  0  0  0  0
 23 29  1  0  0  0  0
 25 28  1  0  0  0  0
 25 24  2  0  0  0  0
 26 25  1  0  0  0  0
 27 21  1  0  0  0  0
 29 30  2  0  0  0  0
 30 34  1  0  0  0  0
 30 31  1  0  0  0  0
 31 35  1  0  0  0  0
 32 36  1  0  0  0  0
 32 31  2  0  0  0  0
 33 29  1  0  0  0  0
 33 32  1  0  0  0  0
M  END
>  <minimizedAffinity>
-5.58710861

$$$$
