
 OpenBabel03252505493D

 19 20  0  0  0  0  0  0  0  0999 V2000
   45.4610   34.3410   45.6650 C   0  0  0  0  0  0  0  0  0  0  0  0
   45.3740   34.3990   44.2750 C   0  0  0  0  0  0  0  0  0  0  0  0
   45.6240   33.2280   43.5760 C   0  0  0  0  0  0  0  0  0  0  0  0
   45.9360   32.0980   44.2490 N   0  0  0  0  0  0  0  0  0  0  0  0
   46.0090   32.0900   45.5920 C   0  0  0  0  0  0  0  0  0  0  0  0
   45.7760   33.1980   46.3210 N   0  0  0  0  0  0  0  0  0  0  0  0
   45.2800   35.2110   46.2730 H   0  0  0  0  0  0  0  0  0  0  0  0
   45.5510   33.2970   42.5050 H   0  0  0  0  0  0  0  0  0  0  0  0
   45.0170   35.7230   43.6660 C   0  0  0  0  0  0  0  0  0  0  0  0
   44.8880   36.6000   44.7180 F   0  0  0  0  0  0  0  0  0  0  0  0
   43.8200   35.5700   43.0160 F   0  0  0  0  0  0  0  0  0  0  0  0
   46.0260   36.0590   42.7840 F   0  0  0  0  0  0  0  0  0  0  0  0
   46.3310   30.9250   46.2950 O   0  0  0  0  0  0  0  0  0  0  0  0
   46.1480   29.6380   45.7370 C   0  0  0  0  0  3  0  0  0  0  0  0
   45.2630   28.8020   46.6140 C   0  0  0  0  0  2  0  0  0  0  0  0
   45.9960   27.7950   47.4420 C   0  0  0  0  0  2  0  0  0  0  0  0
   46.9380   26.9320   46.6520 C   0  0  0  0  0  2  0  0  0  0  0  0
   47.4160   27.5520   45.3680 C   0  0  0  0  0  2  0  0  0  0  0  0
   47.5270   29.0340   45.5650 C   0  0  0  0  0  2  0  0  0  0  0  0
  1  7  1  0  0  0  0
  1  6  1  0  0  0  0
  2  1  2  0  0  0  0
  3  4  2  0  0  0  0
  3  2  1  0  0  0  0
  4  5  1  0  0  0  0
  5 13  1  0  0  0  0
  5  6  2  0  0  0  0
  8  3  1  0  0  0  0
  9  2  1  0  0  0  0
  9 10  1  0  0  0  0
 11  9  1  0  0  0  0
 12  9  1  0  0  0  0
 14 13  1  0  0  0  0
 14 15  1  0  0  0  0
 15 16  1  0  0  0  0
 17 16  1  0  0  0  0
 18 19  1  0  0  0  0
 18 17  1  0  0  0  0
 19 14  1  0  0  0  0
M  END
>  <minimizedAffinity>
-3.83771062

>  <minimizedRMSD>
2.91619062

$$$$
