
 OpenBabel03242523433D

 21 22  0  0  1  0  0  0  0  0999 V2000
   37.9400   27.7840   43.2980 C   0  0  2  0  0  0  0  0  0  0  0  0
   38.5680   27.8680   44.2150 H   0  0  0  0  0  0  0  0  0  0  0  0
   37.0440   29.4520   41.7330 C   0  0  0  0  0  0  0  0  0  0  0  0
   38.1290   29.0130   42.5330 C   0  0  0  0  0  0  0  0  0  0  0  0
   39.2970   29.7790   42.5180 C   0  0  0  0  0  0  0  0  0  0  0  0
   39.3140   30.8900   41.7430 N   0  0  0  0  0  0  0  0  0  0  0  0
   38.2700   31.2720   41.0030 C   0  0  0  0  0  0  0  0  0  0  0  0
   37.1280   30.5720   40.9810 N   0  0  0  0  0  0  0  0  0  0  0  0
   36.1130   28.9030   41.7000 H   0  0  0  0  0  0  0  0  0  0  0  0
   40.1430   29.4680   43.1120 H   0  0  0  0  0  0  0  0  0  0  0  0
   38.2660   32.1620   40.3720 H   0  0  0  0  0  0  0  0  0  0  0  0
   38.4170   26.5250   42.6040 C   0  0  0  0  0  3  0  0  0  0  0  0
   39.5380   25.8650   43.3510 C   0  0  0  0  0  2  0  0  0  0  0  0
   39.6720   24.3960   43.0470 C   0  0  0  0  0  2  0  0  0  0  0  0
   39.1780   24.0960   41.6430 C   0  0  0  0  0  2  0  0  0  0  0  0
   37.6970   24.2910   41.6840 C   0  0  0  0  0  2  0  0  0  0  0  0
   37.3020   25.6060   42.2260 C   0  0  0  0  0  2  0  0  0  0  0  0
   36.4670   27.7280   43.6790 C   0  0  0  0  0  0  0  0  0  0  0  0
   35.9770   28.7220   43.6250 H   0  0  0  0  0  0  0  0  0  0  0  0
   35.9270   26.9500   43.1160 H   0  0  0  0  0  0  0  0  0  0  0  0
   36.4240   27.4080   44.7400 H   0  0  0  0  0  0  0  0  0  0  0  0
  1 18  1  0  0  0  0
  1  2  1  1  0  0  0
  3  4  1  0  0  0  0
  4  1  1  0  0  0  0
  5  4  2  0  0  0  0
  5 10  1  0  0  0  0
  6  5  1  0  0  0  0
  7  6  2  0  0  0  0
  8  7  1  0  0  0  0
  8  3  2  0  0  0  0
  9  3  1  0  0  0  0
 11  7  1  0  0  0  0
 12  1  1  0  0  0  0
 12 13  1  0  0  0  0
 14 13  1  0  0  0  0
 15 16  1  0  0  0  0
 15 14  1  0  0  0  0
 16 17  1  0  0  0  0
 17 12  1  0  0  0  0
 18 21  1  0  0  0  0
 19 18  1  0  0  0  0
 20 18  1  0  0  0  0
M  END
>  <minimizedAffinity>
-4.63257217

$$$$

 OpenBabel03242523433D

 21 22  0  0  1  0  0  0  0  0999 V2000
   36.0350   30.0170   40.8570 C   0  0  2  0  0  0  0  0  0  0  0  0
   35.0710   30.1460   41.4030 H   0  0  0  0  0  0  0  0  0  0  0  0
   36.5360   27.9750   42.1260 C   0  0  0  0  0  0  0  0  0  0  0  0
   36.9340   29.2800   41.7390 C   0  0  0  0  0  0  0  0  0  0  0  0
   38.1460   29.7640   42.2380 C   0  0  0  0  0  0  0  0  0  0  0  0
   38.8600   28.9540   43.0560 N   0  0  0  0  0  0  0  0  0  0  0  0
   38.4510   27.7290   43.3990 C   0  0  0  0  0  0  0  0  0  0  0  0
   37.2970   27.2190   42.9480 N   0  0  0  0  0  0  0  0  0  0  0  0
   35.6090   27.5440   41.7750 H   0  0  0  0  0  0  0  0  0  0  0  0
   38.4730   30.7550   41.9650 H   0  0  0  0  0  0  0  0  0  0  0  0
   39.0120   27.0640   44.0580 H   0  0  0  0  0  0  0  0  0  0  0  0
   35.6710   29.2970   39.5750 C   0  0  0  0  0  3  0  0  0  0  0  0
   34.1910   29.0790   39.4560 C   0  0  0  0  0  2  0  0  0  0  0  0
   33.7300   28.8910   38.0340 C   0  0  0  0  0  2  0  0  0  0  0  0
   34.8360   28.2840   37.1910 C   0  0  0  0  0  2  0  0  0  0  0  0
   35.8780   29.3480   37.0630 C   0  0  0  0  0  2  0  0  0  0  0  0
   36.3040   29.9000   38.3640 C   0  0  0  0  0  2  0  0  0  0  0  0
   36.6780   31.3750   40.6110 C   0  0  0  0  0  0  0  0  0  0  0  0
   37.4330   31.6320   41.3820 H   0  0  0  0  0  0  0  0  0  0  0  0
   37.0620   31.4660   39.5820 H   0  0  0  0  0  0  0  0  0  0  0  0
   35.8700   32.1300   40.6910 H   0  0  0  0  0  0  0  0  0  0  0  0
  1  2  1  1  0  0  0
  1  4  1  0  0  0  0
  3  8  1  0  0  0  0
  4  3  2  0  0  0  0
  4  5  1  0  0  0  0
  5  6  2  0  0  0  0
  6  7  1  0  0  0  0
  7 11  1  0  0  0  0
  8  7  2  0  0  0  0
  9  3  1  0  0  0  0
 10  5  1  0  0  0  0
 12  1  1  0  0  0  0
 13 12  1  0  0  0  0
 14 13  1  0  0  0  0
 15 14  1  0  0  0  0
 16 15  1  0  0  0  0
 16 17  1  0  0  0  0
 17 12  1  0  0  0  0
 18 21  1  0  0  0  0
 18  1  1  0  0  0  0
 18 19  1  0  0  0  0
 20 18  1  0  0  0  0
M  END
>  <minimizedAffinity>
-4.46349096

$$$$

 OpenBabel03242523433D

 21 22  0  0  1  0  0  0  0  0999 V2000
   36.7600   27.6080   42.3690 C   0  0  2  0  0  0  0  0  0  0  0  0
   35.6840   27.3400   42.4810 H   0  0  0  0  0  0  0  0  0  0  0  0
   38.8720   26.4760   41.8280 C   0  0  0  0  0  0  0  0  0  0  0  0
   37.4910   26.3670   42.1330 C   0  0  0  0  0  0  0  0  0  0  0  0
   36.9350   25.0860   42.1720 C   0  0  0  0  0  0  0  0  0  0  0  0
   37.7510   24.0350   41.9180 N   0  0  0  0  0  0  0  0  0  0  0  0
   39.0480   24.1780   41.6340 C   0  0  0  0  0  0  0  0  0  0  0  0
   39.6300   25.3840   41.5830 N   0  0  0  0  0  0  0  0  0  0  0  0
   39.3620   27.4390   41.7810 H   0  0  0  0  0  0  0  0  0  0  0  0
   35.8850   24.9710   42.3960 H   0  0  0  0  0  0  0  0  0  0  0  0
   39.7200   23.3440   41.4260 H   0  0  0  0  0  0  0  0  0  0  0  0
   36.8050   28.5980   41.2230 C   0  0  0  0  0  3  0  0  0  0  0  0
   35.8680   28.2160   40.1160 C   0  0  0  0  0  2  0  0  0  0  0  0
   35.4610   29.3810   39.2520 C   0  0  0  0  0  2  0  0  0  0  0  0
   36.5520   30.4350   39.2320 C   0  0  0  0  0  2  0  0  0  0  0  0
   36.5650   31.0300   40.6030 C   0  0  0  0  0  2  0  0  0  0  0  0
   36.6830   30.0180   41.6710 C   0  0  0  0  0  2  0  0  0  0  0  0
   37.2900   28.1880   43.6720 C   0  0  0  0  0  0  0  0  0  0  0  0
   37.8000   27.4270   44.2990 H   0  0  0  0  0  0  0  0  0  0  0  0
   37.9030   29.0880   43.5030 H   0  0  0  0  0  0  0  0  0  0  0  0
   36.4090   28.5370   44.2490 H   0  0  0  0  0  0  0  0  0  0  0  0
  1  2  1  1  0  0  0
  1 18  1  0  0  0  0
  3  4  1  0  0  0  0
  4  5  2  0  0  0  0
  4  1  1  0  0  0  0
  5 10  1  0  0  0  0
  6  5  1  0  0  0  0
  7  6  2  0  0  0  0
  8  7  1  0  0  0  0
  8  3  2  0  0  0  0
  9  3  1  0  0  0  0
 11  7  1  0  0  0  0
 12 17  1  0  0  0  0
 12  1  1  0  0  0  0
 13 12  1  0  0  0  0
 14 13  1  0  0  0  0
 15 14  1  0  0  0  0
 15 16  1  0  0  0  0
 16 17  1  0  0  0  0
 18 21  1  0  0  0  0
 18 19  1  0  0  0  0
 20 18  1  0  0  0  0
M  END
>  <minimizedAffinity>
-4.45152903

$$$$

 OpenBabel03242523433D

 21 22  0  0  1  0  0  0  0  0999 V2000
   37.5060   27.6690   42.7350 C   0  0  2  0  0  0  0  0  0  0  0  0
   38.4040   27.9860   43.3140 H   0  0  0  0  0  0  0  0  0  0  0  0
   38.0270   29.8810   41.8030 C   0  0  0  0  0  0  0  0  0  0  0  0
   37.1240   28.7910   41.8830 C   0  0  0  0  0  0  0  0  0  0  0  0
   35.9350   28.8800   41.1550 C   0  0  0  0  0  0  0  0  0  0  0  0
   35.7270   29.9980   40.4200 N   0  0  0  0  0  0  0  0  0  0  0  0
   36.6030   31.0050   40.3690 C   0  0  0  0  0  0  0  0  0  0  0  0
   37.7570   30.9690   41.0500 N   0  0  0  0  0  0  0  0  0  0  0  0
   38.9640   29.8740   42.3430 H   0  0  0  0  0  0  0  0  0  0  0  0
   35.2240   28.0690   41.2000 H   0  0  0  0  0  0  0  0  0  0  0  0
   36.4520   31.9130   39.7840 H   0  0  0  0  0  0  0  0  0  0  0  0
   37.9350   26.4240   41.9880 C   0  0  0  0  0  3  0  0  0  0  0  0
   39.3450   26.0310   42.3180 C   0  0  0  0  0  2  0  0  0  0  0  0
   39.6310   24.5730   42.0680 C   0  0  0  0  0  2  0  0  0  0  0  0
   38.7470   24.0400   40.9550 C   0  0  0  0  0  2  0  0  0  0  0  0
   37.3620   24.0140   41.5140 C   0  0  0  0  0  2  0  0  0  0  0  0
   36.9450   25.3090   42.0870 C   0  0  0  0  0  2  0  0  0  0  0  0
   36.3390   27.4190   43.6800 C   0  0  0  0  0  0  0  0  0  0  0  0
   35.6670   28.2980   43.7670 H   0  0  0  0  0  0  0  0  0  0  0  0
   35.8020   26.4890   43.4330 H   0  0  0  0  0  0  0  0  0  0  0  0
   36.7740   27.2490   44.6860 H   0  0  0  0  0  0  0  0  0  0  0  0
  1  2  1  1  0  0  0
  1 18  1  0  0  0  0
  3  4  1  0  0  0  0
  3  9  1  0  0  0  0
  4  1  1  0  0  0  0
  5 10  1  0  0  0  0
  5  4  2  0  0  0  0
  6  5  1  0  0  0  0
  7  6  2  0  0  0  0
  7  8  1  0  0  0  0
  8  3  2  0  0  0  0
 11  7  1  0  0  0  0
 12 17  1  0  0  0  0
 12 13  1  0  0  0  0
 12  1  1  0  0  0  0
 14 13  1  0  0  0  0
 15 16  1  0  0  0  0
 15 14  1  0  0  0  0
 16 17  1  0  0  0  0
 18 19  1  0  0  0  0
 18 21  1  0  0  0  0
 20 18  1  0  0  0  0
M  END
>  <minimizedAffinity>
-4.44715834

$$$$

 OpenBabel03242523433D

 21 22  0  0  1  0  0  0  0  0999 V2000
   37.8660   26.8760   43.0090 C   0  0  2  0  0  0  0  0  0  0  0  0
   38.2720   26.1740   43.7740 H   0  0  0  0  0  0  0  0  0  0  0  0
   38.3560   29.2810   42.9290 C   0  0  0  0  0  0  0  0  0  0  0  0
   38.8400   27.9510   42.8490 C   0  0  0  0  0  0  0  0  0  0  0  0
   40.2050   27.7710   42.6120 C   0  0  0  0  0  0  0  0  0  0  0  0
   40.9730   28.8780   42.4760 N   0  0  0  0  0  0  0  0  0  0  0  0
   40.4800   30.1160   42.5580 C   0  0  0  0  0  0  0  0  0  0  0  0
   39.1790   30.3430   42.7830 N   0  0  0  0  0  0  0  0  0  0  0  0
   37.3100   29.4880   43.1100 H   0  0  0  0  0  0  0  0  0  0  0  0
   40.6020   26.7700   42.5400 H   0  0  0  0  0  0  0  0  0  0  0  0
   41.0830   31.0190   42.4500 H   0  0  0  0  0  0  0  0  0  0  0  0
   37.6460   26.0300   41.7720 C   0  0  0  0  0  3  0  0  0  0  0  0
   37.0660   24.6880   42.1070 C   0  0  0  0  0  2  0  0  0  0  0  0
   36.3340   24.0510   40.9550 C   0  0  0  0  0  2  0  0  0  0  0  0
   36.9170   24.5150   39.6320 C   0  0  0  0  0  2  0  0  0  0  0  0
   36.5410   25.9550   39.5070 C   0  0  0  0  0  2  0  0  0  0  0  0
   36.9260   26.7580   40.6840 C   0  0  0  0  0  2  0  0  0  0  0  0
   36.5850   27.5180   43.5220 C   0  0  0  0  0  0  0  0  0  0  0  0
   36.7630   28.5130   43.9810 H   0  0  0  0  0  0  0  0  0  0  0  0
   35.7960   27.5340   42.7520 H   0  0  0  0  0  0  0  0  0  0  0  0
   36.1970   26.8600   44.3260 H   0  0  0  0  0  0  0  0  0  0  0  0
  1 18  1  0  0  0  0
  1  2  1  1  0  0  0
  3  9  1  0  0  0  0
  4  3  1  0  0  0  0
  4  1  1  0  0  0  0
  5  4  2  0  0  0  0
  6  7  2  0  0  0  0
  6  5  1  0  0  0  0
  7  8  1  0  0  0  0
  8  3  2  0  0  0  0
 10  5  1  0  0  0  0
 11  7  1  0  0  0  0
 12 13  1  0  0  0  0
 12  1  1  0  0  0  0
 14 13  1  0  0  0  0
 15 14  1  0  0  0  0
 16 15  1  0  0  0  0
 16 17  1  0  0  0  0
 17 12  1  0  0  0  0
 18 19  1  0  0  0  0
 18 21  1  0  0  0  0
 20 18  1  0  0  0  0
M  END
>  <minimizedAffinity>
-4.42509794

$$$$

 OpenBabel03242523433D

 21 22  0  0  1  0  0  0  0  0999 V2000
   35.7080   29.0940   40.1120 C   0  0  2  0  0  0  0  0  0  0  0  0
   34.9700   29.2840   40.9250 H   0  0  0  0  0  0  0  0  0  0  0  0
   36.7030   30.6160   38.4610 C   0  0  0  0  0  0  0  0  0  0  0  0
   36.3580   30.3660   39.8130 C   0  0  0  0  0  0  0  0  0  0  0  0
   36.6780   31.3460   40.7560 C   0  0  0  0  0  0  0  0  0  0  0  0
   37.2930   32.4690   40.3140 N   0  0  0  0  0  0  0  0  0  0  0  0
   37.6020   32.6690   39.0300 C   0  0  0  0  0  0  0  0  0  0  0  0
   37.3180   31.7600   38.0880 N   0  0  0  0  0  0  0  0  0  0  0  0
   36.4840   29.8960   37.6830 H   0  0  0  0  0  0  0  0  0  0  0  0
   36.4340   31.1830   41.7940 H   0  0  0  0  0  0  0  0  0  0  0  0
   38.0980   33.5660   38.6570 H   0  0  0  0  0  0  0  0  0  0  0  0
   36.6290   28.0220   40.6550 C   0  0  0  0  0  3  0  0  0  0  0  0
   36.5240   27.8970   42.1470 C   0  0  0  0  0  2  0  0  0  0  0  0
   36.9590   26.5500   42.6630 C   0  0  0  0  0  2  0  0  0  0  0  0
   38.0010   25.9380   41.7440 C   0  0  0  0  0  2  0  0  0  0  0  0
   37.2750   25.5910   40.4840 C   0  0  0  0  0  2  0  0  0  0  0  0
   36.5220   26.7270   39.9190 C   0  0  0  0  0  2  0  0  0  0  0  0
   34.9840   28.6640   38.8440 C   0  0  0  0  0  0  0  0  0  0  0  0
   34.8070   29.5100   38.1480 H   0  0  0  0  0  0  0  0  0  0  0  0
   35.4770   27.8040   38.3610 H   0  0  0  0  0  0  0  0  0  0  0  0
   33.9860   28.2940   39.1550 H   0  0  0  0  0  0  0  0  0  0  0  0
  1 12  1  0  0  0  0
  1  2  1  1  0  0  0
  3  4  1  0  0  0  0
  4  1  1  0  0  0  0
  4  5  2  0  0  0  0
  5 10  1  0  0  0  0
  6  5  1  0  0  0  0
  7  6  2  0  0  0  0
  8  3  2  0  0  0  0
  8  7  1  0  0  0  0
  9  3  1  0  0  0  0
 11  7  1  0  0  0  0
 12 13  1  0  0  0  0
 13 14  1  0  0  0  0
 15 14  1  0  0  0  0
 16 15  1  0  0  0  0
 17 16  1  0  0  0  0
 17 12  1  0  0  0  0
 18 21  1  0  0  0  0
 18  1  1  0  0  0  0
 19 18  1  0  0  0  0
 20 18  1  0  0  0  0
M  END
>  <minimizedAffinity>
-4.38682175

$$$$

 OpenBabel03242523433D

 21 22  0  0  1  0  0  0  0  0999 V2000
   35.3990   29.3090   40.4100 C   0  0  2  0  0  0  0  0  0  0  0  0
   34.9110   29.6860   41.3380 H   0  0  0  0  0  0  0  0  0  0  0  0
   36.7670   31.3030   40.8390 C   0  0  0  0  0  0  0  0  0  0  0  0
   36.2380   30.3860   39.8950 C   0  0  0  0  0  0  0  0  0  0  0  0
   36.5500   30.5890   38.5490 C   0  0  0  0  0  0  0  0  0  0  0  0
   37.3360   31.6470   38.2360 N   0  0  0  0  0  0  0  0  0  0  0  0
   37.8160   32.4900   39.1540 C   0  0  0  0  0  0  0  0  0  0  0  0
   37.5450   32.3390   40.4580 N   0  0  0  0  0  0  0  0  0  0  0  0
   36.5620   31.2010   41.8960 H   0  0  0  0  0  0  0  0  0  0  0  0
   36.1580   29.9120   37.8060 H   0  0  0  0  0  0  0  0  0  0  0  0
   38.4490   33.3470   38.9200 H   0  0  0  0  0  0  0  0  0  0  0  0
   36.1510   28.0660   40.8360 C   0  0  0  0  0  3  0  0  0  0  0  0
   37.3220   27.7850   39.9400 C   0  0  0  0  0  2  0  0  0  0  0  0
   38.3860   26.9450   40.5980 C   0  0  0  0  0  2  0  0  0  0  0  0
   37.7740   26.0380   41.6500 C   0  0  0  0  0  2  0  0  0  0  0  0
   37.3350   26.9410   42.7570 C   0  0  0  0  0  2  0  0  0  0  0  0
   36.4720   28.0450   42.2950 C   0  0  0  0  0  2  0  0  0  0  0  0
   34.3460   29.0280   39.3470 C   0  0  0  0  0  0  0  0  0  0  0  0
   34.2200   29.8750   38.6400 H   0  0  0  0  0  0  0  0  0  0  0  0
   34.5210   28.0660   38.8390 H   0  0  0  0  0  0  0  0  0  0  0  0
   33.3790   28.9090   39.8780 H   0  0  0  0  0  0  0  0  0  0  0  0
  1 12  1  0  0  0  0
  1  2  1  1  0  0  0
  3  9  1  0  0  0  0
  4  1  1  0  0  0  0
  4  3  2  0  0  0  0
  5  4  1  0  0  0  0
  6  5  2  0  0  0  0
  6  7  1  0  0  0  0
  7  8  2  0  0  0  0
  8  3  1  0  0  0  0
 10  5  1  0  0  0  0
 11  7  1  0  0  0  0
 12 17  1  0  0  0  0
 13 14  1  0  0  0  0
 13 12  1  0  0  0  0
 14 15  1  0  0  0  0
 15 16  1  0  0  0  0
 17 16  1  0  0  0  0
 18 21  1  0  0  0  0
 18  1  1  0  0  0  0
 19 18  1  0  0  0  0
 20 18  1  0  0  0  0
M  END
>  <minimizedAffinity>
-4.35783339

$$$$

 OpenBabel03242523433D

 21 22  0  0  1  0  0  0  0  0999 V2000
   35.6130   29.8210   40.1870 C   0  0  2  0  0  0  0  0  0  0  0  0
   34.9780   30.5970   40.6740 H   0  0  0  0  0  0  0  0  0  0  0  0
   37.2760   29.7780   38.3800 C   0  0  0  0  0  0  0  0  0  0  0  0
   36.6160   30.5210   39.3910 C   0  0  0  0  0  0  0  0  0  0  0  0
   36.9840   31.8590   39.5570 C   0  0  0  0  0  0  0  0  0  0  0  0
   37.9430   32.3560   38.7390 N   0  0  0  0  0  0  0  0  0  0  0  0
   38.5420   31.6230   37.7970 C   0  0  0  0  0  0  0  0  0  0  0  0
   38.2270   30.3360   37.5990 N   0  0  0  0  0  0  0  0  0  0  0  0
   37.0380   28.7380   38.2020 H   0  0  0  0  0  0  0  0  0  0  0  0
   36.5040   32.4500   40.3210 H   0  0  0  0  0  0  0  0  0  0  0  0
   39.3170   32.0060   37.1310 H   0  0  0  0  0  0  0  0  0  0  0  0
   36.1720   28.9950   41.3270 C   0  0  0  0  0  3  0  0  0  0  0  0
   36.5140   27.6000   40.8920 C   0  0  0  0  0  2  0  0  0  0  0  0
   37.5410   26.9380   41.7740 C   0  0  0  0  0  2  0  0  0  0  0  0
   37.4620   27.4850   43.1870 C   0  0  0  0  0  2  0  0  0  0  0  0
   37.9570   28.8920   43.1050 C   0  0  0  0  0  2  0  0  0  0  0  0
   37.2590   29.6910   42.0780 C   0  0  0  0  0  2  0  0  0  0  0  0
   34.7780   29.0000   39.2150 C   0  0  0  0  0  0  0  0  0  0  0  0
   34.8580   29.3670   38.1710 H   0  0  0  0  0  0  0  0  0  0  0  0
   34.9800   27.9210   39.3100 H   0  0  0  0  0  0  0  0  0  0  0  0
   33.7180   29.1290   39.5170 H   0  0  0  0  0  0  0  0  0  0  0  0
  1  2  1  1  0  0  0
  1 12  1  0  0  0  0
  3  4  1  0  0  0  0
  4  5  2  0  0  0  0
  4  1  1  0  0  0  0
  5 10  1  0  0  0  0
  6  5  1  0  0  0  0
  7  6  2  0  0  0  0
  8  7  1  0  0  0  0
  8  3  2  0  0  0  0
  9  3  1  0  0  0  0
 11  7  1  0  0  0  0
 12 17  1  0  0  0  0
 13 12  1  0  0  0  0
 13 14  1  0  0  0  0
 14 15  1  0  0  0  0
 16 15  1  0  0  0  0
 17 16  1  0  0  0  0
 18 20  1  0  0  0  0
 18 21  1  0  0  0  0
 18  1  1  0  0  0  0
 19 18  1  0  0  0  0
M  END
>  <minimizedAffinity>
-4.33987951

$$$$

 OpenBabel03242523433D

 21 22  0  0  1  0  0  0  0  0999 V2000
   36.6890   29.6770   40.1110 C   0  0  2  0  0  0  0  0  0  0  0  0
   37.7080   29.4870   39.7020 H   0  0  0  0  0  0  0  0  0  0  0  0
   36.2250   29.3750   37.7190 C   0  0  0  0  0  0  0  0  0  0  0  0
   35.7340   29.3760   39.0490 C   0  0  0  0  0  0  0  0  0  0  0  0
   34.3770   29.1040   39.2400 C   0  0  0  0  0  0  0  0  0  0  0  0
   33.6230   28.8550   38.1430 N   0  0  0  0  0  0  0  0  0  0  0  0
   34.1220   28.8630   36.9040 C   0  0  0  0  0  0  0  0  0  0  0  0
   35.4160   29.1200   36.6670 N   0  0  0  0  0  0  0  0  0  0  0  0
   37.2650   29.5800   37.5040 H   0  0  0  0  0  0  0  0  0  0  0  0
   33.9730   29.1030   40.2410 H   0  0  0  0  0  0  0  0  0  0  0  0
   33.5290   28.6660   36.0090 H   0  0  0  0  0  0  0  0  0  0  0  0
   36.5800   28.7870   41.3320 C   0  0  0  0  0  3  0  0  0  0  0  0
   36.8410   27.3470   40.9990 C   0  0  0  0  0  2  0  0  0  0  0  0
   37.2860   26.5330   42.1870 C   0  0  0  0  0  2  0  0  0  0  0  0
   36.7170   27.1090   43.4710 C   0  0  0  0  0  2  0  0  0  0  0  0
   37.4230   28.4100   43.6780 C   0  0  0  0  0  2  0  0  0  0  0  0
   37.3550   29.2990   42.5020 C   0  0  0  0  0  2  0  0  0  0  0  0
   36.5270   31.1540   40.4410 C   0  0  0  0  0  0  0  0  0  0  0  0
   36.0340   31.7200   39.6230 H   0  0  0  0  0  0  0  0  0  0  0  0
   36.0460   31.3060   41.4210 H   0  0  0  0  0  0  0  0  0  0  0  0
   37.5490   31.5720   40.5460 H   0  0  0  0  0  0  0  0  0  0  0  0
  1  2  1  6  0  0  0
  1 18  1  0  0  0  0
  1 12  1  0  0  0  0
  3  4  1  0  0  0  0
  4  5  2  0  0  0  0
  4  1  1  0  0  0  0
  5 10  1  0  0  0  0
  6  5  1  0  0  0  0
  7  6  2  0  0  0  0
  8  7  1  0  0  0  0
  8  3  2  0  0  0  0
  9  3  1  0  0  0  0
 11  7  1  0  0  0  0
 12 17  1  0  0  0  0
 13 12  1  0  0  0  0
 13 14  1  0  0  0  0
 14 15  1  0  0  0  0
 15 16  1  0  0  0  0
 17 16  1  0  0  0  0
 18 21  1  0  0  0  0
 18 20  1  0  0  0  0
 19 18  1  0  0  0  0
M  END
>  <minimizedAffinity>
-4.33617592

$$$$
