
 OpenBabel03252509263D

 27 29  0  0  1  0  0  0  0  0999 V2000
   46.8820   35.1570   41.8580 C   0  0  1  0  0  0  0  0  0  0  0  0
   48.3750   35.5840   41.9550 C   0  0  0  0  0  0  0  0  0  0  0  0
   47.8180   34.3000   41.2590 C   0  0  2  0  0  0  0  0  0  0  0  0
   46.2620   35.8790   41.2850 H   0  0  0  0  0  0  0  0  0  0  0  0
   48.6900   36.3560   41.2250 H   0  0  0  0  0  0  0  0  0  0  0  0
   48.9000   35.4740   42.8980 H   0  0  0  0  0  0  0  0  0  0  0  0
   48.1110   33.3720   41.8430 H   0  0  0  0  0  0  0  0  0  0  0  0
   44.8160   35.1240   44.9910 C   0  0  0  0  0  0  0  0  0  0  0  0
   45.2940   35.5500   43.7190 C   0  0  0  0  0  0  0  0  0  0  0  0
   46.3340   34.8330   43.2270 C   0  0  0  0  0  0  0  0  0  0  0  0
   46.8860   33.7730   43.9140 N   0  0  0  0  0  0  0  0  0  0  0  0
   46.4030   33.3970   45.1250 C   0  0  0  0  0  0  0  0  0  0  0  0
   45.3580   34.0840   45.6610 N   0  0  0  0  0  0  0  0  0  0  0  0
   43.9750   35.7050   45.3850 H   0  0  0  0  0  0  0  0  0  0  0  0
   46.7990   32.5820   45.6930 H   0  0  0  0  0  0  0  0  0  0  0  0
   44.7460   36.6520   43.0190 N   0  0  0  0  0  0  0  0  0  0  0  0
   44.1340   36.6240   42.1580 H   0  0  0  0  0  0  0  0  0  0  0  0
   44.9020   37.6660   43.3020 H   0  0  0  0  0  0  0  0  0  0  0  0
   47.9630   34.1950   39.7550 C   0  0  0  0  0  0  0  0  0  0  0  0
   46.9700   34.3260   39.2740 H   0  0  0  0  0  0  0  0  0  0  0  0
   48.6330   35.0210   39.4010 H   0  0  0  0  0  0  0  0  0  0  0  0
   48.5400   32.8350   39.4100 C   0  0  0  0  0  3  0  0  0  0  0  0
   49.5330   32.3800   40.4190 C   0  0  0  0  0  2  0  0  0  0  0  0
   49.6170   30.9330   40.7050 C   0  0  0  0  0  2  0  0  0  0  0  0
   49.0110   30.1400   39.5650 C   0  0  0  0  0  2  0  0  0  0  0  0
   47.5420   30.5210   39.6100 C   0  0  0  0  0  2  0  0  0  0  0  0
   47.4410   31.9160   39.0630 C   0  0  0  0  0  2  0  0  0  0  0  0
  1  4  1  6  0  0  0
  1  2  1  0  0  0  0
  1 10  1  0  0  0  0
  2  6  1  0  0  0  0
  3  7  1  1  0  0  0
  3  1  1  0  0  0  0
  3  2  1  0  0  0  0
  5  2  1  0  0  0  0
  8 14  1  0  0  0  0
  8 13  1  0  0  0  0
  9  8  2  0  0  0  0
 10  9  1  0  0  0  0
 10 11  2  0  0  0  0
 11 12  1  0  0  0  0
 12 13  2  0  0  0  0
 12 15  1  0  0  0  0
 16 18  1  0  0  0  0
 16  9  1  0  0  0  0
 17 16  1  0  0  0  0
 19  3  1  0  0  0  0
 20 19  1  0  0  0  0
 21 19  1  0  0  0  0
 22 19  1  0  0  0  0
 22 23  1  0  0  0  0
 23 24  1  0  0  0  0
 25 26  1  0  0  0  0
 25 24  1  0  0  0  0
 27 22  1  0  0  0  0
 27 26  1  0  0  0  0
M  END
>  <minimizedAffinity>
-4.50877666

>  <minimizedRMSD>
0.392001033

$$$$
