
 OpenBabel03242517563D

 40 42  0  0  0  0  0  0  0  0999 V2000
   45.4320   34.2290   43.8160 C   0  0  0  0  0  0  0  0  0  0  0  0
   46.5460   34.7320   43.1210 C   0  0  0  0  0  0  0  0  0  0  0  0
   47.7560   34.1010   43.2400 C   0  0  0  0  0  0  0  0  0  0  0  0
   47.7890   33.0200   44.0340 N   0  0  0  0  0  0  0  0  0  0  0  0
   46.7370   32.5480   44.6890 C   0  0  0  0  0  0  0  0  0  0  0  0
   45.5590   33.1530   44.5780 N   0  0  0  0  0  0  0  0  0  0  0  0
   44.4790   34.7250   43.7220 H   0  0  0  0  0  0  0  0  0  0  0  0
   46.3620   35.6060   42.5220 H   0  0  0  0  0  0  0  0  0  0  0  0
   48.9770   34.5300   42.5460 C   0  0  0  0  0  0  0  0  0  0  0  0
   49.3390   33.6690   41.9360 H   0  0  0  0  0  0  0  0  0  0  0  0
   49.7790   34.7490   43.2790 H   0  0  0  0  0  0  0  0  0  0  0  0
   48.7430   35.6880   41.6180 C   0  0  0  0  0  0  0  0  0  0  0  0
   49.7130   36.2810   41.6650 H   0  0  0  0  0  0  0  0  0  0  0  0
   47.9860   36.3860   41.9410 H   0  0  0  0  0  0  0  0  0  0  0  0
   48.6060   35.3000   40.2150 C   0  0  0  0  0  0  0  0  0  0  0  0
   48.0850   34.3540   39.4430 C   0  0  0  0  0  0  0  0  0  0  0  0
   48.2460   34.2270   37.9370 C   0  0  0  0  0  0  0  0  0  0  0  0
   49.0440   34.9230   37.6060 H   0  0  0  0  0  0  0  0  0  0  0  0
   47.2930   34.5430   37.4870 H   0  0  0  0  0  0  0  0  0  0  0  0
   48.4940   33.1890   37.7040 H   0  0  0  0  0  0  0  0  0  0  0  0
   46.7930   31.4390   45.4970 O   0  0  0  0  0  0  0  0  0  0  0  0
   45.4580   30.2620   47.1900 C   0  0  0  0  0  0  0  0  0  0  0  0
   46.2130   31.2950   46.7440 C   0  0  0  0  0  0  0  0  0  0  0  0
   46.4700   32.3520   47.5900 C   0  0  0  0  0  0  0  0  0  0  0  0
   45.9900   32.4030   48.8810 C   0  0  0  0  0  0  0  0  0  0  0  0
   45.2220   31.3510   49.3410 C   0  0  0  0  0  0  0  0  0  0  0  0
   44.9660   30.2910   48.4880 C   0  0  0  0  0  0  0  0  0  0  0  0
   47.0580   33.2130   47.3180 H   0  0  0  0  0  0  0  0  0  0  0  0
   46.1660   33.1990   49.5630 H   0  0  0  0  0  0  0  0  0  0  0  0
   44.7860   31.2720   50.3400 H   0  0  0  0  0  0  0  0  0  0  0  0
   44.3620   29.4430   48.8170 H   0  0  0  0  0  0  0  0  0  0  0  0
   45.0810   29.0090   46.0540 S   0  0  0  0  0  0  0  0  0  0  0  0
   45.0630   29.4670   44.6420 O   0  0  0  0  0  0  0  0  0  0  0  0
   43.6190   28.6240   46.3590 O   0  0  0  0  0  0  0  0  0  0  0  0
   45.9050   27.4820   46.2790 C   0  0  0  0  0  0  0  0  0  0  0  0
   45.3360   26.5770   47.3320 C   0  0  0  0  0  0  0  0  0  0  0  0
   45.9000   25.1960   47.0230 C   0  0  0  0  0  0  0  0  0  0  0  0
   47.3630   25.3430   46.6220 C   0  0  0  0  0  0  0  0  0  0  0  0
   47.9900   26.5620   47.2390 C   0  0  0  0  0  0  0  0  0  0  0  0
   47.2960   27.8520   46.9480 C   0  0  0  0  0  0  0  0  0  0  0  0
  1  6  1  0  0  0  0
  2  3  1  0  0  0  0
  2  1  2  0  0  0  0
  3  4  2  0  0  0  0
  4  5  1  0  0  0  0
  5 21  1  0  0  0  0
  6  5  2  0  0  0  0
  7  1  1  0  0  0  0
  8  2  1  0  0  0  0
  9  3  1  0  0  0  0
  9 11  1  0  0  0  0
 10  9  1  0  0  0  0
 12 13  1  0  0  0  0
 12 14  1  0  0  0  0
 12  9  1  0  0  0  0
 15 12  1  0  0  0  0
 16 15  2  0  0  0  0
 17 16  1  0  0  0  0
 18 17  1  0  0  0  0
 19 17  1  0  0  0  0
 20 17  1  0  0  0  0
 21 23  1  0  0  0  0
 22 27  1  0  0  0  0
 23 22  2  0  0  0  0
 23 24  1  0  0  0  0
 24 25  2  0  0  0  0
 25 26  1  0  0  0  0
 25 29  1  0  0  0  0
 26 30  1  0  0  0  0
 27 31  1  0  0  0  0
 27 26  2  0  0  0  0
 28 24  1  0  0  0  0
 32 35  1  0  0  0  0
 32 34  2  0  0  0  0
 32 22  1  0  0  0  0
 33 32  2  0  0  0  0
 35 40  1  0  0  0  0
 35 36  1  0  0  0  0
 37 36  1  0  0  0  0
 38 37  1  0  0  0  0
 38 39  1  0  0  0  0
 40 39  1  0  0  0  0
M  END
>  <minimizedAffinity>
-5.70582771

>  <minimizedRMSD>
2.0079205

$$$$
