
 OpenBabel03252505493D

 19 20  0  0  0  0  0  0  0  0999 V2000
   44.5850   35.3040   45.0890 C   0  0  0  0  0  0  0  0  0  0  0  0
   45.2390   34.9720   43.9030 C   0  0  0  0  0  0  0  0  0  0  0  0
   46.1250   33.9080   43.9450 C   0  0  0  0  0  0  0  0  0  0  0  0
   46.3220   33.2440   45.1070 N   0  0  0  0  0  0  0  0  0  0  0  0
   45.6690   33.6000   46.2270 C   0  0  0  0  0  0  0  0  0  0  0  0
   44.7960   34.6260   46.2420 N   0  0  0  0  0  0  0  0  0  0  0  0
   43.8820   36.1180   45.1300 H   0  0  0  0  0  0  0  0  0  0  0  0
   46.6180   33.6700   43.0180 H   0  0  0  0  0  0  0  0  0  0  0  0
   44.9200   35.7980   42.6910 C   0  0  0  0  0  0  0  0  0  0  0  0
   45.2230   37.0970   43.0290 F   0  0  0  0  0  0  0  0  0  0  0  0
   43.5790   35.6660   42.4410 F   0  0  0  0  0  0  0  0  0  0  0  0
   45.6750   35.3070   41.6440 F   0  0  0  0  0  0  0  0  0  0  0  0
   45.8670   32.9180   47.4310 O   0  0  0  0  0  0  0  0  0  0  0  0
   46.1000   31.5230   47.4730 C   0  0  0  0  0  3  0  0  0  0  0  0
   46.3370   31.0680   48.8850 C   0  0  0  0  0  2  0  0  0  0  0  0
   47.7730   30.8170   49.2120 C   0  0  0  0  0  2  0  0  0  0  0  0
   48.4700   29.9140   48.2330 C   0  0  0  0  0  2  0  0  0  0  0  0
   47.8490   29.8900   46.8640 C   0  0  0  0  0  2  0  0  0  0  0  0
   47.2860   31.2500   46.5720 C   0  0  0  0  0  2  0  0  0  0  0  0
  1  7  1  0  0  0  0
  1  6  1  0  0  0  0
  2  3  1  0  0  0  0
  2  1  2  0  0  0  0
  3  4  2  0  0  0  0
  4  5  1  0  0  0  0
  5  6  2  0  0  0  0
  5 13  1  0  0  0  0
  8  3  1  0  0  0  0
  9 10  1  0  0  0  0
  9  2  1  0  0  0  0
 11  9  1  0  0  0  0
 12  9  1  0  0  0  0
 13 14  1  0  0  0  0
 14 15  1  0  0  0  0
 15 16  1  0  0  0  0
 17 16  1  0  0  0  0
 18 17  1  0  0  0  0
 19 18  1  0  0  0  0
 19 14  1  0  0  0  0
M  END
>  <minimizedAffinity>
-4.87528276

>  <minimizedRMSD>
1.00839055

$$$$
