
     RDKit          3D

 29 30  0  0  0  0  0  0  0  0999 V2000
   44.5600   36.0103   44.4959 C   0  0  0  0  0  0  0  0  0  0  0  0
   45.3058   35.9229   43.2947 C   0  0  0  0  0  0  0  0  0  0  0  0
   46.1939   34.8585   43.1708 C   0  0  0  0  0  0  0  0  0  0  0  0
   46.3108   33.9588   44.1881 N   0  0  0  0  0  0  0  0  0  0  0  0
   45.5691   34.0859   45.3280 C   0  0  0  0  0  0  0  0  0  0  0  0
   44.7024   35.1043   45.4764 N   0  0  0  0  0  0  0  0  0  0  0  0
   46.9601   34.7743   41.9291 C   0  0  0  0  0  0  0  0  0  0  0  0
   43.8673   36.8277   44.6099 H   0  0  0  0  0  0  0  0  0  0  0  0
   45.1559   36.6696   42.5439 H   0  0  0  0  0  0  0  0  0  0  0  0
   45.6607   33.3798   46.1265 H   0  0  0  0  0  0  0  0  0  0  0  0
   47.2149   33.7053   41.7702 H   0  0  0  0  0  0  0  0  0  0  0  0
   46.4079   35.1105   41.0431 H   0  0  0  0  0  0  0  0  0  0  0  0
   48.2732   35.5063   41.9812 C   0  0  0  0  0  0  0  0  0  0  0  0
   48.2956   36.8045   41.2322 C   0  0  0  0  0  0  0  0  0  0  0  0
   49.7753   37.1518   41.0551 C   0  0  0  0  0  0  0  0  0  0  0  0
   50.3367   37.3859   42.4314 C   0  0  0  0  0  0  0  0  0  0  0  0
   50.2095   36.1416   43.2790 C   0  0  0  0  0  0  0  0  0  0  0  0
   48.7216   35.7908   43.4014 C   0  0  0  0  0  0  0  0  0  0  0  0
   49.0654   34.8715   41.5356 H   0  0  0  0  0  0  0  0  0  0  0  0
   47.8541   37.6514   41.7981 H   0  0  0  0  0  0  0  0  0  0  0  0
   47.8401   36.7355   40.2256 H   0  0  0  0  0  0  0  0  0  0  0  0
   50.2550   36.2240   40.6523 H   0  0  0  0  0  0  0  0  0  0  0  0
   49.9092   38.0386   40.4273 H   0  0  0  0  0  0  0  0  0  0  0  0
   51.4359   37.6129   42.3774 H   0  0  0  0  0  0  0  0  0  0  0  0
   49.7800   38.2261   42.8826 H   0  0  0  0  0  0  0  0  0  0  0  0
   50.6486   35.2804   42.7371 H   0  0  0  0  0  0  0  0  0  0  0  0
   50.6668   36.2801   44.2601 H   0  0  0  0  0  0  0  0  0  0  0  0
   48.6089   34.8601   43.9849 H   0  0  0  0  0  0  0  0  0  0  0  0
   48.1623   36.6363   43.8635 H   0  0  0  0  0  0  0  0  0  0  0  0
  1  6  2  0
  2  1  1  0
  3  2  2  0
  3  4  1  0
  4  5  2  0
  5  6  1  0
  7  3  1  0
  1  8  1  0
  2  9  1  0
  5 10  1  0
  7 11  1  0
  7 12  1  0
 13 14  1  0
 14 15  1  0
 15 16  1  0
 16 17  1  0
 17 18  1  0
 18 13  1  0
 13 19  1  0
 14 20  1  0
 14 21  1  0
 15 22  1  0
 15 23  1  0
 16 24  1  0
 16 25  1  0
 17 26  1  0
 17 27  1  0
 18 28  1  0
 18 29  1  0
  7 13  1  0
M  ISO  5   8  14   9  14  10  14  11   8  12   8
M  END
>  <DihAtoms>  (1) 
2,6,12,13

>  <DihDeg>  (1) 
-59.99933838426612

$$$$
