
 OpenBabel03242519413D

 26 28  0  0  1  0  0  0  0  0999 V2000
   48.0930   32.8730   41.8270 O   0  0  0  0  0  0  0  0  0  0  0  0
   47.2290   34.0150   41.3460 P   0  0  2  0  0  0  0  0  0  0  0  0
   45.6330   33.8370   41.9780 O   0  0  0  0  0  0  0  0  0  0  0  0
   44.3850   35.9060   44.6620 C   0  0  0  0  0  0  0  0  0  0  0  0
   44.6950   35.4550   43.3640 C   0  0  0  0  0  0  0  0  0  0  0  0
   45.3520   34.2290   43.2430 C   0  0  0  0  0  0  0  0  0  0  0  0
   45.6640   33.5250   44.3520 N   0  0  0  0  0  0  0  0  0  0  0  0
   45.3540   33.9830   45.5870 C   0  0  0  0  0  0  0  0  0  0  0  0
   44.7200   35.1630   45.7500 N   0  0  0  0  0  0  0  0  0  0  0  0
   43.8830   36.8420   44.7710 H   0  0  0  0  0  0  0  0  0  0  0  0
   44.4240   36.0540   42.5200 H   0  0  0  0  0  0  0  0  0  0  0  0
   45.6360   33.3640   46.4280 H   0  0  0  0  0  0  0  0  0  0  0  0
   47.0220   34.0290   39.7010 O   0  0  0  0  0  0  0  0  0  0  0  0
   46.3080   33.2420   38.8880 C   0  0  2  0  0  3  0  0  0  0  0  0
   46.6260   33.3420   37.6460 O   0  0  0  0  0  0  0  0  0  0  0  0
   45.4680   32.3580   38.1960 C   0  0  0  0  0  0  0  0  0  0  0  0
   44.3900   31.7280   39.0520 C   0  0  0  0  0  2  0  0  0  0  0  0
   44.8930   30.4940   39.7680 C   0  0  0  0  0  2  0  0  0  0  0  0
   44.9520   29.4190   38.7080 C   0  0  0  0  0  2  0  0  0  0  0  0
   45.6780   29.8990   37.5260 C   0  0  0  0  0  2  0  0  0  0  0  0
   46.2450   31.2280   37.4640 C   0  0  0  0  0  2  0  0  0  0  0  0
   47.7990   35.4420   41.9560 O   0  0  0  0  0  0  0  0  0  0  0  0
   49.0350   35.7510   41.4190 C   0  0  0  0  0  0  0  0  0  0  0  0
   49.4530   37.0320   41.7680 F   0  0  0  0  0  0  0  0  0  0  0  0
   49.9440   34.8030   41.7610 F   0  0  0  0  0  0  0  0  0  0  0  0
   48.8810   35.7560   40.0400 F   0  0  0  0  0  0  0  0  0  0  0  0
  2  1  2  1  0  0  0
  2 22  1  0  0  0  0
  2  3  1  0  0  0  0
  3  6  1  0  0  0  0
  4 10  1  0  0  0  0
  4  9  1  0  0  0  0
  5  4  2  0  0  0  0
  6  5  1  0  0  0  0
  6  7  2  0  0  0  0
  7  8  1  0  0  0  0
  8  9  2  0  0  0  0
  8 12  1  0  0  0  0
 11  5  1  0  0  0  0
 13  2  1  0  0  0  0
 14 13  1  6  0  0  0
 15 16  1  0  0  0  0
 15 14  1  0  0  0  0
 16 14  1  0  0  0  0
 16 17  1  0  0  0  0
 17 18  1  0  0  0  0
 19 18  1  0  0  0  0
 20 19  1  0  0  0  0
 21 20  1  0  0  0  0
 21 16  1  0  0  0  0
 23 25  1  0  0  0  0
 23 24  1  0  0  0  0
 23 22  1  0  0  0  0
 26 23  1  0  0  0  0
M  END
>  <minimizedAffinity>
-4.86038399

>  <minimizedRMSD>
0.179184824

$$$$
