
     RDKit          3D

 30 31  0  0  0  0  0  0  0  0999 V2000
   44.9148   35.1057   44.9432 C   0  0  0  0  0  0  0  0  0  0  0  0
   45.8265   34.7551   43.9485 C   0  0  0  0  0  0  0  0  0  0  0  0
   46.6824   33.6977   44.2188 C   0  0  0  0  0  0  0  0  0  0  0  0
   46.6051   33.0593   45.4078 N   0  0  0  0  0  0  0  0  0  0  0  0
   45.7088   33.4327   46.3383 C   0  0  0  0  0  0  0  0  0  0  0  0
   44.8536   34.4533   46.1276 N   0  0  0  0  0  0  0  0  0  0  0  0
   45.7967   35.5537   42.6794 C   0  0  0  0  0  0  0  0  0  0  0  0
   45.3491   36.8055   43.0307 F   0  0  0  0  0  0  0  0  0  0  0  0
   44.9101   34.9457   41.8287 F   0  0  0  0  0  0  0  0  0  0  0  0
   47.0755   35.5490   42.1553 F   0  0  0  0  0  0  0  0  0  0  0  0
   45.6234   32.7772   47.5696 O   0  0  0  0  0  0  0  0  0  0  0  0
   44.2201   35.9163   44.8026 H   0  0  0  0  0  0  0  0  0  0  0  0
   47.3775   33.4447   43.4367 H   0  0  0  0  0  0  0  0  0  0  0  0
   46.4690   31.6929   47.9022 C   0  0  0  0  0  0  0  0  0  0  0  0
   46.3134   30.5765   46.9104 C   0  0  0  0  0  0  0  0  0  0  0  0
   45.4829   29.4348   47.4004 C   0  0  0  0  0  0  0  0  0  0  0  0
   45.9082   28.9062   48.7406 C   0  0  0  0  0  0  0  0  0  0  0  0
   46.6501   29.9006   49.5903 C   0  0  0  0  0  0  0  0  0  0  0  0
   46.1043   31.2692   49.3098 C   0  0  0  0  0  0  0  0  0  0  0  0
   47.5408   31.9818   47.8845 H   0  0  0  0  0  0  0  0  0  0  0  0
   47.2990   30.1798   46.5374 H   0  0  0  0  0  0  0  0  0  0  0  0
   45.8080   30.9927   46.0107 H   0  0  0  0  0  0  0  0  0  0  0  0
   45.6213   28.6018   46.6604 H   0  0  0  0  0  0  0  0  0  0  0  0
   44.4303   29.7352   47.3849 H   0  0  0  0  0  0  0  0  0  0  0  0
   44.9830   28.6193   49.2876 H   0  0  0  0  0  0  0  0  0  0  0  0
   46.5224   27.9743   48.6513 H   0  0  0  0  0  0  0  0  0  0  0  0
   47.7257   29.8467   49.3944 H   0  0  0  0  0  0  0  0  0  0  0  0
   46.4345   29.6799   50.6750 H   0  0  0  0  0  0  0  0  0  0  0  0
   46.4776   32.0181   50.0283 H   0  0  0  0  0  0  0  0  0  0  0  0
   44.9763   31.2078   49.3040 H   0  0  0  0  0  0  0  0  0  0  0  0
  1  6  2  0
  2  3  2  0
  2  1  1  0
  3  4  1  0
  4  5  2  0
  5 11  1  0
  6  5  1  0
  7  8  1  0
  7  2  1  0
  9  7  1  0
 10  7  1  0
  1 12  1  0
  3 13  1  0
 14 15  1  0
 15 16  1  0
 16 17  1  0
 17 18  1  0
 18 19  1  0
 19 14  1  0
 14 20  1  0
 15 21  1  0
 15 22  1  0
 16 23  1  0
 16 24  1  0
 17 25  1  0
 17 26  1  0
 18 27  1  0
 18 28  1  0
 19 29  1  0
 19 30  1  0
 11 14  1  0
M  ISO  2  12  14  13  14
M  END
>  <DihAtoms>  (1) 
4,10,13,14

>  <DihDeg>  (1) 
-118.56017576723124

$$$$
