
 OpenBabel03252503593D

 31 34  0  0  0  0  0  0  0  0999 V2000
   46.7190   35.0170   42.7280 C   0  0  0  0  0  0  0  0  0  0  0  0
   45.8280   36.0720   42.7200 C   0  0  0  0  0  0  0  0  0  0  0  0
   44.8750   36.1040   43.7280 C   0  0  0  0  0  0  0  0  0  0  0  0
   44.8620   35.1140   44.6580 N   0  0  0  0  0  0  0  0  0  0  0  0
   45.7550   34.1030   44.6230 C   0  0  0  0  0  0  0  0  0  0  0  0
   46.6910   34.0390   43.6620 N   0  0  0  0  0  0  0  0  0  0  0  0
   45.8460   36.8600   41.9720 H   0  0  0  0  0  0  0  0  0  0  0  0
   44.1300   36.8880   43.8130 H   0  0  0  0  0  0  0  0  0  0  0  0
   46.0250   31.7390   45.1970 C   0  0  0  0  0  0  0  0  0  0  0  0
   45.7350   33.0330   45.6340 C   0  0  0  0  0  0  0  0  0  0  0  0
   45.4470   33.2680   46.9580 C   0  0  0  0  0  0  0  0  0  0  0  0
   45.4480   32.2160   47.8510 C   0  0  0  0  0  0  0  0  0  0  0  0
   45.2150   32.1270   49.1610 N   0  0  0  0  0  0  0  0  0  0  0  0
   45.3410   30.8480   49.5780 C   0  0  0  0  0  0  0  0  0  0  0  0
   45.6690   30.0590   48.5080 C   0  0  0  0  0  0  0  0  0  0  0  0
   45.7350   30.9200   47.4310 C   0  0  0  0  0  0  0  0  0  0  0  0
   46.0240   30.6880   46.0920 C   0  0  0  0  0  0  0  0  0  0  0  0
   46.2560   31.5130   44.1660 H   0  0  0  0  0  0  0  0  0  0  0  0
   45.2300   34.2830   47.2500 H   0  0  0  0  0  0  0  0  0  0  0  0
   44.9660   32.9540   49.7810 H   0  0  0  0  0  0  0  0  0  0  0  0
   45.2200   30.4370   50.5690 H   0  0  0  0  0  0  0  0  0  0  0  0
   45.8430   28.9870   48.4930 H   0  0  0  0  0  0  0  0  0  0  0  0
   46.2490   29.6860   45.7530 H   0  0  0  0  0  0  0  0  0  0  0  0
   47.6980   35.0250   41.6550 C   0  0  0  0  0  0  0  0  0  0  0  0
   48.6790   35.8510   41.5900 O   0  0  0  0  0  0  0  0  0  0  0  0
   47.4830   33.9840   40.6150 C   0  0  0  0  0  3  0  0  0  0  0  0
   48.1830   34.4320   39.3260 C   0  0  0  0  0  2  0  0  0  0  0  0
   48.0130   33.4250   38.2380 C   0  0  0  0  0  2  0  0  0  0  0  0
   47.0410   32.3250   38.6080 C   0  0  0  0  0  2  0  0  0  0  0  0
   45.7650   32.8680   39.2170 C   0  0  0  0  0  2  0  0  0  0  0  0
   46.0150   33.8880   40.2800 C   0  0  0  0  0  2  0  0  0  0  0  0
  1  6  1  0  0  0  0
  2  1  2  0  0  0  0
  2  3  1  0  0  0  0
  3  8  1  0  0  0  0
  3  4  2  0  0  0  0
  5  4  1  0  0  0  0
  5 10  1  0  0  0  0
  6  5  2  0  0  0  0
  7  2  1  0  0  0  0
  9 10  2  0  0  0  0
  9 17  1  0  0  0  0
 10 11  1  0  0  0  0
 11 19  1  0  0  0  0
 11 12  2  0  0  0  0
 12 13  1  0  0  0  0
 13 14  1  0  0  0  0
 13 20  1  0  0  0  0
 14 21  1  0  0  0  0
 15 14  2  0  0  0  0
 16 12  1  0  0  0  0
 16 15  1  0  0  0  0
 17 16  2  0  0  0  0
 18  9  1  0  0  0  0
 22 15  1  0  0  0  0
 23 17  1  0  0  0  0
 24  1  1  0  0  0  0
 25 24  2  0  0  0  0
 26 24  1  0  0  0  0
 27 26  1  0  0  0  0
 28 29  1  0  0  0  0
 28 27  1  0  0  0  0
 29 30  1  0  0  0  0
 30 31  1  0  0  0  0
 31 26  1  0  0  0  0
M  END
>  <minimizedAffinity>
-6.25283003

>  <minimizedRMSD>
0.505571902

$$$$
