
 OpenBabel03252509273D

 27 29  0  0  1  0  0  0  0  0999 V2000
   46.6760   35.1310   41.9360 C   0  0  1  0  0  0  0  0  0  0  0  0
   48.2000   35.4390   41.9800 C   0  0  0  0  0  0  0  0  0  0  0  0
   47.5220   34.1940   41.3230 C   0  0  2  0  0  0  0  0  0  0  0  0
   46.0970   35.8920   41.3690 H   0  0  0  0  0  0  0  0  0  0  0  0
   48.5530   36.1730   41.2280 H   0  0  0  0  0  0  0  0  0  0  0  0
   48.7450   35.3010   42.9080 H   0  0  0  0  0  0  0  0  0  0  0  0
   47.7590   33.2540   41.9130 H   0  0  0  0  0  0  0  0  0  0  0  0
   44.6960   35.2890   45.1200 C   0  0  0  0  0  0  0  0  0  0  0  0
   45.1630   35.6580   43.8260 C   0  0  0  0  0  0  0  0  0  0  0  0
   46.1480   34.8710   43.3260 C   0  0  0  0  0  0  0  0  0  0  0  0
   46.6580   33.7980   44.0250 N   0  0  0  0  0  0  0  0  0  0  0  0
   46.1870   33.4800   45.2570 C   0  0  0  0  0  0  0  0  0  0  0  0
   45.1970   34.2370   45.8020 N   0  0  0  0  0  0  0  0  0  0  0  0
   43.9000   35.9260   45.5200 H   0  0  0  0  0  0  0  0  0  0  0  0
   46.5520   32.6570   45.8350 H   0  0  0  0  0  0  0  0  0  0  0  0
   44.6590   36.7710   43.1120 N   0  0  0  0  0  0  0  0  0  0  0  0
   44.0230   36.7570   42.2680 H   0  0  0  0  0  0  0  0  0  0  0  0
   44.8780   37.7810   43.3650 H   0  0  0  0  0  0  0  0  0  0  0  0
   47.6110   34.0560   39.8170 C   0  0  0  0  0  0  0  0  0  0  0  0
   46.6200   33.7580   39.4100 H   0  0  0  0  0  0  0  0  0  0  0  0
   47.8800   35.0530   39.3820 H   0  0  0  0  0  0  0  0  0  0  0  0
   48.6560   33.0100   39.4790 C   0  0  0  0  0  3  0  0  0  0  0  0
   48.4980   31.7800   40.2990 C   0  0  0  0  0  2  0  0  0  0  0  0
   48.8320   30.4820   39.6740 C   0  0  0  0  0  2  0  0  0  0  0  0
   49.7330   30.6980   38.4760 C   0  0  0  0  0  2  0  0  0  0  0  0
   48.8490   31.4510   37.4980 C   0  0  0  0  0  2  0  0  0  0  0  0
   48.7320   32.8560   38.0150 C   0  0  0  0  0  2  0  0  0  0  0  0
  1  4  1  6  0  0  0
  1  2  1  0  0  0  0
  1 10  1  0  0  0  0
  2  6  1  0  0  0  0
  3  7  1  1  0  0  0
  3  1  1  0  0  0  0
  3  2  1  0  0  0  0
  5  2  1  0  0  0  0
  8 14  1  0  0  0  0
  8 13  1  0  0  0  0
  9  8  2  0  0  0  0
 10  9  1  0  0  0  0
 10 11  2  0  0  0  0
 11 12  1  0  0  0  0
 12 13  2  0  0  0  0
 12 15  1  0  0  0  0
 16 18  1  0  0  0  0
 16  9  1  0  0  0  0
 17 16  1  0  0  0  0
 19  3  1  0  0  0  0
 20 19  1  0  0  0  0
 21 19  1  0  0  0  0
 22 19  1  0  0  0  0
 22 23  1  0  0  0  0
 24 23  1  0  0  0  0
 25 24  1  0  0  0  0
 26 27  1  0  0  0  0
 26 25  1  0  0  0  0
 27 22  1  0  0  0  0
M  END
>  <minimizedAffinity>
-4.5559535

>  <minimizedRMSD>
0.358327419

$$$$
