
 OpenBabel03252508573D

 21 22  0  0  0  0  0  0  0  0999 V2000
   37.6930   28.3190   43.6460 C   0  0  0  0  0  0  0  0  0  0  0  0
   38.7290   27.9690   43.8480 H   0  0  0  0  0  0  0  0  0  0  0  0
   37.2840   28.7240   44.5750 H   0  0  0  0  0  0  0  0  0  0  0  0
   39.2110   31.1150   41.6340 C   0  0  0  0  0  0  0  0  0  0  0  0
   39.0570   30.0710   42.5580 C   0  0  0  0  0  0  0  0  0  0  0  0
   37.8370   29.4230   42.6630 C   0  0  0  0  0  0  0  0  0  0  0  0
   36.8390   29.8510   41.8420 N   0  0  0  0  0  0  0  0  0  0  0  0
   37.0090   30.8550   40.9640 C   0  0  0  0  0  0  0  0  0  0  0  0
   38.1710   31.4870   40.8490 N   0  0  0  0  0  0  0  0  0  0  0  0
   40.2060   31.5420   41.6450 H   0  0  0  0  0  0  0  0  0  0  0  0
   39.8570   29.7400   43.2040 H   0  0  0  0  0  0  0  0  0  0  0  0
   36.1770   31.1710   40.3180 H   0  0  0  0  0  0  0  0  0  0  0  0
   36.8260   27.2450   43.0440 C   0  0  0  0  0  0  0  0  0  0  0  0
   36.2920   26.7440   43.8690 H   0  0  0  0  0  0  0  0  0  0  0  0
   36.0520   27.7420   42.4250 H   0  0  0  0  0  0  0  0  0  0  0  0
   37.5800   26.2130   42.2540 C   0  0  0  0  0  3  0  0  0  0  0  0
   38.9350   26.0550   42.8820 C   0  0  0  0  0  2  0  0  0  0  0  0
   39.3930   24.6200   42.9350 C   0  0  0  0  0  2  0  0  0  0  0  0
   39.0830   24.0260   41.5620 C   0  0  0  0  0  2  0  0  0  0  0  0
   37.5940   23.8500   41.4930 C   0  0  0  0  0  2  0  0  0  0  0  0
   36.8040   24.9190   42.1580 C   0  0  0  0  0  2  0  0  0  0  0  0
  1  2  1  0  0  0  0
  1  3  1  0  0  0  0
  4 10  1  0  0  0  0
  4  5  1  0  0  0  0
  5  6  2  0  0  0  0
  5 11  1  0  0  0  0
  6  1  1  0  0  0  0
  7  6  1  0  0  0  0
  8  7  2  0  0  0  0
  9  8  1  0  0  0  0
  9  4  2  0  0  0  0
 12  8  1  0  0  0  0
 13  1  1  0  0  0  0
 13 14  1  0  0  0  0
 15 13  1  0  0  0  0
 16 17  1  0  0  0  0
 16 13  1  0  0  0  0
 17 18  1  0  0  0  0
 19 18  1  0  0  0  0
 20 19  1  0  0  0  0
 20 21  1  0  0  0  0
 21 16  1  0  0  0  0
M  END
>  <minimizedAffinity>
-4.69142485

$$$$

 OpenBabel03252508573D

 21 22  0  0  0  0  0  0  0  0999 V2000
   38.8400   29.4530   42.9250 C   0  0  0  0  0  0  0  0  0  0  0  0
   39.6540   28.9230   42.3840 H   0  0  0  0  0  0  0  0  0  0  0  0
   39.2970   30.1150   43.6640 H   0  0  0  0  0  0  0  0  0  0  0  0
   36.1910   30.7540   40.5880 C   0  0  0  0  0  0  0  0  0  0  0  0
   36.8480   29.9840   41.5580 C   0  0  0  0  0  0  0  0  0  0  0  0
   38.1600   30.2790   41.8950 C   0  0  0  0  0  0  0  0  0  0  0  0
   38.7420   31.3260   41.2470 N   0  0  0  0  0  0  0  0  0  0  0  0
   38.0920   32.0500   40.3190 C   0  0  0  0  0  0  0  0  0  0  0  0
   36.8360   31.7820   39.9840 N   0  0  0  0  0  0  0  0  0  0  0  0
   35.1740   30.4290   40.4110 H   0  0  0  0  0  0  0  0  0  0  0  0
   36.3750   29.1560   42.0650 H   0  0  0  0  0  0  0  0  0  0  0  0
   38.5980   32.8880   39.8180 H   0  0  0  0  0  0  0  0  0  0  0  0
   37.8340   28.5090   43.5280 C   0  0  0  0  0  0  0  0  0  0  0  0
   37.6150   28.8610   44.5500 H   0  0  0  0  0  0  0  0  0  0  0  0
   36.8900   28.6060   42.9530 H   0  0  0  0  0  0  0  0  0  0  0  0
   38.2900   27.0780   43.5920 C   0  0  0  0  0  3  0  0  0  0  0  0
   37.7070   26.3580   42.4100 C   0  0  0  0  0  2  0  0  0  0  0  0
   38.6740   25.3910   41.7760 C   0  0  0  0  0  2  0  0  0  0  0  0
   39.3220   24.6250   42.9290 C   0  0  0  0  0  2  0  0  0  0  0  0
   40.2670   25.5760   43.6030 C   0  0  0  0  0  2  0  0  0  0  0  0
   39.7970   26.9850   43.6720 C   0  0  0  0  0  2  0  0  0  0  0  0
  1 13  1  0  0  0  0
  1  3  1  0  0  0  0
  2  1  1  0  0  0  0
  4  5  1  0  0  0  0
  5  6  2  0  0  0  0
  5 11  1  0  0  0  0
  6  1  1  0  0  0  0
  7  6  1  0  0  0  0
  8  7  2  0  0  0  0
  9  8  1  0  0  0  0
  9  4  2  0  0  0  0
 10  4  1  0  0  0  0
 12  8  1  0  0  0  0
 13 16  1  0  0  0  0
 13 14  1  0  0  0  0
 15 13  1  0  0  0  0
 16 21  1  0  0  0  0
 17 16  1  0  0  0  0
 18 17  1  0  0  0  0
 18 19  1  0  0  0  0
 19 20  1  0  0  0  0
 20 21  1  0  0  0  0
M  END
>  <minimizedAffinity>
-4.45564651

$$$$

 OpenBabel03252508573D

 21 22  0  0  0  0  0  0  0  0999 V2000
   35.4530   29.2010   40.4680 C   0  0  0  0  0  0  0  0  0  0  0  0
   35.3900   29.3690   41.5650 H   0  0  0  0  0  0  0  0  0  0  0  0
   34.4400   29.2310   40.0610 H   0  0  0  0  0  0  0  0  0  0  0  0
   37.3220   31.4390   38.0870 C   0  0  0  0  0  0  0  0  0  0  0  0
   36.6000   30.3550   38.6040 C   0  0  0  0  0  0  0  0  0  0  0  0
   36.2190   30.3570   39.9370 C   0  0  0  0  0  0  0  0  0  0  0  0
   36.5800   31.4410   40.6790 N   0  0  0  0  0  0  0  0  0  0  0  0
   37.2740   32.4700   40.1610 C   0  0  0  0  0  0  0  0  0  0  0  0
   37.6470   32.4840   38.8870 N   0  0  0  0  0  0  0  0  0  0  0  0
   37.5620   31.3220   37.0380 H   0  0  0  0  0  0  0  0  0  0  0  0
   36.3190   29.5000   38.0060 H   0  0  0  0  0  0  0  0  0  0  0  0
   37.5460   33.3270   40.7940 H   0  0  0  0  0  0  0  0  0  0  0  0
   36.1870   27.9340   40.1170 C   0  0  0  0  0  0  0  0  0  0  0  0
   35.4360   27.1850   39.8130 H   0  0  0  0  0  0  0  0  0  0  0  0
   36.8080   28.1380   39.2210 H   0  0  0  0  0  0  0  0  0  0  0  0
   37.0140   27.3680   41.2370 C   0  0  0  0  0  3  0  0  0  0  0  0
   38.4570   27.6490   40.9290 C   0  0  0  0  0  2  0  0  0  0  0  0
   39.2480   28.0590   42.1450 C   0  0  0  0  0  2  0  0  0  0  0  0
   38.8510   27.0870   43.2550 C   0  0  0  0  0  2  0  0  0  0  0  0
   37.4600   27.4590   43.6790 C   0  0  0  0  0  2  0  0  0  0  0  0
   36.5670   27.9080   42.5770 C   0  0  0  0  0  2  0  0  0  0  0  0
  1  2  1  0  0  0  0
  3  1  1  0  0  0  0
  4  5  2  0  0  0  0
  4  9  1  0  0  0  0
  5  6  1  0  0  0  0
  6  1  1  0  0  0  0
  6  7  2  0  0  0  0
  8  7  1  0  0  0  0
  8 12  1  0  0  0  0
  9  8  2  0  0  0  0
 10  4  1  0  0  0  0
 11  5  1  0  0  0  0
 13  1  1  0  0  0  0
 13 16  1  0  0  0  0
 14 13  1  0  0  0  0
 15 13  1  0  0  0  0
 16 21  1  0  0  0  0
 17 16  1  0  0  0  0
 17 18  1  0  0  0  0
 18 19  1  0  0  0  0
 19 20  1  0  0  0  0
 21 20  1  0  0  0  0
M  END
>  <minimizedAffinity>
-4.3183713

$$$$

 OpenBabel03252508573D

 21 22  0  0  0  0  0  0  0  0999 V2000
   37.8720   30.6140   39.8220 C   0  0  0  0  0  0  0  0  0  0  0  0
   37.4530   30.4730   38.8010 H   0  0  0  0  0  0  0  0  0  0  0  0
   38.5190   29.7620   40.0440 H   0  0  0  0  0  0  0  0  0  0  0  0
   39.0760   34.1410   40.3550 C   0  0  0  0  0  0  0  0  0  0  0  0
   38.3000   32.9750   40.4240 C   0  0  0  0  0  0  0  0  0  0  0  0
   38.7060   31.8400   39.7370 C   0  0  0  0  0  0  0  0  0  0  0  0
   39.8610   31.9330   39.0220 N   0  0  0  0  0  0  0  0  0  0  0  0
   40.5880   33.0630   38.9710 C   0  0  0  0  0  0  0  0  0  0  0  0
   40.2150   34.1580   39.6220 N   0  0  0  0  0  0  0  0  0  0  0  0
   38.6580   34.9570   40.9310 H   0  0  0  0  0  0  0  0  0  0  0  0
   37.3850   32.9140   40.9940 H   0  0  0  0  0  0  0  0  0  0  0  0
   41.5150   33.0960   38.3810 H   0  0  0  0  0  0  0  0  0  0  0  0
   36.8050   30.8260   40.8620 C   0  0  0  0  0  0  0  0  0  0  0  0
   37.0740   31.7270   41.4390 H   0  0  0  0  0  0  0  0  0  0  0  0
   35.8580   31.0620   40.3340 H   0  0  0  0  0  0  0  0  0  0  0  0
   36.6300   29.6750   41.8110 C   0  0  0  0  0  3  0  0  0  0  0  0
   36.2500   28.4670   41.0020 C   0  0  0  0  0  2  0  0  0  0  0  0
   36.9250   27.2060   41.4770 C   0  0  0  0  0  2  0  0  0  0  0  0
   36.8030   27.2080   42.9990 C   0  0  0  0  0  2  0  0  0  0  0  0
   37.7540   28.2520   43.5090 C   0  0  0  0  0  2  0  0  0  0  0  0
   37.8640   29.4680   42.6600 C   0  0  0  0  0  2  0  0  0  0  0  0
  1  3  1  0  0  0  0
  1 13  1  0  0  0  0
  2  1  1  0  0  0  0
  4  5  1  0  0  0  0
  4 10  1  0  0  0  0
  5 11  1  0  0  0  0
  6  1  1  0  0  0  0
  6  5  2  0  0  0  0
  7  6  1  0  0  0  0
  8  7  2  0  0  0  0
  8  9  1  0  0  0  0
  9  4  2  0  0  0  0
 12  8  1  0  0  0  0
 13 14  1  0  0  0  0
 13 16  1  0  0  0  0
 15 13  1  0  0  0  0
 16 21  1  0  0  0  0
 17 18  1  0  0  0  0
 17 16  1  0  0  0  0
 18 19  1  0  0  0  0
 19 20  1  0  0  0  0
 21 20  1  0  0  0  0
M  END
>  <minimizedAffinity>
-4.2260232

$$$$

 OpenBabel03252508573D

 21 22  0  0  0  0  0  0  0  0999 V2000
   35.9950   28.5240   41.4870 C   0  0  0  0  0  0  0  0  0  0  0  0
   35.0290   28.8110   41.9580 H   0  0  0  0  0  0  0  0  0  0  0  0
   35.8240   27.6300   40.8820 H   0  0  0  0  0  0  0  0  0  0  0  0
   36.6700   30.5000   38.3550 C   0  0  0  0  0  0  0  0  0  0  0  0
   36.3440   29.4440   39.2180 C   0  0  0  0  0  0  0  0  0  0  0  0
   36.3440   29.6530   40.5890 C   0  0  0  0  0  0  0  0  0  0  0  0
   36.6690   30.9030   41.0210 N   0  0  0  0  0  0  0  0  0  0  0  0
   36.9790   31.9000   40.1740 C   0  0  0  0  0  0  0  0  0  0  0  0
   36.9840   31.7180   38.8590 N   0  0  0  0  0  0  0  0  0  0  0  0
   36.6360   30.2150   37.3110 H   0  0  0  0  0  0  0  0  0  0  0  0
   36.0870   28.4570   38.8630 H   0  0  0  0  0  0  0  0  0  0  0  0
   37.2360   32.8960   40.5640 H   0  0  0  0  0  0  0  0  0  0  0  0
   37.1010   28.3480   42.4930 C   0  0  0  0  0  0  0  0  0  0  0  0
   37.6870   29.2820   42.5140 H   0  0  0  0  0  0  0  0  0  0  0  0
   36.6350   28.2470   43.4950 H   0  0  0  0  0  0  0  0  0  0  0  0
   38.0250   27.1990   42.2010 C   0  0  0  0  0  3  0  0  0  0  0  0
   39.2110   27.3220   43.1140 C   0  0  0  0  0  2  0  0  0  0  0  0
   39.6680   25.9950   43.6660 C   0  0  0  0  0  2  0  0  0  0  0  0
   39.6750   25.0270   42.4840 C   0  0  0  0  0  2  0  0  0  0  0  0
   38.2400   24.7250   42.1620 C   0  0  0  0  0  2  0  0  0  0  0  0
   37.3080   25.8730   42.3190 C   0  0  0  0  0  2  0  0  0  0  0  0
  1  2  1  0  0  0  0
  1 13  1  0  0  0  0
  3  1  1  0  0  0  0
  4  9  2  0  0  0  0
  4  5  1  0  0  0  0
  5  6  2  0  0  0  0
  6  7  1  0  0  0  0
  6  1  1  0  0  0  0
  8 12  1  0  0  0  0
  8  7  2  0  0  0  0
  9  8  1  0  0  0  0
 10  4  1  0  0  0  0
 11  5  1  0  0  0  0
 13 14  1  0  0  0  0
 13 15  1  0  0  0  0
 16 21  1  0  0  0  0
 16 13  1  0  0  0  0
 16 17  1  0  0  0  0
 17 18  1  0  0  0  0
 19 18  1  0  0  0  0
 20 21  1  0  0  0  0
 20 19  1  0  0  0  0
M  END
>  <minimizedAffinity>
-4.19839382

$$$$

 OpenBabel03252508573D

 21 22  0  0  0  0  0  0  0  0999 V2000
   35.5280   28.8950   40.1480 C   0  0  0  0  0  0  0  0  0  0  0  0
   34.4950   29.2360   40.3790 H   0  0  0  0  0  0  0  0  0  0  0  0
   35.4720   28.1700   39.3330 H   0  0  0  0  0  0  0  0  0  0  0  0
   37.1690   32.2830   40.1240 C   0  0  0  0  0  0  0  0  0  0  0  0
   36.4960   31.1330   40.5610 C   0  0  0  0  0  0  0  0  0  0  0  0
   36.2420   30.1050   39.6670 C   0  0  0  0  0  0  0  0  0  0  0  0
   36.6720   30.2820   38.3870 N   0  0  0  0  0  0  0  0  0  0  0  0
   37.3150   31.3930   37.9900 C   0  0  0  0  0  0  0  0  0  0  0  0
   37.5680   32.3880   38.8330 N   0  0  0  0  0  0  0  0  0  0  0  0
   37.3090   33.0130   40.9110 H   0  0  0  0  0  0  0  0  0  0  0  0
   36.1590   31.0050   41.5800 H   0  0  0  0  0  0  0  0  0  0  0  0
   37.6460   31.4970   36.9470 H   0  0  0  0  0  0  0  0  0  0  0  0
   36.2460   28.3610   41.3590 C   0  0  0  0  0  0  0  0  0  0  0  0
   36.9120   29.1570   41.7320 H   0  0  0  0  0  0  0  0  0  0  0  0
   35.4900   28.1870   42.1520 H   0  0  0  0  0  0  0  0  0  0  0  0
   37.0610   27.1250   41.0990 C   0  0  0  0  0  3  0  0  0  0  0  0
   37.0570   26.3010   42.3550 C   0  0  0  0  0  2  0  0  0  0  0  0
   36.9210   24.8230   42.0870 C   0  0  0  0  0  2  0  0  0  0  0  0
   37.8810   24.5130   40.9400 C   0  0  0  0  0  2  0  0  0  0  0  0
   37.2700   25.0870   39.6950 C   0  0  0  0  0  2  0  0  0  0  0  0
   36.5570   26.3790   39.8850 C   0  0  0  0  0  2  0  0  0  0  0  0
  1  2  1  0  0  0  0
  1 13  1  0  0  0  0
  3  1  1  0  0  0  0
  4  5  1  0  0  0  0
  4 10  1  0  0  0  0
  5 11  1  0  0  0  0
  6  1  1  0  0  0  0
  6  5  2  0  0  0  0
  7  6  1  0  0  0  0
  8  7  2  0  0  0  0
  8  9  1  0  0  0  0
  9  4  2  0  0  0  0
 12  8  1  0  0  0  0
 13 14  1  0  0  0  0
 13 15  1  0  0  0  0
 16 13  1  0  0  0  0
 16 17  1  0  0  0  0
 18 17  1  0  0  0  0
 19 18  1  0  0  0  0
 20 21  1  0  0  0  0
 20 19  1  0  0  0  0
 21 16  1  0  0  0  0
M  END
>  <minimizedAffinity>
-4.16685963

$$$$

 OpenBabel03252508573D

 21 22  0  0  0  0  0  0  0  0999 V2000
   35.9430   30.2740   40.4580 C   0  0  0  0  0  0  0  0  0  0  0  0
   36.8500   30.6030   41.0110 H   0  0  0  0  0  0  0  0  0  0  0  0
   35.1580   31.0170   40.6200 H   0  0  0  0  0  0  0  0  0  0  0  0
   37.6330   31.2570   37.2410 C   0  0  0  0  0  0  0  0  0  0  0  0
   37.2550   31.2280   38.5910 C   0  0  0  0  0  0  0  0  0  0  0  0
   36.3300   30.2900   39.0250 C   0  0  0  0  0  0  0  0  0  0  0  0
   35.8350   29.4350   38.0880 N   0  0  0  0  0  0  0  0  0  0  0  0
   36.2120   29.4820   36.7980 C   0  0  0  0  0  0  0  0  0  0  0  0
   37.0960   30.3720   36.3650 N   0  0  0  0  0  0  0  0  0  0  0  0
   38.3590   32.0300   37.0240 H   0  0  0  0  0  0  0  0  0  0  0  0
   37.6560   31.9120   39.3250 H   0  0  0  0  0  0  0  0  0  0  0  0
   35.7870   28.7730   36.0730 H   0  0  0  0  0  0  0  0  0  0  0  0
   35.5130   28.8790   40.8270 C   0  0  0  0  0  0  0  0  0  0  0  0
   34.4810   28.9370   41.2100 H   0  0  0  0  0  0  0  0  0  0  0  0
   35.4690   28.2800   39.8940 H   0  0  0  0  0  0  0  0  0  0  0  0
   36.3800   28.2190   41.8610 C   0  0  0  0  0  3  0  0  0  0  0  0
   37.0210   27.0190   41.2240 C   0  0  0  0  0  2  0  0  0  0  0  0
   38.4630   26.8410   41.6260 C   0  0  0  0  0  2  0  0  0  0  0  0
   38.5090   27.0520   43.1380 C   0  0  0  0  0  2  0  0  0  0  0  0
   38.3240   28.5230   43.3760 C   0  0  0  0  0  2  0  0  0  0  0  0
   37.3750   29.1940   42.4490 C   0  0  0  0  0  2  0  0  0  0  0  0
  1  3  1  0  0  0  0
  1 13  1  0  0  0  0
  1  2  1  0  0  0  0
  4  5  1  0  0  0  0
  5  6  2  0  0  0  0
  5 11  1  0  0  0  0
  6  1  1  0  0  0  0
  7  6  1  0  0  0  0
  8  7  2  0  0  0  0
  9  8  1  0  0  0  0
  9  4  2  0  0  0  0
 10  4  1  0  0  0  0
 12  8  1  0  0  0  0
 13 14  1  0  0  0  0
 13 16  1  0  0  0  0
 15 13  1  0  0  0  0
 16 21  1  0  0  0  0
 17 18  1  0  0  0  0
 17 16  1  0  0  0  0
 18 19  1  0  0  0  0
 19 20  1  0  0  0  0
 21 20  1  0  0  0  0
M  END
>  <minimizedAffinity>
-4.16597939

$$$$

 OpenBabel03252508573D

 21 22  0  0  0  0  0  0  0  0999 V2000
   36.4770   30.4120   39.4010 C   0  0  0  0  0  0  0  0  0  0  0  0
   35.8310   30.8020   38.5840 H   0  0  0  0  0  0  0  0  0  0  0  0
   37.1390   29.6540   38.9780 H   0  0  0  0  0  0  0  0  0  0  0  0
   39.1230   32.4410   41.1490 C   0  0  0  0  0  0  0  0  0  0  0  0
   38.3410   31.3580   40.7230 C   0  0  0  0  0  0  0  0  0  0  0  0
   37.2930   31.5720   39.8410 C   0  0  0  0  0  0  0  0  0  0  0  0
   37.0840   32.8540   39.4330 N   0  0  0  0  0  0  0  0  0  0  0  0
   37.8460   33.8780   39.8550 C   0  0  0  0  0  0  0  0  0  0  0  0
   38.8540   33.6920   40.6990 N   0  0  0  0  0  0  0  0  0  0  0  0
   39.9070   32.1500   41.8350 H   0  0  0  0  0  0  0  0  0  0  0  0
   38.5170   30.3450   41.0550 H   0  0  0  0  0  0  0  0  0  0  0  0
   37.6440   34.8990   39.5010 H   0  0  0  0  0  0  0  0  0  0  0  0
   35.6830   29.9070   40.5760 C   0  0  0  0  0  0  0  0  0  0  0  0
   35.9540   30.5200   41.4520 H   0  0  0  0  0  0  0  0  0  0  0  0
   34.6110   30.1070   40.3720 H   0  0  0  0  0  0  0  0  0  0  0  0
   35.9170   28.4590   40.9040 C   0  0  0  0  0  3  0  0  0  0  0  0
   36.5770   27.8210   39.7150 C   0  0  0  0  0  2  0  0  0  0  0  0
   37.6660   26.8520   40.0980 C   0  0  0  0  0  2  0  0  0  0  0  0
   37.0970   26.0060   41.2350 C   0  0  0  0  0  2  0  0  0  0  0  0
   37.0560   26.8850   42.4510 C   0  0  0  0  0  2  0  0  0  0  0  0
   36.7040   28.3060   42.1850 C   0  0  0  0  0  2  0  0  0  0  0  0
  1  6  1  0  0  0  0
  1 13  1  0  0  0  0
  2  1  1  0  0  0  0
  3  1  1  0  0  0  0
  4 10  1  0  0  0  0
  5 11  1  0  0  0  0
  5  4  1  0  0  0  0
  6  5  2  0  0  0  0
  7  6  1  0  0  0  0
  7  8  2  0  0  0  0
  8  9  1  0  0  0  0
  9  4  2  0  0  0  0
 12  8  1  0  0  0  0
 13 16  1  0  0  0  0
 13 14  1  0  0  0  0
 15 13  1  0  0  0  0
 16 21  1  0  0  0  0
 17 18  1  0  0  0  0
 17 16  1  0  0  0  0
 18 19  1  0  0  0  0
 19 20  1  0  0  0  0
 21 20  1  0  0  0  0
M  END
>  <minimizedAffinity>
-4.13870144

$$$$

 OpenBabel03252508573D

 21 22  0  0  0  0  0  0  0  0999 V2000
   36.1360   27.7840   39.6810 C   0  0  0  0  0  0  0  0  0  0  0  0
   36.8700   28.1170   38.9140 H   0  0  0  0  0  0  0  0  0  0  0  0
   35.4400   27.0910   39.2040 H   0  0  0  0  0  0  0  0  0  0  0  0
   37.7570   26.8590   42.9500 C   0  0  0  0  0  0  0  0  0  0  0  0
   37.0080   27.5440   41.9830 C   0  0  0  0  0  0  0  0  0  0  0  0
   36.9340   27.0450   40.6920 C   0  0  0  0  0  0  0  0  0  0  0  0
   37.6110   25.8910   40.4380 N   0  0  0  0  0  0  0  0  0  0  0  0
   38.3230   25.2510   41.3820 C   0  0  0  0  0  0  0  0  0  0  0  0
   38.4050   25.7140   42.6230 N   0  0  0  0  0  0  0  0  0  0  0  0
   37.7390   27.3440   43.9170 H   0  0  0  0  0  0  0  0  0  0  0  0
   36.4750   28.4590   42.1960 H   0  0  0  0  0  0  0  0  0  0  0  0
   38.8560   24.3210   41.1360 H   0  0  0  0  0  0  0  0  0  0  0  0
   35.4440   28.9360   40.3600 C   0  0  0  0  0  0  0  0  0  0  0  0
   34.3570   28.7890   40.2420 H   0  0  0  0  0  0  0  0  0  0  0  0
   35.6540   28.8650   41.4460 H   0  0  0  0  0  0  0  0  0  0  0  0
   35.8150   30.2870   39.8170 C   0  0  0  0  0  3  0  0  0  0  0  0
   36.3610   31.1030   40.9530 C   0  0  0  0  0  2  0  0  0  0  0  0
   37.5530   31.9380   40.5580 C   0  0  0  0  0  2  0  0  0  0  0  0
   37.1910   32.5840   39.2220 C   0  0  0  0  0  2  0  0  0  0  0  0
   37.2440   31.4980   38.1870 C   0  0  0  0  0  2  0  0  0  0  0  0
   36.7670   30.1680   38.6480 C   0  0  0  0  0  2  0  0  0  0  0  0
  1 13  1  0  0  0  0
  1  6  1  0  0  0  0
  2  1  1  0  0  0  0
  3  1  1  0  0  0  0
  4 10  1  0  0  0  0
  5 11  1  0  0  0  0
  5  4  2  0  0  0  0
  6  5  1  0  0  0  0
  7  6  2  0  0  0  0
  7  8  1  0  0  0  0
  8  9  2  0  0  0  0
  9  4  1  0  0  0  0
 12  8  1  0  0  0  0
 13 15  1  0  0  0  0
 14 13  1  0  0  0  0
 16 13  1  0  0  0  0
 16 17  1  0  0  0  0
 18 17  1  0  0  0  0
 19 18  1  0  0  0  0
 20 21  1  0  0  0  0
 20 19  1  0  0  0  0
 21 16  1  0  0  0  0
M  END
>  <minimizedAffinity>
-4.11533833

$$$$
