REMARK  Name = 
REMARK  8 active torsions:
REMARK  status: ('A' for Active; 'I' for Inactive)
REMARK    1  A    between atoms: S_1  and  C_3
REMARK    2  A    between atoms: S_1  and  C_8
REMARK    3  A    between atoms: C_8  and  N_9
REMARK    4  A    between atoms: N_9  and  S_10
REMARK    5  A    between atoms: S_10  and  O_11
REMARK    6  A    between atoms: S_10  and  O_12
REMARK    7  A    between atoms: S_10  and  O_13
REMARK    8  A    between atoms: O_13  and  C_22
REMARK                            x       y       z     vdW  Elec       q    Type
REMARK                         _______ _______ _______ _____ _____    ______ ____
ROOT
ATOM      1  N   UNL     1      43.577  36.048  41.973  0.00  0.00    +0.000 NA
ATOM      2  H   UNL     1      43.485  37.009  41.610  0.00  0.00    +0.000 HD
ENDROOT
BRANCH   1   3
ATOM      3  C   UNL     1      43.736  35.068  40.892  0.00  0.00    +0.000 C 
ATOM      4  H   UNL     1      43.565  35.608  39.946  0.00  0.00    +0.000 HD
ATOM      5  H   UNL     1      44.737  34.614  40.888  0.00  0.00    +0.000 HD
BRANCH   3   6
ATOM      6  S   UNL     1      42.490  33.799  41.136  0.00  0.00    +0.000 S 
BRANCH   6   8
ATOM      7  C   UNL     1      39.828  34.060  40.421  0.00  0.00    +0.000 A 
ATOM      8  C   UNL     1      41.137  34.060  39.963  0.00  0.00    +0.000 A 
ATOM      9  C   UNL     1      41.419  34.259  38.606  0.00  0.00    +0.000 A 
ATOM     10  N   UNL     1      40.352  34.449  37.778  0.00  0.00    +0.000 NA
ATOM     11  C   UNL     1      39.106  34.440  38.272  0.00  0.00    +0.000 A 
ATOM     12  N   UNL     1      38.804  34.256  39.542  0.00  0.00    +0.000 NA
ATOM     13  H   UNL     1      39.583  33.909  41.464  0.00  0.00    +0.000 HD
ATOM     14  H   UNL     1      42.467  34.243  38.334  0.00  0.00    +0.000 HD
ATOM     15  H   UNL     1      38.396  34.609  37.449  0.00  0.00    +0.000 HD
ENDBRANCH   6   8
ENDBRANCH   3   6
ENDBRANCH   1   3
BRANCH   1  16
ATOM     16  S   UNL     1      44.844  35.924  43.139  0.00  0.00    +0.000 S 
BRANCH  16  17
ATOM     17  O   UNL     1      45.986  35.117  42.628  0.00  0.00    +0.000 OA
ATOM     18  H   UNL     1      46.721  35.558  42.100  0.00  0.00    +0.000 HD
ENDBRANCH  16  17
BRANCH  16  19
ATOM     19  O   UNL     1      45.289  37.360  43.404  0.00  0.00    +0.000 OA
ATOM     20  H   UNL     1      46.233  37.529  43.660  0.00  0.00    +0.000 HD
ENDBRANCH  16  19
BRANCH  16  21
ATOM     21  O   UNL     1      44.209  35.356  44.569  0.00  0.00    +0.000 OA
BRANCH  21  22
ATOM     22  C   UNL     1      43.992  36.342  45.523  0.00  0.00    +0.000 C 
ATOM     23  C   UNL     1      43.387  37.536  44.858  0.00  0.00    +0.000 C 
ATOM     24  C   UNL     1      43.959  38.854  45.273  0.00  0.00    +0.000 C 
ATOM     25  C   UNL     1      45.442  38.969  45.166  0.00  0.00    +0.000 C 
ATOM     26  C   UNL     1      46.121  37.634  45.266  0.00  0.00    +0.000 C 
ATOM     27  C   UNL     1      45.273  36.788  46.185  0.00  0.00    +0.000 C 
ENDBRANCH  21  22
ENDBRANCH  16  21
ENDBRANCH   1  16
TORSDOF 8
