
 OpenBabel03252509273D

 27 29  0  0  1  0  0  0  0  0999 V2000
   46.6760   35.1310   41.9350 C   0  0  1  0  0  0  0  0  0  0  0  0
   48.2010   35.4380   41.9800 C   0  0  0  0  0  0  0  0  0  0  0  0
   47.5220   34.1930   41.3220 C   0  0  2  0  0  0  0  0  0  0  0  0
   46.0980   35.8920   41.3690 H   0  0  0  0  0  0  0  0  0  0  0  0
   48.5540   36.1730   41.2280 H   0  0  0  0  0  0  0  0  0  0  0  0
   48.7450   35.3000   42.9080 H   0  0  0  0  0  0  0  0  0  0  0  0
   47.7590   33.2540   41.9120 H   0  0  0  0  0  0  0  0  0  0  0  0
   44.6960   35.2890   45.1190 C   0  0  0  0  0  0  0  0  0  0  0  0
   45.1630   35.6570   43.8250 C   0  0  0  0  0  0  0  0  0  0  0  0
   46.1490   34.8710   43.3260 C   0  0  0  0  0  0  0  0  0  0  0  0
   46.6580   33.7980   44.0250 N   0  0  0  0  0  0  0  0  0  0  0  0
   46.1880   33.4800   45.2570 C   0  0  0  0  0  0  0  0  0  0  0  0
   45.1970   34.2370   45.8020 N   0  0  0  0  0  0  0  0  0  0  0  0
   43.9000   35.9260   45.5190 H   0  0  0  0  0  0  0  0  0  0  0  0
   46.5530   32.6570   45.8350 H   0  0  0  0  0  0  0  0  0  0  0  0
   44.6590   36.7710   43.1120 N   0  0  0  0  0  0  0  0  0  0  0  0
   44.0230   36.7570   42.2670 H   0  0  0  0  0  0  0  0  0  0  0  0
   44.8780   37.7810   43.3640 H   0  0  0  0  0  0  0  0  0  0  0  0
   47.6110   34.0560   39.8170 C   0  0  0  0  0  0  0  0  0  0  0  0
   46.6210   33.7580   39.4100 H   0  0  0  0  0  0  0  0  0  0  0  0
   47.8810   35.0530   39.3810 H   0  0  0  0  0  0  0  0  0  0  0  0
   48.6570   33.0100   39.4780 C   0  0  0  0  0  3  0  0  0  0  0  0
   48.4980   31.7810   40.2980 C   0  0  0  0  0  2  0  0  0  0  0  0
   48.8330   30.4820   39.6750 C   0  0  0  0  0  2  0  0  0  0  0  0
   49.7340   30.6990   38.4750 C   0  0  0  0  0  2  0  0  0  0  0  0
   48.8490   31.4510   37.4980 C   0  0  0  0  0  2  0  0  0  0  0  0
   48.7320   32.8560   38.0150 C   0  0  0  0  0  2  0  0  0  0  0  0
  1  4  1  6  0  0  0
  1  2  1  0  0  0  0
  1 10  1  0  0  0  0
  2  6  1  0  0  0  0
  3  7  1  1  0  0  0
  3  1  1  0  0  0  0
  3  2  1  0  0  0  0
  5  2  1  0  0  0  0
  8 14  1  0  0  0  0
  8 13  1  0  0  0  0
  9  8  2  0  0  0  0
 10  9  1  0  0  0  0
 10 11  2  0  0  0  0
 11 12  1  0  0  0  0
 12 13  2  0  0  0  0
 12 15  1  0  0  0  0
 16 18  1  0  0  0  0
 16  9  1  0  0  0  0
 17 16  1  0  0  0  0
 19  3  1  0  0  0  0
 20 19  1  0  0  0  0
 21 19  1  0  0  0  0
 22 19  1  0  0  0  0
 22 23  1  0  0  0  0
 24 23  1  0  0  0  0
 25 24  1  0  0  0  0
 26 27  1  0  0  0  0
 26 25  1  0  0  0  0
 27 22  1  0  0  0  0
M  END
>  <minimizedAffinity>
-4.55603695

>  <minimizedRMSD>
0.362208903

$$$$
