
 OpenBabel03252508503D

 25 27  0  0  0  0  0  0  0  0999 V2000
   45.8940   34.1590   41.0190 C   0  0  0  0  0  0  0  0  0  0  0  0
   46.5010   34.7800   42.1050 C   0  0  0  0  0  0  0  0  0  0  0  0
   47.8460   35.1390   41.9790 C   0  0  0  0  0  0  0  0  0  0  0  0
   48.4820   34.8620   40.8090 N   0  0  0  0  0  0  0  0  0  0  0  0
   47.8560   34.2570   39.7810 C   0  0  0  0  0  0  0  0  0  0  0  0
   46.5530   33.9050   39.8900 N   0  0  0  0  0  0  0  0  0  0  0  0
   48.3490   35.6300   42.8180 H   0  0  0  0  0  0  0  0  0  0  0  0
   48.3750   34.0430   38.8580 H   0  0  0  0  0  0  0  0  0  0  0  0
   45.7330   35.0380   43.3250 C   0  0  0  0  0  0  0  0  0  0  0  0
   45.0710   36.2190   43.5660 C   0  0  0  0  0  0  0  0  0  0  0  0
   44.4980   36.0330   44.8000 C   0  0  0  0  0  0  0  0  0  0  0  0
   44.7970   34.7980   45.2900 N   0  0  0  0  0  0  0  0  0  0  0  0
   45.5440   34.2250   44.3750 N   0  0  0  0  0  0  0  0  0  0  0  0
   45.0350   37.0600   42.9180 H   0  0  0  0  0  0  0  0  0  0  0  0
   43.8860   36.7440   45.3440 H   0  0  0  0  0  0  0  0  0  0  0  0
   44.4890   34.4080   46.2010 H   0  0  0  0  0  0  0  0  0  0  0  0
   44.5720   33.8040   41.1400 O   0  0  0  0  0  0  0  0  0  0  0  0
   43.4930   34.4980   40.6720 C   0  0  0  0  0  0  0  0  0  0  0  0
   43.3500   35.7630   40.6000 O   0  0  0  0  0  0  0  0  0  0  0  0
   42.1480   34.1120   40.1000 C   0  0  0  0  0  3  0  0  0  0  0  0
   41.9620   34.7330   38.7400 C   0  0  0  0  0  2  0  0  0  0  0  0
   40.7290   34.0730   38.1500 C   0  0  0  0  0  2  0  0  0  0  0  0
   39.5260   34.5500   38.9210 C   0  0  0  0  0  2  0  0  0  0  0  0
   39.8220   35.0660   40.2870 C   0  0  0  0  0  2  0  0  0  0  0  0
   40.9980   34.4460   40.9730 C   0  0  0  0  0  2  0  0  0  0  0  0
  1 17  1  0  0  0  0
  1  2  1  0  0  0  0
  2  9  1  0  0  0  0
  3  2  2  0  0  0  0
  3  7  1  0  0  0  0
  4  3  1  0  0  0  0
  5  6  1  0  0  0  0
  5  4  2  0  0  0  0
  6  1  2  0  0  0  0
  8  5  1  0  0  0  0
  9 10  1  0  0  0  0
  9 13  2  0  0  0  0
 10 11  2  0  0  0  0
 11 12  1  0  0  0  0
 11 15  1  0  0  0  0
 12 16  1  0  0  0  0
 13 12  1  0  0  0  0
 14 10  1  0  0  0  0
 18 17  1  0  0  0  0
 19 18  2  0  0  0  0
 20 18  1  0  0  0  0
 20 25  1  0  0  0  0
 21 20  1  0  0  0  0
 22 21  1  0  0  0  0
 22 23  1  0  0  0  0
 23 24  1  0  0  0  0
 24 25  1  0  0  0  0
M  END
>  <minimizedAffinity>
-5.95647526

>  <minimizedRMSD>
0.807021141

$$$$
