
 OpenBabel03242515003D

 34 36  0  0  0  0  0  0  0  0999 V2000
   40.9770   34.9420   41.7430 C   0  0  0  0  0  0  0  0  0  0  0  0
   41.1520   35.4740   42.7070 H   0  0  0  0  0  0  0  0  0  0  0  0
   40.1720   34.1820   41.9630 H   0  0  0  0  0  0  0  0  0  0  0  0
   40.4530   35.8510   40.6810 C   0  0  0  0  0  0  0  0  0  0  0  0
   39.6520   36.4720   41.1520 H   0  0  0  0  0  0  0  0  0  0  0  0
   41.2020   36.5510   40.2790 H   0  0  0  0  0  0  0  0  0  0  0  0
   41.5530   36.1750   37.8620 Cl  0  0  0  0  0  0  0  0  0  0  0  0
   40.2150   35.1550   38.2690 C   0  0  0  0  0  0  0  0  0  0  0  0
   39.7810   35.0750   39.6110 C   0  0  0  0  0  0  0  0  0  0  0  0
   38.7190   34.2480   39.8450 C   0  0  0  0  0  0  0  0  0  0  0  0
   38.0280   33.4850   38.9160 C   0  0  0  0  0  0  0  0  0  0  0  0
   38.4690   33.5780   37.6060 C   0  0  0  0  0  0  0  0  0  0  0  0
   37.6620   32.6500   36.3450 Cl  0  0  0  0  0  0  0  0  0  0  0  0
   39.5380   34.3970   37.3050 C   0  0  0  0  0  0  0  0  0  0  0  0
   38.3610   34.1660   40.8760 H   0  0  0  0  0  0  0  0  0  0  0  0
   37.1970   32.8600   39.2040 H   0  0  0  0  0  0  0  0  0  0  0  0
   39.8770   34.4630   36.2720 H   0  0  0  0  0  0  0  0  0  0  0  0
   42.4560   34.0390   41.2490 S   0  0  0  0  0  0  0  0  0  0  0  0
   43.8740   34.4170   42.2880 C   0  0  0  0  0  0  0  0  0  0  0  0
   44.4420   35.6850   42.1330 C   0  0  0  0  0  0  0  0  0  0  0  0
   45.5450   36.0230   42.9190 C   0  0  0  0  0  0  0  0  0  0  0  0
   46.0060   35.0930   43.7960 N   0  0  0  0  0  0  0  0  0  0  0  0
   45.4490   33.8790   43.9330 C   0  0  0  0  0  0  0  0  0  0  0  0
   44.3930   33.5630   43.1760 N   0  0  0  0  0  0  0  0  0  0  0  0
   44.0240   36.3780   41.4170 H   0  0  0  0  0  0  0  0  0  0  0  0
   45.9940   36.9960   42.8130 H   0  0  0  0  0  0  0  0  0  0  0  0
   46.0180   32.9590   44.8970 C   0  0  0  0  0  0  0  0  0  0  0  0
   46.2470   33.4070   46.0500 O   0  0  0  0  0  0  0  0  0  0  0  0
   46.3340   31.5240   44.5690 C   0  0  0  0  0  3  0  0  0  0  0  0
   47.7010   31.4930   43.9190 C   0  0  0  0  0  2  0  0  0  0  0  0
   48.2160   30.1010   43.7510 C   0  0  0  0  0  2  0  0  0  0  0  0
   48.3310   29.4180   45.0730 C   0  0  0  0  0  2  0  0  0  0  0  0
   47.7320   30.2930   46.1530 C   0  0  0  0  0  2  0  0  0  0  0  0
   46.2890   30.6380   45.7720 C   0  0  0  0  0  2  0  0  0  0  0  0
  1  3  1  0  0  0  0
  1  2  1  0  0  0  0
  4  5  1  0  0  0  0
  4  1  1  0  0  0  0
  6  4  1  0  0  0  0
  7  8  1  0  0  0  0
  8  9  1  0  0  0  0
  9 10  2  0  0  0  0
  9  4  1  0  0  0  0
 10 15  1  0  0  0  0
 11 16  1  0  0  0  0
 11 10  1  0  0  0  0
 12 11  2  0  0  0  0
 13 12  1  0  0  0  0
 14 12  1  0  0  0  0
 14  8  2  0  0  0  0
 17 14  1  0  0  0  0
 18  1  1  0  0  0  0
 18 19  1  0  0  0  0
 19 24  1  0  0  0  0
 20 19  2  0  0  0  0
 20 21  1  0  0  0  0
 21 22  2  0  0  0  0
 22 23  1  0  0  0  0
 23 27  1  0  0  0  0
 24 23  2  0  0  0  0
 25 20  1  0  0  0  0
 26 21  1  0  0  0  0
 27 28  2  0  0  0  0
 29 27  1  0  0  0  0
 29 34  1  0  0  0  0
 30 29  1  0  0  0  0
 31 30  1  0  0  0  0
 31 32  1  0  0  0  0
 32 33  1  0  0  0  0
 34 33  1  0  0  0  0
M  END
>  <minimizedAffinity>
-5.62427092

>  <minimizedRMSD>
2.1602397

$$$$
