
 OpenBabel03242522503D

 23 24  0  0  0  0  0  0  0  0999 V2000
   47.2660   29.5560   47.9160 O   0  0  0  0  0  0  0  0  0  0  0  0
   46.7330   30.8810   48.5040 P   0  0  2  0  0  0  0  0  0  0  0  0
   45.9670   30.4720   49.9440 O   0  0  0  0  0  0  0  0  0  0  0  0
   45.6640   31.2340   50.4750 H   0  0  0  0  0  0  0  0  0  0  0  0
   45.6180   31.5340   47.4170 O   0  0  0  0  0  0  0  0  0  0  0  0
   47.3730   32.4220   44.3640 C   0  0  0  0  0  0  0  0  0  0  0  0
   46.9250   31.6940   45.4790 C   0  0  0  0  0  0  0  0  0  0  0  0
   46.0290   32.2850   46.3360 C   0  0  0  0  0  0  0  0  0  0  0  0
   45.6230   33.5450   46.0570 N   0  0  0  0  0  0  0  0  0  0  0  0
   46.0460   34.2440   44.9970 C   0  0  0  0  0  0  0  0  0  0  0  0
   46.9310   33.6730   44.1430 N   0  0  0  0  0  0  0  0  0  0  0  0
   48.0760   32.0540   43.6290 H   0  0  0  0  0  0  0  0  0  0  0  0
   47.3650   30.7320   45.5010 H   0  0  0  0  0  0  0  0  0  0  0  0
   45.6100   35.2330   44.9410 H   0  0  0  0  0  0  0  0  0  0  0  0
   48.0040   31.9130   48.7330 O   0  0  0  0  0  0  0  0  0  0  0  0
   49.3120   31.6980   48.9970 C   0  0  0  0  0  0  0  0  0  0  0  0
   49.9170   32.7360   49.4460 O   0  0  0  0  0  0  0  0  0  0  0  0
   50.5550   30.8890   49.0730 C   0  0  0  0  0  3  0  0  0  0  0  0
   50.2950   29.5180   49.6320 C   0  0  0  0  0  2  0  0  0  0  0  0
   50.1090   29.4200   51.0930 C   0  0  0  0  0  2  0  0  0  0  0  0
   51.0730   30.2440   51.9050 C   0  0  0  0  0  2  0  0  0  0  0  0
   51.1720   31.6360   51.3840 C   0  0  0  0  0  2  0  0  0  0  0  0
   51.5270   31.6820   49.9180 C   0  0  0  0  0  2  0  0  0  0  0  0
  2  1  2  6  0  0  0
  2 15  1  0  0  0  0
  2  3  1  0  0  0  0
  3  4  1  0  0  0  0
  5  2  1  0  0  0  0
  6  7  1  0  0  0  0
  7 13  1  0  0  0  0
  7  8  2  0  0  0  0
  8  5  1  0  0  0  0
  9  8  1  0  0  0  0
 10  9  2  0  0  0  0
 11  6  2  0  0  0  0
 11 10  1  0  0  0  0
 12  6  1  0  0  0  0
 14 10  1  0  0  0  0
 15 16  1  0  0  0  0
 16 18  1  0  0  0  0
 16 17  2  0  0  0  0
 18 19  1  0  0  0  0
 18 23  1  0  0  0  0
 19 20  1  0  0  0  0
 20 21  1  0  0  0  0
 22 21  1  0  0  0  0
 23 22  1  0  0  0  0
M  END
>  <minimizedAffinity>
-3.84516907

>  <minimizedRMSD>
1.57969797

$$$$
