
 OpenBabel03252507563D

 41 44  0  0  1  0  0  0  0  0999 V2000
   36.6580   28.5850   41.8990 C   0  0  2  0  0  0  0  0  0  0  0  0
   36.2880   28.3470   40.4320 C   0  0  0  0  0  0  0  0  0  0  0  0
   35.4840   29.6470   40.2120 C   0  0  0  0  0  0  0  0  0  0  0  0
   36.2130   30.6860   41.0070 C   0  0  1  0  0  0  0  0  0  0  0  0
   37.2770   29.9500   41.7640 C   0  0  0  0  0  0  0  0  0  0  0  0
   35.7160   28.5430   42.4590 H   0  0  0  0  0  0  0  0  0  0  0  0
   37.2090   28.3940   39.8390 H   0  0  0  0  0  0  0  0  0  0  0  0
   35.6610   27.4690   40.2880 H   0  0  0  0  0  0  0  0  0  0  0  0
   34.4280   29.5110   40.4730 H   0  0  0  0  0  0  0  0  0  0  0  0
   35.6470   29.8870   39.1360 H   0  0  0  0  0  0  0  0  0  0  0  0
   35.4890   31.1890   41.6820 H   0  0  0  0  0  0  0  0  0  0  0  0
   38.1790   29.8320   41.1430 H   0  0  0  0  0  0  0  0  0  0  0  0
   37.4840   30.3510   42.7770 H   0  0  0  0  0  0  0  0  0  0  0  0
   39.4750   26.8480   43.7020 C   0  0  0  0  0  0  0  0  0  0  0  0
   38.5930   27.8680   43.3490 C   0  0  0  0  0  0  0  0  0  0  0  0
   37.6420   27.5720   42.3830 C   0  0  0  0  0  0  0  0  0  0  0  0
   37.5910   26.3000   41.8030 N   0  0  0  0  0  0  0  0  0  0  0  0
   38.4780   25.3450   42.1860 C   0  0  0  0  0  0  0  0  0  0  0  0
   39.4130   25.6270   43.1330 N   0  0  0  0  0  0  0  0  0  0  0  0
   40.2170   27.0730   44.4530 H   0  0  0  0  0  0  0  0  0  0  0  0
   38.5990   28.8630   43.7730 H   0  0  0  0  0  0  0  0  0  0  0  0
   38.3530   24.3980   41.6760 H   0  0  0  0  0  0  0  0  0  0  0  0
   36.9050   31.7380   40.1680 C   0  0  2  0  0  0  0  0  0  0  0  0
   36.9870   31.4610   38.7390 C   0  0  0  0  0  0  0  0  0  0  0  0
   38.2220   31.5030   39.5740 C   0  0  1  0  0  0  0  0  0  0  0  0
   36.6740   32.7700   40.4840 H   0  0  0  0  0  0  0  0  0  0  0  0
   36.8340   32.2840   37.9970 H   0  0  0  0  0  0  0  0  0  0  0  0
   36.5990   30.5020   38.3520 H   0  0  0  0  0  0  0  0  0  0  0  0
   38.6920   30.5660   39.8730 H   0  0  0  0  0  0  0  0  0  0  0  0
   39.0760   32.6240   39.4280 O   0  0  0  0  0  0  0  0  0  0  0  0
   40.6870   30.7300   38.6530 O   0  0  0  0  0  0  0  0  0  0  0  0
   40.3500   32.1850   38.4220 P   0  0  1  0  0  0  0  0  0  0  0  0
   39.8740   32.3390   36.7820 O   0  0  0  0  0  0  0  0  0  0  0  0
   39.0350   32.8520   36.6940 H   0  0  0  0  0  0  0  0  0  0  0  0
   41.7270   33.0760   38.6220 O   0  0  0  0  0  0  0  0  0  0  0  0
   42.2310   33.1530   39.9050 C   0  0  0  0  0  3  0  0  0  0  0  0
   43.6910   32.7630   39.8600 C   0  0  0  0  0  2  0  0  0  0  0  0
   44.5980   33.9790   39.9090 C   0  0  0  0  0  2  0  0  0  0  0  0
   44.5290   34.5680   41.3140 C   0  0  0  0  0  2  0  0  0  0  0  0
   43.0690   34.5880   41.7050 C   0  0  0  0  0  2  0  0  0  0  0  0
   42.1710   34.5560   40.4730 C   0  0  0  0  0  2  0  0  0  0  0  0
  1 16  1  0  0  0  0
  1  6  1  1  0  0  0
  2  1  1  0  0  0  0
  3  2  1  0  0  0  0
  3  9  1  0  0  0  0
  3  4  1  0  0  0  0
  4 11  1  1  0  0  0
  4  5  1  0  0  0  0
  5  1  1  0  0  0  0
  5 13  1  0  0  0  0
  7  2  1  0  0  0  0
  8  2  1  0  0  0  0
 10  3  1  0  0  0  0
 12  5  1  0  0  0  0
 14 20  1  0  0  0  0
 15 14  1  0  0  0  0
 15 21  1  0  0  0  0
 16 15  2  0  0  0  0
 17 18  2  0  0  0  0
 17 16  1  0  0  0  0
 18 19  1  0  0  0  0
 19 14  2  0  0  0  0
 22 18  1  0  0  0  0
 23 26  1  1  0  0  0
 23  4  1  0  0  0  0
 24 25  1  0  0  0  0
 24 23  1  0  0  0  0
 25 29  1  1  0  0  0
 25 23  1  0  0  0  0
 27 24  1  0  0  0  0
 28 24  1  0  0  0  0
 30 25  1  0  0  0  0
 32 35  1  0  0  0  0
 32 31  2  1  0  0  0
 32 30  1  0  0  0  0
 33 32  1  0  0  0  0
 34 33  1  0  0  0  0
 35 36  1  0  0  0  0
 36 41  1  0  0  0  0
 37 36  1  0  0  0  0
 37 38  1  0  0  0  0
 38 39  1  0  0  0  0
 39 40  1  0  0  0  0
 41 40  1  0  0  0  0
M  END
>  <minimizedAffinity>
-6.13020563

$$$$

 OpenBabel03252507563D

 41 44  0  0  1  0  0  0  0  0999 V2000
   37.4870   30.5460   40.2300 C   0  0  2  0  0  0  0  0  0  0  0  0
   36.1990   30.5870   41.0560 C   0  0  0  0  0  0  0  0  0  0  0  0
   35.9040   29.0700   41.0450 C   0  0  0  0  0  0  0  0  0  0  0  0
   37.2480   28.4180   41.1380 C   0  0  1  0  0  0  0  0  0  0  0  0
   38.2490   29.5290   41.0370 C   0  0  0  0  0  0  0  0  0  0  0  0
   37.1920   30.2290   39.2240 H   0  0  0  0  0  0  0  0  0  0  0  0
   36.4610   30.8900   42.0780 H   0  0  0  0  0  0  0  0  0  0  0  0
   35.4000   31.1450   40.5720 H   0  0  0  0  0  0  0  0  0  0  0  0
   35.3030   28.7890   40.1720 H   0  0  0  0  0  0  0  0  0  0  0  0
   35.3860   28.8880   42.0150 H   0  0  0  0  0  0  0  0  0  0  0  0
   37.3470   27.6880   40.3080 H   0  0  0  0  0  0  0  0  0  0  0  0
   38.4290   29.9760   42.0280 H   0  0  0  0  0  0  0  0  0  0  0  0
   39.1790   29.2640   40.4940 H   0  0  0  0  0  0  0  0  0  0  0  0
   38.2420   34.2260   39.9300 C   0  0  0  0  0  0  0  0  0  0  0  0
   37.4930   33.0510   39.9340 C   0  0  0  0  0  0  0  0  0  0  0  0
   38.1700   31.8740   40.2210 C   0  0  0  0  0  0  0  0  0  0  0  0
   39.5430   31.8910   40.4890 N   0  0  0  0  0  0  0  0  0  0  0  0
   40.2220   33.0670   40.4700 C   0  0  0  0  0  0  0  0  0  0  0  0
   39.5660   34.2260   40.1900 N   0  0  0  0  0  0  0  0  0  0  0  0
   37.7200   35.1450   39.7070 H   0  0  0  0  0  0  0  0  0  0  0  0
   36.4320   32.9950   39.7320 H   0  0  0  0  0  0  0  0  0  0  0  0
   41.2770   32.9700   40.6890 H   0  0  0  0  0  0  0  0  0  0  0  0
   37.5030   27.7020   42.4460 C   0  0  2  0  0  0  0  0  0  0  0  0
   37.7090   28.5560   43.6110 C   0  0  0  0  0  0  0  0  0  0  0  0
   38.8200   27.7110   43.0840 C   0  0  1  0  0  0  0  0  0  0  0  0
   36.8900   26.7930   42.5730 H   0  0  0  0  0  0  0  0  0  0  0  0
   37.2680   28.2750   44.5990 H   0  0  0  0  0  0  0  0  0  0  0  0
   37.7220   29.6520   43.4800 H   0  0  0  0  0  0  0  0  0  0  0  0
   39.6050   28.1780   42.4910 H   0  0  0  0  0  0  0  0  0  0  0  0
   39.1850   26.5640   43.8320 O   0  0  0  0  0  0  0  0  0  0  0  0
   40.5680   26.3290   41.6380 O   0  0  0  0  0  0  0  0  0  0  0  0
   40.0730   25.5460   42.8310 P   0  0  1  0  0  0  0  0  0  0  0  0
   41.4570   24.9740   43.6680 O   0  0  0  0  0  0  0  0  0  0  0  0
   41.3940   25.1510   44.6370 H   0  0  0  0  0  0  0  0  0  0  0  0
   39.2480   24.2250   42.2810 O   0  0  0  0  0  0  0  0  0  0  0  0
   38.4200   24.4230   41.1940 C   0  0  0  0  0  3  0  0  0  0  0  0
   38.7720   23.3940   40.1440 C   0  0  0  0  0  2  0  0  0  0  0  0
   37.7780   22.2480   40.1270 C   0  0  0  0  0  2  0  0  0  0  0  0
   36.4620   22.7670   39.5540 C   0  0  0  0  0  2  0  0  0  0  0  0
   36.2000   24.1030   40.2110 C   0  0  0  0  0  2  0  0  0  0  0  0
   36.9570   24.2240   41.5290 C   0  0  0  0  0  2  0  0  0  0  0  0
  1  6  1  6  0  0  0
  1  5  1  0  0  0  0
  1  2  1  0  0  0  0
  2  7  1  0  0  0  0
  3  2  1  0  0  0  0
  3  4  1  0  0  0  0
  3 10  1  0  0  0  0
  4 11  1  6  0  0  0
  4 23  1  0  0  0  0
  5  4  1  0  0  0  0
  5 12  1  0  0  0  0
  8  2  1  0  0  0  0
  9  3  1  0  0  0  0
 13  5  1  0  0  0  0
 14 15  2  0  0  0  0
 14 19  1  0  0  0  0
 15 16  1  0  0  0  0
 16  1  1  0  0  0  0
 16 17  2  0  0  0  0
 18 17  1  0  0  0  0
 18 22  1  0  0  0  0
 19 18  2  0  0  0  0
 20 14  1  0  0  0  0
 21 15  1  0  0  0  0
 23 26  1  1  0  0  0
 23 25  1  0  0  0  0
 23 24  1  0  0  0  0
 24 27  1  0  0  0  0
 25 29  1  6  0  0  0
 25 24  1  0  0  0  0
 25 30  1  0  0  0  0
 28 24  1  0  0  0  0
 32 31  2  6  0  0  0
 32 33  1  0  0  0  0
 32 30  1  0  0  0  0
 33 34  1  0  0  0  0
 35 32  1  0  0  0  0
 36 41  1  0  0  0  0
 36 35  1  0  0  0  0
 37 36  1  0  0  0  0
 38 37  1  0  0  0  0
 39 38  1  0  0  0  0
 39 40  1  0  0  0  0
 40 41  1  0  0  0  0
M  END
>  <minimizedAffinity>
-5.84402704

$$$$

 OpenBabel03252507563D

 41 44  0  0  1  0  0  0  0  0999 V2000
   36.7330   28.5210   41.9940 C   0  0  2  0  0  0  0  0  0  0  0  0
   36.0880   28.1030   40.6700 C   0  0  0  0  0  0  0  0  0  0  0  0
   35.2790   29.3960   40.4230 C   0  0  0  0  0  0  0  0  0  0  0  0
   36.1620   30.5000   40.9150 C   0  0  1  0  0  0  0  0  0  0  0  0
   37.3380   29.8280   41.5570 C   0  0  0  0  0  0  0  0  0  0  0  0
   35.9150   28.5940   42.7190 H   0  0  0  0  0  0  0  0  0  0  0  0
   36.8810   28.0320   39.9140 H   0  0  0  0  0  0  0  0  0  0  0  0
   35.4310   27.2410   40.7680 H   0  0  0  0  0  0  0  0  0  0  0  0
   34.2890   29.3400   40.8910 H   0  0  0  0  0  0  0  0  0  0  0  0
   35.2380   29.4820   39.3120 H   0  0  0  0  0  0  0  0  0  0  0  0
   35.5870   31.1190   41.6360 H   0  0  0  0  0  0  0  0  0  0  0  0
   38.1030   29.5900   40.8020 H   0  0  0  0  0  0  0  0  0  0  0  0
   37.7390   30.3530   42.4470 H   0  0  0  0  0  0  0  0  0  0  0  0
   38.7330   25.3770   42.5590 C   0  0  0  0  0  0  0  0  0  0  0  0
   37.7160   26.1990   42.0770 C   0  0  0  0  0  0  0  0  0  0  0  0
   37.7750   27.5420   42.4240 C   0  0  0  0  0  0  0  0  0  0  0  0
   38.8170   28.0240   43.2230 N   0  0  0  0  0  0  0  0  0  0  0  0
   39.7800   27.1750   43.6650 C   0  0  0  0  0  0  0  0  0  0  0  0
   39.7310   25.8570   43.3300 N   0  0  0  0  0  0  0  0  0  0  0  0
   38.6920   24.3310   42.2930 H   0  0  0  0  0  0  0  0  0  0  0  0
   36.8950   25.8660   41.4580 H   0  0  0  0  0  0  0  0  0  0  0  0
   40.5390   27.6480   44.2760 H   0  0  0  0  0  0  0  0  0  0  0  0
   36.6990   31.3990   39.8240 C   0  0  2  0  0  0  0  0  0  0  0  0
   37.2520   30.7230   38.6560 C   0  0  0  0  0  0  0  0  0  0  0  0
   38.1340   31.5160   39.5610 C   0  0  1  0  0  0  0  0  0  0  0  0
   36.0830   32.3000   39.6580 H   0  0  0  0  0  0  0  0  0  0  0  0
   37.0640   31.1280   37.6300 H   0  0  0  0  0  0  0  0  0  0  0  0
   37.3000   29.6200   38.6430 H   0  0  0  0  0  0  0  0  0  0  0  0
   38.7680   30.9910   40.2750 H   0  0  0  0  0  0  0  0  0  0  0  0
   38.6060   32.7660   39.0890 O   0  0  0  0  0  0  0  0  0  0  0  0
   39.8990   34.7220   40.2210 O   0  0  0  0  0  0  0  0  0  0  0  0
   39.9180   33.2230   40.0370 P   0  0  1  0  0  0  0  0  0  0  0  0
   39.7790   32.5210   41.5960 O   0  0  0  0  0  0  0  0  0  0  0  0
   39.0930   31.8100   41.6140 H   0  0  0  0  0  0  0  0  0  0  0  0
   41.3930   32.7920   39.4310 O   0  0  0  0  0  0  0  0  0  0  0  0
   41.4030   32.2480   38.1620 C   0  0  0  0  0  3  0  0  0  0  0  0
   42.4900   32.9350   37.3660 C   0  0  0  0  0  2  0  0  0  0  0  0
   43.7360   32.0770   37.2610 C   0  0  0  0  0  2  0  0  0  0  0  0
   43.4310   30.9070   36.3300 C   0  0  0  0  0  2  0  0  0  0  0  0
   42.0730   30.3780   36.7280 C   0  0  0  0  0  2  0  0  0  0  0  0
   41.7310   30.7690   38.1620 C   0  0  0  0  0  2  0  0  0  0  0  0
  1 16  1  0  0  0  0
  1  6  1  1  0  0  0
  2  8  1  0  0  0  0
  2  1  1  0  0  0  0
  3  2  1  0  0  0  0
  3  9  1  0  0  0  0
  3  4  1  0  0  0  0
  4  5  1  0  0  0  0
  4 11  1  1  0  0  0
  5  1  1  0  0  0  0
  5 13  1  0  0  0  0
  7  2  1  0  0  0  0
 10  3  1  0  0  0  0
 12  5  1  0  0  0  0
 14 19  1  0  0  0  0
 15 16  1  0  0  0  0
 15 14  2  0  0  0  0
 16 17  2  0  0  0  0
 17 18  1  0  0  0  0
 18 22  1  0  0  0  0
 19 18  2  0  0  0  0
 20 14  1  0  0  0  0
 21 15  1  0  0  0  0
 23 26  1  6  0  0  0
 23  4  1  0  0  0  0
 24 25  1  0  0  0  0
 24 23  1  0  0  0  0
 25 23  1  0  0  0  0
 25 29  1  1  0  0  0
 27 24  1  0  0  0  0
 28 24  1  0  0  0  0
 30 25  1  0  0  0  0
 30 32  1  0  0  0  0
 32 31  2  1  0  0  0
 32 33  1  0  0  0  0
 33 34  1  0  0  0  0
 35 32  1  0  0  0  0
 36 35  1  0  0  0  0
 37 36  1  0  0  0  0
 38 37  1  0  0  0  0
 39 40  1  0  0  0  0
 39 38  1  0  0  0  0
 40 41  1  0  0  0  0
 41 36  1  0  0  0  0
M  END
>  <minimizedAffinity>
-5.68037319

$$$$

 OpenBabel03252507563D

 41 44  0  0  1  0  0  0  0  0999 V2000
   38.2760   26.2550   42.5480 C   0  0  2  0  0  0  0  0  0  0  0  0
   37.1180   27.2530   42.6260 C   0  0  0  0  0  0  0  0  0  0  0  0
   37.8680   28.3740   43.3790 C   0  0  0  0  0  0  0  0  0  0  0  0
   39.2580   28.3450   42.8230 C   0  0  1  0  0  0  0  0  0  0  0  0
   39.3130   27.1490   41.9220 C   0  0  0  0  0  0  0  0  0  0  0  0
   38.4770   25.9430   43.5790 H   0  0  0  0  0  0  0  0  0  0  0  0
   36.8970   27.5970   41.6080 H   0  0  0  0  0  0  0  0  0  0  0  0
   36.2760   26.8850   43.2090 H   0  0  0  0  0  0  0  0  0  0  0  0
   37.7930   28.2420   44.4650 H   0  0  0  0  0  0  0  0  0  0  0  0
   37.3910   29.3130   43.0140 H   0  0  0  0  0  0  0  0  0  0  0  0
   39.9760   28.2680   43.6670 H   0  0  0  0  0  0  0  0  0  0  0  0
   38.9450   27.4090   40.9160 H   0  0  0  0  0  0  0  0  0  0  0  0
   40.2860   26.6200   41.9160 H   0  0  0  0  0  0  0  0  0  0  0  0
   36.4380   23.5700   40.6460 C   0  0  0  0  0  0  0  0  0  0  0  0
   36.6280   24.6810   41.4670 C   0  0  0  0  0  0  0  0  0  0  0  0
   37.9360   25.0960   41.6690 C   0  0  0  0  0  0  0  0  0  0  0  0
   39.0000   24.4150   41.0680 N   0  0  0  0  0  0  0  0  0  0  0  0
   38.7540   23.3370   40.2790 C   0  0  0  0  0  0  0  0  0  0  0  0
   37.4740   22.9230   40.0740 N   0  0  0  0  0  0  0  0  0  0  0  0
   35.4220   23.2420   40.4850 H   0  0  0  0  0  0  0  0  0  0  0  0
   35.8350   25.2340   41.9490 H   0  0  0  0  0  0  0  0  0  0  0  0
   39.6440   22.8830   39.8630 H   0  0  0  0  0  0  0  0  0  0  0  0
   39.6190   29.5540   41.9890 C   0  0  2  0  0  0  0  0  0  0  0  0
   39.9950   30.7520   42.7310 C   0  0  0  0  0  0  0  0  0  0  0  0
   38.7450   30.7260   41.9160 C   0  0  1  0  0  0  0  0  0  0  0  0
   40.1980   29.3020   41.0830 H   0  0  0  0  0  0  0  0  0  0  0  0
   40.8350   31.3960   42.3710 H   0  0  0  0  0  0  0  0  0  0  0  0
   39.9500   30.7380   43.8340 H   0  0  0  0  0  0  0  0  0  0  0  0
   37.7870   30.6070   42.4200 H   0  0  0  0  0  0  0  0  0  0  0  0
   38.7390   31.4550   40.7010 O   0  0  0  0  0  0  0  0  0  0  0  0
   36.2250   31.0940   41.2790 O   0  0  0  0  0  0  0  0  0  0  0  0
   37.1410   31.6370   40.2070 P   0  0  1  0  0  0  0  0  0  0  0  0
   36.7770   33.3040   40.0290 O   0  0  0  0  0  0  0  0  0  0  0  0
   37.5960   33.8560   40.0300 H   0  0  0  0  0  0  0  0  0  0  0  0
   36.7700   30.8950   38.7790 O   0  0  0  0  0  0  0  0  0  0  0  0
   36.2330   29.6260   38.8650 C   0  0  0  0  0  3  0  0  0  0  0  0
   35.5770   29.3040   37.5410 C   0  0  0  0  0  2  0  0  0  0  0  0
   36.4450   28.3960   36.6910 C   0  0  0  0  0  2  0  0  0  0  0  0
   36.4480   27.0080   37.3260 C   0  0  0  0  0  2  0  0  0  0  0  0
   36.6390   27.2110   38.8110 C   0  0  0  0  0  2  0  0  0  0  0  0
   37.2840   28.5620   39.1020 C   0  0  0  0  0  2  0  0  0  0  0  0
  1  2  1  0  0  0  0
  1  6  1  1  0  0  0
  2  8  1  0  0  0  0
  2  3  1  0  0  0  0
  3  9  1  0  0  0  0
  4  3  1  0  0  0  0
  4 11  1  1  0  0  0
  5  1  1  0  0  0  0
  5  4  1  0  0  0  0
  7  2  1  0  0  0  0
 10  3  1  0  0  0  0
 12  5  1  0  0  0  0
 13  5  1  0  0  0  0
 14 15  1  0  0  0  0
 15 16  2  0  0  0  0
 15 21  1  0  0  0  0
 16  1  1  0  0  0  0
 17 16  1  0  0  0  0
 18 17  2  0  0  0  0
 19 18  1  0  0  0  0
 19 14  2  0  0  0  0
 20 14  1  0  0  0  0
 22 18  1  0  0  0  0
 23 26  1  6  0  0  0
 23 24  1  0  0  0  0
 23  4  1  0  0  0  0
 24 28  1  0  0  0  0
 25 23  1  0  0  0  0
 25 29  1  1  0  0  0
 25 24  1  0  0  0  0
 27 24  1  0  0  0  0
 30 25  1  0  0  0  0
 32 30  1  0  0  0  0
 32 31  2  1  0  0  0
 33 34  1  0  0  0  0
 33 32  1  0  0  0  0
 35 36  1  0  0  0  0
 35 32  1  0  0  0  0
 36 41  1  0  0  0  0
 37 36  1  0  0  0  0
 38 39  1  0  0  0  0
 38 37  1  0  0  0  0
 39 40  1  0  0  0  0
 40 41  1  0  0  0  0
M  END
>  <minimizedAffinity>
-5.67819262

$$$$

 OpenBabel03252507563D

 41 44  0  0  1  0  0  0  0  0999 V2000
   36.7420   28.5750   41.9360 C   0  0  2  0  0  0  0  0  0  0  0  0
   36.1510   28.2350   40.5660 C   0  0  0  0  0  0  0  0  0  0  0  0
   35.3350   29.5320   40.3690 C   0  0  0  0  0  0  0  0  0  0  0  0
   36.1860   30.6120   40.9620 C   0  0  1  0  0  0  0  0  0  0  0  0
   37.3450   29.9130   41.6050 C   0  0  0  0  0  0  0  0  0  0  0  0
   35.8960   28.5940   42.6340 H   0  0  0  0  0  0  0  0  0  0  0  0
   36.9720   28.2190   39.8380 H   0  0  0  0  0  0  0  0  0  0  0  0
   35.5020   27.3620   40.5860 H   0  0  0  0  0  0  0  0  0  0  0  0
   34.3300   29.4370   40.7960 H   0  0  0  0  0  0  0  0  0  0  0  0
   35.3340   29.6870   39.2660 H   0  0  0  0  0  0  0  0  0  0  0  0
   35.5770   31.1790   41.6980 H   0  0  0  0  0  0  0  0  0  0  0  0
   38.1420   29.7300   40.8660 H   0  0  0  0  0  0  0  0  0  0  0  0
   37.7070   30.3850   42.5400 H   0  0  0  0  0  0  0  0  0  0  0  0
   38.7220   25.4080   42.4370 C   0  0  0  0  0  0  0  0  0  0  0  0
   37.7090   26.2450   41.9750 C   0  0  0  0  0  0  0  0  0  0  0  0
   37.7800   27.5810   42.3440 C   0  0  0  0  0  0  0  0  0  0  0  0
   38.8300   28.0430   43.1440 N   0  0  0  0  0  0  0  0  0  0  0  0
   39.7890   27.1800   43.5660 C   0  0  0  0  0  0  0  0  0  0  0  0
   39.7280   25.8680   43.2090 N   0  0  0  0  0  0  0  0  0  0  0  0
   38.6720   24.3670   42.1530 H   0  0  0  0  0  0  0  0  0  0  0  0
   36.8810   25.9280   41.3550 H   0  0  0  0  0  0  0  0  0  0  0  0
   40.5550   27.6370   44.1800 H   0  0  0  0  0  0  0  0  0  0  0  0
   36.7510   31.5830   39.9500 C   0  0  2  0  0  0  0  0  0  0  0  0
   37.0140   31.0390   38.6230 C   0  0  0  0  0  0  0  0  0  0  0  0
   38.1390   31.4940   39.4920 C   0  0  1  0  0  0  0  0  0  0  0  0
   36.3090   32.5920   40.0190 H   0  0  0  0  0  0  0  0  0  0  0  0
   36.7850   31.6460   37.7110 H   0  0  0  0  0  0  0  0  0  0  0  0
   36.8430   29.9640   38.4370 H   0  0  0  0  0  0  0  0  0  0  0  0
   38.7390   30.7500   40.0130 H   0  0  0  0  0  0  0  0  0  0  0  0
   38.7850   32.7070   39.1470 O   0  0  0  0  0  0  0  0  0  0  0  0
   40.8900   33.9790   40.0050 O   0  0  0  0  0  0  0  0  0  0  0  0
   39.6690   33.2280   40.4800 P   0  0  1  0  0  0  0  0  0  0  0  0
   38.7290   34.3250   41.4050 O   0  0  0  0  0  0  0  0  0  0  0  0
   37.7790   34.3040   41.1370 H   0  0  0  0  0  0  0  0  0  0  0  0
   40.1620   32.0220   41.4960 O   0  0  0  0  0  0  0  0  0  0  0  0
   41.4060   31.4780   41.2500 C   0  0  0  0  0  3  0  0  0  0  0  0
   42.1630   31.4270   42.5580 C   0  0  0  0  0  2  0  0  0  0  0  0
   42.1630   30.0300   43.1510 C   0  0  0  0  0  2  0  0  0  0  0  0
   43.0650   29.1480   42.2930 C   0  0  0  0  0  2  0  0  0  0  0  0
   42.7270   29.4540   40.8520 C   0  0  0  0  0  2  0  0  0  0  0  0
   41.3310   30.0570   40.7320 C   0  0  0  0  0  2  0  0  0  0  0  0
  1 16  1  0  0  0  0
  1  6  1  1  0  0  0
  2  8  1  0  0  0  0
  2  1  1  0  0  0  0
  3  2  1  0  0  0  0
  3  9  1  0  0  0  0
  3  4  1  0  0  0  0
  4  5  1  0  0  0  0
  4 11  1  1  0  0  0
  5  1  1  0  0  0  0
  5 13  1  0  0  0  0
  7  2  1  0  0  0  0
 10  3  1  0  0  0  0
 12  5  1  0  0  0  0
 14 19  1  0  0  0  0
 15 16  1  0  0  0  0
 15 14  2  0  0  0  0
 16 17  2  0  0  0  0
 17 18  1  0  0  0  0
 18 22  1  0  0  0  0
 19 18  2  0  0  0  0
 20 14  1  0  0  0  0
 21 15  1  0  0  0  0
 23 26  1  1  0  0  0
 23  4  1  0  0  0  0
 24 25  1  0  0  0  0
 24 23  1  0  0  0  0
 25 23  1  0  0  0  0
 25 29  1  1  0  0  0
 27 24  1  0  0  0  0
 28 24  1  0  0  0  0
 30 25  1  0  0  0  0
 30 32  1  0  0  0  0
 32 31  2  6  0  0  0
 32 33  1  0  0  0  0
 32 35  1  0  0  0  0
 34 33  1  0  0  0  0
 36 35  1  0  0  0  0
 36 37  1  0  0  0  0
 37 38  1  0  0  0  0
 39 38  1  0  0  0  0
 40 39  1  0  0  0  0
 41 40  1  0  0  0  0
 41 36  1  0  0  0  0
M  END
>  <minimizedAffinity>
-5.63954687

$$$$

 OpenBabel03252507563D

 41 44  0  0  1  0  0  0  0  0999 V2000
   36.8820   27.0860   41.4810 C   0  0  2  0  0  0  0  0  0  0  0  0
   37.1820   27.1250   39.9800 C   0  0  0  0  0  0  0  0  0  0  0  0
   35.8990   27.8630   39.5360 C   0  0  0  0  0  0  0  0  0  0  0  0
   35.6280   28.8500   40.6290 C   0  0  1  0  0  0  0  0  0  0  0  0
   36.6270   28.5530   41.7060 C   0  0  0  0  0  0  0  0  0  0  0  0
   36.0120   26.4290   41.5990 H   0  0  0  0  0  0  0  0  0  0  0  0
   38.0430   27.7860   39.8240 H   0  0  0  0  0  0  0  0  0  0  0  0
   37.2400   26.1350   39.5310 H   0  0  0  0  0  0  0  0  0  0  0  0
   35.0870   27.1560   39.3280 H   0  0  0  0  0  0  0  0  0  0  0  0
   36.2180   28.4460   38.6420 H   0  0  0  0  0  0  0  0  0  0  0  0
   34.5830   28.7160   40.9780 H   0  0  0  0  0  0  0  0  0  0  0  0
   37.5760   29.0760   41.5060 H   0  0  0  0  0  0  0  0  0  0  0  0
   36.2490   28.6970   42.7380 H   0  0  0  0  0  0  0  0  0  0  0  0
   39.6570   26.7330   44.0060 C   0  0  0  0  0  0  0  0  0  0  0  0
   38.5350   27.2690   43.3770 C   0  0  0  0  0  0  0  0  0  0  0  0
   38.0600   26.5990   42.2590 C   0  0  0  0  0  0  0  0  0  0  0  0
   38.6950   25.4400   41.8010 N   0  0  0  0  0  0  0  0  0  0  0  0
   39.7870   24.9640   42.4540 C   0  0  0  0  0  0  0  0  0  0  0  0
   40.2600   25.6150   43.5510 N   0  0  0  0  0  0  0  0  0  0  0  0
   40.0320   27.2500   44.8760 H   0  0  0  0  0  0  0  0  0  0  0  0
   38.0150   28.1610   43.6990 H   0  0  0  0  0  0  0  0  0  0  0  0
   40.2030   24.0650   42.0180 H   0  0  0  0  0  0  0  0  0  0  0  0
   35.8220   30.2940   40.2230 C   0  0  2  0  0  0  0  0  0  0  0  0
   36.4720   30.5130   38.9360 C   0  0  0  0  0  0  0  0  0  0  0  0
   37.1480   30.9160   40.2040 C   0  0  1  0  0  0  0  0  0  0  0  0
   34.9680   30.9410   40.4890 H   0  0  0  0  0  0  0  0  0  0  0  0
   36.1150   31.3270   38.2570 H   0  0  0  0  0  0  0  0  0  0  0  0
   36.8290   29.6420   38.3570 H   0  0  0  0  0  0  0  0  0  0  0  0
   37.9460   30.2890   40.6000 H   0  0  0  0  0  0  0  0  0  0  0  0
   37.2180   32.3000   40.4980 O   0  0  0  0  0  0  0  0  0  0  0  0
   39.5730   32.7640   39.4880 O   0  0  0  0  0  0  0  0  0  0  0  0
   38.8260   32.6910   40.7990 P   0  0  1  0  0  0  0  0  0  0  0  0
   38.9200   34.2430   41.5210 O   0  0  0  0  0  0  0  0  0  0  0  0
   38.0360   34.5510   41.8350 H   0  0  0  0  0  0  0  0  0  0  0  0
   39.6200   31.6350   41.7910 O   0  0  0  0  0  0  0  0  0  0  0  0
   40.6160   30.8740   41.2120 C   0  0  0  0  0  3  0  0  0  0  0  0
   41.8010   30.8610   42.1510 C   0  0  0  0  0  2  0  0  0  0  0  0
   41.8820   29.5640   42.9340 C   0  0  0  0  0  2  0  0  0  0  0  0
   42.2970   28.4530   41.9740 C   0  0  0  0  0  2  0  0  0  0  0  0
   41.4720   28.6330   40.7200 C   0  0  0  0  0  2  0  0  0  0  0  0
   40.2050   29.4320   41.0070 C   0  0  0  0  0  2  0  0  0  0  0  0
  1  6  1  1  0  0  0
  1  5  1  0  0  0  0
  1 16  1  0  0  0  0
  2  1  1  0  0  0  0
  3  2  1  0  0  0  0
  3  4  1  0  0  0  0
  4 11  1  1  0  0  0
  4  5  1  0  0  0  0
  5 13  1  0  0  0  0
  7  2  1  0  0  0  0
  8  2  1  0  0  0  0
  9  3  1  0  0  0  0
 10  3  1  0  0  0  0
 12  5  1  0  0  0  0
 14 20  1  0  0  0  0
 15 21  1  0  0  0  0
 15 14  2  0  0  0  0
 16 15  1  0  0  0  0
 17 16  2  0  0  0  0
 17 18  1  0  0  0  0
 18 19  2  0  0  0  0
 19 14  1  0  0  0  0
 22 18  1  0  0  0  0
 23 26  1  1  0  0  0
 23  4  1  0  0  0  0
 24 25  1  0  0  0  0
 24 23  1  0  0  0  0
 25 23  1  0  0  0  0
 25 30  1  0  0  0  0
 25 29  1  1  0  0  0
 27 24  1  0  0  0  0
 28 24  1  0  0  0  0
 30 32  1  0  0  0  0
 32 31  2  6  0  0  0
 32 33  1  0  0  0  0
 32 35  1  0  0  0  0
 33 34  1  0  0  0  0
 36 35  1  0  0  0  0
 36 37  1  0  0  0  0
 37 38  1  0  0  0  0
 39 38  1  0  0  0  0
 40 41  1  0  0  0  0
 40 39  1  0  0  0  0
 41 36  1  0  0  0  0
M  END
>  <minimizedAffinity>
-5.61295843

$$$$

 OpenBabel03252507563D

 41 44  0  0  1  0  0  0  0  0999 V2000
   37.0900   26.8250   41.3220 C   0  0  2  0  0  0  0  0  0  0  0  0
   37.4540   26.5820   39.8560 C   0  0  0  0  0  0  0  0  0  0  0  0
   36.1830   27.1940   39.2270 C   0  0  0  0  0  0  0  0  0  0  0  0
   35.8520   28.3660   40.0970 C   0  0  1  0  0  0  0  0  0  0  0  0
   36.8070   28.3020   41.2500 C   0  0  0  0  0  0  0  0  0  0  0  0
   36.2250   26.1850   41.5290 H   0  0  0  0  0  0  0  0  0  0  0  0
   38.3130   27.2190   39.6100 H   0  0  0  0  0  0  0  0  0  0  0  0
   37.5450   25.5260   39.6080 H   0  0  0  0  0  0  0  0  0  0  0  0
   35.3890   26.4440   39.1260 H   0  0  0  0  0  0  0  0  0  0  0  0
   36.5320   27.6010   38.2500 H   0  0  0  0  0  0  0  0  0  0  0  0
   34.7940   28.2790   40.4230 H   0  0  0  0  0  0  0  0  0  0  0  0
   37.7560   28.7970   40.9920 H   0  0  0  0  0  0  0  0  0  0  0  0
   36.3830   28.6330   42.2200 H   0  0  0  0  0  0  0  0  0  0  0  0
   40.0300   27.1150   43.6620 C   0  0  0  0  0  0  0  0  0  0  0  0
   38.9620   27.5200   42.8630 C   0  0  0  0  0  0  0  0  0  0  0  0
   38.2390   26.5210   42.2260 C   0  0  0  0  0  0  0  0  0  0  0  0
   38.5860   25.1760   42.3920 N   0  0  0  0  0  0  0  0  0  0  0  0
   39.6380   24.8410   43.1820 C   0  0  0  0  0  0  0  0  0  0  0  0
   40.3520   25.8130   43.8110 N   0  0  0  0  0  0  0  0  0  0  0  0
   40.5960   27.8870   44.1600 H   0  0  0  0  0  0  0  0  0  0  0  0
   38.6620   28.5470   42.7090 H   0  0  0  0  0  0  0  0  0  0  0  0
   39.8220   23.7760   43.2430 H   0  0  0  0  0  0  0  0  0  0  0  0
   36.0450   29.7100   39.4290 C   0  0  2  0  0  0  0  0  0  0  0  0
   35.8730   29.7320   37.9810 C   0  0  0  0  0  0  0  0  0  0  0  0
   37.2110   29.9900   38.5900 C   0  0  1  0  0  0  0  0  0  0  0  0
   35.6320   30.5510   40.0130 H   0  0  0  0  0  0  0  0  0  0  0  0
   35.3520   30.5910   37.4890 H   0  0  0  0  0  0  0  0  0  0  0  0
   35.6690   28.7860   37.4480 H   0  0  0  0  0  0  0  0  0  0  0  0
   37.9600   29.1990   38.5790 H   0  0  0  0  0  0  0  0  0  0  0  0
   37.6920   31.3230   38.5750 O   0  0  0  0  0  0  0  0  0  0  0  0
   39.6440   29.8960   37.6070 O   0  0  0  0  0  0  0  0  0  0  0  0
   39.2870   31.2980   38.0410 P   0  0  1  0  0  0  0  0  0  0  0  0
   39.4540   32.3100   36.6660 O   0  0  0  0  0  0  0  0  0  0  0  0
   38.6660   32.8940   36.5480 H   0  0  0  0  0  0  0  0  0  0  0  0
   40.3980   31.7960   39.1580 O   0  0  0  0  0  0  0  0  0  0  0  0
   40.5270   31.0150   40.2900 C   0  0  0  0  0  3  0  0  0  0  0  0
   42.0010   30.8690   40.5920 C   0  0  0  0  0  2  0  0  0  0  0  0
   42.4360   31.7880   41.7180 C   0  0  0  0  0  2  0  0  0  0  0  0
   41.8480   31.2550   43.0210 C   0  0  0  0  0  2  0  0  0  0  0  0
   40.4090   30.8960   42.7330 C   0  0  0  0  0  2  0  0  0  0  0  0
   39.8910   31.6460   41.5110 C   0  0  0  0  0  2  0  0  0  0  0  0
  1  6  1  1  0  0  0
  1 16  1  0  0  0  0
  2  1  1  0  0  0  0
  3  2  1  0  0  0  0
  3  4  1  0  0  0  0
  4 11  1  1  0  0  0
  4  5  1  0  0  0  0
  5  1  1  0  0  0  0
  5 13  1  0  0  0  0
  7  2  1  0  0  0  0
  8  2  1  0  0  0  0
  9  3  1  0  0  0  0
 10  3  1  0  0  0  0
 12  5  1  0  0  0  0
 14 19  1  0  0  0  0
 14 20  1  0  0  0  0
 15 14  2  0  0  0  0
 16 17  2  0  0  0  0
 16 15  1  0  0  0  0
 17 18  1  0  0  0  0
 18 22  1  0  0  0  0
 18 19  2  0  0  0  0
 21 15  1  0  0  0  0
 23 26  1  1  0  0  0
 23  4  1  0  0  0  0
 24 25  1  0  0  0  0
 24 23  1  0  0  0  0
 25 29  1  6  0  0  0
 25 23  1  0  0  0  0
 27 24  1  0  0  0  0
 28 24  1  0  0  0  0
 30 25  1  0  0  0  0
 32 31  2  6  0  0  0
 32 30  1  0  0  0  0
 32 35  1  0  0  0  0
 33 32  1  0  0  0  0
 34 33  1  0  0  0  0
 35 36  1  0  0  0  0
 36 37  1  0  0  0  0
 36 41  1  0  0  0  0
 37 38  1  0  0  0  0
 38 39  1  0  0  0  0
 40 39  1  0  0  0  0
 41 40  1  0  0  0  0
M  END
>  <minimizedAffinity>
-5.58997869

$$$$

 OpenBabel03252507563D

 41 44  0  0  1  0  0  0  0  0999 V2000
   36.5890   30.2610   37.6850 C   0  0  2  0  0  0  0  0  0  0  0  0
   37.7920   31.1590   37.3880 C   0  0  0  0  0  0  0  0  0  0  0  0
   37.4270   32.3110   38.3510 C   0  0  0  0  0  0  0  0  0  0  0  0
   36.8290   31.6360   39.5460 C   0  0  1  0  0  0  0  0  0  0  0  0
   36.7180   30.1860   39.1830 C   0  0  0  0  0  0  0  0  0  0  0  0
   35.7100   30.7980   37.3110 H   0  0  0  0  0  0  0  0  0  0  0  0
   38.6910   30.6560   37.7630 H   0  0  0  0  0  0  0  0  0  0  0  0
   37.8210   31.5050   36.3560 H   0  0  0  0  0  0  0  0  0  0  0  0
   36.7860   33.0520   37.8590 H   0  0  0  0  0  0  0  0  0  0  0  0
   38.4140   32.7210   38.6680 H   0  0  0  0  0  0  0  0  0  0  0  0
   35.8380   32.0930   39.7530 H   0  0  0  0  0  0  0  0  0  0  0  0
   37.6640   29.6630   39.3960 H   0  0  0  0  0  0  0  0  0  0  0  0
   35.8250   29.6740   39.5950 H   0  0  0  0  0  0  0  0  0  0  0  0
   35.9190   26.8580   36.2090 C   0  0  0  0  0  0  0  0  0  0  0  0
   35.6510   28.0980   36.7870 C   0  0  0  0  0  0  0  0  0  0  0  0
   36.7390   28.9200   37.0450 C   0  0  0  0  0  0  0  0  0  0  0  0
   38.0370   28.5020   36.7330 N   0  0  0  0  0  0  0  0  0  0  0  0
   38.2380   27.2810   36.1720 C   0  0  0  0  0  0  0  0  0  0  0  0
   37.1770   26.4690   35.9150 N   0  0  0  0  0  0  0  0  0  0  0  0
   35.0770   26.2140   36.0060 H   0  0  0  0  0  0  0  0  0  0  0  0
   34.6650   28.4590   37.0430 H   0  0  0  0  0  0  0  0  0  0  0  0
   39.2770   27.0540   35.9710 H   0  0  0  0  0  0  0  0  0  0  0  0
   37.6740   31.7230   40.7970 C   0  0  2  0  0  0  0  0  0  0  0  0
   39.0570   32.1440   40.6030 C   0  0  0  0  0  0  0  0  0  0  0  0
   38.7440   30.7620   41.0690 C   0  0  1  0  0  0  0  0  0  0  0  0
   37.1270   32.1250   41.6670 H   0  0  0  0  0  0  0  0  0  0  0  0
   39.5400   32.8410   41.3330 H   0  0  0  0  0  0  0  0  0  0  0  0
   39.4270   32.3250   39.5790 H   0  0  0  0  0  0  0  0  0  0  0  0
   38.8030   29.9380   40.3590 H   0  0  0  0  0  0  0  0  0  0  0  0
   39.0060   30.4520   42.4270 O   0  0  0  0  0  0  0  0  0  0  0  0
   39.5360   28.1350   43.4930 O   0  0  0  0  0  0  0  0  0  0  0  0
   38.4750   28.8820   42.7180 P   0  0  1  0  0  0  0  0  0  0  0  0
   37.0670   28.9180   43.6960 O   0  0  0  0  0  0  0  0  0  0  0  0
   36.6820   29.8260   43.7440 H   0  0  0  0  0  0  0  0  0  0  0  0
   38.1130   28.0130   41.3610 O   0  0  0  0  0  0  0  0  0  0  0  0
   37.1750   27.0090   41.5040 C   0  0  0  0  0  3  0  0  0  0  0  0
   36.5770   26.7310   40.1430 C   0  0  0  0  0  2  0  0  0  0  0  0
   37.1650   25.4800   39.5180 C   0  0  0  0  0  2  0  0  0  0  0  0
   36.6410   24.2710   40.2860 C   0  0  0  0  0  2  0  0  0  0  0  0
   36.7480   24.6110   41.7550 C   0  0  0  0  0  2  0  0  0  0  0  0
   37.7800   25.7090   41.9900 C   0  0  0  0  0  2  0  0  0  0  0  0
  1  6  1  6  0  0  0
  1  5  1  0  0  0  0
  2  1  1  0  0  0  0
  2  7  1  0  0  0  0
  2  3  1  0  0  0  0
  3 10  1  0  0  0  0
  3  4  1  0  0  0  0
  4 11  1  1  0  0  0
  4 23  1  0  0  0  0
  5 12  1  0  0  0  0
  5  4  1  0  0  0  0
  5 13  1  0  0  0  0
  8  2  1  0  0  0  0
  9  3  1  0  0  0  0
 14 15  1  0  0  0  0
 15 21  1  0  0  0  0
 15 16  2  0  0  0  0
 16  1  1  0  0  0  0
 17 16  1  0  0  0  0
 18 17  2  0  0  0  0
 19 18  1  0  0  0  0
 19 14  2  0  0  0  0
 20 14  1  0  0  0  0
 22 18  1  0  0  0  0
 23 25  1  0  0  0  0
 23 26  1  1  0  0  0
 24 23  1  0  0  0  0
 24 25  1  0  0  0  0
 24 27  1  0  0  0  0
 25 29  1  6  0  0  0
 25 30  1  0  0  0  0
 28 24  1  0  0  0  0
 30 32  1  0  0  0  0
 32 31  2  1  0  0  0
 32 33  1  0  0  0  0
 33 34  1  0  0  0  0
 35 36  1  0  0  0  0
 35 32  1  0  0  0  0
 36 41  1  0  0  0  0
 37 36  1  0  0  0  0
 38 37  1  0  0  0  0
 38 39  1  0  0  0  0
 39 40  1  0  0  0  0
 40 41  1  0  0  0  0
M  END
>  <minimizedAffinity>
-5.53934002

$$$$

 OpenBabel03252507563D

 41 44  0  0  1  0  0  0  0  0999 V2000
   39.2720   31.4690   38.2870 C   0  0  2  0  0  0  0  0  0  0  0  0
   37.9170   32.1310   38.5480 C   0  0  0  0  0  0  0  0  0  0  0  0
   37.0320   31.0490   37.8910 C   0  0  0  0  0  0  0  0  0  0  0  0
   37.7040   29.7530   38.2250 C   0  0  1  0  0  0  0  0  0  0  0  0
   38.9930   30.1200   38.8950 C   0  0  0  0  0  0  0  0  0  0  0  0
   39.4110   31.4810   37.2000 H   0  0  0  0  0  0  0  0  0  0  0  0
   37.7400   32.1260   39.6310 H   0  0  0  0  0  0  0  0  0  0  0  0
   37.8060   33.0890   38.0420 H   0  0  0  0  0  0  0  0  0  0  0  0
   36.8920   31.2450   36.8220 H   0  0  0  0  0  0  0  0  0  0  0  0
   36.0830   31.0830   38.4750 H   0  0  0  0  0  0  0  0  0  0  0  0
   37.8670   29.1850   37.2840 H   0  0  0  0  0  0  0  0  0  0  0  0
   38.8330   30.2830   39.9730 H   0  0  0  0  0  0  0  0  0  0  0  0
   39.8400   29.4430   38.6690 H   0  0  0  0  0  0  0  0  0  0  0  0
   41.7920   32.5940   40.8540 C   0  0  0  0  0  0  0  0  0  0  0  0
   40.7700   31.8380   40.2830 C   0  0  0  0  0  0  0  0  0  0  0  0
   40.3730   32.1840   38.9990 C   0  0  0  0  0  0  0  0  0  0  0  0
   40.9840   33.2490   38.3290 N   0  0  0  0  0  0  0  0  0  0  0  0
   41.9750   33.9520   38.9360 C   0  0  0  0  0  0  0  0  0  0  0  0
   42.3710   33.6190   40.1950 N   0  0  0  0  0  0  0  0  0  0  0  0
   42.1040   32.3300   41.8530 H   0  0  0  0  0  0  0  0  0  0  0  0
   40.2730   31.0090   40.7670 H   0  0  0  0  0  0  0  0  0  0  0  0
   42.3800   34.7540   38.3330 H   0  0  0  0  0  0  0  0  0  0  0  0
   36.9290   28.8810   39.1880 C   0  0  2  0  0  0  0  0  0  0  0  0
   35.4780   28.9130   39.0500 C   0  0  0  0  0  0  0  0  0  0  0  0
   36.1350   29.4550   40.2750 C   0  0  1  0  0  0  0  0  0  0  0  0
   37.4100   27.9060   39.3780 H   0  0  0  0  0  0  0  0  0  0  0  0
   34.8820   27.9730   39.1540 H   0  0  0  0  0  0  0  0  0  0  0  0
   35.0210   29.5910   38.3070 H   0  0  0  0  0  0  0  0  0  0  0  0
   36.2380   30.5340   40.3880 H   0  0  0  0  0  0  0  0  0  0  0  0
   36.0270   28.6970   41.4680 O   0  0  0  0  0  0  0  0  0  0  0  0
   37.9470   30.3460   42.0850 O   0  0  0  0  0  0  0  0  0  0  0  0
   37.4100   28.9660   42.3870 P   0  0  1  0  0  0  0  0  0  0  0  0
   37.0130   28.9320   44.0550 O   0  0  0  0  0  0  0  0  0  0  0  0
   36.1130   28.5540   44.2060 H   0  0  0  0  0  0  0  0  0  0  0  0
   38.6240   27.8720   42.1450 O   0  0  0  0  0  0  0  0  0  0  0  0
   38.4220   26.6040   42.6540 C   0  0  0  0  0  3  0  0  0  0  0  0
   37.0920   26.1000   42.1400 C   0  0  0  0  0  2  0  0  0  0  0  0
   37.2680   25.1260   40.9900 C   0  0  0  0  0  2  0  0  0  0  0  0
   37.8420   23.8280   41.5480 C   0  0  0  0  0  2  0  0  0  0  0  0
   38.9480   24.2170   42.5020 C   0  0  0  0  0  2  0  0  0  0  0  0
   39.4720   25.6150   42.1930 C   0  0  0  0  0  2  0  0  0  0  0  0
  1  6  1  6  0  0  0
  1  2  1  0  0  0  0
  1  5  1  0  0  0  0
  1 16  1  0  0  0  0
  2  7  1  0  0  0  0
  3  4  1  0  0  0  0
  3 10  1  0  0  0  0
  3  2  1  0  0  0  0
  4 11  1  6  0  0  0
  4  5  1  0  0  0  0
  4 23  1  0  0  0  0
  5 12  1  0  0  0  0
  8  2  1  0  0  0  0
  9  3  1  0  0  0  0
 13  5  1  0  0  0  0
 14 20  1  0  0  0  0
 15 21  1  0  0  0  0
 15 14  1  0  0  0  0
 16 15  2  0  0  0  0
 17 18  2  0  0  0  0
 17 16  1  0  0  0  0
 18 19  1  0  0  0  0
 19 14  2  0  0  0  0
 22 18  1  0  0  0  0
 23 26  1  1  0  0  0
 23 25  1  0  0  0  0
 24 27  1  0  0  0  0
 24 23  1  0  0  0  0
 24 25  1  0  0  0  0
 25 29  1  1  0  0  0
 25 30  1  0  0  0  0
 28 24  1  0  0  0  0
 30 32  1  0  0  0  0
 32 31  2  6  0  0  0
 32 33  1  0  0  0  0
 33 34  1  0  0  0  0
 35 32  1  0  0  0  0
 35 36  1  0  0  0  0
 37 36  1  0  0  0  0
 38 39  1  0  0  0  0
 38 37  1  0  0  0  0
 39 40  1  0  0  0  0
 41 40  1  0  0  0  0
 41 36  1  0  0  0  0
M  END
>  <minimizedAffinity>
-5.53251839

$$$$
