
 OpenBabel03252505513D

 22 23  0  0  0  0  0  0  0  0999 V2000
   44.5970   35.5200   45.1560 C   0  0  0  0  0  0  0  0  0  0  0  0
   45.1800   35.0100   43.9950 C   0  0  0  0  0  0  0  0  0  0  0  0
   45.8070   33.7570   44.0600 C   0  0  0  0  0  0  0  0  0  0  0  0
   45.8180   33.1090   45.2350 N   0  0  0  0  0  0  0  0  0  0  0  0
   45.2450   33.6340   46.3400 C   0  0  0  0  0  0  0  0  0  0  0  0
   44.6350   34.8240   46.3210 N   0  0  0  0  0  0  0  0  0  0  0  0
   44.1070   36.4860   45.1240 H   0  0  0  0  0  0  0  0  0  0  0  0
   46.2280   33.4310   43.1410 H   0  0  0  0  0  0  0  0  0  0  0  0
   45.0990   35.8640   42.7690 C   0  0  0  0  0  0  0  0  0  0  0  0
   45.2630   37.1660   43.2090 F   0  0  0  0  0  0  0  0  0  0  0  0
   43.8600   35.6670   42.2190 F   0  0  0  0  0  0  0  0  0  0  0  0
   46.1180   35.4730   41.9110 F   0  0  0  0  0  0  0  0  0  0  0  0
   45.2580   32.9700   47.5550 O   0  0  0  0  0  0  0  0  0  0  0  0
   45.9460   31.7810   47.7920 C   0  0  0  0  0  0  0  0  0  0  0  0
   45.9210   31.6170   48.8900 H   0  0  0  0  0  0  0  0  0  0  0  0
   45.4010   30.9240   47.3550 H   0  0  0  0  0  0  0  0  0  0  0  0
   47.3990   31.7860   47.3900 C   0  0  0  0  0  3  0  0  0  0  0  0
   47.6660   30.4120   46.7900 C   0  0  0  0  0  2  0  0  0  0  0  0
   48.9830   29.8330   47.2550 C   0  0  0  0  0  2  0  0  0  0  0  0
   48.9600   29.5150   48.7360 C   0  0  0  0  0  2  0  0  0  0  0  0
   48.3420   30.6840   49.4560 C   0  0  0  0  0  2  0  0  0  0  0  0
   48.3110   31.9130   48.5900 C   0  0  0  0  0  2  0  0  0  0  0  0
  1  6  1  0  0  0  0
  2  3  1  0  0  0  0
  2  1  2  0  0  0  0
  3  4  2  0  0  0  0
  4  5  1  0  0  0  0
  5 13  1  0  0  0  0
  6  5  2  0  0  0  0
  7  1  1  0  0  0  0
  8  3  1  0  0  0  0
  9 10  1  0  0  0  0
  9  2  1  0  0  0  0
 11  9  1  0  0  0  0
 12  9  1  0  0  0  0
 13 14  1  0  0  0  0
 14 15  1  0  0  0  0
 16 14  1  0  0  0  0
 17 14  1  0  0  0  0
 17 22  1  0  0  0  0
 18 19  1  0  0  0  0
 18 17  1  0  0  0  0
 19 20  1  0  0  0  0
 20 21  1  0  0  0  0
 22 21  1  0  0  0  0
M  END
>  <minimizedAffinity>
-4.79825068

>  <minimizedRMSD>
1.06534314

$$$$
