
 OpenBabel03252500553D

 27 28  0  0  0  0  0  0  0  0999 V2000
   38.6160   31.8960   39.4220 C   0  0  0  0  0  0  0  0  0  0  0  0
   38.9490   30.8630   40.2960 C   0  0  0  0  0  0  0  0  0  0  0  0
   40.1350   31.0000   41.0440 C   0  0  0  0  0  0  0  0  0  0  0  0
   40.8610   32.1150   40.8640 N   0  0  0  0  0  0  0  0  0  0  0  0
   40.5160   33.1050   40.0090 C   0  0  0  0  0  0  0  0  0  0  0  0
   39.3930   32.9770   39.2980 N   0  0  0  0  0  0  0  0  0  0  0  0
   40.3640   30.2020   41.6990 H   0  0  0  0  0  0  0  0  0  0  0  0
   41.1060   33.9990   39.8710 H   0  0  0  0  0  0  0  0  0  0  0  0
   37.3930   31.8170   38.6110 C   0  0  0  0  0  0  0  0  0  0  0  0
   36.7420   32.6880   38.6720 H   0  0  0  0  0  0  0  0  0  0  0  0
   36.8230   30.9270   38.9700 H   0  0  0  0  0  0  0  0  0  0  0  0
   37.7600   31.6110   37.1700 C   0  0  0  0  0  0  0  0  0  0  0  0
   36.9350   31.9430   36.4960 H   0  0  0  0  0  0  0  0  0  0  0  0
   38.7190   32.0790   36.8830 H   0  0  0  0  0  0  0  0  0  0  0  0
   37.8560   30.5060   36.9850 H   0  0  0  0  0  0  0  0  0  0  0  0
   38.0780   29.7810   40.3520 O   0  0  0  0  0  0  0  0  0  0  0  0
   37.6910   29.4980   42.9350 O   0  0  0  0  0  0  0  0  0  0  0  0
   36.9800   29.4610   41.5840 P   0  0  1  0  0  0  0  0  0  0  0  0
   35.7830   30.6610   41.5780 O   0  0  0  0  0  0  0  0  0  0  0  0
   35.3270   30.7100   40.7250 H   0  0  0  0  0  0  0  0  0  0  0  0
   36.2050   27.9540   41.4090 O   0  0  0  0  0  0  0  0  0  0  0  0
   37.1630   27.0010   40.9880 C   0  0  0  0  0  3  0  0  0  0  0  0
   37.4900   26.1390   42.1410 C   0  0  0  0  0  2  0  0  0  0  0  0
   36.8190   24.7920   42.1440 C   0  0  0  0  0  2  0  0  0  0  0  0
   37.2090   24.1380   40.8250 C   0  0  0  0  0  2  0  0  0  0  0  0
   36.4380   24.8870   39.7730 C   0  0  0  0  0  2  0  0  0  0  0  0
   36.6690   26.3580   39.7540 C   0  0  0  0  0  2  0  0  0  0  0  0
  1  2  1  0  0  0  0
  2 16  1  0  0  0  0
  2  3  2  0  0  0  0
  3  7  1  0  0  0  0
  4  3  1  0  0  0  0
  5  4  2  0  0  0  0
  6  1  2  0  0  0  0
  6  5  1  0  0  0  0
  8  5  1  0  0  0  0
  9 10  1  0  0  0  0
  9 11  1  0  0  0  0
  9  1  1  0  0  0  0
 12  9  1  0  0  0  0
 13 12  1  0  0  0  0
 14 12  1  0  0  0  0
 15 12  1  0  0  0  0
 16 18  1  0  0  0  0
 18 17  2  1  0  0  0
 19 18  1  0  0  0  0
 20 19  1  0  0  0  0
 21 18  1  0  0  0  0
 22 21  1  0  0  0  0
 22 23  1  0  0  0  0
 23 24  1  0  0  0  0
 25 24  1  0  0  0  0
 26 25  1  0  0  0  0
 27 26  1  0  0  0  0
 27 22  1  0  0  0  0
M  END
>  <minimizedAffinity>
-5.00205708

$$$$

 OpenBabel03252500553D

 27 28  0  0  0  0  0  0  0  0999 V2000
   37.7360   26.3920   41.9580 C   0  0  0  0  0  0  0  0  0  0  0  0
   37.3660   27.6940   42.2890 C   0  0  0  0  0  0  0  0  0  0  0  0
   38.2620   28.4470   43.0710 C   0  0  0  0  0  0  0  0  0  0  0  0
   39.4110   27.8600   43.4440 N   0  0  0  0  0  0  0  0  0  0  0  0
   39.7490   26.5940   43.1090 C   0  0  0  0  0  0  0  0  0  0  0  0
   38.9000   25.8770   42.3680 N   0  0  0  0  0  0  0  0  0  0  0  0
   37.9570   29.4320   43.3080 H   0  0  0  0  0  0  0  0  0  0  0  0
   40.6760   26.1290   43.4130 H   0  0  0  0  0  0  0  0  0  0  0  0
   36.8470   25.5510   41.1440 C   0  0  0  0  0  0  0  0  0  0  0  0
   36.9780   25.6480   40.0680 H   0  0  0  0  0  0  0  0  0  0  0  0
   35.8010   25.8450   41.3980 H   0  0  0  0  0  0  0  0  0  0  0  0
   37.0500   24.1090   41.5100 C   0  0  0  0  0  0  0  0  0  0  0  0
   36.7240   23.4370   40.6800 H   0  0  0  0  0  0  0  0  0  0  0  0
   38.0800   23.8710   41.8310 H   0  0  0  0  0  0  0  0  0  0  0  0
   36.3640   23.8620   42.3650 H   0  0  0  0  0  0  0  0  0  0  0  0
   36.1350   28.1370   41.8160 O   0  0  0  0  0  0  0  0  0  0  0  0
   36.6590   28.8240   39.3350 O   0  0  0  0  0  0  0  0  0  0  0  0
   35.8970   29.2580   40.5860 P   0  0  1  0  0  0  0  0  0  0  0  0
   34.2460   29.3190   40.2100 O   0  0  0  0  0  0  0  0  0  0  0  0
   33.7090   29.5490   40.9830 H   0  0  0  0  0  0  0  0  0  0  0  0
   36.3910   30.8310   41.0160 O   0  0  0  0  0  0  0  0  0  0  0  0
   37.4940   31.1940   40.2060 C   0  0  0  0  0  3  0  0  0  0  0  0
   37.0570   32.2640   39.2890 C   0  0  0  0  0  2  0  0  0  0  0  0
   37.4690   33.6560   39.6850 C   0  0  0  0  0  2  0  0  0  0  0  0
   38.9870   33.6100   39.8150 C   0  0  0  0  0  2  0  0  0  0  0  0
   39.2490   32.8210   41.0670 C   0  0  0  0  0  2  0  0  0  0  0  0
   38.6500   31.4580   41.0870 C   0  0  0  0  0  2  0  0  0  0  0  0
  1  2  2  0  0  0  0
  1  6  1  0  0  0  0
  2  3  1  0  0  0  0
  3  7  1  0  0  0  0
  3  4  2  0  0  0  0
  5  8  1  0  0  0  0
  5  4  1  0  0  0  0
  6  5  2  0  0  0  0
  9 11  1  0  0  0  0
  9 12  1  0  0  0  0
  9  1  1  0  0  0  0
 10  9  1  0  0  0  0
 12 14  1  0  0  0  0
 12 15  1  0  0  0  0
 13 12  1  0  0  0  0
 16  2  1  0  0  0  0
 18 17  2  6  0  0  0
 18 21  1  0  0  0  0
 18 16  1  0  0  0  0
 19 18  1  0  0  0  0
 19 20  1  0  0  0  0
 22 21  1  0  0  0  0
 22 27  1  0  0  0  0
 23 24  1  0  0  0  0
 23 22  1  0  0  0  0
 24 25  1  0  0  0  0
 25 26  1  0  0  0  0
 26 27  1  0  0  0  0
M  END
>  <minimizedAffinity>
-4.99551678

$$$$

 OpenBabel03252500553D

 27 28  0  0  0  0  0  0  0  0999 V2000
   37.2250   31.4410   39.1980 C   0  0  0  0  0  0  0  0  0  0  0  0
   36.9470   30.1970   39.7610 C   0  0  0  0  0  0  0  0  0  0  0  0
   36.8640   29.0920   38.8920 C   0  0  0  0  0  0  0  0  0  0  0  0
   37.0600   29.3130   37.5810 N   0  0  0  0  0  0  0  0  0  0  0  0
   37.3300   30.5310   37.0590 C   0  0  0  0  0  0  0  0  0  0  0  0
   37.4080   31.5800   37.8810 N   0  0  0  0  0  0  0  0  0  0  0  0
   36.6520   28.1600   39.3450 H   0  0  0  0  0  0  0  0  0  0  0  0
   37.4870   30.7000   36.0030 H   0  0  0  0  0  0  0  0  0  0  0  0
   37.3250   32.6350   40.0490 C   0  0  0  0  0  0  0  0  0  0  0  0
   36.8920   32.5310   41.0430 H   0  0  0  0  0  0  0  0  0  0  0  0
   36.7900   33.4580   39.5180 H   0  0  0  0  0  0  0  0  0  0  0  0
   38.7680   33.0160   40.2080 C   0  0  0  0  0  0  0  0  0  0  0  0
   38.9200   33.6280   41.1290 H   0  0  0  0  0  0  0  0  0  0  0  0
   39.4620   32.1560   40.1850 H   0  0  0  0  0  0  0  0  0  0  0  0
   39.0490   33.6980   39.3600 H   0  0  0  0  0  0  0  0  0  0  0  0
   36.7720   30.1560   41.1400 O   0  0  0  0  0  0  0  0  0  0  0  0
   38.9770   30.3270   42.5570 O   0  0  0  0  0  0  0  0  0  0  0  0
   37.7980   29.4090   42.2420 P   0  0  1  0  0  0  0  0  0  0  0  0
   36.9470   29.1240   43.6800 O   0  0  0  0  0  0  0  0  0  0  0  0
   36.1600   28.5790   43.5300 H   0  0  0  0  0  0  0  0  0  0  0  0
   38.3950   27.9130   41.6870 O   0  0  0  0  0  0  0  0  0  0  0  0
   38.3120   26.9740   42.7420 C   0  0  0  0  0  3  0  0  0  0  0  0
   37.7690   25.7150   42.1950 C   0  0  0  0  0  2  0  0  0  0  0  0
   38.7890   24.6410   41.9260 C   0  0  0  0  0  2  0  0  0  0  0  0
   39.5040   24.4170   43.2530 C   0  0  0  0  0  2  0  0  0  0  0  0
   40.3580   25.6390   43.4500 C   0  0  0  0  0  2  0  0  0  0  0  0
   39.6180   26.9310   43.4300 C   0  0  0  0  0  2  0  0  0  0  0  0
  1  2  1  0  0  0  0
  1  9  1  0  0  0  0
  2 16  1  0  0  0  0
  3  7  1  0  0  0  0
  3  2  2  0  0  0  0
  4  3  1  0  0  0  0
  5  4  2  0  0  0  0
  5  6  1  0  0  0  0
  6  1  2  0  0  0  0
  8  5  1  0  0  0  0
  9 12  1  0  0  0  0
  9 10  1  0  0  0  0
 11  9  1  0  0  0  0
 12 13  1  0  0  0  0
 14 12  1  0  0  0  0
 15 12  1  0  0  0  0
 16 18  1  0  0  0  0
 18 17  2  1  0  0  0
 18 19  1  0  0  0  0
 20 19  1  0  0  0  0
 21 18  1  0  0  0  0
 21 22  1  0  0  0  0
 22 27  1  0  0  0  0
 23 22  1  0  0  0  0
 24 23  1  0  0  0  0
 24 25  1  0  0  0  0
 25 26  1  0  0  0  0
 27 26  1  0  0  0  0
M  END
>  <minimizedAffinity>
-4.98915672

$$$$

 OpenBabel03252500553D

 27 28  0  0  0  0  0  0  0  0999 V2000
   38.4640   31.5190   38.4050 C   0  0  0  0  0  0  0  0  0  0  0  0
   38.3160   30.2120   38.8620 C   0  0  0  0  0  0  0  0  0  0  0  0
   39.4190   29.3460   38.7300 C   0  0  0  0  0  0  0  0  0  0  0  0
   40.5370   29.8410   38.1740 N   0  0  0  0  0  0  0  0  0  0  0  0
   40.6570   31.1160   37.7380 C   0  0  0  0  0  0  0  0  0  0  0  0
   39.6120   31.9380   37.8620 N   0  0  0  0  0  0  0  0  0  0  0  0
   39.2790   28.3590   39.0840 H   0  0  0  0  0  0  0  0  0  0  0  0
   41.5610   31.5060   37.2930 H   0  0  0  0  0  0  0  0  0  0  0  0
   37.3520   32.4740   38.5120 C   0  0  0  0  0  0  0  0  0  0  0  0
   36.3620   32.0240   38.5780 H   0  0  0  0  0  0  0  0  0  0  0  0
   37.3860   33.1160   37.6000 H   0  0  0  0  0  0  0  0  0  0  0  0
   37.5510   33.3390   39.7230 C   0  0  0  0  0  0  0  0  0  0  0  0
   36.5820   33.7740   40.0660 H   0  0  0  0  0  0  0  0  0  0  0  0
   38.0740   32.8310   40.5530 H   0  0  0  0  0  0  0  0  0  0  0  0
   38.1740   34.2260   39.4250 H   0  0  0  0  0  0  0  0  0  0  0  0
   37.0830   29.8730   39.4090 O   0  0  0  0  0  0  0  0  0  0  0  0
   37.9890   30.0310   41.8700 O   0  0  0  0  0  0  0  0  0  0  0  0
   36.7390   29.7260   41.0480 P   0  0  1  0  0  0  0  0  0  0  0  0
   35.5420   30.8520   41.4610 O   0  0  0  0  0  0  0  0  0  0  0  0
   34.7370   30.7310   40.9360 H   0  0  0  0  0  0  0  0  0  0  0  0
   36.1640   28.1790   41.4700 O   0  0  0  0  0  0  0  0  0  0  0  0
   37.1530   27.2240   41.1350 C   0  0  0  0  0  3  0  0  0  0  0  0
   37.4200   26.3990   42.3300 C   0  0  0  0  0  2  0  0  0  0  0  0
   36.7610   25.0460   42.3350 C   0  0  0  0  0  2  0  0  0  0  0  0
   37.2330   24.3580   41.0600 C   0  0  0  0  0  2  0  0  0  0  0  0
   36.5180   25.0680   39.9440 C   0  0  0  0  0  2  0  0  0  0  0  0
   36.7370   26.5390   39.8940 C   0  0  0  0  0  2  0  0  0  0  0  0
  1  9  1  0  0  0  0
  1  2  1  0  0  0  0
  2 16  1  0  0  0  0
  3  2  2  0  0  0  0
  3  7  1  0  0  0  0
  4  3  1  0  0  0  0
  5  6  1  0  0  0  0
  5  4  2  0  0  0  0
  6  1  2  0  0  0  0
  8  5  1  0  0  0  0
  9 10  1  0  0  0  0
  9 12  1  0  0  0  0
 11  9  1  0  0  0  0
 12 13  1  0  0  0  0
 12 14  1  0  0  0  0
 15 12  1  0  0  0  0
 16 18  1  0  0  0  0
 18 19  1  0  0  0  0
 18 21  1  0  0  0  0
 18 17  2  1  0  0  0
 20 19  1  0  0  0  0
 22 21  1  0  0  0  0
 22 23  1  0  0  0  0
 23 24  1  0  0  0  0
 25 24  1  0  0  0  0
 26 25  1  0  0  0  0
 27 26  1  0  0  0  0
 27 22  1  0  0  0  0
M  END
>  <minimizedAffinity>
-4.98639297

$$$$

 OpenBabel03252500553D

 27 28  0  0  0  0  0  0  0  0999 V2000
   35.6750   28.8040   37.7160 C   0  0  0  0  0  0  0  0  0  0  0  0
   36.6490   29.7740   37.9460 C   0  0  0  0  0  0  0  0  0  0  0  0
   37.8860   29.6250   37.2890 C   0  0  0  0  0  0  0  0  0  0  0  0
   38.0410   28.5600   36.4860 N   0  0  0  0  0  0  0  0  0  0  0  0
   37.0800   27.6310   36.2770 C   0  0  0  0  0  0  0  0  0  0  0  0
   35.9060   27.7700   36.9000 N   0  0  0  0  0  0  0  0  0  0  0  0
   38.6070   30.3740   37.4810 H   0  0  0  0  0  0  0  0  0  0  0  0
   37.2130   26.7780   35.6290 H   0  0  0  0  0  0  0  0  0  0  0  0
   34.3630   28.9000   38.3700 C   0  0  0  0  0  0  0  0  0  0  0  0
   34.2270   29.7740   39.0060 H   0  0  0  0  0  0  0  0  0  0  0  0
   34.2470   27.9860   38.9990 H   0  0  0  0  0  0  0  0  0  0  0  0
   33.2830   28.9120   37.3260 C   0  0  0  0  0  0  0  0  0  0  0  0
   32.3500   29.3780   37.7230 H   0  0  0  0  0  0  0  0  0  0  0  0
   33.5890   29.3840   36.3750 H   0  0  0  0  0  0  0  0  0  0  0  0
   33.0010   27.8490   37.0990 H   0  0  0  0  0  0  0  0  0  0  0  0
   36.3130   30.8100   38.8110 O   0  0  0  0  0  0  0  0  0  0  0  0
   37.6750   32.3150   40.4790 O   0  0  0  0  0  0  0  0  0  0  0  0
   36.8870   31.0110   40.3780 P   0  0  1  0  0  0  0  0  0  0  0  0
   35.5690   31.1020   41.4390 O   0  0  0  0  0  0  0  0  0  0  0  0
   35.0080   30.3140   41.3850 H   0  0  0  0  0  0  0  0  0  0  0  0
   37.8800   29.7250   40.8920 O   0  0  0  0  0  0  0  0  0  0  0  0
   37.1440   28.9200   41.7950 C   0  0  0  0  0  3  0  0  0  0  0  0
   36.6740   27.7250   41.0660 C   0  0  0  0  0  2  0  0  0  0  0  0
   37.4720   26.4730   41.3080 C   0  0  0  0  0  2  0  0  0  0  0  0
   37.4470   26.2580   42.8160 C   0  0  0  0  0  2  0  0  0  0  0  0
   38.3390   27.3300   43.3800 C   0  0  0  0  0  2  0  0  0  0  0  0
   37.9580   28.7210   43.0100 C   0  0  0  0  0  2  0  0  0  0  0  0
  1  2  1  0  0  0  0
  1  9  1  0  0  0  0
  2 16  1  0  0  0  0
  3  7  1  0  0  0  0
  3  2  2  0  0  0  0
  4  3  1  0  0  0  0
  5  4  2  0  0  0  0
  5  6  1  0  0  0  0
  6  1  2  0  0  0  0
  8  5  1  0  0  0  0
  9 11  1  0  0  0  0
  9 10  1  0  0  0  0
 12 13  1  0  0  0  0
 12  9  1  0  0  0  0
 14 12  1  0  0  0  0
 15 12  1  0  0  0  0
 16 18  1  0  0  0  0
 18 17  2  1  0  0  0
 18 21  1  0  0  0  0
 18 19  1  0  0  0  0
 20 19  1  0  0  0  0
 21 22  1  0  0  0  0
 22 27  1  0  0  0  0
 23 24  1  0  0  0  0
 23 22  1  0  0  0  0
 24 25  1  0  0  0  0
 25 26  1  0  0  0  0
 27 26  1  0  0  0  0
M  END
>  <minimizedAffinity>
-4.91923952

$$$$

 OpenBabel03252500553D

 27 28  0  0  0  0  0  0  0  0999 V2000
   36.1100   29.8640   38.8770 C   0  0  0  0  0  0  0  0  0  0  0  0
   37.0970   30.2880   39.7640 C   0  0  0  0  0  0  0  0  0  0  0  0
   38.2650   30.8540   39.2180 C   0  0  0  0  0  0  0  0  0  0  0  0
   38.3460   30.9470   37.8800 N   0  0  0  0  0  0  0  0  0  0  0  0
   37.3740   30.5280   37.0390 C   0  0  0  0  0  0  0  0  0  0  0  0
   36.2660   29.9900   37.5550 N   0  0  0  0  0  0  0  0  0  0  0  0
   38.9980   31.1680   39.9130 H   0  0  0  0  0  0  0  0  0  0  0  0
   37.4470   30.6070   35.9640 H   0  0  0  0  0  0  0  0  0  0  0  0
   34.8670   29.2640   39.3820 C   0  0  0  0  0  0  0  0  0  0  0  0
   34.2400   29.9300   39.9730 H   0  0  0  0  0  0  0  0  0  0  0  0
   35.1600   28.3990   40.0210 H   0  0  0  0  0  0  0  0  0  0  0  0
   34.0500   28.7600   38.2270 C   0  0  0  0  0  0  0  0  0  0  0  0
   32.9730   28.6780   38.5050 H   0  0  0  0  0  0  0  0  0  0  0  0
   34.1770   29.3500   37.3000 H   0  0  0  0  0  0  0  0  0  0  0  0
   34.3700   27.7070   38.0010 H   0  0  0  0  0  0  0  0  0  0  0  0
   36.8420   30.1130   41.1200 O   0  0  0  0  0  0  0  0  0  0  0  0
   39.0930   30.1290   42.4740 O   0  0  0  0  0  0  0  0  0  0  0  0
   37.8320   29.3070   42.2140 P   0  0  1  0  0  0  0  0  0  0  0  0
   37.0020   29.1280   43.6790 O   0  0  0  0  0  0  0  0  0  0  0  0
   36.1680   28.6480   43.5640 H   0  0  0  0  0  0  0  0  0  0  0  0
   38.2860   27.7540   41.6800 O   0  0  0  0  0  0  0  0  0  0  0  0
   37.1130   26.9990   41.4420 C   0  0  0  0  0  3  0  0  0  0  0  0
   37.1420   26.5380   40.0390 C   0  0  0  0  0  2  0  0  0  0  0  0
   37.5590   25.1060   39.8440 C   0  0  0  0  0  2  0  0  0  0  0  0
   36.5950   24.2820   40.6870 C   0  0  0  0  0  2  0  0  0  0  0  0
   36.9940   24.5490   42.1120 C   0  0  0  0  0  2  0  0  0  0  0  0
   36.9890   25.9840   42.5070 C   0  0  0  0  0  2  0  0  0  0  0  0
  1  9  1  0  0  0  0
  1  2  1  0  0  0  0
  2 16  1  0  0  0  0
  3  2  2  0  0  0  0
  3  7  1  0  0  0  0
  4  3  1  0  0  0  0
  5  6  1  0  0  0  0
  5  4  2  0  0  0  0
  6  1  2  0  0  0  0
  8  5  1  0  0  0  0
  9 10  1  0  0  0  0
  9 11  1  0  0  0  0
 12 13  1  0  0  0  0
 12  9  1  0  0  0  0
 14 12  1  0  0  0  0
 15 12  1  0  0  0  0
 16 18  1  0  0  0  0
 18 17  2  1  0  0  0
 18 19  1  0  0  0  0
 20 19  1  0  0  0  0
 21 18  1  0  0  0  0
 22 21  1  0  0  0  0
 22 27  1  0  0  0  0
 23 22  1  0  0  0  0
 24 23  1  0  0  0  0
 24 25  1  0  0  0  0
 25 26  1  0  0  0  0
 26 27  1  0  0  0  0
M  END
>  <minimizedAffinity>
-4.89183331

$$$$

 OpenBabel03252500553D

 27 28  0  0  0  0  0  0  0  0999 V2000
   36.6650   30.2430   38.9460 C   0  0  0  0  0  0  0  0  0  0  0  0
   36.2320   29.9320   40.2330 C   0  0  0  0  0  0  0  0  0  0  0  0
   35.0510   29.1750   40.3570 C   0  0  0  0  0  0  0  0  0  0  0  0
   34.4250   28.8040   39.2280 N   0  0  0  0  0  0  0  0  0  0  0  0
   34.8670   29.1180   37.9890 C   0  0  0  0  0  0  0  0  0  0  0  0
   35.9860   29.8370   37.8680 N   0  0  0  0  0  0  0  0  0  0  0  0
   34.7440   28.9530   41.3450 H   0  0  0  0  0  0  0  0  0  0  0  0
   34.3570   28.8160   37.0860 H   0  0  0  0  0  0  0  0  0  0  0  0
   37.8900   31.0300   38.7450 C   0  0  0  0  0  0  0  0  0  0  0  0
   38.5220   30.6990   37.9220 H   0  0  0  0  0  0  0  0  0  0  0  0
   38.4790   30.9610   39.6900 H   0  0  0  0  0  0  0  0  0  0  0  0
   37.5270   32.4670   38.5030 C   0  0  0  0  0  0  0  0  0  0  0  0
   38.3450   32.9990   37.9620 H   0  0  0  0  0  0  0  0  0  0  0  0
   36.5580   32.6010   37.9890 H   0  0  0  0  0  0  0  0  0  0  0  0
   37.4560   32.9850   39.4980 H   0  0  0  0  0  0  0  0  0  0  0  0
   37.0070   30.4010   41.2880 O   0  0  0  0  0  0  0  0  0  0  0  0
   39.1070   30.2460   42.8590 O   0  0  0  0  0  0  0  0  0  0  0  0
   37.9040   29.4550   42.3490 P   0  0  1  0  0  0  0  0  0  0  0  0
   36.9340   29.0460   43.6770 O   0  0  0  0  0  0  0  0  0  0  0  0
   36.1310   28.5770   43.4050 H   0  0  0  0  0  0  0  0  0  0  0  0
   38.4560   28.0060   41.6430 O   0  0  0  0  0  0  0  0  0  0  0  0
   37.9460   26.9180   42.3910 C   0  0  0  0  0  3  0  0  0  0  0  0
   37.0160   26.1630   41.5280 C   0  0  0  0  0  2  0  0  0  0  0  0
   37.5780   24.9010   40.9300 C   0  0  0  0  0  2  0  0  0  0  0  0
   38.0520   24.0660   42.1130 C   0  0  0  0  0  2  0  0  0  0  0  0
   39.2830   24.7660   42.6190 C   0  0  0  0  0  2  0  0  0  0  0  0
   39.0840   26.1930   42.9920 C   0  0  0  0  0  2  0  0  0  0  0  0
  1  2  1  0  0  0  0
  2  3  2  0  0  0  0
  2 16  1  0  0  0  0
  3  7  1  0  0  0  0
  4  3  1  0  0  0  0
  5  4  2  0  0  0  0
  6  5  1  0  0  0  0
  6  1  2  0  0  0  0
  8  5  1  0  0  0  0
  9  1  1  0  0  0  0
  9 11  1  0  0  0  0
 10  9  1  0  0  0  0
 12  9  1  0  0  0  0
 12 15  1  0  0  0  0
 13 12  1  0  0  0  0
 14 12  1  0  0  0  0
 16 18  1  0  0  0  0
 18 17  2  1  0  0  0
 18 19  1  0  0  0  0
 20 19  1  0  0  0  0
 21 18  1  0  0  0  0
 21 22  1  0  0  0  0
 22 27  1  0  0  0  0
 23 22  1  0  0  0  0
 24 23  1  0  0  0  0
 24 25  1  0  0  0  0
 25 26  1  0  0  0  0
 26 27  1  0  0  0  0
M  END
>  <minimizedAffinity>
-4.84298468

$$$$

 OpenBabel03252500553D

 27 28  0  0  0  0  0  0  0  0999 V2000
   37.2720   30.7590   39.9280 C   0  0  0  0  0  0  0  0  0  0  0  0
   38.3060   30.4420   40.8060 C   0  0  0  0  0  0  0  0  0  0  0  0
   39.0730   31.5050   41.3200 C   0  0  0  0  0  0  0  0  0  0  0  0
   38.7550   32.7500   40.9290 N   0  0  0  0  0  0  0  0  0  0  0  0
   37.7460   33.0330   40.0750 C   0  0  0  0  0  0  0  0  0  0  0  0
   37.0170   32.0260   39.5860 N   0  0  0  0  0  0  0  0  0  0  0  0
   39.8510   31.2370   41.9840 H   0  0  0  0  0  0  0  0  0  0  0  0
   37.4960   34.0370   39.7660 H   0  0  0  0  0  0  0  0  0  0  0  0
   36.4320   29.6970   39.3550 C   0  0  0  0  0  0  0  0  0  0  0  0
   36.9160   28.7250   39.2640 H   0  0  0  0  0  0  0  0  0  0  0  0
   36.1310   30.0360   38.3360 H   0  0  0  0  0  0  0  0  0  0  0  0
   35.2000   29.5260   40.1950 C   0  0  0  0  0  0  0  0  0  0  0  0
   34.7580   28.5110   40.0540 H   0  0  0  0  0  0  0  0  0  0  0  0
   35.3570   29.7450   41.2670 H   0  0  0  0  0  0  0  0  0  0  0  0
   34.4150   30.2370   39.8180 H   0  0  0  0  0  0  0  0  0  0  0  0
   38.4920   29.0950   41.0990 O   0  0  0  0  0  0  0  0  0  0  0  0
   39.3160   28.0420   43.3600 O   0  0  0  0  0  0  0  0  0  0  0  0
   38.0650   28.3300   42.5330 P   0  0  1  0  0  0  0  0  0  0  0  0
   37.0600   29.3590   43.4280 O   0  0  0  0  0  0  0  0  0  0  0  0
   36.2670   29.6090   42.9310 H   0  0  0  0  0  0  0  0  0  0  0  0
   37.2220   26.8700   42.2820 O   0  0  0  0  0  0  0  0  0  0  0  0
   37.7850   26.2120   41.1630 C   0  0  0  0  0  3  0  0  0  0  0  0
   38.4400   24.9780   41.6380 C   0  0  0  0  0  2  0  0  0  0  0  0
   37.6580   23.7110   41.4180 C   0  0  0  0  0  2  0  0  0  0  0  0
   37.3780   23.6590   39.9220 C   0  0  0  0  0  2  0  0  0  0  0  0
   36.3480   24.7280   39.6780 C   0  0  0  0  0  2  0  0  0  0  0  0
   36.7440   26.0930   40.1220 C   0  0  0  0  0  2  0  0  0  0  0  0
  1  2  1  0  0  0  0
  2 16  1  0  0  0  0
  2  3  2  0  0  0  0
  3  7  1  0  0  0  0
  4  3  1  0  0  0  0
  5  4  2  0  0  0  0
  6  1  2  0  0  0  0
  6  5  1  0  0  0  0
  8  5  1  0  0  0  0
  9  1  1  0  0  0  0
  9 12  1  0  0  0  0
 10  9  1  0  0  0  0
 11  9  1  0  0  0  0
 12 14  1  0  0  0  0
 13 12  1  0  0  0  0
 15 12  1  0  0  0  0
 16 18  1  0  0  0  0
 18 17  2  1  0  0  0
 18 19  1  0  0  0  0
 20 19  1  0  0  0  0
 21 18  1  0  0  0  0
 22 23  1  0  0  0  0
 22 21  1  0  0  0  0
 24 23  1  0  0  0  0
 25 24  1  0  0  0  0
 26 25  1  0  0  0  0
 26 27  1  0  0  0  0
 27 22  1  0  0  0  0
M  END
>  <minimizedAffinity>
-4.74876738

$$$$

 OpenBabel03252500553D

 27 28  0  0  0  0  0  0  0  0999 V2000
   37.7510   31.4360   39.7400 C   0  0  0  0  0  0  0  0  0  0  0  0
   39.0510   31.6430   40.1950 C   0  0  0  0  0  0  0  0  0  0  0  0
   39.4920   32.9740   40.3240 C   0  0  0  0  0  0  0  0  0  0  0  0
   38.6290   33.9510   39.9990 N   0  0  0  0  0  0  0  0  0  0  0  0
   37.3700   33.7240   39.5600 C   0  0  0  0  0  0  0  0  0  0  0  0
   36.9510   32.4630   39.4360 N   0  0  0  0  0  0  0  0  0  0  0  0
   40.4830   33.1040   40.6710 H   0  0  0  0  0  0  0  0  0  0  0  0
   36.6830   34.5160   39.3010 H   0  0  0  0  0  0  0  0  0  0  0  0
   37.2280   30.0710   39.5830 C   0  0  0  0  0  0  0  0  0  0  0  0
   37.8320   29.2900   40.0440 H   0  0  0  0  0  0  0  0  0  0  0  0
   37.1710   29.8690   38.4870 H   0  0  0  0  0  0  0  0  0  0  0  0
   35.8460   29.9950   40.1640 C   0  0  0  0  0  0  0  0  0  0  0  0
   35.5830   28.9440   40.4320 H   0  0  0  0  0  0  0  0  0  0  0  0
   35.6840   30.6750   41.0200 H   0  0  0  0  0  0  0  0  0  0  0  0
   35.1110   30.2800   39.3640 H   0  0  0  0  0  0  0  0  0  0  0  0
   39.8050   30.5110   40.4830 O   0  0  0  0  0  0  0  0  0  0  0  0
   42.1060   29.9990   41.6430 O   0  0  0  0  0  0  0  0  0  0  0  0
   40.6190   30.2070   41.9220 P   0  0  1  0  0  0  0  0  0  0  0  0
   40.4500   31.5480   42.9430 O   0  0  0  0  0  0  0  0  0  0  0  0
   39.5200   31.7520   43.1190 H   0  0  0  0  0  0  0  0  0  0  0  0
   40.0170   28.8450   42.7510 O   0  0  0  0  0  0  0  0  0  0  0  0
   38.7640   28.4950   42.1930 C   0  0  0  0  0  3  0  0  0  0  0  0
   38.8600   27.1150   41.6780 C   0  0  0  0  0  2  0  0  0  0  0  0
   38.2520   26.0580   42.5600 C   0  0  0  0  0  2  0  0  0  0  0  0
   36.8040   26.4830   42.7660 C   0  0  0  0  0  2  0  0  0  0  0  0
   36.8700   27.6750   43.6800 C   0  0  0  0  0  2  0  0  0  0  0  0
   37.7130   28.7980   43.1850 C   0  0  0  0  0  2  0  0  0  0  0  0
  1  2  1  0  0  0  0
  2  3  2  0  0  0  0
  2 16  1  0  0  0  0
  3  7  1  0  0  0  0
  4  3  1  0  0  0  0
  5  4  2  0  0  0  0
  6  5  1  0  0  0  0
  6  1  2  0  0  0  0
  8  5  1  0  0  0  0
  9  1  1  0  0  0  0
  9 10  1  0  0  0  0
  9 12  1  0  0  0  0
 11  9  1  0  0  0  0
 12 13  1  0  0  0  0
 12 14  1  0  0  0  0
 15 12  1  0  0  0  0
 16 18  1  0  0  0  0
 18 17  2  6  0  0  0
 18 21  1  0  0  0  0
 18 19  1  0  0  0  0
 19 20  1  0  0  0  0
 22 21  1  0  0  0  0
 22 27  1  0  0  0  0
 23 22  1  0  0  0  0
 23 24  1  0  0  0  0
 24 25  1  0  0  0  0
 25 26  1  0  0  0  0
 27 26  1  0  0  0  0
M  END
>  <minimizedAffinity>
-4.57705355

$$$$
