
 OpenBabel03242520313D

 38 40  0  0  0  0  0  0  0  0999 V2000
   36.4370   30.3440   37.9590 C   0  0  0  0  0  0  0  0  0  0  0  0
   36.8570   30.6030   39.2980 C   0  0  0  0  0  0  0  0  0  0  0  0
   36.1880   29.9570   40.3230 C   0  0  0  0  0  0  0  0  0  0  0  0
   35.1710   29.1120   40.0230 N   0  0  0  0  0  0  0  0  0  0  0  0
   34.7880   28.8790   38.7530 C   0  0  0  0  0  0  0  0  0  0  0  0
   35.4190   29.4930   37.7350 N   0  0  0  0  0  0  0  0  0  0  0  0
   36.9400   30.8340   37.1360 H   0  0  0  0  0  0  0  0  0  0  0  0
   33.9640   28.1900   38.5870 H   0  0  0  0  0  0  0  0  0  0  0  0
   37.9340   31.5110   39.4340 N   0  0  0  0  0  0  0  0  0  0  0  0
   37.7620   32.8970   39.8480 C   0  0  0  0  0  0  0  0  0  0  0  0
   39.1040   33.5510   40.0260 C   0  0  0  0  0  0  0  0  0  0  0  0
   39.9710   33.3860   38.8960 N   0  0  0  0  0  0  0  0  0  0  0  0
   40.0760   32.0590   38.3980 C   0  0  0  0  0  0  0  0  0  0  0  0
   39.2740   31.0250   39.1430 C   0  0  0  0  0  0  0  0  0  0  0  0
   37.2580   32.8650   40.8270 H   0  0  0  0  0  0  0  0  0  0  0  0
   37.1130   33.4740   39.1450 H   0  0  0  0  0  0  0  0  0  0  0  0
   38.9380   34.6360   40.1850 H   0  0  0  0  0  0  0  0  0  0  0  0
   39.5640   33.1600   40.9700 H   0  0  0  0  0  0  0  0  0  0  0  0
   39.9080   34.1290   38.1870 H   0  0  0  0  0  0  0  0  0  0  0  0
   41.1450   31.7170   38.4460 H   0  0  0  0  0  0  0  0  0  0  0  0
   39.7840   32.0450   37.3350 H   0  0  0  0  0  0  0  0  0  0  0  0
   39.2560   30.1020   38.5370 H   0  0  0  0  0  0  0  0  0  0  0  0
   39.7710   30.8670   40.1270 H   0  0  0  0  0  0  0  0  0  0  0  0
   36.6280   30.2360   41.6100 O   0  0  0  0  0  0  0  0  0  0  0  0
   37.2530   28.6980   43.6800 O   0  0  0  0  0  0  0  0  0  0  0  0
   37.7850   29.1800   42.3310 P   0  0  1  0  0  0  0  0  0  0  0  0
   38.0400   27.8990   41.2880 O   0  0  0  0  0  0  0  0  0  0  0  0
   37.4310   26.7470   41.7390 C   0  0  0  0  0  3  0  0  0  0  0  0
   38.4250   25.8050   42.3890 C   0  0  0  0  0  2  0  0  0  0  0  0
   37.9990   24.3490   42.1710 C   0  0  0  0  0  2  0  0  0  0  0  0
   38.1610   23.9560   40.7230 C   0  0  0  0  0  2  0  0  0  0  0  0
   38.0250   25.2280   39.9020 C   0  0  0  0  0  2  0  0  0  0  0  0
   36.8730   26.0170   40.5250 C   0  0  0  0  0  2  0  0  0  0  0  0
   39.1770   30.0710   42.5940 O   0  0  0  0  0  0  0  0  0  0  0  0
   40.3270   29.3050   42.5700 C   0  0  0  0  0  0  0  0  0  0  0  0
   40.6850   28.8710   41.3170 F   0  0  0  0  0  0  0  0  0  0  0  0
   40.3020   28.2240   43.4150 F   0  0  0  0  0  0  0  0  0  0  0  0
   41.3450   30.1320   43.0410 F   0  0  0  0  0  0  0  0  0  0  0  0
  1  2  1  0  0  0  0
  2  9  1  0  0  0  0
  2  3  2  0  0  0  0
  3 24  1  0  0  0  0
  4  3  1  0  0  0  0
  5  4  2  0  0  0  0
  6  1  2  0  0  0  0
  6  5  1  0  0  0  0
  7  1  1  0  0  0  0
  8  5  1  0  0  0  0
  9 10  1  0  0  0  0
 10 11  1  0  0  0  0
 10 15  1  0  0  0  0
 11 17  1  0  0  0  0
 11 18  1  0  0  0  0
 12 11  1  0  0  0  0
 13 20  1  0  0  0  0
 13 12  1  0  0  0  0
 13 14  1  0  0  0  0
 14  9  1  0  0  0  0
 14 23  1  0  0  0  0
 16 10  1  0  0  0  0
 19 12  1  0  0  0  0
 21 13  1  0  0  0  0
 22 14  1  0  0  0  0
 24 26  1  0  0  0  0
 26 34  1  0  0  0  0
 26 25  2  1  0  0  0
 27 28  1  0  0  0  0
 27 26  1  0  0  0  0
 28 29  1  0  0  0  0
 30 29  1  0  0  0  0
 31 30  1  0  0  0  0
 32 33  1  0  0  0  0
 32 31  1  0  0  0  0
 33 28  1  0  0  0  0
 35 34  1  0  0  0  0
 35 38  1  0  0  0  0
 35 37  1  0  0  0  0
 36 35  1  0  0  0  0
M  END
>  <minimizedAffinity>
-5.42661238

$$$$

 OpenBabel03242520313D

 38 40  0  0  0  0  0  0  0  0999 V2000
   40.5980   30.1580   38.1430 C   0  0  0  0  0  0  0  0  0  0  0  0
   39.6720   30.2380   39.2260 C   0  0  0  0  0  0  0  0  0  0  0  0
   39.3810   29.0740   39.9160 C   0  0  0  0  0  0  0  0  0  0  0  0
   39.9770   27.9140   39.5440 N   0  0  0  0  0  0  0  0  0  0  0  0
   40.8480   27.8580   38.5180 C   0  0  0  0  0  0  0  0  0  0  0  0
   41.1510   28.9720   37.8280 N   0  0  0  0  0  0  0  0  0  0  0  0
   40.8470   31.0500   37.5840 H   0  0  0  0  0  0  0  0  0  0  0  0
   41.2870   26.8930   38.2750 H   0  0  0  0  0  0  0  0  0  0  0  0
   39.1440   31.5260   39.4820 N   0  0  0  0  0  0  0  0  0  0  0  0
   39.4220   32.2750   40.7000 C   0  0  0  0  0  0  0  0  0  0  0  0
   38.8280   33.6520   40.6040 C   0  0  0  0  0  0  0  0  0  0  0  0
   37.4440   33.6490   40.2260 N   0  0  0  0  0  0  0  0  0  0  0  0
   37.1210   32.8390   39.1040 C   0  0  0  0  0  0  0  0  0  0  0  0
   38.2820   32.1210   38.4720 C   0  0  0  0  0  0  0  0  0  0  0  0
   40.5170   32.3720   40.7580 H   0  0  0  0  0  0  0  0  0  0  0  0
   39.0740   31.7400   41.6180 H   0  0  0  0  0  0  0  0  0  0  0  0
   38.9190   34.1360   41.5970 H   0  0  0  0  0  0  0  0  0  0  0  0
   39.4540   34.2580   39.8990 H   0  0  0  0  0  0  0  0  0  0  0  0
   36.7790   33.6180   41.0110 H   0  0  0  0  0  0  0  0  0  0  0  0
   36.6680   33.4730   38.2940 H   0  0  0  0  0  0  0  0  0  0  0  0
   36.3560   32.1010   39.3970 H   0  0  0  0  0  0  0  0  0  0  0  0
   37.8810   31.3640   37.7750 H   0  0  0  0  0  0  0  0  0  0  0  0
   38.8980   32.8850   37.9450 H   0  0  0  0  0  0  0  0  0  0  0  0
   38.4770   29.1960   40.9630 O   0  0  0  0  0  0  0  0  0  0  0  0
   36.0420   30.2500   40.9910 O   0  0  0  0  0  0  0  0  0  0  0  0
   36.8000   28.9740   40.6300 P   0  0  1  0  0  0  0  0  0  0  0  0
   36.6350   28.6100   39.0070 O   0  0  0  0  0  0  0  0  0  0  0  0
   35.6620   29.3810   38.4090 C   0  0  0  0  0  3  0  0  0  0  0  0
   34.3210   28.6740   38.3900 C   0  0  0  0  0  2  0  0  0  0  0  0
   33.5210   29.0860   37.1480 C   0  0  0  0  0  2  0  0  0  0  0  0
   34.1450   28.5160   35.8970 C   0  0  0  0  0  2  0  0  0  0  0  0
   35.6270   28.3390   36.1850 C   0  0  0  0  0  2  0  0  0  0  0  0
   36.0640   29.5850   36.9550 C   0  0  0  0  0  2  0  0  0  0  0  0
   36.2560   27.7340   41.6160 O   0  0  0  0  0  0  0  0  0  0  0  0
   36.9140   27.6770   42.8300 C   0  0  0  0  0  0  0  0  0  0  0  0
   37.1210   28.9030   43.4130 F   0  0  0  0  0  0  0  0  0  0  0  0
   38.1090   27.0040   42.7930 F   0  0  0  0  0  0  0  0  0  0  0  0
   36.0880   26.9380   43.6750 F   0  0  0  0  0  0  0  0  0  0  0  0
  1  2  1  0  0  0  0
  2  9  1  0  0  0  0
  2  3  2  0  0  0  0
  3 24  1  0  0  0  0
  4  3  1  0  0  0  0
  5  4  2  0  0  0  0
  6  1  2  0  0  0  0
  6  5  1  0  0  0  0
  7  1  1  0  0  0  0
  8  5  1  0  0  0  0
  9 10  1  0  0  0  0
 10 15  1  0  0  0  0
 10 16  1  0  0  0  0
 11 10  1  0  0  0  0
 11 17  1  0  0  0  0
 12 11  1  0  0  0  0
 12 19  1  0  0  0  0
 13 21  1  0  0  0  0
 13 12  1  0  0  0  0
 14 13  1  0  0  0  0
 14  9  1  0  0  0  0
 18 11  1  0  0  0  0
 20 13  1  0  0  0  0
 22 14  1  0  0  0  0
 23 14  1  0  0  0  0
 26 24  1  0  0  0  0
 26 25  2  1  0  0  0
 26 34  1  0  0  0  0
 27 26  1  0  0  0  0
 28 27  1  0  0  0  0
 29 28  1  0  0  0  0
 30 29  1  0  0  0  0
 31 32  1  0  0  0  0
 31 30  1  0  0  0  0
 32 33  1  0  0  0  0
 33 28  1  0  0  0  0
 34 35  1  0  0  0  0
 35 36  1  0  0  0  0
 35 38  1  0  0  0  0
 37 35  1  0  0  0  0
M  END
>  <minimizedAffinity>
-5.36394119

$$$$

 OpenBabel03242520313D

 38 40  0  0  0  0  0  0  0  0999 V2000
   36.9540   31.1190   38.1460 C   0  0  0  0  0  0  0  0  0  0  0  0
   36.5340   30.2570   39.2020 C   0  0  0  0  0  0  0  0  0  0  0  0
   36.7200   30.6890   40.5040 C   0  0  0  0  0  0  0  0  0  0  0  0
   37.2890   31.8990   40.7280 N   0  0  0  0  0  0  0  0  0  0  0  0
   37.6790   32.7010   39.7180 C   0  0  0  0  0  0  0  0  0  0  0  0
   37.5110   32.3090   38.4420 N   0  0  0  0  0  0  0  0  0  0  0  0
   36.8210   30.8110   37.1180 H   0  0  0  0  0  0  0  0  0  0  0  0
   38.1280   33.6580   39.9710 H   0  0  0  0  0  0  0  0  0  0  0  0
   35.9600   29.0300   38.7940 N   0  0  0  0  0  0  0  0  0  0  0  0
   36.7470   27.8980   38.3220 C   0  0  0  0  0  0  0  0  0  0  0  0
   35.8560   26.7080   38.0990 C   0  0  0  0  0  0  0  0  0  0  0  0
   34.7120   27.0000   37.2850 N   0  0  0  0  0  0  0  0  0  0  0  0
   33.9820   28.1630   37.6540 C   0  0  0  0  0  0  0  0  0  0  0  0
   34.5110   28.9020   38.8530 C   0  0  0  0  0  0  0  0  0  0  0  0
   37.4540   27.6560   39.1320 H   0  0  0  0  0  0  0  0  0  0  0  0
   37.3410   28.1450   37.4080 H   0  0  0  0  0  0  0  0  0  0  0  0
   36.4530   25.9220   37.5950 H   0  0  0  0  0  0  0  0  0  0  0  0
   35.5660   26.2930   39.0980 H   0  0  0  0  0  0  0  0  0  0  0  0
   34.8480   26.8560   36.2750 H   0  0  0  0  0  0  0  0  0  0  0  0
   32.9220   27.8850   37.9020 H   0  0  0  0  0  0  0  0  0  0  0  0
   33.9390   28.8530   36.7950 H   0  0  0  0  0  0  0  0  0  0  0  0
   34.0130   29.8860   38.8990 H   0  0  0  0  0  0  0  0  0  0  0  0
   34.2880   28.2810   39.7510 H   0  0  0  0  0  0  0  0  0  0  0  0
   36.2980   29.8200   41.5010 O   0  0  0  0  0  0  0  0  0  0  0  0
   37.4830   28.7570   43.6240 O   0  0  0  0  0  0  0  0  0  0  0  0
   37.4150   28.6510   42.1010 P   0  0  1  0  0  0  0  0  0  0  0  0
   36.8930   27.1380   41.6220 O   0  0  0  0  0  0  0  0  0  0  0  0
   37.6350   26.1350   42.2070 C   0  0  0  0  0  3  0  0  0  0  0  0
   38.7760   25.6870   41.3140 C   0  0  0  0  0  2  0  0  0  0  0  0
   39.0680   24.1980   41.5320 C   0  0  0  0  0  2  0  0  0  0  0  0
   37.9470   23.3480   40.9850 C   0  0  0  0  0  2  0  0  0  0  0  0
   36.6850   24.1930   41.0420 C   0  0  0  0  0  2  0  0  0  0  0  0
   36.7230   24.9290   42.3810 C   0  0  0  0  0  2  0  0  0  0  0  0
   38.9200   29.0330   41.4720 O   0  0  0  0  0  0  0  0  0  0  0  0
   39.7880   29.5480   42.4150 C   0  0  0  0  0  0  0  0  0  0  0  0
   39.2370   30.5220   43.2110 F   0  0  0  0  0  0  0  0  0  0  0  0
   40.9660   30.0230   41.8970 F   0  0  0  0  0  0  0  0  0  0  0  0
   40.1380   28.4770   43.2350 F   0  0  0  0  0  0  0  0  0  0  0  0
  1  6  2  0  0  0  0
  1  2  1  0  0  0  0
  2  3  2  0  0  0  0
  3  4  1  0  0  0  0
  3 24  1  0  0  0  0
  5  8  1  0  0  0  0
  5  4  2  0  0  0  0
  6  5  1  0  0  0  0
  7  1  1  0  0  0  0
  9 14  1  0  0  0  0
  9  2  1  0  0  0  0
 10  9  1  0  0  0  0
 10 15  1  0  0  0  0
 11 10  1  0  0  0  0
 11 18  1  0  0  0  0
 12 13  1  0  0  0  0
 12 11  1  0  0  0  0
 13 20  1  0  0  0  0
 13 14  1  0  0  0  0
 14 22  1  0  0  0  0
 14 23  1  0  0  0  0
 16 10  1  0  0  0  0
 17 11  1  0  0  0  0
 19 12  1  0  0  0  0
 21 13  1  0  0  0  0
 24 26  1  0  0  0  0
 26 25  2  1  0  0  0
 27 26  1  0  0  0  0
 27 28  1  0  0  0  0
 28 33  1  0  0  0  0
 29 30  1  0  0  0  0
 29 28  1  0  0  0  0
 31 32  1  0  0  0  0
 31 30  1  0  0  0  0
 32 33  1  0  0  0  0
 34 26  1  0  0  0  0
 34 35  1  0  0  0  0
 35 36  1  0  0  0  0
 35 38  1  0  0  0  0
 37 35  1  0  0  0  0
M  END
>  <minimizedAffinity>
-5.34882641

$$$$

 OpenBabel03242520313D

 38 40  0  0  0  0  0  0  0  0999 V2000
   37.0310   30.6200   36.5550 C   0  0  0  0  0  0  0  0  0  0  0  0
   37.5190   30.3370   37.8650 C   0  0  0  0  0  0  0  0  0  0  0  0
   37.3000   29.0690   38.3770 C   0  0  0  0  0  0  0  0  0  0  0  0
   36.6390   28.1540   37.6270 N   0  0  0  0  0  0  0  0  0  0  0  0
   36.1860   28.4390   36.3910 C   0  0  0  0  0  0  0  0  0  0  0  0
   36.3830   29.6620   35.8660 N   0  0  0  0  0  0  0  0  0  0  0  0
   37.1860   31.6010   36.1260 H   0  0  0  0  0  0  0  0  0  0  0  0
   35.6630   27.6570   35.8460 H   0  0  0  0  0  0  0  0  0  0  0  0
   38.1870   31.4040   38.5100 N   0  0  0  0  0  0  0  0  0  0  0  0
   39.6270   31.6100   38.4290 C   0  0  0  0  0  0  0  0  0  0  0  0
   40.0020   32.8990   39.1050 C   0  0  0  0  0  0  0  0  0  0  0  0
   39.4710   33.0200   40.4320 N   0  0  0  0  0  0  0  0  0  0  0  0
   38.0880   32.7200   40.5640 C   0  0  0  0  0  0  0  0  0  0  0  0
   37.3860   32.3370   39.2900 C   0  0  0  0  0  0  0  0  0  0  0  0
   39.8650   31.6960   37.3580 H   0  0  0  0  0  0  0  0  0  0  0  0
   40.2040   30.7450   38.8420 H   0  0  0  0  0  0  0  0  0  0  0  0
   41.1080   32.9470   39.1650 H   0  0  0  0  0  0  0  0  0  0  0  0
   39.6840   33.7470   38.4460 H   0  0  0  0  0  0  0  0  0  0  0  0
   40.0820   32.6650   41.1790 H   0  0  0  0  0  0  0  0  0  0  0  0
   37.5400   33.6160   40.9640 H   0  0  0  0  0  0  0  0  0  0  0  0
   37.9610   31.9120   41.3040 H   0  0  0  0  0  0  0  0  0  0  0  0
   36.4010   31.9140   39.5530 H   0  0  0  0  0  0  0  0  0  0  0  0
   37.2920   33.2600   38.6730 H   0  0  0  0  0  0  0  0  0  0  0  0
   37.7910   28.8350   39.6550 O   0  0  0  0  0  0  0  0  0  0  0  0
   35.2990   29.2140   40.4850 O   0  0  0  0  0  0  0  0  0  0  0  0
   36.6690   28.7330   40.9610 P   0  0  1  0  0  0  0  0  0  0  0  0
   36.6080   27.1430   41.4710 O   0  0  0  0  0  0  0  0  0  0  0  0
   37.4290   26.3340   40.7150 C   0  0  0  0  0  3  0  0  0  0  0  0
   36.6340   25.3160   39.9200 C   0  0  0  0  0  2  0  0  0  0  0  0
   37.4440   24.0260   39.7480 C   0  0  0  0  0  2  0  0  0  0  0  0
   37.5760   23.2980   41.0640 C   0  0  0  0  0  2  0  0  0  0  0  0
   37.4870   24.3480   42.1590 C   0  0  0  0  0  2  0  0  0  0  0  0
   38.3070   25.5430   41.6740 C   0  0  0  0  0  2  0  0  0  0  0  0
   37.2080   29.7660   42.1630 O   0  0  0  0  0  0  0  0  0  0  0  0
   38.4250   29.3880   42.6990 C   0  0  0  0  0  0  0  0  0  0  0  0
   39.1120   30.4110   43.3050 F   0  0  0  0  0  0  0  0  0  0  0  0
   39.2640   28.7650   41.8110 F   0  0  0  0  0  0  0  0  0  0  0  0
   38.1300   28.4370   43.6750 F   0  0  0  0  0  0  0  0  0  0  0  0
  1  2  1  0  0  0  0
  2  3  2  0  0  0  0
  2  9  1  0  0  0  0
  3 24  1  0  0  0  0
  4  3  1  0  0  0  0
  5  4  2  0  0  0  0
  6  5  1  0  0  0  0
  6  1  2  0  0  0  0
  7  1  1  0  0  0  0
  8  5  1  0  0  0  0
  9 14  1  0  0  0  0
 10  9  1  0  0  0  0
 10 16  1  0  0  0  0
 10 11  1  0  0  0  0
 11 17  1  0  0  0  0
 11 12  1  0  0  0  0
 12 13  1  0  0  0  0
 12 19  1  0  0  0  0
 13 20  1  0  0  0  0
 13 21  1  0  0  0  0
 14 22  1  0  0  0  0
 14 13  1  0  0  0  0
 15 10  1  0  0  0  0
 18 11  1  0  0  0  0
 23 14  1  0  0  0  0
 24 26  1  0  0  0  0
 26 25  2  6  0  0  0
 26 27  1  0  0  0  0
 26 34  1  0  0  0  0
 28 27  1  0  0  0  0
 28 33  1  0  0  0  0
 29 28  1  0  0  0  0
 30 29  1  0  0  0  0
 30 31  1  0  0  0  0
 31 32  1  0  0  0  0
 33 32  1  0  0  0  0
 34 35  1  0  0  0  0
 35 36  1  0  0  0  0
 35 38  1  0  0  0  0
 37 35  1  0  0  0  0
M  END
>  <minimizedAffinity>
-5.18989468

$$$$

 OpenBabel03242520313D

 38 40  0  0  0  0  0  0  0  0999 V2000
   41.2560   32.5490   37.4140 C   0  0  0  0  0  0  0  0  0  0  0  0
   40.5800   31.8570   38.4630 C   0  0  0  0  0  0  0  0  0  0  0  0
   41.1590   30.6980   38.9520 C   0  0  0  0  0  0  0  0  0  0  0  0
   42.3310   30.2670   38.4240 N   0  0  0  0  0  0  0  0  0  0  0  0
   42.9550   30.9340   37.4340 C   0  0  0  0  0  0  0  0  0  0  0  0
   42.4180   32.0630   36.9380 N   0  0  0  0  0  0  0  0  0  0  0  0
   40.8300   33.4580   37.0110 H   0  0  0  0  0  0  0  0  0  0  0  0
   43.8920   30.5300   37.0590 H   0  0  0  0  0  0  0  0  0  0  0  0
   39.3680   32.4430   38.8980 N   0  0  0  0  0  0  0  0  0  0  0  0
   39.3120   33.5670   39.8250 C   0  0  0  0  0  0  0  0  0  0  0  0
   37.8940   34.0390   39.9760 C   0  0  0  0  0  0  0  0  0  0  0  0
   36.9730   32.9830   40.2850 N   0  0  0  0  0  0  0  0  0  0  0  0
   37.0760   31.8270   39.4660 C   0  0  0  0  0  0  0  0  0  0  0  0
   38.1230   31.8910   38.3870 C   0  0  0  0  0  0  0  0  0  0  0  0
   39.9010   34.3750   39.3640 H   0  0  0  0  0  0  0  0  0  0  0  0
   39.7740   33.3250   40.8140 H   0  0  0  0  0  0  0  0  0  0  0  0
   37.8650   34.7810   40.7990 H   0  0  0  0  0  0  0  0  0  0  0  0
   37.6050   34.5890   39.0440 H   0  0  0  0  0  0  0  0  0  0  0  0
   36.8290   32.8120   41.2890 H   0  0  0  0  0  0  0  0  0  0  0  0
   36.0990   31.6430   38.9410 H   0  0  0  0  0  0  0  0  0  0  0  0
   37.2660   30.9460   40.1020 H   0  0  0  0  0  0  0  0  0  0  0  0
   38.2600   30.8740   37.9790 H   0  0  0  0  0  0  0  0  0  0  0  0
   37.7580   32.6040   37.6130 H   0  0  0  0  0  0  0  0  0  0  0  0
   40.4690   30.0560   39.9720 O   0  0  0  0  0  0  0  0  0  0  0  0
   41.1560   31.7150   41.9250 O   0  0  0  0  0  0  0  0  0  0  0  0
   41.0440   30.2290   41.5890 P   0  0  1  0  0  0  0  0  0  0  0  0
   39.9690   29.4570   42.6090 O   0  0  0  0  0  0  0  0  0  0  0  0
   38.9740   28.8130   41.9060 C   0  0  0  0  0  3  0  0  0  0  0  0
   37.6100   29.4110   42.1900 C   0  0  0  0  0  2  0  0  0  0  0  0
   36.5260   28.3300   42.0990 C   0  0  0  0  0  2  0  0  0  0  0  0
   36.6420   27.3590   43.2500 C   0  0  0  0  0  2  0  0  0  0  0  0
   38.1000   27.3560   43.6800 C   0  0  0  0  0  2  0  0  0  0  0  0
   38.9250   27.3720   42.3930 C   0  0  0  0  0  2  0  0  0  0  0  0
   42.5750   29.5520   41.6480 O   0  0  0  0  0  0  0  0  0  0  0  0
   42.5600   28.1710   41.6200 C   0  0  0  0  0  0  0  0  0  0  0  0
   41.7490   27.6390   40.6470 F   0  0  0  0  0  0  0  0  0  0  0  0
   42.2420   27.5860   42.8200 F   0  0  0  0  0  0  0  0  0  0  0  0
   43.8690   27.7820   41.3420 F   0  0  0  0  0  0  0  0  0  0  0  0
  1  2  1  0  0  0  0
  2  9  1  0  0  0  0
  2  3  2  0  0  0  0
  3 24  1  0  0  0  0
  4  3  1  0  0  0  0
  5  4  2  0  0  0  0
  6  1  2  0  0  0  0
  6  5  1  0  0  0  0
  7  1  1  0  0  0  0
  8  5  1  0  0  0  0
  9 10  1  0  0  0  0
 10 11  1  0  0  0  0
 10 16  1  0  0  0  0
 11 12  1  0  0  0  0
 11 17  1  0  0  0  0
 12 19  1  0  0  0  0
 13 21  1  0  0  0  0
 13 12  1  0  0  0  0
 14  9  1  0  0  0  0
 14 13  1  0  0  0  0
 15 10  1  0  0  0  0
 18 11  1  0  0  0  0
 20 13  1  0  0  0  0
 22 14  1  0  0  0  0
 23 14  1  0  0  0  0
 24 26  1  0  0  0  0
 26 34  1  0  0  0  0
 26 25  2  1  0  0  0
 26 27  1  0  0  0  0
 28 29  1  0  0  0  0
 28 33  1  0  0  0  0
 28 27  1  0  0  0  0
 30 29  1  0  0  0  0
 30 31  1  0  0  0  0
 31 32  1  0  0  0  0
 33 32  1  0  0  0  0
 35 34  1  0  0  0  0
 35 37  1  0  0  0  0
 36 35  1  0  0  0  0
 38 35  1  0  0  0  0
M  END
>  <minimizedAffinity>
-5.05409479

$$$$

 OpenBabel03242520313D

 38 40  0  0  0  0  0  0  0  0999 V2000
   37.3280   29.1690   36.5870 C   0  0  0  0  0  0  0  0  0  0  0  0
   37.8800   29.3650   37.8880 C   0  0  0  0  0  0  0  0  0  0  0  0
   38.8190   28.4520   38.3370 C   0  0  0  0  0  0  0  0  0  0  0  0
   39.1750   27.4170   37.5380 N   0  0  0  0  0  0  0  0  0  0  0  0
   38.6430   27.2470   36.3120 C   0  0  0  0  0  0  0  0  0  0  0  0
   37.7280   28.1180   35.8470 N   0  0  0  0  0  0  0  0  0  0  0  0
   36.5930   29.8650   36.2060 H   0  0  0  0  0  0  0  0  0  0  0  0
   38.9750   26.3950   35.7260 H   0  0  0  0  0  0  0  0  0  0  0  0
   37.3990   30.4960   38.5890 N   0  0  0  0  0  0  0  0  0  0  0  0
   37.9850   31.8240   38.4610 C   0  0  0  0  0  0  0  0  0  0  0  0
   37.1640   32.8250   39.2250 C   0  0  0  0  0  0  0  0  0  0  0  0
   36.9040   32.4320   40.5800 N   0  0  0  0  0  0  0  0  0  0  0  0
   36.4330   31.1010   40.7480 C   0  0  0  0  0  0  0  0  0  0  0  0
   36.2620   30.3120   39.4790 C   0  0  0  0  0  0  0  0  0  0  0  0
   37.9370   32.0790   37.3910 H   0  0  0  0  0  0  0  0  0  0  0  0
   39.0580   31.8470   38.7740 H   0  0  0  0  0  0  0  0  0  0  0  0
   37.7180   33.7850   39.2390 H   0  0  0  0  0  0  0  0  0  0  0  0
   36.2190   33.0130   38.6540 H   0  0  0  0  0  0  0  0  0  0  0  0
   37.6000   32.7530   41.2670 H   0  0  0  0  0  0  0  0  0  0  0  0
   35.4260   31.1130   41.2460 H   0  0  0  0  0  0  0  0  0  0  0  0
   37.1160   30.5570   41.4230 H   0  0  0  0  0  0  0  0  0  0  0  0
   36.1180   29.2510   39.7490 H   0  0  0  0  0  0  0  0  0  0  0  0
   35.3770   30.7290   38.9460 H   0  0  0  0  0  0  0  0  0  0  0  0
   39.3310   28.6810   39.6080 O   0  0  0  0  0  0  0  0  0  0  0  0
   39.0510   26.1130   40.2150 O   0  0  0  0  0  0  0  0  0  0  0  0
   39.0330   27.5080   40.8370 P   0  0  1  0  0  0  0  0  0  0  0  0
   40.2170   27.6660   42.0050 O   0  0  0  0  0  0  0  0  0  0  0  0
   41.0560   26.5730   42.0310 C   0  0  0  0  0  3  0  0  0  0  0  0
   41.3070   26.0920   43.4470 C   0  0  0  0  0  2  0  0  0  0  0  0
   42.7130   25.4910   43.5630 C   0  0  0  0  0  2  0  0  0  0  0  0
   43.7650   26.5690   43.4520 C   0  0  0  0  0  2  0  0  0  0  0  0
   43.1620   27.6890   42.6200 C   0  0  0  0  0  2  0  0  0  0  0  0
   42.4040   27.0130   41.4780 C   0  0  0  0  0  2  0  0  0  0  0  0
   37.5000   27.8020   41.4430 O   0  0  0  0  0  0  0  0  0  0  0  0
   37.3700   27.4690   42.7780 C   0  0  0  0  0  0  0  0  0  0  0  0
   36.0770   27.5030   43.2400 F   0  0  0  0  0  0  0  0  0  0  0  0
   38.1550   28.2110   43.6230 F   0  0  0  0  0  0  0  0  0  0  0  0
   37.8270   26.1570   42.8890 F   0  0  0  0  0  0  0  0  0  0  0  0
  1  2  1  0  0  0  0
  2  3  2  0  0  0  0
  2  9  1  0  0  0  0
  3 24  1  0  0  0  0
  4  3  1  0  0  0  0
  5  4  2  0  0  0  0
  6  5  1  0  0  0  0
  6  1  2  0  0  0  0
  7  1  1  0  0  0  0
  8  5  1  0  0  0  0
  9 14  1  0  0  0  0
 10  9  1  0  0  0  0
 10 16  1  0  0  0  0
 10 11  1  0  0  0  0
 11 17  1  0  0  0  0
 11 12  1  0  0  0  0
 12 13  1  0  0  0  0
 12 19  1  0  0  0  0
 13 20  1  0  0  0  0
 13 21  1  0  0  0  0
 14 22  1  0  0  0  0
 14 13  1  0  0  0  0
 15 10  1  0  0  0  0
 18 11  1  0  0  0  0
 23 14  1  0  0  0  0
 24 26  1  0  0  0  0
 26 25  2  6  0  0  0
 26 34  1  0  0  0  0
 26 27  1  0  0  0  0
 27 28  1  0  0  0  0
 28 29  1  0  0  0  0
 29 30  1  0  0  0  0
 31 30  1  0  0  0  0
 32 31  1  0  0  0  0
 33 28  1  0  0  0  0
 33 32  1  0  0  0  0
 34 35  1  0  0  0  0
 35 38  1  0  0  0  0
 35 36  1  0  0  0  0
 35 37  1  0  0  0  0
M  END
>  <minimizedAffinity>
-4.97976398

$$$$

 OpenBabel03242520313D

 38 40  0  0  0  0  0  0  0  0999 V2000
   37.0370   28.9670   36.8790 C   0  0  0  0  0  0  0  0  0  0  0  0
   37.8650   29.4320   37.9440 C   0  0  0  0  0  0  0  0  0  0  0  0
   39.0030   28.7020   38.2440 C   0  0  0  0  0  0  0  0  0  0  0  0
   39.2870   27.5870   37.5270 N   0  0  0  0  0  0  0  0  0  0  0  0
   38.4930   27.1640   36.5250 C   0  0  0  0  0  0  0  0  0  0  0  0
   37.3800   27.8510   36.2090 N   0  0  0  0  0  0  0  0  0  0  0  0
   36.1410   29.5140   36.6190 H   0  0  0  0  0  0  0  0  0  0  0  0
   38.7820   26.2610   35.9930 H   0  0  0  0  0  0  0  0  0  0  0  0
   37.4240   30.6110   38.5880 N   0  0  0  0  0  0  0  0  0  0  0  0
   38.0790   31.9030   38.4250 C   0  0  0  0  0  0  0  0  0  0  0  0
   37.2900   32.9720   39.1270 C   0  0  0  0  0  0  0  0  0  0  0  0
   36.9780   32.6460   40.4890 N   0  0  0  0  0  0  0  0  0  0  0  0
   36.4360   31.3490   40.6960 C   0  0  0  0  0  0  0  0  0  0  0  0
   36.2570   30.5190   39.4530 C   0  0  0  0  0  0  0  0  0  0  0  0
   38.0710   32.1170   37.3450 H   0  0  0  0  0  0  0  0  0  0  0  0
   39.1440   31.8860   38.7660 H   0  0  0  0  0  0  0  0  0  0  0  0
   37.8910   33.9040   39.1190 H   0  0  0  0  0  0  0  0  0  0  0  0
   36.3700   33.1840   38.5240 H   0  0  0  0  0  0  0  0  0  0  0  0
   37.6710   32.9610   41.1810 H   0  0  0  0  0  0  0  0  0  0  0  0
   35.4190   31.4300   41.1650 H   0  0  0  0  0  0  0  0  0  0  0  0
   37.0740   30.7980   41.4080 H   0  0  0  0  0  0  0  0  0  0  0  0
   36.0530   29.4780   39.7600 H   0  0  0  0  0  0  0  0  0  0  0  0
   35.4080   30.9580   38.8810 H   0  0  0  0  0  0  0  0  0  0  0  0
   39.7810   29.1890   39.2870 O   0  0  0  0  0  0  0  0  0  0  0  0
   38.5870   29.2020   41.6560 O   0  0  0  0  0  0  0  0  0  0  0  0
   39.6330   28.4490   40.8370 P   0  0  1  0  0  0  0  0  0  0  0  0
   39.1930   26.8530   40.6120 O   0  0  0  0  0  0  0  0  0  0  0  0
   38.0140   26.5540   41.2610 C   0  0  0  0  0  3  0  0  0  0  0  0
   38.1150   25.2550   42.0360 C   0  0  0  0  0  2  0  0  0  0  0  0
   36.7540   24.5500   42.0720 C   0  0  0  0  0  2  0  0  0  0  0  0
   36.3890   24.0220   40.7060 C   0  0  0  0  0  2  0  0  0  0  0  0
   37.0910   24.9080   39.6890 C   0  0  0  0  0  2  0  0  0  0  0  0
   36.9450   26.3420   40.1990 C   0  0  0  0  0  2  0  0  0  0  0  0
   41.1160   28.5960   41.6020 O   0  0  0  0  0  0  0  0  0  0  0  0
   41.1670   27.9450   42.8200 C   0  0  0  0  0  0  0  0  0  0  0  0
   39.9640   27.9020   43.4820 F   0  0  0  0  0  0  0  0  0  0  0  0
   42.1210   28.4280   43.6790 F   0  0  0  0  0  0  0  0  0  0  0  0
   41.5420   26.6330   42.5330 F   0  0  0  0  0  0  0  0  0  0  0  0
  1  2  1  0  0  0  0
  2  3  2  0  0  0  0
  2  9  1  0  0  0  0
  3 24  1  0  0  0  0
  4  3  1  0  0  0  0
  5  4  2  0  0  0  0
  6  5  1  0  0  0  0
  6  1  2  0  0  0  0
  7  1  1  0  0  0  0
  8  5  1  0  0  0  0
  9 14  1  0  0  0  0
 10  9  1  0  0  0  0
 10 16  1  0  0  0  0
 10 11  1  0  0  0  0
 11 12  1  0  0  0  0
 12 13  1  0  0  0  0
 12 19  1  0  0  0  0
 13 20  1  0  0  0  0
 13 21  1  0  0  0  0
 14 22  1  0  0  0  0
 14 13  1  0  0  0  0
 15 10  1  0  0  0  0
 17 11  1  0  0  0  0
 18 11  1  0  0  0  0
 23 14  1  0  0  0  0
 24 26  1  0  0  0  0
 26 34  1  0  0  0  0
 26 25  2  1  0  0  0
 27 26  1  0  0  0  0
 27 28  1  0  0  0  0
 28 29  1  0  0  0  0
 29 30  1  0  0  0  0
 31 30  1  0  0  0  0
 32 33  1  0  0  0  0
 32 31  1  0  0  0  0
 33 28  1  0  0  0  0
 34 35  1  0  0  0  0
 35 36  1  0  0  0  0
 35 37  1  0  0  0  0
 38 35  1  0  0  0  0
M  END
>  <minimizedAffinity>
-4.92909241

$$$$

 OpenBabel03242520313D

 38 40  0  0  0  0  0  0  0  0999 V2000
   38.1790   24.7710   39.6760 C   0  0  0  0  0  0  0  0  0  0  0  0
   38.6190   26.1240   39.7910 C   0  0  0  0  0  0  0  0  0  0  0  0
   38.5910   26.7100   41.0450 C   0  0  0  0  0  0  0  0  0  0  0  0
   38.1520   25.9880   42.1060 N   0  0  0  0  0  0  0  0  0  0  0  0
   37.7400   24.7120   41.9790 C   0  0  0  0  0  0  0  0  0  0  0  0
   37.7560   24.1150   40.7730 N   0  0  0  0  0  0  0  0  0  0  0  0
   38.1890   24.2850   38.7100 H   0  0  0  0  0  0  0  0  0  0  0  0
   37.4000   24.1940   42.8720 H   0  0  0  0  0  0  0  0  0  0  0  0
   39.0450   26.7300   38.5860 N   0  0  0  0  0  0  0  0  0  0  0  0
   40.4420   26.7890   38.1720 C   0  0  0  0  0  0  0  0  0  0  0  0
   40.5450   27.3710   36.7910 C   0  0  0  0  0  0  0  0  0  0  0  0
   39.8410   28.6120   36.6420 N   0  0  0  0  0  0  0  0  0  0  0  0
   38.5080   28.6190   37.1360 C   0  0  0  0  0  0  0  0  0  0  0  0
   38.0320   27.3190   37.7240 C   0  0  0  0  0  0  0  0  0  0  0  0
   40.7960   25.7480   38.1390 H   0  0  0  0  0  0  0  0  0  0  0  0
   41.0780   27.3470   38.9030 H   0  0  0  0  0  0  0  0  0  0  0  0
   41.6170   27.5480   36.5720 H   0  0  0  0  0  0  0  0  0  0  0  0
   40.1950   26.6000   36.0570 H   0  0  0  0  0  0  0  0  0  0  0  0
   40.3990   29.4540   36.8390 H   0  0  0  0  0  0  0  0  0  0  0  0
   37.7950   28.8650   36.3030 H   0  0  0  0  0  0  0  0  0  0  0  0
   38.4050   29.4170   37.8910 H   0  0  0  0  0  0  0  0  0  0  0  0
   37.0900   27.5120   38.2680 H   0  0  0  0  0  0  0  0  0  0  0  0
   37.8860   26.6070   36.8800 H   0  0  0  0  0  0  0  0  0  0  0  0
   39.0270   28.0260   41.1130 O   0  0  0  0  0  0  0  0  0  0  0  0
   37.6440   29.7490   42.5830 O   0  0  0  0  0  0  0  0  0  0  0  0
   37.8470   29.2830   41.1420 P   0  0  1  0  0  0  0  0  0  0  0  0
   38.3910   30.5310   40.1730 O   0  0  0  0  0  0  0  0  0  0  0  0
   38.5680   31.6930   40.8920 C   0  0  0  0  0  3  0  0  0  0  0  0
   37.9460   32.8860   40.1900 C   0  0  0  0  0  2  0  0  0  0  0  0
   38.7470   34.1580   40.4950 C   0  0  0  0  0  2  0  0  0  0  0  0
   40.0940   34.1160   39.8160 C   0  0  0  0  0  2  0  0  0  0  0  0
   40.4650   32.6500   39.6600 C   0  0  0  0  0  2  0  0  0  0  0  0
   40.0630   31.9660   40.9660 C   0  0  0  0  0  2  0  0  0  0  0  0
   36.4090   28.6280   40.5860 O   0  0  0  0  0  0  0  0  0  0  0  0
   35.4940   29.5840   40.1890 C   0  0  0  0  0  0  0  0  0  0  0  0
   35.5190   30.7310   40.9440 F   0  0  0  0  0  0  0  0  0  0  0  0
   34.2000   29.1330   40.1230 F   0  0  0  0  0  0  0  0  0  0  0  0
   35.8440   29.9260   38.8840 F   0  0  0  0  0  0  0  0  0  0  0  0
  1  2  2  0  0  0  0
  1  6  1  0  0  0  0
  2  3  1  0  0  0  0
  3 24  1  0  0  0  0
  3  4  2  0  0  0  0
  5  4  1  0  0  0  0
  5  8  1  0  0  0  0
  6  5  2  0  0  0  0
  7  1  1  0  0  0  0
  9  2  1  0  0  0  0
 10  9  1  0  0  0  0
 10 16  1  0  0  0  0
 11 10  1  0  0  0  0
 12 11  1  0  0  0  0
 12 19  1  0  0  0  0
 12 13  1  0  0  0  0
 13 14  1  0  0  0  0
 13 21  1  0  0  0  0
 14 22  1  0  0  0  0
 14  9  1  0  0  0  0
 15 10  1  0  0  0  0
 17 11  1  0  0  0  0
 18 11  1  0  0  0  0
 20 13  1  0  0  0  0
 23 14  1  0  0  0  0
 24 26  1  0  0  0  0
 26 25  2  1  0  0  0
 27 28  1  0  0  0  0
 27 26  1  0  0  0  0
 28 33  1  0  0  0  0
 29 30  1  0  0  0  0
 29 28  1  0  0  0  0
 31 30  1  0  0  0  0
 32 31  1  0  0  0  0
 32 33  1  0  0  0  0
 34 26  1  0  0  0  0
 35 34  1  0  0  0  0
 35 36  1  0  0  0  0
 37 35  1  0  0  0  0
 38 35  1  0  0  0  0
M  END
>  <minimizedAffinity>
-4.8697257

$$$$

 OpenBabel03242520313D

 38 40  0  0  0  0  0  0  0  0999 V2000
   37.3730   31.5390   37.6600 C   0  0  0  0  0  0  0  0  0  0  0  0
   37.1860   30.1600   37.9730 C   0  0  0  0  0  0  0  0  0  0  0  0
   37.0300   29.8130   39.3040 C   0  0  0  0  0  0  0  0  0  0  0  0
   37.0590   30.7820   40.2510 N   0  0  0  0  0  0  0  0  0  0  0  0
   37.2370   32.0800   39.9370 C   0  0  0  0  0  0  0  0  0  0  0  0
   37.3920   32.4490   38.6520 N   0  0  0  0  0  0  0  0  0  0  0  0
   37.4980   31.8430   36.6290 H   0  0  0  0  0  0  0  0  0  0  0  0
   37.2500   32.8040   40.7480 H   0  0  0  0  0  0  0  0  0  0  0  0
   37.1810   29.2800   36.8650 N   0  0  0  0  0  0  0  0  0  0  0  0
   36.0130   29.0670   36.0200 C   0  0  0  0  0  0  0  0  0  0  0  0
   36.3720   28.1850   34.8570 C   0  0  0  0  0  0  0  0  0  0  0  0
   37.0360   26.9740   35.2460 N   0  0  0  0  0  0  0  0  0  0  0  0
   38.1150   27.1380   36.1570 C   0  0  0  0  0  0  0  0  0  0  0  0
   38.4070   28.5570   36.5630 C   0  0  0  0  0  0  0  0  0  0  0  0
   35.7300   30.0580   35.6310 H   0  0  0  0  0  0  0  0  0  0  0  0
   35.1420   28.6600   36.5920 H   0  0  0  0  0  0  0  0  0  0  0  0
   35.4350   27.9160   34.3280 H   0  0  0  0  0  0  0  0  0  0  0  0
   36.9820   28.7860   34.1350 H   0  0  0  0  0  0  0  0  0  0  0  0
   36.4140   26.1750   35.4230 H   0  0  0  0  0  0  0  0  0  0  0  0
   39.0630   26.7430   35.7010 H   0  0  0  0  0  0  0  0  0  0  0  0
   37.9210   26.5360   37.0610 H   0  0  0  0  0  0  0  0  0  0  0  0
   39.0950   28.5340   37.4270 H   0  0  0  0  0  0  0  0  0  0  0  0
   38.8630   29.0660   35.6830 H   0  0  0  0  0  0  0  0  0  0  0  0
   36.8500   28.4610   39.5640 O   0  0  0  0  0  0  0  0  0  0  0  0
   38.7060   26.5640   39.5680 O   0  0  0  0  0  0  0  0  0  0  0  0
   38.0660   27.6280   40.4590 P   0  0  1  0  0  0  0  0  0  0  0  0
   39.1960   28.7490   40.9700 O   0  0  0  0  0  0  0  0  0  0  0  0
   40.4010   28.1540   41.2750 C   0  0  0  0  0  3  0  0  0  0  0  0
   40.4910   27.7930   42.7450 C   0  0  0  0  0  2  0  0  0  0  0  0
   41.9430   27.8910   43.2280 C   0  0  0  0  0  2  0  0  0  0  0  0
   42.3940   29.3310   43.2750 C   0  0  0  0  0  2  0  0  0  0  0  0
   41.5740   30.0840   42.2390 C   0  0  0  0  0  2  0  0  0  0  0  0
   41.4980   29.1750   41.0120 C   0  0  0  0  0  2  0  0  0  0  0  0
   37.3060   26.8630   41.7400 O   0  0  0  0  0  0  0  0  0  0  0  0
   36.6080   27.7330   42.5560 C   0  0  0  0  0  0  0  0  0  0  0  0
   37.3250   28.8410   42.9350 F   0  0  0  0  0  0  0  0  0  0  0  0
   36.0790   27.1500   43.6790 F   0  0  0  0  0  0  0  0  0  0  0  0
   35.5190   28.1680   41.8040 F   0  0  0  0  0  0  0  0  0  0  0  0
  1  2  2  0  0  0  0
  1  6  1  0  0  0  0
  2  3  1  0  0  0  0
  3 24  1  0  0  0  0
  3  4  2  0  0  0  0
  5  4  1  0  0  0  0
  5  8  1  0  0  0  0
  6  5  2  0  0  0  0
  7  1  1  0  0  0  0
  9  2  1  0  0  0  0
 10 16  1  0  0  0  0
 10  9  1  0  0  0  0
 11 12  1  0  0  0  0
 11 10  1  0  0  0  0
 12 19  1  0  0  0  0
 12 13  1  0  0  0  0
 13 14  1  0  0  0  0
 13 21  1  0  0  0  0
 14  9  1  0  0  0  0
 14 22  1  0  0  0  0
 15 10  1  0  0  0  0
 17 11  1  0  0  0  0
 18 11  1  0  0  0  0
 20 13  1  0  0  0  0
 23 14  1  0  0  0  0
 24 26  1  0  0  0  0
 26 25  2  6  0  0  0
 26 27  1  0  0  0  0
 26 34  1  0  0  0  0
 27 28  1  0  0  0  0
 28 29  1  0  0  0  0
 29 30  1  0  0  0  0
 30 31  1  0  0  0  0
 32 31  1  0  0  0  0
 33 28  1  0  0  0  0
 33 32  1  0  0  0  0
 34 35  1  0  0  0  0
 35 36  1  0  0  0  0
 35 37  1  0  0  0  0
 38 35  1  0  0  0  0
M  END
>  <minimizedAffinity>
-4.77131605

$$$$
