
 OpenBabel03242515023D

 34 36  0  0  0  0  0  0  0  0999 V2000
   37.1740   27.9000   37.6780 C   0  0  0  0  0  0  0  0  0  0  0  0
   37.6470   27.9830   36.6720 H   0  0  0  0  0  0  0  0  0  0  0  0
   37.9880   28.1640   38.4150 H   0  0  0  0  0  0  0  0  0  0  0  0
   36.0670   28.8850   37.8670 C   0  0  0  0  0  0  0  0  0  0  0  0
   35.6930   29.1520   36.8490 H   0  0  0  0  0  0  0  0  0  0  0  0
   35.2050   28.4900   38.4280 H   0  0  0  0  0  0  0  0  0  0  0  0
   35.2950   29.4750   40.7510 Cl  0  0  0  0  0  0  0  0  0  0  0  0
   36.2810   30.5140   39.7790 C   0  0  0  0  0  0  0  0  0  0  0  0
   36.5820   30.1480   38.4490 C   0  0  0  0  0  0  0  0  0  0  0  0
   37.3650   31.0250   37.7530 C   0  0  0  0  0  0  0  0  0  0  0  0
   37.8920   32.2230   38.2070 C   0  0  0  0  0  0  0  0  0  0  0  0
   37.5850   32.5640   39.5140 C   0  0  0  0  0  0  0  0  0  0  0  0
   38.2030   34.0670   40.1940 Cl  0  0  0  0  0  0  0  0  0  0  0  0
   36.7970   31.7200   40.2710 C   0  0  0  0  0  0  0  0  0  0  0  0
   37.6140   30.7660   36.7190 H   0  0  0  0  0  0  0  0  0  0  0  0
   38.5030   32.8480   37.5740 H   0  0  0  0  0  0  0  0  0  0  0  0
   36.5620   31.9970   41.2970 H   0  0  0  0  0  0  0  0  0  0  0  0
   36.6820   26.1970   38.0000 S   0  0  0  0  0  0  0  0  0  0  0  0
   36.8810   25.7370   39.7270 C   0  0  0  0  0  0  0  0  0  0  0  0
   36.9940   24.3690   40.0000 C   0  0  0  0  0  0  0  0  0  0  0  0
   37.1500   23.9650   41.3260 C   0  0  0  0  0  0  0  0  0  0  0  0
   37.1830   24.9290   42.2820 N   0  0  0  0  0  0  0  0  0  0  0  0
   37.0720   26.2390   42.0040 C   0  0  0  0  0  0  0  0  0  0  0  0
   36.9230   26.6170   40.7300 N   0  0  0  0  0  0  0  0  0  0  0  0
   36.9610   23.6550   39.1900 H   0  0  0  0  0  0  0  0  0  0  0  0
   37.2400   22.9160   41.5550 H   0  0  0  0  0  0  0  0  0  0  0  0
   37.1180   27.1880   43.0980 C   0  0  0  0  0  0  0  0  0  0  0  0
   36.0740   27.3190   43.7870 O   0  0  0  0  0  0  0  0  0  0  0  0
   38.3450   27.9970   43.4250 C   0  0  0  0  0  3  0  0  0  0  0  0
   39.5530   27.1950   42.9890 C   0  0  0  0  0  2  0  0  0  0  0  0
   40.8150   27.9880   43.0600 C   0  0  0  0  0  2  0  0  0  0  0  0
   40.7340   29.1900   42.1790 C   0  0  0  0  0  2  0  0  0  0  0  0
   39.3330   29.3160   41.6180 C   0  0  0  0  0  2  0  0  0  0  0  0
   38.3330   29.3440   42.7770 C   0  0  0  0  0  2  0  0  0  0  0  0
  1  4  1  0  0  0  0
  1 18  1  0  0  0  0
  1  3  1  0  0  0  0
  2  1  1  0  0  0  0
  4  6  1  0  0  0  0
  4  9  1  0  0  0  0
  5  4  1  0  0  0  0
  8 14  1  0  0  0  0
  8  7  1  0  0  0  0
  9  8  2  0  0  0  0
 10 11  2  0  0  0  0
 10  9  1  0  0  0  0
 11 12  1  0  0  0  0
 12 13  1  0  0  0  0
 12 14  2  0  0  0  0
 14 17  1  0  0  0  0
 15 10  1  0  0  0  0
 16 11  1  0  0  0  0
 18 19  1  0  0  0  0
 19 20  2  0  0  0  0
 19 24  1  0  0  0  0
 20 21  1  0  0  0  0
 21 26  1  0  0  0  0
 21 22  2  0  0  0  0
 23 22  1  0  0  0  0
 23 27  1  0  0  0  0
 24 23  2  0  0  0  0
 25 20  1  0  0  0  0
 27 29  1  0  0  0  0
 27 28  2  0  0  0  0
 30 31  1  0  0  0  0
 30 29  1  0  0  0  0
 32 31  1  0  0  0  0
 33 32  1  0  0  0  0
 33 34  1  0  0  0  0
 34 29  1  0  0  0  0
M  END
>  <minimizedAffinity>
-5.81554508

$$$$

 OpenBabel03242515023D

 34 36  0  0  0  0  0  0  0  0999 V2000
   36.6870   29.5030   37.3410 C   0  0  0  0  0  0  0  0  0  0  0  0
   36.2750   30.5270   37.1880 H   0  0  0  0  0  0  0  0  0  0  0  0
   36.8760   29.0980   36.3040 H   0  0  0  0  0  0  0  0  0  0  0  0
   37.9990   29.5210   38.0560 C   0  0  0  0  0  0  0  0  0  0  0  0
   37.9210   28.7870   38.8940 H   0  0  0  0  0  0  0  0  0  0  0  0
   38.8530   29.2070   37.4360 H   0  0  0  0  0  0  0  0  0  0  0  0
   40.7670   30.7400   37.7230 Cl  0  0  0  0  0  0  0  0  0  0  0  0
   39.4780   31.4880   38.6020 C   0  0  0  0  0  0  0  0  0  0  0  0
   38.2270   30.8380   38.6980 C   0  0  0  0  0  0  0  0  0  0  0  0
   37.2660   31.4980   39.4100 C   0  0  0  0  0  0  0  0  0  0  0  0
   37.3830   32.7250   40.0430 C   0  0  0  0  0  0  0  0  0  0  0  0
   38.6170   33.3460   39.9380 C   0  0  0  0  0  0  0  0  0  0  0  0
   38.8760   34.9110   40.7050 Cl  0  0  0  0  0  0  0  0  0  0  0  0
   39.6310   32.7310   39.2320 C   0  0  0  0  0  0  0  0  0  0  0  0
   36.2870   31.0160   39.5000 H   0  0  0  0  0  0  0  0  0  0  0  0
   36.5590   33.1630   40.5830 H   0  0  0  0  0  0  0  0  0  0  0  0
   40.5970   33.2270   39.1550 H   0  0  0  0  0  0  0  0  0  0  0  0
   35.4580   28.4420   38.1230 S   0  0  0  0  0  0  0  0  0  0  0  0
   36.1580   27.4220   39.4270 C   0  0  0  0  0  0  0  0  0  0  0  0
   36.5090   26.1140   39.0750 C   0  0  0  0  0  0  0  0  0  0  0  0
   37.0570   25.2840   40.0550 C   0  0  0  0  0  0  0  0  0  0  0  0
   37.2170   25.7980   41.3030 N   0  0  0  0  0  0  0  0  0  0  0  0
   36.8740   27.0570   41.6250 C   0  0  0  0  0  0  0  0  0  0  0  0
   36.3500   27.8450   40.6790 N   0  0  0  0  0  0  0  0  0  0  0  0
   36.3550   25.7690   38.0630 H   0  0  0  0  0  0  0  0  0  0  0  0
   37.3340   24.2750   39.8020 H   0  0  0  0  0  0  0  0  0  0  0  0
   37.0860   27.5080   42.9850 C   0  0  0  0  0  0  0  0  0  0  0  0
   36.1510   27.3150   43.8040 O   0  0  0  0  0  0  0  0  0  0  0  0
   38.3560   28.1820   43.4330 C   0  0  0  0  0  3  0  0  0  0  0  0
   39.5150   27.3150   42.9900 C   0  0  0  0  0  2  0  0  0  0  0  0
   40.8330   27.9890   43.1840 C   0  0  0  0  0  2  0  0  0  0  0  0
   40.8970   29.2580   42.4010 C   0  0  0  0  0  2  0  0  0  0  0  0
   39.5430   29.5460   41.7870 C   0  0  0  0  0  2  0  0  0  0  0  0
   38.4880   29.5710   42.8970 C   0  0  0  0  0  2  0  0  0  0  0  0
  1  4  1  0  0  0  0
  1 18  1  0  0  0  0
  2  1  1  0  0  0  0
  3  1  1  0  0  0  0
  4  9  1  0  0  0  0
  4  5  1  0  0  0  0
  6  4  1  0  0  0  0
  7  8  1  0  0  0  0
  8  9  2  0  0  0  0
  8 14  1  0  0  0  0
  9 10  1  0  0  0  0
 10 15  1  0  0  0  0
 10 11  2  0  0  0  0
 11 16  1  0  0  0  0
 12 11  1  0  0  0  0
 12 13  1  0  0  0  0
 14 12  2  0  0  0  0
 17 14  1  0  0  0  0
 18 19  1  0  0  0  0
 19 24  1  0  0  0  0
 20 19  2  0  0  0  0
 20 21  1  0  0  0  0
 21 22  2  0  0  0  0
 22 23  1  0  0  0  0
 23 27  1  0  0  0  0
 24 23  2  0  0  0  0
 25 20  1  0  0  0  0
 26 21  1  0  0  0  0
 27 29  1  0  0  0  0
 27 28  2  0  0  0  0
 30 31  1  0  0  0  0
 30 29  1  0  0  0  0
 32 31  1  0  0  0  0
 33 32  1  0  0  0  0
 33 34  1  0  0  0  0
 34 29  1  0  0  0  0
M  END
>  <minimizedAffinity>
-5.58538818

$$$$

 OpenBabel03242515023D

 34 36  0  0  0  0  0  0  0  0999 V2000
   38.4520   33.2670   40.6010 C   0  0  0  0  0  0  0  0  0  0  0  0
   38.5170   34.3070   40.9970 H   0  0  0  0  0  0  0  0  0  0  0  0
   38.1980   32.6220   41.4930 H   0  0  0  0  0  0  0  0  0  0  0  0
   37.3470   33.1080   39.6080 C   0  0  0  0  0  0  0  0  0  0  0  0
   36.4520   33.6260   40.0320 H   0  0  0  0  0  0  0  0  0  0  0  0
   37.5510   33.5740   38.6320 H   0  0  0  0  0  0  0  0  0  0  0  0
   37.7250   31.8350   36.8700 Cl  0  0  0  0  0  0  0  0  0  0  0  0
   37.0970   30.9990   38.2500 C   0  0  0  0  0  0  0  0  0  0  0  0
   36.9610   31.6820   39.4780 C   0  0  0  0  0  0  0  0  0  0  0  0
   36.4570   30.9490   40.5150 C   0  0  0  0  0  0  0  0  0  0  0  0
   36.0690   29.6180   40.4920 C   0  0  0  0  0  0  0  0  0  0  0  0
   36.2100   28.9660   39.2780 C   0  0  0  0  0  0  0  0  0  0  0  0
   35.7480   27.2720   39.1370 Cl  0  0  0  0  0  0  0  0  0  0  0  0
   36.7140   29.6530   38.1910 C   0  0  0  0  0  0  0  0  0  0  0  0
   36.3400   31.4530   41.4790 H   0  0  0  0  0  0  0  0  0  0  0  0
   35.6810   29.1280   41.3700 H   0  0  0  0  0  0  0  0  0  0  0  0
   36.8210   29.1310   37.2420 H   0  0  0  0  0  0  0  0  0  0  0  0
   40.0570   32.7310   39.9820 S   0  0  0  0  0  0  0  0  0  0  0  0
   40.3190   30.9650   40.1870 C   0  0  0  0  0  0  0  0  0  0  0  0
   40.4450   30.2120   39.0150 C   0  0  0  0  0  0  0  0  0  0  0  0
   40.6500   28.8360   39.1250 C   0  0  0  0  0  0  0  0  0  0  0  0
   40.7160   28.3030   40.3730 N   0  0  0  0  0  0  0  0  0  0  0  0
   40.5940   29.0400   41.4900 C   0  0  0  0  0  0  0  0  0  0  0  0
   40.3970   30.3580   41.3750 N   0  0  0  0  0  0  0  0  0  0  0  0
   40.3830   30.7000   38.0530 H   0  0  0  0  0  0  0  0  0  0  0  0
   40.7500   28.2400   38.2330 H   0  0  0  0  0  0  0  0  0  0  0  0
   40.6790   28.3750   42.7740 C   0  0  0  0  0  0  0  0  0  0  0  0
   41.8000   28.3730   43.3450 O   0  0  0  0  0  0  0  0  0  0  0  0
   39.4980   27.7060   43.4260 C   0  0  0  0  0  3  0  0  0  0  0  0
   38.3170   28.6450   43.3090 C   0  0  0  0  0  2  0  0  0  0  0  0
   37.0360   28.0000   43.7240 C   0  0  0  0  0  2  0  0  0  0  0  0
   36.7480   26.8060   42.8750 C   0  0  0  0  0  2  0  0  0  0  0  0
   37.9280   26.5290   41.9670 C   0  0  0  0  0  2  0  0  0  0  0  0
   39.1880   26.3740   42.8230 C   0  0  0  0  0  2  0  0  0  0  0  0
  1  2  1  0  0  0  0
  1  3  1  0  0  0  0
  4  5  1  0  0  0  0
  4  1  1  0  0  0  0
  6  4  1  0  0  0  0
  7  8  1  0  0  0  0
  8  9  1  0  0  0  0
  9  4  1  0  0  0  0
  9 10  2  0  0  0  0
 10 15  1  0  0  0  0
 11 10  1  0  0  0  0
 11 16  1  0  0  0  0
 12 11  2  0  0  0  0
 13 12  1  0  0  0  0
 14  8  2  0  0  0  0
 14 12  1  0  0  0  0
 17 14  1  0  0  0  0
 18 19  1  0  0  0  0
 18  1  1  0  0  0  0
 19 24  1  0  0  0  0
 20 21  1  0  0  0  0
 20 19  2  0  0  0  0
 21 22  2  0  0  0  0
 22 23  1  0  0  0  0
 23 27  1  0  0  0  0
 24 23  2  0  0  0  0
 25 20  1  0  0  0  0
 26 21  1  0  0  0  0
 27 28  2  0  0  0  0
 27 29  1  0  0  0  0
 30 29  1  0  0  0  0
 30 31  1  0  0  0  0
 32 31  1  0  0  0  0
 33 34  1  0  0  0  0
 33 32  1  0  0  0  0
 34 29  1  0  0  0  0
M  END
>  <minimizedAffinity>
-5.58252573

$$$$

 OpenBabel03242515023D

 34 36  0  0  0  0  0  0  0  0999 V2000
   34.1940   29.1770   36.5930 C   0  0  0  0  0  0  0  0  0  0  0  0
   34.2620   28.8150   35.5410 H   0  0  0  0  0  0  0  0  0  0  0  0
   34.4960   30.2650   36.5550 H   0  0  0  0  0  0  0  0  0  0  0  0
   32.7980   29.1210   37.1220 C   0  0  0  0  0  0  0  0  0  0  0  0
   32.4350   28.0760   36.9690 H   0  0  0  0  0  0  0  0  0  0  0  0
   32.7190   29.3310   38.2000 H   0  0  0  0  0  0  0  0  0  0  0  0
   30.3960   30.3090   38.5630 Cl  0  0  0  0  0  0  0  0  0  0  0  0
   30.7550   30.5800   36.8920 C   0  0  0  0  0  0  0  0  0  0  0  0
   31.8970   29.9810   36.3170 C   0  0  0  0  0  0  0  0  0  0  0  0
   32.1060   30.2460   34.9930 C   0  0  0  0  0  0  0  0  0  0  0  0
   31.3250   31.0320   34.1600 C   0  0  0  0  0  0  0  0  0  0  0  0
   30.2090   31.6090   34.7430 C   0  0  0  0  0  0  0  0  0  0  0  0
   29.1470   32.6280   33.7750 Cl  0  0  0  0  0  0  0  0  0  0  0  0
   29.9430   31.3800   36.0780 C   0  0  0  0  0  0  0  0  0  0  0  0
   32.9850   29.7940   34.5210 H   0  0  0  0  0  0  0  0  0  0  0  0
   31.5780   31.1790   33.1220 H   0  0  0  0  0  0  0  0  0  0  0  0
   29.0630   31.8390   36.5260 H   0  0  0  0  0  0  0  0  0  0  0  0
   35.3900   28.3170   37.6300 S   0  0  0  0  0  0  0  0  0  0  0  0
   35.9100   29.3000   39.0430 C   0  0  0  0  0  0  0  0  0  0  0  0
   35.7060   28.7350   40.3060 C   0  0  0  0  0  0  0  0  0  0  0  0
   36.0940   29.4620   41.4330 C   0  0  0  0  0  0  0  0  0  0  0  0
   36.6500   30.6850   41.2360 N   0  0  0  0  0  0  0  0  0  0  0  0
   36.8400   31.2150   40.0160 C   0  0  0  0  0  0  0  0  0  0  0  0
   36.4650   30.5110   38.9420 N   0  0  0  0  0  0  0  0  0  0  0  0
   35.2580   27.7550   40.3910 H   0  0  0  0  0  0  0  0  0  0  0  0
   35.9450   29.0410   42.4130 H   0  0  0  0  0  0  0  0  0  0  0  0
   37.4420   32.5280   39.9140 C   0  0  0  0  0  0  0  0  0  0  0  0
   36.9360   33.3280   39.0850 O   0  0  0  0  0  0  0  0  0  0  0  0
   38.6210   32.9530   40.7490 C   0  0  0  0  0  3  0  0  0  0  0  0
   39.7780   32.0400   40.4030 C   0  0  0  0  0  2  0  0  0  0  0  0
   41.0640   32.5020   41.0050 C   0  0  0  0  0  2  0  0  0  0  0  0
   41.4110   33.8710   40.5200 C   0  0  0  0  0  2  0  0  0  0  0  0
   40.2660   34.4260   39.6990 C   0  0  0  0  0  2  0  0  0  0  0  0
   38.9860   34.3870   40.5390 C   0  0  0  0  0  2  0  0  0  0  0  0
  1  4  1  0  0  0  0
  1 18  1  0  0  0  0
  2  1  1  0  0  0  0
  3  1  1  0  0  0  0
  4  6  1  0  0  0  0
  5  4  1  0  0  0  0
  8  7  1  0  0  0  0
  9  8  1  0  0  0  0
  9  4  1  0  0  0  0
 10  9  2  0  0  0  0
 11 12  2  0  0  0  0
 11 10  1  0  0  0  0
 12 14  1  0  0  0  0
 13 12  1  0  0  0  0
 14 17  1  0  0  0  0
 14  8  2  0  0  0  0
 15 10  1  0  0  0  0
 16 11  1  0  0  0  0
 18 19  1  0  0  0  0
 19 20  1  0  0  0  0
 20 25  1  0  0  0  0
 20 21  2  0  0  0  0
 21 26  1  0  0  0  0
 22 21  1  0  0  0  0
 23 22  2  0  0  0  0
 24 19  2  0  0  0  0
 24 23  1  0  0  0  0
 27 23  1  0  0  0  0
 27 29  1  0  0  0  0
 28 27  2  0  0  0  0
 30 29  1  0  0  0  0
 30 31  1  0  0  0  0
 32 31  1  0  0  0  0
 33 32  1  0  0  0  0
 33 34  1  0  0  0  0
 34 29  1  0  0  0  0
M  END
>  <minimizedAffinity>
-5.49640036

$$$$

 OpenBabel03242515023D

 34 36  0  0  0  0  0  0  0  0999 V2000
   40.7540   26.5780   43.3690 C   0  0  0  0  0  0  0  0  0  0  0  0
   41.3670   27.4160   42.9640 H   0  0  0  0  0  0  0  0  0  0  0  0
   41.3250   26.1940   44.2650 H   0  0  0  0  0  0  0  0  0  0  0  0
   39.4180   27.0370   43.8570 C   0  0  0  0  0  0  0  0  0  0  0  0
   38.6890   26.2260   43.6160 H   0  0  0  0  0  0  0  0  0  0  0  0
   39.3690   27.1970   44.9450 H   0  0  0  0  0  0  0  0  0  0  0  0
   36.4140   27.3510   43.4850 Cl  0  0  0  0  0  0  0  0  0  0  0  0
   37.5890   28.4620   42.8670 C   0  0  0  0  0  0  0  0  0  0  0  0
   38.9630   28.2250   43.0950 C   0  0  0  0  0  0  0  0  0  0  0  0
   39.8210   29.1500   42.5720 C   0  0  0  0  0  0  0  0  0  0  0  0
   39.4940   30.2860   41.8500 C   0  0  0  0  0  0  0  0  0  0  0  0
   38.1420   30.5010   41.6360 C   0  0  0  0  0  0  0  0  0  0  0  0
   37.6130   31.9160   40.7300 Cl  0  0  0  0  0  0  0  0  0  0  0  0
   37.2230   29.6020   42.1390 C   0  0  0  0  0  0  0  0  0  0  0  0
   40.8930   28.9910   42.7330 H   0  0  0  0  0  0  0  0  0  0  0  0
   40.2520   30.9580   41.4780 H   0  0  0  0  0  0  0  0  0  0  0  0
   36.1630   29.7800   41.9670 H   0  0  0  0  0  0  0  0  0  0  0  0
   40.6570   25.2350   42.1710 S   0  0  0  0  0  0  0  0  0  0  0  0
   39.0380   25.1170   41.3980 C   0  0  0  0  0  0  0  0  0  0  0  0
   38.2210   24.0630   41.8200 C   0  0  0  0  0  0  0  0  0  0  0  0
   36.9550   23.9310   41.2480 C   0  0  0  0  0  0  0  0  0  0  0  0
   36.5870   24.8390   40.3070 N   0  0  0  0  0  0  0  0  0  0  0  0
   37.3840   25.8460   39.9120 C   0  0  0  0  0  0  0  0  0  0  0  0
   38.5960   25.9650   40.4660 N   0  0  0  0  0  0  0  0  0  0  0  0
   38.5760   23.3760   42.5750 H   0  0  0  0  0  0  0  0  0  0  0  0
   36.3110   23.1260   41.5620 H   0  0  0  0  0  0  0  0  0  0  0  0
   36.8980   26.7620   38.9000 C   0  0  0  0  0  0  0  0  0  0  0  0
   36.2520   26.2650   37.9410 O   0  0  0  0  0  0  0  0  0  0  0  0
   37.1350   28.2470   38.9620 C   0  0  0  0  0  3  0  0  0  0  0  0
   38.3260   28.5570   38.0800 C   0  0  0  0  0  2  0  0  0  0  0  0
   38.5210   30.0250   37.8870 C   0  0  0  0  0  2  0  0  0  0  0  0
   37.3190   30.6370   37.2480 C   0  0  0  0  0  2  0  0  0  0  0  0
   36.2140   29.6060   37.1490 C   0  0  0  0  0  2  0  0  0  0  0  0
   35.9370   29.0370   38.5440 C   0  0  0  0  0  2  0  0  0  0  0  0
  1  4  1  0  0  0  0
  1  3  1  0  0  0  0
  2  1  1  0  0  0  0
  4  6  1  0  0  0  0
  5  4  1  0  0  0  0
  8  9  1  0  0  0  0
  8  7  1  0  0  0  0
  9  4  1  0  0  0  0
 10 15  1  0  0  0  0
 10  9  2  0  0  0  0
 11 10  1  0  0  0  0
 12 11  2  0  0  0  0
 12 14  1  0  0  0  0
 13 12  1  0  0  0  0
 14  8  2  0  0  0  0
 16 11  1  0  0  0  0
 17 14  1  0  0  0  0
 18  1  1  0  0  0  0
 19 20  1  0  0  0  0
 19 18  1  0  0  0  0
 20 25  1  0  0  0  0
 21 26  1  0  0  0  0
 21 20  2  0  0  0  0
 22 21  1  0  0  0  0
 23 22  2  0  0  0  0
 23 24  1  0  0  0  0
 24 19  2  0  0  0  0
 27 29  1  0  0  0  0
 27 23  1  0  0  0  0
 28 27  2  0  0  0  0
 30 29  1  0  0  0  0
 31 30  1  0  0  0  0
 32 31  1  0  0  0  0
 33 32  1  0  0  0  0
 33 34  1  0  0  0  0
 34 29  1  0  0  0  0
M  END
>  <minimizedAffinity>
-5.29125738

$$$$

 OpenBabel03242515023D

 34 36  0  0  0  0  0  0  0  0999 V2000
   36.5480   25.0240   39.5830 C   0  0  0  0  0  0  0  0  0  0  0  0
   35.4900   25.1370   39.9180 H   0  0  0  0  0  0  0  0  0  0  0  0
   36.6130   23.9860   39.1430 H   0  0  0  0  0  0  0  0  0  0  0  0
   36.9060   25.9890   38.5010 C   0  0  0  0  0  0  0  0  0  0  0  0
   37.6860   26.6700   38.9190 H   0  0  0  0  0  0  0  0  0  0  0  0
   37.3410   25.5180   37.6060 H   0  0  0  0  0  0  0  0  0  0  0  0
   35.0110   24.9790   36.3440 Cl  0  0  0  0  0  0  0  0  0  0  0  0
   34.8130   26.4800   37.1830 C   0  0  0  0  0  0  0  0  0  0  0  0
   35.7510   26.8580   38.1700 C   0  0  0  0  0  0  0  0  0  0  0  0
   35.5200   28.0570   38.7820 C   0  0  0  0  0  0  0  0  0  0  0  0
   34.4740   28.9350   38.5440 C   0  0  0  0  0  0  0  0  0  0  0  0
   33.5660   28.5460   37.5720 C   0  0  0  0  0  0  0  0  0  0  0  0
   32.1980   29.5880   37.1880 Cl  0  0  0  0  0  0  0  0  0  0  0  0
   33.7440   27.3450   36.9160 C   0  0  0  0  0  0  0  0  0  0  0  0
   36.2310   28.3750   39.5520 H   0  0  0  0  0  0  0  0  0  0  0  0
   34.3810   29.8630   39.0850 H   0  0  0  0  0  0  0  0  0  0  0  0
   33.0240   27.0480   36.1550 H   0  0  0  0  0  0  0  0  0  0  0  0
   37.6620   25.0860   40.9980 S   0  0  0  0  0  0  0  0  0  0  0  0
   37.6900   26.7020   41.7830 C   0  0  0  0  0  0  0  0  0  0  0  0
   37.1100   26.7900   43.0530 C   0  0  0  0  0  0  0  0  0  0  0  0
   37.1080   28.0250   43.7020 C   0  0  0  0  0  0  0  0  0  0  0  0
   37.6730   29.0790   43.0580 N   0  0  0  0  0  0  0  0  0  0  0  0
   38.2270   28.9800   41.8380 C   0  0  0  0  0  0  0  0  0  0  0  0
   38.2240   27.7910   41.2230 N   0  0  0  0  0  0  0  0  0  0  0  0
   36.6780   25.9100   43.5090 H   0  0  0  0  0  0  0  0  0  0  0  0
   36.6660   28.1110   44.6810 H   0  0  0  0  0  0  0  0  0  0  0  0
   38.8030   30.1650   41.2370 C   0  0  0  0  0  0  0  0  0  0  0  0
   39.9670   30.0620   40.7700 O   0  0  0  0  0  0  0  0  0  0  0  0
   38.0720   31.4790   41.1580 C   0  0  0  0  0  3  0  0  0  0  0  0
   39.0250   32.4990   40.5730 C   0  0  0  0  0  2  0  0  0  0  0  0
   38.3440   33.7860   40.2430 C   0  0  0  0  0  2  0  0  0  0  0  0
   37.2560   33.5650   39.2450 C   0  0  0  0  0  2  0  0  0  0  0  0
   37.0760   32.0800   39.0080 C   0  0  0  0  0  2  0  0  0  0  0  0
   36.8180   31.3890   40.3490 C   0  0  0  0  0  2  0  0  0  0  0  0
  1  2  1  0  0  0  0
  1 18  1  0  0  0  0
  3  1  1  0  0  0  0
  4  5  1  0  0  0  0
  4  1  1  0  0  0  0
  6  4  1  0  0  0  0
  7  8  1  0  0  0  0
  8  9  1  0  0  0  0
  9  4  1  0  0  0  0
  9 10  2  0  0  0  0
 10 15  1  0  0  0  0
 11 10  1  0  0  0  0
 11 16  1  0  0  0  0
 12 11  2  0  0  0  0
 13 12  1  0  0  0  0
 14  8  2  0  0  0  0
 14 12  1  0  0  0  0
 17 14  1  0  0  0  0
 18 19  1  0  0  0  0
 19 20  1  0  0  0  0
 20 25  1  0  0  0  0
 20 21  2  0  0  0  0
 21 26  1  0  0  0  0
 22 21  1  0  0  0  0
 23 22  2  0  0  0  0
 24 19  2  0  0  0  0
 24 23  1  0  0  0  0
 27 23  1  0  0  0  0
 28 27  2  0  0  0  0
 29 27  1  0  0  0  0
 30 29  1  0  0  0  0
 31 30  1  0  0  0  0
 32 31  1  0  0  0  0
 33 32  1  0  0  0  0
 33 34  1  0  0  0  0
 34 29  1  0  0  0  0
M  END
>  <minimizedAffinity>
-5.28263664

$$$$

 OpenBabel03242515023D

 34 36  0  0  0  0  0  0  0  0999 V2000
   36.5840   29.8000   41.7380 C   0  0  0  0  0  0  0  0  0  0  0  0
   35.7500   29.8410   42.4770 H   0  0  0  0  0  0  0  0  0  0  0  0
   36.3660   28.9020   41.0890 H   0  0  0  0  0  0  0  0  0  0  0  0
   36.6110   30.9980   40.8460 C   0  0  0  0  0  0  0  0  0  0  0  0
   35.6430   31.5340   40.9950 H   0  0  0  0  0  0  0  0  0  0  0  0
   37.4120   31.7160   41.0840 H   0  0  0  0  0  0  0  0  0  0  0  0
   38.4240   32.5910   38.9920 Cl  0  0  0  0  0  0  0  0  0  0  0  0
   37.4370   31.2650   38.4790 C   0  0  0  0  0  0  0  0  0  0  0  0
   36.6290   30.5900   39.4210 C   0  0  0  0  0  0  0  0  0  0  0  0
   35.8820   29.5560   38.9320 C   0  0  0  0  0  0  0  0  0  0  0  0
   35.8310   29.1020   37.6240 C   0  0  0  0  0  0  0  0  0  0  0  0
   36.6290   29.7780   36.7150 C   0  0  0  0  0  0  0  0  0  0  0  0
   36.6420   29.2830   35.0250 Cl  0  0  0  0  0  0  0  0  0  0  0  0
   37.4090   30.8320   37.1470 C   0  0  0  0  0  0  0  0  0  0  0  0
   35.2460   29.0150   39.6400 H   0  0  0  0  0  0  0  0  0  0  0  0
   35.2040   28.2720   37.3370 H   0  0  0  0  0  0  0  0  0  0  0  0
   38.0330   31.3560   36.4260 H   0  0  0  0  0  0  0  0  0  0  0  0
   38.1500   29.4950   42.5780 S   0  0  0  0  0  0  0  0  0  0  0  0
   38.5790   27.7490   42.6210 C   0  0  0  0  0  0  0  0  0  0  0  0
   39.5650   27.3720   43.5390 C   0  0  0  0  0  0  0  0  0  0  0  0
   39.9310   26.0270   43.6090 C   0  0  0  0  0  0  0  0  0  0  0  0
   39.3060   25.1560   42.7740 N   0  0  0  0  0  0  0  0  0  0  0  0
   38.3610   25.5350   41.8970 C   0  0  0  0  0  0  0  0  0  0  0  0
   38.0160   26.8260   41.8370 N   0  0  0  0  0  0  0  0  0  0  0  0
   40.0220   28.1160   44.1750 H   0  0  0  0  0  0  0  0  0  0  0  0
   40.6870   25.7180   44.3100 H   0  0  0  0  0  0  0  0  0  0  0  0
   37.7550   24.5280   41.0500 C   0  0  0  0  0  0  0  0  0  0  0  0
   38.3330   23.4120   40.9840 O   0  0  0  0  0  0  0  0  0  0  0  0
   36.4900   24.7700   40.2710 C   0  0  0  0  0  3  0  0  0  0  0  0
   36.8850   25.3150   38.9150 C   0  0  0  0  0  2  0  0  0  0  0  0
   35.7280   25.3870   37.9750 C   0  0  0  0  0  2  0  0  0  0  0  0
   35.1390   24.0320   37.7590 C   0  0  0  0  0  2  0  0  0  0  0  0
   35.7960   23.0370   38.6920 C   0  0  0  0  0  2  0  0  0  0  0  0
   35.6560   23.5370   40.1320 C   0  0  0  0  0  2  0  0  0  0  0  0
  1  2  1  0  0  0  0
  1 18  1  0  0  0  0
  3  1  1  0  0  0  0
  4  5  1  0  0  0  0
  4  6  1  0  0  0  0
  4  1  1  0  0  0  0
  8  7  1  0  0  0  0
  8  9  1  0  0  0  0
  9  4  1  0  0  0  0
 10  9  2  0  0  0  0
 10 15  1  0  0  0  0
 11 10  1  0  0  0  0
 12 14  1  0  0  0  0
 12 11  2  0  0  0  0
 13 12  1  0  0  0  0
 14  8  2  0  0  0  0
 16 11  1  0  0  0  0
 17 14  1  0  0  0  0
 18 19  1  0  0  0  0
 19 20  1  0  0  0  0
 20 21  2  0  0  0  0
 20 25  1  0  0  0  0
 21 26  1  0  0  0  0
 22 21  1  0  0  0  0
 23 22  2  0  0  0  0
 24 23  1  0  0  0  0
 24 19  2  0  0  0  0
 27 23  1  0  0  0  0
 28 27  2  0  0  0  0
 29 27  1  0  0  0  0
 30 29  1  0  0  0  0
 31 30  1  0  0  0  0
 32 31  1  0  0  0  0
 32 33  1  0  0  0  0
 33 34  1  0  0  0  0
 34 29  1  0  0  0  0
M  END
>  <minimizedAffinity>
-5.27548885

$$$$

 OpenBabel03242515023D

 34 36  0  0  0  0  0  0  0  0999 V2000
   40.5500   29.3100   41.6060 C   0  0  0  0  0  0  0  0  0  0  0  0
   41.5930   28.9390   41.4770 H   0  0  0  0  0  0  0  0  0  0  0  0
   40.0020   28.9930   40.6710 H   0  0  0  0  0  0  0  0  0  0  0  0
   39.8600   28.6680   42.7650 C   0  0  0  0  0  0  0  0  0  0  0  0
   40.6570   28.2440   43.4230 H   0  0  0  0  0  0  0  0  0  0  0  0
   39.2760   29.3680   43.3840 H   0  0  0  0  0  0  0  0  0  0  0  0
   37.2450   28.1750   44.2420 Cl  0  0  0  0  0  0  0  0  0  0  0  0
   37.8220   27.1940   42.9380 C   0  0  0  0  0  0  0  0  0  0  0  0
   39.0510   27.5080   42.3180 C   0  0  0  0  0  0  0  0  0  0  0  0
   39.4320   26.6830   41.2980 C   0  0  0  0  0  0  0  0  0  0  0  0
   38.7490   25.5800   40.8100 C   0  0  0  0  0  0  0  0  0  0  0  0
   37.5460   25.2880   41.4320 C   0  0  0  0  0  0  0  0  0  0  0  0
   36.5950   23.9080   40.8910 Cl  0  0  0  0  0  0  0  0  0  0  0  0
   37.1050   26.0850   42.4690 C   0  0  0  0  0  0  0  0  0  0  0  0
   40.3820   26.9030   40.7990 H   0  0  0  0  0  0  0  0  0  0  0  0
   39.1380   24.9900   39.9950 H   0  0  0  0  0  0  0  0  0  0  0  0
   36.1590   25.8470   42.9510 H   0  0  0  0  0  0  0  0  0  0  0  0
   40.5270   31.1110   41.6650 S   0  0  0  0  0  0  0  0  0  0  0  0
   39.2670   31.8190   40.5960 C   0  0  0  0  0  0  0  0  0  0  0  0
   38.8070   33.0960   40.9340 C   0  0  0  0  0  0  0  0  0  0  0  0
   37.8290   33.6870   40.1330 C   0  0  0  0  0  0  0  0  0  0  0  0
   37.3770   32.9820   39.0630 N   0  0  0  0  0  0  0  0  0  0  0  0
   37.8280   31.7560   38.7510 C   0  0  0  0  0  0  0  0  0  0  0  0
   38.7660   31.1980   39.5250 N   0  0  0  0  0  0  0  0  0  0  0  0
   39.2120   33.6020   41.7990 H   0  0  0  0  0  0  0  0  0  0  0  0
   37.4640   34.6700   40.3780 H   0  0  0  0  0  0  0  0  0  0  0  0
   37.2800   31.0880   37.5890 C   0  0  0  0  0  0  0  0  0  0  0  0
   37.6270   31.5250   36.4610 O   0  0  0  0  0  0  0  0  0  0  0  0
   36.3340   29.9210   37.6880 C   0  0  0  0  0  3  0  0  0  0  0  0
   37.0940   28.6790   37.2710 C   0  0  0  0  0  2  0  0  0  0  0  0
   36.3260   27.4280   37.5390 C   0  0  0  0  0  2  0  0  0  0  0  0
   36.0190   27.2990   38.9950 C   0  0  0  0  0  2  0  0  0  0  0  0
   36.4410   28.5610   39.7170 C   0  0  0  0  0  2  0  0  0  0  0  0
   35.7590   29.7640   39.0590 C   0  0  0  0  0  2  0  0  0  0  0  0
  1 18  1  0  0  0  0
  1  4  1  0  0  0  0
  2  1  1  0  0  0  0
  3  1  1  0  0  0  0
  4  6  1  0  0  0  0
  4  5  1  0  0  0  0
  8  7  1  0  0  0  0
  9  4  1  0  0  0  0
  9  8  2  0  0  0  0
 10  9  1  0  0  0  0
 11 10  2  0  0  0  0
 11 12  1  0  0  0  0
 12 14  2  0  0  0  0
 13 12  1  0  0  0  0
 14  8  1  0  0  0  0
 14 17  1  0  0  0  0
 15 10  1  0  0  0  0
 16 11  1  0  0  0  0
 19 20  1  0  0  0  0
 19 18  1  0  0  0  0
 20 25  1  0  0  0  0
 21 26  1  0  0  0  0
 21 20  2  0  0  0  0
 22 21  1  0  0  0  0
 23 22  2  0  0  0  0
 23 24  1  0  0  0  0
 24 19  2  0  0  0  0
 27 29  1  0  0  0  0
 27 23  1  0  0  0  0
 28 27  2  0  0  0  0
 29 34  1  0  0  0  0
 30 31  1  0  0  0  0
 30 29  1  0  0  0  0
 31 32  1  0  0  0  0
 32 33  1  0  0  0  0
 34 33  1  0  0  0  0
M  END
>  <minimizedAffinity>
-5.25167704

$$$$

 OpenBabel03242515023D

 34 36  0  0  0  0  0  0  0  0999 V2000
   41.6740   29.7610   40.8570 C   0  0  0  0  0  0  0  0  0  0  0  0
   42.6990   29.4040   40.6000 H   0  0  0  0  0  0  0  0  0  0  0  0
   40.9730   28.9690   40.4630 H   0  0  0  0  0  0  0  0  0  0  0  0
   41.4590   29.8510   42.3330 C   0  0  0  0  0  0  0  0  0  0  0  0
   42.2640   29.2440   42.8150 H   0  0  0  0  0  0  0  0  0  0  0  0
   41.5450   30.8710   42.7370 H   0  0  0  0  0  0  0  0  0  0  0  0
   41.6110   26.9280   43.1680 Cl  0  0  0  0  0  0  0  0  0  0  0  0
   40.1450   27.8480   43.1200 C   0  0  0  0  0  0  0  0  0  0  0  0
   40.1830   29.2020   42.7170 C   0  0  0  0  0  0  0  0  0  0  0  0
   38.9820   29.8530   42.7070 C   0  0  0  0  0  0  0  0  0  0  0  0
   37.7420   29.3360   43.0470 C   0  0  0  0  0  0  0  0  0  0  0  0
   37.7270   28.0070   43.4390 C   0  0  0  0  0  0  0  0  0  0  0  0
   36.2030   27.2470   43.8930 Cl  0  0  0  0  0  0  0  0  0  0  0  0
   38.9070   27.2930   43.4700 C   0  0  0  0  0  0  0  0  0  0  0  0
   38.9820   30.9040   42.3990 H   0  0  0  0  0  0  0  0  0  0  0  0
   36.8480   29.9370   43.0050 H   0  0  0  0  0  0  0  0  0  0  0  0
   38.8850   26.2490   43.7790 H   0  0  0  0  0  0  0  0  0  0  0  0
   41.3080   31.2940   39.9840 S   0  0  0  0  0  0  0  0  0  0  0  0
   39.5530   31.4920   39.6460 C   0  0  0  0  0  0  0  0  0  0  0  0
   38.9270   32.6010   40.2250 C   0  0  0  0  0  0  0  0  0  0  0  0
   37.5650   32.7950   39.9900 C   0  0  0  0  0  0  0  0  0  0  0  0
   36.9220   31.8900   39.2070 N   0  0  0  0  0  0  0  0  0  0  0  0
   37.5380   30.8300   38.6580 C   0  0  0  0  0  0  0  0  0  0  0  0
   38.8430   30.6510   38.8890 N   0  0  0  0  0  0  0  0  0  0  0  0
   39.4990   33.2830   40.8370 H   0  0  0  0  0  0  0  0  0  0  0  0
   37.0660   33.6440   40.4270 H   0  0  0  0  0  0  0  0  0  0  0  0
   36.7610   29.9220   37.8390 C   0  0  0  0  0  0  0  0  0  0  0  0
   36.7240   30.1560   36.6030 O   0  0  0  0  0  0  0  0  0  0  0  0
   36.0180   28.7420   38.4060 C   0  0  0  0  0  3  0  0  0  0  0  0
   36.3550   27.5370   37.5540 C   0  0  0  0  0  2  0  0  0  0  0  0
   35.8520   26.2630   38.1490 C   0  0  0  0  0  2  0  0  0  0  0  0
   36.4510   26.0400   39.4990 C   0  0  0  0  0  2  0  0  0  0  0  0
   37.2520   27.2580   39.9080 C   0  0  0  0  0  2  0  0  0  0  0  0
   36.3490   28.4930   39.8430 C   0  0  0  0  0  2  0  0  0  0  0  0
  1  4  1  0  0  0  0
  2  1  1  0  0  0  0
  3  1  1  0  0  0  0
  4  9  1  0  0  0  0
  4  6  1  0  0  0  0
  4  5  1  0  0  0  0
  8  7  1  0  0  0  0
  8 14  1  0  0  0  0
  9  8  2  0  0  0  0
 10  9  1  0  0  0  0
 10 11  2  0  0  0  0
 11 12  1  0  0  0  0
 12 14  2  0  0  0  0
 12 13  1  0  0  0  0
 14 17  1  0  0  0  0
 15 10  1  0  0  0  0
 16 11  1  0  0  0  0
 18  1  1  0  0  0  0
 19 18  1  0  0  0  0
 19 20  1  0  0  0  0
 20 25  1  0  0  0  0
 21 20  2  0  0  0  0
 21 26  1  0  0  0  0
 22 21  1  0  0  0  0
 23 24  1  0  0  0  0
 23 22  2  0  0  0  0
 24 19  2  0  0  0  0
 27 29  1  0  0  0  0
 27 23  1  0  0  0  0
 28 27  2  0  0  0  0
 29 34  1  0  0  0  0
 30 31  1  0  0  0  0
 30 29  1  0  0  0  0
 31 32  1  0  0  0  0
 32 33  1  0  0  0  0
 34 33  1  0  0  0  0
M  END
>  <minimizedAffinity>
-5.22533512

$$$$
