
 OpenBabel03242520463D

 19 20  0  0  0  0  0  0  0  0999 V2000
   39.4940   32.3110   38.3890 C   0  0  0  0  0  0  0  0  0  0  0  0
   38.5400   31.4960   39.0200 C   0  0  0  0  0  0  0  0  0  0  0  0
   38.3600   31.6220   40.4100 C   0  0  0  0  0  0  0  0  0  0  0  0
   39.1280   32.5310   41.0580 N   0  0  0  0  0  0  0  0  0  0  0  0
   40.0320   33.2920   40.4110 C   0  0  0  0  0  0  0  0  0  0  0  0
   40.2100   33.1800   39.1000 N   0  0  0  0  0  0  0  0  0  0  0  0
   39.6640   32.1710   36.9890 N   0  0  0  0  0  0  0  0  0  0  0  0
   37.9490   30.7800   38.4400 H   0  0  0  0  0  0  0  0  0  0  0  0
   40.6370   34.0160   40.9640 H   0  0  0  0  0  0  0  0  0  0  0  0
   40.3630   31.5050   36.5910 H   0  0  0  0  0  0  0  0  0  0  0  0
   39.2170   32.6140   36.1680 H   0  0  0  0  0  0  0  0  0  0  0  0
   37.3770   30.7730   41.0050 C   0  0  0  0  0  0  0  0  0  0  0  0
   36.1550   31.0650   41.1440 O   0  0  0  0  0  0  0  0  0  0  0  0
   37.8570   29.4510   41.4870 C   0  0  0  0  0  3  0  0  0  0  0  0
   36.6990   28.5120   41.5720 C   0  0  0  0  0  2  0  0  0  0  0  0
   36.6500   27.6740   42.8030 C   0  0  0  0  0  2  0  0  0  0  0  0
   37.9510   27.2650   43.3880 C   0  0  0  0  0  2  0  0  0  0  0  0
   39.0820   28.2190   43.1550 C   0  0  0  0  0  2  0  0  0  0  0  0
   38.5180   29.5800   42.8210 C   0  0  0  0  0  2  0  0  0  0  0  0
  1  2  2  0  0  0  0
  1  6  1  0  0  0  0
  2  3  1  0  0  0  0
  3 12  1  0  0  0  0
  3  4  2  0  0  0  0
  5  9  1  0  0  0  0
  5  4  1  0  0  0  0
  6  5  2  0  0  0  0
  7  1  1  0  0  0  0
  8  2  1  0  0  0  0
 10  7  1  0  0  0  0
 11  7  1  0  0  0  0
 12 13  2  0  0  0  0
 12 14  1  0  0  0  0
 14 15  1  0  0  0  0
 14 19  1  0  0  0  0
 15 16  1  0  0  0  0
 16 17  1  0  0  0  0
 18 17  1  0  0  0  0
 19 18  1  0  0  0  0
M  END
>  <minimizedAffinity>
-5.1045742

$$$$

 OpenBabel03242520463D

 19 20  0  0  0  0  0  0  0  0999 V2000
   37.7540   31.2460   37.1830 C   0  0  0  0  0  0  0  0  0  0  0  0
   37.6390   31.2000   38.5820 C   0  0  0  0  0  0  0  0  0  0  0  0
   36.7890   30.2360   39.1570 C   0  0  0  0  0  0  0  0  0  0  0  0
   36.1280   29.4060   38.3140 N   0  0  0  0  0  0  0  0  0  0  0  0
   36.2690   29.4880   36.9770 C   0  0  0  0  0  0  0  0  0  0  0  0
   37.0680   30.3930   36.4250 N   0  0  0  0  0  0  0  0  0  0  0  0
   38.6130   32.2230   36.6200 N   0  0  0  0  0  0  0  0  0  0  0  0
   38.2010   31.8990   39.2100 H   0  0  0  0  0  0  0  0  0  0  0  0
   35.7210   28.8020   36.3240 H   0  0  0  0  0  0  0  0  0  0  0  0
   38.2590   33.1690   36.3540 H   0  0  0  0  0  0  0  0  0  0  0  0
   39.6190   32.2350   36.3800 H   0  0  0  0  0  0  0  0  0  0  0  0
   36.7070   30.2290   40.5830 C   0  0  0  0  0  0  0  0  0  0  0  0
   36.0760   31.0750   41.2770 O   0  0  0  0  0  0  0  0  0  0  0  0
   37.4290   29.1290   41.2760 C   0  0  0  0  0  3  0  0  0  0  0  0
   36.4380   28.1180   41.7510 C   0  0  0  0  0  2  0  0  0  0  0  0
   36.6610   27.6100   43.1340 C   0  0  0  0  0  2  0  0  0  0  0  0
   38.0690   27.5050   43.5910 C   0  0  0  0  0  2  0  0  0  0  0  0
   39.0140   28.4920   42.9740 C   0  0  0  0  0  2  0  0  0  0  0  0
   38.2220   29.6570   42.4270 C   0  0  0  0  0  2  0  0  0  0  0  0
  1  2  1  0  0  0  0
  2  3  2  0  0  0  0
  2  8  1  0  0  0  0
  3 12  1  0  0  0  0
  4  3  1  0  0  0  0
  5  4  2  0  0  0  0
  6  5  1  0  0  0  0
  6  1  2  0  0  0  0
  7  1  1  0  0  0  0
  9  5  1  0  0  0  0
 10  7  1  0  0  0  0
 11  7  1  0  0  0  0
 12 14  1  0  0  0  0
 12 13  2  0  0  0  0
 14 15  1  0  0  0  0
 14 19  1  0  0  0  0
 15 16  1  0  0  0  0
 16 17  1  0  0  0  0
 18 17  1  0  0  0  0
 19 18  1  0  0  0  0
M  END
>  <minimizedAffinity>
-5.06930017

$$$$

 OpenBabel03242520463D

 19 20  0  0  0  0  0  0  0  0999 V2000
   37.4550   32.3480   39.7360 C   0  0  0  0  0  0  0  0  0  0  0  0
   36.5820   31.4150   40.3170 C   0  0  0  0  0  0  0  0  0  0  0  0
   36.8340   30.0440   40.1230 C   0  0  0  0  0  0  0  0  0  0  0  0
   37.9160   29.7090   39.3780 N   0  0  0  0  0  0  0  0  0  0  0  0
   38.7260   30.6400   38.8390 C   0  0  0  0  0  0  0  0  0  0  0  0
   38.4970   31.9350   39.0170 N   0  0  0  0  0  0  0  0  0  0  0  0
   37.1870   33.7250   39.9410 N   0  0  0  0  0  0  0  0  0  0  0  0
   35.7240   31.7500   40.9100 H   0  0  0  0  0  0  0  0  0  0  0  0
   39.5910   30.3360   38.2420 H   0  0  0  0  0  0  0  0  0  0  0  0
   36.5940   34.2680   39.2740 H   0  0  0  0  0  0  0  0  0  0  0  0
   37.4630   34.4050   40.6700 H   0  0  0  0  0  0  0  0  0  0  0  0
   35.9180   29.1350   40.7340 C   0  0  0  0  0  0  0  0  0  0  0  0
   34.7120   28.9790   40.3890 O   0  0  0  0  0  0  0  0  0  0  0  0
   36.4530   28.3220   41.8590 C   0  0  0  0  0  3  0  0  0  0  0  0
   37.4240   29.1460   42.6380 C   0  0  0  0  0  2  0  0  0  0  0  0
   38.6820   28.4470   43.0270 C   0  0  0  0  0  2  0  0  0  0  0  0
   38.5800   26.9940   43.3130 C   0  0  0  0  0  2  0  0  0  0  0  0
   37.5010   26.2720   42.5650 C   0  0  0  0  0  2  0  0  0  0  0  0
   37.1150   27.0830   41.3500 C   0  0  0  0  0  2  0  0  0  0  0  0
  1  7  1  0  0  0  0
  1  2  1  0  0  0  0
  2  8  1  0  0  0  0
  3  2  2  0  0  0  0
  3 12  1  0  0  0  0
  4  3  1  0  0  0  0
  5  6  1  0  0  0  0
  5  4  2  0  0  0  0
  6  1  2  0  0  0  0
  7 11  1  0  0  0  0
  9  5  1  0  0  0  0
 10  7  1  0  0  0  0
 12 14  1  0  0  0  0
 13 12  2  0  0  0  0
 14 15  1  0  0  0  0
 15 16  1  0  0  0  0
 16 17  1  0  0  0  0
 18 17  1  0  0  0  0
 19 14  1  0  0  0  0
 19 18  1  0  0  0  0
M  END
>  <minimizedAffinity>
-5.02690077

$$$$

 OpenBabel03242520463D

 19 20  0  0  0  0  0  0  0  0999 V2000
   37.5440   32.6230   39.6100 C   0  0  0  0  0  0  0  0  0  0  0  0
   38.1980   32.2440   40.7930 C   0  0  0  0  0  0  0  0  0  0  0  0
   38.7540   30.9530   40.8720 C   0  0  0  0  0  0  0  0  0  0  0  0
   38.6210   30.1510   39.7880 N   0  0  0  0  0  0  0  0  0  0  0  0
   37.9850   30.5580   38.6730 C   0  0  0  0  0  0  0  0  0  0  0  0
   37.4570   31.7730   38.5890 N   0  0  0  0  0  0  0  0  0  0  0  0
   36.9890   33.9260   39.5470 N   0  0  0  0  0  0  0  0  0  0  0  0
   38.2720   32.9400   41.6350 H   0  0  0  0  0  0  0  0  0  0  0  0
   37.8950   29.8850   37.8160 H   0  0  0  0  0  0  0  0  0  0  0  0
   36.0010   34.1100   39.8330 H   0  0  0  0  0  0  0  0  0  0  0  0
   37.3600   34.8470   39.2560 H   0  0  0  0  0  0  0  0  0  0  0  0
   39.4080   30.6150   42.0960 C   0  0  0  0  0  0  0  0  0  0  0  0
   40.3710   31.2570   42.6040 O   0  0  0  0  0  0  0  0  0  0  0  0
   38.8960   29.4130   42.8040 C   0  0  0  0  0  3  0  0  0  0  0  0
   39.6220   28.2070   42.3070 C   0  0  0  0  0  2  0  0  0  0  0  0
   38.7680   27.0170   42.0360 C   0  0  0  0  0  2  0  0  0  0  0  0
   37.5800   26.8310   42.9070 C   0  0  0  0  0  2  0  0  0  0  0  0
   36.9860   28.0960   43.4500 C   0  0  0  0  0  2  0  0  0  0  0  0
   37.4250   29.2570   42.5890 C   0  0  0  0  0  2  0  0  0  0  0  0
  1  2  1  0  0  0  0
  2  3  2  0  0  0  0
  2  8  1  0  0  0  0
  3 12  1  0  0  0  0
  4  3  1  0  0  0  0
  5  4  2  0  0  0  0
  6  5  1  0  0  0  0
  6  1  2  0  0  0  0
  7  1  1  0  0  0  0
  7 10  1  0  0  0  0
  9  5  1  0  0  0  0
 11  7  1  0  0  0  0
 12 13  2  0  0  0  0
 12 14  1  0  0  0  0
 15 14  1  0  0  0  0
 16 15  1  0  0  0  0
 16 17  1  0  0  0  0
 17 18  1  0  0  0  0
 19 14  1  0  0  0  0
 19 18  1  0  0  0  0
M  END
>  <minimizedAffinity>
-4.67026186

$$$$

 OpenBabel03242520463D

 19 20  0  0  0  0  0  0  0  0999 V2000
   39.9510   32.4590   38.5970 C   0  0  0  0  0  0  0  0  0  0  0  0
   39.8470   31.1380   39.0610 C   0  0  0  0  0  0  0  0  0  0  0  0
   39.4860   30.9210   40.4040 C   0  0  0  0  0  0  0  0  0  0  0  0
   39.2590   32.0140   41.1720 N   0  0  0  0  0  0  0  0  0  0  0  0
   39.3710   33.2650   40.6840 C   0  0  0  0  0  0  0  0  0  0  0  0
   39.7110   33.4790   39.4190 N   0  0  0  0  0  0  0  0  0  0  0  0
   40.3160   32.6600   37.2420 N   0  0  0  0  0  0  0  0  0  0  0  0
   40.0420   30.2950   38.3890 H   0  0  0  0  0  0  0  0  0  0  0  0
   39.1820   34.1260   41.3310 H   0  0  0  0  0  0  0  0  0  0  0  0
   41.3160   32.7670   36.9600 H   0  0  0  0  0  0  0  0  0  0  0  0
   39.7780   32.7350   36.3620 H   0  0  0  0  0  0  0  0  0  0  0  0
   39.3920   29.5600   40.8270 C   0  0  0  0  0  0  0  0  0  0  0  0
   40.2380   28.6590   40.5610 O   0  0  0  0  0  0  0  0  0  0  0  0
   38.2000   29.2060   41.6420 C   0  0  0  0  0  3  0  0  0  0  0  0
   38.6310   28.9300   43.0440 C   0  0  0  0  0  2  0  0  0  0  0  0
   38.0110   27.7310   43.6750 C   0  0  0  0  0  2  0  0  0  0  0  0
   36.6200   27.4070   43.2750 C   0  0  0  0  0  2  0  0  0  0  0  0
   36.2440   27.8230   41.8850 C   0  0  0  0  0  2  0  0  0  0  0  0
   37.5010   28.0160   41.0710 C   0  0  0  0  0  2  0  0  0  0  0  0
  1  2  2  0  0  0  0
  1  6  1  0  0  0  0
  2  3  1  0  0  0  0
  3 12  1  0  0  0  0
  3  4  2  0  0  0  0
  5  4  1  0  0  0  0
  5  9  1  0  0  0  0
  6  5  2  0  0  0  0
  7  1  1  0  0  0  0
  8  2  1  0  0  0  0
 10  7  1  0  0  0  0
 11  7  1  0  0  0  0
 12 14  1  0  0  0  0
 13 12  2  0  0  0  0
 14 15  1  0  0  0  0
 15 16  1  0  0  0  0
 17 16  1  0  0  0  0
 18 17  1  0  0  0  0
 19 14  1  0  0  0  0
 19 18  1  0  0  0  0
M  END
>  <minimizedAffinity>
-4.5488205

$$$$

 OpenBabel03242520463D

 19 20  0  0  0  0  0  0  0  0999 V2000
   39.4370   32.6790   40.8730 C   0  0  0  0  0  0  0  0  0  0  0  0
   38.7710   31.4780   41.1680 C   0  0  0  0  0  0  0  0  0  0  0  0
   37.4560   31.3030   40.6990 C   0  0  0  0  0  0  0  0  0  0  0  0
   36.9100   32.3160   39.9840 N   0  0  0  0  0  0  0  0  0  0  0  0
   37.5860   33.4520   39.7250 C   0  0  0  0  0  0  0  0  0  0  0  0
   38.8270   33.6270   40.1640 N   0  0  0  0  0  0  0  0  0  0  0  0
   40.7610   32.8390   41.3540 N   0  0  0  0  0  0  0  0  0  0  0  0
   39.2680   30.6950   41.7500 H   0  0  0  0  0  0  0  0  0  0  0  0
   37.1160   34.2520   39.1460 H   0  0  0  0  0  0  0  0  0  0  0  0
   40.9510   33.2750   42.2840 H   0  0  0  0  0  0  0  0  0  0  0  0
   41.6930   32.6050   40.9710 H   0  0  0  0  0  0  0  0  0  0  0  0
   36.8230   30.0650   41.0230 C   0  0  0  0  0  0  0  0  0  0  0  0
   35.5910   29.8220   40.8830 O   0  0  0  0  0  0  0  0  0  0  0  0
   37.7060   28.9980   41.5650 C   0  0  0  0  0  3  0  0  0  0  0  0
   37.5470   27.7650   40.7370 C   0  0  0  0  0  2  0  0  0  0  0  0
   37.4390   26.4930   41.5060 C   0  0  0  0  0  2  0  0  0  0  0  0
   38.2010   26.4110   42.7770 C   0  0  0  0  0  2  0  0  0  0  0  0
   38.4070   27.7190   43.4810 C   0  0  0  0  0  2  0  0  0  0  0  0
   37.3760   28.7090   42.9930 C   0  0  0  0  0  2  0  0  0  0  0  0
  1  2  1  0  0  0  0
  1  7  1  0  0  0  0
  2  8  1  0  0  0  0
  3 12  1  0  0  0  0
  3  2  2  0  0  0  0
  4  3  1  0  0  0  0
  5  4  2  0  0  0  0
  5  6  1  0  0  0  0
  6  1  2  0  0  0  0
  7 10  1  0  0  0  0
  9  5  1  0  0  0  0
 11  7  1  0  0  0  0
 12 14  1  0  0  0  0
 13 12  2  0  0  0  0
 14 19  1  0  0  0  0
 15 16  1  0  0  0  0
 15 14  1  0  0  0  0
 16 17  1  0  0  0  0
 17 18  1  0  0  0  0
 19 18  1  0  0  0  0
M  END
>  <minimizedAffinity>
-4.54257393

$$$$

 OpenBabel03242520463D

 19 20  0  0  0  0  0  0  0  0999 V2000
   39.0510   31.7140   37.6120 C   0  0  0  0  0  0  0  0  0  0  0  0
   39.2410   31.3020   38.9410 C   0  0  0  0  0  0  0  0  0  0  0  0
   38.1980   30.6140   39.5890 C   0  0  0  0  0  0  0  0  0  0  0  0
   37.0650   30.3910   38.8800 N   0  0  0  0  0  0  0  0  0  0  0  0
   36.9270   30.8050   37.6050 C   0  0  0  0  0  0  0  0  0  0  0  0
   37.9050   31.4540   36.9860 N   0  0  0  0  0  0  0  0  0  0  0  0
   40.1120   32.4060   36.9740 N   0  0  0  0  0  0  0  0  0  0  0  0
   40.1820   31.5120   39.4590 H   0  0  0  0  0  0  0  0  0  0  0  0
   35.9990   30.6090   37.0620 H   0  0  0  0  0  0  0  0  0  0  0  0
   40.1750   33.4480   37.0050 H   0  0  0  0  0  0  0  0  0  0  0  0
   40.9330   32.1030   36.4230 H   0  0  0  0  0  0  0  0  0  0  0  0
   38.4390   30.2150   40.9390 C   0  0  0  0  0  0  0  0  0  0  0  0
   39.3110   30.7240   41.6990 O   0  0  0  0  0  0  0  0  0  0  0  0
   37.5840   29.1180   41.4620 C   0  0  0  0  0  3  0  0  0  0  0  0
   37.5770   29.1730   42.9540 C   0  0  0  0  0  2  0  0  0  0  0  0
   37.7230   27.8580   43.6390 C   0  0  0  0  0  2  0  0  0  0  0  0
   37.1290   26.6790   42.9610 C   0  0  0  0  0  2  0  0  0  0  0  0
   37.0770   26.7630   41.4660 C   0  0  0  0  0  2  0  0  0  0  0  0
   38.0820   27.7880   40.9950 C   0  0  0  0  0  2  0  0  0  0  0  0
  1  2  1  0  0  0  0
  2  8  1  0  0  0  0
  2  3  2  0  0  0  0
  3 12  1  0  0  0  0
  4  3  1  0  0  0  0
  5  4  2  0  0  0  0
  6  5  1  0  0  0  0
  6  1  2  0  0  0  0
  7 10  1  0  0  0  0
  7  1  1  0  0  0  0
  9  5  1  0  0  0  0
 11  7  1  0  0  0  0
 12 14  1  0  0  0  0
 12 13  2  0  0  0  0
 14 15  1  0  0  0  0
 15 16  1  0  0  0  0
 17 16  1  0  0  0  0
 18 17  1  0  0  0  0
 19 14  1  0  0  0  0
 19 18  1  0  0  0  0
M  END
>  <minimizedAffinity>
-4.52377796

$$$$

 OpenBabel03242520463D

 19 20  0  0  0  0  0  0  0  0999 V2000
   36.1600   29.7680   39.2770 C   0  0  0  0  0  0  0  0  0  0  0  0
   36.2850   28.7320   40.2160 C   0  0  0  0  0  0  0  0  0  0  0  0
   36.9160   29.0070   41.4440 C   0  0  0  0  0  0  0  0  0  0  0  0
   37.3680   30.2690   41.6430 N   0  0  0  0  0  0  0  0  0  0  0  0
   37.2260   31.2320   40.7120 C   0  0  0  0  0  0  0  0  0  0  0  0
   36.6330   30.9820   39.5510 N   0  0  0  0  0  0  0  0  0  0  0  0
   35.5220   29.4740   38.0450 N   0  0  0  0  0  0  0  0  0  0  0  0
   35.8970   27.7320   39.9960 H   0  0  0  0  0  0  0  0  0  0  0  0
   37.6030   32.2410   40.9030 H   0  0  0  0  0  0  0  0  0  0  0  0
   36.0680   29.1500   37.2150 H   0  0  0  0  0  0  0  0  0  0  0  0
   34.5390   29.5020   37.7260 H   0  0  0  0  0  0  0  0  0  0  0  0
   37.0170   27.9210   42.3660 C   0  0  0  0  0  0  0  0  0  0  0  0
   36.1290   27.5970   43.2040 O   0  0  0  0  0  0  0  0  0  0  0  0
   38.2740   27.1290   42.3110 C   0  0  0  0  0  3  0  0  0  0  0  0
   37.9870   25.7980   41.6980 C   0  0  0  0  0  2  0  0  0  0  0  0
   38.6170   24.6340   42.3810 C   0  0  0  0  0  2  0  0  0  0  0  0
   39.9410   24.8630   43.0120 C   0  0  0  0  0  2  0  0  0  0  0  0
   40.1820   26.2600   43.4980 C   0  0  0  0  0  2  0  0  0  0  0  0
   38.8520   26.9550   43.6780 C   0  0  0  0  0  2  0  0  0  0  0  0
  1  6  2  0  0  0  0
  1  2  1  0  0  0  0
  2  3  2  0  0  0  0
  3  4  1  0  0  0  0
  3 12  1  0  0  0  0
  5  9  1  0  0  0  0
  5  4  2  0  0  0  0
  6  5  1  0  0  0  0
  7  1  1  0  0  0  0
  8  2  1  0  0  0  0
 10  7  1  0  0  0  0
 11  7  1  0  0  0  0
 12 13  2  0  0  0  0
 14 12  1  0  0  0  0
 14 19  1  0  0  0  0
 15 14  1  0  0  0  0
 15 16  1  0  0  0  0
 16 17  1  0  0  0  0
 17 18  1  0  0  0  0
 18 19  1  0  0  0  0
M  END
>  <minimizedAffinity>
-4.41824865

$$$$

 OpenBabel03242520463D

 19 20  0  0  0  0  0  0  0  0999 V2000
   38.4670   24.9670   42.4120 C   0  0  0  0  0  0  0  0  0  0  0  0
   37.7700   26.1160   42.0050 C   0  0  0  0  0  0  0  0  0  0  0  0
   38.1980   27.3690   42.4820 C   0  0  0  0  0  0  0  0  0  0  0  0
   39.2680   27.3850   43.3140 N   0  0  0  0  0  0  0  0  0  0  0  0
   39.9060   26.2570   43.6790 C   0  0  0  0  0  0  0  0  0  0  0  0
   39.5100   25.0700   43.2340 N   0  0  0  0  0  0  0  0  0  0  0  0
   38.0220   23.7120   41.9230 N   0  0  0  0  0  0  0  0  0  0  0  0
   36.9120   26.0360   41.3290 H   0  0  0  0  0  0  0  0  0  0  0  0
   40.7660   26.3050   44.3530 H   0  0  0  0  0  0  0  0  0  0  0  0
   37.3190   23.1440   42.4470 H   0  0  0  0  0  0  0  0  0  0  0  0
   38.2440   23.1550   41.0810 H   0  0  0  0  0  0  0  0  0  0  0  0
   37.4580   28.5060   42.0380 C   0  0  0  0  0  0  0  0  0  0  0  0
   37.2480   29.5460   42.7240 O   0  0  0  0  0  0  0  0  0  0  0  0
   36.9070   28.4340   40.6590 C   0  0  0  0  0  3  0  0  0  0  0  0
   37.8570   29.0990   39.7180 C   0  0  0  0  0  2  0  0  0  0  0  0
   37.2270   29.9930   38.7060 C   0  0  0  0  0  2  0  0  0  0  0  0
   35.8820   29.6060   38.2140 C   0  0  0  0  0  2  0  0  0  0  0  0
   35.0410   28.8430   39.1930 C   0  0  0  0  0  2  0  0  0  0  0  0
   35.5660   29.0870   40.5880 C   0  0  0  0  0  2  0  0  0  0  0  0
  1  6  1  0  0  0  0
  2  1  2  0  0  0  0
  2  3  1  0  0  0  0
  3  4  2  0  0  0  0
  4  5  1  0  0  0  0
  5  9  1  0  0  0  0
  6  5  2  0  0  0  0
  7  1  1  0  0  0  0
  7 10  1  0  0  0  0
  8  2  1  0  0  0  0
 11  7  1  0  0  0  0
 12  3  1  0  0  0  0
 12 13  2  0  0  0  0
 14 12  1  0  0  0  0
 15 14  1  0  0  0  0
 16 15  1  0  0  0  0
 17 16  1  0  0  0  0
 17 18  1  0  0  0  0
 18 19  1  0  0  0  0
 19 14  1  0  0  0  0
M  END
>  <minimizedAffinity>
-4.38997507

$$$$
