REMARK  Name = 
REMARK  3 active torsions:
REMARK  status: ('A' for Active; 'I' for Inactive)
REMARK    1  A    between atoms: C_2  and  C_13
REMARK    2  A    between atoms: C_3  and  C_7
REMARK    3  A    between atoms: C_13  and  C_21
REMARK                            x       y       z     vdW  Elec       q    Type
REMARK                         _______ _______ _______ _____ _____    ______ ____
ROOT
ATOM      1  C   UNL     1      45.264  36.156  43.180  0.00  0.00    +0.000 A 
ATOM      2  C   UNL     1      45.874  34.910  42.891  0.00  0.00    +0.000 A 
ATOM      3  C   UNL     1      45.827  33.951  43.901  0.00  0.00    +0.000 A 
ATOM      4  N   UNL     1      45.227  34.227  45.074  0.00  0.00    +0.000 NA
ATOM      5  C   UNL     1      44.647  35.447  45.315  0.00  0.00    +0.000 A 
ATOM      6  N   UNL     1      44.682  36.373  44.364  0.00  0.00    +0.000 NA
ATOM      7  H   UNL     1      45.276  36.945  42.414  0.00  0.00    +0.000 HD
ATOM      8  H   UNL     1      44.207  35.512  46.300  0.00  0.00    +0.000 HD
ENDROOT
BRANCH   3   9
ATOM      9  C   UNL     1      46.448  32.657  43.632  0.00  0.00    +0.000 A 
ATOM     10  C   UNL     1      45.666  31.576  43.298  0.00  0.00    +0.000 A 
ATOM     11  C   UNL     1      46.278  30.368  43.050  0.00  0.00    +0.000 A 
ATOM     12  C   UNL     1      47.652  30.181  43.119  0.00  0.00    +0.000 A 
ATOM     13  C   UNL     1      48.381  31.316  43.462  0.00  0.00    +0.000 A 
ATOM     14  N   UNL     1      47.766  32.483  43.700  0.00  0.00    +0.000 NA
ATOM     15  H   UNL     1      44.570  31.642  43.222  0.00  0.00    +0.000 HD
ATOM     16  H   UNL     1      45.686  29.483  42.781  0.00  0.00    +0.000 HD
ATOM     17  H   UNL     1      48.145  29.242  42.928  0.00  0.00    +0.000 HD
ATOM     18  H   UNL     1      49.462  31.271  43.542  0.00  0.00    +0.000 HD
ENDBRANCH   3   9
BRANCH   2  19
ATOM     19  C   UNL     1      46.493  34.676  41.636  0.00  0.00    +0.000 C 
ATOM     20  O   UNL     1      47.666  35.138  41.486  0.00  0.00    +0.000 OA
BRANCH  19  21
ATOM     21  C   UNL     1      46.043  33.972  40.398  0.00  0.00    +0.000 C 
ATOM     22  C   UNL     1      44.662  33.468  40.672  0.00  0.00    +0.000 C 
ATOM     23  C   UNL     1      44.197  32.382  39.745  0.00  0.00    +0.000 C 
ATOM     24  C   UNL     1      45.210  31.305  39.529  0.00  0.00    +0.000 C 
ATOM     25  C   UNL     1      46.513  31.533  40.226  0.00  0.00    +0.000 C 
ATOM     26  C   UNL     1      47.031  32.928  40.002  0.00  0.00    +0.000 C 
ENDBRANCH  19  21
ENDBRANCH   2  19
TORSDOF 3
