
 OpenBabel03252508503D

 25 27  0  0  0  0  0  0  0  0999 V2000
   45.9500   34.1500   41.0400 C   0  0  0  0  0  0  0  0  0  0  0  0
   46.5330   34.7990   42.1230 C   0  0  0  0  0  0  0  0  0  0  0  0
   47.8670   35.1990   41.9990 C   0  0  0  0  0  0  0  0  0  0  0  0
   48.5160   34.9320   40.8340 N   0  0  0  0  0  0  0  0  0  0  0  0
   47.9130   34.3000   39.8090 C   0  0  0  0  0  0  0  0  0  0  0  0
   46.6210   33.9070   39.9160 N   0  0  0  0  0  0  0  0  0  0  0  0
   48.3510   35.7130   42.8360 H   0  0  0  0  0  0  0  0  0  0  0  0
   48.4420   34.0940   38.8900 H   0  0  0  0  0  0  0  0  0  0  0  0
   45.7530   35.0440   43.3380 C   0  0  0  0  0  0  0  0  0  0  0  0
   45.0600   36.2080   43.5700 C   0  0  0  0  0  0  0  0  0  0  0  0
   44.4850   36.0130   44.8020 C   0  0  0  0  0  0  0  0  0  0  0  0
   44.8130   34.7890   45.3000 N   0  0  0  0  0  0  0  0  0  0  0  0
   45.5790   34.2310   44.3910 N   0  0  0  0  0  0  0  0  0  0  0  0
   45.0050   37.0450   42.9180 H   0  0  0  0  0  0  0  0  0  0  0  0
   43.8530   36.7110   45.3400 H   0  0  0  0  0  0  0  0  0  0  0  0
   44.5100   34.3960   46.2110 H   0  0  0  0  0  0  0  0  0  0  0  0
   44.6390   33.7550   41.1600 O   0  0  0  0  0  0  0  0  0  0  0  0
   43.5430   34.3950   40.6560 C   0  0  0  0  0  0  0  0  0  0  0  0
   43.3410   35.6520   40.5750 O   0  0  0  0  0  0  0  0  0  0  0  0
   42.2370   33.9430   40.0430 C   0  0  0  0  0  3  0  0  0  0  0  0
   42.4370   33.5870   38.5930 C   0  0  0  0  0  2  0  0  0  0  0  0
   41.1580   32.8970   38.1570 C   0  0  0  0  0  2  0  0  0  0  0  0
   40.0610   33.9280   38.1170 C   0  0  0  0  0  2  0  0  0  0  0  0
   40.3050   35.1380   38.9520 C   0  0  0  0  0  2  0  0  0  0  0  0
   41.1320   34.9210   40.1780 C   0  0  0  0  0  2  0  0  0  0  0  0
  1 17  1  0  0  0  0
  1  2  1  0  0  0  0
  2  9  1  0  0  0  0
  3  2  2  0  0  0  0
  3  7  1  0  0  0  0
  4  3  1  0  0  0  0
  5  6  1  0  0  0  0
  5  4  2  0  0  0  0
  6  1  2  0  0  0  0
  8  5  1  0  0  0  0
  9 10  1  0  0  0  0
  9 13  2  0  0  0  0
 10 11  2  0  0  0  0
 11 12  1  0  0  0  0
 11 15  1  0  0  0  0
 12 16  1  0  0  0  0
 13 12  1  0  0  0  0
 14 10  1  0  0  0  0
 18 17  1  0  0  0  0
 19 18  2  0  0  0  0
 20 25  1  0  0  0  0
 20 18  1  0  0  0  0
 21 20  1  0  0  0  0
 22 21  1  0  0  0  0
 23 22  1  0  0  0  0
 23 24  1  0  0  0  0
 24 25  1  0  0  0  0
M  END
>  <minimizedAffinity>
-5.74999809

>  <minimizedRMSD>
0.672269046

$$$$
