
     RDKit          3D

 30 31  0  0  0  0  0  0  0  0999 V2000
   44.9148   35.1057   44.9432 C   0  0  0  0  0  0  0  0  0  0  0  0
   45.8265   34.7551   43.9485 C   0  0  0  0  0  0  0  0  0  0  0  0
   46.6824   33.6977   44.2188 C   0  0  0  0  0  0  0  0  0  0  0  0
   46.6051   33.0593   45.4078 N   0  0  0  0  0  0  0  0  0  0  0  0
   45.7088   33.4327   46.3383 C   0  0  0  0  0  0  0  0  0  0  0  0
   44.8536   34.4533   46.1276 N   0  0  0  0  0  0  0  0  0  0  0  0
   45.7967   35.5537   42.6794 C   0  0  0  0  0  0  0  0  0  0  0  0
   45.3491   36.8055   43.0307 F   0  0  0  0  0  0  0  0  0  0  0  0
   44.9101   34.9457   41.8287 F   0  0  0  0  0  0  0  0  0  0  0  0
   47.0755   35.5490   42.1553 F   0  0  0  0  0  0  0  0  0  0  0  0
   45.6234   32.7772   47.5696 O   0  0  0  0  0  0  0  0  0  0  0  0
   44.2201   35.9163   44.8026 H   0  0  0  0  0  0  0  0  0  0  0  0
   47.3775   33.4447   43.4367 H   0  0  0  0  0  0  0  0  0  0  0  0
   46.4690   31.6929   47.9022 C   0  0  0  0  0  0  0  0  0  0  0  0
   46.8880   30.9498   46.6666 C   0  0  0  0  0  0  0  0  0  0  0  0
   46.1547   29.6663   46.4471 C   0  0  0  0  0  0  0  0  0  0  0  0
   46.1496   28.7579   47.6435 C   0  0  0  0  0  0  0  0  0  0  0  0
   46.3400   29.4646   48.9571 C   0  0  0  0  0  0  0  0  0  0  0  0
   45.6986   30.8174   48.8686 C   0  0  0  0  0  0  0  0  0  0  0  0
   47.4033   32.0317   48.3970 H   0  0  0  0  0  0  0  0  0  0  0  0
   47.9956   30.7509   46.6282 H   0  0  0  0  0  0  0  0  0  0  0  0
   46.6795   31.6052   45.7920 H   0  0  0  0  0  0  0  0  0  0  0  0
   46.6999   29.1261   45.6276 H   0  0  0  0  0  0  0  0  0  0  0  0
   45.1446   29.8959   46.0929 H   0  0  0  0  0  0  0  0  0  0  0  0
   45.1561   28.2582   47.6704 H   0  0  0  0  0  0  0  0  0  0  0  0
   46.9102   27.9409   47.5564 H   0  0  0  0  0  0  0  0  0  0  0  0
   47.4040   29.5374   49.2036 H   0  0  0  0  0  0  0  0  0  0  0  0
   45.7873   28.8936   49.7571 H   0  0  0  0  0  0  0  0  0  0  0  0
   45.6439   31.3139   49.8519 H   0  0  0  0  0  0  0  0  0  0  0  0
   44.6808   30.6980   48.3932 H   0  0  0  0  0  0  0  0  0  0  0  0
  1  6  2  0
  2  3  2  0
  2  1  1  0
  3  4  1  0
  4  5  2  0
  5 11  1  0
  6  5  1  0
  7  8  1  0
  7  2  1  0
  9  7  1  0
 10  7  1  0
  1 12  1  0
  3 13  1  0
 14 15  1  0
 15 16  1  0
 16 17  1  0
 17 18  1  0
 18 19  1  0
 19 14  1  0
 14 20  1  0
 15 21  1  0
 15 22  1  0
 16 23  1  0
 16 24  1  0
 17 25  1  0
 17 26  1  0
 18 27  1  0
 18 28  1  0
 19 29  1  0
 19 30  1  0
 11 14  1  0
M  ISO  2  12  14  13  14
M  END
>  <DihAtoms>  (1) 
4,10,13,14

>  <DihDeg>  (1) 
-118.56017576723124

$$$$
