
 OpenBabel03252508503D

 25 27  0  0  0  0  0  0  0  0999 V2000
   45.7440   34.0520   41.1410 C   0  0  0  0  0  0  0  0  0  0  0  0
   46.3670   34.7600   42.1630 C   0  0  0  0  0  0  0  0  0  0  0  0
   47.6850   35.1770   41.9540 C   0  0  0  0  0  0  0  0  0  0  0  0
   48.2800   34.8680   40.7710 N   0  0  0  0  0  0  0  0  0  0  0  0
   47.6390   34.1790   39.8070 C   0  0  0  0  0  0  0  0  0  0  0  0
   46.3630   33.7700   39.9970 N   0  0  0  0  0  0  0  0  0  0  0  0
   48.2000   35.7370   42.7410 H   0  0  0  0  0  0  0  0  0  0  0  0
   48.1260   33.9410   38.8720 H   0  0  0  0  0  0  0  0  0  0  0  0
   45.6440   35.0460   43.4040 C   0  0  0  0  0  0  0  0  0  0  0  0
   45.0270   36.2490   43.6590 C   0  0  0  0  0  0  0  0  0  0  0  0
   44.4840   36.0840   44.9100 C   0  0  0  0  0  0  0  0  0  0  0  0
   44.7580   34.8420   45.3960 N   0  0  0  0  0  0  0  0  0  0  0  0
   45.4590   34.2430   44.4620 N   0  0  0  0  0  0  0  0  0  0  0  0
   44.9990   37.0880   43.0100 H   0  0  0  0  0  0  0  0  0  0  0  0
   43.9110   36.8160   45.4690 H   0  0  0  0  0  0  0  0  0  0  0  0
   44.4640   34.4650   46.3170 H   0  0  0  0  0  0  0  0  0  0  0  0
   44.4480   33.6410   41.3450 O   0  0  0  0  0  0  0  0  0  0  0  0
   43.3120   34.3060   40.9820 C   0  0  0  0  0  0  0  0  0  0  0  0
   42.4900   34.9170   41.7400 O   0  0  0  0  0  0  0  0  0  0  0  0
   42.6130   34.5770   39.6680 C   0  0  0  0  0  3  0  0  0  0  0  0
   41.3820   35.4150   39.8980 C   0  0  0  0  0  2  0  0  0  0  0  0
   40.9180   35.8530   38.5220 C   0  0  0  0  0  2  0  0  0  0  0  0
   40.3900   34.6420   37.7970 C   0  0  0  0  0  2  0  0  0  0  0  0
   40.8920   33.3360   38.3090 C   0  0  0  0  0  2  0  0  0  0  0  0
   42.2640   33.3580   38.9040 C   0  0  0  0  0  2  0  0  0  0  0  0
  1 17  1  0  0  0  0
  1  2  1  0  0  0  0
  2  9  1  0  0  0  0
  3  2  2  0  0  0  0
  3  7  1  0  0  0  0
  4  3  1  0  0  0  0
  5  6  1  0  0  0  0
  5  4  2  0  0  0  0
  6  1  2  0  0  0  0
  8  5  1  0  0  0  0
  9 10  1  0  0  0  0
  9 13  2  0  0  0  0
 10 11  2  0  0  0  0
 11 12  1  0  0  0  0
 11 15  1  0  0  0  0
 12 16  1  0  0  0  0
 13 12  1  0  0  0  0
 14 10  1  0  0  0  0
 18 17  1  0  0  0  0
 18 19  2  0  0  0  0
 20 21  1  0  0  0  0
 20 18  1  0  0  0  0
 22 21  1  0  0  0  0
 23 24  1  0  0  0  0
 23 22  1  0  0  0  0
 24 25  1  0  0  0  0
 25 20  1  0  0  0  0
M  END
>  <minimizedAffinity>
-5.76186514

>  <minimizedRMSD>
1.47367632

$$$$
