
     RDKit          3D

 33 34  0  0  0  0  0  0  0  0999 V2000
   44.7192   35.3927   45.0207 C   0  0  0  0  0  0  0  0  0  0  0  0
   45.5908   34.9145   44.0427 C   0  0  0  0  0  0  0  0  0  0  0  0
   46.3444   33.7653   44.3279 C   0  0  0  0  0  0  0  0  0  0  0  0
   46.1910   33.1827   45.5280 N   0  0  0  0  0  0  0  0  0  0  0  0
   45.3369   33.6764   46.4519 C   0  0  0  0  0  0  0  0  0  0  0  0
   44.6003   34.7673   46.2198 N   0  0  0  0  0  0  0  0  0  0  0  0
   45.6622   35.6866   42.7640 C   0  0  0  0  0  0  0  0  0  0  0  0
   45.2395   36.9673   43.0776 F   0  0  0  0  0  0  0  0  0  0  0  0
   44.8157   35.0777   41.8753 F   0  0  0  0  0  0  0  0  0  0  0  0
   46.9794   35.6673   42.3266 F   0  0  0  0  0  0  0  0  0  0  0  0
   45.1796   33.0801   47.6922 O   0  0  0  0  0  0  0  0  0  0  0  0
   46.1189   32.2362   48.2811 C   0  0  0  0  0  0  0  0  0  0  0  0
   44.1277   36.2795   44.8167 H   0  0  0  0  0  0  0  0  0  0  0  0
   46.9857   33.4566   43.5396 H   0  0  0  0  0  0  0  0  0  0  0  0
   45.7115   31.9605   49.2766 H   0  0  0  0  0  0  0  0  0  0  0  0
   46.1922   31.2859   47.7208 H   0  0  0  0  0  0  0  0  0  0  0  0
   47.4742   32.8490   48.5246 C   0  0  0  0  0  0  0  0  0  0  0  0
   48.4598   32.0053   47.7284 C   0  0  0  0  0  0  0  0  0  0  0  0
   49.7227   31.7150   48.5070 C   0  0  0  0  0  0  0  0  0  0  0  0
   49.4506   30.8174   49.6962 C   0  0  0  0  0  0  0  0  0  0  0  0
   48.2197   31.3291   50.3965 C   0  0  0  0  0  0  0  0  0  0  0  0
   47.8876   32.7341   49.9754 C   0  0  0  0  0  0  0  0  0  0  0  0
   47.5335   33.9245   48.2621 H   0  0  0  0  0  0  0  0  0  0  0  0
   48.7856   32.5327   46.8058 H   0  0  0  0  0  0  0  0  0  0  0  0
   48.0279   31.0369   47.4017 H   0  0  0  0  0  0  0  0  0  0  0  0
   50.2694   32.6343   48.7707 H   0  0  0  0  0  0  0  0  0  0  0  0
   50.3661   31.1324   47.8160 H   0  0  0  0  0  0  0  0  0  0  0  0
   49.3070   29.7831   49.3239 H   0  0  0  0  0  0  0  0  0  0  0  0
   50.3336   30.8440   50.3520 H   0  0  0  0  0  0  0  0  0  0  0  0
   48.4309   31.3827   51.4844 H   0  0  0  0  0  0  0  0  0  0  0  0
   47.3753   30.6598   50.2295 H   0  0  0  0  0  0  0  0  0  0  0  0
   47.1167   33.1486   50.6639 H   0  0  0  0  0  0  0  0  0  0  0  0
   48.7890   33.3841   50.0967 H   0  0  0  0  0  0  0  0  0  0  0  0
  1  6  2  0
  2  3  2  0
  2  1  1  0
  3  4  1  0
  4  5  2  0
  5 11  1  0
  6  5  1  0
  7  8  1  0
  7  2  1  0
  9  7  1  0
 10  7  1  0
 11 12  1  0
  1 13  1  0
  3 14  1  0
 12 15  1  0
 12 16  1  0
 17 18  1  0
 18 19  1  0
 19 20  1  0
 20 21  1  0
 21 22  1  0
 22 17  1  0
 17 23  1  0
 18 24  1  0
 18 25  1  0
 19 26  1  0
 19 27  1  0
 20 28  1  0
 20 29  1  0
 21 30  1  0
 21 31  1  0
 22 32  1  0
 22 33  1  0
 12 17  1  0
M  ISO  4  13  14  14  14  15   8  16   8
M  END
>  <DihAtoms>  (1) 
10,11,16,17

>  <DihDeg>  (1) 
-179.97952329639324

$$$$
