
     RDKit          3D

 36 38  0  0  0  0  0  0  0  0999 V2000
   46.0764   34.1527   41.0007 C   0  0  0  0  0  0  0  0  0  0  0  0
   46.6137   34.8284   42.0914 C   0  0  0  0  0  0  0  0  0  0  0  0
   47.9343   35.2784   41.9887 C   0  0  0  0  0  0  0  0  0  0  0  0
   48.6127   35.0317   40.8371 N   0  0  0  0  0  0  0  0  0  0  0  0
   48.0535   34.3731   39.8043 C   0  0  0  0  0  0  0  0  0  0  0  0
   46.7765   33.9320   39.8901 N   0  0  0  0  0  0  0  0  0  0  0  0
   45.8043   35.0472   43.2915 C   0  0  0  0  0  0  0  0  0  0  0  0
   45.0477   36.1767   43.4967 C   0  0  0  0  0  0  0  0  0  0  0  0
   44.4652   35.9683   44.7233 C   0  0  0  0  0  0  0  0  0  0  0  0
   44.8479   34.7689   45.2422 N   0  0  0  0  0  0  0  0  0  0  0  0
   45.6555   34.2404   44.3519 N   0  0  0  0  0  0  0  0  0  0  0  0
   44.7789   33.7091   41.0986 O   0  0  0  0  0  0  0  0  0  0  0  0
   43.6950   34.1945   40.4246 C   0  0  0  0  0  0  0  0  0  0  0  0
   43.2484   35.3876   40.4219 O   0  0  0  0  0  0  0  0  0  0  0  0
   48.3828   35.8133   42.8321 H   0  0  0  0  0  0  0  0  0  0  0  0
   48.6058   34.1845   38.8950 H   0  0  0  0  0  0  0  0  0  0  0  0
   44.9601   37.0007   42.8333 H   0  0  0  0  0  0  0  0  0  0  0  0
   43.7895   36.6393   45.2415 H   0  0  0  0  0  0  0  0  0  0  0  0
   44.5523   34.3717   46.1535 H   0  0  0  0  0  0  0  0  0  0  0  0
   42.6679   33.5932   39.4924 C   0  0  0  0  0  0  0  0  0  0  0  0
   42.7142   34.2821   38.1527 C   0  0  0  0  0  0  0  0  0  0  0  0
   41.8583   33.4392   37.2256 C   0  0  0  0  0  0  0  0  0  0  0  0
   40.4205   33.5903   37.6485 C   0  0  0  0  0  0  0  0  0  0  0  0
   40.2238   34.0315   39.0580 C   0  0  0  0  0  0  0  0  0  0  0  0
   41.2854   33.6069   40.0227 C   0  0  0  0  0  0  0  0  0  0  0  0
   42.9928   32.5359   39.2883 H   0  0  0  0  0  0  0  0  0  0  0  0
   42.3275   35.3107   38.2007 H   0  0  0  0  0  0  0  0  0  0  0  0
   43.7866   34.2512   37.8261 H   0  0  0  0  0  0  0  0  0  0  0  0
   42.0246   33.7346   36.1703 H   0  0  0  0  0  0  0  0  0  0  0  0
   42.1739   32.3766   37.3164 H   0  0  0  0  0  0  0  0  0  0  0  0
   39.9346   34.3553   36.9748 H   0  0  0  0  0  0  0  0  0  0  0  0
   39.9082   32.6226   37.4775 H   0  0  0  0  0  0  0  0  0  0  0  0
   40.1756   35.1424   39.0797 H   0  0  0  0  0  0  0  0  0  0  0  0
   39.2566   33.5749   39.4174 H   0  0  0  0  0  0  0  0  0  0  0  0
   41.1744   34.2559   40.9214 H   0  0  0  0  0  0  0  0  0  0  0  0
   41.0286   32.5741   40.4004 H   0  0  0  0  0  0  0  0  0  0  0  0
  1 12  1  0
  1  2  1  0
  2  7  1  0
  3  2  2  0
  4  3  1  0
  5  6  1  0
  5  4  2  0
  6  1  2  0
  7  8  1  0
  7 11  2  0
  8  9  2  0
  9 10  1  0
 11 10  1  0
 13 14  2  0
 13 12  1  0
  3 15  1  0
  5 16  1  0
  8 17  1  0
  9 18  1  0
 10 19  1  0
 20 21  1  0
 21 22  1  0
 22 23  1  0
 23 24  1  0
 24 25  1  0
 25 20  1  0
 20 26  1  0
 21 27  1  0
 21 28  1  0
 22 29  1  0
 22 30  1  0
 23 31  1  0
 23 32  1  0
 24 33  1  0
 24 34  1  0
 25 35  1  0
 25 36  1  0
 13 20  1  0
M  ISO  5  15  14  16  14  17  14  18  14  19   9
M  END
>  <DihAtoms>  (1) 
13,12,19,20

>  <DihDeg>  (1) 
-0.006030990010547373

$$$$
