
 OpenBabel03242515003D

 34 36  0  0  0  0  0  0  0  0999 V2000
   42.3560   34.7550   41.5910 C   0  0  0  0  0  0  0  0  0  0  0  0
   42.4350   34.9280   42.6900 H   0  0  0  0  0  0  0  0  0  0  0  0
   41.8150   33.7700   41.4810 H   0  0  0  0  0  0  0  0  0  0  0  0
   41.5280   35.7960   40.9120 C   0  0  0  0  0  0  0  0  0  0  0  0
   40.8940   36.2710   41.7000 H   0  0  0  0  0  0  0  0  0  0  0  0
   42.1150   36.6040   40.4470 H   0  0  0  0  0  0  0  0  0  0  0  0
   42.2090   36.0350   37.9560 Cl  0  0  0  0  0  0  0  0  0  0  0  0
   40.8050   35.2270   38.5650 C   0  0  0  0  0  0  0  0  0  0  0  0
   40.5800   35.1720   39.9580 C   0  0  0  0  0  0  0  0  0  0  0  0
   39.4480   34.5160   40.3530 C   0  0  0  0  0  0  0  0  0  0  0  0
   38.5060   33.9030   39.5410 C   0  0  0  0  0  0  0  0  0  0  0  0
   38.7450   33.9690   38.1780 C   0  0  0  0  0  0  0  0  0  0  0  0
   37.6110   33.2230   37.0550 Cl  0  0  0  0  0  0  0  0  0  0  0  0
   39.8720   34.6180   37.7150 C   0  0  0  0  0  0  0  0  0  0  0  0
   39.2480   34.4580   41.4280 H   0  0  0  0  0  0  0  0  0  0  0  0
   37.6410   33.4080   39.9540 H   0  0  0  0  0  0  0  0  0  0  0  0
   40.0510   34.6640   36.6430 H   0  0  0  0  0  0  0  0  0  0  0  0
   43.9950   34.5590   40.8690 S   0  0  0  0  0  0  0  0  0  0  0  0
   45.2700   34.3090   42.1120 C   0  0  0  0  0  0  0  0  0  0  0  0
   46.5950   34.4540   41.6850 C   0  0  0  0  0  0  0  0  0  0  0  0
   47.6190   34.2700   42.6150 C   0  0  0  0  0  0  0  0  0  0  0  0
   47.2680   33.9580   43.8900 N   0  0  0  0  0  0  0  0  0  0  0  0
   45.9910   33.8230   44.2840 C   0  0  0  0  0  0  0  0  0  0  0  0
   45.0160   34.0010   43.3860 N   0  0  0  0  0  0  0  0  0  0  0  0
   46.8040   34.7040   40.6550 H   0  0  0  0  0  0  0  0  0  0  0  0
   48.6450   34.3780   42.3050 H   0  0  0  0  0  0  0  0  0  0  0  0
   45.7220   33.4880   45.6680 C   0  0  0  0  0  0  0  0  0  0  0  0
   44.9260   34.2340   46.2940 O   0  0  0  0  0  0  0  0  0  0  0  0
   46.3500   32.3060   46.3580 C   0  0  0  0  0  3  0  0  0  0  0  0
   47.1520   32.8340   47.5290 C   0  0  0  0  0  2  0  0  0  0  0  0
   47.6400   31.7390   48.4210 C   0  0  0  0  0  2  0  0  0  0  0  0
   46.4940   30.9600   48.9750 C   0  0  0  0  0  2  0  0  0  0  0  0
   45.2040   31.4210   48.3300 C   0  0  0  0  0  2  0  0  0  0  0  0
   45.3380   31.3010   46.8080 C   0  0  0  0  0  2  0  0  0  0  0  0
  1  2  1  0  0  0  0
  3  1  1  0  0  0  0
  4  1  1  0  0  0  0
  4  5  1  0  0  0  0
  6  4  1  0  0  0  0
  7  8  1  0  0  0  0
  8  9  1  0  0  0  0
  9 10  2  0  0  0  0
  9  4  1  0  0  0  0
 10 15  1  0  0  0  0
 11 16  1  0  0  0  0
 11 10  1  0  0  0  0
 12 11  2  0  0  0  0
 13 12  1  0  0  0  0
 14 12  1  0  0  0  0
 14  8  2  0  0  0  0
 17 14  1  0  0  0  0
 18  1  1  0  0  0  0
 18 19  1  0  0  0  0
 19 24  1  0  0  0  0
 20 19  2  0  0  0  0
 20 21  1  0  0  0  0
 21 22  2  0  0  0  0
 22 23  1  0  0  0  0
 23 27  1  0  0  0  0
 24 23  2  0  0  0  0
 25 20  1  0  0  0  0
 26 21  1  0  0  0  0
 27 28  2  0  0  0  0
 27 29  1  0  0  0  0
 29 34  1  0  0  0  0
 29 30  1  0  0  0  0
 30 31  1  0  0  0  0
 31 32  1  0  0  0  0
 33 32  1  0  0  0  0
 34 33  1  0  0  0  0
M  END
>  <minimizedAffinity>
-6.68966341

>  <minimizedRMSD>
0.751480401

$$$$
