
 OpenBabel03252508503D

 25 27  0  0  0  0  0  0  0  0999 V2000
   45.8710   34.1510   41.0350 C   0  0  0  0  0  0  0  0  0  0  0  0
   46.4850   34.7740   42.1160 C   0  0  0  0  0  0  0  0  0  0  0  0
   47.8310   35.1280   41.9820 C   0  0  0  0  0  0  0  0  0  0  0  0
   48.4600   34.8460   40.8100 N   0  0  0  0  0  0  0  0  0  0  0  0
   47.8270   34.2400   39.7870 C   0  0  0  0  0  0  0  0  0  0  0  0
   46.5240   33.8920   39.9030 N   0  0  0  0  0  0  0  0  0  0  0  0
   48.3390   35.6200   42.8180 H   0  0  0  0  0  0  0  0  0  0  0  0
   48.3410   34.0210   38.8620 H   0  0  0  0  0  0  0  0  0  0  0  0
   45.7240   35.0380   43.3390 C   0  0  0  0  0  0  0  0  0  0  0  0
   45.0710   36.2230   43.5820 C   0  0  0  0  0  0  0  0  0  0  0  0
   44.5010   36.0410   44.8180 C   0  0  0  0  0  0  0  0  0  0  0  0
   44.7940   34.8050   45.3080 N   0  0  0  0  0  0  0  0  0  0  0  0
   45.5340   34.2270   44.3900 N   0  0  0  0  0  0  0  0  0  0  0  0
   45.0370   37.0630   42.9330 H   0  0  0  0  0  0  0  0  0  0  0  0
   43.8960   36.7570   45.3650 H   0  0  0  0  0  0  0  0  0  0  0  0
   44.4880   34.4180   46.2210 H   0  0  0  0  0  0  0  0  0  0  0  0
   44.5480   33.8010   41.1630 O   0  0  0  0  0  0  0  0  0  0  0  0
   43.4680   34.5090   40.7210 C   0  0  0  0  0  0  0  0  0  0  0  0
   43.3570   35.7740   40.6070 O   0  0  0  0  0  0  0  0  0  0  0  0
   42.0860   34.1410   40.2280 C   0  0  0  0  0  3  0  0  0  0  0  0
   41.8930   34.6230   38.8130 C   0  0  0  0  0  2  0  0  0  0  0  0
   40.6080   33.9750   38.3290 C   0  0  0  0  0  2  0  0  0  0  0  0
   39.4590   34.6020   39.0740 C   0  0  0  0  0  2  0  0  0  0  0  0
   39.8230   35.2430   40.3670 C   0  0  0  0  0  2  0  0  0  0  0  0
   40.9850   34.6340   41.0870 C   0  0  0  0  0  2  0  0  0  0  0  0
  1 17  1  0  0  0  0
  1  2  1  0  0  0  0
  2  9  1  0  0  0  0
  3  2  2  0  0  0  0
  3  7  1  0  0  0  0
  4  3  1  0  0  0  0
  5  6  1  0  0  0  0
  5  4  2  0  0  0  0
  6  1  2  0  0  0  0
  8  5  1  0  0  0  0
  9 10  1  0  0  0  0
  9 13  2  0  0  0  0
 10 11  2  0  0  0  0
 11 12  1  0  0  0  0
 11 15  1  0  0  0  0
 12 16  1  0  0  0  0
 13 12  1  0  0  0  0
 14 10  1  0  0  0  0
 18 17  1  0  0  0  0
 19 18  2  0  0  0  0
 20 18  1  0  0  0  0
 20 25  1  0  0  0  0
 21 20  1  0  0  0  0
 22 21  1  0  0  0  0
 22 23  1  0  0  0  0
 23 24  1  0  0  0  0
 24 25  1  0  0  0  0
M  END
>  <minimizedAffinity>
-5.96124029

>  <minimizedRMSD>
0.981902242

$$$$
