
     RDKit          3D

 37 38  0  0  0  0  0  0  0  0999 V2000
   48.0249   32.8648   41.8348 O   0  0  0  0  0  0  0  0  0  0  0  0
   47.1795   34.0161   41.3427 P   0  0  2  0  0  0  0  0  0  0  0  0
   45.5833   33.8732   41.9829 O   0  0  0  0  0  0  0  0  0  0  0  0
   44.3813   35.9371   44.6928 C   0  0  0  0  0  0  0  0  0  0  0  0
   44.6728   35.4900   43.3889 C   0  0  0  0  0  0  0  0  0  0  0  0
   45.3200   34.2600   43.2537 C   0  0  0  0  0  0  0  0  0  0  0  0
   45.6401   33.5491   44.3545 N   0  0  0  0  0  0  0  0  0  0  0  0
   45.3483   34.0021   45.5955 C   0  0  0  0  0  0  0  0  0  0  0  0
   44.7242   35.1858   45.7730 N   0  0  0  0  0  0  0  0  0  0  0  0
   46.9652   34.0132   39.6986 O   0  0  0  0  0  0  0  0  0  0  0  0
   46.3395   33.1541   38.8854 C   0  0  0  0  0  0  0  0  0  0  0  0
   46.5482   33.3676   37.6341 O   0  0  0  0  0  0  0  0  0  0  0  0
   47.7762   35.4402   41.9321 O   0  0  0  0  0  0  0  0  0  0  0  0
   49.0006   35.7362   41.3642 C   0  0  0  0  0  0  0  0  0  0  0  0
   49.4327   37.0185   41.6879 F   0  0  0  0  0  0  0  0  0  0  0  0
   49.9131   34.7875   41.6976 F   0  0  0  0  0  0  0  0  0  0  0  0
   48.8161   35.7255   39.9893 F   0  0  0  0  0  0  0  0  0  0  0  0
   43.8872   36.8752   44.8122 H   0  0  0  0  0  0  0  0  0  0  0  0
   44.3949   36.0952   42.5512 H   0  0  0  0  0  0  0  0  0  0  0  0
   45.6361   33.3767   46.4310 H   0  0  0  0  0  0  0  0  0  0  0  0
   45.6159   32.1722   38.1945 C   0  0  0  0  0  0  0  0  0  0  0  0
   44.5365   31.5033   39.0159 C   0  0  0  0  0  0  0  0  0  0  0  0
   45.0843   30.3512   39.8290 C   0  0  0  0  0  0  0  0  0  0  0  0
   45.2932   29.2314   38.8363 C   0  0  0  0  0  0  0  0  0  0  0  0
   46.0547   29.7067   37.6747 C   0  0  0  0  0  0  0  0  0  0  0  0
   46.5234   31.0723   37.5737 C   0  0  0  0  0  0  0  0  0  0  0  0
   45.0455   32.4512   37.2677 H   0  0  0  0  0  0  0  0  0  0  0  0
   43.7792   30.9909   38.3376 H   0  0  0  0  0  0  0  0  0  0  0  0
   43.9038   32.1851   39.5991 H   0  0  0  0  0  0  0  0  0  0  0  0
   44.2475   30.0597   40.5206 H   0  0  0  0  0  0  0  0  0  0  0  0
   45.9594   30.5587   40.4316 H   0  0  0  0  0  0  0  0  0  0  0  0
   45.7738   28.3995   39.4123 H   0  0  0  0  0  0  0  0  0  0  0  0
   44.2684   28.9153   38.5192 H   0  0  0  0  0  0  0  0  0  0  0  0
   45.5127   29.4206   36.7226 H   0  0  0  0  0  0  0  0  0  0  0  0
   46.9739   29.0426   37.6180 H   0  0  0  0  0  0  0  0  0  0  0  0
   46.7959   31.3315   36.5371 H   0  0  0  0  0  0  0  0  0  0  0  0
   47.4882   31.1716   38.1522 H   0  0  0  0  0  0  0  0  0  0  0  0
  2  1  2  0
  2  3  1  1
  2 13  1  0
  3  6  1  0
  4  9  2  0
  5  4  1  0
  6  5  2  0
  6  7  1  0
  7  8  2  0
  8  9  1  0
 10  2  1  0
 11 10  1  0
 12 11  2  0
 14 16  1  0
 14 15  1  0
 14 13  1  0
 17 14  1  0
  4 18  1  0
  5 19  1  0
  8 20  1  0
 21 22  1  0
 22 23  1  0
 23 24  1  0
 24 25  1  0
 25 26  1  0
 26 21  1  0
 21 27  1  0
 22 28  1  0
 22 29  1  0
 23 30  1  0
 23 31  1  0
 24 32  1  0
 24 33  1  0
 25 34  1  0
 25 35  1  0
 26 36  1  0
 26 37  1  0
 11 21  1  0
M  ISO  3  18  14  19  14  20  14
M  END
>  <DihAtoms>  (1) 
9,10,20,21

>  <DihDeg>  (1) 
-176.8377202536846

$$$$
