
 OpenBabel03242516473D

 39 43  0  0  1  0  0  0  0  0999 V2000
   36.9070   26.0870   41.5330 C   0  0  0  0  0  0  0  0  0  0  0  0
   36.5820   26.6250   40.3430 N   0  0  0  0  0  0  0  0  0  0  0  0
   36.6850   27.9580   40.3770 C   0  0  0  0  0  0  0  0  0  0  0  0
   37.0890   28.2750   41.6350 N   0  0  0  0  0  0  0  0  0  0  0  0
   37.2280   27.1690   42.3430 N   0  0  0  0  0  0  0  0  0  0  0  0
   36.4880   28.6490   39.5740 H   0  0  0  0  0  0  0  0  0  0  0  0
   36.1720   31.0500   40.6120 O   0  0  0  0  0  0  0  0  0  0  0  0
   37.2600   30.6440   41.1250 C   0  0  0  0  0  0  0  0  0  0  0  0
   37.3480   29.6020   42.1740 C   0  0  2  0  0  0  0  0  0  0  0  0
   38.7800   29.7190   42.6610 C   0  0  0  0  0  0  0  0  0  0  0  0
   39.5060   30.1000   41.3660 C   0  0  0  0  0  0  0  0  0  0  0  0
   38.6010   31.0840   40.8170 N   0  0  0  0  0  0  0  0  0  0  0  0
   36.6540   29.7600   43.0210 H   0  0  0  0  0  0  0  0  0  0  0  0
   38.9100   30.4760   43.4360 H   0  0  0  0  0  0  0  0  0  0  0  0
   39.1010   28.6930   42.9340 H   0  0  0  0  0  0  0  0  0  0  0  0
   40.4710   30.5990   41.6080 H   0  0  0  0  0  0  0  0  0  0  0  0
   39.6250   29.2110   40.7370 H   0  0  0  0  0  0  0  0  0  0  0  0
   38.9430   32.2850   40.0960 C   0  0  0  0  0  3  0  0  0  0  0  0
   38.7910   33.5090   40.9620 C   0  0  0  0  0  2  0  0  0  0  0  0
   39.1480   34.7240   40.0970 C   0  0  0  0  0  2  0  0  0  0  0  0
   40.6390   34.6310   39.8370 C   0  0  0  0  0  2  0  0  0  0  0  0
   40.8640   33.4160   38.9560 C   0  0  0  0  0  2  0  0  0  0  0  0
   40.3750   32.1580   39.6300 C   0  0  0  0  0  2  0  0  0  0  0  0
   38.1950   23.8690   42.1060 C   0  0  1  0  0  0  0  0  0  0  0  0
   36.9610   24.6940   41.9900 C   0  0  2  0  0  0  0  0  0  0  0  0
   37.2240   23.6610   41.0140 C   0  0  0  0  0  0  0  0  0  0  0  0
   38.1930   23.1750   42.9740 H   0  0  0  0  0  0  0  0  0  0  0  0
   36.1470   24.4900   42.7490 H   0  0  0  0  0  0  0  0  0  0  0  0
   36.6070   22.7160   41.0610 H   0  0  0  0  0  0  0  0  0  0  0  0
   37.4390   23.9240   39.9700 H   0  0  0  0  0  0  0  0  0  0  0  0
   40.3630   24.7660   42.9270 C   0  0  0  0  0  0  0  0  0  0  0  0
   39.5390   24.4310   41.8540 C   0  0  0  0  0  0  0  0  0  0  0  0
   40.0480   24.6360   40.5940 C   0  0  0  0  0  0  0  0  0  0  0  0
   41.3030   25.1430   40.4820 N   0  0  0  0  0  0  0  0  0  0  0  0
   42.0680   25.4550   41.5170 C   0  0  0  0  0  0  0  0  0  0  0  0
   41.5780   25.2580   42.7560 N   0  0  0  0  0  0  0  0  0  0  0  0
   40.0070   24.6230   43.9490 H   0  0  0  0  0  0  0  0  0  0  0  0
   39.4310   24.3850   39.7690 H   0  0  0  0  0  0  0  0  0  0  0  0
   43.0440   25.8480   41.2760 H   0  0  0  0  0  0  0  0  0  0  0  0
  1 25  1  0  0  0  0
  1  5  2  0  0  0  0
  2  3  2  0  0  0  0
  2  1  1  0  0  0  0
  3  4  1  0  0  0  0
  4  9  1  0  0  0  0
  4  5  1  0  0  0  0
  6  3  1  0  0  0  0
  7  8  2  0  0  0  0
  8  9  1  0  0  0  0
  9 10  1  0  0  0  0
  9 13  1  1  0  0  0
 10 15  1  0  0  0  0
 10 14  1  0  0  0  0
 11 16  1  0  0  0  0
 11 10  1  0  0  0  0
 12  8  1  0  0  0  0
 12 11  1  0  0  0  0
 17 11  1  0  0  0  0
 18 12  1  0  0  0  0
 18 19  1  0  0  0  0
 20 19  1  0  0  0  0
 21 20  1  0  0  0  0
 22 23  1  0  0  0  0
 22 21  1  0  0  0  0
 23 18  1  0  0  0  0
 24 27  1  1  0  0  0
 25 24  1  0  0  0  0
 25 28  1  1  0  0  0
 26 29  1  0  0  0  0
 26 25  1  0  0  0  0
 26 24  1  0  0  0  0
 30 26  1  0  0  0  0
 31 37  1  0  0  0  0
 32 24  1  0  0  0  0
 32 31  2  0  0  0  0
 33 32  1  0  0  0  0
 34 33  2  0  0  0  0
 34 35  1  0  0  0  0
 35 36  2  0  0  0  0
 36 31  1  0  0  0  0
 38 33  1  0  0  0  0
 39 35  1  0  0  0  0
M  END
>  <minimizedAffinity>
-6.15143061

$$$$

 OpenBabel03242516473D

 39 43  0  0  1  0  0  0  0  0999 V2000
   36.9270   28.8700   41.7840 C   0  0  0  0  0  0  0  0  0  0  0  0
   35.7460   28.7400   41.1500 N   0  0  0  0  0  0  0  0  0  0  0  0
   35.8080   29.2450   39.9140 C   0  0  0  0  0  0  0  0  0  0  0  0
   37.0750   29.7140   39.7590 N   0  0  0  0  0  0  0  0  0  0  0  0
   37.7600   29.4990   40.8670 N   0  0  0  0  0  0  0  0  0  0  0  0
   35.0180   29.2790   39.1810 H   0  0  0  0  0  0  0  0  0  0  0  0
   39.9140   29.4810   38.5450 O   0  0  0  0  0  0  0  0  0  0  0  0
   39.1180   30.4620   38.6790 C   0  0  0  0  0  0  0  0  0  0  0  0
   37.6440   30.3550   38.5830 C   0  0  2  0  0  0  0  0  0  0  0  0
   37.1970   31.8020   38.4860 C   0  0  0  0  0  0  0  0  0  0  0  0
   38.2370   32.4960   39.3710 C   0  0  0  0  0  0  0  0  0  0  0  0
   39.4530   31.8420   38.9420 N   0  0  0  0  0  0  0  0  0  0  0  0
   37.2920   29.7970   37.6950 H   0  0  0  0  0  0  0  0  0  0  0  0
   37.2110   32.1880   37.4650 H   0  0  0  0  0  0  0  0  0  0  0  0
   36.2200   31.8620   39.0080 H   0  0  0  0  0  0  0  0  0  0  0  0
   38.3010   33.5750   39.1030 H   0  0  0  0  0  0  0  0  0  0  0  0
   37.9930   32.3260   40.4250 H   0  0  0  0  0  0  0  0  0  0  0  0
   40.7610   32.4290   38.7950 C   0  0  0  0  0  3  0  0  0  0  0  0
   41.1780   32.4880   37.3480 C   0  0  0  0  0  2  0  0  0  0  0  0
   42.5850   33.0970   37.3070 C   0  0  0  0  0  2  0  0  0  0  0  0
   42.4270   34.5500   37.7110 C   0  0  0  0  0  2  0  0  0  0  0  0
   42.0130   34.5650   39.1710 C   0  0  0  0  0  2  0  0  0  0  0  0
   40.7140   33.8230   39.3750 C   0  0  0  0  0  2  0  0  0  0  0  0
   37.8900   27.1300   43.5010 C   0  0  1  0  0  0  0  0  0  0  0  0
   37.3610   28.4710   43.1270 C   0  0  2  0  0  0  0  0  0  0  0  0
   36.5280   27.5560   43.8740 C   0  0  0  0  0  0  0  0  0  0  0  0
   38.6980   27.1620   44.2650 H   0  0  0  0  0  0  0  0  0  0  0  0
   37.7880   29.3550   43.6890 H   0  0  0  0  0  0  0  0  0  0  0  0
   36.3480   27.7750   44.9680 H   0  0  0  0  0  0  0  0  0  0  0  0
   35.6250   27.1270   43.4180 H   0  0  0  0  0  0  0  0  0  0  0  0
   37.1140   25.1610   42.1980 C   0  0  0  0  0  0  0  0  0  0  0  0
   38.1260   26.0730   42.4950 C   0  0  0  0  0  0  0  0  0  0  0  0
   39.3040   25.9380   41.8030 C   0  0  0  0  0  0  0  0  0  0  0  0
   39.4030   24.9390   40.8890 N   0  0  0  0  0  0  0  0  0  0  0  0
   38.4280   24.0830   40.6230 C   0  0  0  0  0  0  0  0  0  0  0  0
   37.2690   24.2070   41.2960 N   0  0  0  0  0  0  0  0  0  0  0  0
   36.1570   25.2230   42.7190 H   0  0  0  0  0  0  0  0  0  0  0  0
   40.0820   26.6270   42.0200 H   0  0  0  0  0  0  0  0  0  0  0  0
   38.6500   23.3410   39.8710 H   0  0  0  0  0  0  0  0  0  0  0  0
  1 25  1  0  0  0  0
  2  1  1  0  0  0  0
  3  2  2  0  0  0  0
  4  3  1  0  0  0  0
  4  5  1  0  0  0  0
  5  1  2  0  0  0  0
  6  3  1  0  0  0  0
  7  8  2  0  0  0  0
  8 12  1  0  0  0  0
  9 13  1  6  0  0  0
  9  8  1  0  0  0  0
  9  4  1  0  0  0  0
 10  9  1  0  0  0  0
 10 15  1  0  0  0  0
 10 11  1  0  0  0  0
 11 17  1  0  0  0  0
 12 11  1  0  0  0  0
 14 10  1  0  0  0  0
 16 11  1  0  0  0  0
 18 12  1  0  0  0  0
 18 23  1  0  0  0  0
 19 18  1  0  0  0  0
 20 19  1  0  0  0  0
 20 21  1  0  0  0  0
 21 22  1  0  0  0  0
 22 23  1  0  0  0  0
 24 26  1  0  0  0  0
 24 27  1  1  0  0  0
 25 24  1  0  0  0  0
 25 28  1  1  0  0  0
 25 26  1  0  0  0  0
 26 29  1  0  0  0  0
 30 26  1  0  0  0  0
 31 32  1  0  0  0  0
 31 37  1  0  0  0  0
 32 24  1  0  0  0  0
 33 38  1  0  0  0  0
 33 32  2  0  0  0  0
 34 33  1  0  0  0  0
 35 34  2  0  0  0  0
 35 36  1  0  0  0  0
 36 31  2  0  0  0  0
 39 35  1  0  0  0  0
M  END
>  <minimizedAffinity>
-6.1197772

$$$$

 OpenBabel03242516473D

 39 43  0  0  1  0  0  0  0  0999 V2000
   37.6010   32.8360   39.6240 C   0  0  0  0  0  0  0  0  0  0  0  0
   37.4030   32.0710   38.5340 N   0  0  0  0  0  0  0  0  0  0  0  0
   36.7900   30.9280   38.8580 C   0  0  0  0  0  0  0  0  0  0  0  0
   36.5940   30.9700   40.2020 N   0  0  0  0  0  0  0  0  0  0  0  0
   37.0720   32.1040   40.6800 N   0  0  0  0  0  0  0  0  0  0  0  0
   36.5050   30.1280   38.1940 H   0  0  0  0  0  0  0  0  0  0  0  0
   37.6340   29.5620   42.7560 O   0  0  0  0  0  0  0  0  0  0  0  0
   36.9610   29.1450   41.7640 C   0  0  0  0  0  0  0  0  0  0  0  0
   35.9600   29.9600   41.0370 C   0  0  2  0  0  0  0  0  0  0  0  0
   35.2300   28.9360   40.1870 C   0  0  0  0  0  0  0  0  0  0  0  0
   36.3620   27.9580   39.8590 C   0  0  0  0  0  0  0  0  0  0  0  0
   37.0140   27.8420   41.1440 N   0  0  0  0  0  0  0  0  0  0  0  0
   35.2380   30.4770   41.6980 H   0  0  0  0  0  0  0  0  0  0  0  0
   34.4100   28.4460   40.7160 H   0  0  0  0  0  0  0  0  0  0  0  0
   34.9510   29.4540   39.2460 H   0  0  0  0  0  0  0  0  0  0  0  0
   35.9370   26.9670   39.5850 H   0  0  0  0  0  0  0  0  0  0  0  0
   37.0000   28.3850   39.0780 H   0  0  0  0  0  0  0  0  0  0  0  0
   37.6110   26.6640   41.7210 C   0  0  0  0  0  3  0  0  0  0  0  0
   36.9490   25.4080   41.2160 C   0  0  0  0  0  2  0  0  0  0  0  0
   37.6340   24.2240   41.9100 C   0  0  0  0  0  2  0  0  0  0  0  0
   39.0390   24.1600   41.3440 C   0  0  0  0  0  2  0  0  0  0  0  0
   39.7700   25.4000   41.8250 C   0  0  0  0  0  2  0  0  0  0  0  0
   39.0770   26.6560   41.3560 C   0  0  0  0  0  2  0  0  0  0  0  0
   39.6740   34.4360   39.8490 C   0  0  1  0  0  0  0  0  0  0  0  0
   38.2120   34.1600   39.7870 C   0  0  2  0  0  0  0  0  0  0  0  0
   38.8240   34.4830   41.0550 C   0  0  0  0  0  0  0  0  0  0  0  0
   39.9730   35.3870   39.3580 H   0  0  0  0  0  0  0  0  0  0  0  0
   37.5690   34.9590   39.3060 H   0  0  0  0  0  0  0  0  0  0  0  0
   38.6280   35.5050   41.4940 H   0  0  0  0  0  0  0  0  0  0  0  0
   38.8830   33.7300   41.8520 H   0  0  0  0  0  0  0  0  0  0  0  0
   41.1090   33.0580   38.3600 C   0  0  0  0  0  0  0  0  0  0  0  0
   40.6800   33.3720   39.6490 C   0  0  0  0  0  0  0  0  0  0  0  0
   41.2480   32.6650   40.6810 C   0  0  0  0  0  0  0  0  0  0  0  0
   42.1760   31.7210   40.3800 N   0  0  0  0  0  0  0  0  0  0  0  0
   42.5680   31.4380   39.1470 C   0  0  0  0  0  0  0  0  0  0  0  0
   42.0180   32.1260   38.1290 N   0  0  0  0  0  0  0  0  0  0  0  0
   40.6910   33.5900   37.5040 H   0  0  0  0  0  0  0  0  0  0  0  0
   40.9290   32.8950   41.6660 H   0  0  0  0  0  0  0  0  0  0  0  0
   43.3140   30.6640   39.0600 H   0  0  0  0  0  0  0  0  0  0  0  0
  1 25  1  0  0  0  0
  1  5  2  0  0  0  0
  2  3  2  0  0  0  0
  2  1  1  0  0  0  0
  3  4  1  0  0  0  0
  4  5  1  0  0  0  0
  4  9  1  0  0  0  0
  6  3  1  0  0  0  0
  8  7  2  0  0  0  0
  9 13  1  1  0  0  0
  9  8  1  0  0  0  0
 10 14  1  0  0  0  0
 10  9  1  0  0  0  0
 11 10  1  0  0  0  0
 11 12  1  0  0  0  0
 12 18  1  0  0  0  0
 12  8  1  0  0  0  0
 15 10  1  0  0  0  0
 16 11  1  0  0  0  0
 17 11  1  0  0  0  0
 19 18  1  0  0  0  0
 19 20  1  0  0  0  0
 21 22  1  0  0  0  0
 21 20  1  0  0  0  0
 23 18  1  0  0  0  0
 23 22  1  0  0  0  0
 24 27  1  6  0  0  0
 24 26  1  0  0  0  0
 25 28  1  6  0  0  0
 25 24  1  0  0  0  0
 25 26  1  0  0  0  0
 26 29  1  0  0  0  0
 26 30  1  0  0  0  0
 31 32  1  0  0  0  0
 32 24  1  0  0  0  0
 32 33  2  0  0  0  0
 33 38  1  0  0  0  0
 34 33  1  0  0  0  0
 35 34  2  0  0  0  0
 36 31  2  0  0  0  0
 36 35  1  0  0  0  0
 37 31  1  0  0  0  0
 39 35  1  0  0  0  0
M  END
>  <minimizedAffinity>
-6.00401211

$$$$

 OpenBabel03242516473D

 39 43  0  0  1  0  0  0  0  0999 V2000
   36.7500   30.9200   40.3420 C   0  0  0  0  0  0  0  0  0  0  0  0
   35.7280   30.0450   40.3940 N   0  0  0  0  0  0  0  0  0  0  0  0
   35.8860   29.1860   41.4070 C   0  0  0  0  0  0  0  0  0  0  0  0
   37.0500   29.5300   42.0180 N   0  0  0  0  0  0  0  0  0  0  0  0
   37.5820   30.5660   41.3960 N   0  0  0  0  0  0  0  0  0  0  0  0
   35.2280   28.3790   41.6880 H   0  0  0  0  0  0  0  0  0  0  0  0
   40.0360   29.2550   42.7910 O   0  0  0  0  0  0  0  0  0  0  0  0
   39.0480   28.4640   42.8970 C   0  0  0  0  0  0  0  0  0  0  0  0
   37.6610   28.8990   43.1780 C   0  0  2  0  0  0  0  0  0  0  0  0
   36.9530   27.6020   43.5240 C   0  0  0  0  0  0  0  0  0  0  0  0
   37.6750   26.6130   42.6030 C   0  0  0  0  0  0  0  0  0  0  0  0
   39.0510   27.0250   42.7730 N   0  0  0  0  0  0  0  0  0  0  0  0
   37.5760   29.6050   44.0270 H   0  0  0  0  0  0  0  0  0  0  0  0
   37.0540   27.3250   44.5750 H   0  0  0  0  0  0  0  0  0  0  0  0
   35.9130   27.7050   43.1530 H   0  0  0  0  0  0  0  0  0  0  0  0
   37.5630   25.5780   42.9980 H   0  0  0  0  0  0  0  0  0  0  0  0
   37.3040   26.7280   41.5790 H   0  0  0  0  0  0  0  0  0  0  0  0
   40.2200   26.1830   42.8140 C   0  0  0  0  0  3  0  0  0  0  0  0
   41.0200   26.2890   41.5410 C   0  0  0  0  0  2  0  0  0  0  0  0
   42.2150   25.3380   41.6760 C   0  0  0  0  0  2  0  0  0  0  0  0
   43.1160   25.9430   42.7360 C   0  0  0  0  0  2  0  0  0  0  0  0
   42.3710   25.8600   44.0550 C   0  0  0  0  0  2  0  0  0  0  0  0
   41.0640   26.6140   43.9900 C   0  0  0  0  0  2  0  0  0  0  0  0
   37.5860   31.9250   38.0630 C   0  0  1  0  0  0  0  0  0  0  0  0
   37.0260   32.0410   39.4370 C   0  0  2  0  0  0  0  0  0  0  0  0
   38.4030   32.4040   39.1940 C   0  0  0  0  0  0  0  0  0  0  0  0
   37.1690   32.6630   37.3430 H   0  0  0  0  0  0  0  0  0  0  0  0
   36.2940   32.8870   39.6120 H   0  0  0  0  0  0  0  0  0  0  0  0
   38.6710   33.5020   39.1940 H   0  0  0  0  0  0  0  0  0  0  0  0
   39.2200   31.8120   39.6290 H   0  0  0  0  0  0  0  0  0  0  0  0
   39.0390   29.9520   37.6470 C   0  0  0  0  0  0  0  0  0  0  0  0
   37.8320   30.6140   37.4260 C   0  0  0  0  0  0  0  0  0  0  0  0
   36.9170   29.9810   36.6210 C   0  0  0  0  0  0  0  0  0  0  0  0
   37.2440   28.7700   36.1030 N   0  0  0  0  0  0  0  0  0  0  0  0
   38.3980   28.1590   36.3260 C   0  0  0  0  0  0  0  0  0  0  0  0
   39.3020   28.7710   37.1140 N   0  0  0  0  0  0  0  0  0  0  0  0
   39.8010   30.4100   38.2800 H   0  0  0  0  0  0  0  0  0  0  0  0
   35.9940   30.4750   36.4450 H   0  0  0  0  0  0  0  0  0  0  0  0
   38.5180   27.1990   35.8490 H   0  0  0  0  0  0  0  0  0  0  0  0
  1  2  1  0  0  0  0
  1  5  2  0  0  0  0
  2  3  2  0  0  0  0
  3  6  1  0  0  0  0
  3  4  1  0  0  0  0
  4  9  1  0  0  0  0
  5  4  1  0  0  0  0
  7  8  2  0  0  0  0
  8  9  1  0  0  0  0
  9 10  1  0  0  0  0
  9 13  1  1  0  0  0
 10 14  1  0  0  0  0
 11 12  1  0  0  0  0
 11 16  1  0  0  0  0
 11 10  1  0  0  0  0
 12 18  1  0  0  0  0
 12  8  1  0  0  0  0
 15 10  1  0  0  0  0
 17 11  1  0  0  0  0
 18 23  1  0  0  0  0
 19 20  1  0  0  0  0
 19 18  1  0  0  0  0
 20 21  1  0  0  0  0
 21 22  1  0  0  0  0
 23 22  1  0  0  0  0
 24 27  1  6  0  0  0
 24 26  1  0  0  0  0
 24 25  1  0  0  0  0
 25 28  1  1  0  0  0
 25  1  1  0  0  0  0
 26 25  1  0  0  0  0
 26 30  1  0  0  0  0
 29 26  1  0  0  0  0
 31 37  1  0  0  0  0
 32 31  1  0  0  0  0
 32 24  1  0  0  0  0
 33 32  2  0  0  0  0
 34 35  2  0  0  0  0
 34 33  1  0  0  0  0
 35 36  1  0  0  0  0
 36 31  2  0  0  0  0
 38 33  1  0  0  0  0
 39 35  1  0  0  0  0
M  END
>  <minimizedAffinity>
-5.88585234

$$$$

 OpenBabel03242516473D

 39 43  0  0  1  0  0  0  0  0999 V2000
   37.1270   26.6540   42.6620 C   0  0  0  0  0  0  0  0  0  0  0  0
   37.6850   27.4200   43.6180 N   0  0  0  0  0  0  0  0  0  0  0  0
   37.6180   28.7160   43.2930 C   0  0  0  0  0  0  0  0  0  0  0  0
   36.9940   28.7710   42.0860 N   0  0  0  0  0  0  0  0  0  0  0  0
   36.6930   27.5470   41.6920 N   0  0  0  0  0  0  0  0  0  0  0  0
   37.9820   29.5530   43.8650 H   0  0  0  0  0  0  0  0  0  0  0  0
   34.6050   29.3330   40.1980 O   0  0  0  0  0  0  0  0  0  0  0  0
   35.8370   29.6330   40.1320 C   0  0  0  0  0  0  0  0  0  0  0  0
   36.6780   29.9590   41.3070 C   0  0  2  0  0  0  0  0  0  0  0  0
   37.9300   30.5480   40.6860 C   0  0  0  0  0  0  0  0  0  0  0  0
   38.0380   29.7280   39.3960 C   0  0  0  0  0  0  0  0  0  0  0  0
   36.6630   29.7230   38.9510 N   0  0  0  0  0  0  0  0  0  0  0  0
   36.2210   30.6970   41.9940 H   0  0  0  0  0  0  0  0  0  0  0  0
   37.8460   31.6170   40.4810 H   0  0  0  0  0  0  0  0  0  0  0  0
   38.7740   30.2510   41.3420 H   0  0  0  0  0  0  0  0  0  0  0  0
   38.6520   30.2790   38.6490 H   0  0  0  0  0  0  0  0  0  0  0  0
   38.4300   28.7310   39.6270 H   0  0  0  0  0  0  0  0  0  0  0  0
   36.1800   29.7940   37.5940 C   0  0  0  0  0  3  0  0  0  0  0  0
   37.1960   30.4300   36.6810 C   0  0  0  0  0  2  0  0  0  0  0  0
   36.5750   30.4840   35.2800 C   0  0  0  0  0  2  0  0  0  0  0  0
   36.4900   29.0480   34.8020 C   0  0  0  0  0  2  0  0  0  0  0  0
   35.4700   28.3450   35.6790 C   0  0  0  0  0  2  0  0  0  0  0  0
   35.8810   28.3870   37.1310 C   0  0  0  0  0  2  0  0  0  0  0  0
   38.0050   24.2240   42.1790 C   0  0  1  0  0  0  0  0  0  0  0  0
   36.9480   25.2020   42.5600 C   0  0  2  0  0  0  0  0  0  0  0  0
   36.9270   24.6030   41.2460 C   0  0  0  0  0  0  0  0  0  0  0  0
   37.9390   23.2560   42.7220 H   0  0  0  0  0  0  0  0  0  0  0  0
   36.1740   24.8410   43.3030 H   0  0  0  0  0  0  0  0  0  0  0  0
   36.1440   23.8160   41.0330 H   0  0  0  0  0  0  0  0  0  0  0  0
   37.1030   25.2160   40.3520 H   0  0  0  0  0  0  0  0  0  0  0  0
   40.3080   24.6330   43.0180 C   0  0  0  0  0  0  0  0  0  0  0  0
   39.4070   24.6360   41.9550 C   0  0  0  0  0  0  0  0  0  0  0  0
   39.8960   25.0160   40.7290 C   0  0  0  0  0  0  0  0  0  0  0  0
   41.2060   25.3580   40.6370 N   0  0  0  0  0  0  0  0  0  0  0  0
   42.0450   25.3490   41.6620 C   0  0  0  0  0  0  0  0  0  0  0  0
   41.5760   24.9770   42.8680 N   0  0  0  0  0  0  0  0  0  0  0  0
   39.9720   24.3390   44.0150 H   0  0  0  0  0  0  0  0  0  0  0  0
   39.2190   25.0230   39.9120 H   0  0  0  0  0  0  0  0  0  0  0  0
   43.0590   25.6450   41.4390 H   0  0  0  0  0  0  0  0  0  0  0  0
  1  2  1  0  0  0  0
  3  2  2  0  0  0  0
  3  6  1  0  0  0  0
  4  3  1  0  0  0  0
  5  4  1  0  0  0  0
  5  1  2  0  0  0  0
  8  7  2  0  0  0  0
  8  9  1  0  0  0  0
  9 13  1  1  0  0  0
  9  4  1  0  0  0  0
 10  9  1  0  0  0  0
 10 15  1  0  0  0  0
 11 17  1  0  0  0  0
 11 10  1  0  0  0  0
 12 11  1  0  0  0  0
 12  8  1  0  0  0  0
 14 10  1  0  0  0  0
 16 11  1  0  0  0  0
 18 12  1  0  0  0  0
 19 18  1  0  0  0  0
 20 19  1  0  0  0  0
 21 20  1  0  0  0  0
 21 22  1  0  0  0  0
 22 23  1  0  0  0  0
 23 18  1  0  0  0  0
 24 25  1  0  0  0  0
 24 27  1  1  0  0  0
 25  1  1  0  0  0  0
 25 28  1  1  0  0  0
 26 24  1  0  0  0  0
 26 25  1  0  0  0  0
 29 26  1  0  0  0  0
 30 26  1  0  0  0  0
 31 37  1  0  0  0  0
 32 24  1  0  0  0  0
 32 31  2  0  0  0  0
 33 32  1  0  0  0  0
 34 33  2  0  0  0  0
 34 35  1  0  0  0  0
 35 36  2  0  0  0  0
 36 31  1  0  0  0  0
 38 33  1  0  0  0  0
 39 35  1  0  0  0  0
M  END
>  <minimizedAffinity>
-5.87876081

$$$$

 OpenBabel03242516473D

 39 43  0  0  1  0  0  0  0  0999 V2000
   36.9740   29.0030   41.8100 C   0  0  0  0  0  0  0  0  0  0  0  0
   36.8340   28.3660   40.6320 N   0  0  0  0  0  0  0  0  0  0  0  0
   36.9480   29.2200   39.6100 C   0  0  0  0  0  0  0  0  0  0  0  0
   37.1690   30.4430   40.1600 N   0  0  0  0  0  0  0  0  0  0  0  0
   37.1890   30.3340   41.4760 N   0  0  0  0  0  0  0  0  0  0  0  0
   36.8800   28.9940   38.5580 H   0  0  0  0  0  0  0  0  0  0  0  0
   38.1050   30.9880   37.2590 O   0  0  0  0  0  0  0  0  0  0  0  0
   38.3450   31.5740   38.3600 C   0  0  0  0  0  0  0  0  0  0  0  0
   37.3650   31.7050   39.4630 C   0  0  2  0  0  0  0  0  0  0  0  0
   38.0060   32.7340   40.3760 C   0  0  0  0  0  0  0  0  0  0  0  0
   39.4920   32.4040   40.2010 C   0  0  0  0  0  0  0  0  0  0  0  0
   39.5710   32.2160   38.7700 N   0  0  0  0  0  0  0  0  0  0  0  0
   36.3710   32.0660   39.1380 H   0  0  0  0  0  0  0  0  0  0  0  0
   37.7830   33.7630   40.0870 H   0  0  0  0  0  0  0  0  0  0  0  0
   37.7210   32.4540   41.4110 H   0  0  0  0  0  0  0  0  0  0  0  0
   40.1100   33.2870   40.4780 H   0  0  0  0  0  0  0  0  0  0  0  0
   39.7380   31.5060   40.7780 H   0  0  0  0  0  0  0  0  0  0  0  0
   40.6550   32.5890   37.8940 C   0  0  0  0  0  3  0  0  0  0  0  0
   41.4350   33.7520   38.4510 C   0  0  0  0  0  2  0  0  0  0  0  0
   42.5360   34.0860   37.4370 C   0  0  0  0  0  2  0  0  0  0  0  0
   43.5110   32.9260   37.4780 C   0  0  0  0  0  2  0  0  0  0  0  0
   42.7880   31.7150   36.9190 C   0  0  0  0  0  2  0  0  0  0  0  0
   41.5600   31.3910   37.7350 C   0  0  0  0  0  2  0  0  0  0  0  0
   37.9400   27.5960   43.8080 C   0  0  1  0  0  0  0  0  0  0  0  0
   36.9420   28.5130   43.1920 C   0  0  2  0  0  0  0  0  0  0  0  0
   36.5940   27.1300   43.4220 C   0  0  0  0  0  0  0  0  0  0  0  0
   38.1540   27.8150   44.8760 H   0  0  0  0  0  0  0  0  0  0  0  0
   36.4760   29.2830   43.8790 H   0  0  0  0  0  0  0  0  0  0  0  0
   35.8810   26.8950   44.2660 H   0  0  0  0  0  0  0  0  0  0  0  0
   36.4200   26.4520   42.5760 H   0  0  0  0  0  0  0  0  0  0  0  0
   39.1480   25.9440   42.3970 C   0  0  0  0  0  0  0  0  0  0  0  0
   39.1520   27.1570   43.0830 C   0  0  0  0  0  0  0  0  0  0  0  0
   40.3080   27.8970   43.0270 C   0  0  0  0  0  0  0  0  0  0  0  0
   41.3540   27.4030   42.3160 N   0  0  0  0  0  0  0  0  0  0  0  0
   41.3280   26.2460   41.6720 C   0  0  0  0  0  0  0  0  0  0  0  0
   40.1990   25.5140   41.7200 N   0  0  0  0  0  0  0  0  0  0  0  0
   38.2540   25.3170   42.4080 H   0  0  0  0  0  0  0  0  0  0  0  0
   40.3230   28.8230   43.5450 H   0  0  0  0  0  0  0  0  0  0  0  0
   42.2340   25.9820   41.1490 H   0  0  0  0  0  0  0  0  0  0  0  0
  1 25  1  0  0  0  0
  2  1  1  0  0  0  0
  3  4  1  0  0  0  0
  3  2  2  0  0  0  0
  4  5  1  0  0  0  0
  5  1  2  0  0  0  0
  6  3  1  0  0  0  0
  7  8  2  0  0  0  0
  8 12  1  0  0  0  0
  8  9  1  0  0  0  0
  9 13  1  6  0  0  0
  9  4  1  0  0  0  0
  9 10  1  0  0  0  0
 10 15  1  0  0  0  0
 11 10  1  0  0  0  0
 11 16  1  0  0  0  0
 11 17  1  0  0  0  0
 12 11  1  0  0  0  0
 14 10  1  0  0  0  0
 18 19  1  0  0  0  0
 18 12  1  0  0  0  0
 20 21  1  0  0  0  0
 20 19  1  0  0  0  0
 22 21  1  0  0  0  0
 22 23  1  0  0  0  0
 23 18  1  0  0  0  0
 24 27  1  1  0  0  0
 25 26  1  0  0  0  0
 25 24  1  0  0  0  0
 25 28  1  1  0  0  0
 26 24  1  0  0  0  0
 26 29  1  0  0  0  0
 30 26  1  0  0  0  0
 31 37  1  0  0  0  0
 31 32  1  0  0  0  0
 32 24  1  0  0  0  0
 33 32  2  0  0  0  0
 33 38  1  0  0  0  0
 34 33  1  0  0  0  0
 35 36  1  0  0  0  0
 35 34  2  0  0  0  0
 36 31  2  0  0  0  0
 39 35  1  0  0  0  0
M  END
>  <minimizedAffinity>
-5.84101391

$$$$

 OpenBabel03242516473D

 39 43  0  0  1  0  0  0  0  0999 V2000
   36.7010   25.9420   39.2360 C   0  0  0  0  0  0  0  0  0  0  0  0
   37.6260   26.1720   38.2860 N   0  0  0  0  0  0  0  0  0  0  0  0
   37.6130   27.4540   37.9060 C   0  0  0  0  0  0  0  0  0  0  0  0
   36.6440   28.0580   38.6430 N   0  0  0  0  0  0  0  0  0  0  0  0
   36.0860   27.1700   39.4450 N   0  0  0  0  0  0  0  0  0  0  0  0
   38.2410   27.9220   37.1650 H   0  0  0  0  0  0  0  0  0  0  0  0
   38.2630   30.5670   37.8240 O   0  0  0  0  0  0  0  0  0  0  0  0
   37.4070   30.3620   38.7390 C   0  0  0  0  0  0  0  0  0  0  0  0
   36.2430   29.4560   38.6010 C   0  0  2  0  0  0  0  0  0  0  0  0
   35.3850   29.8090   39.8020 C   0  0  0  0  0  0  0  0  0  0  0  0
   36.4540   30.1440   40.8460 C   0  0  0  0  0  0  0  0  0  0  0  0
   37.3730   30.9390   40.0620 N   0  0  0  0  0  0  0  0  0  0  0  0
   35.6630   29.6110   37.6720 H   0  0  0  0  0  0  0  0  0  0  0  0
   34.7170   30.6540   39.6190 H   0  0  0  0  0  0  0  0  0  0  0  0
   34.8900   28.8680   40.1190 H   0  0  0  0  0  0  0  0  0  0  0  0
   36.0160   30.7870   41.6420 H   0  0  0  0  0  0  0  0  0  0  0  0
   36.8920   29.2170   41.2320 H   0  0  0  0  0  0  0  0  0  0  0  0
   38.1230   32.0920   40.4930 C   0  0  0  0  0  3  0  0  0  0  0  0
   39.5940   31.9290   40.2080 C   0  0  0  0  0  2  0  0  0  0  0  0
   40.2990   33.1870   40.7290 C   0  0  0  0  0  2  0  0  0  0  0  0
   39.8640   34.3200   39.8190 C   0  0  0  0  0  2  0  0  0  0  0  0
   38.3840   34.5450   40.0630 C   0  0  0  0  0  2  0  0  0  0  0  0
   37.5870   33.2990   39.7600 C   0  0  0  0  0  2  0  0  0  0  0  0
   36.8190   24.3570   41.3290 C   0  0  1  0  0  0  0  0  0  0  0  0
   36.3380   24.7240   39.9680 C   0  0  2  0  0  0  0  0  0  0  0  0
   37.3370   23.6910   40.1190 C   0  0  0  0  0  0  0  0  0  0  0  0
   36.0570   23.8390   41.9510 H   0  0  0  0  0  0  0  0  0  0  0  0
   35.2900   24.3920   39.6990 H   0  0  0  0  0  0  0  0  0  0  0  0
   37.0200   22.6180   39.9590 H   0  0  0  0  0  0  0  0  0  0  0  0
   38.3580   23.8460   39.7470 H   0  0  0  0  0  0  0  0  0  0  0  0
   37.0880   26.3890   42.7360 C   0  0  0  0  0  0  0  0  0  0  0  0
   37.6590   25.2690   42.1340 C   0  0  0  0  0  0  0  0  0  0  0  0
   39.0020   25.0690   42.3460 C   0  0  0  0  0  0  0  0  0  0  0  0
   39.6720   25.9640   43.1170 N   0  0  0  0  0  0  0  0  0  0  0  0
   39.1070   27.0220   43.6790 C   0  0  0  0  0  0  0  0  0  0  0  0
   37.7920   27.2270   43.4780 N   0  0  0  0  0  0  0  0  0  0  0  0
   36.0240   26.5950   42.6000 H   0  0  0  0  0  0  0  0  0  0  0  0
   39.4490   24.2210   41.8930 H   0  0  0  0  0  0  0  0  0  0  0  0
   39.7640   27.6450   44.2670 H   0  0  0  0  0  0  0  0  0  0  0  0
  1  5  2  0  0  0  0
  1 25  1  0  0  0  0
  2  1  1  0  0  0  0
  3  2  2  0  0  0  0
  3  4  1  0  0  0  0
  4  5  1  0  0  0  0
  6  3  1  0  0  0  0
  7  8  2  0  0  0  0
  8 12  1  0  0  0  0
  9 13  1  6  0  0  0
  9  4  1  0  0  0  0
  9  8  1  0  0  0  0
  9 10  1  0  0  0  0
 10 15  1  0  0  0  0
 10 11  1  0  0  0  0
 11 17  1  0  0  0  0
 11 16  1  0  0  0  0
 12 18  1  0  0  0  0
 12 11  1  0  0  0  0
 14 10  1  0  0  0  0
 19 18  1  0  0  0  0
 19 20  1  0  0  0  0
 21 22  1  0  0  0  0
 21 20  1  0  0  0  0
 23 22  1  0  0  0  0
 23 18  1  0  0  0  0
 24 27  1  1  0  0  0
 24 32  1  0  0  0  0
 25 28  1  6  0  0  0
 25 26  1  0  0  0  0
 25 24  1  0  0  0  0
 26 24  1  0  0  0  0
 29 26  1  0  0  0  0
 30 26  1  0  0  0  0
 31 36  1  0  0  0  0
 32 33  1  0  0  0  0
 32 31  2  0  0  0  0
 33 34  2  0  0  0  0
 34 35  1  0  0  0  0
 35 39  1  0  0  0  0
 36 35  2  0  0  0  0
 37 31  1  0  0  0  0
 38 33  1  0  0  0  0
M  END
>  <minimizedAffinity>
-5.81259727

$$$$

 OpenBabel03242516473D

 39 43  0  0  1  0  0  0  0  0999 V2000
   38.6350   29.5940   42.4140 C   0  0  0  0  0  0  0  0  0  0  0  0
   39.8870   30.0780   42.5200 N   0  0  0  0  0  0  0  0  0  0  0  0
   40.2710   30.6640   41.3810 C   0  0  0  0  0  0  0  0  0  0  0  0
   39.2230   30.5460   40.5230 N   0  0  0  0  0  0  0  0  0  0  0  0
   38.2350   29.9090   41.1220 N   0  0  0  0  0  0  0  0  0  0  0  0
   41.2180   31.1360   41.1750 H   0  0  0  0  0  0  0  0  0  0  0  0
   36.8990   31.9600   39.0440 O   0  0  0  0  0  0  0  0  0  0  0  0
   37.7440   31.0870   38.6740 C   0  0  0  0  0  0  0  0  0  0  0  0
   39.1440   31.0290   39.1520 C   0  0  2  0  0  0  0  0  0  0  0  0
   39.7980   30.0500   38.1940 C   0  0  0  0  0  0  0  0  0  0  0  0
   38.6430   29.0810   37.9230 C   0  0  0  0  0  0  0  0  0  0  0  0
   37.5410   30.0000   37.7440 N   0  0  0  0  0  0  0  0  0  0  0  0
   39.6730   32.0000   39.1080 H   0  0  0  0  0  0  0  0  0  0  0  0
   40.1560   30.5210   37.2770 H   0  0  0  0  0  0  0  0  0  0  0  0
   40.5620   29.5020   38.7830 H   0  0  0  0  0  0  0  0  0  0  0  0
   38.8180   28.5450   36.9630 H   0  0  0  0  0  0  0  0  0  0  0  0
   38.5200   28.4080   38.7780 H   0  0  0  0  0  0  0  0  0  0  0  0
   36.4390   29.8810   36.8220 C   0  0  0  0  0  3  0  0  0  0  0  0
   36.8270   29.0860   35.6010 C   0  0  0  0  0  2  0  0  0  0  0  0
   35.6030   29.0450   34.6790 C   0  0  0  0  0  2  0  0  0  0  0  0
   34.5770   28.1770   35.3810 C   0  0  0  0  0  2  0  0  0  0  0  0
   34.1340   28.9260   36.6230 C   0  0  0  0  0  2  0  0  0  0  0  0
   35.3010   29.1970   37.5410 C   0  0  0  0  0  2  0  0  0  0  0  0
   37.9330   27.4680   43.7910 C   0  0  1  0  0  0  0  0  0  0  0  0
   37.7790   28.8900   43.3750 C   0  0  2  0  0  0  0  0  0  0  0  0
   36.8580   27.8950   42.8750 C   0  0  0  0  0  0  0  0  0  0  0  0
   37.6940   27.2840   44.8610 H   0  0  0  0  0  0  0  0  0  0  0  0
   37.3880   29.6040   44.1620 H   0  0  0  0  0  0  0  0  0  0  0  0
   35.8080   27.8870   43.2900 H   0  0  0  0  0  0  0  0  0  0  0  0
   36.8480   27.6330   41.8080 H   0  0  0  0  0  0  0  0  0  0  0  0
   40.2550   26.6210   44.0510 C   0  0  0  0  0  0  0  0  0  0  0  0
   39.0640   26.6360   43.3280 C   0  0  0  0  0  0  0  0  0  0  0  0
   39.0090   25.8420   42.2080 C   0  0  0  0  0  0  0  0  0  0  0  0
   40.1030   25.1060   41.8870 N   0  0  0  0  0  0  0  0  0  0  0  0
   41.2260   25.1080   42.5900 C   0  0  0  0  0  0  0  0  0  0  0  0
   41.2900   25.8830   43.6890 N   0  0  0  0  0  0  0  0  0  0  0  0
   40.3530   27.2340   44.9500 H   0  0  0  0  0  0  0  0  0  0  0  0
   38.1070   25.8450   41.6490 H   0  0  0  0  0  0  0  0  0  0  0  0
   42.0130   24.4720   42.2140 H   0  0  0  0  0  0  0  0  0  0  0  0
  1  2  1  0  0  0  0
  1 25  1  0  0  0  0
  3  2  2  0  0  0  0
  4  5  1  0  0  0  0
  4  3  1  0  0  0  0
  5  1  2  0  0  0  0
  6  3  1  0  0  0  0
  8  7  2  0  0  0  0
  8  9  1  0  0  0  0
  9 13  1  6  0  0  0
  9  4  1  0  0  0  0
 10 15  1  0  0  0  0
 10  9  1  0  0  0  0
 11 10  1  0  0  0  0
 11 17  1  0  0  0  0
 12 11  1  0  0  0  0
 12  8  1  0  0  0  0
 14 10  1  0  0  0  0
 16 11  1  0  0  0  0
 18 23  1  0  0  0  0
 18 12  1  0  0  0  0
 19 18  1  0  0  0  0
 20 21  1  0  0  0  0
 20 19  1  0  0  0  0
 21 22  1  0  0  0  0
 22 23  1  0  0  0  0
 24 27  1  1  0  0  0
 25 24  1  0  0  0  0
 25 28  1  1  0  0  0
 26 29  1  0  0  0  0
 26 25  1  0  0  0  0
 26 24  1  0  0  0  0
 30 26  1  0  0  0  0
 31 37  1  0  0  0  0
 32 24  1  0  0  0  0
 32 31  2  0  0  0  0
 33 32  1  0  0  0  0
 34 33  2  0  0  0  0
 34 35  1  0  0  0  0
 35 36  2  0  0  0  0
 36 31  1  0  0  0  0
 38 33  1  0  0  0  0
 39 35  1  0  0  0  0
M  END
>  <minimizedAffinity>
-5.77163124

$$$$

 OpenBabel03242516473D

 39 43  0  0  1  0  0  0  0  0999 V2000
   36.2730   28.7790   40.0630 C   0  0  0  0  0  0  0  0  0  0  0  0
   35.8640   29.5000   41.1230 N   0  0  0  0  0  0  0  0  0  0  0  0
   36.0960   30.8030   40.9330 C   0  0  0  0  0  0  0  0  0  0  0  0
   36.6740   30.9100   39.7080 N   0  0  0  0  0  0  0  0  0  0  0  0
   36.7890   29.7100   39.1710 N   0  0  0  0  0  0  0  0  0  0  0  0
   35.8740   31.6120   41.6110 H   0  0  0  0  0  0  0  0  0  0  0  0
   37.8080   31.3140   36.8550 O   0  0  0  0  0  0  0  0  0  0  0  0
   38.1000   31.8380   37.9740 C   0  0  0  0  0  0  0  0  0  0  0  0
   37.1140   32.1270   39.0400 C   0  0  2  0  0  0  0  0  0  0  0  0
   37.8850   33.0200   39.9950 C   0  0  0  0  0  0  0  0  0  0  0  0
   39.2970   32.4390   39.8720 C   0  0  0  0  0  0  0  0  0  0  0  0
   39.4020   32.2540   38.4420 N   0  0  0  0  0  0  0  0  0  0  0  0
   36.2110   32.6570   38.6830 H   0  0  0  0  0  0  0  0  0  0  0  0
   37.8540   34.0740   39.7150 H   0  0  0  0  0  0  0  0  0  0  0  0
   37.5130   32.7830   41.0130 H   0  0  0  0  0  0  0  0  0  0  0  0
   40.0460   33.1990   40.1880 H   0  0  0  0  0  0  0  0  0  0  0  0
   39.3610   31.5060   40.4430 H   0  0  0  0  0  0  0  0  0  0  0  0
   40.5680   32.4430   37.6160 C   0  0  0  0  0  3  0  0  0  0  0  0
   41.4670   33.5180   38.1710 C   0  0  0  0  0  2  0  0  0  0  0  0
   42.6530   33.6590   37.2090 C   0  0  0  0  0  2  0  0  0  0  0  0
   43.4620   32.3840   37.3490 C   0  0  0  0  0  2  0  0  0  0  0  0
   42.6140   31.2540   36.7970 C   0  0  0  0  0  2  0  0  0  0  0  0
   41.3130   31.1300   37.5530 C   0  0  0  0  0  2  0  0  0  0  0  0
   37.1020   26.3100   40.4180 C   0  0  1  0  0  0  0  0  0  0  0  0
   36.2280   27.3380   39.7890 C   0  0  2  0  0  0  0  0  0  0  0  0
   37.3030   26.7500   39.0240 C   0  0  0  0  0  0  0  0  0  0  0  0
   36.5910   25.3430   40.6140 H   0  0  0  0  0  0  0  0  0  0  0  0
   35.1740   27.0130   39.5310 H   0  0  0  0  0  0  0  0  0  0  0  0
   37.0360   26.0070   38.2160 H   0  0  0  0  0  0  0  0  0  0  0  0
   38.1610   27.3600   38.7110 H   0  0  0  0  0  0  0  0  0  0  0  0
   39.3920   26.9310   41.1610 C   0  0  0  0  0  0  0  0  0  0  0  0
   38.0660   26.6510   41.4860 C   0  0  0  0  0  0  0  0  0  0  0  0
   37.7250   26.7250   42.8150 C   0  0  0  0  0  0  0  0  0  0  0  0
   38.6890   27.0640   43.7090 N   0  0  0  0  0  0  0  0  0  0  0  0
   39.9440   27.3260   43.3760 C   0  0  0  0  0  0  0  0  0  0  0  0
   40.2880   27.2560   42.0770 N   0  0  0  0  0  0  0  0  0  0  0  0
   39.7160   26.8870   40.1190 H   0  0  0  0  0  0  0  0  0  0  0  0
   36.7180   26.5140   43.0760 H   0  0  0  0  0  0  0  0  0  0  0  0
   40.6000   27.5820   44.1940 H   0  0  0  0  0  0  0  0  0  0  0  0
  1  2  1  0  0  0  0
  3  2  2  0  0  0  0
  3  6  1  0  0  0  0
  4  3  1  0  0  0  0
  5  4  1  0  0  0  0
  5  1  2  0  0  0  0
  7  8  2  0  0  0  0
  8 12  1  0  0  0  0
  8  9  1  0  0  0  0
  9 13  1  6  0  0  0
  9  4  1  0  0  0  0
  9 10  1  0  0  0  0
 10 15  1  0  0  0  0
 11 10  1  0  0  0  0
 11 16  1  0  0  0  0
 11 17  1  0  0  0  0
 12 11  1  0  0  0  0
 14 10  1  0  0  0  0
 18 19  1  0  0  0  0
 18 12  1  0  0  0  0
 20 21  1  0  0  0  0
 20 19  1  0  0  0  0
 22 21  1  0  0  0  0
 22 23  1  0  0  0  0
 23 18  1  0  0  0  0
 24 27  1  1  0  0  0
 24 32  1  0  0  0  0
 25 28  1  6  0  0  0
 25  1  1  0  0  0  0
 25 24  1  0  0  0  0
 26 25  1  0  0  0  0
 26 24  1  0  0  0  0
 29 26  1  0  0  0  0
 30 26  1  0  0  0  0
 31 32  2  0  0  0  0
 31 36  1  0  0  0  0
 32 33  1  0  0  0  0
 33 38  1  0  0  0  0
 33 34  2  0  0  0  0
 35 34  1  0  0  0  0
 35 39  1  0  0  0  0
 36 35  2  0  0  0  0
 37 31  1  0  0  0  0
M  END
>  <minimizedAffinity>
-5.73180676

$$$$
