
     RDKit          3D

 30 31  0  0  0  0  0  0  0  0999 V2000
   44.9148   35.1057   44.9432 C   0  0  0  0  0  0  0  0  0  0  0  0
   45.8265   34.7551   43.9485 C   0  0  0  0  0  0  0  0  0  0  0  0
   46.6824   33.6977   44.2188 C   0  0  0  0  0  0  0  0  0  0  0  0
   46.6051   33.0593   45.4078 N   0  0  0  0  0  0  0  0  0  0  0  0
   45.7088   33.4327   46.3383 C   0  0  0  0  0  0  0  0  0  0  0  0
   44.8536   34.4533   46.1276 N   0  0  0  0  0  0  0  0  0  0  0  0
   45.7967   35.5537   42.6794 C   0  0  0  0  0  0  0  0  0  0  0  0
   45.3491   36.8055   43.0307 F   0  0  0  0  0  0  0  0  0  0  0  0
   44.9101   34.9457   41.8287 F   0  0  0  0  0  0  0  0  0  0  0  0
   47.0755   35.5490   42.1553 F   0  0  0  0  0  0  0  0  0  0  0  0
   45.6234   32.7772   47.5696 O   0  0  0  0  0  0  0  0  0  0  0  0
   44.2201   35.9163   44.8026 H   0  0  0  0  0  0  0  0  0  0  0  0
   47.3775   33.4447   43.4367 H   0  0  0  0  0  0  0  0  0  0  0  0
   46.4690   31.6929   47.9022 C   0  0  0  0  0  0  0  0  0  0  0  0
   47.4351   31.4135   46.7873 C   0  0  0  0  0  0  0  0  0  0  0  0
   47.0746   30.2307   45.9481 C   0  0  0  0  0  0  0  0  0  0  0  0
   46.7965   28.9857   46.7415 C   0  0  0  0  0  0  0  0  0  0  0  0
   46.3655   29.2398   48.1595 C   0  0  0  0  0  0  0  0  0  0  0  0
   45.5694   30.5104   48.1960 C   0  0  0  0  0  0  0  0  0  0  0  0
   47.0819   31.9057   48.8031 H   0  0  0  0  0  0  0  0  0  0  0  0
   48.4969   31.3002   47.1444 H   0  0  0  0  0  0  0  0  0  0  0  0
   47.4460   32.3035   46.1196 H   0  0  0  0  0  0  0  0  0  0  0  0
   47.9682   30.0157   45.3032 H   0  0  0  0  0  0  0  0  0  0  0  0
   46.2395   30.5053   45.2958 H   0  0  0  0  0  0  0  0  0  0  0  0
   45.9682   28.4491   46.2283 H   0  0  0  0  0  0  0  0  0  0  0  0
   47.6696   28.2847   46.7468 H   0  0  0  0  0  0  0  0  0  0  0  0
   47.2350   29.2887   48.8226 H   0  0  0  0  0  0  0  0  0  0  0  0
   45.6709   28.4109   48.4792 H   0  0  0  0  0  0  0  0  0  0  0  0
   45.0723   30.6587   49.1693 H   0  0  0  0  0  0  0  0  0  0  0  0
   44.8339   30.4939   47.3388 H   0  0  0  0  0  0  0  0  0  0  0  0
  1  6  2  0
  2  3  2  0
  2  1  1  0
  3  4  1  0
  4  5  2  0
  5 11  1  0
  6  5  1  0
  7  8  1  0
  7  2  1  0
  9  7  1  0
 10  7  1  0
  1 12  1  0
  3 13  1  0
 14 15  1  0
 15 16  1  0
 16 17  1  0
 17 18  1  0
 18 19  1  0
 19 14  1  0
 14 20  1  0
 15 21  1  0
 15 22  1  0
 16 23  1  0
 16 24  1  0
 17 25  1  0
 17 26  1  0
 18 27  1  0
 18 28  1  0
 19 29  1  0
 19 30  1  0
 11 14  1  0
M  ISO  2  12  14  13  14
M  END
>  <DihAtoms>  (1) 
4,10,13,14

>  <DihDeg>  (1) 
-118.56017576723124

$$$$
