
 OpenBabel03242519493D

 47 50  0  0  1  0  0  0  0  0999 V2000
   45.2450   29.0000   47.1180 C   0  0  0  0  0  0  0  0  0  0  0  0
   45.5120   28.8160   48.1200 H   0  0  0  0  0  0  0  0  0  0  0  0
   44.0400   29.2170   47.3720 H   0  0  0  0  0  0  0  0  0  0  0  0
   45.0690   27.8870   46.0910 C   0  0  0  0  0  0  0  0  0  0  0  0
   45.6540   27.0090   46.4720 H   0  0  0  0  0  0  0  0  0  0  0  0
   45.4650   28.1430   45.1190 H   0  0  0  0  0  0  0  0  0  0  0  0
   42.8090   28.3610   45.3330 C   0  0  0  0  0  0  0  0  0  0  0  0
   43.6590   27.4920   46.0350 C   0  0  0  0  0  0  0  0  0  0  0  0
   43.0190   26.4060   46.5860 C   0  0  0  0  0  0  0  0  0  0  0  0
   41.6840   26.1480   46.4910 C   0  0  0  0  0  0  0  0  0  0  0  0
   40.8640   27.0200   45.7940 C   0  0  0  0  0  0  0  0  0  0  0  0
   41.4490   28.1570   45.2010 C   0  0  0  0  0  0  0  0  0  0  0  0
   43.7140   25.7550   47.1230 H   0  0  0  0  0  0  0  0  0  0  0  0
   41.3370   25.2470   46.9830 H   0  0  0  0  0  0  0  0  0  0  0  0
   39.8120   26.7780   45.7430 H   0  0  0  0  0  0  0  0  0  0  0  0
   43.1700   29.5210   44.6790 O   0  0  0  0  0  0  0  0  0  0  0  0
   43.6160   29.4560   43.7670 H   0  0  0  0  0  0  0  0  0  0  0  0
   40.5590   28.9220   44.5550 O   0  0  0  0  0  0  0  0  0  0  0  0
   40.0050   28.9940   43.3160 C   0  0  0  0  0  3  0  0  0  0  0  0
   40.2840   30.4250   42.8020 C   0  0  0  0  0  2  0  0  0  0  0  0
   39.5550   30.5930   41.5010 C   0  0  0  0  0  2  0  0  0  0  0  0
   40.0590   29.5930   40.4850 C   0  0  0  0  0  2  0  0  0  0  0  0
   40.0960   28.1940   41.0040 C   0  0  0  0  0  2  0  0  0  0  0  0
   40.8070   28.1170   42.3310 C   0  0  0  0  0  2  0  0  0  0  0  0
   45.5440   30.1870   46.5770 O   0  0  0  0  0  0  0  0  0  0  0  0
   46.5510   32.3420   46.5870 C   0  0  2  0  0  0  0  0  0  0  0  0
   47.1990   32.5590   45.2940 C   0  0  1  0  0  0  0  0  0  0  0  0
   47.0490   31.2430   44.6210 O   0  0  0  0  0  0  0  0  0  0  0  0
   47.6390   30.4740   45.6200 C   0  0  0  0  0  0  0  0  0  0  0  0
   46.6540   30.8780   46.8490 C   0  0  2  0  0  0  0  0  0  0  0  0
   46.9410   32.9630   47.4150 H   0  0  0  0  0  0  0  0  0  0  0  0
   48.3150   32.6260   45.4200 H   0  0  0  0  0  0  0  0  0  0  0  0
   48.6390   30.8290   45.8900 H   0  0  0  0  0  0  0  0  0  0  0  0
   47.5240   29.4010   45.4670 H   0  0  0  0  0  0  0  0  0  0  0  0
   47.3500   30.5050   47.6200 H   0  0  0  0  0  0  0  0  0  0  0  0
   44.9110   35.1720   44.1920 C   0  0  0  0  0  0  0  0  0  0  0  0
   45.4340   35.5780   42.9680 C   0  0  0  0  0  0  0  0  0  0  0  0
   46.5950   34.9410   42.4890 C   0  0  0  0  0  0  0  0  0  0  0  0
   47.1590   33.9640   43.2310 N   0  0  0  0  0  0  0  0  0  0  0  0
   46.6360   33.5820   44.4190 C   0  0  0  0  0  0  0  0  0  0  0  0
   45.5090   34.1810   44.9090 N   0  0  0  0  0  0  0  0  0  0  0  0
   44.9070   36.3750   42.4450 H   0  0  0  0  0  0  0  0  0  0  0  0
   46.9780   35.2670   41.5510 H   0  0  0  0  0  0  0  0  0  0  0  0
   43.7640   35.7690   44.7130 O   0  0  0  0  0  0  0  0  0  0  0  0
   42.8910   35.8320   44.2270 H   0  0  0  0  0  0  0  0  0  0  0  0
   45.1320   32.6460   46.4400 O   0  0  0  0  0  0  0  0  0  0  0  0
   44.6550   32.0020   47.0300 H   0  0  0  0  0  0  0  0  0  0  0  0
  1  3  1  0  0  0  0
  1  2  1  0  0  0  0
  4  5  1  0  0  0  0
  4  1  1  0  0  0  0
  6  4  1  0  0  0  0
  7  8  1  0  0  0  0
  8  4  1  0  0  0  0
  8  9  2  0  0  0  0
  9 13  1  0  0  0  0
 10  9  1  0  0  0  0
 10 14  1  0  0  0  0
 11 10  2  0  0  0  0
 12  7  2  0  0  0  0
 12 11  1  0  0  0  0
 15 11  1  0  0  0  0
 16  7  1  0  0  0  0
 17 16  1  0  0  0  0
 18 12  1  0  0  0  0
 19 18  1  0  0  0  0
 20 19  1  0  0  0  0
 21 20  1  0  0  0  0
 22 23  1  0  0  0  0
 22 21  1  0  0  0  0
 23 24  1  0  0  0  0
 24 19  1  0  0  0  0
 25 30  1  0  0  0  0
 25  1  1  0  0  0  0
 26 30  1  0  0  0  0
 26 31  1  1  0  0  0
 27 32  1  1  0  0  0
 27 26  1  0  0  0  0
 28 27  1  0  0  0  0
 28 29  1  0  0  0  0
 29 33  1  0  0  0  0
 29 30  1  0  0  0  0
 30 35  1  1  0  0  0
 34 29  1  0  0  0  0
 36 44  1  0  0  0  0
 36 41  1  0  0  0  0
 37 36  2  0  0  0  0
 38 37  1  0  0  0  0
 38 39  2  0  0  0  0
 39 40  1  0  0  0  0
 40 41  2  0  0  0  0
 40 27  1  0  0  0  0
 42 37  1  0  0  0  0
 43 38  1  0  0  0  0
 45 44  1  0  0  0  0
 46 26  1  0  0  0  0
 46 47  1  0  0  0  0
M  END
>  <minimizedAffinity>
-6.0306325

>  <minimizedRMSD>
1.08726275

$$$$
