
     RDKit          3D

 34 35  0  0  0  0  0  0  0  0999 V2000
   46.5344   33.6265   44.3369 C   0  0  0  0  0  0  0  0  0  0  0  0
   46.2439   33.2138   45.6486 C   0  0  0  0  0  0  0  0  0  0  0  0
   45.2991   33.9066   46.3654 C   0  0  0  0  0  0  0  0  0  0  0  0
   44.6936   34.9572   45.7640 N   0  0  0  0  0  0  0  0  0  0  0  0
   44.9648   35.3556   44.5156 C   0  0  0  0  0  0  0  0  0  0  0  0
   45.8956   34.6815   43.7969 N   0  0  0  0  0  0  0  0  0  0  0  0
   45.0494   33.4665   47.6478 O   0  0  0  0  0  0  0  0  0  0  0  0
   45.3361   30.8670   47.4643 O   0  0  0  0  0  0  0  0  0  0  0  0
   45.8136   32.0962   48.2684 P   0  0  2  0  0  0  0  0  0  0  0  0
   45.3256   31.8283   49.8548 O   0  0  0  0  0  0  0  0  0  0  0  0
   47.4563   32.2219   48.1226 O   0  0  0  0  0  0  0  0  0  0  0  0
   48.4676   31.4328   48.5453 C   0  0  0  0  0  0  0  0  0  0  0  0
   49.2101   31.9881   49.4325 O   0  0  0  0  0  0  0  0  0  0  0  0
   47.2580   33.1538   43.6879 H   0  0  0  0  0  0  0  0  0  0  0  0
   46.8281   32.3735   45.9150 H   0  0  0  0  0  0  0  0  0  0  0  0
   44.3804   36.2130   44.2084 H   0  0  0  0  0  0  0  0  0  0  0  0
   45.6500   32.4884   50.4983 H   0  0  0  0  0  0  0  0  0  0  0  0
   49.2854   30.1934   48.5782 C   0  0  0  0  0  0  0  0  0  0  0  0
   49.0209   29.3843   49.8177 C   0  0  0  0  0  0  0  0  0  0  0  0
   49.6422   29.8605   51.0694 C   0  0  0  0  0  0  0  0  0  0  0  0
   51.0692   30.3192   50.9241 C   0  0  0  0  0  0  0  0  0  0  0  0
   51.2330   31.2358   49.7620 C   0  0  0  0  0  0  0  0  0  0  0  0
   50.7295   30.6326   48.4734 C   0  0  0  0  0  0  0  0  0  0  0  0
   49.1323   29.4890   47.7529 H   0  0  0  0  0  0  0  0  0  0  0  0
   47.9286   29.2803   49.9616 H   0  0  0  0  0  0  0  0  0  0  0  0
   49.3630   28.3196   49.6389 H   0  0  0  0  0  0  0  0  0  0  0  0
   49.7049   28.9678   51.7631 H   0  0  0  0  0  0  0  0  0  0  0  0
   49.0220   30.5825   51.6298 H   0  0  0  0  0  0  0  0  0  0  0  0
   51.2836   30.9177   51.8528 H   0  0  0  0  0  0  0  0  0  0  0  0
   51.7566   29.4664   50.8090 H   0  0  0  0  0  0  0  0  0  0  0  0
   50.8082   32.2367   49.9377 H   0  0  0  0  0  0  0  0  0  0  0  0
   52.3287   31.4073   49.6125 H   0  0  0  0  0  0  0  0  0  0  0  0
   51.4056   29.8244   48.1280 H   0  0  0  0  0  0  0  0  0  0  0  0
   50.7711   31.4277   47.7001 H   0  0  0  0  0  0  0  0  0  0  0  0
  1  2  2  0
  2  3  1  0
  3  7  1  0
  4  3  2  0
  5  4  1  0
  6  1  1  0
  6  5  2  0
  9  7  1  6
  9  8  2  0
  9 10  1  0
 11  9  1  0
 11 12  1  0
 12 13  2  0
  1 14  1  0
  2 15  1  0
  5 16  1  0
 10 17  1  0
 18 19  1  0
 19 20  1  0
 20 21  1  0
 21 22  1  0
 22 23  1  0
 23 18  1  0
 18 24  1  0
 19 25  1  0
 19 26  1  0
 20 27  1  0
 20 28  1  0
 21 29  1  0
 21 30  1  0
 22 31  1  0
 22 32  1  0
 23 33  1  0
 23 34  1  0
 12 18  1  0
M  ISO  4  14  14  15  14  16  14  17   3
M  END
>  <DihAtoms>  (1) 
10,11,17,18

>  <DihDeg>  (1) 
179.48205074285886

$$$$
