
 OpenBabel03252508463D

 42 44  0  0  0  0  0  0  0  0999 V2000
   43.1650   32.5350   41.6880 C   0  0  0  0  0  0  0  0  0  0  0  0
   43.7140   32.1100   40.8280 H   0  0  0  0  0  0  0  0  0  0  0  0
   42.2170   32.9660   41.2750 H   0  0  0  0  0  0  0  0  0  0  0  0
   43.6770   34.9760   41.9070 C   0  0  0  0  0  0  0  0  0  0  0  0
   43.9860   33.6660   42.2160 C   0  0  0  0  0  0  0  0  0  0  0  0
   45.0690   33.4360   43.0240 C   0  0  0  0  0  0  0  0  0  0  0  0
   45.8100   34.4760   43.5010 C   0  0  0  0  0  0  0  0  0  0  0  0
   45.5200   35.7830   43.2050 C   0  0  0  0  0  0  0  0  0  0  0  0
   44.4270   35.9710   42.3920 C   0  0  0  0  0  0  0  0  0  0  0  0
   45.3720   32.4290   43.3100 H   0  0  0  0  0  0  0  0  0  0  0  0
   46.6700   34.2820   44.1430 H   0  0  0  0  0  0  0  0  0  0  0  0
   46.0770   36.6440   43.5580 H   0  0  0  0  0  0  0  0  0  0  0  0
   44.1300   36.9930   42.1110 H   0  0  0  0  0  0  0  0  0  0  0  0
   40.1930   35.6190   40.5610 C   0  0  0  0  0  0  0  0  0  0  0  0
   41.2300   35.4570   41.4900 C   0  0  0  0  0  0  0  0  0  0  0  0
   42.5100   35.1700   41.0400 C   0  0  0  0  0  0  0  0  0  0  0  0
   42.6760   35.0620   39.6900 N   0  0  0  0  0  0  0  0  0  0  0  0
   41.6640   35.2230   38.8060 C   0  0  0  0  0  0  0  0  0  0  0  0
   40.4320   35.5000   39.2570 N   0  0  0  0  0  0  0  0  0  0  0  0
   39.2250   35.8400   40.9560 H   0  0  0  0  0  0  0  0  0  0  0  0
   41.1130   35.5390   42.5520 H   0  0  0  0  0  0  0  0  0  0  0  0
   41.8510   35.1270   37.7460 H   0  0  0  0  0  0  0  0  0  0  0  0
   42.8440   31.5370   42.6520 N   0  0  0  0  0  0  0  0  0  0  0  0
   43.0320   31.7950   43.6360 H   0  0  0  0  0  0  0  0  0  0  0  0
   41.2080   31.0330   42.5570 S   0  0  0  0  0  0  0  0  0  0  0  0
   40.2810   32.2140   42.3810 O   0  0  0  0  0  0  0  0  0  0  0  0
   40.0120   32.4670   41.4530 H   0  0  0  0  0  0  0  0  0  0  0  0
   40.7960   30.2320   43.7330 O   0  0  0  0  0  0  0  0  0  0  0  0
   40.0180   30.4950   44.2810 H   0  0  0  0  0  0  0  0  0  0  0  0
   41.0720   30.0590   41.1900 O   0  0  0  0  0  0  0  0  0  0  0  0
   39.7400   29.8380   40.9340 C   0  0  0  0  0  0  0  0  0  0  0  0
   39.0470   30.2970   41.6410 H   0  0  0  0  0  0  0  0  0  0  0  0
   39.4730   30.1920   39.9180 H   0  0  0  0  0  0  0  0  0  0  0  0
   39.4530   28.3270   40.9930 C   0  0  0  0  0  0  0  0  0  0  0  0
   40.2320   27.8910   41.6190 H   0  0  0  0  0  0  0  0  0  0  0  0
   39.5540   27.9840   39.9410 H   0  0  0  0  0  0  0  0  0  0  0  0
   38.0420   28.0760   41.4710 C   0  0  0  0  0  0  0  0  0  0  0  0
   37.6160   26.6910   41.1310 C   0  0  0  0  0  0  0  0  0  0  0  0
   36.2270   26.6050   40.5860 C   0  0  0  0  0  0  0  0  0  0  0  0
   36.1290   27.5390   39.4080 C   0  0  0  0  0  0  0  0  0  0  0  0
   36.3820   28.9740   39.7840 C   0  0  0  0  0  0  0  0  0  0  0  0
   37.1460   29.1740   41.0380 C   0  0  0  0  0  0  0  0  0  0  0  0
  1  5  1  0  0  0  0
  1 23  1  0  0  0  0
  2  1  1  0  0  0  0
  3  1  1  0  0  0  0
  4  5  2  0  0  0  0
  4  9  1  0  0  0  0
  5  6  1  0  0  0  0
  6 10  1  0  0  0  0
  6  7  2  0  0  0  0
  7 11  1  0  0  0  0
  8  7  1  0  0  0  0
  8 12  1  0  0  0  0
  9  8  2  0  0  0  0
 13  9  1  0  0  0  0
 14 20  1  0  0  0  0
 14 15  1  0  0  0  0
 15 21  1  0  0  0  0
 16 15  2  0  0  0  0
 16  4  1  0  0  0  0
 17 16  1  0  0  0  0
 18 19  1  0  0  0  0
 18 17  2  0  0  0  0
 19 14  2  0  0  0  0
 22 18  1  0  0  0  0
 23 24  1  0  0  0  0
 25 23  1  0  0  0  0
 25 28  1  0  0  0  0
 26 25  1  0  0  0  0
 27 26  1  0  0  0  0
 28 29  1  0  0  0  0
 30 25  1  0  0  0  0
 31 34  1  0  0  0  0
 31 30  1  0  0  0  0
 31 32  1  0  0  0  0
 33 31  1  0  0  0  0
 34 37  1  0  0  0  0
 34 35  1  0  0  0  0
 36 34  1  0  0  0  0
 38 37  1  0  0  0  0
 39 38  1  0  0  0  0
 40 41  1  0  0  0  0
 40 39  1  0  0  0  0
 41 42  1  0  0  0  0
 42 37  1  0  0  0  0
M  END
>  <minimizedAffinity>
-5.4860425

>  <minimizedRMSD>
2.16284609

$$$$
