
 OpenBabel03252509263D

 27 29  0  0  1  0  0  0  0  0999 V2000
   47.0950   35.2390   41.7870 C   0  0  1  0  0  0  0  0  0  0  0  0
   48.6060   35.5920   41.9010 C   0  0  0  0  0  0  0  0  0  0  0  0
   47.9840   34.4240   41.0690 C   0  0  2  0  0  0  0  0  0  0  0  0
   46.4960   36.0490   41.3190 H   0  0  0  0  0  0  0  0  0  0  0  0
   48.9410   36.4340   41.2630 H   0  0  0  0  0  0  0  0  0  0  0  0
   49.1430   35.3480   42.8120 H   0  0  0  0  0  0  0  0  0  0  0  0
   48.2490   33.4220   41.5300 H   0  0  0  0  0  0  0  0  0  0  0  0
   44.9970   34.8090   44.8690 C   0  0  0  0  0  0  0  0  0  0  0  0
   45.4540   35.3640   43.6400 C   0  0  0  0  0  0  0  0  0  0  0  0
   46.5590   34.7740   43.1200 C   0  0  0  0  0  0  0  0  0  0  0  0
   47.1890   33.7170   43.7410 N   0  0  0  0  0  0  0  0  0  0  0  0
   46.7240   33.2170   44.9140 C   0  0  0  0  0  0  0  0  0  0  0  0
   45.6170   33.7730   45.4760 N   0  0  0  0  0  0  0  0  0  0  0  0
   44.1050   35.2880   45.2860 H   0  0  0  0  0  0  0  0  0  0  0  0
   47.1800   32.4000   45.4300 H   0  0  0  0  0  0  0  0  0  0  0  0
   44.8240   36.4630   43.0080 N   0  0  0  0  0  0  0  0  0  0  0  0
   44.2280   36.4450   42.1350 H   0  0  0  0  0  0  0  0  0  0  0  0
   44.8890   37.4630   43.3640 H   0  0  0  0  0  0  0  0  0  0  0  0
   48.0990   34.4970   39.5600 C   0  0  0  0  0  0  0  0  0  0  0  0
   47.1510   34.8910   39.1320 H   0  0  0  0  0  0  0  0  0  0  0  0
   48.9230   35.2090   39.2970 H   0  0  0  0  0  0  0  0  0  0  0  0
   48.3830   33.1070   39.0210 C   0  0  0  0  0  3  0  0  0  0  0  0
   48.9660   32.2170   40.0580 C   0  0  0  0  0  2  0  0  0  0  0  0
   48.6170   30.7810   40.0160 C   0  0  0  0  0  2  0  0  0  0  0  0
   48.1170   30.4070   38.6360 C   0  0  0  0  0  2  0  0  0  0  0  0
   46.8210   31.1880   38.5050 C   0  0  0  0  0  2  0  0  0  0  0  0
   47.2020   32.6230   38.2840 C   0  0  0  0  0  2  0  0  0  0  0  0
  1  4  1  6  0  0  0
  1  2  1  0  0  0  0
  1 10  1  0  0  0  0
  2  6  1  0  0  0  0
  3  7  1  1  0  0  0
  3  1  1  0  0  0  0
  3  2  1  0  0  0  0
  5  2  1  0  0  0  0
  8 14  1  0  0  0  0
  8 13  1  0  0  0  0
  9  8  2  0  0  0  0
 10  9  1  0  0  0  0
 10 11  2  0  0  0  0
 11 12  1  0  0  0  0
 12 15  1  0  0  0  0
 12 13  2  0  0  0  0
 16 18  1  0  0  0  0
 16  9  1  0  0  0  0
 17 16  1  0  0  0  0
 19  3  1  0  0  0  0
 20 19  1  0  0  0  0
 21 19  1  0  0  0  0
 22 19  1  0  0  0  0
 22 23  1  0  0  0  0
 24 23  1  0  0  0  0
 25 24  1  0  0  0  0
 26 25  1  0  0  0  0
 27 26  1  0  0  0  0
 27 22  1  0  0  0  0
M  END
>  <minimizedAffinity>
-4.53672218

>  <minimizedRMSD>
0.758539081

$$$$
