
     RDKit          3D

 29 30  0  0  0  0  0  0  0  0999 V2000
   44.5600   36.0103   44.4959 C   0  0  0  0  0  0  0  0  0  0  0  0
   45.3058   35.9229   43.2947 C   0  0  0  0  0  0  0  0  0  0  0  0
   46.1939   34.8585   43.1708 C   0  0  0  0  0  0  0  0  0  0  0  0
   46.3108   33.9588   44.1881 N   0  0  0  0  0  0  0  0  0  0  0  0
   45.5691   34.0859   45.3280 C   0  0  0  0  0  0  0  0  0  0  0  0
   44.7024   35.1043   45.4764 N   0  0  0  0  0  0  0  0  0  0  0  0
   46.9601   34.7743   41.9291 C   0  0  0  0  0  0  0  0  0  0  0  0
   43.8673   36.8277   44.6099 H   0  0  0  0  0  0  0  0  0  0  0  0
   45.1559   36.6696   42.5439 H   0  0  0  0  0  0  0  0  0  0  0  0
   45.6607   33.3798   46.1265 H   0  0  0  0  0  0  0  0  0  0  0  0
   47.2149   33.7053   41.7702 H   0  0  0  0  0  0  0  0  0  0  0  0
   46.4079   35.1105   41.0431 H   0  0  0  0  0  0  0  0  0  0  0  0
   48.2732   35.5063   41.9812 C   0  0  0  0  0  0  0  0  0  0  0  0
   48.7385   36.0505   40.6643 C   0  0  0  0  0  0  0  0  0  0  0  0
   50.2261   36.3579   40.8486 C   0  0  0  0  0  0  0  0  0  0  0  0
   50.3218   37.4521   41.8771 C   0  0  0  0  0  0  0  0  0  0  0  0
   49.7340   37.0006   43.1938 C   0  0  0  0  0  0  0  0  0  0  0  0
   48.2566   36.6557   42.9700 C   0  0  0  0  0  0  0  0  0  0  0  0
   49.0650   34.8153   42.3342 H   0  0  0  0  0  0  0  0  0  0  0  0
   48.2641   37.0161   40.3903 H   0  0  0  0  0  0  0  0  0  0  0  0
   48.6419   35.3252   39.8336 H   0  0  0  0  0  0  0  0  0  0  0  0
   50.6692   35.4347   41.3011 H   0  0  0  0  0  0  0  0  0  0  0  0
   50.6932   36.6692   39.9088 H   0  0  0  0  0  0  0  0  0  0  0  0
   51.3963   37.7045   42.0878 H   0  0  0  0  0  0  0  0  0  0  0  0
   49.7778   38.3295   41.4853 H   0  0  0  0  0  0  0  0  0  0  0  0
   50.1960   36.0386   43.4927 H   0  0  0  0  0  0  0  0  0  0  0  0
   49.8512   37.7642   43.9644 H   0  0  0  0  0  0  0  0  0  0  0  0
   47.8176   36.2848   43.9130 H   0  0  0  0  0  0  0  0  0  0  0  0
   47.7073   37.5438   42.5818 H   0  0  0  0  0  0  0  0  0  0  0  0
  1  6  2  0
  2  1  1  0
  3  2  2  0
  3  4  1  0
  4  5  2  0
  5  6  1  0
  7  3  1  0
  1  8  1  0
  2  9  1  0
  5 10  1  0
  7 11  1  0
  7 12  1  0
 13 14  1  0
 14 15  1  0
 15 16  1  0
 16 17  1  0
 17 18  1  0
 18 13  1  0
 13 19  1  0
 14 20  1  0
 14 21  1  0
 15 22  1  0
 15 23  1  0
 16 24  1  0
 16 25  1  0
 17 26  1  0
 17 27  1  0
 18 28  1  0
 18 29  1  0
  7 13  1  0
M  ISO  5   8  14   9  14  10  14  11   8  12   8
M  END
>  <DihAtoms>  (1) 
2,6,12,13

>  <DihDeg>  (1) 
-59.99933838426612

$$$$
