
     RDKit          3D

 37 39  0  0  0  0  0  0  0  0999 V2000
   45.2640   36.1562   43.1801 C   0  0  0  0  0  0  0  0  0  0  0  0
   45.8743   34.9104   42.8912 C   0  0  0  0  0  0  0  0  0  0  0  0
   45.8269   33.9514   43.9011 C   0  0  0  0  0  0  0  0  0  0  0  0
   45.2265   34.2270   45.0738 N   0  0  0  0  0  0  0  0  0  0  0  0
   44.6465   35.4465   45.3152 C   0  0  0  0  0  0  0  0  0  0  0  0
   44.6821   36.3729   44.3640 N   0  0  0  0  0  0  0  0  0  0  0  0
   46.4479   32.6567   43.6321 C   0  0  0  0  0  0  0  0  0  0  0  0
   45.6661   31.5760   43.2982 C   0  0  0  0  0  0  0  0  0  0  0  0
   46.2775   30.3676   43.0498 C   0  0  0  0  0  0  0  0  0  0  0  0
   47.6519   30.1807   43.1191 C   0  0  0  0  0  0  0  0  0  0  0  0
   48.3810   31.3158   43.4621 C   0  0  0  0  0  0  0  0  0  0  0  0
   47.7664   32.4829   43.6999 N   0  0  0  0  0  0  0  0  0  0  0  0
   46.4930   34.6759   41.6360 C   0  0  0  0  0  0  0  0  0  0  0  0
   47.6657   35.1380   41.4864 O   0  0  0  0  0  0  0  0  0  0  0  0
   45.2755   36.9454   42.4145 H   0  0  0  0  0  0  0  0  0  0  0  0
   44.2074   35.5124   46.2999 H   0  0  0  0  0  0  0  0  0  0  0  0
   44.5704   31.6418   43.2223 H   0  0  0  0  0  0  0  0  0  0  0  0
   45.6863   29.4829   42.7806 H   0  0  0  0  0  0  0  0  0  0  0  0
   48.1446   29.2424   42.9278 H   0  0  0  0  0  0  0  0  0  0  0  0
   49.4619   31.2711   43.5419 H   0  0  0  0  0  0  0  0  0  0  0  0
   46.0432   33.9720   40.3978 C   0  0  0  0  0  0  0  0  0  0  0  0
   44.6416   34.4247   40.1355 C   0  0  0  0  0  0  0  0  0  0  0  0
   43.8604   33.5363   39.2113 C   0  0  0  0  0  0  0  0  0  0  0  0
   43.9838   32.0814   39.5324 C   0  0  0  0  0  0  0  0  0  0  0  0
   44.9014   31.7767   40.6727 C   0  0  0  0  0  0  0  0  0  0  0  0
   46.2158   32.4980   40.5425 C   0  0  0  0  0  0  0  0  0  0  0  0
   46.7035   34.2996   39.5617 H   0  0  0  0  0  0  0  0  0  0  0  0
   44.1225   34.6242   41.0930 H   0  0  0  0  0  0  0  0  0  0  0  0
   44.7133   35.4366   39.6400 H   0  0  0  0  0  0  0  0  0  0  0  0
   44.1786   33.7798   38.1584 H   0  0  0  0  0  0  0  0  0  0  0  0
   42.7839   33.8343   39.3324 H   0  0  0  0  0  0  0  0  0  0  0  0
   43.0011   31.6318   39.7792 H   0  0  0  0  0  0  0  0  0  0  0  0
   44.3619   31.5418   38.6282 H   0  0  0  0  0  0  0  0  0  0  0  0
   45.1231   30.6857   40.6139 H   0  0  0  0  0  0  0  0  0  0  0  0
   44.4055   31.9596   41.6649 H   0  0  0  0  0  0  0  0  0  0  0  0
   46.8274   32.2185   41.4352 H   0  0  0  0  0  0  0  0  0  0  0  0
   46.7453   32.0400   39.6877 H   0  0  0  0  0  0  0  0  0  0  0  0
  1  6  2  0
  2  1  1  0
  2  3  2  0
  3  4  1  0
  4  5  2  0
  6  5  1  0
  7 12  1  0
  7  3  1  0
  8  7  2  0
  9 10  2  0
  9  8  1  0
 10 11  1  0
 11 12  2  0
 13  2  1  0
 14 13  2  0
  1 15  1  0
  5 16  1  0
  8 17  1  0
  9 18  1  0
 10 19  1  0
 11 20  1  0
 21 22  1  0
 22 23  1  0
 23 24  1  0
 24 25  1  0
 25 26  1  0
 26 21  1  0
 21 27  1  0
 22 28  1  0
 22 29  1  0
 23 30  1  0
 23 31  1  0
 24 32  1  0
 24 33  1  0
 25 34  1  0
 25 35  1  0
 26 36  1  0
 26 37  1  0
 13 21  1  0
M  ISO  6  15  14  16  14  17  14  18  14  19  14  20  14
M  END
>  <DihAtoms>  (1) 
1,12,20,21

>  <DihDeg>  (1) 
179.99079589226383

$$$$
