
 OpenBabel03252508503D

 25 27  0  0  0  0  0  0  0  0999 V2000
   45.7680   34.1900   41.0260 C   0  0  0  0  0  0  0  0  0  0  0  0
   46.4080   34.7900   42.1050 C   0  0  0  0  0  0  0  0  0  0  0  0
   47.7640   35.0990   41.9650 C   0  0  0  0  0  0  0  0  0  0  0  0
   48.3770   34.7980   40.7890 N   0  0  0  0  0  0  0  0  0  0  0  0
   47.7190   34.2160   39.7680 C   0  0  0  0  0  0  0  0  0  0  0  0
   46.4050   33.9110   39.8910 N   0  0  0  0  0  0  0  0  0  0  0  0
   48.2930   35.5730   42.7980 H   0  0  0  0  0  0  0  0  0  0  0  0
   48.2200   33.9820   38.8400 H   0  0  0  0  0  0  0  0  0  0  0  0
   45.6630   35.0770   43.3330 C   0  0  0  0  0  0  0  0  0  0  0  0
   45.0740   36.2920   43.5930 C   0  0  0  0  0  0  0  0  0  0  0  0
   44.4960   36.1240   44.8270 C   0  0  0  0  0  0  0  0  0  0  0  0
   44.7230   34.8670   45.3000 N   0  0  0  0  0  0  0  0  0  0  0  0
   45.4300   34.2630   44.3730 N   0  0  0  0  0  0  0  0  0  0  0  0
   45.0850   37.1420   42.9560 H   0  0  0  0  0  0  0  0  0  0  0  0
   43.9300   36.8630   45.3840 H   0  0  0  0  0  0  0  0  0  0  0  0
   44.3960   34.4840   46.2070 H   0  0  0  0  0  0  0  0  0  0  0  0
   44.4350   33.8840   41.1620 O   0  0  0  0  0  0  0  0  0  0  0  0
   43.3780   34.5860   40.6570 C   0  0  0  0  0  0  0  0  0  0  0  0
   42.7740   35.5760   41.1870 O   0  0  0  0  0  0  0  0  0  0  0  0
   42.5570   34.5060   39.3900 C   0  0  0  0  0  3  0  0  0  0  0  0
   41.6610   35.7120   39.2730 C   0  0  0  0  0  2  0  0  0  0  0  0
   41.0960   35.6720   37.8660 C   0  0  0  0  0  2  0  0  0  0  0  0
   40.1390   34.5120   37.7780 C   0  0  0  0  0  2  0  0  0  0  0  0
   40.3490   33.4460   38.7960 C   0  0  0  0  0  2  0  0  0  0  0  0
   41.7580   33.2660   39.2620 C   0  0  0  0  0  2  0  0  0  0  0  0
  1 17  1  0  0  0  0
  1  2  1  0  0  0  0
  2  9  1  0  0  0  0
  3  2  2  0  0  0  0
  3  7  1  0  0  0  0
  4  3  1  0  0  0  0
  5  6  1  0  0  0  0
  5  4  2  0  0  0  0
  6  1  2  0  0  0  0
  8  5  1  0  0  0  0
  9 10  1  0  0  0  0
  9 13  2  0  0  0  0
 10 11  2  0  0  0  0
 11 12  1  0  0  0  0
 11 15  1  0  0  0  0
 12 16  1  0  0  0  0
 13 12  1  0  0  0  0
 14 10  1  0  0  0  0
 18 17  1  0  0  0  0
 18 19  2  0  0  0  0
 20 18  1  0  0  0  0
 21 20  1  0  0  0  0
 22 21  1  0  0  0  0
 23 22  1  0  0  0  0
 23 24  1  0  0  0  0
 24 25  1  0  0  0  0
 25 20  1  0  0  0  0
M  END
>  <minimizedAffinity>
-5.82239676

>  <minimizedRMSD>
1.14057469

$$$$
