
 OpenBabel03242519263D

 37 40  0  0  0  0  0  0  0  0999 V2000
   32.8790   29.0730   37.3160 C   0  0  0  0  0  0  0  0  0  0  0  0
   33.5580   28.4830   36.2440 C   0  0  0  0  0  0  0  0  0  0  0  0
   34.9110   28.1140   36.3830 C   0  0  0  0  0  0  0  0  0  0  0  0
   35.4800   28.3740   37.6050 N   0  0  0  0  0  0  0  0  0  0  0  0
   34.7810   28.9540   38.6300 C   0  0  0  0  0  0  0  0  0  0  0  0
   33.5060   29.2910   38.4720 N   0  0  0  0  0  0  0  0  0  0  0  0
   33.2010   28.2400   35.2530 H   0  0  0  0  0  0  0  0  0  0  0  0
   35.5010   27.6590   35.6150 H   0  0  0  0  0  0  0  0  0  0  0  0
   31.4700   29.4170   37.0450 C   0  0  0  0  0  0  0  0  0  0  0  0
   31.2730   30.2210   35.8420 C   0  0  0  0  0  0  0  0  0  0  0  0
   30.8150   31.6110   36.0980 C   0  0  0  0  0  0  0  0  0  0  0  0
   29.5750   31.6760   36.9770 C   0  0  0  0  0  0  0  0  0  0  0  0
   29.5530   30.6420   38.0780 C   0  0  0  0  0  0  0  0  0  0  0  0
   30.9310   30.0870   38.3180 C   0  0  0  0  0  0  0  0  0  0  0  0
   30.9170   28.4320   37.0020 H   0  0  0  0  0  0  0  0  0  0  0  0
   30.4830   29.7320   35.2030 H   0  0  0  0  0  0  0  0  0  0  0  0
   32.1640   30.2690   35.2030 H   0  0  0  0  0  0  0  0  0  0  0  0
   31.5690   32.3300   36.4260 H   0  0  0  0  0  0  0  0  0  0  0  0
   30.4600   32.0100   35.1000 H   0  0  0  0  0  0  0  0  0  0  0  0
   28.6470   31.6710   36.3930 H   0  0  0  0  0  0  0  0  0  0  0  0
   29.6090   32.6720   37.4880 H   0  0  0  0  0  0  0  0  0  0  0  0
   28.8830   29.8120   37.8050 H   0  0  0  0  0  0  0  0  0  0  0  0
   29.1970   31.0640   39.0320 H   0  0  0  0  0  0  0  0  0  0  0  0
   30.8580   29.2880   39.0830 H   0  0  0  0  0  0  0  0  0  0  0  0
   31.6390   30.8470   38.6910 H   0  0  0  0  0  0  0  0  0  0  0  0
   35.5410   29.1610   39.8550 C   0  0  0  0  0  0  0  0  0  0  0  0
   35.9230   30.4270   40.1390 N   0  0  0  0  0  0  0  0  0  0  0  0
   36.6100   30.4350   41.3030 C   0  0  0  0  0  0  0  0  0  0  0  0
   36.6440   29.1420   41.7360 N   0  0  0  0  0  0  0  0  0  0  0  0
   35.9960   28.3730   40.8560 N   0  0  0  0  0  0  0  0  0  0  0  0
   37.0400   31.3040   41.7830 H   0  0  0  0  0  0  0  0  0  0  0  0
   37.2680   28.6510   42.9370 C   0  0  0  0  0  3  0  0  0  0  0  0
   37.5370   27.1820   42.9450 C   0  0  0  0  0  2  0  0  0  0  0  0
   38.8740   26.9320   43.6130 C   0  0  0  0  0  2  0  0  0  0  0  0
   39.9920   27.4760   42.7640 C   0  0  0  0  0  2  0  0  0  0  0  0
   39.6910   28.8950   42.3430 C   0  0  0  0  0  2  0  0  0  0  0  0
   38.5330   29.4690   43.1220 C   0  0  0  0  0  2  0  0  0  0  0  0
  1  6  1  0  0  0  0
  2  3  1  0  0  0  0
  2  1  2  0  0  0  0
  3  4  2  0  0  0  0
  4  5  1  0  0  0  0
  5 26  1  0  0  0  0
  6  5  2  0  0  0  0
  7  2  1  0  0  0  0
  8  3  1  0  0  0  0
  9  1  1  0  0  0  0
  9 14  1  0  0  0  0
 10 11  1  0  0  0  0
 10  9  1  0  0  0  0
 11 18  1  0  0  0  0
 11 12  1  0  0  0  0
 12 21  1  0  0  0  0
 12 13  1  0  0  0  0
 13 14  1  0  0  0  0
 13 23  1  0  0  0  0
 14 25  1  0  0  0  0
 14 24  1  0  0  0  0
 15  9  1  0  0  0  0
 16 10  1  0  0  0  0
 17 10  1  0  0  0  0
 19 11  1  0  0  0  0
 20 12  1  0  0  0  0
 22 13  1  0  0  0  0
 26 27  1  0  0  0  0
 26 30  2  0  0  0  0
 27 28  2  0  0  0  0
 28 29  1  0  0  0  0
 28 31  1  0  0  0  0
 29 32  1  0  0  0  0
 30 29  1  0  0  0  0
 32 33  1  0  0  0  0
 32 37  1  0  0  0  0
 33 34  1  0  0  0  0
 35 34  1  0  0  0  0
 36 35  1  0  0  0  0
 36 37  1  0  0  0  0
M  END
>  <minimizedAffinity>
-6.02366447

$$$$

 OpenBabel03242519263D

 37 40  0  0  0  0  0  0  0  0999 V2000
   37.0750   28.5620   41.7170 C   0  0  0  0  0  0  0  0  0  0  0  0
   35.8190   28.5410   41.1000 C   0  0  0  0  0  0  0  0  0  0  0  0
   35.4120   29.6200   40.2910 C   0  0  0  0  0  0  0  0  0  0  0  0
   36.3130   30.6490   40.1660 N   0  0  0  0  0  0  0  0  0  0  0  0
   37.5330   30.6320   40.7880 C   0  0  0  0  0  0  0  0  0  0  0  0
   37.8920   29.6010   41.5440 N   0  0  0  0  0  0  0  0  0  0  0  0
   35.0470   27.7850   41.1370 H   0  0  0  0  0  0  0  0  0  0  0  0
   34.4710   29.6810   39.7850 H   0  0  0  0  0  0  0  0  0  0  0  0
   37.3820   27.3780   42.5410 C   0  0  0  0  0  0  0  0  0  0  0  0
   38.2610   27.6510   43.6750 C   0  0  0  0  0  0  0  0  0  0  0  0
   39.6110   27.0380   43.5700 C   0  0  0  0  0  0  0  0  0  0  0  0
   39.5640   25.5420   43.2950 C   0  0  0  0  0  0  0  0  0  0  0  0
   38.4540   25.1280   42.3580 C   0  0  0  0  0  0  0  0  0  0  0  0
   37.9370   26.3120   41.5840 C   0  0  0  0  0  0  0  0  0  0  0  0
   36.3820   26.9590   42.8620 H   0  0  0  0  0  0  0  0  0  0  0  0
   37.7880   27.2350   44.6110 H   0  0  0  0  0  0  0  0  0  0  0  0
   38.3890   28.7220   43.8740 H   0  0  0  0  0  0  0  0  0  0  0  0
   40.3330   27.5360   42.9200 H   0  0  0  0  0  0  0  0  0  0  0  0
   40.0650   27.1090   44.6040 H   0  0  0  0  0  0  0  0  0  0  0  0
   39.5650   24.9470   44.2170 H   0  0  0  0  0  0  0  0  0  0  0  0
   40.5220   25.2930   42.7710 H   0  0  0  0  0  0  0  0  0  0  0  0
   37.6210   24.6910   42.9280 H   0  0  0  0  0  0  0  0  0  0  0  0
   38.7930   24.3780   41.6250 H   0  0  0  0  0  0  0  0  0  0  0  0
   37.0840   25.9770   40.9620 H   0  0  0  0  0  0  0  0  0  0  0  0
   38.6970   26.7460   40.9110 H   0  0  0  0  0  0  0  0  0  0  0  0
   38.3610   31.8060   40.5510 C   0  0  0  0  0  0  0  0  0  0  0  0
   37.7300   32.9450   40.1860 N   0  0  0  0  0  0  0  0  0  0  0  0
   38.6440   33.9260   40.0120 C   0  0  0  0  0  0  0  0  0  0  0  0
   39.8600   33.3670   40.2790 N   0  0  0  0  0  0  0  0  0  0  0  0
   39.6850   32.0830   40.6060 N   0  0  0  0  0  0  0  0  0  0  0  0
   38.4350   34.9460   39.7190 H   0  0  0  0  0  0  0  0  0  0  0  0
   41.1400   34.0240   40.2280 C   0  0  0  0  0  3  0  0  0  0  0  0
   42.2210   33.3450   41.0040 C   0  0  0  0  0  2  0  0  0  0  0  0
   43.5170   33.4370   40.2230 C   0  0  0  0  0  2  0  0  0  0  0  0
   43.4300   32.6100   38.9690 C   0  0  0  0  0  2  0  0  0  0  0  0
   42.1550   32.9200   38.2200 C   0  0  0  0  0  2  0  0  0  0  0  0
   41.4870   34.1610   38.7570 C   0  0  0  0  0  2  0  0  0  0  0  0
  1  9  1  0  0  0  0
  2  7  1  0  0  0  0
  2  1  2  0  0  0  0
  3  2  1  0  0  0  0
  4  3  2  0  0  0  0
  4  5  1  0  0  0  0
  5  6  2  0  0  0  0
  6  1  1  0  0  0  0
  8  3  1  0  0  0  0
  9 15  1  0  0  0  0
  9 10  1  0  0  0  0
 10 17  1  0  0  0  0
 10 16  1  0  0  0  0
 11 10  1  0  0  0  0
 11 19  1  0  0  0  0
 12 11  1  0  0  0  0
 12 20  1  0  0  0  0
 13 22  1  0  0  0  0
 13 12  1  0  0  0  0
 14 13  1  0  0  0  0
 14  9  1  0  0  0  0
 18 11  1  0  0  0  0
 21 12  1  0  0  0  0
 23 13  1  0  0  0  0
 24 14  1  0  0  0  0
 25 14  1  0  0  0  0
 26 30  2  0  0  0  0
 26  5  1  0  0  0  0
 27 26  1  0  0  0  0
 28 27  2  0  0  0  0
 28 29  1  0  0  0  0
 29 30  1  0  0  0  0
 31 28  1  0  0  0  0
 32 29  1  0  0  0  0
 32 33  1  0  0  0  0
 34 33  1  0  0  0  0
 35 34  1  0  0  0  0
 36 37  1  0  0  0  0
 36 35  1  0  0  0  0
 37 32  1  0  0  0  0
M  END
>  <minimizedAffinity>
-5.93390512

$$$$

 OpenBabel03242519263D

 37 40  0  0  0  0  0  0  0  0999 V2000
   32.2110   28.8890   36.1360 C   0  0  0  0  0  0  0  0  0  0  0  0
   32.3970   27.7290   35.3760 C   0  0  0  0  0  0  0  0  0  0  0  0
   33.4200   26.8210   35.7130 C   0  0  0  0  0  0  0  0  0  0  0  0
   34.1850   27.1580   36.8030 N   0  0  0  0  0  0  0  0  0  0  0  0
   33.9710   28.3040   37.5210 C   0  0  0  0  0  0  0  0  0  0  0  0
   32.9980   29.1430   37.1820 N   0  0  0  0  0  0  0  0  0  0  0  0
   31.8530   27.3790   34.5100 H   0  0  0  0  0  0  0  0  0  0  0  0
   33.6280   25.9130   35.1870 H   0  0  0  0  0  0  0  0  0  0  0  0
   31.1120   29.7610   35.6800 C   0  0  0  0  0  0  0  0  0  0  0  0
   31.3010   30.3070   34.3390 C   0  0  0  0  0  0  0  0  0  0  0  0
   31.5240   31.7760   34.2970 C   0  0  0  0  0  0  0  0  0  0  0  0
   30.4480   32.5610   35.0330 C   0  0  0  0  0  0  0  0  0  0  0  0
   29.9590   31.8910   36.2960 C   0  0  0  0  0  0  0  0  0  0  0  0
   30.9360   30.8420   36.7570 C   0  0  0  0  0  0  0  0  0  0  0  0
   30.1720   29.1390   35.7650 H   0  0  0  0  0  0  0  0  0  0  0  0
   30.3740   30.1020   33.7290 H   0  0  0  0  0  0  0  0  0  0  0  0
   32.1150   29.8240   33.7860 H   0  0  0  0  0  0  0  0  0  0  0  0
   32.5210   32.1340   34.5580 H   0  0  0  0  0  0  0  0  0  0  0  0
   31.3880   32.0790   33.2160 H   0  0  0  0  0  0  0  0  0  0  0  0
   29.6190   32.8510   34.3770 H   0  0  0  0  0  0  0  0  0  0  0  0
   30.9310   33.5190   35.3570 H   0  0  0  0  0  0  0  0  0  0  0  0
   28.9860   31.4100   36.1160 H   0  0  0  0  0  0  0  0  0  0  0  0
   29.8340   32.6110   37.1210 H   0  0  0  0  0  0  0  0  0  0  0  0
   30.5080   30.3320   37.6440 H   0  0  0  0  0  0  0  0  0  0  0  0
   31.9120   31.2670   37.0500 H   0  0  0  0  0  0  0  0  0  0  0  0
   34.8780   28.5080   38.6420 C   0  0  0  0  0  0  0  0  0  0  0  0
   34.4510   29.3080   39.6460 N   0  0  0  0  0  0  0  0  0  0  0  0
   35.4100   29.3830   40.5960 C   0  0  0  0  0  0  0  0  0  0  0  0
   36.4430   28.6080   40.1580 N   0  0  0  0  0  0  0  0  0  0  0  0
   36.1180   28.0800   38.9740 N   0  0  0  0  0  0  0  0  0  0  0  0
   35.3510   29.9490   41.5160 H   0  0  0  0  0  0  0  0  0  0  0  0
   37.6930   28.3760   40.8340 C   0  0  0  0  0  3  0  0  0  0  0  0
   37.9620   29.2970   41.9790 C   0  0  0  0  0  2  0  0  0  0  0  0
   38.6200   28.5110   43.0950 C   0  0  0  0  0  2  0  0  0  0  0  0
   37.6490   27.5200   43.6790 C   0  0  0  0  0  2  0  0  0  0  0  0
   36.9840   26.7250   42.5800 C   0  0  0  0  0  2  0  0  0  0  0  0
   37.6820   26.9200   41.2570 C   0  0  0  0  0  2  0  0  0  0  0  0
  1  6  1  0  0  0  0
  2  3  1  0  0  0  0
  2  1  2  0  0  0  0
  3  4  2  0  0  0  0
  4  5  1  0  0  0  0
  5 26  1  0  0  0  0
  6  5  2  0  0  0  0
  7  2  1  0  0  0  0
  8  3  1  0  0  0  0
  9 15  1  0  0  0  0
  9  1  1  0  0  0  0
  9 14  1  0  0  0  0
 10  9  1  0  0  0  0
 11 10  1  0  0  0  0
 11 18  1  0  0  0  0
 11 12  1  0  0  0  0
 12 21  1  0  0  0  0
 12 13  1  0  0  0  0
 13 14  1  0  0  0  0
 13 23  1  0  0  0  0
 14 25  1  0  0  0  0
 14 24  1  0  0  0  0
 16 10  1  0  0  0  0
 17 10  1  0  0  0  0
 19 11  1  0  0  0  0
 20 12  1  0  0  0  0
 22 13  1  0  0  0  0
 26 30  2  0  0  0  0
 26 27  1  0  0  0  0
 27 28  2  0  0  0  0
 28 31  1  0  0  0  0
 29 28  1  0  0  0  0
 29 32  1  0  0  0  0
 30 29  1  0  0  0  0
 32 37  1  0  0  0  0
 32 33  1  0  0  0  0
 33 34  1  0  0  0  0
 34 35  1  0  0  0  0
 36 35  1  0  0  0  0
 37 36  1  0  0  0  0
M  END
>  <minimizedAffinity>
-5.66183329

$$$$

 OpenBabel03242519263D

 37 40  0  0  0  0  0  0  0  0999 V2000
   37.3510   27.1300   41.5950 C   0  0  0  0  0  0  0  0  0  0  0  0
   37.0340   27.2310   42.9550 C   0  0  0  0  0  0  0  0  0  0  0  0
   37.3940   28.3840   43.6790 C   0  0  0  0  0  0  0  0  0  0  0  0
   38.0540   29.3570   42.9680 N   0  0  0  0  0  0  0  0  0  0  0  0
   38.3460   29.2190   41.6380 C   0  0  0  0  0  0  0  0  0  0  0  0
   37.9940   28.1210   40.9780 N   0  0  0  0  0  0  0  0  0  0  0  0
   36.5230   26.5270   43.5960 H   0  0  0  0  0  0  0  0  0  0  0  0
   37.1890   28.5410   44.7170 H   0  0  0  0  0  0  0  0  0  0  0  0
   36.9260   25.8730   40.9500 C   0  0  0  0  0  0  0  0  0  0  0  0
   36.9120   24.7180   41.8440 C   0  0  0  0  0  0  0  0  0  0  0  0
   37.9400   23.6890   41.5370 C   0  0  0  0  0  0  0  0  0  0  0  0
   37.9030   23.2270   40.0880 C   0  0  0  0  0  0  0  0  0  0  0  0
   37.5990   24.3310   39.1020 C   0  0  0  0  0  0  0  0  0  0  0  0
   37.8330   25.6820   39.7250 C   0  0  0  0  0  0  0  0  0  0  0  0
   35.9090   26.0860   40.5050 H   0  0  0  0  0  0  0  0  0  0  0  0
   35.9090   24.2080   41.7650 H   0  0  0  0  0  0  0  0  0  0  0  0
   37.0090   24.9900   42.9020 H   0  0  0  0  0  0  0  0  0  0  0  0
   38.9620   23.8970   41.8590 H   0  0  0  0  0  0  0  0  0  0  0  0
   37.6410   22.7680   42.1220 H   0  0  0  0  0  0  0  0  0  0  0  0
   37.2510   22.3580   39.9420 H   0  0  0  0  0  0  0  0  0  0  0  0
   38.9390   22.8740   39.8490 H   0  0  0  0  0  0  0  0  0  0  0  0
   36.5500   24.2710   38.7780 H   0  0  0  0  0  0  0  0  0  0  0  0
   38.2360   24.2680   38.2050 H   0  0  0  0  0  0  0  0  0  0  0  0
   37.5350   26.4600   38.9930 H   0  0  0  0  0  0  0  0  0  0  0  0
   38.8910   25.8540   39.9890 H   0  0  0  0  0  0  0  0  0  0  0  0
   39.0540   30.3440   41.0420 C   0  0  0  0  0  0  0  0  0  0  0  0
   39.9770   30.9700   41.8080 N   0  0  0  0  0  0  0  0  0  0  0  0
   40.5330   31.9800   41.1020 C   0  0  0  0  0  0  0  0  0  0  0  0
   39.9330   31.9650   39.8770 N   0  0  0  0  0  0  0  0  0  0  0  0
   39.0380   30.9740   39.8440 N   0  0  0  0  0  0  0  0  0  0  0  0
   41.3010   32.6550   41.4540 H   0  0  0  0  0  0  0  0  0  0  0  0
   40.1960   32.8570   38.7780 C   0  0  0  0  0  3  0  0  0  0  0  0
   41.4280   33.6890   38.9320 C   0  0  0  0  0  2  0  0  0  0  0  0
   42.1150   33.8000   37.5860 C   0  0  0  0  0  2  0  0  0  0  0  0
   42.6600   32.4610   37.1660 C   0  0  0  0  0  2  0  0  0  0  0  0
   41.6020   31.3930   37.3100 C   0  0  0  0  0  2  0  0  0  0  0  0
   40.2360   31.9940   37.5320 C   0  0  0  0  0  2  0  0  0  0  0  0
  1  2  1  0  0  0  0
  2  7  1  0  0  0  0
  2  3  2  0  0  0  0
  3  8  1  0  0  0  0
  4  3  1  0  0  0  0
  5  4  2  0  0  0  0
  6  1  2  0  0  0  0
  6  5  1  0  0  0  0
  9  1  1  0  0  0  0
  9 10  1  0  0  0  0
 10 17  1  0  0  0  0
 11 10  1  0  0  0  0
 11 18  1  0  0  0  0
 11 19  1  0  0  0  0
 12 11  1  0  0  0  0
 13 14  1  0  0  0  0
 13 12  1  0  0  0  0
 14 25  1  0  0  0  0
 14  9  1  0  0  0  0
 15  9  1  0  0  0  0
 16 10  1  0  0  0  0
 20 12  1  0  0  0  0
 21 12  1  0  0  0  0
 22 13  1  0  0  0  0
 23 13  1  0  0  0  0
 24 14  1  0  0  0  0
 26  5  1  0  0  0  0
 26 27  1  0  0  0  0
 28 31  1  0  0  0  0
 28 27  2  0  0  0  0
 29 28  1  0  0  0  0
 30 29  1  0  0  0  0
 30 26  2  0  0  0  0
 32 33  1  0  0  0  0
 32 29  1  0  0  0  0
 34 33  1  0  0  0  0
 35 36  1  0  0  0  0
 35 34  1  0  0  0  0
 36 37  1  0  0  0  0
 37 32  1  0  0  0  0
M  END
>  <minimizedAffinity>
-5.60470343

$$$$

 OpenBabel03242519263D

 37 40  0  0  0  0  0  0  0  0999 V2000
   41.3440   32.3940   39.1840 C   0  0  0  0  0  0  0  0  0  0  0  0
   41.2150   33.7400   39.5450 C   0  0  0  0  0  0  0  0  0  0  0  0
   40.1150   34.1610   40.3160 C   0  0  0  0  0  0  0  0  0  0  0  0
   39.2180   33.1810   40.6660 N   0  0  0  0  0  0  0  0  0  0  0  0
   39.3790   31.8740   40.2920 C   0  0  0  0  0  0  0  0  0  0  0  0
   40.4280   31.5030   39.5650 N   0  0  0  0  0  0  0  0  0  0  0  0
   41.8610   34.5770   39.3210 H   0  0  0  0  0  0  0  0  0  0  0  0
   39.9420   35.1680   40.6350 H   0  0  0  0  0  0  0  0  0  0  0  0
   42.5360   32.0800   38.3730 C   0  0  0  0  0  0  0  0  0  0  0  0
   42.2530   31.8560   36.9580 C   0  0  0  0  0  0  0  0  0  0  0  0
   42.4580   30.4570   36.5020 C   0  0  0  0  0  0  0  0  0  0  0  0
   43.8370   29.9150   36.8500 C   0  0  0  0  0  0  0  0  0  0  0  0
   44.3500   30.3700   38.1960 C   0  0  0  0  0  0  0  0  0  0  0  0
   43.2230   30.8850   39.0520 C   0  0  0  0  0  0  0  0  0  0  0  0
   43.2540   32.9360   38.5400 H   0  0  0  0  0  0  0  0  0  0  0  0
   42.9430   32.5030   36.3420 H   0  0  0  0  0  0  0  0  0  0  0  0
   41.2420   32.1640   36.6650 H   0  0  0  0  0  0  0  0  0  0  0  0
   41.6780   29.7350   36.7480 H   0  0  0  0  0  0  0  0  0  0  0  0
   42.4610   30.4970   35.3710 H   0  0  0  0  0  0  0  0  0  0  0  0
   44.5690   30.0900   36.0520 H   0  0  0  0  0  0  0  0  0  0  0  0
   43.7240   28.8030   36.9210 H   0  0  0  0  0  0  0  0  0  0  0  0
   45.0880   31.1760   38.0660 H   0  0  0  0  0  0  0  0  0  0  0  0
   44.8360   29.5510   38.7490 H   0  0  0  0  0  0  0  0  0  0  0  0
   43.6510   31.2690   39.9990 H   0  0  0  0  0  0  0  0  0  0  0  0
   42.4880   30.1020   39.3050 H   0  0  0  0  0  0  0  0  0  0  0  0
   38.3330   30.9690   40.7450 C   0  0  0  0  0  0  0  0  0  0  0  0
   37.0670   31.4460   40.7620 N   0  0  0  0  0  0  0  0  0  0  0  0
   36.2310   30.4800   41.2040 C   0  0  0  0  0  0  0  0  0  0  0  0
   37.0100   29.3890   41.4590 N   0  0  0  0  0  0  0  0  0  0  0  0
   38.2820   29.6880   41.1800 N   0  0  0  0  0  0  0  0  0  0  0  0
   35.1600   30.5700   41.3230 H   0  0  0  0  0  0  0  0  0  0  0  0
   36.5660   28.1100   41.9500 C   0  0  0  0  0  3  0  0  0  0  0  0
   37.0240   26.9390   41.1410 C   0  0  0  0  0  2  0  0  0  0  0  0
   37.3740   25.8030   42.0810 C   0  0  0  0  0  2  0  0  0  0  0  0
   38.5930   26.1520   42.8920 C   0  0  0  0  0  2  0  0  0  0  0  0
   38.4440   27.5250   43.5030 C   0  0  0  0  0  2  0  0  0  0  0  0
   37.0250   28.0280   43.3930 C   0  0  0  0  0  2  0  0  0  0  0  0
  1  2  2  0  0  0  0
  1  6  1  0  0  0  0
  2  3  1  0  0  0  0
  3  8  1  0  0  0  0
  3  4  2  0  0  0  0
  5  4  1  0  0  0  0
  5 26  1  0  0  0  0
  6  5  2  0  0  0  0
  7  2  1  0  0  0  0
  9 15  1  0  0  0  0
  9 14  1  0  0  0  0
  9  1  1  0  0  0  0
 10  9  1  0  0  0  0
 11 18  1  0  0  0  0
 11 12  1  0  0  0  0
 11 10  1  0  0  0  0
 12 21  1  0  0  0  0
 12 13  1  0  0  0  0
 13 23  1  0  0  0  0
 13 14  1  0  0  0  0
 14 25  1  0  0  0  0
 14 24  1  0  0  0  0
 16 10  1  0  0  0  0
 17 10  1  0  0  0  0
 19 11  1  0  0  0  0
 20 12  1  0  0  0  0
 22 13  1  0  0  0  0
 26 27  1  0  0  0  0
 26 30  2  0  0  0  0
 27 28  2  0  0  0  0
 28 31  1  0  0  0  0
 28 29  1  0  0  0  0
 29 32  1  0  0  0  0
 30 29  1  0  0  0  0
 32 37  1  0  0  0  0
 33 32  1  0  0  0  0
 33 34  1  0  0  0  0
 34 35  1  0  0  0  0
 35 36  1  0  0  0  0
 37 36  1  0  0  0  0
M  END
>  <minimizedAffinity>
-5.58457279

$$$$

 OpenBabel03242519263D

 37 40  0  0  0  0  0  0  0  0999 V2000
   37.4760   28.3060   39.5710 C   0  0  0  0  0  0  0  0  0  0  0  0
   38.4400   29.0840   38.9190 C   0  0  0  0  0  0  0  0  0  0  0  0
   38.0830   29.8550   37.7960 C   0  0  0  0  0  0  0  0  0  0  0  0
   36.7670   29.7820   37.4120 N   0  0  0  0  0  0  0  0  0  0  0  0
   35.8530   29.0080   38.0770 C   0  0  0  0  0  0  0  0  0  0  0  0
   36.2170   28.2900   39.1340 N   0  0  0  0  0  0  0  0  0  0  0  0
   39.4910   29.2060   39.1420 H   0  0  0  0  0  0  0  0  0  0  0  0
   38.7570   30.4760   37.2430 H   0  0  0  0  0  0  0  0  0  0  0  0
   37.9750   27.5410   40.7290 C   0  0  0  0  0  0  0  0  0  0  0  0
   36.9280   26.8800   41.5030 C   0  0  0  0  0  0  0  0  0  0  0  0
   36.7270   27.4350   42.8670 C   0  0  0  0  0  0  0  0  0  0  0  0
   38.0120   27.5000   43.6780 C   0  0  0  0  0  0  0  0  0  0  0  0
   39.2290   27.8750   42.8640 C   0  0  0  0  0  0  0  0  0  0  0  0
   38.8250   28.5130   41.5610 C   0  0  0  0  0  0  0  0  0  0  0  0
   38.7300   26.8100   40.3110 H   0  0  0  0  0  0  0  0  0  0  0  0
   37.2020   25.7930   41.6330 H   0  0  0  0  0  0  0  0  0  0  0  0
   35.9560   26.8680   40.9940 H   0  0  0  0  0  0  0  0  0  0  0  0
   36.1640   28.3680   42.9460 H   0  0  0  0  0  0  0  0  0  0  0  0
   36.0960   26.6770   43.4200 H   0  0  0  0  0  0  0  0  0  0  0  0
   38.1800   26.5920   44.2690 H   0  0  0  0  0  0  0  0  0  0  0  0
   37.8690   28.3260   44.4210 H   0  0  0  0  0  0  0  0  0  0  0  0
   39.8290   26.9790   42.6460 H   0  0  0  0  0  0  0  0  0  0  0  0
   39.8740   28.5930   43.3960 H   0  0  0  0  0  0  0  0  0  0  0  0
   39.7420   28.7100   40.9700 H   0  0  0  0  0  0  0  0  0  0  0  0
   38.3000   29.4730   41.7010 H   0  0  0  0  0  0  0  0  0  0  0  0
   34.5030   29.0430   37.5330 C   0  0  0  0  0  0  0  0  0  0  0  0
   34.3540   28.7290   36.2250 N   0  0  0  0  0  0  0  0  0  0  0  0
   33.0470   28.8100   35.8920 C   0  0  0  0  0  0  0  0  0  0  0  0
   32.3860   29.1820   37.0260 N   0  0  0  0  0  0  0  0  0  0  0  0
   33.2700   29.3220   38.0180 N   0  0  0  0  0  0  0  0  0  0  0  0
   32.6250   28.6150   34.9150 H   0  0  0  0  0  0  0  0  0  0  0  0
   30.9690   29.3970   37.1660 C   0  0  0  0  0  3  0  0  0  0  0  0
   30.5590   30.0260   38.4580 C   0  0  0  0  0  2  0  0  0  0  0  0
   29.4410   31.0130   38.1890 C   0  0  0  0  0  2  0  0  0  0  0  0
   29.9550   32.1810   37.3920 C   0  0  0  0  0  2  0  0  0  0  0  0
   30.7450   31.6980   36.1980 C   0  0  0  0  0  2  0  0  0  0  0  0
   30.5450   30.2210   35.9650 C   0  0  0  0  0  2  0  0  0  0  0  0
  1  9  1  0  0  0  0
  2  7  1  0  0  0  0
  2  1  2  0  0  0  0
  3  2  1  0  0  0  0
  4  3  2  0  0  0  0
  4  5  1  0  0  0  0
  5  6  2  0  0  0  0
  6  1  1  0  0  0  0
  8  3  1  0  0  0  0
  9 10  1  0  0  0  0
  9 14  1  0  0  0  0
 10 16  1  0  0  0  0
 10 11  1  0  0  0  0
 11 18  1  0  0  0  0
 11 19  1  0  0  0  0
 11 12  1  0  0  0  0
 12 20  1  0  0  0  0
 12 21  1  0  0  0  0
 13 23  1  0  0  0  0
 13 12  1  0  0  0  0
 14 25  1  0  0  0  0
 14 13  1  0  0  0  0
 15  9  1  0  0  0  0
 17 10  1  0  0  0  0
 22 13  1  0  0  0  0
 24 14  1  0  0  0  0
 26 30  2  0  0  0  0
 26  5  1  0  0  0  0
 27 26  1  0  0  0  0
 28 27  2  0  0  0  0
 28 29  1  0  0  0  0
 29 32  1  0  0  0  0
 29 30  1  0  0  0  0
 31 28  1  0  0  0  0
 32 33  1  0  0  0  0
 34 33  1  0  0  0  0
 35 34  1  0  0  0  0
 36 35  1  0  0  0  0
 37 36  1  0  0  0  0
 37 32  1  0  0  0  0
M  END
>  <minimizedAffinity>
-5.56713629

$$$$

 OpenBabel03242519263D

 37 40  0  0  0  0  0  0  0  0999 V2000
   39.2550   32.3240   40.8010 C   0  0  0  0  0  0  0  0  0  0  0  0
   38.0970   32.8660   40.2310 C   0  0  0  0  0  0  0  0  0  0  0  0
   36.8960   32.1300   40.2380 C   0  0  0  0  0  0  0  0  0  0  0  0
   36.9560   30.8900   40.8240 N   0  0  0  0  0  0  0  0  0  0  0  0
   38.1100   30.3940   41.3710 C   0  0  0  0  0  0  0  0  0  0  0  0
   39.2290   31.1100   41.3530 N   0  0  0  0  0  0  0  0  0  0  0  0
   37.9510   33.8230   39.7510 H   0  0  0  0  0  0  0  0  0  0  0  0
   35.9700   32.4710   39.8250 H   0  0  0  0  0  0  0  0  0  0  0  0
   40.4470   33.1890   40.7270 C   0  0  0  0  0  0  0  0  0  0  0  0
   40.4310   34.1340   39.6140 C   0  0  0  0  0  0  0  0  0  0  0  0
   41.4450   33.8650   38.5620 C   0  0  0  0  0  0  0  0  0  0  0  0
   42.8560   33.7360   39.1160 C   0  0  0  0  0  0  0  0  0  0  0  0
   42.9260   33.0340   40.4520 C   0  0  0  0  0  0  0  0  0  0  0  0
   41.6660   32.2530   40.7120 C   0  0  0  0  0  0  0  0  0  0  0  0
   40.5140   33.7040   41.7310 H   0  0  0  0  0  0  0  0  0  0  0  0
   40.6440   35.1680   40.0120 H   0  0  0  0  0  0  0  0  0  0  0  0
   39.4510   34.2130   39.1290 H   0  0  0  0  0  0  0  0  0  0  0  0
   41.2250   33.0630   37.8540 H   0  0  0  0  0  0  0  0  0  0  0  0
   41.4890   34.7990   37.9260 H   0  0  0  0  0  0  0  0  0  0  0  0
   43.3900   34.6940   39.1290 H   0  0  0  0  0  0  0  0  0  0  0  0
   43.4150   33.0860   38.3950 H   0  0  0  0  0  0  0  0  0  0  0  0
   43.0560   33.7690   41.2600 H   0  0  0  0  0  0  0  0  0  0  0  0
   43.7690   32.3250   40.5010 H   0  0  0  0  0  0  0  0  0  0  0  0
   41.7310   31.8110   41.7270 H   0  0  0  0  0  0  0  0  0  0  0  0
   41.5180   31.4280   39.9930 H   0  0  0  0  0  0  0  0  0  0  0  0
   37.9960   29.0620   41.9470 C   0  0  0  0  0  0  0  0  0  0  0  0
   38.1140   28.9560   43.2910 N   0  0  0  0  0  0  0  0  0  0  0  0
   37.9820   27.6590   43.6500 C   0  0  0  0  0  0  0  0  0  0  0  0
   37.7770   26.9620   42.4950 N   0  0  0  0  0  0  0  0  0  0  0  0
   37.7860   27.8140   41.4660 N   0  0  0  0  0  0  0  0  0  0  0  0
   38.0310   27.2700   44.6580 H   0  0  0  0  0  0  0  0  0  0  0  0
   37.5810   25.5410   42.3700 C   0  0  0  0  0  3  0  0  0  0  0  0
   36.9900   25.1060   41.0690 C   0  0  0  0  0  2  0  0  0  0  0  0
   37.6550   23.8130   40.6380 C   0  0  0  0  0  2  0  0  0  0  0  0
   39.0980   24.0590   40.2890 C   0  0  0  0  0  2  0  0  0  0  0  0
   39.7780   24.8470   41.3840 C   0  0  0  0  0  2  0  0  0  0  0  0
   38.9310   24.9020   42.6320 C   0  0  0  0  0  2  0  0  0  0  0  0
  1  6  1  0  0  0  0
  2  3  1  0  0  0  0
  2  1  2  0  0  0  0
  3  4  2  0  0  0  0
  4  5  1  0  0  0  0
  5 26  1  0  0  0  0
  6  5  2  0  0  0  0
  7  2  1  0  0  0  0
  8  3  1  0  0  0  0
  9  1  1  0  0  0  0
  9 15  1  0  0  0  0
 10 16  1  0  0  0  0
 10  9  1  0  0  0  0
 11 12  1  0  0  0  0
 11 10  1  0  0  0  0
 12 20  1  0  0  0  0
 12 13  1  0  0  0  0
 13 23  1  0  0  0  0
 13 14  1  0  0  0  0
 13 22  1  0  0  0  0
 14  9  1  0  0  0  0
 14 24  1  0  0  0  0
 17 10  1  0  0  0  0
 18 11  1  0  0  0  0
 19 11  1  0  0  0  0
 21 12  1  0  0  0  0
 25 14  1  0  0  0  0
 26 27  1  0  0  0  0
 27 28  2  0  0  0  0
 28 31  1  0  0  0  0
 29 28  1  0  0  0  0
 30 26  2  0  0  0  0
 30 29  1  0  0  0  0
 32 29  1  0  0  0  0
 32 37  1  0  0  0  0
 33 32  1  0  0  0  0
 34 33  1  0  0  0  0
 35 34  1  0  0  0  0
 35 36  1  0  0  0  0
 36 37  1  0  0  0  0
M  END
>  <minimizedAffinity>
-5.55326271

$$$$

 OpenBabel03242519263D

 37 40  0  0  0  0  0  0  0  0999 V2000
   37.4380   24.9570   41.4040 C   0  0  0  0  0  0  0  0  0  0  0  0
   38.4610   24.7900   42.3450 C   0  0  0  0  0  0  0  0  0  0  0  0
   39.0910   25.9160   42.9100 C   0  0  0  0  0  0  0  0  0  0  0  0
   38.6360   27.1370   42.4780 N   0  0  0  0  0  0  0  0  0  0  0  0
   37.6320   27.2600   41.5550 C   0  0  0  0  0  0  0  0  0  0  0  0
   37.0530   26.1810   41.0380 N   0  0  0  0  0  0  0  0  0  0  0  0
   38.8850   23.8800   42.7440 H   0  0  0  0  0  0  0  0  0  0  0  0
   39.8780   25.8750   43.6330 H   0  0  0  0  0  0  0  0  0  0  0  0
   36.8620   23.7040   40.8830 C   0  0  0  0  0  0  0  0  0  0  0  0
   37.8540   22.6880   40.5400 C   0  0  0  0  0  0  0  0  0  0  0  0
   37.9640   22.4010   39.0860 C   0  0  0  0  0  0  0  0  0  0  0  0
   36.6270   22.0620   38.4440 C   0  0  0  0  0  0  0  0  0  0  0  0
   35.4680   22.8660   38.9860 C   0  0  0  0  0  0  0  0  0  0  0  0
   35.9590   24.0950   39.7030 C   0  0  0  0  0  0  0  0  0  0  0  0
   36.1360   23.3480   41.6730 H   0  0  0  0  0  0  0  0  0  0  0  0
   37.5700   21.7180   41.0410 H   0  0  0  0  0  0  0  0  0  0  0  0
   38.8570   22.9200   40.9170 H   0  0  0  0  0  0  0  0  0  0  0  0
   38.5210   23.1180   38.4790 H   0  0  0  0  0  0  0  0  0  0  0  0
   38.5560   21.4410   39.0030 H   0  0  0  0  0  0  0  0  0  0  0  0
   36.4180   20.9850   38.4560 H   0  0  0  0  0  0  0  0  0  0  0  0
   36.7210   22.3420   37.3640 H   0  0  0  0  0  0  0  0  0  0  0  0
   34.8830   22.2580   39.6920 H   0  0  0  0  0  0  0  0  0  0  0  0
   34.7900   23.2010   38.1840 H   0  0  0  0  0  0  0  0  0  0  0  0
   35.0840   24.6170   40.1400 H   0  0  0  0  0  0  0  0  0  0  0  0
   36.4750   24.8030   39.0320 H   0  0  0  0  0  0  0  0  0  0  0  0
   37.2770   28.6280   41.2070 C   0  0  0  0  0  0  0  0  0  0  0  0
   35.9680   28.8920   40.9880 N   0  0  0  0  0  0  0  0  0  0  0  0
   35.8220   30.2000   40.6810 C   0  0  0  0  0  0  0  0  0  0  0  0
   37.0730   30.7430   40.7150 N   0  0  0  0  0  0  0  0  0  0  0  0
   37.9520   29.7890   41.0330 N   0  0  0  0  0  0  0  0  0  0  0  0
   34.8890   30.7010   40.4570 H   0  0  0  0  0  0  0  0  0  0  0  0
   37.4230   32.1150   40.4550 C   0  0  0  0  0  3  0  0  0  0  0  0
   38.7710   32.5200   40.9590 C   0  0  0  0  0  2  0  0  0  0  0  0
   39.4140   33.4460   39.9460 C   0  0  0  0  0  2  0  0  0  0  0  0
   39.7370   32.6950   38.6820 C   0  0  0  0  0  2  0  0  0  0  0  0
   38.5370   31.9010   38.2200 C   0  0  0  0  0  2  0  0  0  0  0  0
   37.2860   32.3110   38.9570 C   0  0  0  0  0  2  0  0  0  0  0  0
  1  2  1  0  0  0  0
  2  7  1  0  0  0  0
  2  3  2  0  0  0  0
  3  8  1  0  0  0  0
  4  3  1  0  0  0  0
  5  4  2  0  0  0  0
  6  1  2  0  0  0  0
  6  5  1  0  0  0  0
  9  1  1  0  0  0  0
  9 15  1  0  0  0  0
 10  9  1  0  0  0  0
 10 17  1  0  0  0  0
 10 16  1  0  0  0  0
 11 10  1  0  0  0  0
 12 20  1  0  0  0  0
 12 13  1  0  0  0  0
 12 11  1  0  0  0  0
 13 22  1  0  0  0  0
 13 14  1  0  0  0  0
 14 24  1  0  0  0  0
 14  9  1  0  0  0  0
 18 11  1  0  0  0  0
 19 11  1  0  0  0  0
 21 12  1  0  0  0  0
 23 13  1  0  0  0  0
 25 14  1  0  0  0  0
 26  5  1  0  0  0  0
 27 26  1  0  0  0  0
 28 29  1  0  0  0  0
 28 27  2  0  0  0  0
 29 30  1  0  0  0  0
 30 26  2  0  0  0  0
 31 28  1  0  0  0  0
 32 29  1  0  0  0  0
 32 33  1  0  0  0  0
 34 33  1  0  0  0  0
 35 34  1  0  0  0  0
 36 35  1  0  0  0  0
 36 37  1  0  0  0  0
 37 32  1  0  0  0  0
M  END
>  <minimizedAffinity>
-5.48647213

$$$$

 OpenBabel03242519263D

 37 40  0  0  0  0  0  0  0  0999 V2000
   36.6020   27.3880   40.0420 C   0  0  0  0  0  0  0  0  0  0  0  0
   36.7490   28.4390   40.9540 C   0  0  0  0  0  0  0  0  0  0  0  0
   35.9440   29.5900   40.8410 C   0  0  0  0  0  0  0  0  0  0  0  0
   35.0430   29.5910   39.8050 N   0  0  0  0  0  0  0  0  0  0  0  0
   34.9290   28.5420   38.9320 C   0  0  0  0  0  0  0  0  0  0  0  0
   35.7000   27.4680   39.0620 N   0  0  0  0  0  0  0  0  0  0  0  0
   37.4230   28.5310   41.7940 H   0  0  0  0  0  0  0  0  0  0  0  0
   35.9930   30.4350   41.4950 H   0  0  0  0  0  0  0  0  0  0  0  0
   37.5050   26.2430   40.2620 C   0  0  0  0  0  0  0  0  0  0  0  0
   36.8170   24.9680   40.4500 C   0  0  0  0  0  0  0  0  0  0  0  0
   36.9320   24.4020   41.8200 C   0  0  0  0  0  0  0  0  0  0  0  0
   38.3720   24.2930   42.2990 C   0  0  0  0  0  0  0  0  0  0  0  0
   39.2490   25.4450   41.8640 C   0  0  0  0  0  0  0  0  0  0  0  0
   38.4130   26.6240   41.4420 C   0  0  0  0  0  0  0  0  0  0  0  0
   38.2050   26.2290   39.3750 H   0  0  0  0  0  0  0  0  0  0  0  0
   37.2630   24.2070   39.7470 H   0  0  0  0  0  0  0  0  0  0  0  0
   35.7530   25.0080   40.1870 H   0  0  0  0  0  0  0  0  0  0  0  0
   36.2920   24.8350   42.5910 H   0  0  0  0  0  0  0  0  0  0  0  0
   36.5920   23.3260   41.7400 H   0  0  0  0  0  0  0  0  0  0  0  0
   38.8220   23.3230   42.0560 H   0  0  0  0  0  0  0  0  0  0  0  0
   38.3310   24.3400   43.4170 H   0  0  0  0  0  0  0  0  0  0  0  0
   39.8800   25.1400   41.0160 H   0  0  0  0  0  0  0  0  0  0  0  0
   39.9120   25.7860   42.6760 H   0  0  0  0  0  0  0  0  0  0  0  0
   39.0910   27.4170   41.0690 H   0  0  0  0  0  0  0  0  0  0  0  0
   37.8210   27.0470   42.2720 H   0  0  0  0  0  0  0  0  0  0  0  0
   33.9260   28.7120   37.8910 C   0  0  0  0  0  0  0  0  0  0  0  0
   34.1460   28.0860   36.7110 N   0  0  0  0  0  0  0  0  0  0  0  0
   33.1230   28.3500   35.8680 C   0  0  0  0  0  0  0  0  0  0  0  0
   32.2600   29.1540   36.5540 N   0  0  0  0  0  0  0  0  0  0  0  0
   32.7500   29.3720   37.7780 N   0  0  0  0  0  0  0  0  0  0  0  0
   33.0230   27.9850   34.8550 H   0  0  0  0  0  0  0  0  0  0  0  0
   31.0180   29.6980   36.0680 C   0  0  0  0  0  3  0  0  0  0  0  0
   30.5830   30.9570   36.7430 C   0  0  0  0  0  2  0  0  0  0  0  0
   29.9760   31.8830   35.7080 C   0  0  0  0  0  2  0  0  0  0  0  0
   31.0340   32.3610   34.7500 C   0  0  0  0  0  2  0  0  0  0  0  0
   31.8450   31.1950   34.2360 C   0  0  0  0  0  2  0  0  0  0  0  0
   31.1910   29.8770   34.5720 C   0  0  0  0  0  2  0  0  0  0  0  0
  1  9  1  0  0  0  0
  1  2  1  0  0  0  0
  2  7  1  0  0  0  0
  3  2  2  0  0  0  0
  3  8  1  0  0  0  0
  4  3  1  0  0  0  0
  5  6  1  0  0  0  0
  5  4  2  0  0  0  0
  6  1  2  0  0  0  0
  9 10  1  0  0  0  0
  9 14  1  0  0  0  0
 10 11  1  0  0  0  0
 11 12  1  0  0  0  0
 11 18  1  0  0  0  0
 12 21  1  0  0  0  0
 13 12  1  0  0  0  0
 13 23  1  0  0  0  0
 14 13  1  0  0  0  0
 14 25  1  0  0  0  0
 15  9  1  0  0  0  0
 16 10  1  0  0  0  0
 17 10  1  0  0  0  0
 19 11  1  0  0  0  0
 20 12  1  0  0  0  0
 22 13  1  0  0  0  0
 24 14  1  0  0  0  0
 26  5  1  0  0  0  0
 27 26  1  0  0  0  0
 28 29  1  0  0  0  0
 28 27  2  0  0  0  0
 29 30  1  0  0  0  0
 30 26  2  0  0  0  0
 31 28  1  0  0  0  0
 32 29  1  0  0  0  0
 32 33  1  0  0  0  0
 34 33  1  0  0  0  0
 35 34  1  0  0  0  0
 36 37  1  0  0  0  0
 36 35  1  0  0  0  0
 37 32  1  0  0  0  0
M  END
>  <minimizedAffinity>
-5.42784214

$$$$
