REMARK  Name = 
REMARK  10 active torsions:
REMARK  status: ('A' for Active; 'I' for Inactive)
REMARK    1  A    between atoms: C_1  and  O_13
REMARK    2  A    between atoms: C_2  and  C_10
REMARK    3  A    between atoms: C_5  and  O_14
REMARK    4  A    between atoms: C_6  and  O_12
REMARK    5  A    between atoms: O_14  and  C_15
REMARK    6  A    between atoms: C_15  and  C_16
REMARK    7  A    between atoms: C_16  and  C_18
REMARK    8  A    between atoms: C_17  and  O_23
REMARK    9  A    between atoms: C_22  and  O_24
REMARK   10  A    between atoms: O_24  and  C_42
REMARK                            x       y       z     vdW  Elec       q    Type
REMARK                         _______ _______ _______ _____ _____    ______ ____
ROOT
ATOM      1  C   UNL     1      44.974  29.100  47.282  0.00  0.00    +0.000 C 
ATOM      2  H   UNL     1      45.282  28.726  48.217  0.00  0.00    +0.000 HD
ATOM      3  H   UNL     1      43.772  29.212  47.607  0.00  0.00    +0.000 HD
ENDROOT
BRANCH   1   4
ATOM      4  C   UNL     1      44.800  28.215  46.053  0.00  0.00    +0.000 C 
ATOM      5  H   UNL     1      45.625  27.456  46.090  0.00  0.00    +0.000 HD
ATOM      6  H   UNL     1      44.901  28.758  45.124  0.00  0.00    +0.000 HD
BRANCH   4   8
ATOM      7  C   UNL     1      42.446  28.076  45.467  0.00  0.00    +0.000 A 
ATOM      8  C   UNL     1      43.528  27.494  46.146  0.00  0.00    +0.000 A 
ATOM      9  C   UNL     1      43.210  26.337  46.818  0.00  0.00    +0.000 A 
ATOM     10  C   UNL     1      41.975  25.763  46.857  0.00  0.00    +0.000 A 
ATOM     11  C   UNL     1      40.921  26.355  46.180  0.00  0.00    +0.000 A 
ATOM     12  C   UNL     1      41.170  27.545  45.467  0.00  0.00    +0.000 A 
ATOM     13  H   UNL     1      44.078  25.915  47.333  0.00  0.00    +0.000 HD
ATOM     14  H   UNL     1      41.892  24.849  47.434  0.00  0.00    +0.000 HD
ATOM     15  H   UNL     1      39.958  25.868  46.237  0.00  0.00    +0.000 HD
BRANCH   7  16
ATOM     16  O   UNL     1      42.468  29.230  44.711  0.00  0.00    +0.000 OA
ATOM     17  H   UNL     1      42.852  29.197  43.770  0.00  0.00    +0.000 HD
ENDBRANCH   7  16
BRANCH  12  18
ATOM     18  O   UNL     1      40.078  28.022  44.854  0.00  0.00    +0.000 OA
BRANCH  18  19
ATOM     19  C   UNL     1      39.747  29.079  44.068  0.00  0.00    +0.000 C 
ATOM     20  C   UNL     1      39.999  28.631  42.611  0.00  0.00    +0.000 C 
ATOM     21  C   UNL     1      39.792  29.823  41.724  0.00  0.00    +0.000 C 
ATOM     22  C   UNL     1      38.373  30.330  41.849  0.00  0.00    +0.000 C 
ATOM     23  C   UNL     1      37.940  30.523  43.264  0.00  0.00    +0.000 C 
ATOM     24  C   UNL     1      38.219  29.298  44.098  0.00  0.00    +0.000 C 
ENDBRANCH  18  19
ENDBRANCH  12  18
ENDBRANCH   4   8
ENDBRANCH   1   4
BRANCH   1  25
ATOM     25  O   UNL     1      45.214  30.384  46.989  0.00  0.00    +0.000 OA
BRANCH  25  30
ATOM     26  C   UNL     1      46.370  32.461  46.900  0.00  0.00    +0.000 C 
ATOM     27  C   UNL     1      47.069  32.550  45.619  0.00  0.00    +0.000 C 
ATOM     28  O   UNL     1      46.846  31.208  45.023  0.00  0.00    +0.000 OA
ATOM     29  C   UNL     1      47.351  30.465  46.086  0.00  0.00    +0.000 C 
ATOM     30  C   UNL     1      46.362  31.013  47.255  0.00  0.00    +0.000 C 
ATOM     31  H   UNL     1      46.779  33.105  47.701  0.00  0.00    +0.000 HD
ATOM     32  H   UNL     1      48.183  32.548  45.777  0.00  0.00    +0.000 HD
ATOM     33  H   UNL     1      48.366  30.767  46.367  0.00  0.00    +0.000 HD
ATOM     34  H   UNL     1      47.165  29.395  45.996  0.00  0.00    +0.000 HD
ATOM     35  H   UNL     1      47.007  30.642  48.070  0.00  0.00    +0.000 HD
BRANCH  27  40
ATOM     36  C   UNL     1      44.928  35.148  44.225  0.00  0.00    +0.000 A 
ATOM     37  C   UNL     1      45.572  35.515  43.047  0.00  0.00    +0.000 A 
ATOM     38  C   UNL     1      46.768  34.855  42.702  0.00  0.00    +0.000 A 
ATOM     39  N   UNL     1      47.246  33.895  43.523  0.00  0.00    +0.000 NA
ATOM     40  C   UNL     1      46.605  33.552  44.664  0.00  0.00    +0.000 A 
ATOM     41  N   UNL     1      45.442  34.174  45.025  0.00  0.00    +0.000 NA
ATOM     42  H   UNL     1      45.108  36.300  42.453  0.00  0.00    +0.000 HD
ATOM     43  H   UNL     1      47.244  35.150  41.798  0.00  0.00    +0.000 HD
BRANCH  36  44
ATOM     44  O   UNL     1      43.742  35.769  44.614  0.00  0.00    +0.000 OA
ATOM     45  H   UNL     1      42.921  35.825  44.044  0.00  0.00    +0.000 HD
ENDBRANCH  36  44
ENDBRANCH  27  40
BRANCH  26  46
ATOM     46  O   UNL     1      44.981  32.852  46.688  0.00  0.00    +0.000 OA
ATOM     47  H   UNL     1      44.443  32.281  47.300  0.00  0.00    +0.000 HD
ENDBRANCH  26  46
ENDBRANCH  25  30
ENDBRANCH   1  25
TORSDOF 10
