
 OpenBabel03242518543D

 39 41  0  0  1  0  0  0  0  0999 V2000
   45.7700   31.2570   46.6190 C   0  0  2  0  0  0  0  0  0  0  0  0
   45.8140   30.5170   47.9180 C   0  0  0  0  0  0  0  0  0  0  0  0
   45.0320   29.2660   47.7300 C   0  0  0  0  0  0  0  0  0  0  0  0
   44.3740   29.1080   46.3980 C   0  0  0  0  0  0  0  0  0  0  0  0
   45.3810   29.2550   45.2900 C   0  0  0  0  0  0  0  0  0  0  0  0
   46.3030   30.3570   45.5210 C   0  0  2  0  0  0  0  0  0  0  0  0
   44.7110   31.4280   46.3340 H   0  0  0  0  0  0  0  0  0  0  0  0
   46.8420   30.3680   48.3040 H   0  0  0  0  0  0  0  0  0  0  0  0
   45.3440   31.1990   48.6940 H   0  0  0  0  0  0  0  0  0  0  0  0
   44.1720   29.3100   48.4680 H   0  0  0  0  0  0  0  0  0  0  0  0
   45.5520   28.3270   48.0330 H   0  0  0  0  0  0  0  0  0  0  0  0
   43.4990   29.7880   46.2740 H   0  0  0  0  0  0  0  0  0  0  0  0
   43.9360   28.0860   46.3840 H   0  0  0  0  0  0  0  0  0  0  0  0
   44.7620   29.4710   44.3650 H   0  0  0  0  0  0  0  0  0  0  0  0
   45.7840   28.2460   45.1020 H   0  0  0  0  0  0  0  0  0  0  0  0
   46.3770   31.0030   44.6280 H   0  0  0  0  0  0  0  0  0  0  0  0
   47.5930   29.7490   45.9360 C   0  0  0  0  0  0  0  0  0  0  0  0
   47.4320   28.7010   46.2570 H   0  0  0  0  0  0  0  0  0  0  0  0
   47.9770   30.3700   46.7960 H   0  0  0  0  0  0  0  0  0  0  0  0
   48.6930   29.7080   44.9310 C   0  0  0  0  0  3  0  0  0  0  0  0
   48.8480   28.3640   44.2640 C   0  0  0  0  0  2  0  0  0  0  0  0
   48.6670   28.4560   42.7600 C   0  0  0  0  0  2  0  0  0  0  0  0
   49.6630   29.4660   42.2370 C   0  0  0  0  0  2  0  0  0  0  0  0
   49.2250   30.8090   42.7360 C   0  0  0  0  0  2  0  0  0  0  0  0
   48.3060   30.7780   43.9000 C   0  0  0  0  0  2  0  0  0  0  0  0
   46.4540   32.5760   46.6580 C   0  0  0  0  0  0  0  0  0  0  0  0
   47.3810   32.8500   47.4550 O   0  0  0  0  0  0  0  0  0  0  0  0
   44.5970   35.3460   45.1630 C   0  0  0  0  0  0  0  0  0  0  0  0
   45.1240   35.4610   43.8540 C   0  0  0  0  0  0  0  0  0  0  0  0
   46.1270   34.5690   43.5190 C   0  0  0  0  0  0  0  0  0  0  0  0
   46.4730   33.7090   44.4770 N   0  0  0  0  0  0  0  0  0  0  0  0
   45.9900   33.5930   45.6940 C   0  0  0  0  0  0  0  0  0  0  0  0
   45.0160   34.4470   46.0430 N   0  0  0  0  0  0  0  0  0  0  0  0
   43.7950   36.0420   45.4610 H   0  0  0  0  0  0  0  0  0  0  0  0
   44.7480   36.2130   43.1720 H   0  0  0  0  0  0  0  0  0  0  0  0
   46.6720   34.6710   42.1750 C   0  0  0  0  0  0  0  0  0  0  0  0
   47.3690   33.5080   41.8610 F   0  0  0  0  0  0  0  0  0  0  0  0
   47.5400   35.7150   42.1750 F   0  0  0  0  0  0  0  0  0  0  0  0
   45.6790   34.7780   41.2080 F   0  0  0  0  0  0  0  0  0  0  0  0
  1  7  1  6  0  0  0
  1 26  1  0  0  0  0
  1  2  1  0  0  0  0
  2  8  1  0  0  0  0
  2  9  1  0  0  0  0
  3  2  1  0  0  0  0
  3 11  1  0  0  0  0
  3 10  1  0  0  0  0
  4  3  1  0  0  0  0
  5  6  1  0  0  0  0
  5  4  1  0  0  0  0
  6 16  1  6  0  0  0
  6 17  1  0  0  0  0
  6  1  1  0  0  0  0
 12  4  1  0  0  0  0
 13  4  1  0  0  0  0
 14  5  1  0  0  0  0
 15  5  1  0  0  0  0
 17 18  1  0  0  0  0
 17 19  1  0  0  0  0
 20 17  1  0  0  0  0
 21 20  1  0  0  0  0
 22 21  1  0  0  0  0
 23 24  1  0  0  0  0
 23 22  1  0  0  0  0
 24 25  1  0  0  0  0
 25 20  1  0  0  0  0
 26 27  2  0  0  0  0
 28 34  1  0  0  0  0
 28 33  1  0  0  0  0
 29 28  2  0  0  0  0
 30 29  1  0  0  0  0
 30 31  2  0  0  0  0
 31 32  1  0  0  0  0
 32 33  2  0  0  0  0
 32 26  1  0  0  0  0
 35 29  1  0  0  0  0
 36 30  1  0  0  0  0
 37 36  1  0  0  0  0
 38 36  1  0  0  0  0
 39 36  1  0  0  0  0
M  END
>  <minimizedAffinity>
-5.24738932

>  <minimizedRMSD>
1.56864667

$$$$
