
 OpenBabel03252509273D

 27 29  0  0  1  0  0  0  0  0999 V2000
   46.6580   35.1510   41.9130 C   0  0  1  0  0  0  0  0  0  0  0  0
   48.2050   35.3200   41.9270 C   0  0  0  0  0  0  0  0  0  0  0  0
   47.4010   34.1710   41.2360 C   0  0  2  0  0  0  0  0  0  0  0  0
   46.1370   35.9860   41.3970 H   0  0  0  0  0  0  0  0  0  0  0  0
   48.6030   36.0530   41.1980 H   0  0  0  0  0  0  0  0  0  0  0  0
   48.7570   35.0920   42.8330 H   0  0  0  0  0  0  0  0  0  0  0  0
   47.5670   33.1890   41.7780 H   0  0  0  0  0  0  0  0  0  0  0  0
   44.7090   35.2760   45.1170 C   0  0  0  0  0  0  0  0  0  0  0  0
   45.1640   35.6590   43.8230 C   0  0  0  0  0  0  0  0  0  0  0  0
   46.1440   34.8770   43.3050 C   0  0  0  0  0  0  0  0  0  0  0  0
   46.6580   33.7950   43.9870 N   0  0  0  0  0  0  0  0  0  0  0  0
   46.1990   33.4630   45.2200 C   0  0  0  0  0  0  0  0  0  0  0  0
   45.2150   34.2150   45.7830 N   0  0  0  0  0  0  0  0  0  0  0  0
   43.9180   35.9100   45.5330 H   0  0  0  0  0  0  0  0  0  0  0  0
   46.5680   32.6330   45.7850 H   0  0  0  0  0  0  0  0  0  0  0  0
   44.6560   36.7820   43.1280 N   0  0  0  0  0  0  0  0  0  0  0  0
   44.0120   36.7790   42.2890 H   0  0  0  0  0  0  0  0  0  0  0  0
   44.8790   37.7880   43.3900 H   0  0  0  0  0  0  0  0  0  0  0  0
   47.4400   34.0950   39.7240 C   0  0  0  0  0  0  0  0  0  0  0  0
   46.4480   34.3790   39.3100 H   0  0  0  0  0  0  0  0  0  0  0  0
   48.1980   34.8300   39.3480 H   0  0  0  0  0  0  0  0  0  0  0  0
   47.7980   32.6800   39.3110 C   0  0  0  0  0  3  0  0  0  0  0  0
   47.6320   32.4680   37.8500 C   0  0  0  0  0  2  0  0  0  0  0  0
   48.5690   31.5480   37.1720 C   0  0  0  0  0  2  0  0  0  0  0  0
   49.2160   30.6240   38.1840 C   0  0  0  0  0  2  0  0  0  0  0  0
   50.0490   31.5620   39.0380 C   0  0  0  0  0  2  0  0  0  0  0  0
   49.0900   32.3100   39.9190 C   0  0  0  0  0  2  0  0  0  0  0  0
  1  4  1  6  0  0  0
  1  2  1  0  0  0  0
  1 10  1  0  0  0  0
  2  6  1  0  0  0  0
  3  7  1  1  0  0  0
  3  1  1  0  0  0  0
  3  2  1  0  0  0  0
  5  2  1  0  0  0  0
  8 14  1  0  0  0  0
  8 13  1  0  0  0  0
  9  8  2  0  0  0  0
 10  9  1  0  0  0  0
 10 11  2  0  0  0  0
 11 12  1  0  0  0  0
 12 13  2  0  0  0  0
 12 15  1  0  0  0  0
 16 18  1  0  0  0  0
 16  9  1  0  0  0  0
 17 16  1  0  0  0  0
 19  3  1  0  0  0  0
 20 19  1  0  0  0  0
 21 19  1  0  0  0  0
 22 19  1  0  0  0  0
 22 27  1  0  0  0  0
 23 22  1  0  0  0  0
 24 23  1  0  0  0  0
 24 25  1  0  0  0  0
 25 26  1  0  0  0  0
 26 27  1  0  0  0  0
M  END
>  <minimizedAffinity>
-4.61029196

>  <minimizedRMSD>
0.613566756

$$$$
