
 OpenBabel03242519493D

 47 50  0  0  1  0  0  0  0  0999 V2000
   51.0260   30.6930   38.3440 C   0  0  0  0  0  0  0  0  0  0  0  0
   51.7210   31.4490   38.1090 H   0  0  0  0  0  0  0  0  0  0  0  0
   51.3490   29.9550   37.3890 H   0  0  0  0  0  0  0  0  0  0  0  0
   49.5360   30.8170   38.0480 C   0  0  0  0  0  0  0  0  0  0  0  0
   49.0200   30.0630   38.6980 H   0  0  0  0  0  0  0  0  0  0  0  0
   49.2890   30.5840   37.0220 H   0  0  0  0  0  0  0  0  0  0  0  0
   48.7700   32.3020   39.8120 C   0  0  0  0  0  0  0  0  0  0  0  0
   49.0670   32.1460   38.4490 C   0  0  0  0  0  0  0  0  0  0  0  0
   48.8430   33.2740   37.6950 C   0  0  0  0  0  0  0  0  0  0  0  0
   48.3770   34.4620   38.1740 C   0  0  0  0  0  0  0  0  0  0  0  0
   48.0900   34.5930   39.5230 C   0  0  0  0  0  0  0  0  0  0  0  0
   48.2950   33.4780   40.3600 C   0  0  0  0  0  0  0  0  0  0  0  0
   49.0860   33.1130   36.6410 H   0  0  0  0  0  0  0  0  0  0  0  0
   48.2560   35.2550   37.4450 H   0  0  0  0  0  0  0  0  0  0  0  0
   47.7220   35.5510   39.8610 H   0  0  0  0  0  0  0  0  0  0  0  0
   48.8990   31.3480   40.8010 O   0  0  0  0  0  0  0  0  0  0  0  0
   49.8230   31.1460   41.1750 H   0  0  0  0  0  0  0  0  0  0  0  0
   47.9840   33.7250   41.6400 O   0  0  0  0  0  0  0  0  0  0  0  0
   46.8780   33.7080   42.4280 C   0  0  0  0  0  3  0  0  0  0  0  0
   47.3690   33.3730   43.8540 C   0  0  0  0  0  2  0  0  0  0  0  0
   46.1590   33.1930   44.7240 C   0  0  0  0  0  2  0  0  0  0  0  0
   45.3480   34.4680   44.7650 C   0  0  0  0  0  2  0  0  0  0  0  0
   45.0660   35.0310   43.4110 C   0  0  0  0  0  2  0  0  0  0  0  0
   46.3230   35.1410   42.5860 C   0  0  0  0  0  2  0  0  0  0  0  0
   51.3060   29.8480   39.3440 O   0  0  0  0  0  0  0  0  0  0  0  0
   52.3760   29.1300   41.3430 C   0  0  2  0  0  0  0  0  0  0  0  0
   52.1780   30.1510   42.3700 C   0  0  1  0  0  0  0  0  0  0  0  0
   51.5140   31.2500   41.6230 O   0  0  0  0  0  0  0  0  0  0  0  0
   52.4780   31.3860   40.6280 C   0  0  0  0  0  0  0  0  0  0  0  0
   52.4400   29.8670   40.0480 C   0  0  2  0  0  0  0  0  0  0  0  0
   53.2430   28.4630   41.5090 H   0  0  0  0  0  0  0  0  0  0  0  0
   53.1600   30.6250   42.6490 H   0  0  0  0  0  0  0  0  0  0  0  0
   53.4830   31.5420   41.0340 H   0  0  0  0  0  0  0  0  0  0  0  0
   52.1710   32.0390   39.8120 H   0  0  0  0  0  0  0  0  0  0  0  0
   53.4040   29.9710   39.5210 H   0  0  0  0  0  0  0  0  0  0  0  0
   49.1170   29.7090   44.2950 C   0  0  0  0  0  0  0  0  0  0  0  0
   49.5560   29.1780   45.5040 C   0  0  0  0  0  0  0  0  0  0  0  0
   50.9380   28.9700   45.6830 C   0  0  0  0  0  0  0  0  0  0  0  0
   51.7840   29.2910   44.6800 N   0  0  0  0  0  0  0  0  0  0  0  0
   51.3370   29.8070   43.5120 C   0  0  0  0  0  0  0  0  0  0  0  0
   50.0010   30.0210   43.3090 N   0  0  0  0  0  0  0  0  0  0  0  0
   48.7970   28.9510   46.2510 H   0  0  0  0  0  0  0  0  0  0  0  0
   51.2530   28.5640   46.6140 H   0  0  0  0  0  0  0  0  0  0  0  0
   47.7600   29.9340   44.0650 O   0  0  0  0  0  0  0  0  0  0  0  0
   47.1710   30.4870   44.6570 H   0  0  0  0  0  0  0  0  0  0  0  0
   51.1810   28.2950   41.2960 O   0  0  0  0  0  0  0  0  0  0  0  0
   51.0620   28.0480   40.3390 H   0  0  0  0  0  0  0  0  0  0  0  0
  1 25  1  0  0  0  0
  2  1  1  0  0  0  0
  3  1  1  0  0  0  0
  4  1  1  0  0  0  0
  4  8  1  0  0  0  0
  4  5  1  0  0  0  0
  6  4  1  0  0  0  0
  7 12  1  0  0  0  0
  7 16  1  0  0  0  0
  8  7  2  0  0  0  0
  9 10  2  0  0  0  0
  9  8  1  0  0  0  0
 10 11  1  0  0  0  0
 11 15  1  0  0  0  0
 11 12  2  0  0  0  0
 12 18  1  0  0  0  0
 13  9  1  0  0  0  0
 14 10  1  0  0  0  0
 16 17  1  0  0  0  0
 18 19  1  0  0  0  0
 19 24  1  0  0  0  0
 19 20  1  0  0  0  0
 20 21  1  0  0  0  0
 21 22  1  0  0  0  0
 23 22  1  0  0  0  0
 24 23  1  0  0  0  0
 25 30  1  0  0  0  0
 26 31  1  1  0  0  0
 26 27  1  0  0  0  0
 27 32  1  1  0  0  0
 27 40  1  0  0  0  0
 28 27  1  0  0  0  0
 29 33  1  0  0  0  0
 29 28  1  0  0  0  0
 30 35  1  6  0  0  0
 30 29  1  0  0  0  0
 30 26  1  0  0  0  0
 34 29  1  0  0  0  0
 36 37  1  0  0  0  0
 37 38  2  0  0  0  0
 37 42  1  0  0  0  0
 38 43  1  0  0  0  0
 39 38  1  0  0  0  0
 40 39  2  0  0  0  0
 41 40  1  0  0  0  0
 41 36  2  0  0  0  0
 44 36  1  0  0  0  0
 44 45  1  0  0  0  0
 46 26  1  0  0  0  0
 47 46  1  0  0  0  0
M  END
>  <minimizedAffinity>
-4.25605774

>  <minimizedRMSD>
8.99529457

$$$$
