
     RDKit          3D

 50 52  0  0  0  0  0  0  0  0999 V2000
   45.8570   31.2423   46.3761 C   0  0  2  0  0  0  0  0  0  0  0  0
   45.5917   30.5676   47.6845 C   0  0  0  0  0  0  0  0  0  0  0  0
   44.9259   29.2742   47.3764 C   0  0  0  0  0  0  0  0  0  0  0  0
   44.6369   29.0222   45.9325 C   0  0  0  0  0  0  0  0  0  0  0  0
   45.8890   29.1630   45.1097 C   0  0  0  0  0  0  0  0  0  0  0  0
   46.6845   30.3170   45.5035 C   0  0  2  0  0  0  0  0  0  0  0  0
   46.4640   32.5920   46.5095 C   0  0  0  0  0  0  0  0  0  0  0  0
   47.2939   32.8911   47.4003 O   0  0  0  0  0  0  0  0  0  0  0  0
   44.6799   35.3691   44.9408 C   0  0  0  0  0  0  0  0  0  0  0  0
   45.2588   35.4797   43.6534 C   0  0  0  0  0  0  0  0  0  0  0  0
   46.2697   34.5827   43.3591 C   0  0  0  0  0  0  0  0  0  0  0  0
   46.5735   33.7217   44.3310 N   0  0  0  0  0  0  0  0  0  0  0  0
   46.0432   33.6098   45.5283 C   0  0  0  0  0  0  0  0  0  0  0  0
   45.0600   34.4695   45.8381 N   0  0  0  0  0  0  0  0  0  0  0  0
   46.8673   34.6808   42.0368 C   0  0  0  0  0  0  0  0  0  0  0  0
   47.6324   33.5458   41.7817 F   0  0  0  0  0  0  0  0  0  0  0  0
   47.6829   35.7648   42.0483 F   0  0  0  0  0  0  0  0  0  0  0  0
   45.9135   34.7174   41.0260 F   0  0  0  0  0  0  0  0  0  0  0  0
   47.8440   29.7911   46.2670 C   0  0  0  0  0  0  0  0  0  0  0  0
   44.9023   31.3485   45.8210 H   0  0  0  0  0  0  0  0  0  0  0  0
   46.4914   30.4864   48.3269 H   0  0  0  0  0  0  0  0  0  0  0  0
   44.9160   31.2628   48.2739 H   0  0  0  0  0  0  0  0  0  0  0  0
   43.9048   29.3119   47.8682 H   0  0  0  0  0  0  0  0  0  0  0  0
   45.3822   28.3762   47.8558 H   0  0  0  0  0  0  0  0  0  0  0  0
   43.8006   29.6527   45.5514 H   0  0  0  0  0  0  0  0  0  0  0  0
   44.2519   27.9809   45.8667 H   0  0  0  0  0  0  0  0  0  0  0  0
   45.5213   29.3052   44.0475 H   0  0  0  0  0  0  0  0  0  0  0  0
   46.3602   28.1663   45.0895 H   0  0  0  0  0  0  0  0  0  0  0  0
   46.9628   30.9219   44.6232 H   0  0  0  0  0  0  0  0  0  0  0  0
   43.8711   36.0698   45.2069 H   0  0  0  0  0  0  0  0  0  0  0  0
   44.9125   36.2325   42.9558 H   0  0  0  0  0  0  0  0  0  0  0  0
   47.4912   29.2319   47.1561 H   0  0  0  0  0  0  0  0  0  0  0  0
   48.4523   30.6875   46.5824 H   0  0  0  0  0  0  0  0  0  0  0  0
   48.7856   28.8808   45.5549 C   0  0  0  0  0  0  0  0  0  0  0  0
   50.2037   28.9690   46.0597 C   0  0  0  0  0  0  0  0  0  0  0  0
   50.7009   27.6344   46.5844 C   0  0  0  0  0  0  0  0  0  0  0  0
   50.5568   26.6199   45.4717 C   0  0  0  0  0  0  0  0  0  0  0  0
   49.0882   26.4043   45.2661 C   0  0  0  0  0  0  0  0  0  0  0  0
   48.2134   27.4768   45.7986 C   0  0  0  0  0  0  0  0  0  0  0  0
   48.7028   29.0296   44.4688 H   0  0  0  0  0  0  0  0  0  0  0  0
   50.3456   29.6959   46.8743 H   0  0  0  0  0  0  0  0  0  0  0  0
   50.8522   29.2114   45.1707 H   0  0  0  0  0  0  0  0  0  0  0  0
   51.7492   27.7605   46.8940 H   0  0  0  0  0  0  0  0  0  0  0  0
   50.0407   27.3438   47.4344 H   0  0  0  0  0  0  0  0  0  0  0  0
   51.0768   25.6989   45.8073 H   0  0  0  0  0  0  0  0  0  0  0  0
   51.0718   27.0113   44.5768 H   0  0  0  0  0  0  0  0  0  0  0  0
   48.8965   26.1585   44.1979 H   0  0  0  0  0  0  0  0  0  0  0  0
   48.8341   25.4732   45.8538 H   0  0  0  0  0  0  0  0  0  0  0  0
   47.2387   27.4613   45.2415 H   0  0  0  0  0  0  0  0  0  0  0  0
   47.9797   27.3827   46.8666 H   0  0  0  0  0  0  0  0  0  0  0  0
  1  7  1  0
  1  2  1  0
  3  2  1  0
  4  3  1  0
  5  6  1  0
  5  4  1  0
  6 19  1  0
  6  1  1  0
  7  8  2  0
  9 14  2  0
 10  9  1  0
 11 10  2  0
 11 12  1  0
 12 13  2  0
 13 14  1  0
 13  7  1  0
 15 17  1  0
 15 11  1  0
 16 15  1  0
 18 15  1  0
  1 20  1  6
  2 21  1  0
  2 22  1  0
  3 23  1  0
  3 24  1  0
  4 25  1  0
  4 26  1  0
  5 27  1  0
  5 28  1  0
  6 29  1  6
  9 30  1  0
 10 31  1  0
 19 32  1  0
 19 33  1  0
 34 35  1  0
 35 36  1  0
 36 37  1  0
 37 38  1  0
 38 39  1  0
 39 34  1  0
 34 40  1  0
 35 41  1  0
 35 42  1  0
 36 43  1  0
 36 44  1  0
 37 45  1  0
 37 46  1  0
 38 47  1  0
 38 48  1  0
 39 49  1  0
 39 50  1  0
 19 34  1  0
M  ISO  8  20  13  21  13  22  13  23  13  24  13  25  13  26  13  27  13
M  ISO  6  28  13  29  13  30  14  31  14  32   8  33   8
M  END
>  <DihAtoms>  (1) 
5,18,33,34

>  <DihDeg>  (1) 
59.64696727868658

$$$$
