
 OpenBabel03252509293D

 18 19  0  0  0  0  0  0  0  0999 V2000
   44.5690   35.8390   44.7150 C   0  0  0  0  0  0  0  0  0  0  0  0
   44.3930   35.6040   43.3290 C   0  0  0  0  0  0  0  0  0  0  0  0
   44.7400   34.3460   42.8460 C   0  0  0  0  0  0  0  0  0  0  0  0
   45.2270   33.4070   43.7050 N   0  0  0  0  0  0  0  0  0  0  0  0
   45.3790   33.6820   45.0340 C   0  0  0  0  0  0  0  0  0  0  0  0
   45.0510   34.8890   45.5300 N   0  0  0  0  0  0  0  0  0  0  0  0
   44.3060   36.8080   45.1070 H   0  0  0  0  0  0  0  0  0  0  0  0
   44.0050   36.3950   42.7210 H   0  0  0  0  0  0  0  0  0  0  0  0
   45.7620   32.9450   45.7090 H   0  0  0  0  0  0  0  0  0  0  0  0
   44.5560   34.1100   41.4150 C   0  0  0  0  0  0  0  0  0  0  0  0
   44.1950   33.0670   41.2960 H   0  0  0  0  0  0  0  0  0  0  0  0
   43.8100   34.7660   40.9490 H   0  0  0  0  0  0  0  0  0  0  0  0
   45.8300   34.1970   40.6210 C   0  0  0  0  0  3  0  0  0  0  0  0
   47.0730   34.3460   41.4470 C   0  0  0  0  0  2  0  0  0  0  0  0
   48.1540   34.8340   40.4800 C   0  0  0  0  0  2  0  0  0  0  0  0
   48.3750   33.7320   39.4810 C   0  0  0  0  0  2  0  0  0  0  0  0
   47.1060   33.4440   38.7130 C   0  0  0  0  0  2  0  0  0  0  0  0
   46.0290   33.0010   39.7100 C   0  0  0  0  0  2  0  0  0  0  0  0
  1  7  1  0  0  0  0
  1  6  1  0  0  0  0
  2  1  2  0  0  0  0
  3  2  1  0  0  0  0
  3  4  2  0  0  0  0
  4  5  1  0  0  0  0
  5  6  2  0  0  0  0
  5  9  1  0  0  0  0
  8  2  1  0  0  0  0
 10  3  1  0  0  0  0
 11 10  1  0  0  0  0
 12 10  1  0  0  0  0
 13 10  1  0  0  0  0
 13 14  1  0  0  0  0
 15 14  1  0  0  0  0
 16 15  1  0  0  0  0
 17 16  1  0  0  0  0
 17 18  1  0  0  0  0
 18 13  1  0  0  0  0
M  END
>  <minimizedAffinity>
-3.9676125

>  <minimizedRMSD>
2.90615535

$$$$
