
 OpenBabel03242512043D

 17 18  0  0  0  0  0  0  0  0999 V2000
   45.4860   35.9920   43.1050 C   0  0  0  0  0  0  0  0  0  0  0  0
   46.4270   34.9530   43.0770 C   0  0  0  0  0  0  0  0  0  0  0  0
   46.4180   34.0530   44.1400 C   0  0  0  0  0  0  0  0  0  0  0  0
   45.5140   34.2180   45.1390 N   0  0  0  0  0  0  0  0  0  0  0  0
   44.6140   35.2370   45.1360 C   0  0  0  0  0  0  0  0  0  0  0  0
   44.6110   36.1150   44.1160 N   0  0  0  0  0  0  0  0  0  0  0  0
   45.4510   36.7160   42.3070 H   0  0  0  0  0  0  0  0  0  0  0  0
   47.1140   33.2260   44.1880 H   0  0  0  0  0  0  0  0  0  0  0  0
   43.9480   35.2590   45.9890 H   0  0  0  0  0  0  0  0  0  0  0  0
   47.3550   34.8220   42.0060 C   0  0  0  0  0  0  0  0  0  0  0  0
   48.5380   35.1990   42.1990 O   0  0  0  0  0  0  0  0  0  0  0  0
   46.9510   34.2550   40.6820 C   0  0  0  0  0  0  0  0  0  0  0  0
   48.0710   34.4930   39.6880 C   0  0  0  0  0  0  0  0  0  0  0  0
   47.7780   33.8580   38.3710 C   0  0  0  0  0  0  0  0  0  0  0  0
   46.4820   33.1210   38.2820 C   0  0  0  0  0  0  0  0  0  0  0  0
   46.1390   32.2950   39.4840 C   0  0  0  0  0  0  0  0  0  0  0  0
   46.7860   32.7530   40.7600 C   0  0  0  0  0  0  0  0  0  0  0  0
  1  6  1  0  0  0  0
  2  1  2  0  0  0  0
  2  3  1  0  0  0  0
  3  8  1  0  0  0  0
  3  4  2  0  0  0  0
  5  4  1  0  0  0  0
  5  9  1  0  0  0  0
  6  5  2  0  0  0  0
  7  1  1  0  0  0  0
 10 11  2  0  0  0  0
 10  2  1  0  0  0  0
 12 17  1  0  0  0  0
 12 10  1  0  0  0  0
 13 12  1  0  0  0  0
 14 13  1  0  0  0  0
 15 14  1  0  0  0  0
 15 16  1  0  0  0  0
 16 17  1  0  0  0  0
M  END
>  <minimizedAffinity>
-4.2602706

>  <minimizedRMSD>
0.796369672

$$$$
