
     RDKit          3D

 30 31  0  0  0  0  0  0  0  0999 V2000
   44.9148   35.1057   44.9432 C   0  0  0  0  0  0  0  0  0  0  0  0
   45.8265   34.7551   43.9485 C   0  0  0  0  0  0  0  0  0  0  0  0
   46.6824   33.6977   44.2188 C   0  0  0  0  0  0  0  0  0  0  0  0
   46.6051   33.0593   45.4078 N   0  0  0  0  0  0  0  0  0  0  0  0
   45.7088   33.4327   46.3383 C   0  0  0  0  0  0  0  0  0  0  0  0
   44.8536   34.4533   46.1276 N   0  0  0  0  0  0  0  0  0  0  0  0
   45.7967   35.5537   42.6794 C   0  0  0  0  0  0  0  0  0  0  0  0
   45.3491   36.8055   43.0307 F   0  0  0  0  0  0  0  0  0  0  0  0
   44.9101   34.9457   41.8287 F   0  0  0  0  0  0  0  0  0  0  0  0
   47.0755   35.5490   42.1553 F   0  0  0  0  0  0  0  0  0  0  0  0
   45.6234   32.7772   47.5696 O   0  0  0  0  0  0  0  0  0  0  0  0
   44.2201   35.9163   44.8026 H   0  0  0  0  0  0  0  0  0  0  0  0
   47.3775   33.4447   43.4367 H   0  0  0  0  0  0  0  0  0  0  0  0
   46.4690   31.6929   47.9022 C   0  0  0  0  0  0  0  0  0  0  0  0
   45.9199   30.9336   49.0754 C   0  0  0  0  0  0  0  0  0  0  0  0
   46.6099   31.2242   50.3687 C   0  0  0  0  0  0  0  0  0  0  0  0
   48.1052   31.0980   50.3005 C   0  0  0  0  0  0  0  0  0  0  0  0
   48.6786   31.2776   48.9221 C   0  0  0  0  0  0  0  0  0  0  0  0
   47.8386   32.2758   48.1821 C   0  0  0  0  0  0  0  0  0  0  0  0
   46.5564   30.9641   47.0694 H   0  0  0  0  0  0  0  0  0  0  0  0
   45.9046   29.8201   48.9096 H   0  0  0  0  0  0  0  0  0  0  0  0
   44.8526   31.2246   49.1957 H   0  0  0  0  0  0  0  0  0  0  0  0
   46.2488   30.4531   51.1006 H   0  0  0  0  0  0  0  0  0  0  0  0
   46.2898   32.2092   50.7231 H   0  0  0  0  0  0  0  0  0  0  0  0
   48.5306   31.8955   50.9491 H   0  0  0  0  0  0  0  0  0  0  0  0
   48.4664   30.1251   50.7208 H   0  0  0  0  0  0  0  0  0  0  0  0
   48.7230   30.3184   48.3964 H   0  0  0  0  0  0  0  0  0  0  0  0
   49.7095   31.7249   49.0158 H   0  0  0  0  0  0  0  0  0  0  0  0
   48.3070   32.5876   47.2335 H   0  0  0  0  0  0  0  0  0  0  0  0
   47.6394   33.1509   48.8681 H   0  0  0  0  0  0  0  0  0  0  0  0
  1  6  2  0
  2  3  2  0
  2  1  1  0
  3  4  1  0
  4  5  2  0
  5 11  1  0
  6  5  1  0
  7  8  1  0
  7  2  1  0
  9  7  1  0
 10  7  1  0
  1 12  1  0
  3 13  1  0
 14 15  1  0
 15 16  1  0
 16 17  1  0
 17 18  1  0
 18 19  1  0
 19 14  1  0
 14 20  1  0
 15 21  1  0
 15 22  1  0
 16 23  1  0
 16 24  1  0
 17 25  1  0
 17 26  1  0
 18 27  1  0
 18 28  1  0
 19 29  1  0
 19 30  1  0
 11 14  1  0
M  ISO  2  12  14  13  14
M  END
>  <DihAtoms>  (1) 
4,10,13,14

>  <DihDeg>  (1) 
-118.56017576723124

$$$$
