
     RDKit          3D

 42 45  0  0  0  0  0  0  0  0999 V2000
   46.0300   31.6880   45.1307 C   0  0  0  0  0  0  0  0  0  0  0  0
   45.7944   33.0027   45.5353 C   0  0  0  0  0  0  0  0  0  0  0  0
   45.5292   33.2851   46.8552 C   0  0  0  0  0  0  0  0  0  0  0  0
   45.4980   32.2575   47.7764 C   0  0  0  0  0  0  0  0  0  0  0  0
   45.2749   32.2137   49.0900 N   0  0  0  0  0  0  0  0  0  0  0  0
   45.3560   30.9432   49.5409 C   0  0  0  0  0  0  0  0  0  0  0  0
   45.6431   30.1129   48.4905 C   0  0  0  0  0  0  0  0  0  0  0  0
   45.7308   30.9408   47.3887 C   0  0  0  0  0  0  0  0  0  0  0  0
   45.9980   30.6621   46.0547 C   0  0  0  0  0  0  0  0  0  0  0  0
   46.8909   34.9280   42.6297 C   0  0  0  0  0  0  0  0  0  0  0  0
   45.9765   35.9594   42.5413 C   0  0  0  0  0  0  0  0  0  0  0  0
   44.9682   35.9949   43.4933 C   0  0  0  0  0  0  0  0  0  0  0  0
   44.9272   35.0322   44.4502 N   0  0  0  0  0  0  0  0  0  0  0  0
   45.8447   34.0435   44.4949 C   0  0  0  0  0  0  0  0  0  0  0  0
   46.8348   33.9775   43.5897 N   0  0  0  0  0  0  0  0  0  0  0  0
   47.9294   34.9296   41.6128 C   0  0  0  0  0  0  0  0  0  0  0  0
   48.8169   35.8511   41.5008 O   0  0  0  0  0  0  0  0  0  0  0  0
   46.2416   31.4248   44.1046 H   0  0  0  0  0  0  0  0  0  0  0  0
   45.3535   34.3150   47.1212 H   0  0  0  0  0  0  0  0  0  0  0  0
   45.0636   33.0664   49.6887 H   0  0  0  0  0  0  0  0  0  0  0  0
   45.2291   30.5629   50.5443 H   0  0  0  0  0  0  0  0  0  0  0  0
   45.7764   29.0347   48.5027 H   0  0  0  0  0  0  0  0  0  0  0  0
   46.1805   29.6435   45.7412 H   0  0  0  0  0  0  0  0  0  0  0  0
   46.0184   36.7251   41.7711 H   0  0  0  0  0  0  0  0  0  0  0  0
   44.2009   36.7624   43.5125 H   0  0  0  0  0  0  0  0  0  0  0  0
   47.8917   33.7644   40.6912 C   0  0  0  0  0  0  0  0  0  0  0  0
   49.2265   33.6964   39.9382 C   0  0  0  0  0  0  0  0  0  0  0  0
   49.2612   32.5378   38.9967 C   0  0  0  0  0  0  0  0  0  0  0  0
   47.9190   31.8477   38.8733 C   0  0  0  0  0  0  0  0  0  0  0  0
   46.7834   32.8296   38.6785 C   0  0  0  0  0  0  0  0  0  0  0  0
   46.8304   33.9733   39.6394 C   0  0  0  0  0  0  0  0  0  0  0  0
   47.7044   32.7994   41.2142 H   0  0  0  0  0  0  0  0  0  0  0  0
   50.0237   33.7465   40.6762 H   0  0  0  0  0  0  0  0  0  0  0  0
   49.2407   34.6373   39.3345 H   0  0  0  0  0  0  0  0  0  0  0  0
   49.9482   31.7651   39.4513 H   0  0  0  0  0  0  0  0  0  0  0  0
   49.6677   32.8038   38.0012 H   0  0  0  0  0  0  0  0  0  0  0  0
   47.7805   31.2354   39.7888 H   0  0  0  0  0  0  0  0  0  0  0  0
   48.0010   31.1977   37.9783 H   0  0  0  0  0  0  0  0  0  0  0  0
   46.8448   33.1732   37.6052 H   0  0  0  0  0  0  0  0  0  0  0  0
   45.8438   32.2490   38.7663 H   0  0  0  0  0  0  0  0  0  0  0  0
   47.0379   34.9432   39.1254 H   0  0  0  0  0  0  0  0  0  0  0  0
   45.8285   34.0350   40.1420 H   0  0  0  0  0  0  0  0  0  0  0  0
  1  2  2  0
  1  9  1  0
  2  3  1  0
  3  4  2  0
  4  5  1  0
  5  6  1  0
  7  6  2  0
  8  4  1  0
  8  7  1  0
  9  8  2  0
 10 15  1  0
 11 10  2  0
 11 12  1  0
 12 13  2  0
 13 14  1  0
 14  2  1  0
 15 14  2  0
 16 10  1  0
 17 16  2  0
  1 18  1  0
  3 19  1  0
  5 20  1  0
  6 21  1  0
  7 22  1  0
  9 23  1  0
 11 24  1  0
 12 25  1  0
 26 27  1  0
 27 28  1  0
 28 29  1  0
 29 30  1  0
 30 31  1  0
 31 26  1  0
 26 32  1  0
 27 33  1  0
 27 34  1  0
 28 35  1  0
 28 36  1  0
 29 37  1  0
 29 38  1  0
 30 39  1  0
 30 40  1  0
 31 41  1  0
 31 42  1  0
 16 26  1  0
M  ISO  8  18  14  19  14  20   9  21  14  22  14  23  14  24  14  25  14
M  END
>  <DihAtoms>  (1) 
9,15,25,26

>  <DihDeg>  (1) 
-179.99885218062957

$$$$
