
 OpenBabel03252503043D

 31 32  0  0  0  0  0  0  0  0999 V2000
   39.6380   34.6640   40.2570 S   0  0  0  0  0  0  0  0  0  0  0  0
   37.4860   33.0150   39.7190 C   0  0  0  0  0  0  0  0  0  0  0  0
   38.6830   33.1360   40.4040 C   0  0  0  0  0  0  0  0  0  0  0  0
   39.1570   32.1010   41.2010 C   0  0  0  0  0  0  0  0  0  0  0  0
   38.3980   30.9800   41.2760 N   0  0  0  0  0  0  0  0  0  0  0  0
   37.2360   30.8980   40.5950 C   0  0  0  0  0  0  0  0  0  0  0  0
   36.7600   31.8780   39.8220 N   0  0  0  0  0  0  0  0  0  0  0  0
   37.1310   33.8300   39.1010 H   0  0  0  0  0  0  0  0  0  0  0  0
   40.0930   32.2070   41.7310 H   0  0  0  0  0  0  0  0  0  0  0  0
   36.4490   29.7400   40.6710 O   0  0  0  0  0  0  0  0  0  0  0  0
   37.1360   28.5510   41.0330 C   0  0  0  0  0  3  0  0  0  0  0  0
   36.5360   28.0520   42.3300 C   0  0  0  0  0  2  0  0  0  0  0  0
   37.2530   26.7900   42.7590 C   0  0  0  0  0  2  0  0  0  0  0  0
   37.2080   25.7380   41.6690 C   0  0  0  0  0  2  0  0  0  0  0  0
   37.8330   26.2980   40.3960 C   0  0  0  0  0  2  0  0  0  0  0  0
   37.0500   27.4980   39.9710 C   0  0  0  0  0  2  0  0  0  0  0  0
   41.3760   34.2720   40.1520 C   0  0  0  0  0  0  0  0  0  0  0  0
   41.8940   34.7940   40.9960 H   0  0  0  0  0  0  0  0  0  0  0  0
   41.5920   33.1930   40.2010 H   0  0  0  0  0  0  0  0  0  0  0  0
   41.8920   34.8760   38.9320 N   0  0  0  0  0  0  0  0  0  0  0  0
   41.1840   35.5630   38.5880 H   0  0  0  0  0  0  0  0  0  0  0  0
   42.1600   33.7130   37.7020 S   0  0  0  0  0  0  0  0  0  0  0  0
   40.8870   33.0790   37.2290 O   0  0  0  0  0  0  0  0  0  0  0  0
   40.1230   32.8630   37.8440 H   0  0  0  0  0  0  0  0  0  0  0  0
   42.7940   34.4680   36.5440 O   0  0  0  0  0  0  0  0  0  0  0  0
   43.1800   34.0250   35.7500 H   0  0  0  0  0  0  0  0  0  0  0  0
   43.2570   32.5700   38.2230 O   0  0  0  0  0  0  0  0  0  0  0  0
   44.1480   32.2150   37.2400 C   0  0  0  0  0  0  0  0  0  0  0  0
   44.4150   31.1460   37.3720 H   0  0  0  0  0  0  0  0  0  0  0  0
   43.6330   32.3320   36.2550 H   0  0  0  0  0  0  0  0  0  0  0  0
   45.0670   32.8440   37.2760 H   0  0  0  0  0  0  0  0  0  0  0  0
  1  3  1  0  0  0  0
  2  7  2  0  0  0  0
  2  3  1  0  0  0  0
  3  4  2  0  0  0  0
  4  5  1  0  0  0  0
  4  9  1  0  0  0  0
  6 10  1  0  0  0  0
  6  5  2  0  0  0  0
  7  6  1  0  0  0  0
  8  2  1  0  0  0  0
 10 11  1  0  0  0  0
 11 12  1  0  0  0  0
 12 13  1  0  0  0  0
 14 13  1  0  0  0  0
 15 14  1  0  0  0  0
 16 15  1  0  0  0  0
 16 11  1  0  0  0  0
 17 19  1  0  0  0  0
 17  1  1  0  0  0  0
 17 18  1  0  0  0  0
 20 17  1  0  0  0  0
 21 20  1  0  0  0  0
 22 27  1  0  0  0  0
 22 20  1  0  0  0  0
 23 22  1  0  0  0  0
 23 24  1  0  0  0  0
 25 22  1  0  0  0  0
 26 25  1  0  0  0  0
 28 31  1  0  0  0  0
 28 29  1  0  0  0  0
 28 27  1  0  0  0  0
 30 28  1  0  0  0  0
M  END
>  <minimizedAffinity>
-5.60422564

$$$$

 OpenBabel03252503043D

 31 32  0  0  0  0  0  0  0  0999 V2000
   38.2450   31.7850   38.3910 S   0  0  0  0  0  0  0  0  0  0  0  0
   36.8020   30.5310   40.3880 C   0  0  0  0  0  0  0  0  0  0  0  0
   38.0640   30.9190   39.9670 C   0  0  0  0  0  0  0  0  0  0  0  0
   39.1860   30.6520   40.7400 C   0  0  0  0  0  0  0  0  0  0  0  0
   38.9900   30.0020   41.9140 N   0  0  0  0  0  0  0  0  0  0  0  0
   37.7460   29.6400   42.2920 C   0  0  0  0  0  0  0  0  0  0  0  0
   36.6520   29.8840   41.5660 N   0  0  0  0  0  0  0  0  0  0  0  0
   35.9370   30.7470   39.7730 H   0  0  0  0  0  0  0  0  0  0  0  0
   40.1660   30.9590   40.4020 H   0  0  0  0  0  0  0  0  0  0  0  0
   37.5400   28.9680   43.5050 O   0  0  0  0  0  0  0  0  0  0  0  0
   37.8380   27.5800   43.4980 C   0  0  0  0  0  3  0  0  0  0  0  0
   37.1150   26.9610   42.3200 C   0  0  0  0  0  2  0  0  0  0  0  0
   37.3960   25.4740   42.2860 C   0  0  0  0  0  2  0  0  0  0  0  0
   38.8850   25.2000   42.2470 C   0  0  0  0  0  2  0  0  0  0  0  0
   39.5520   25.8400   43.4610 C   0  0  0  0  0  2  0  0  0  0  0  0
   39.3100   27.3140   43.4130 C   0  0  0  0  0  2  0  0  0  0  0  0
   39.8270   31.3830   37.6700 C   0  0  0  0  0  0  0  0  0  0  0  0
   40.5480   31.2070   38.5080 H   0  0  0  0  0  0  0  0  0  0  0  0
   39.8060   30.4990   37.0130 H   0  0  0  0  0  0  0  0  0  0  0  0
   40.3080   32.5670   36.9730 N   0  0  0  0  0  0  0  0  0  0  0  0
   40.6200   32.2760   36.0190 H   0  0  0  0  0  0  0  0  0  0  0  0
   41.6370   33.2920   37.7770 S   0  0  0  0  0  0  0  0  0  0  0  0
   42.5680   32.2780   38.3700 O   0  0  0  0  0  0  0  0  0  0  0  0
   42.2480   31.4220   38.7870 H   0  0  0  0  0  0  0  0  0  0  0  0
   42.3850   34.0860   36.7170 O   0  0  0  0  0  0  0  0  0  0  0  0
   43.1180   34.7160   36.9220 H   0  0  0  0  0  0  0  0  0  0  0  0
   41.0920   34.3700   38.9260 O   0  0  0  0  0  0  0  0  0  0  0  0
   41.1330   33.8470   40.1960 C   0  0  0  0  0  0  0  0  0  0  0  0
   40.2870   34.2650   40.7800 H   0  0  0  0  0  0  0  0  0  0  0  0
   40.9930   32.7410   40.1130 H   0  0  0  0  0  0  0  0  0  0  0  0
   42.0970   34.0800   40.7030 H   0  0  0  0  0  0  0  0  0  0  0  0
  1  3  1  0  0  0  0
  2  7  1  0  0  0  0
  3  2  2  0  0  0  0
  3  4  1  0  0  0  0
  4  5  2  0  0  0  0
  5  6  1  0  0  0  0
  6 10  1  0  0  0  0
  7  6  2  0  0  0  0
  8  2  1  0  0  0  0
  9  4  1  0  0  0  0
 11 10  1  0  0  0  0
 12 11  1  0  0  0  0
 13 12  1  0  0  0  0
 14 13  1  0  0  0  0
 14 15  1  0  0  0  0
 16 15  1  0  0  0  0
 16 11  1  0  0  0  0
 17  1  1  0  0  0  0
 17 18  1  0  0  0  0
 19 17  1  0  0  0  0
 20 17  1  0  0  0  0
 20 22  1  0  0  0  0
 21 20  1  0  0  0  0
 22 23  1  0  0  0  0
 22 27  1  0  0  0  0
 23 24  1  0  0  0  0
 25 26  1  0  0  0  0
 25 22  1  0  0  0  0
 27 28  1  0  0  0  0
 28 31  1  0  0  0  0
 28 29  1  0  0  0  0
 30 28  1  0  0  0  0
M  END
>  <minimizedAffinity>
-5.56876421

$$$$

 OpenBabel03252503043D

 31 32  0  0  0  0  0  0  0  0999 V2000
   38.7230   33.1940   39.9420 S   0  0  0  0  0  0  0  0  0  0  0  0
   39.4890   31.2600   41.7630 C   0  0  0  0  0  0  0  0  0  0  0  0
   38.4610   31.7200   40.9560 C   0  0  0  0  0  0  0  0  0  0  0  0
   37.2380   31.0640   40.9160 C   0  0  0  0  0  0  0  0  0  0  0  0
   37.0990   29.9630   41.6950 N   0  0  0  0  0  0  0  0  0  0  0  0
   38.1220   29.5440   42.4690 C   0  0  0  0  0  0  0  0  0  0  0  0
   39.3080   30.1580   42.5250 N   0  0  0  0  0  0  0  0  0  0  0  0
   40.4370   31.7830   41.7830 H   0  0  0  0  0  0  0  0  0  0  0  0
   36.4430   31.4330   40.2820 H   0  0  0  0  0  0  0  0  0  0  0  0
   37.9820   28.4060   43.2750 O   0  0  0  0  0  0  0  0  0  0  0  0
   38.6670   27.2450   42.8260 C   0  0  0  0  0  3  0  0  0  0  0  0
   39.5710   26.7830   43.9500 C   0  0  0  0  0  2  0  0  0  0  0  0
   40.3310   25.5520   43.5050 C   0  0  0  0  0  2  0  0  0  0  0  0
   39.3850   24.4600   43.0500 C   0  0  0  0  0  2  0  0  0  0  0  0
   38.5110   24.9840   41.9140 C   0  0  0  0  0  2  0  0  0  0  0  0
   37.7270   26.1520   42.4200 C   0  0  0  0  0  2  0  0  0  0  0  0
   40.4740   33.4830   39.7560 C   0  0  0  0  0  0  0  0  0  0  0  0
   40.6810   34.5370   40.0730 H   0  0  0  0  0  0  0  0  0  0  0  0
   41.1040   32.7940   40.3400 H   0  0  0  0  0  0  0  0  0  0  0  0
   40.7820   33.4290   38.3340 N   0  0  0  0  0  0  0  0  0  0  0  0
   40.6110   32.4520   38.0040 H   0  0  0  0  0  0  0  0  0  0  0  0
   42.4170   33.8290   38.0130 S   0  0  0  0  0  0  0  0  0  0  0  0
   42.5930   34.4920   36.6810 O   0  0  0  0  0  0  0  0  0  0  0  0
   42.0630   34.2320   35.8680 H   0  0  0  0  0  0  0  0  0  0  0  0
   42.8310   34.8020   39.1060 O   0  0  0  0  0  0  0  0  0  0  0  0
   43.7630   35.0970   39.2510 H   0  0  0  0  0  0  0  0  0  0  0  0
   43.3770   32.4720   38.1540 O   0  0  0  0  0  0  0  0  0  0  0  0
   44.2420   32.5510   39.2190 C   0  0  0  0  0  0  0  0  0  0  0  0
   45.1800   32.0210   38.9540 H   0  0  0  0  0  0  0  0  0  0  0  0
   44.4800   33.6310   39.3840 H   0  0  0  0  0  0  0  0  0  0  0  0
   43.7980   32.1060   40.1380 H   0  0  0  0  0  0  0  0  0  0  0  0
  1  3  1  0  0  0  0
  2  8  1  0  0  0  0
  2  7  1  0  0  0  0
  3  2  2  0  0  0  0
  4  3  1  0  0  0  0
  4  5  2  0  0  0  0
  5  6  1  0  0  0  0
  6  7  2  0  0  0  0
  6 10  1  0  0  0  0
  9  4  1  0  0  0  0
 11 10  1  0  0  0  0
 11 12  1  0  0  0  0
 13 12  1  0  0  0  0
 14 13  1  0  0  0  0
 15 16  1  0  0  0  0
 15 14  1  0  0  0  0
 16 11  1  0  0  0  0
 17  1  1  0  0  0  0
 17 18  1  0  0  0  0
 17 19  1  0  0  0  0
 20 17  1  0  0  0  0
 21 20  1  0  0  0  0
 22 27  1  0  0  0  0
 22 20  1  0  0  0  0
 22 25  1  0  0  0  0
 23 22  1  0  0  0  0
 24 23  1  0  0  0  0
 25 26  1  0  0  0  0
 27 28  1  0  0  0  0
 28 30  1  0  0  0  0
 28 31  1  0  0  0  0
 29 28  1  0  0  0  0
M  END
>  <minimizedAffinity>
-5.51220369

$$$$

 OpenBabel03252503043D

 31 32  0  0  0  0  0  0  0  0999 V2000
   41.3350   34.1090   39.0090 S   0  0  0  0  0  0  0  0  0  0  0  0
   38.8250   33.5290   40.0110 C   0  0  0  0  0  0  0  0  0  0  0  0
   40.0780   33.0180   39.7130 C   0  0  0  0  0  0  0  0  0  0  0  0
   40.3780   31.6820   39.9500 C   0  0  0  0  0  0  0  0  0  0  0  0
   39.3970   30.9120   40.4810 N   0  0  0  0  0  0  0  0  0  0  0  0
   38.1880   31.4440   40.7590 C   0  0  0  0  0  0  0  0  0  0  0  0
   37.8750   32.7240   40.5400 N   0  0  0  0  0  0  0  0  0  0  0  0
   38.6070   34.5720   39.8200 H   0  0  0  0  0  0  0  0  0  0  0  0
   41.3590   31.2950   39.7130 H   0  0  0  0  0  0  0  0  0  0  0  0
   37.1720   30.6500   41.3090 O   0  0  0  0  0  0  0  0  0  0  0  0
   37.5220   29.2990   41.5750 C   0  0  0  0  0  3  0  0  0  0  0  0
   37.6560   29.1480   43.0760 C   0  0  0  0  0  2  0  0  0  0  0  0
   38.0440   27.7220   43.4020 C   0  0  0  0  0  2  0  0  0  0  0  0
   37.0510   26.7380   42.8180 C   0  0  0  0  0  2  0  0  0  0  0  0
   36.9690   26.9350   41.3070 C   0  0  0  0  0  2  0  0  0  0  0  0
   36.5140   28.3330   41.0350 C   0  0  0  0  0  2  0  0  0  0  0  0
   41.9100   33.4330   37.4610 C   0  0  0  0  0  0  0  0  0  0  0  0
   42.3840   32.4420   37.6770 H   0  0  0  0  0  0  0  0  0  0  0  0
   41.1150   33.3030   36.7090 H   0  0  0  0  0  0  0  0  0  0  0  0
   42.9810   34.2900   36.9750 N   0  0  0  0  0  0  0  0  0  0  0  0
   42.9870   34.2400   35.9320 H   0  0  0  0  0  0  0  0  0  0  0  0
   44.5170   33.7880   37.5490 S   0  0  0  0  0  0  0  0  0  0  0  0
   45.5340   33.6970   36.4520 O   0  0  0  0  0  0  0  0  0  0  0  0
   45.3120   33.3740   35.5270 H   0  0  0  0  0  0  0  0  0  0  0  0
   44.9590   34.8510   38.5430 O   0  0  0  0  0  0  0  0  0  0  0  0
   45.7470   34.7540   39.1310 H   0  0  0  0  0  0  0  0  0  0  0  0
   44.3760   32.3480   38.3770 O   0  0  0  0  0  0  0  0  0  0  0  0
   45.1870   31.3660   37.8600 C   0  0  0  0  0  0  0  0  0  0  0  0
   44.6800   30.3870   37.9810 H   0  0  0  0  0  0  0  0  0  0  0  0
   45.3110   31.5680   36.7680 H   0  0  0  0  0  0  0  0  0  0  0  0
   46.1780   31.3470   38.3680 H   0  0  0  0  0  0  0  0  0  0  0  0
  1  3  1  0  0  0  0
  2  7  1  0  0  0  0
  3  4  1  0  0  0  0
  3  2  2  0  0  0  0
  4  5  2  0  0  0  0
  5  6  1  0  0  0  0
  6 10  1  0  0  0  0
  7  6  2  0  0  0  0
  8  2  1  0  0  0  0
  9  4  1  0  0  0  0
 10 11  1  0  0  0  0
 11 12  1  0  0  0  0
 12 13  1  0  0  0  0
 14 13  1  0  0  0  0
 15 14  1  0  0  0  0
 16 15  1  0  0  0  0
 16 11  1  0  0  0  0
 17 18  1  0  0  0  0
 17  1  1  0  0  0  0
 19 17  1  0  0  0  0
 20 17  1  0  0  0  0
 20 22  1  0  0  0  0
 21 20  1  0  0  0  0
 22 27  1  0  0  0  0
 22 25  1  0  0  0  0
 23 22  1  0  0  0  0
 24 23  1  0  0  0  0
 25 26  1  0  0  0  0
 28 29  1  0  0  0  0
 28 31  1  0  0  0  0
 28 27  1  0  0  0  0
 30 28  1  0  0  0  0
M  END
>  <minimizedAffinity>
-5.46724892

$$$$

 OpenBabel03252503043D

 31 32  0  0  0  0  0  0  0  0999 V2000
   38.6790   33.2000   40.1470 S   0  0  0  0  0  0  0  0  0  0  0  0
   37.3270   30.9640   41.0500 C   0  0  0  0  0  0  0  0  0  0  0  0
   38.5030   31.6910   41.1280 C   0  0  0  0  0  0  0  0  0  0  0  0
   39.5440   31.2770   41.9490 C   0  0  0  0  0  0  0  0  0  0  0  0
   39.3550   30.1400   42.6630 N   0  0  0  0  0  0  0  0  0  0  0  0
   38.1950   29.4580   42.5620 C   0  0  0  0  0  0  0  0  0  0  0  0
   37.1800   29.8350   41.7790 N   0  0  0  0  0  0  0  0  0  0  0  0
   36.5250   31.3000   40.4040 H   0  0  0  0  0  0  0  0  0  0  0  0
   40.4570   31.8530   42.0020 H   0  0  0  0  0  0  0  0  0  0  0  0
   37.9970   28.2820   43.2990 O   0  0  0  0  0  0  0  0  0  0  0  0
   38.6830   27.1330   42.8240 C   0  0  0  0  0  3  0  0  0  0  0  0
   39.6630   26.7080   43.8970 C   0  0  0  0  0  2  0  0  0  0  0  0
   40.4270   25.4910   43.4210 C   0  0  0  0  0  2  0  0  0  0  0  0
   39.4850   24.3700   43.0350 C   0  0  0  0  0  2  0  0  0  0  0  0
   38.5320   24.8580   41.9480 C   0  0  0  0  0  2  0  0  0  0  0  0
   37.7500   26.0120   42.4860 C   0  0  0  0  0  2  0  0  0  0  0  0
   40.3970   33.6820   40.1020 C   0  0  0  0  0  0  0  0  0  0  0  0
   40.5150   34.5820   40.7580 H   0  0  0  0  0  0  0  0  0  0  0  0
   41.0900   32.8930   40.4340 H   0  0  0  0  0  0  0  0  0  0  0  0
   40.6930   34.1330   38.7500 N   0  0  0  0  0  0  0  0  0  0  0  0
   39.8390   34.6010   38.3710 H   0  0  0  0  0  0  0  0  0  0  0  0
   41.0990   32.8300   37.7120 S   0  0  0  0  0  0  0  0  0  0  0  0
   39.9600   32.4300   36.8250 O   0  0  0  0  0  0  0  0  0  0  0  0
   39.0030   32.4330   37.1310 H   0  0  0  0  0  0  0  0  0  0  0  0
   42.2460   33.3280   36.8460 O   0  0  0  0  0  0  0  0  0  0  0  0
   42.7720   32.7440   36.2480 H   0  0  0  0  0  0  0  0  0  0  0  0
   41.6630   31.5410   38.6060 O   0  0  0  0  0  0  0  0  0  0  0  0
   40.9420   30.3930   38.3820 C   0  0  0  0  0  0  0  0  0  0  0  0
   40.9110   29.8040   39.3220 H   0  0  0  0  0  0  0  0  0  0  0  0
   39.8980   30.6940   38.1190 H   0  0  0  0  0  0  0  0  0  0  0  0
   41.3890   29.7830   37.5650 H   0  0  0  0  0  0  0  0  0  0  0  0
  1  3  1  0  0  0  0
  2  3  2  0  0  0  0
  2  7  1  0  0  0  0
  3  4  1  0  0  0  0
  4  9  1  0  0  0  0
  4  5  2  0  0  0  0
  6  5  1  0  0  0  0
  6 10  1  0  0  0  0
  7  6  2  0  0  0  0
  8  2  1  0  0  0  0
 11 10  1  0  0  0  0
 11 12  1  0  0  0  0
 13 12  1  0  0  0  0
 14 13  1  0  0  0  0
 15 16  1  0  0  0  0
 15 14  1  0  0  0  0
 16 11  1  0  0  0  0
 17  1  1  0  0  0  0
 17 19  1  0  0  0  0
 17 18  1  0  0  0  0
 20 17  1  0  0  0  0
 21 20  1  0  0  0  0
 22 27  1  0  0  0  0
 22 20  1  0  0  0  0
 23 24  1  0  0  0  0
 23 22  1  0  0  0  0
 25 22  1  0  0  0  0
 26 25  1  0  0  0  0
 28 27  1  0  0  0  0
 28 29  1  0  0  0  0
 30 28  1  0  0  0  0
 31 28  1  0  0  0  0
M  END
>  <minimizedAffinity>
-5.44415188

$$$$

 OpenBabel03252503043D

 31 32  0  0  0  0  0  0  0  0999 V2000
   39.9860   34.6100   40.1900 S   0  0  0  0  0  0  0  0  0  0  0  0
   39.2150   32.1370   41.1540 C   0  0  0  0  0  0  0  0  0  0  0  0
   38.8800   33.1860   40.3130 C   0  0  0  0  0  0  0  0  0  0  0  0
   37.7090   33.1540   39.5660 C   0  0  0  0  0  0  0  0  0  0  0  0
   36.9190   32.0600   39.6970 N   0  0  0  0  0  0  0  0  0  0  0  0
   37.2780   31.0570   40.5260 C   0  0  0  0  0  0  0  0  0  0  0  0
   38.3980   31.0640   41.2540 N   0  0  0  0  0  0  0  0  0  0  0  0
   40.1310   32.1760   41.7300 H   0  0  0  0  0  0  0  0  0  0  0  0
   37.4580   33.9790   38.9140 H   0  0  0  0  0  0  0  0  0  0  0  0
   36.4640   29.9240   40.6630 O   0  0  0  0  0  0  0  0  0  0  0  0
   37.1380   28.7180   40.9910 C   0  0  0  0  0  3  0  0  0  0  0  0
   36.4740   28.1430   42.2250 C   0  0  0  0  0  2  0  0  0  0  0  0
   37.1740   26.8600   42.6170 C   0  0  0  0  0  2  0  0  0  0  0  0
   37.1910   25.8730   41.4680 C   0  0  0  0  0  2  0  0  0  0  0  0
   37.8790   26.5070   40.2630 C   0  0  0  0  0  2  0  0  0  0  0  0
   37.1120   27.7270   39.8680 C   0  0  0  0  0  2  0  0  0  0  0  0
   41.5460   34.0920   39.4950 C   0  0  0  0  0  0  0  0  0  0  0  0
   41.7400   34.7190   38.5890 H   0  0  0  0  0  0  0  0  0  0  0  0
   42.3950   34.1810   40.1920 H   0  0  0  0  0  0  0  0  0  0  0  0
   41.3820   32.7290   39.0100 N   0  0  0  0  0  0  0  0  0  0  0  0
   42.1600   32.1520   39.4010 H   0  0  0  0  0  0  0  0  0  0  0  0
   41.4540   32.6430   37.3000 S   0  0  0  0  0  0  0  0  0  0  0  0
   40.0960   32.5270   36.6770 O   0  0  0  0  0  0  0  0  0  0  0  0
   39.3510   31.9930   37.0880 H   0  0  0  0  0  0  0  0  0  0  0  0
   42.0960   33.9430   36.8420 O   0  0  0  0  0  0  0  0  0  0  0  0
   42.3860   34.1120   35.9120 H   0  0  0  0  0  0  0  0  0  0  0  0
   42.4530   31.3930   36.8310 O   0  0  0  0  0  0  0  0  0  0  0  0
   43.7390   31.5520   37.2860 C   0  0  0  0  0  0  0  0  0  0  0  0
   44.4360   31.1250   36.5360 H   0  0  0  0  0  0  0  0  0  0  0  0
   43.9370   32.6490   37.3690 H   0  0  0  0  0  0  0  0  0  0  0  0
   43.8870   31.0540   38.2710 H   0  0  0  0  0  0  0  0  0  0  0  0
  1  3  1  0  0  0  0
  2  7  1  0  0  0  0
  2  8  1  0  0  0  0
  3  2  2  0  0  0  0
  4  5  2  0  0  0  0
  4  3  1  0  0  0  0
  5  6  1  0  0  0  0
  6 10  1  0  0  0  0
  6  7  2  0  0  0  0
  9  4  1  0  0  0  0
 10 11  1  0  0  0  0
 11 12  1  0  0  0  0
 12 13  1  0  0  0  0
 14 13  1  0  0  0  0
 15 14  1  0  0  0  0
 16 15  1  0  0  0  0
 16 11  1  0  0  0  0
 17  1  1  0  0  0  0
 17 19  1  0  0  0  0
 18 17  1  0  0  0  0
 20 21  1  0  0  0  0
 20 17  1  0  0  0  0
 22 20  1  0  0  0  0
 23 24  1  0  0  0  0
 23 22  1  0  0  0  0
 25 22  1  0  0  0  0
 26 25  1  0  0  0  0
 27 28  1  0  0  0  0
 27 22  1  0  0  0  0
 28 30  1  0  0  0  0
 28 31  1  0  0  0  0
 29 28  1  0  0  0  0
M  END
>  <minimizedAffinity>
-5.29521465

$$$$

 OpenBabel03252503043D

 31 32  0  0  0  0  0  0  0  0999 V2000
   37.2950   31.9510   38.5290 S   0  0  0  0  0  0  0  0  0  0  0  0
   37.3560   29.2700   39.2020 C   0  0  0  0  0  0  0  0  0  0  0  0
   37.1540   30.5570   39.6720 C   0  0  0  0  0  0  0  0  0  0  0  0
   36.8430   30.7880   41.0070 C   0  0  0  0  0  0  0  0  0  0  0  0
   36.7480   29.7050   41.8170 N   0  0  0  0  0  0  0  0  0  0  0  0
   36.9510   28.4660   41.3240 C   0  0  0  0  0  0  0  0  0  0  0  0
   37.2510   28.2180   40.0450 N   0  0  0  0  0  0  0  0  0  0  0  0
   37.5970   29.1070   38.1590 H   0  0  0  0  0  0  0  0  0  0  0  0
   36.6880   31.7970   41.3620 H   0  0  0  0  0  0  0  0  0  0  0  0
   36.8530   27.3440   42.1590 O   0  0  0  0  0  0  0  0  0  0  0  0
   37.9370   26.4300   42.0920 C   0  0  0  0  0  3  0  0  0  0  0  0
   38.8520   26.7180   43.2650 C   0  0  0  0  0  2  0  0  0  0  0  0
   40.0320   25.7710   43.2220 C   0  0  0  0  0  2  0  0  0  0  0  0
   39.5740   24.3280   43.1990 C   0  0  0  0  0  2  0  0  0  0  0  0
   38.6670   24.1000   41.9940 C   0  0  0  0  0  2  0  0  0  0  0  0
   37.4820   25.0030   42.1170 C   0  0  0  0  0  2  0  0  0  0  0  0
   37.4370   33.4680   39.4580 C   0  0  0  0  0  0  0  0  0  0  0  0
   36.7740   34.2280   38.9720 H   0  0  0  0  0  0  0  0  0  0  0  0
   37.1640   33.3680   40.5200 H   0  0  0  0  0  0  0  0  0  0  0  0
   38.7970   33.9620   39.2900 N   0  0  0  0  0  0  0  0  0  0  0  0
   39.3250   33.2640   38.7200 H   0  0  0  0  0  0  0  0  0  0  0  0
   39.6010   34.1530   40.7920 S   0  0  0  0  0  0  0  0  0  0  0  0
   38.7560   34.8610   41.8070 O   0  0  0  0  0  0  0  0  0  0  0  0
   38.1370   35.6160   41.5700 H   0  0  0  0  0  0  0  0  0  0  0  0
   39.8940   32.7460   41.2900 O   0  0  0  0  0  0  0  0  0  0  0  0
   40.4710   32.5520   42.0690 H   0  0  0  0  0  0  0  0  0  0  0  0
   41.0620   34.9240   40.5640 O   0  0  0  0  0  0  0  0  0  0  0  0
   41.4330   34.9630   39.2420 C   0  0  0  0  0  0  0  0  0  0  0  0
   42.5390   34.9010   39.1820 H   0  0  0  0  0  0  0  0  0  0  0  0
   41.0010   34.0620   38.7410 H   0  0  0  0  0  0  0  0  0  0  0  0
   41.0760   35.8930   38.7460 H   0  0  0  0  0  0  0  0  0  0  0  0
  1 17  1  0  0  0  0
  1  3  1  0  0  0  0
  2  3  2  0  0  0  0
  2  7  1  0  0  0  0
  3  4  1  0  0  0  0
  4  9  1  0  0  0  0
  4  5  2  0  0  0  0
  6  5  1  0  0  0  0
  6 10  1  0  0  0  0
  7  6  2  0  0  0  0
  8  2  1  0  0  0  0
 11 16  1  0  0  0  0
 11 10  1  0  0  0  0
 11 12  1  0  0  0  0
 13 12  1  0  0  0  0
 14 13  1  0  0  0  0
 15 16  1  0  0  0  0
 15 14  1  0  0  0  0
 17 19  1  0  0  0  0
 18 17  1  0  0  0  0
 20 17  1  0  0  0  0
 20 22  1  0  0  0  0
 21 20  1  0  0  0  0
 22 25  1  0  0  0  0
 22 23  1  0  0  0  0
 24 23  1  0  0  0  0
 25 26  1  0  0  0  0
 27 22  1  0  0  0  0
 28 27  1  0  0  0  0
 29 28  1  0  0  0  0
 30 28  1  0  0  0  0
 31 28  1  0  0  0  0
M  END
>  <minimizedAffinity>
-5.27345037

$$$$

 OpenBabel03252503043D

 31 32  0  0  0  0  0  0  0  0999 V2000
   43.3450   30.1580   37.8520 S   0  0  0  0  0  0  0  0  0  0  0  0
   40.6170   30.5150   38.1240 C   0  0  0  0  0  0  0  0  0  0  0  0
   41.7620   30.0000   38.7100 C   0  0  0  0  0  0  0  0  0  0  0  0
   41.7070   29.3680   39.9460 C   0  0  0  0  0  0  0  0  0  0  0  0
   40.4940   29.2810   40.5450 N   0  0  0  0  0  0  0  0  0  0  0  0
   39.4000   29.7940   39.9430 C   0  0  0  0  0  0  0  0  0  0  0  0
   39.4260   30.4060   38.7560 N   0  0  0  0  0  0  0  0  0  0  0  0
   40.6760   31.0040   37.1600 H   0  0  0  0  0  0  0  0  0  0  0  0
   42.6070   28.9700   40.3940 H   0  0  0  0  0  0  0  0  0  0  0  0
   38.1440   29.7070   40.5600 O   0  0  0  0  0  0  0  0  0  0  0  0
   38.0050   28.6790   41.5300 C   0  0  0  0  0  3  0  0  0  0  0  0
   37.5650   29.3280   42.8260 C   0  0  0  0  0  2  0  0  0  0  0  0
   37.4190   28.2650   43.8920 C   0  0  0  0  0  2  0  0  0  0  0  0
   36.4650   27.1740   43.4510 C   0  0  0  0  0  2  0  0  0  0  0  0
   36.9680   26.5560   42.1490 C   0  0  0  0  0  2  0  0  0  0  0  0
   37.0270   27.6260   41.1080 C   0  0  0  0  0  2  0  0  0  0  0  0
   43.2550   31.5020   36.6810 C   0  0  0  0  0  0  0  0  0  0  0  0
   43.6050   31.1160   35.6910 H   0  0  0  0  0  0  0  0  0  0  0  0
   42.2460   31.9310   36.5720 H   0  0  0  0  0  0  0  0  0  0  0  0
   44.2300   32.5050   37.0850 N   0  0  0  0  0  0  0  0  0  0  0  0
   44.8620   32.0720   37.7950 H   0  0  0  0  0  0  0  0  0  0  0  0
   43.4860   33.8790   37.7890 S   0  0  0  0  0  0  0  0  0  0  0  0
   44.4870   34.8690   38.3040 O   0  0  0  0  0  0  0  0  0  0  0  0
   45.3500   34.5970   38.7390 H   0  0  0  0  0  0  0  0  0  0  0  0
   42.6750   34.5300   36.6800 O   0  0  0  0  0  0  0  0  0  0  0  0
   42.0340   35.2660   36.8320 H   0  0  0  0  0  0  0  0  0  0  0  0
   42.4230   33.4060   38.9830 O   0  0  0  0  0  0  0  0  0  0  0  0
   42.9860   33.4520   40.2350 C   0  0  0  0  0  0  0  0  0  0  0  0
   42.5520   32.6380   40.8500 H   0  0  0  0  0  0  0  0  0  0  0  0
   44.0820   33.2650   40.1210 H   0  0  0  0  0  0  0  0  0  0  0  0
   42.8090   34.4370   40.7250 H   0  0  0  0  0  0  0  0  0  0  0  0
  1  3  1  0  0  0  0
  2  3  2  0  0  0  0
  2  7  1  0  0  0  0
  3  4  1  0  0  0  0
  4  9  1  0  0  0  0
  4  5  2  0  0  0  0
  6  5  1  0  0  0  0
  6 10  1  0  0  0  0
  7  6  2  0  0  0  0
  8  2  1  0  0  0  0
 10 11  1  0  0  0  0
 11 12  1  0  0  0  0
 12 13  1  0  0  0  0
 14 13  1  0  0  0  0
 15 14  1  0  0  0  0
 16 11  1  0  0  0  0
 16 15  1  0  0  0  0
 17 20  1  0  0  0  0
 17  1  1  0  0  0  0
 18 17  1  0  0  0  0
 19 17  1  0  0  0  0
 20 22  1  0  0  0  0
 20 21  1  0  0  0  0
 22 23  1  0  0  0  0
 22 27  1  0  0  0  0
 23 24  1  0  0  0  0
 25 26  1  0  0  0  0
 25 22  1  0  0  0  0
 27 28  1  0  0  0  0
 28 31  1  0  0  0  0
 28 29  1  0  0  0  0
 30 28  1  0  0  0  0
M  END
>  <minimizedAffinity>
-5.03042316

$$$$

 OpenBabel03252503043D

 31 32  0  0  0  0  0  0  0  0999 V2000
   41.0930   30.5670   42.4520 S   0  0  0  0  0  0  0  0  0  0  0  0
   40.4110   27.9600   41.8360 C   0  0  0  0  0  0  0  0  0  0  0  0
   39.9820   29.1420   42.4170 C   0  0  0  0  0  0  0  0  0  0  0  0
   38.7110   29.2440   42.9690 C   0  0  0  0  0  0  0  0  0  0  0  0
   37.9200   28.1440   42.9120 N   0  0  0  0  0  0  0  0  0  0  0  0
   38.3730   27.0090   42.3380 C   0  0  0  0  0  0  0  0  0  0  0  0
   39.5900   26.8860   41.8010 N   0  0  0  0  0  0  0  0  0  0  0  0
   41.4050   27.8960   41.4110 H   0  0  0  0  0  0  0  0  0  0  0  0
   38.3860   30.1720   43.4190 H   0  0  0  0  0  0  0  0  0  0  0  0
   37.5580   25.8710   42.2770 O   0  0  0  0  0  0  0  0  0  0  0  0
   37.3670   25.3180   40.9820 C   0  0  0  0  0  3  0  0  0  0  0  0
   36.5930   24.0260   41.1440 C   0  0  0  0  0  2  0  0  0  0  0  0
   36.3820   23.3970   39.7840 C   0  0  0  0  0  2  0  0  0  0  0  0
   35.6920   24.3590   38.8380 C   0  0  0  0  0  2  0  0  0  0  0  0
   36.5240   25.6310   38.7110 C   0  0  0  0  0  2  0  0  0  0  0  0
   36.6450   26.2550   40.0640 C   0  0  0  0  0  2  0  0  0  0  0  0
   40.5560   31.7680   41.2460 C   0  0  0  0  0  0  0  0  0  0  0  0
   41.3580   32.5450   41.1590 H   0  0  0  0  0  0  0  0  0  0  0  0
   40.3510   31.3400   40.2510 H   0  0  0  0  0  0  0  0  0  0  0  0
   39.3940   32.4540   41.7920 N   0  0  0  0  0  0  0  0  0  0  0  0
   38.6290   31.7510   41.9070 H   0  0  0  0  0  0  0  0  0  0  0  0
   38.8330   33.6970   40.7550 S   0  0  0  0  0  0  0  0  0  0  0  0
   37.4320   33.4570   40.2810 O   0  0  0  0  0  0  0  0  0  0  0  0
   37.0790   32.5430   40.0600 H   0  0  0  0  0  0  0  0  0  0  0  0
   38.8620   34.9740   41.5790 O   0  0  0  0  0  0  0  0  0  0  0  0
   38.7190   35.8750   41.1970 H   0  0  0  0  0  0  0  0  0  0  0  0
   39.8860   33.8950   39.4770 O   0  0  0  0  0  0  0  0  0  0  0  0
   40.6710   35.0150   39.6150 C   0  0  0  0  0  0  0  0  0  0  0  0
   40.8720   35.4330   38.6070 H   0  0  0  0  0  0  0  0  0  0  0  0
   40.0890   35.7670   40.2010 H   0  0  0  0  0  0  0  0  0  0  0  0
   41.6310   34.7790   40.1280 H   0  0  0  0  0  0  0  0  0  0  0  0
  2  3  1  0  0  0  0
  3  1  1  0  0  0  0
  3  4  2  0  0  0  0
  4  9  1  0  0  0  0
  5  4  1  0  0  0  0
  6  5  2  0  0  0  0
  7  2  2  0  0  0  0
  7  6  1  0  0  0  0
  8  2  1  0  0  0  0
 10  6  1  0  0  0  0
 11 12  1  0  0  0  0
 11 10  1  0  0  0  0
 13 12  1  0  0  0  0
 14 13  1  0  0  0  0
 15 14  1  0  0  0  0
 15 16  1  0  0  0  0
 16 11  1  0  0  0  0
 17 20  1  0  0  0  0
 17  1  1  0  0  0  0
 18 17  1  0  0  0  0
 19 17  1  0  0  0  0
 20 21  1  0  0  0  0
 22 25  1  0  0  0  0
 22 20  1  0  0  0  0
 23 22  1  0  0  0  0
 24 23  1  0  0  0  0
 26 25  1  0  0  0  0
 27 28  1  0  0  0  0
 27 22  1  0  0  0  0
 28 31  1  0  0  0  0
 28 30  1  0  0  0  0
 29 28  1  0  0  0  0
M  END
>  <minimizedAffinity>
-4.90882921

$$$$
