
     RDKit          3D

 43 45  0  0  0  0  0  0  0  0999 V2000
   45.6143   34.4165   41.8386 N   0  0  0  0  0  0  0  0  0  0  0  0
   46.9644   34.1130   41.4229 C   0  0  1  0  0  0  0  0  0  0  0  0
   47.0977   34.0059   39.9361 C   0  0  0  0  0  0  0  0  0  0  0  0
   46.0437   33.3887   39.2475 N   0  0  0  0  0  0  0  0  0  0  0  0
   44.7628   33.4552   39.7913 C   0  0  0  0  0  0  0  0  0  0  0  0
   44.6625   34.6073   40.7945 C   0  0  0  0  0  0  0  0  0  0  0  0
   44.7245   35.6156   43.7025 C   0  0  0  0  0  0  0  0  0  0  0  0
   45.3768   34.4928   43.2287 C   0  0  0  0  0  0  0  0  0  0  0  0
   45.7529   33.5123   44.1759 C   0  0  0  0  0  0  0  0  0  0  0  0
   45.4669   33.7039   45.4850 N   0  0  0  0  0  0  0  0  0  0  0  0
   44.8318   34.8096   45.8997 C   0  0  0  0  0  0  0  0  0  0  0  0
   44.4680   35.7455   45.0298 N   0  0  0  0  0  0  0  0  0  0  0  0
   47.8377   35.2617   41.8585 C   0  0  0  0  0  0  0  0  0  0  0  0
   47.2681   33.1607   41.8767 H   0  0  0  0  0  0  0  0  0  0  0  0
   48.0376   33.4594   39.7115 H   0  0  0  0  0  0  0  0  0  0  0  0
   47.2358   35.0354   39.5217 H   0  0  0  0  0  0  0  0  0  0  0  0
   46.0191   33.7287   38.2491 H   0  0  0  0  0  0  0  0  0  0  0  0
   44.5755   32.5342   40.3913 H   0  0  0  0  0  0  0  0  0  0  0  0
   43.9216   33.5104   39.0759 H   0  0  0  0  0  0  0  0  0  0  0  0
   44.9245   35.5412   40.2547 H   0  0  0  0  0  0  0  0  0  0  0  0
   43.6288   34.6868   41.2028 H   0  0  0  0  0  0  0  0  0  0  0  0
   44.4086   36.4043   43.0343 H   0  0  0  0  0  0  0  0  0  0  0  0
   46.2574   32.6635   43.7379 H   0  0  0  0  0  0  0  0  0  0  0  0
   44.6576   34.8526   46.9667 H   0  0  0  0  0  0  0  0  0  0  0  0
   47.7369   35.4377   42.9619 H   0  0  0  0  0  0  0  0  0  0  0  0
   47.4688   36.1731   41.3333 H   0  0  0  0  0  0  0  0  0  0  0  0
   49.2804   35.1228   41.5122 C   0  0  0  0  0  0  0  0  0  0  0  0
   49.7672   36.4322   40.9494 C   0  0  0  0  0  0  0  0  0  0  0  0
   51.0324   36.9482   41.5271 C   0  0  0  0  0  0  0  0  0  0  0  0
   52.0647   35.9559   41.9162 C   0  0  0  0  0  0  0  0  0  0  0  0
   51.5442   34.5683   42.1529 C   0  0  0  0  0  0  0  0  0  0  0  0
   50.1341   34.7029   42.6895 C   0  0  0  0  0  0  0  0  0  0  0  0
   49.3886   34.3316   40.7414 H   0  0  0  0  0  0  0  0  0  0  0  0
   49.8840   36.3408   39.8322 H   0  0  0  0  0  0  0  0  0  0  0  0
   49.0063   37.2304   41.0790 H   0  0  0  0  0  0  0  0  0  0  0  0
   50.8104   37.6734   42.3574 H   0  0  0  0  0  0  0  0  0  0  0  0
   51.5111   37.6076   40.7440 H   0  0  0  0  0  0  0  0  0  0  0  0
   52.9159   35.8932   41.2157 H   0  0  0  0  0  0  0  0  0  0  0  0
   52.5208   36.3030   42.8894 H   0  0  0  0  0  0  0  0  0  0  0  0
   51.4760   34.0491   41.1764 H   0  0  0  0  0  0  0  0  0  0  0  0
   52.2093   34.0697   42.8871 H   0  0  0  0  0  0  0  0  0  0  0  0
   49.8229   33.6909   43.0216 H   0  0  0  0  0  0  0  0  0  0  0  0
   50.0711   35.4463   43.5184 H   0  0  0  0  0  0  0  0  0  0  0  0
  1  8  1  0
  2  1  1  0
  2 13  1  0
  3  2  1  0
  4  5  1  0
  4  3  1  0
  5  6  1  0
  6  1  1  0
  7 12  2  0
  8  7  1  0
  8  9  2  0
  9 10  1  0
 10 11  2  0
 12 11  1  0
  2 14  1  1
  3 15  1  0
  3 16  1  0
  4 17  1  0
  5 18  1  0
  5 19  1  0
  6 20  1  0
  6 21  1  0
  7 22  1  0
  9 23  1  0
 11 24  1  0
 13 25  1  0
 13 26  1  0
 27 28  1  0
 28 29  1  0
 29 30  1  0
 30 31  1  0
 31 32  1  0
 32 27  1  0
 27 33  1  0
 28 34  1  0
 28 35  1  0
 29 36  1  0
 29 37  1  0
 30 38  1  0
 30 39  1  0
 31 40  1  0
 31 41  1  0
 32 42  1  0
 32 43  1  0
 13 27  1  0
M  ISO  8  14  13  15  13  16  13  17   5  18  13  19  13  20  13  21  13
M  ISO  5  22  14  23  14  24  14  25   8  26   8
M  END
>  <DihAtoms>  (1) 
1,12,26,27

>  <DihDeg>  (1) 
179.97244289078554

$$$$
