
 OpenBabel03252503193D

 36 39  0  0  0  0  0  0  0  0999 V2000
   45.7820   35.1020   42.5020 C   0  0  0  0  0  0  0  0  0  0  0  0
   46.9230   35.6240   42.2820 O   0  0  0  0  0  0  0  0  0  0  0  0
   44.7520   34.8470   41.4410 C   0  0  0  0  0  0  0  0  0  0  0  0
   43.5450   35.4870   41.3070 C   0  0  0  0  0  0  0  0  0  0  0  0
   42.9640   34.9250   40.2160 N   0  0  0  0  0  0  0  0  0  0  0  0
   43.7890   33.9900   39.7220 C   0  0  0  0  0  0  0  0  0  0  0  0
   44.8940   33.9340   40.4700 N   0  0  0  0  0  0  0  0  0  0  0  0
   43.6290   33.1460   38.6040 N   0  0  0  0  0  0  0  0  0  0  0  0
   43.1390   36.2630   41.9210 H   0  0  0  0  0  0  0  0  0  0  0  0
   43.4340   32.1370   38.8230 H   0  0  0  0  0  0  0  0  0  0  0  0
   43.7000   33.5070   37.6280 H   0  0  0  0  0  0  0  0  0  0  0  0
   41.6710   35.2460   39.6390 C   0  0  0  0  0  0  0  0  0  0  0  0
   41.3770   36.2220   40.0800 H   0  0  0  0  0  0  0  0  0  0  0  0
   41.8100   35.3680   38.5620 H   0  0  0  0  0  0  0  0  0  0  0  0
   40.5980   34.2460   39.9720 C   0  0  0  0  0  0  0  0  0  0  0  0
   39.3790   34.3840   39.1260 C   0  0  0  0  0  0  0  0  0  0  0  0
   38.1820   33.7520   39.7490 C   0  0  0  0  0  0  0  0  0  0  0  0
   38.4890   32.5660   40.6020 C   0  0  0  0  0  0  0  0  0  0  0  0
   39.5320   32.8280   41.6440 C   0  0  0  0  0  0  0  0  0  0  0  0
   40.2170   34.1810   41.4110 C   0  0  0  0  0  0  0  0  0  0  0  0
   44.7620   35.6240   44.6660 C   0  0  0  0  0  0  0  0  0  0  0  0
   45.5170   34.7600   43.8540 C   0  0  0  0  0  0  0  0  0  0  0  0
   45.9480   33.6070   44.4800 C   0  0  0  0  0  0  0  0  0  0  0  0
   45.6760   33.3230   45.7580 N   0  0  0  0  0  0  0  0  0  0  0  0
   44.9370   34.2000   46.5030 C   0  0  0  0  0  0  0  0  0  0  0  0
   44.4900   35.3450   45.9400 N   0  0  0  0  0  0  0  0  0  0  0  0
   44.4000   36.5430   44.2210 H   0  0  0  0  0  0  0  0  0  0  0  0
   44.7580   33.9030   47.5280 H   0  0  0  0  0  0  0  0  0  0  0  0
   46.7210   32.6760   43.7230 C   0  0  0  0  0  0  0  0  0  0  0  0
   48.0440   32.5240   43.4490 C   0  0  0  0  0  0  0  0  0  0  0  0
   48.4950   31.5440   42.7000 C   0  0  0  0  0  0  0  0  0  0  0  0
   47.5810   30.6910   42.2150 C   0  0  0  0  0  0  0  0  0  0  0  0
   45.9960   31.3140   42.8540 S   0  0  0  0  0  0  0  0  0  0  0  0
   48.6900   33.2970   43.9140 H   0  0  0  0  0  0  0  0  0  0  0  0
   49.5280   31.3550   42.4370 H   0  0  0  0  0  0  0  0  0  0  0  0
   47.6800   29.7760   41.5570 H   0  0  0  0  0  0  0  0  0  0  0  0
  1 22  1  0  0  0  0
  2  1  2  0  0  0  0
  3  1  1  0  0  0  0
  4  3  2  0  0  0  0
  4  9  1  0  0  0  0
  5  4  1  0  0  0  0
  6  5  1  0  0  0  0
  6  7  2  0  0  0  0
  7  3  1  0  0  0  0
  8 10  1  0  0  0  0
  8  6  1  0  0  0  0
 11  8  1  0  0  0  0
 12 15  1  0  0  0  0
 12 13  1  0  0  0  0
 12  5  1  0  0  0  0
 14 12  1  0  0  0  0
 15 20  1  0  0  0  0
 16 17  1  0  0  0  0
 16 15  1  0  0  0  0
 17 18  1  0  0  0  0
 18 19  1  0  0  0  0
 20 19  1  0  0  0  0
 21 26  1  0  0  0  0
 22 23  1  0  0  0  0
 22 21  2  0  0  0  0
 23 24  2  0  0  0  0
 24 25  1  0  0  0  0
 25 28  1  0  0  0  0
 26 25  2  0  0  0  0
 27 21  1  0  0  0  0
 29 23  1  0  0  0  0
 30 29  2  0  0  0  0
 30 34  1  0  0  0  0
 31 30  1  0  0  0  0
 32 31  2  0  0  0  0
 32 33  1  0  0  0  0
 33 29  1  0  0  0  0
 35 31  1  0  0  0  0
 36 32  1  0  0  0  0
M  END
>  <minimizedAffinity>
-6.23237371

>  <minimizedRMSD>
2.1808722

$$$$
