
 OpenBabel03252507103D

 33 35  0  0  1  0  0  0  0  0999 V2000
   39.8600   33.7200   40.2930 C   0  0  0  0  0  0  0  0  0  0  0  0
   38.8630   32.9680   40.9380 C   0  0  0  0  0  0  0  0  0  0  0  0
   38.6210   31.6850   40.4510 C   0  0  0  0  0  0  0  0  0  0  0  0
   39.3390   31.2230   39.3990 N   0  0  0  0  0  0  0  0  0  0  0  0
   40.2830   31.9640   38.8070 C   0  0  0  0  0  0  0  0  0  0  0  0
   40.5470   33.2190   39.2540 N   0  0  0  0  0  0  0  0  0  0  0  0
   40.0830   34.7180   40.6360 H   0  0  0  0  0  0  0  0  0  0  0  0
   38.3550   33.4370   41.7650 H   0  0  0  0  0  0  0  0  0  0  0  0
   42.3360   32.3250   37.4110 C   0  0  1  0  0  0  0  0  0  0  0  0
   41.0910   31.5270   37.6570 C   0  0  1  0  0  0  0  0  0  0  0  0
   41.7290   30.1620   37.9490 C   0  0  0  0  0  0  0  0  0  0  0  0
   42.9050   30.1120   37.2740 O   0  0  0  0  0  0  0  0  0  0  0  0
   43.1070   31.2960   36.5840 C   0  0  0  0  0  0  0  0  0  0  0  0
   42.8330   32.4600   38.4100 H   0  0  0  0  0  0  0  0  0  0  0  0
   40.4750   31.4740   36.7440 H   0  0  0  0  0  0  0  0  0  0  0  0
   41.7810   29.9570   39.0300 H   0  0  0  0  0  0  0  0  0  0  0  0
   41.0290   29.4180   37.5070 H   0  0  0  0  0  0  0  0  0  0  0  0
   44.1860   31.5610   36.5800 H   0  0  0  0  0  0  0  0  0  0  0  0
   42.6490   31.2310   35.5980 H   0  0  0  0  0  0  0  0  0  0  0  0
   42.1300   33.5170   36.7810 O   0  0  0  0  0  0  0  0  0  0  0  0
   41.2080   33.8330   36.8400 H   0  0  0  0  0  0  0  0  0  0  0  0
   37.6360   30.9610   41.0990 O   0  0  0  0  0  0  0  0  0  0  0  0
   39.4030   29.8280   42.7320 O   0  0  0  0  0  0  0  0  0  0  0  0
   38.0600   29.6060   42.0590 P   0  0  1  0  0  0  0  0  0  0  0  0
   36.8350   29.3280   43.1590 O   0  0  0  0  0  0  0  0  0  0  0  0
   36.1270   28.7830   42.7370 H   0  0  0  0  0  0  0  0  0  0  0  0
   38.2000   28.2960   40.9770 O   0  0  0  0  0  0  0  0  0  0  0  0
   37.3190   27.2750   41.3270 C   0  0  0  0  0  3  0  0  0  0  0  0
   36.6090   26.7980   40.0900 C   0  0  0  0  0  2  0  0  0  0  0  0
   36.9020   25.3620   39.7380 C   0  0  0  0  0  2  0  0  0  0  0  0
   36.6570   24.4180   40.8690 C   0  0  0  0  0  2  0  0  0  0  0  0
   37.0410   25.0170   42.2020 C   0  0  0  0  0  2  0  0  0  0  0  0
   38.0580   26.1040   41.9410 C   0  0  0  0  0  2  0  0  0  0  0  0
  1  7  1  0  0  0  0
  1  2  1  0  0  0  0
  2  8  1  0  0  0  0
  3  2  2  0  0  0  0
  3 22  1  0  0  0  0
  4  3  1  0  0  0  0
  5  6  1  0  0  0  0
  5  4  2  0  0  0  0
  6  1  2  0  0  0  0
  9 10  1  0  0  0  0
  9 14  1  1  0  0  0
 10 15  1  6  0  0  0
 10 11  1  0  0  0  0
 10  5  1  0  0  0  0
 11 16  1  0  0  0  0
 12 11  1  0  0  0  0
 13 12  1  0  0  0  0
 13  9  1  0  0  0  0
 17 11  1  0  0  0  0
 18 13  1  0  0  0  0
 19 13  1  0  0  0  0
 20 21  1  0  0  0  0
 20  9  1  0  0  0  0
 22 24  1  0  0  0  0
 24 23  2  1  0  0  0
 24 25  1  0  0  0  0
 26 25  1  0  0  0  0
 27 28  1  0  0  0  0
 27 24  1  0  0  0  0
 28 33  1  0  0  0  0
 29 28  1  0  0  0  0
 30 29  1  0  0  0  0
 30 31  1  0  0  0  0
 31 32  1  0  0  0  0
 33 32  1  0  0  0  0
M  END
>  <minimizedAffinity>
-5.62382698

$$$$

 OpenBabel03252507103D

 33 35  0  0  1  0  0  0  0  0999 V2000
   40.2770   28.9930   37.4910 C   0  0  0  0  0  0  0  0  0  0  0  0
   39.0060   29.0150   38.0910 C   0  0  0  0  0  0  0  0  0  0  0  0
   38.5000   30.2610   38.4580 C   0  0  0  0  0  0  0  0  0  0  0  0
   39.2350   31.3760   38.2290 N   0  0  0  0  0  0  0  0  0  0  0  0
   40.4420   31.3210   37.6550 C   0  0  0  0  0  0  0  0  0  0  0  0
   40.9680   30.1260   37.2830 N   0  0  0  0  0  0  0  0  0  0  0  0
   40.7090   28.0520   37.1890 H   0  0  0  0  0  0  0  0  0  0  0  0
   38.5120   28.0670   38.2250 H   0  0  0  0  0  0  0  0  0  0  0  0
   41.6490   33.3130   38.5890 C   0  0  1  0  0  0  0  0  0  0  0  0
   41.2940   32.4900   37.3860 C   0  0  1  0  0  0  0  0  0  0  0  0
   42.7020   32.0340   36.9790 C   0  0  0  0  0  0  0  0  0  0  0  0
   43.5730   32.9890   37.3920 O   0  0  0  0  0  0  0  0  0  0  0  0
   42.8890   34.0100   38.0310 C   0  0  0  0  0  0  0  0  0  0  0  0
   41.9490   32.5900   39.3950 H   0  0  0  0  0  0  0  0  0  0  0  0
   40.8540   33.1220   36.5970 H   0  0  0  0  0  0  0  0  0  0  0  0
   42.9130   31.0060   37.3170 H   0  0  0  0  0  0  0  0  0  0  0  0
   42.6880   32.0170   35.8660 H   0  0  0  0  0  0  0  0  0  0  0  0
   43.4940   34.4140   38.8720 H   0  0  0  0  0  0  0  0  0  0  0  0
   42.5690   34.7530   37.3010 H   0  0  0  0  0  0  0  0  0  0  0  0
   40.6640   34.1590   39.0060 O   0  0  0  0  0  0  0  0  0  0  0  0
   39.7770   33.9160   38.6760 H   0  0  0  0  0  0  0  0  0  0  0  0
   37.2470   30.2610   39.0470 O   0  0  0  0  0  0  0  0  0  0  0  0
   37.1680   32.5830   40.3420 O   0  0  0  0  0  0  0  0  0  0  0  0
   36.9980   31.0860   40.5290 P   0  0  1  0  0  0  0  0  0  0  0  0
   35.4870   30.6850   41.1150 O   0  0  0  0  0  0  0  0  0  0  0  0
   35.5400   29.8360   41.6180 H   0  0  0  0  0  0  0  0  0  0  0  0
   38.2150   30.5240   41.5830 O   0  0  0  0  0  0  0  0  0  0  0  0
   38.0010   29.1880   41.9120 C   0  0  0  0  0  3  0  0  0  0  0  0
   39.2650   28.4140   41.6580 C   0  0  0  0  0  2  0  0  0  0  0  0
   39.8680   27.8110   42.9000 C   0  0  0  0  0  2  0  0  0  0  0  0
   38.9020   26.9780   43.6770 C   0  0  0  0  0  2  0  0  0  0  0  0
   37.5080   27.5580   43.6560 C   0  0  0  0  0  2  0  0  0  0  0  0
   37.6290   29.0380   43.3730 C   0  0  0  0  0  2  0  0  0  0  0  0
  1  2  1  0  0  0  0
  2  8  1  0  0  0  0
  2  3  2  0  0  0  0
  3 22  1  0  0  0  0
  4  3  1  0  0  0  0
  5  4  2  0  0  0  0
  6  1  2  0  0  0  0
  6  5  1  0  0  0  0
  7  1  1  0  0  0  0
  9 20  1  0  0  0  0
  9 14  1  1  0  0  0
 10 15  1  6  0  0  0
 10  5  1  0  0  0  0
 10  9  1  0  0  0  0
 11 16  1  0  0  0  0
 11 10  1  0  0  0  0
 11 12  1  0  0  0  0
 12 13  1  0  0  0  0
 13  9  1  0  0  0  0
 13 18  1  0  0  0  0
 17 11  1  0  0  0  0
 19 13  1  0  0  0  0
 21 20  1  0  0  0  0
 22 24  1  0  0  0  0
 24 23  2  6  0  0  0
 24 25  1  0  0  0  0
 24 27  1  0  0  0  0
 25 26  1  0  0  0  0
 27 28  1  0  0  0  0
 28 33  1  0  0  0  0
 29 28  1  0  0  0  0
 29 30  1  0  0  0  0
 30 31  1  0  0  0  0
 32 31  1  0  0  0  0
 33 32  1  0  0  0  0
M  END
>  <minimizedAffinity>
-5.60088301

$$$$

 OpenBabel03252507103D

 33 35  0  0  1  0  0  0  0  0999 V2000
   37.5760   30.7890   37.8270 C   0  0  0  0  0  0  0  0  0  0  0  0
   37.0070   30.3570   39.0370 C   0  0  0  0  0  0  0  0  0  0  0  0
   37.5590   30.8610   40.2140 C   0  0  0  0  0  0  0  0  0  0  0  0
   38.6000   31.7260   40.1470 N   0  0  0  0  0  0  0  0  0  0  0  0
   39.1190   32.1180   38.9780 C   0  0  0  0  0  0  0  0  0  0  0  0
   38.6080   31.6490   37.8110 N   0  0  0  0  0  0  0  0  0  0  0  0
   37.1810   30.4260   36.8910 H   0  0  0  0  0  0  0  0  0  0  0  0
   36.1810   29.6670   38.9700 H   0  0  0  0  0  0  0  0  0  0  0  0
   41.2390   33.0280   39.9650 C   0  0  1  0  0  0  0  0  0  0  0  0
   40.2530   33.0450   38.8350 C   0  0  1  0  0  0  0  0  0  0  0  0
   41.1750   32.5810   37.6990 C   0  0  0  0  0  0  0  0  0  0  0  0
   42.4350   32.9740   38.0140 O   0  0  0  0  0  0  0  0  0  0  0  0
   42.4360   33.6330   39.2320 C   0  0  0  0  0  0  0  0  0  0  0  0
   41.4420   31.9480   40.1990 H   0  0  0  0  0  0  0  0  0  0  0  0
   39.8970   34.0710   38.6430 H   0  0  0  0  0  0  0  0  0  0  0  0
   41.0420   31.5100   37.4770 H   0  0  0  0  0  0  0  0  0  0  0  0
   40.8350   33.1470   36.8040 H   0  0  0  0  0  0  0  0  0  0  0  0
   43.3670   33.4040   39.7950 H   0  0  0  0  0  0  0  0  0  0  0  0
   42.2470   34.6950   39.0770 H   0  0  0  0  0  0  0  0  0  0  0  0
   40.8440   33.7220   41.0710 O   0  0  0  0  0  0  0  0  0  0  0  0
   39.8810   33.8790   41.1090 H   0  0  0  0  0  0  0  0  0  0  0  0
   36.9840   30.4240   41.3940 O   0  0  0  0  0  0  0  0  0  0  0  0
   39.1270   30.0120   42.9140 O   0  0  0  0  0  0  0  0  0  0  0  0
   37.8460   29.3600   42.4240 P   0  0  1  0  0  0  0  0  0  0  0  0
   36.8440   28.9040   43.6790 O   0  0  0  0  0  0  0  0  0  0  0  0
   36.2810   28.1430   43.3960 H   0  0  0  0  0  0  0  0  0  0  0  0
   38.2510   28.0100   41.4640 O   0  0  0  0  0  0  0  0  0  0  0  0
   37.3110   26.9950   41.6240 C   0  0  0  0  0  3  0  0  0  0  0  0
   36.6670   26.7120   40.2940 C   0  0  0  0  0  2  0  0  0  0  0  0
   36.9280   25.3210   39.7770 C   0  0  0  0  0  2  0  0  0  0  0  0
   36.5720   24.2530   40.7590 C   0  0  0  0  0  2  0  0  0  0  0  0
   36.8890   24.6590   42.1790 C   0  0  0  0  0  2  0  0  0  0  0  0
   37.9620   25.7220   42.1240 C   0  0  0  0  0  2  0  0  0  0  0  0
  1  2  1  0  0  0  0
  2  3  2  0  0  0  0
  3 22  1  0  0  0  0
  4  3  1  0  0  0  0
  5  4  2  0  0  0  0
  6  1  2  0  0  0  0
  6  5  1  0  0  0  0
  7  1  1  0  0  0  0
  8  2  1  0  0  0  0
  9 14  1  1  0  0  0
  9 20  1  0  0  0  0
 10 15  1  6  0  0  0
 10  5  1  0  0  0  0
 10  9  1  0  0  0  0
 11 12  1  0  0  0  0
 11 10  1  0  0  0  0
 12 13  1  0  0  0  0
 13 18  1  0  0  0  0
 13  9  1  0  0  0  0
 16 11  1  0  0  0  0
 17 11  1  0  0  0  0
 19 13  1  0  0  0  0
 20 21  1  0  0  0  0
 22 24  1  0  0  0  0
 24 23  2  1  0  0  0
 24 25  1  0  0  0  0
 26 25  1  0  0  0  0
 27 28  1  0  0  0  0
 27 24  1  0  0  0  0
 28 33  1  0  0  0  0
 29 28  1  0  0  0  0
 30 29  1  0  0  0  0
 30 31  1  0  0  0  0
 31 32  1  0  0  0  0
 33 32  1  0  0  0  0
M  END
>  <minimizedAffinity>
-5.55696154

$$$$

 OpenBabel03252507103D

 33 35  0  0  1  0  0  0  0  0999 V2000
   38.0200   31.6060   37.9040 C   0  0  0  0  0  0  0  0  0  0  0  0
   37.7690   31.5060   39.2830 C   0  0  0  0  0  0  0  0  0  0  0  0
   36.8320   30.5580   39.6900 C   0  0  0  0  0  0  0  0  0  0  0  0
   36.2140   29.7870   38.7630 N   0  0  0  0  0  0  0  0  0  0  0  0
   36.4760   29.9070   37.4570 C   0  0  0  0  0  0  0  0  0  0  0  0
   37.3830   30.8190   37.0210 N   0  0  0  0  0  0  0  0  0  0  0  0
   38.7380   32.3250   37.5410 H   0  0  0  0  0  0  0  0  0  0  0  0
   38.3200   32.1710   39.9290 H   0  0  0  0  0  0  0  0  0  0  0  0
   36.7570   28.2180   35.6220 C   0  0  1  0  0  0  0  0  0  0  0  0
   35.8350   29.1090   36.3990 C   0  0  1  0  0  0  0  0  0  0  0  0
   34.9270   28.0390   37.0210 C   0  0  0  0  0  0  0  0  0  0  0  0
   34.9150   26.9770   36.1760 O   0  0  0  0  0  0  0  0  0  0  0  0
   35.7200   27.2350   35.0790 C   0  0  0  0  0  0  0  0  0  0  0  0
   37.4140   27.7020   36.3740 H   0  0  0  0  0  0  0  0  0  0  0  0
   35.2530   29.7560   35.7200 H   0  0  0  0  0  0  0  0  0  0  0  0
   35.2040   27.8250   38.0660 H   0  0  0  0  0  0  0  0  0  0  0  0
   33.9130   28.4980   37.0380 H   0  0  0  0  0  0  0  0  0  0  0  0
   36.2320   26.3050   34.7500 H   0  0  0  0  0  0  0  0  0  0  0  0
   35.1400   27.7360   34.3050 H   0  0  0  0  0  0  0  0  0  0  0  0
   37.4870   28.8570   34.6630 O   0  0  0  0  0  0  0  0  0  0  0  0
   37.5470   29.8220   34.7980 H   0  0  0  0  0  0  0  0  0  0  0  0
   36.6000   30.4760   41.0520 O   0  0  0  0  0  0  0  0  0  0  0  0
   38.9170   30.3530   42.3520 O   0  0  0  0  0  0  0  0  0  0  0  0
   37.6560   29.5640   42.0470 P   0  0  1  0  0  0  0  0  0  0  0  0
   36.8330   29.1200   43.4310 O   0  0  0  0  0  0  0  0  0  0  0  0
   36.3150   28.2960   43.2590 H   0  0  0  0  0  0  0  0  0  0  0  0
   38.0790   28.1860   41.1360 O   0  0  0  0  0  0  0  0  0  0  0  0
   37.2070   27.1340   41.4050 C   0  0  0  0  0  3  0  0  0  0  0  0
   36.6050   26.6570   40.1120 C   0  0  0  0  0  2  0  0  0  0  0  0
   36.9670   25.2370   39.7610 C   0  0  0  0  0  2  0  0  0  0  0  0
   36.6680   24.2660   40.8570 C   0  0  0  0  0  2  0  0  0  0  0  0
   36.9350   24.8540   42.2230 C   0  0  0  0  0  2  0  0  0  0  0  0
   37.9350   25.9750   42.0540 C   0  0  0  0  0  2  0  0  0  0  0  0
  1  2  1  0  0  0  0
  2  3  2  0  0  0  0
  2  8  1  0  0  0  0
  3 22  1  0  0  0  0
  4  3  1  0  0  0  0
  5  4  2  0  0  0  0
  6  5  1  0  0  0  0
  6  1  2  0  0  0  0
  7  1  1  0  0  0  0
  9 14  1  1  0  0  0
  9 10  1  0  0  0  0
 10 15  1  6  0  0  0
 10 11  1  0  0  0  0
 10  5  1  0  0  0  0
 11 17  1  0  0  0  0
 11 16  1  0  0  0  0
 12 11  1  0  0  0  0
 13  9  1  0  0  0  0
 13 12  1  0  0  0  0
 18 13  1  0  0  0  0
 19 13  1  0  0  0  0
 20 21  1  0  0  0  0
 20  9  1  0  0  0  0
 22 24  1  0  0  0  0
 24 23  2  1  0  0  0
 24 25  1  0  0  0  0
 26 25  1  0  0  0  0
 27 28  1  0  0  0  0
 27 24  1  0  0  0  0
 28 33  1  0  0  0  0
 29 28  1  0  0  0  0
 30 29  1  0  0  0  0
 30 31  1  0  0  0  0
 31 32  1  0  0  0  0
 33 32  1  0  0  0  0
M  END
>  <minimizedAffinity>
-5.53275251

$$$$

 OpenBabel03252507103D

 33 35  0  0  1  0  0  0  0  0999 V2000
   38.5660   24.0160   42.4810 C   0  0  0  0  0  0  0  0  0  0  0  0
   37.6120   24.7610   41.7670 C   0  0  0  0  0  0  0  0  0  0  0  0
   37.8300   26.1340   41.6610 C   0  0  0  0  0  0  0  0  0  0  0  0
   38.9260   26.6840   42.2360 N   0  0  0  0  0  0  0  0  0  0  0  0
   39.8160   25.9460   42.9090 C   0  0  0  0  0  0  0  0  0  0  0  0
   39.6380   24.6050   43.0340 N   0  0  0  0  0  0  0  0  0  0  0  0
   38.4400   22.9500   42.5890 H   0  0  0  0  0  0  0  0  0  0  0  0
   36.7780   24.2180   41.3520 H   0  0  0  0  0  0  0  0  0  0  0  0
   42.3220   25.9640   43.0290 C   0  0  1  0  0  0  0  0  0  0  0  0
   41.0210   26.4800   43.5650 C   0  0  1  0  0  0  0  0  0  0  0  0
   41.1900   27.9680   43.2260 C   0  0  0  0  0  0  0  0  0  0  0  0
   42.5210   28.2350   43.2300 O   0  0  0  0  0  0  0  0  0  0  0  0
   43.2350   27.0850   43.5250 C   0  0  0  0  0  0  0  0  0  0  0  0
   42.2460   26.0020   41.9080 H   0  0  0  0  0  0  0  0  0  0  0  0
   40.9660   26.3410   44.6570 H   0  0  0  0  0  0  0  0  0  0  0  0
   40.6430   28.2430   42.3100 H   0  0  0  0  0  0  0  0  0  0  0  0
   40.7110   28.5100   44.0710 H   0  0  0  0  0  0  0  0  0  0  0  0
   44.1870   27.0650   42.9520 H   0  0  0  0  0  0  0  0  0  0  0  0
   43.3480   26.9870   44.6030 H   0  0  0  0  0  0  0  0  0  0  0  0
   42.6640   24.7200   43.4720 O   0  0  0  0  0  0  0  0  0  0  0  0
   41.9080   24.2110   43.8250 H   0  0  0  0  0  0  0  0  0  0  0  0
   36.8790   26.8500   40.9540 O   0  0  0  0  0  0  0  0  0  0  0  0
   35.1970   28.9090   40.8900 O   0  0  0  0  0  0  0  0  0  0  0  0
   36.5890   28.4950   41.3350 P   0  0  1  0  0  0  0  0  0  0  0  0
   36.8240   28.7120   42.9740 O   0  0  0  0  0  0  0  0  0  0  0  0
   37.7840   28.8600   43.1550 H   0  0  0  0  0  0  0  0  0  0  0  0
   37.7360   29.3880   40.4440 O   0  0  0  0  0  0  0  0  0  0  0  0
   37.5890   30.7520   40.6840 C   0  0  0  0  0  3  0  0  0  0  0  0
   38.8480   31.2750   41.3180 C   0  0  0  0  0  2  0  0  0  0  0  0
   39.5730   32.2950   40.4790 C   0  0  0  0  0  2  0  0  0  0  0  0
   38.7020   33.4310   40.0530 C   0  0  0  0  0  2  0  0  0  0  0  0
   37.2940   32.9800   39.7400 C   0  0  0  0  0  2  0  0  0  0  0  0
   37.3490   31.5100   39.3940 C   0  0  0  0  0  2  0  0  0  0  0  0
  1  7  1  0  0  0  0
  1  6  1  0  0  0  0
  2  1  2  0  0  0  0
  3  2  1  0  0  0  0
  3  4  2  0  0  0  0
  4  5  1  0  0  0  0
  5  6  2  0  0  0  0
  5 10  1  0  0  0  0
  8  2  1  0  0  0  0
  9 14  1  6  0  0  0
  9 20  1  0  0  0  0
  9 13  1  0  0  0  0
  9 10  1  0  0  0  0
 10 15  1  1  0  0  0
 11 12  1  0  0  0  0
 11 10  1  0  0  0  0
 11 17  1  0  0  0  0
 12 13  1  0  0  0  0
 13 19  1  0  0  0  0
 16 11  1  0  0  0  0
 18 13  1  0  0  0  0
 20 21  1  0  0  0  0
 22 24  1  0  0  0  0
 22  3  1  0  0  0  0
 24 23  2  6  0  0  0
 24 25  1  0  0  0  0
 25 26  1  0  0  0  0
 27 28  1  0  0  0  0
 27 24  1  0  0  0  0
 28 29  1  0  0  0  0
 30 29  1  0  0  0  0
 31 30  1  0  0  0  0
 32 31  1  0  0  0  0
 33 32  1  0  0  0  0
 33 28  1  0  0  0  0
M  END
>  <minimizedAffinity>
-5.45499659

$$$$

 OpenBabel03252507103D

 33 35  0  0  1  0  0  0  0  0999 V2000
   36.9000   30.4090   38.0180 C   0  0  0  0  0  0  0  0  0  0  0  0
   36.3760   29.7760   39.1590 C   0  0  0  0  0  0  0  0  0  0  0  0
   36.7760   30.2720   40.3990 C   0  0  0  0  0  0  0  0  0  0  0  0
   37.6350   31.3190   40.4560 N   0  0  0  0  0  0  0  0  0  0  0  0
   38.1150   31.8990   39.3500 C   0  0  0  0  0  0  0  0  0  0  0  0
   37.7480   31.4440   38.1240 N   0  0  0  0  0  0  0  0  0  0  0  0
   36.6180   30.0610   37.0370 H   0  0  0  0  0  0  0  0  0  0  0  0
   35.7010   28.9520   38.9950 H   0  0  0  0  0  0  0  0  0  0  0  0
   39.6070   33.4150   40.6820 C   0  0  1  0  0  0  0  0  0  0  0  0
   39.0560   33.0310   39.3410 C   0  0  1  0  0  0  0  0  0  0  0  0
   40.3630   32.6250   38.6460 C   0  0  0  0  0  0  0  0  0  0  0  0
   41.3650   33.3420   39.2170 O   0  0  0  0  0  0  0  0  0  0  0  0
   40.8550   34.1610   40.2100 C   0  0  0  0  0  0  0  0  0  0  0  0
   39.9060   32.4590   41.1920 H   0  0  0  0  0  0  0  0  0  0  0  0
   38.6110   33.9050   38.8370 H   0  0  0  0  0  0  0  0  0  0  0  0
   40.4960   31.5310   38.6330 H   0  0  0  0  0  0  0  0  0  0  0  0
   40.2410   32.9530   37.5910 H   0  0  0  0  0  0  0  0  0  0  0  0
   41.5760   34.2410   41.0520 H   0  0  0  0  0  0  0  0  0  0  0  0
   40.5470   35.1130   39.7810 H   0  0  0  0  0  0  0  0  0  0  0  0
   38.7600   34.1580   41.4500 O   0  0  0  0  0  0  0  0  0  0  0  0
   37.8260   34.0920   41.1750 H   0  0  0  0  0  0  0  0  0  0  0  0
   36.2490   29.6360   41.5090 O   0  0  0  0  0  0  0  0  0  0  0  0
   38.3300   29.5140   43.1620 O   0  0  0  0  0  0  0  0  0  0  0  0
   37.2570   28.6660   42.4990 P   0  0  1  0  0  0  0  0  0  0  0  0
   36.3020   27.8660   43.6110 O   0  0  0  0  0  0  0  0  0  0  0  0
   35.9400   27.0410   43.2050 H   0  0  0  0  0  0  0  0  0  0  0  0
   38.0100   27.5540   41.4490 O   0  0  0  0  0  0  0  0  0  0  0  0
   37.3340   26.3360   41.4580 C   0  0  0  0  0  3  0  0  0  0  0  0
   36.6890   26.1250   40.1160 C   0  0  0  0  0  2  0  0  0  0  0  0
   37.2230   24.9330   39.3660 C   0  0  0  0  0  2  0  0  0  0  0  0
   37.1790   23.6700   40.1620 C   0  0  0  0  0  2  0  0  0  0  0  0
   37.4850   23.9090   41.6220 C   0  0  0  0  0  2  0  0  0  0  0  0
   38.2850   25.1870   41.7210 C   0  0  0  0  0  2  0  0  0  0  0  0
  1  6  2  0  0  0  0
  1  2  1  0  0  0  0
  2  3  2  0  0  0  0
  3  4  1  0  0  0  0
  3 22  1  0  0  0  0
  5  4  2  0  0  0  0
  6  5  1  0  0  0  0
  7  1  1  0  0  0  0
  8  2  1  0  0  0  0
  9 14  1  1  0  0  0
  9 20  1  0  0  0  0
 10 15  1  6  0  0  0
 10  5  1  0  0  0  0
 10  9  1  0  0  0  0
 11 12  1  0  0  0  0
 11 10  1  0  0  0  0
 12 13  1  0  0  0  0
 13  9  1  0  0  0  0
 13 18  1  0  0  0  0
 16 11  1  0  0  0  0
 17 11  1  0  0  0  0
 19 13  1  0  0  0  0
 21 20  1  0  0  0  0
 22 24  1  0  0  0  0
 24 23  2  1  0  0  0
 24 25  1  0  0  0  0
 26 25  1  0  0  0  0
 27 28  1  0  0  0  0
 27 24  1  0  0  0  0
 28 33  1  0  0  0  0
 29 28  1  0  0  0  0
 30 29  1  0  0  0  0
 30 31  1  0  0  0  0
 31 32  1  0  0  0  0
 32 33  1  0  0  0  0
M  END
>  <minimizedAffinity>
-5.43458557

$$$$

 OpenBabel03252507103D

 33 35  0  0  1  0  0  0  0  0999 V2000
   40.9340   27.9330   39.6550 C   0  0  0  0  0  0  0  0  0  0  0  0
   40.7870   29.2010   39.0690 C   0  0  0  0  0  0  0  0  0  0  0  0
   39.8160   30.0420   39.6110 C   0  0  0  0  0  0  0  0  0  0  0  0
   39.0680   29.6130   40.6560 N   0  0  0  0  0  0  0  0  0  0  0  0
   39.2330   28.3980   41.1920 C   0  0  0  0  0  0  0  0  0  0  0  0
   40.1700   27.5520   40.6920 N   0  0  0  0  0  0  0  0  0  0  0  0
   41.6740   27.2480   39.2700 H   0  0  0  0  0  0  0  0  0  0  0  0
   41.4360   29.4360   38.2410 H   0  0  0  0  0  0  0  0  0  0  0  0
   37.0450   28.3800   42.4200 C   0  0  1  0  0  0  0  0  0  0  0  0
   38.4510   27.8680   42.3200 C   0  0  1  0  0  0  0  0  0  0  0  0
   38.1530   26.3780   42.1010 C   0  0  0  0  0  0  0  0  0  0  0  0
   36.9650   26.1100   42.7010 O   0  0  0  0  0  0  0  0  0  0  0  0
   36.4550   27.2620   43.2770 C   0  0  0  0  0  0  0  0  0  0  0  0
   36.6120   28.3350   41.3840 H   0  0  0  0  0  0  0  0  0  0  0  0
   38.9870   28.0140   43.2720 H   0  0  0  0  0  0  0  0  0  0  0  0
   38.2340   26.0970   41.0390 H   0  0  0  0  0  0  0  0  0  0  0  0
   38.9610   25.8410   42.6460 H   0  0  0  0  0  0  0  0  0  0  0  0
   35.3460   27.2770   43.1910 H   0  0  0  0  0  0  0  0  0  0  0  0
   36.8350   27.3660   44.2920 H   0  0  0  0  0  0  0  0  0  0  0  0
   36.9340   29.6270   42.9620 O   0  0  0  0  0  0  0  0  0  0  0  0
   37.7660   30.1380   42.9360 H   0  0  0  0  0  0  0  0  0  0  0  0
   39.6870   31.2860   39.0190 O   0  0  0  0  0  0  0  0  0  0  0  0
   37.3370   32.3830   38.4270 O   0  0  0  0  0  0  0  0  0  0  0  0
   38.4680   31.5530   37.8450 P   0  0  1  0  0  0  0  0  0  0  0  0
   39.1640   32.2750   36.5090 O   0  0  0  0  0  0  0  0  0  0  0  0
   39.5520   31.5820   35.9210 H   0  0  0  0  0  0  0  0  0  0  0  0
   37.8640   30.0110   37.4420 O   0  0  0  0  0  0  0  0  0  0  0  0
   36.4870   29.9540   37.6470 C   0  0  0  0  0  3  0  0  0  0  0  0
   35.8290   29.4270   36.4020 C   0  0  0  0  0  2  0  0  0  0  0  0
   35.1250   28.1090   36.6000 C   0  0  0  0  0  2  0  0  0  0  0  0
   34.1480   28.1280   37.7290 C   0  0  0  0  0  2  0  0  0  0  0  0
   34.6380   28.9630   38.8890 C   0  0  0  0  0  2  0  0  0  0  0  0
   36.1450   29.0330   38.8010 C   0  0  0  0  0  2  0  0  0  0  0  0
  1  6  1  0  0  0  0
  2  3  1  0  0  0  0
  2  1  2  0  0  0  0
  3  4  2  0  0  0  0
  4  5  1  0  0  0  0
  5 10  1  0  0  0  0
  6  5  2  0  0  0  0
  7  1  1  0  0  0  0
  8  2  1  0  0  0  0
  9 14  1  6  0  0  0
  9 20  1  0  0  0  0
  9 13  1  0  0  0  0
 10  9  1  0  0  0  0
 10 15  1  1  0  0  0
 11 10  1  0  0  0  0
 11 17  1  0  0  0  0
 11 12  1  0  0  0  0
 12 13  1  0  0  0  0
 13 19  1  0  0  0  0
 16 11  1  0  0  0  0
 18 13  1  0  0  0  0
 21 20  1  0  0  0  0
 22  3  1  0  0  0  0
 24 23  2  1  0  0  0
 24 22  1  0  0  0  0
 25 24  1  0  0  0  0
 26 25  1  0  0  0  0
 27 28  1  0  0  0  0
 27 24  1  0  0  0  0
 28 33  1  0  0  0  0
 29 30  1  0  0  0  0
 29 28  1  0  0  0  0
 30 31  1  0  0  0  0
 31 32  1  0  0  0  0
 33 32  1  0  0  0  0
M  END
>  <minimizedAffinity>
-5.30602884

$$$$

 OpenBabel03252507103D

 33 35  0  0  1  0  0  0  0  0999 V2000
   35.7960   28.3060   38.7990 C   0  0  0  0  0  0  0  0  0  0  0  0
   35.8580   29.6510   39.2020 C   0  0  0  0  0  0  0  0  0  0  0  0
   36.3810   29.9100   40.4680 C   0  0  0  0  0  0  0  0  0  0  0  0
   36.7970   28.8800   41.2440 N   0  0  0  0  0  0  0  0  0  0  0  0
   36.7250   27.6100   40.8300 C   0  0  0  0  0  0  0  0  0  0  0  0
   36.2220   27.3180   39.6020 N   0  0  0  0  0  0  0  0  0  0  0  0
   35.4000   28.0570   37.8270 H   0  0  0  0  0  0  0  0  0  0  0  0
   35.4980   30.3880   38.5030 H   0  0  0  0  0  0  0  0  0  0  0  0
   38.1610   25.5560   40.9630 C   0  0  1  0  0  0  0  0  0  0  0  0
   37.1510   26.4460   41.6240 C   0  0  1  0  0  0  0  0  0  0  0  0
   37.9810   26.9050   42.8300 C   0  0  0  0  0  0  0  0  0  0  0  0
   38.8700   25.9180   43.1090 O   0  0  0  0  0  0  0  0  0  0  0  0
   38.7160   24.8730   42.2120 C   0  0  0  0  0  0  0  0  0  0  0  0
   38.9420   26.2310   40.5190 H   0  0  0  0  0  0  0  0  0  0  0  0
   36.2780   25.8620   41.9610 H   0  0  0  0  0  0  0  0  0  0  0  0
   38.4050   27.9100   42.6760 H   0  0  0  0  0  0  0  0  0  0  0  0
   37.2530   26.9810   43.6680 H   0  0  0  0  0  0  0  0  0  0  0  0
   39.7020   24.4190   41.9760 H   0  0  0  0  0  0  0  0  0  0  0  0
   37.9680   24.1750   42.5860 H   0  0  0  0  0  0  0  0  0  0  0  0
   37.6420   24.7020   40.0350 O   0  0  0  0  0  0  0  0  0  0  0  0
   36.7630   24.9730   39.7050 H   0  0  0  0  0  0  0  0  0  0  0  0
   36.4330   31.2400   40.8460 O   0  0  0  0  0  0  0  0  0  0  0  0
   38.2870   31.6320   38.9790 O   0  0  0  0  0  0  0  0  0  0  0  0
   37.6460   32.2660   40.2010 P   0  0  1  0  0  0  0  0  0  0  0  0
   36.9630   33.7520   39.8640 O   0  0  0  0  0  0  0  0  0  0  0  0
   36.9550   34.3070   40.6810 H   0  0  0  0  0  0  0  0  0  0  0  0
   38.8260   32.4150   41.4230 O   0  0  0  0  0  0  0  0  0  0  0  0
   39.6960   31.3270   41.3990 C   0  0  0  0  0  3  0  0  0  0  0  0
   41.1080   31.8330   41.2980 C   0  0  0  0  0  2  0  0  0  0  0  0
   41.9620   31.4930   42.4920 C   0  0  0  0  0  2  0  0  0  0  0  0
   41.9600   30.0360   42.8210 C   0  0  0  0  0  2  0  0  0  0  0  0
   40.6070   29.4040   42.5890 C   0  0  0  0  0  2  0  0  0  0  0  0
   39.5690   30.5000   42.6630 C   0  0  0  0  0  2  0  0  0  0  0  0
  1  2  2  0  0  0  0
  1  6  1  0  0  0  0
  2  3  1  0  0  0  0
  3 22  1  0  0  0  0
  3  4  2  0  0  0  0
  5  4  1  0  0  0  0
  5 10  1  0  0  0  0
  6  5  2  0  0  0  0
  7  1  1  0  0  0  0
  8  2  1  0  0  0  0
  9 14  1  6  0  0  0
  9 10  1  0  0  0  0
  9 13  1  0  0  0  0
 10 15  1  1  0  0  0
 10 11  1  0  0  0  0
 11 12  1  0  0  0  0
 11 17  1  0  0  0  0
 13 19  1  0  0  0  0
 13 12  1  0  0  0  0
 16 11  1  0  0  0  0
 18 13  1  0  0  0  0
 20  9  1  0  0  0  0
 21 20  1  0  0  0  0
 24 23  2  6  0  0  0
 24 22  1  0  0  0  0
 24 27  1  0  0  0  0
 25 24  1  0  0  0  0
 25 26  1  0  0  0  0
 28 27  1  0  0  0  0
 28 33  1  0  0  0  0
 29 28  1  0  0  0  0
 29 30  1  0  0  0  0
 30 31  1  0  0  0  0
 32 33  1  0  0  0  0
 32 31  1  0  0  0  0
M  END
>  <minimizedAffinity>
-5.2213192

$$$$

 OpenBabel03252507103D

 33 35  0  0  1  0  0  0  0  0999 V2000
   36.8710   26.6260   42.4400 C   0  0  0  0  0  0  0  0  0  0  0  0
   36.6120   27.9770   42.1530 C   0  0  0  0  0  0  0  0  0  0  0  0
   37.6480   28.8830   42.3740 C   0  0  0  0  0  0  0  0  0  0  0  0
   38.8360   28.4370   42.8480 N   0  0  0  0  0  0  0  0  0  0  0  0
   39.0520   27.1440   43.1120 C   0  0  0  0  0  0  0  0  0  0  0  0
   38.0660   26.2310   42.9080 N   0  0  0  0  0  0  0  0  0  0  0  0
   36.1000   25.8890   42.2840 H   0  0  0  0  0  0  0  0  0  0  0  0
   35.6290   28.2180   41.7800 H   0  0  0  0  0  0  0  0  0  0  0  0
   40.8450   25.4020   42.9000 C   0  0  1  0  0  0  0  0  0  0  0  0
   40.3130   26.5950   43.6360 C   0  0  1  0  0  0  0  0  0  0  0  0
   41.4640   27.5770   43.3750 C   0  0  0  0  0  0  0  0  0  0  0  0
   42.5950   26.8420   43.2200 O   0  0  0  0  0  0  0  0  0  0  0  0
   42.3050   25.4930   43.3430 C   0  0  0  0  0  0  0  0  0  0  0  0
   40.7640   25.6370   41.8050 H   0  0  0  0  0  0  0  0  0  0  0  0
   40.2290   26.3830   44.7150 H   0  0  0  0  0  0  0  0  0  0  0  0
   41.2260   28.2780   42.5590 H   0  0  0  0  0  0  0  0  0  0  0  0
   41.5480   28.1750   44.3090 H   0  0  0  0  0  0  0  0  0  0  0  0
   42.9380   24.8980   42.6490 H   0  0  0  0  0  0  0  0  0  0  0  0
   42.3690   25.1960   44.3890 H   0  0  0  0  0  0  0  0  0  0  0  0
   40.2320   24.2240   43.2140 O   0  0  0  0  0  0  0  0  0  0  0  0
   39.3560   24.3400   43.6290 H   0  0  0  0  0  0  0  0  0  0  0  0
   37.3720   30.2080   42.0840 O   0  0  0  0  0  0  0  0  0  0  0  0
   38.5110   32.3490   40.9910 O   0  0  0  0  0  0  0  0  0  0  0  0
   38.0440   30.9360   40.6860 P   0  0  1  0  0  0  0  0  0  0  0  0
   39.2810   29.9660   40.1220 O   0  0  0  0  0  0  0  0  0  0  0  0
   38.9080   29.2530   39.5480 H   0  0  0  0  0  0  0  0  0  0  0  0
   36.7780   31.0110   39.5470 O   0  0  0  0  0  0  0  0  0  0  0  0
   36.8180   29.9100   38.6950 C   0  0  0  0  0  3  0  0  0  0  0  0
   35.5190   29.1610   38.8040 C   0  0  0  0  0  2  0  0  0  0  0  0
   34.7240   29.1370   37.5240 C   0  0  0  0  0  2  0  0  0  0  0  0
   35.5080   28.6400   36.3540 C   0  0  0  0  0  2  0  0  0  0  0  0
   36.9470   29.0960   36.4010 C   0  0  0  0  0  2  0  0  0  0  0  0
   37.0070   30.3410   37.2550 C   0  0  0  0  0  2  0  0  0  0  0  0
  1  6  1  0  0  0  0
  2  3  1  0  0  0  0
  2  1  2  0  0  0  0
  3  4  2  0  0  0  0
  4  5  1  0  0  0  0
  5 10  1  0  0  0  0
  6  5  2  0  0  0  0
  7  1  1  0  0  0  0
  8  2  1  0  0  0  0
  9 14  1  6  0  0  0
  9 20  1  0  0  0  0
  9 13  1  0  0  0  0
  9 10  1  0  0  0  0
 10 15  1  1  0  0  0
 11 10  1  0  0  0  0
 11 17  1  0  0  0  0
 12 13  1  0  0  0  0
 12 11  1  0  0  0  0
 13 19  1  0  0  0  0
 16 11  1  0  0  0  0
 18 13  1  0  0  0  0
 20 21  1  0  0  0  0
 22  3  1  0  0  0  0
 24 23  2  1  0  0  0
 24 22  1  0  0  0  0
 25 24  1  0  0  0  0
 26 25  1  0  0  0  0
 27 24  1  0  0  0  0
 28 29  1  0  0  0  0
 28 27  1  0  0  0  0
 30 29  1  0  0  0  0
 31 32  1  0  0  0  0
 31 30  1  0  0  0  0
 32 33  1  0  0  0  0
 33 28  1  0  0  0  0
M  END
>  <minimizedAffinity>
-5.18594933

$$$$
