
     RDKit          3D

 30 31  0  0  0  0  0  0  0  0999 V2000
   44.9148   35.1057   44.9432 C   0  0  0  0  0  0  0  0  0  0  0  0
   45.8265   34.7551   43.9485 C   0  0  0  0  0  0  0  0  0  0  0  0
   46.6824   33.6977   44.2188 C   0  0  0  0  0  0  0  0  0  0  0  0
   46.6051   33.0593   45.4078 N   0  0  0  0  0  0  0  0  0  0  0  0
   45.7088   33.4327   46.3383 C   0  0  0  0  0  0  0  0  0  0  0  0
   44.8536   34.4533   46.1276 N   0  0  0  0  0  0  0  0  0  0  0  0
   45.7967   35.5537   42.6794 C   0  0  0  0  0  0  0  0  0  0  0  0
   45.3491   36.8055   43.0307 F   0  0  0  0  0  0  0  0  0  0  0  0
   44.9101   34.9457   41.8287 F   0  0  0  0  0  0  0  0  0  0  0  0
   47.0755   35.5490   42.1553 F   0  0  0  0  0  0  0  0  0  0  0  0
   45.6234   32.7772   47.5696 O   0  0  0  0  0  0  0  0  0  0  0  0
   44.2201   35.9163   44.8026 H   0  0  0  0  0  0  0  0  0  0  0  0
   47.3775   33.4447   43.4367 H   0  0  0  0  0  0  0  0  0  0  0  0
   46.4690   31.6929   47.9022 C   0  0  0  0  0  0  0  0  0  0  0  0
   46.1359   31.1606   49.2661 C   0  0  0  0  0  0  0  0  0  0  0  0
   47.0867   31.5865   50.3374 C   0  0  0  0  0  0  0  0  0  0  0  0
   48.5297   31.3376   50.0023 C   0  0  0  0  0  0  0  0  0  0  0  0
   48.8186   31.2660   48.5283 C   0  0  0  0  0  0  0  0  0  0  0  0
   47.8919   32.2045   47.8142 C   0  0  0  0  0  0  0  0  0  0  0  0
   46.3523   30.8439   47.1965 H   0  0  0  0  0  0  0  0  0  0  0  0
   46.0369   30.0392   49.2877 H   0  0  0  0  0  0  0  0  0  0  0  0
   45.1296   31.5470   49.5423 H   0  0  0  0  0  0  0  0  0  0  0  0
   46.8473   30.9626   51.2397 H   0  0  0  0  0  0  0  0  0  0  0  0
   46.8901   32.6348   50.5840 H   0  0  0  0  0  0  0  0  0  0  0  0
   49.1136   32.1877   50.4193 H   0  0  0  0  0  0  0  0  0  0  0  0
   48.9244   30.4132   50.4956 H   0  0  0  0  0  0  0  0  0  0  0  0
   48.7119   30.2388   48.1653 H   0  0  0  0  0  0  0  0  0  0  0  0
   49.8662   31.6421   48.3475 H   0  0  0  0  0  0  0  0  0  0  0  0
   48.1714   32.3351   46.7553 H   0  0  0  0  0  0  0  0  0  0  0  0
   47.8760   33.1844   48.3759 H   0  0  0  0  0  0  0  0  0  0  0  0
  1  6  2  0
  2  3  2  0
  2  1  1  0
  3  4  1  0
  4  5  2  0
  5 11  1  0
  6  5  1  0
  7  8  1  0
  7  2  1  0
  9  7  1  0
 10  7  1  0
  1 12  1  0
  3 13  1  0
 14 15  1  0
 15 16  1  0
 16 17  1  0
 17 18  1  0
 18 19  1  0
 19 14  1  0
 14 20  1  0
 15 21  1  0
 15 22  1  0
 16 23  1  0
 16 24  1  0
 17 25  1  0
 17 26  1  0
 18 27  1  0
 18 28  1  0
 19 29  1  0
 19 30  1  0
 11 14  1  0
M  ISO  2  12  14  13  14
M  END
>  <DihAtoms>  (1) 
4,10,13,14

>  <DihDeg>  (1) 
-118.56017576723124

$$$$
