
 OpenBabel03252507163D

 26 28  0  0  0  0  0  0  0  0999 V2000
   45.1050   35.9300   43.0690 C   0  0  0  0  0  0  0  0  0  0  0  0
   45.6600   34.6350   42.9200 C   0  0  0  0  0  0  0  0  0  0  0  0
   45.6740   33.8350   44.0610 C   0  0  0  0  0  0  0  0  0  0  0  0
   45.1790   34.2990   45.2240 N   0  0  0  0  0  0  0  0  0  0  0  0
   44.6490   35.5610   45.3270 C   0  0  0  0  0  0  0  0  0  0  0  0
   44.6280   36.3370   44.2500 N   0  0  0  0  0  0  0  0  0  0  0  0
   45.0730   36.5990   42.1960 H   0  0  0  0  0  0  0  0  0  0  0  0
   44.2930   35.7830   46.3230 H   0  0  0  0  0  0  0  0  0  0  0  0
   46.2400   32.4940   43.9390 C   0  0  0  0  0  0  0  0  0  0  0  0
   45.4090   31.4050   43.8210 C   0  0  0  0  0  0  0  0  0  0  0  0
   45.9700   30.1530   43.7070 C   0  0  0  0  0  0  0  0  0  0  0  0
   47.3400   29.9300   43.7040 C   0  0  0  0  0  0  0  0  0  0  0  0
   48.1210   31.0750   43.8260 C   0  0  0  0  0  0  0  0  0  0  0  0
   47.5550   32.2850   43.9360 N   0  0  0  0  0  0  0  0  0  0  0  0
   44.3120   31.4990   43.8150 H   0  0  0  0  0  0  0  0  0  0  0  0
   45.3380   29.2610   43.6120 H   0  0  0  0  0  0  0  0  0  0  0  0
   47.7940   28.9560   43.6160 H   0  0  0  0  0  0  0  0  0  0  0  0
   49.2040   31.0040   43.8340 H   0  0  0  0  0  0  0  0  0  0  0  0
   46.1680   34.2000   41.6690 C   0  0  0  0  0  0  0  0  0  0  0  0
   47.2440   34.7440   41.2730 O   0  0  0  0  0  0  0  0  0  0  0  0
   45.6900   33.1940   40.6740 C   0  0  0  0  0  3  0  0  0  0  0  0
   46.3820   33.5080   39.3850 C   0  0  0  0  0  2  0  0  0  0  0  0
   45.7380   32.9100   38.1680 C   0  0  0  0  0  2  0  0  0  0  0  0
   44.2550   33.0890   38.1260 C   0  0  0  0  0  2  0  0  0  0  0  0
   43.6820   33.7780   39.3230 C   0  0  0  0  0  2  0  0  0  0  0  0
   44.2010   33.1910   40.6080 C   0  0  0  0  0  2  0  0  0  0  0  0
  1  6  1  0  0  0  0
  2  1  2  0  0  0  0
  2  3  1  0  0  0  0
  3  4  2  0  0  0  0
  4  5  1  0  0  0  0
  5  8  1  0  0  0  0
  6  5  2  0  0  0  0
  7  1  1  0  0  0  0
  9  3  1  0  0  0  0
 10  9  2  0  0  0  0
 11 10  1  0  0  0  0
 12 11  2  0  0  0  0
 12 13  1  0  0  0  0
 13 18  1  0  0  0  0
 13 14  2  0  0  0  0
 14  9  1  0  0  0  0
 15 10  1  0  0  0  0
 16 11  1  0  0  0  0
 17 12  1  0  0  0  0
 19  2  1  0  0  0  0
 20 19  2  0  0  0  0
 21 19  1  0  0  0  0
 22 21  1  0  0  0  0
 23 22  1  0  0  0  0
 24 23  1  0  0  0  0
 24 25  1  0  0  0  0
 25 26  1  0  0  0  0
 26 21  1  0  0  0  0
M  END
>  <minimizedAffinity>
-4.19398165

>  <minimizedRMSD>
0.796844482

$$$$
