
 OpenBabel03242522513D

 23 24  0  0  0  0  0  0  0  0999 V2000
   45.3970   30.5820   47.6790 O   0  0  0  0  0  0  0  0  0  0  0  0
   45.9030   31.8520   48.3970 P   0  0  2  0  0  0  0  0  0  0  0  0
   45.2730   31.7830   49.9550 O   0  0  0  0  0  0  0  0  0  0  0  0
   45.5950   32.4830   50.5560 H   0  0  0  0  0  0  0  0  0  0  0  0
   45.2980   33.2000   47.5830 O   0  0  0  0  0  0  0  0  0  0  0  0
   47.1220   32.9890   44.4490 C   0  0  0  0  0  0  0  0  0  0  0  0
   46.7060   32.7380   45.7680 C   0  0  0  0  0  0  0  0  0  0  0  0
   45.6710   33.4800   46.2850 C   0  0  0  0  0  0  0  0  0  0  0  0
   45.1060   34.4170   45.4900 N   0  0  0  0  0  0  0  0  0  0  0  0
   45.4970   34.6610   44.2350 C   0  0  0  0  0  0  0  0  0  0  0  0
   46.5180   33.9370   43.7110 N   0  0  0  0  0  0  0  0  0  0  0  0
   47.9240   32.4650   43.9470 H   0  0  0  0  0  0  0  0  0  0  0  0
   47.2800   31.9640   46.2020 H   0  0  0  0  0  0  0  0  0  0  0  0
   44.9260   35.4460   43.7570 H   0  0  0  0  0  0  0  0  0  0  0  0
   47.5570   31.8480   48.3830 O   0  0  0  0  0  0  0  0  0  0  0  0
   48.4670   30.9820   48.8780 C   0  0  0  0  0  0  0  0  0  0  0  0
   49.3060   31.5290   49.6800 O   0  0  0  0  0  0  0  0  0  0  0  0
   49.1120   29.6550   49.0440 C   0  0  0  0  0  3  0  0  0  0  0  0
   50.6120   29.7540   48.9890 C   0  0  0  0  0  2  0  0  0  0  0  0
   51.2190   29.9130   47.6540 C   0  0  0  0  0  2  0  0  0  0  0  0
   50.6190   29.0390   46.5840 C   0  0  0  0  0  2  0  0  0  0  0  0
   49.1310   29.1020   46.6000 C   0  0  0  0  0  2  0  0  0  0  0  0
   48.5520   28.7690   47.9530 C   0  0  0  0  0  2  0  0  0  0  0  0
  2  1  2  6  0  0  0
  2  3  1  0  0  0  0
  3  4  1  0  0  0  0
  5  2  1  0  0  0  0
  6  7  1  0  0  0  0
  7 13  1  0  0  0  0
  7  8  2  0  0  0  0
  8  5  1  0  0  0  0
  9  8  1  0  0  0  0
 10  9  2  0  0  0  0
 11 10  1  0  0  0  0
 11  6  2  0  0  0  0
 12  6  1  0  0  0  0
 14 10  1  0  0  0  0
 15  2  1  0  0  0  0
 15 16  1  0  0  0  0
 16 18  1  0  0  0  0
 16 17  2  0  0  0  0
 19 18  1  0  0  0  0
 20 19  1  0  0  0  0
 21 22  1  0  0  0  0
 21 20  1  0  0  0  0
 22 23  1  0  0  0  0
 23 18  1  0  0  0  0
M  END
>  <minimizedAffinity>
-4.40226841

>  <minimizedRMSD>
0.722340703

$$$$
