
 OpenBabel03252509273D

 27 29  0  0  1  0  0  0  0  0999 V2000
   46.8310   35.1400   41.8570 C   0  0  1  0  0  0  0  0  0  0  0  0
   48.3390   35.5200   41.9140 C   0  0  0  0  0  0  0  0  0  0  0  0
   47.7200   34.2690   41.2100 C   0  0  2  0  0  0  0  0  0  0  0  0
   46.2160   35.8940   41.3190 H   0  0  0  0  0  0  0  0  0  0  0  0
   48.6540   36.2980   41.1900 H   0  0  0  0  0  0  0  0  0  0  0  0
   48.8900   35.3730   42.8360 H   0  0  0  0  0  0  0  0  0  0  0  0
   48.0030   33.3210   41.7640 H   0  0  0  0  0  0  0  0  0  0  0  0
   44.8360   35.0670   45.0340 C   0  0  0  0  0  0  0  0  0  0  0  0
   45.2800   35.5060   43.7540 C   0  0  0  0  0  0  0  0  0  0  0  0
   46.3180   34.8040   43.2360 C   0  0  0  0  0  0  0  0  0  0  0  0
   46.8980   33.7470   43.9050 N   0  0  0  0  0  0  0  0  0  0  0  0
   46.4460   33.3600   45.1250 C   0  0  0  0  0  0  0  0  0  0  0  0
   45.4050   34.0310   45.6870 N   0  0  0  0  0  0  0  0  0  0  0  0
   43.9970   35.6360   45.4500 H   0  0  0  0  0  0  0  0  0  0  0  0
   46.8650   32.5470   45.6790 H   0  0  0  0  0  0  0  0  0  0  0  0
   44.7040   36.6040   43.0730 N   0  0  0  0  0  0  0  0  0  0  0  0
   44.0730   36.5720   42.2250 H   0  0  0  0  0  0  0  0  0  0  0  0
   44.8530   37.6180   43.3570 H   0  0  0  0  0  0  0  0  0  0  0  0
   47.8140   34.1930   39.7000 C   0  0  0  0  0  0  0  0  0  0  0  0
   46.8070   34.3480   39.2550 H   0  0  0  0  0  0  0  0  0  0  0  0
   48.4850   35.0160   39.3400 H   0  0  0  0  0  0  0  0  0  0  0  0
   48.3580   32.8320   39.3080 C   0  0  0  0  0  3  0  0  0  0  0  0
   48.9470   32.8410   37.9430 C   0  0  0  0  0  2  0  0  0  0  0  0
   50.1150   31.9730   37.6860 C   0  0  0  0  0  2  0  0  0  0  0  0
   50.1910   30.8780   38.7310 C   0  0  0  0  0  2  0  0  0  0  0  0
   50.4690   31.6350   40.0170 C   0  0  0  0  0  2  0  0  0  0  0  0
   49.1850   32.3060   40.4090 C   0  0  0  0  0  2  0  0  0  0  0  0
  1  4  1  6  0  0  0
  1  2  1  0  0  0  0
  1 10  1  0  0  0  0
  2  6  1  0  0  0  0
  3  7  1  1  0  0  0
  3  1  1  0  0  0  0
  3  2  1  0  0  0  0
  5  2  1  0  0  0  0
  8 14  1  0  0  0  0
  8 13  1  0  0  0  0
  9  8  2  0  0  0  0
 10  9  1  0  0  0  0
 10 11  2  0  0  0  0
 11 12  1  0  0  0  0
 12 15  1  0  0  0  0
 12 13  2  0  0  0  0
 16 18  1  0  0  0  0
 16  9  1  0  0  0  0
 17 16  1  0  0  0  0
 19  3  1  0  0  0  0
 20 19  1  0  0  0  0
 21 19  1  0  0  0  0
 22 19  1  0  0  0  0
 22 27  1  0  0  0  0
 23 22  1  0  0  0  0
 24 23  1  0  0  0  0
 24 25  1  0  0  0  0
 25 26  1  0  0  0  0
 26 27  1  0  0  0  0
M  END
>  <minimizedAffinity>
-4.84462023

>  <minimizedRMSD>
0.490324527

$$$$
