
 OpenBabel03242516463D

 39 43  0  0  1  0  0  0  0  0999 V2000
   45.3250   33.1650   42.1840 C   0  0  0  0  0  0  0  0  0  0  0  0
   44.5610   32.0590   42.2650 N   0  0  0  0  0  0  0  0  0  0  0  0
   43.2870   32.3350   41.9670 C   0  0  0  0  0  0  0  0  0  0  0  0
   43.2440   33.6650   41.6860 N   0  0  0  0  0  0  0  0  0  0  0  0
   44.4530   34.1790   41.8100 N   0  0  0  0  0  0  0  0  0  0  0  0
   42.4560   31.6490   41.9500 H   0  0  0  0  0  0  0  0  0  0  0  0
   40.2280   33.0090   41.9410 O   0  0  0  0  0  0  0  0  0  0  0  0
   40.9040   33.5900   41.0370 C   0  0  0  0  0  0  0  0  0  0  0  0
   42.0810   34.4500   41.3000 C   0  0  2  0  0  0  0  0  0  0  0  0
   42.3110   35.1410   39.9690 C   0  0  0  0  0  0  0  0  0  0  0  0
   41.8980   34.0410   38.9860 C   0  0  0  0  0  0  0  0  0  0  0  0
   40.6900   33.5470   39.6090 N   0  0  0  0  0  0  0  0  0  0  0  0
   41.9130   35.2090   42.0880 H   0  0  0  0  0  0  0  0  0  0  0  0
   41.7100   36.0440   39.8440 H   0  0  0  0  0  0  0  0  0  0  0  0
   43.4080   35.2780   39.8750 H   0  0  0  0  0  0  0  0  0  0  0  0
   41.6320   34.4930   38.0040 H   0  0  0  0  0  0  0  0  0  0  0  0
   42.6950   33.2930   38.9160 H   0  0  0  0  0  0  0  0  0  0  0  0
   39.4880   33.0930   38.9550 C   0  0  0  0  0  0  0  0  0  0  0  0
   39.0720   34.0340   37.8540 C   0  0  0  0  0  0  0  0  0  0  0  0
   37.7770   33.4790   37.2490 C   0  0  0  0  0  0  0  0  0  0  0  0
   38.1630   32.2030   36.5260 C   0  0  0  0  0  0  0  0  0  0  0  0
   38.5870   31.2020   37.5840 C   0  0  0  0  0  0  0  0  0  0  0  0
   39.7560   31.7200   38.3860 C   0  0  0  0  0  0  0  0  0  0  0  0
   47.4360   33.4200   43.7290 C   0  0  1  0  0  0  0  0  0  0  0  0
   46.7610   33.3740   42.4020 C   0  0  2  0  0  0  0  0  0  0  0  0
   47.1960   34.6430   42.9400 C   0  0  0  0  0  0  0  0  0  0  0  0
   48.4510   32.9660   43.7330 H   0  0  0  0  0  0  0  0  0  0  0  0
   47.3630   32.9440   41.5460 H   0  0  0  0  0  0  0  0  0  0  0  0
   48.1030   35.1320   42.4780 H   0  0  0  0  0  0  0  0  0  0  0  0
   46.4600   35.4040   43.2340 H   0  0  0  0  0  0  0  0  0  0  0  0
   46.9440   31.9670   45.6850 C   0  0  0  0  0  0  0  0  0  0  0  0
   46.7080   33.1500   44.9870 C   0  0  0  0  0  0  0  0  0  0  0  0
   45.8000   34.0230   45.5360 C   0  0  0  0  0  0  0  0  0  0  0  0
   45.2030   33.6790   46.7050 N   0  0  0  0  0  0  0  0  0  0  0  0
   45.4430   32.5480   47.3510 C   0  0  0  0  0  0  0  0  0  0  0  0
   46.3310   31.6860   46.8220 N   0  0  0  0  0  0  0  0  0  0  0  0
   47.6560   31.2390   45.2930 H   0  0  0  0  0  0  0  0  0  0  0  0
   45.6120   34.9270   45.0140 H   0  0  0  0  0  0  0  0  0  0  0  0
   44.8940   32.4100   48.2710 H   0  0  0  0  0  0  0  0  0  0  0  0
  1  2  1  0  0  0  0
  1 25  1  0  0  0  0
  3  2  2  0  0  0  0
  4  5  1  0  0  0  0
  4  3  1  0  0  0  0
  5  1  2  0  0  0  0
  6  3  1  0  0  0  0
  8  9  1  0  0  0  0
  8  7  2  0  0  0  0
  9  4  1  0  0  0  0
  9 13  1  1  0  0  0
 10  9  1  0  0  0  0
 11 12  1  0  0  0  0
 11 10  1  0  0  0  0
 12  8  1  0  0  0  0
 14 10  1  0  0  0  0
 15 10  1  0  0  0  0
 16 11  1  0  0  0  0
 17 11  1  0  0  0  0
 18 12  1  0  0  0  0
 19 18  1  0  0  0  0
 20 19  1  0  0  0  0
 21 20  1  0  0  0  0
 21 22  1  0  0  0  0
 22 23  1  0  0  0  0
 23 18  1  0  0  0  0
 24 27  1  6  0  0  0
 24 32  1  0  0  0  0
 25 28  1  6  0  0  0
 25 26  1  0  0  0  0
 25 24  1  0  0  0  0
 26 30  1  0  0  0  0
 26 24  1  0  0  0  0
 29 26  1  0  0  0  0
 31 36  1  0  0  0  0
 32 33  1  0  0  0  0
 32 31  2  0  0  0  0
 33 34  2  0  0  0  0
 34 35  1  0  0  0  0
 35 39  1  0  0  0  0
 36 35  2  0  0  0  0
 37 31  1  0  0  0  0
 38 33  1  0  0  0  0
M  END
>  <minimizedAffinity>
-5.92865467

>  <minimizedRMSD>
1.3672086

$$$$
