
     RDKit          3D

 58 61  0  0  0  0  0  0  0  0999 V2000
   46.3700   32.4613   46.9004 C   0  0  2  0  0  0  0  0  0  0  0  0
   47.0692   32.5502   45.6189 C   0  0  1  0  0  0  0  0  0  0  0  0
   46.8456   31.2076   45.0227 O   0  0  0  0  0  0  0  0  0  0  0  0
   47.3514   30.4651   46.0856 C   0  0  0  0  0  0  0  0  0  0  0  0
   46.3617   31.0132   47.2547 C   0  0  2  0  0  0  0  0  0  0  0  0
   44.9280   35.1481   44.2248 C   0  0  0  0  0  0  0  0  0  0  0  0
   45.5717   35.5152   43.0469 C   0  0  0  0  0  0  0  0  0  0  0  0
   46.7680   34.8552   42.7024 C   0  0  0  0  0  0  0  0  0  0  0  0
   47.2460   33.8945   43.5232 N   0  0  0  0  0  0  0  0  0  0  0  0
   46.6045   33.5522   44.6645 C   0  0  0  0  0  0  0  0  0  0  0  0
   45.4424   34.1739   45.0251 N   0  0  0  0  0  0  0  0  0  0  0  0
   43.7417   35.7690   44.6140 O   0  0  0  0  0  0  0  0  0  0  0  0
   44.9807   32.8517   46.6879 O   0  0  0  0  0  0  0  0  0  0  0  0
   45.2139   30.3843   46.9893 O   0  0  0  0  0  0  0  0  0  0  0  0
   44.9742   29.1001   47.2821 C   0  0  0  0  0  0  0  0  0  0  0  0
   44.7999   28.2151   46.0531 C   0  0  0  0  0  0  0  0  0  0  0  0
   42.4455   28.0761   45.4668 C   0  0  0  0  0  0  0  0  0  0  0  0
   43.5276   27.4945   46.1459 C   0  0  0  0  0  0  0  0  0  0  0  0
   43.2096   26.3371   46.8182 C   0  0  0  0  0  0  0  0  0  0  0  0
   41.9746   25.7628   46.8571 C   0  0  0  0  0  0  0  0  0  0  0  0
   40.9210   26.3548   46.1804 C   0  0  0  0  0  0  0  0  0  0  0  0
   41.1703   27.5448   45.4670 C   0  0  0  0  0  0  0  0  0  0  0  0
   42.4683   29.2303   44.7112 O   0  0  0  0  0  0  0  0  0  0  0  0
   40.0781   28.0218   44.8537 O   0  0  0  0  0  0  0  0  0  0  0  0
   46.7795   33.1052   47.7013 H   0  0  0  0  0  0  0  0  0  0  0  0
   48.1828   32.5480   45.7766 H   0  0  0  0  0  0  0  0  0  0  0  0
   48.3663   30.7669   46.3673 H   0  0  0  0  0  0  0  0  0  0  0  0
   47.1648   29.3955   45.9960 H   0  0  0  0  0  0  0  0  0  0  0  0
   47.0072   30.6415   48.0696 H   0  0  0  0  0  0  0  0  0  0  0  0
   45.1083   36.3005   42.4525 H   0  0  0  0  0  0  0  0  0  0  0  0
   47.2444   35.1500   41.7985 H   0  0  0  0  0  0  0  0  0  0  0  0
   42.9210   35.8255   44.0440 H   0  0  0  0  0  0  0  0  0  0  0  0
   44.4429   32.2805   47.3000 H   0  0  0  0  0  0  0  0  0  0  0  0
   45.2824   28.7256   48.2171 H   0  0  0  0  0  0  0  0  0  0  0  0
   43.7722   29.2124   47.6067 H   0  0  0  0  0  0  0  0  0  0  0  0
   45.6251   27.4556   46.0897 H   0  0  0  0  0  0  0  0  0  0  0  0
   44.9015   28.7583   45.1244 H   0  0  0  0  0  0  0  0  0  0  0  0
   44.0777   25.9149   47.3327 H   0  0  0  0  0  0  0  0  0  0  0  0
   41.8921   24.8490   47.4341 H   0  0  0  0  0  0  0  0  0  0  0  0
   39.9583   25.8677   46.2373 H   0  0  0  0  0  0  0  0  0  0  0  0
   42.8523   29.1970   43.7702 H   0  0  0  0  0  0  0  0  0  0  0  0
   39.7474   29.0791   44.0683 C   0  0  0  0  0  0  0  0  0  0  0  0
   40.3473   28.7873   42.6750 C   0  0  0  0  0  0  0  0  0  0  0  0
   40.1362   30.0032   41.8215 C   0  0  0  0  0  0  0  0  0  0  0  0
   38.6585   30.2904   41.6756 C   0  0  0  0  0  0  0  0  0  0  0  0
   37.9305   30.3077   42.9783 C   0  0  0  0  0  0  0  0  0  0  0  0
   38.2275   29.0740   43.7928 C   0  0  0  0  0  0  0  0  0  0  0  0
   40.0875   30.0804   44.3147 H   0  0  0  0  0  0  0  0  0  0  0  0
   41.4114   28.5422   42.7665 H   0  0  0  0  0  0  0  0  0  0  0  0
   39.7833   27.9373   42.2260 H   0  0  0  0  0  0  0  0  0  0  0  0
   40.5260   29.8027   40.8040 H   0  0  0  0  0  0  0  0  0  0  0  0
   40.6810   30.8475   42.2884 H   0  0  0  0  0  0  0  0  0  0  0  0
   38.6043   31.3386   41.2626 H   0  0  0  0  0  0  0  0  0  0  0  0
   38.2122   29.6536   40.9121 H   0  0  0  0  0  0  0  0  0  0  0  0
   38.2424   31.1961   43.5648 H   0  0  0  0  0  0  0  0  0  0  0  0
   36.8409   30.3312   42.7383 H   0  0  0  0  0  0  0  0  0  0  0  0
   37.6631   29.0632   44.7300 H   0  0  0  0  0  0  0  0  0  0  0  0
   38.0548   28.1830   43.1594 H   0  0  0  0  0  0  0  0  0  0  0  0
  1  5  1  0
  2  1  1  0
  3  2  1  0
  3  4  1  0
  4  5  1  0
  6 12  1  0
  6 11  2  0
  7  6  1  0
  8  7  2  0
  8  9  1  0
  9 10  2  0
 10 11  1  0
 10  2  1  0
 13  1  1  0
 14  5  1  0
 14 15  1  0
 16 18  1  0
 16 15  1  0
 17 22  2  0
 17 18  1  0
 18 19  2  0
 19 20  1  0
 21 20  2  0
 22 21  1  0
 23 17  1  0
 24 22  1  0
  1 25  1  1
  2 26  1  1
  4 27  1  0
  4 28  1  0
  5 29  1  1
  7 30  1  0
  8 31  1  0
 12 32  1  0
 13 33  1  0
 15 34  1  0
 15 35  1  0
 16 36  1  0
 16 37  1  0
 19 38  1  0
 20 39  1  0
 21 40  1  0
 23 41  1  0
 42 43  1  0
 43 44  1  0
 44 45  1  0
 45 46  1  0
 46 47  1  0
 47 42  1  0
 42 48  1  0
 43 49  1  0
 43 50  1  0
 44 51  1  0
 44 52  1  0
 45 53  1  0
 45 54  1  0
 46 55  1  0
 46 56  1  0
 47 57  1  0
 47 58  1  0
 24 42  1  0
M  ISO  8  25  13  26  13  27  13  28  13  29  13  30  14  31  14  32   3
M  ISO  8  33   3  34   8  35   8  36   8  37   8  38  14  39  14  40  14
M  ISO  1  41   3
M  END
>  <DihAtoms>  (1) 
21,23,41,42

>  <DihDeg>  (1) 
118.97337898887656

$$$$
