
 OpenBabel03252507043D

 44 47  0  0  0  0  0  0  0  0999 V2000
   41.9080   31.3960   42.2420 C   0  0  0  0  0  0  0  0  0  0  0  0
   41.7620   32.0790   41.3370 H   0  0  0  0  0  0  0  0  0  0  0  0
   41.5030   32.0050   43.0790 H   0  0  0  0  0  0  0  0  0  0  0  0
   41.3170   30.2060   42.1230 N   0  0  0  0  0  0  0  0  0  0  0  0
   41.4520   29.0660   42.9650 C   0  0  0  0  0  0  0  0  0  0  0  0
   40.1020   29.1400   43.6780 C   0  0  0  0  0  0  0  0  0  0  0  0
   38.9570   29.0530   42.7890 C   0  0  0  0  0  0  0  0  0  0  0  0
   39.1090   29.4260   41.4000 C   0  0  0  0  0  0  0  0  0  0  0  0
   40.3920   30.0920   40.9660 C   0  0  0  0  0  0  0  0  0  0  0  0
   42.2210   29.3370   43.7420 H   0  0  0  0  0  0  0  0  0  0  0  0
   41.6800   28.1090   42.5270 H   0  0  0  0  0  0  0  0  0  0  0  0
   40.1210   28.3060   44.4200 H   0  0  0  0  0  0  0  0  0  0  0  0
   40.1430   30.0780   44.2970 H   0  0  0  0  0  0  0  0  0  0  0  0
   38.5560   27.9970   42.7980 H   0  0  0  0  0  0  0  0  0  0  0  0
   38.1070   29.6490   43.2150 H   0  0  0  0  0  0  0  0  0  0  0  0
   38.3980   29.3050   40.6320 H   0  0  0  0  0  0  0  0  0  0  0  0
   40.6660   30.6570   39.3570 S   0  0  0  0  0  0  0  0  0  0  0  0
   40.0600   32.2430   38.8750 C   0  0  0  0  0  3  0  0  0  0  0  0
   38.7600   32.2750   38.1320 C   0  0  0  0  0  2  0  0  0  0  0  0
   38.5720   33.6730   37.5710 C   0  0  0  0  0  2  0  0  0  0  0  0
   39.2230   34.7370   38.4310 C   0  0  0  0  0  2  0  0  0  0  0  0
   40.7260   34.5550   38.4910 C   0  0  0  0  0  2  0  0  0  0  0  0
   41.0510   33.1040   38.1080 C   0  0  0  0  0  2  0  0  0  0  0  0
   43.3850   31.3110   42.4000 C   0  0  0  0  0  0  0  0  0  0  0  0
   43.6140   31.1900   43.4980 H   0  0  0  0  0  0  0  0  0  0  0  0
   43.8040   30.4500   41.8470 H   0  0  0  0  0  0  0  0  0  0  0  0
   43.9730   32.5860   41.9580 C   0  0  0  0  0  0  0  0  0  0  0  0
   43.1930   33.5430   41.3560 C   0  0  0  0  0  0  0  0  0  0  0  0
   43.7920   34.7230   40.9430 C   0  0  0  0  0  0  0  0  0  0  0  0
   45.1370   34.8740   41.1610 N   0  0  0  0  0  0  0  0  0  0  0  0
   45.8580   33.9270   41.7490 C   0  0  0  0  0  0  0  0  0  0  0  0
   45.2570   32.8000   42.1350 N   0  0  0  0  0  0  0  0  0  0  0  0
   42.1460   33.6200   41.1160 H   0  0  0  0  0  0  0  0  0  0  0  0
   43.3420   35.5830   40.4520 H   0  0  0  0  0  0  0  0  0  0  0  0
   47.2790   34.1920   41.9670 C   0  0  0  0  0  0  0  0  0  0  0  0
   48.0850   33.2400   42.5840 C   0  0  0  0  0  0  0  0  0  0  0  0
   49.4210   33.4990   42.7970 C   0  0  0  0  0  0  0  0  0  0  0  0
   49.8390   34.7280   42.3570 C   0  0  0  0  0  0  0  0  0  0  0  0
   49.0790   35.7200   41.7330 C   0  0  0  0  0  0  0  0  0  0  0  0
   47.7750   35.3770   41.5650 N   0  0  0  0  0  0  0  0  0  0  0  0
   47.6880   32.2790   42.9120 H   0  0  0  0  0  0  0  0  0  0  0  0
   50.1240   32.8270   43.2660 H   0  0  0  0  0  0  0  0  0  0  0  0
   50.8960   34.9810   42.5050 H   0  0  0  0  0  0  0  0  0  0  0  0
   49.5010   36.6440   41.4290 H   0  0  0  0  0  0  0  0  0  0  0  0
  1 24  1  0  0  0  0
  1  3  1  0  0  0  0
  2  1  1  0  0  0  0
  4  1  1  0  0  0  0
  4  5  1  0  0  0  0
  5  6  1  0  0  0  0
  5 10  1  0  0  0  0
  6 13  1  0  0  0  0
  6 12  1  0  0  0  0
  7 14  1  0  0  0  0
  7 15  1  0  0  0  0
  7  6  1  0  0  0  0
  8  7  1  0  0  0  0
  9  8  2  0  0  0  0
  9  4  1  0  0  0  0
 11  5  1  0  0  0  0
 16  8  1  0  0  0  0
 17  9  1  0  0  0  0
 18 17  1  0  0  0  0
 19 18  1  0  0  0  0
 20 19  1  0  0  0  0
 20 21  1  0  0  0  0
 21 22  1  0  0  0  0
 23 22  1  0  0  0  0
 23 18  1  0  0  0  0
 24 25  1  0  0  0  0
 26 24  1  0  0  0  0
 27 32  1  0  0  0  0
 27 24  1  0  0  0  0
 28 27  2  0  0  0  0
 29 30  2  0  0  0  0
 29 28  1  0  0  0  0
 30 31  1  0  0  0  0
 31 35  1  0  0  0  0
 31 32  2  0  0  0  0
 33 28  1  0  0  0  0
 34 29  1  0  0  0  0
 35 36  1  0  0  0  0
 36 37  2  0  0  0  0
 36 41  1  0  0  0  0
 37 42  1  0  0  0  0
 38 43  1  0  0  0  0
 38 37  1  0  0  0  0
 39 38  2  0  0  0  0
 40 39  1  0  0  0  0
 40 35  2  0  0  0  0
 44 39  1  0  0  0  0
M  END
>  <minimizedAffinity>
-5.44599533

>  <minimizedRMSD>
3.51444674

$$$$
