
 OpenBabel03252509303D

 18 19  0  0  0  0  0  0  0  0999 V2000
   44.4230   35.9790   44.5110 C   0  0  0  0  0  0  0  0  0  0  0  0
   44.4140   35.4450   43.1990 C   0  0  0  0  0  0  0  0  0  0  0  0
   44.8640   34.1370   43.0400 C   0  0  0  0  0  0  0  0  0  0  0  0
   45.2880   33.4350   44.1280 N   0  0  0  0  0  0  0  0  0  0  0  0
   45.2770   33.9950   45.3740 C   0  0  0  0  0  0  0  0  0  0  0  0
   44.8470   35.2560   45.5590 N   0  0  0  0  0  0  0  0  0  0  0  0
   44.0780   36.9910   44.6540 H   0  0  0  0  0  0  0  0  0  0  0  0
   44.0660   36.0620   42.3970 H   0  0  0  0  0  0  0  0  0  0  0  0
   45.6100   33.4440   46.2290 H   0  0  0  0  0  0  0  0  0  0  0  0
   44.8520   33.5920   41.6840 C   0  0  0  0  0  0  0  0  0  0  0  0
   44.9200   32.4870   41.7720 H   0  0  0  0  0  0  0  0  0  0  0  0
   43.9360   33.8170   41.1230 H   0  0  0  0  0  0  0  0  0  0  0  0
   46.0350   34.0120   40.8560 C   0  0  0  0  0  3  0  0  0  0  0  0
   47.3110   34.1770   41.6250 C   0  0  0  0  0  2  0  0  0  0  0  0
   48.2370   34.9910   40.7200 C   0  0  0  0  0  2  0  0  0  0  0  0
   48.5170   34.1450   39.5090 C   0  0  0  0  0  2  0  0  0  0  0  0
   47.2390   33.8290   38.7680 C   0  0  0  0  0  2  0  0  0  0  0  0
   46.3120   33.0530   39.7130 C   0  0  0  0  0  2  0  0  0  0  0  0
  1  7  1  0  0  0  0
  1  6  1  0  0  0  0
  2  1  2  0  0  0  0
  3  2  1  0  0  0  0
  3  4  2  0  0  0  0
  4  5  1  0  0  0  0
  5  6  2  0  0  0  0
  5  9  1  0  0  0  0
  8  2  1  0  0  0  0
 10 11  1  0  0  0  0
 10  3  1  0  0  0  0
 12 10  1  0  0  0  0
 13 14  1  0  0  0  0
 13 10  1  0  0  0  0
 15 14  1  0  0  0  0
 16 15  1  0  0  0  0
 17 16  1  0  0  0  0
 17 18  1  0  0  0  0
 18 13  1  0  0  0  0
M  END
>  <minimizedAffinity>
-3.84312224

>  <minimizedRMSD>
2.63579249

$$$$
