
 OpenBabel03252500543D

 27 28  0  0  0  0  0  0  0  0999 V2000
   46.9200   34.3530   42.0820 C   0  0  0  0  0  0  0  0  0  0  0  0
   45.5530   34.1640   41.8960 C   0  0  0  0  0  0  0  0  0  0  0  0
   44.7860   33.7970   43.0180 C   0  0  0  0  0  0  0  0  0  0  0  0
   45.4250   33.6560   44.1910 N   0  0  0  0  0  0  0  0  0  0  0  0
   46.7550   33.8460   44.3480 C   0  0  0  0  0  0  0  0  0  0  0  0
   47.4840   34.1930   43.2840 N   0  0  0  0  0  0  0  0  0  0  0  0
   43.7510   33.6600   42.8490 H   0  0  0  0  0  0  0  0  0  0  0  0
   47.2620   33.7310   45.2950 H   0  0  0  0  0  0  0  0  0  0  0  0
   47.7780   34.7360   40.9520 C   0  0  0  0  0  0  0  0  0  0  0  0
   47.2640   35.2340   40.1310 H   0  0  0  0  0  0  0  0  0  0  0  0
   48.2370   33.7980   40.5600 H   0  0  0  0  0  0  0  0  0  0  0  0
   48.8690   35.6450   41.4380 C   0  0  0  0  0  0  0  0  0  0  0  0
   49.2750   36.2640   40.6020 H   0  0  0  0  0  0  0  0  0  0  0  0
   48.5730   36.2790   42.2930 H   0  0  0  0  0  0  0  0  0  0  0  0
   49.7340   35.0110   41.7720 H   0  0  0  0  0  0  0  0  0  0  0  0
   45.0610   34.3530   40.6080 O   0  0  0  0  0  0  0  0  0  0  0  0
   43.6960   33.8310   38.4250 O   0  0  0  0  0  0  0  0  0  0  0  0
   43.7490   33.5530   39.9260 P   0  0  1  0  0  0  0  0  0  0  0  0
   43.9440   31.8850   40.1520 O   0  0  0  0  0  0  0  0  0  0  0  0
   44.0270   31.6560   41.0900 H   0  0  0  0  0  0  0  0  0  0  0  0
   42.2620   34.0020   40.6250 O   0  0  0  0  0  0  0  0  0  0  0  0
   41.2160   33.5800   39.7690 C   0  0  0  0  0  0  0  0  0  0  0  0
   40.5070   32.4650   40.4260 C   0  0  0  0  0  0  0  0  0  0  0  0
   39.2060   32.8330   41.0860 C   0  0  0  0  0  0  0  0  0  0  0  0
   38.3600   33.4710   39.9920 C   0  0  0  0  0  0  0  0  0  0  0  0
   38.9910   34.8120   39.7390 C   0  0  0  0  0  0  0  0  0  0  0  0
   40.4330   34.7670   39.3710 C   0  0  0  0  0  0  0  0  0  0  0  0
  1  6  1  0  0  0  0
  2  1  2  0  0  0  0
  2  3  1  0  0  0  0
  3  4  2  0  0  0  0
  4  5  1  0  0  0  0
  5  8  1  0  0  0  0
  6  5  2  0  0  0  0
  7  3  1  0  0  0  0
  9 12  1  0  0  0  0
  9  1  1  0  0  0  0
 10  9  1  0  0  0  0
 11  9  1  0  0  0  0
 12 15  1  0  0  0  0
 12 14  1  0  0  0  0
 13 12  1  0  0  0  0
 16  2  1  0  0  0  0
 18 17  2  6  0  0  0
 18 19  1  0  0  0  0
 18 16  1  0  0  0  0
 18 21  1  0  0  0  0
 19 20  1  0  0  0  0
 22 23  1  0  0  0  0
 22 21  1  0  0  0  0
 23 24  1  0  0  0  0
 25 24  1  0  0  0  0
 26 25  1  0  0  0  0
 27 26  1  0  0  0  0
 27 22  1  0  0  0  0
M  END
>  <minimizedAffinity>
-4.92064428

>  <minimizedRMSD>
2.01348495

$$$$
