
 OpenBabel03242522503D

 23 24  0  0  0  0  0  0  0  0999 V2000
   45.9690   30.0980   48.4310 O   0  0  0  0  0  0  0  0  0  0  0  0
   46.2860   31.6040   48.5590 P   0  0  2  0  0  0  0  0  0  0  0  0
   45.5230   32.1180   49.9670 O   0  0  0  0  0  0  0  0  0  0  0  0
   45.7210   33.0390   50.2250 H   0  0  0  0  0  0  0  0  0  0  0  0
   45.6350   32.4000   47.2200 O   0  0  0  0  0  0  0  0  0  0  0  0
   47.5780   31.2870   44.3610 C   0  0  0  0  0  0  0  0  0  0  0  0
   46.8760   31.2810   45.5780 C   0  0  0  0  0  0  0  0  0  0  0  0
   46.3120   32.4530   46.0200 C   0  0  0  0  0  0  0  0  0  0  0  0
   46.4650   33.5570   45.2540 N   0  0  0  0  0  0  0  0  0  0  0  0
   47.1320   33.5700   44.0940 C   0  0  0  0  0  0  0  0  0  0  0  0
   47.6940   32.4200   43.6450 N   0  0  0  0  0  0  0  0  0  0  0  0
   48.0580   30.4230   43.9220 H   0  0  0  0  0  0  0  0  0  0  0  0
   46.8770   30.3140   46.0070 H   0  0  0  0  0  0  0  0  0  0  0  0
   47.1470   34.5450   43.6240 H   0  0  0  0  0  0  0  0  0  0  0  0
   47.9260   31.8000   48.6200 O   0  0  0  0  0  0  0  0  0  0  0  0
   48.9080   31.0650   49.1860 C   0  0  0  0  0  0  0  0  0  0  0  0
   49.6970   31.7550   49.9260 O   0  0  0  0  0  0  0  0  0  0  0  0
   49.6640   29.8190   49.4710 C   0  0  0  0  0  3  0  0  0  0  0  0
   51.1490   30.0520   49.4570 C   0  0  0  0  0  2  0  0  0  0  0  0
   51.7920   30.1720   48.1340 C   0  0  0  0  0  2  0  0  0  0  0  0
   51.3140   29.1730   47.1120 C   0  0  0  0  0  2  0  0  0  0  0  0
   49.8280   29.1000   47.0750 C   0  0  0  0  0  2  0  0  0  0  0  0
   49.2280   28.8110   48.4300 C   0  0  0  0  0  2  0  0  0  0  0  0
  2  1  2  6  0  0  0
  2 15  1  0  0  0  0
  2  3  1  0  0  0  0
  3  4  1  0  0  0  0
  5  2  1  0  0  0  0
  6  7  1  0  0  0  0
  7 13  1  0  0  0  0
  7  8  2  0  0  0  0
  8  5  1  0  0  0  0
  9  8  1  0  0  0  0
 10  9  2  0  0  0  0
 11 10  1  0  0  0  0
 11  6  2  0  0  0  0
 12  6  1  0  0  0  0
 14 10  1  0  0  0  0
 15 16  1  0  0  0  0
 16 18  1  0  0  0  0
 16 17  2  0  0  0  0
 19 18  1  0  0  0  0
 20 19  1  0  0  0  0
 21 20  1  0  0  0  0
 22 21  1  0  0  0  0
 22 23  1  0  0  0  0
 23 18  1  0  0  0  0
M  END
>  <minimizedAffinity>
-4.16543484

>  <minimizedRMSD>
2.34671879

$$$$
