
 OpenBabel03242522503D

 23 24  0  0  0  0  0  0  0  0999 V2000
   45.6840   30.4930   47.8190 O   0  0  0  0  0  0  0  0  0  0  0  0
   46.0670   31.8520   48.4430 P   0  0  2  0  0  0  0  0  0  0  0  0
   45.3700   31.8700   49.9740 O   0  0  0  0  0  0  0  0  0  0  0  0
   45.6140   32.6400   50.5240 H   0  0  0  0  0  0  0  0  0  0  0  0
   45.4070   33.0790   47.4890 O   0  0  0  0  0  0  0  0  0  0  0  0
   47.3020   32.6370   44.4220 C   0  0  0  0  0  0  0  0  0  0  0  0
   46.8320   32.4620   45.7350 C   0  0  0  0  0  0  0  0  0  0  0  0
   45.8350   33.2870   46.1950 C   0  0  0  0  0  0  0  0  0  0  0  0
   45.3570   34.2320   45.3530 N   0  0  0  0  0  0  0  0  0  0  0  0
   45.8000   34.4050   44.1020 C   0  0  0  0  0  0  0  0  0  0  0  0
   46.7830   33.5970   43.6340 N   0  0  0  0  0  0  0  0  0  0  0  0
   48.0800   32.0440   43.9620 H   0  0  0  0  0  0  0  0  0  0  0  0
   47.3400   31.6660   46.2120 H   0  0  0  0  0  0  0  0  0  0  0  0
   45.2960   35.2090   43.5810 H   0  0  0  0  0  0  0  0  0  0  0  0
   47.7150   31.9700   48.4960 O   0  0  0  0  0  0  0  0  0  0  0  0
   48.6650   31.1780   49.0400 C   0  0  0  0  0  0  0  0  0  0  0  0
   49.5380   31.8250   49.7200 O   0  0  0  0  0  0  0  0  0  0  0  0
   49.3370   29.8850   49.3280 C   0  0  0  0  0  3  0  0  0  0  0  0
   50.8340   30.0260   49.3420 C   0  0  0  0  0  2  0  0  0  0  0  0
   51.5070   30.1160   48.0320 C   0  0  0  0  0  2  0  0  0  0  0  0
   50.9880   29.1570   46.9940 C   0  0  0  0  0  2  0  0  0  0  0  0
   49.5000   29.1740   46.9290 C   0  0  0  0  0  2  0  0  0  0  0  0
   48.8590   28.9120   48.2700 C   0  0  0  0  0  2  0  0  0  0  0  0
  2  1  2  6  0  0  0
  2 15  1  0  0  0  0
  2  3  1  0  0  0  0
  3  4  1  0  0  0  0
  5  2  1  0  0  0  0
  6  7  1  0  0  0  0
  7  8  2  0  0  0  0
  7 13  1  0  0  0  0
  8  5  1  0  0  0  0
  9  8  1  0  0  0  0
 10  9  2  0  0  0  0
 11 10  1  0  0  0  0
 11  6  2  0  0  0  0
 12  6  1  0  0  0  0
 14 10  1  0  0  0  0
 15 16  1  0  0  0  0
 16 18  1  0  0  0  0
 16 17  2  0  0  0  0
 18 19  1  0  0  0  0
 20 19  1  0  0  0  0
 21 20  1  0  0  0  0
 22 21  1  0  0  0  0
 22 23  1  0  0  0  0
 23 18  1  0  0  0  0
M  END
>  <minimizedAffinity>
-4.4866147

>  <minimizedRMSD>
1.85999119

$$$$
