
 OpenBabel03252508503D

 25 27  0  0  0  0  0  0  0  0999 V2000
   45.9040   34.1960   41.0280 C   0  0  0  0  0  0  0  0  0  0  0  0
   46.5120   34.7940   42.1270 C   0  0  0  0  0  0  0  0  0  0  0  0
   47.8630   35.1340   42.0160 C   0  0  0  0  0  0  0  0  0  0  0  0
   48.5040   34.8610   40.8480 N   0  0  0  0  0  0  0  0  0  0  0  0
   47.8770   34.2790   39.8070 C   0  0  0  0  0  0  0  0  0  0  0  0
   46.5680   33.9460   39.9020 N   0  0  0  0  0  0  0  0  0  0  0  0
   48.3670   35.6070   42.8650 H   0  0  0  0  0  0  0  0  0  0  0  0
   48.4000   34.0680   38.8850 H   0  0  0  0  0  0  0  0  0  0  0  0
   45.7390   35.0500   43.3440 C   0  0  0  0  0  0  0  0  0  0  0  0
   45.0960   36.2390   43.5960 C   0  0  0  0  0  0  0  0  0  0  0  0
   44.5090   36.0460   44.8230 C   0  0  0  0  0  0  0  0  0  0  0  0
   44.7810   34.8000   45.2980 N   0  0  0  0  0  0  0  0  0  0  0  0
   45.5260   34.2260   44.3810 N   0  0  0  0  0  0  0  0  0  0  0  0
   45.0800   37.0890   42.9600 H   0  0  0  0  0  0  0  0  0  0  0  0
   43.9060   36.7610   45.3720 H   0  0  0  0  0  0  0  0  0  0  0  0
   44.4580   34.4030   46.2010 H   0  0  0  0  0  0  0  0  0  0  0  0
   44.5750   33.8610   41.1350 O   0  0  0  0  0  0  0  0  0  0  0  0
   43.5110   34.5710   40.6580 C   0  0  0  0  0  0  0  0  0  0  0  0
   43.3000   35.8240   40.7620 O   0  0  0  0  0  0  0  0  0  0  0  0
   42.2610   34.2200   39.8840 C   0  0  0  0  0  3  0  0  0  0  0  0
   41.3600   33.3490   40.7210 C   0  0  0  0  0  2  0  0  0  0  0  0
   40.0390   33.2850   39.9740 C   0  0  0  0  0  2  0  0  0  0  0  0
   40.2490   32.4750   38.7220 C   0  0  0  0  0  2  0  0  0  0  0  0
   41.6610   32.3940   38.2540 C   0  0  0  0  0  2  0  0  0  0  0  0
   42.5160   33.5780   38.5760 C   0  0  0  0  0  2  0  0  0  0  0  0
  1 17  1  0  0  0  0
  1  2  1  0  0  0  0
  2  9  1  0  0  0  0
  3  2  2  0  0  0  0
  3  7  1  0  0  0  0
  4  3  1  0  0  0  0
  5  6  1  0  0  0  0
  5  4  2  0  0  0  0
  6  1  2  0  0  0  0
  8  5  1  0  0  0  0
  9 10  1  0  0  0  0
  9 13  2  0  0  0  0
 10 11  2  0  0  0  0
 11 12  1  0  0  0  0
 11 15  1  0  0  0  0
 12 16  1  0  0  0  0
 13 12  1  0  0  0  0
 14 10  1  0  0  0  0
 18 19  2  0  0  0  0
 18 17  1  0  0  0  0
 20 18  1  0  0  0  0
 20 21  1  0  0  0  0
 22 21  1  0  0  0  0
 23 22  1  0  0  0  0
 24 25  1  0  0  0  0
 24 23  1  0  0  0  0
 25 20  1  0  0  0  0
M  END
>  <minimizedAffinity>
-5.27094316

>  <minimizedRMSD>
0.809188902

$$$$
