
 OpenBabel03252509293D

 18 19  0  0  0  0  0  0  0  0999 V2000
   44.4810   36.1160   44.5480 C   0  0  0  0  0  0  0  0  0  0  0  0
   45.2380   35.9650   43.3600 C   0  0  0  0  0  0  0  0  0  0  0  0
   46.0910   34.8680   43.2830 C   0  0  0  0  0  0  0  0  0  0  0  0
   46.1660   33.9990   44.3300 N   0  0  0  0  0  0  0  0  0  0  0  0
   45.4150   34.1880   45.4560 C   0  0  0  0  0  0  0  0  0  0  0  0
   44.5810   35.2390   45.5590 N   0  0  0  0  0  0  0  0  0  0  0  0
   43.8140   36.9600   44.6270 H   0  0  0  0  0  0  0  0  0  0  0  0
   45.1210   36.6910   42.5840 H   0  0  0  0  0  0  0  0  0  0  0  0
   45.4750   33.5060   46.2780 H   0  0  0  0  0  0  0  0  0  0  0  0
   46.8680   34.7170   42.0540 C   0  0  0  0  0  0  0  0  0  0  0  0
   46.2950   34.0460   41.3810 H   0  0  0  0  0  0  0  0  0  0  0  0
   47.0300   35.6580   41.5130 H   0  0  0  0  0  0  0  0  0  0  0  0
   48.2000   34.0500   42.2620 C   0  0  0  0  0  3  0  0  0  0  0  0
   48.4100   32.8060   41.4530 C   0  0  0  0  0  2  0  0  0  0  0  0
   49.5870   32.0820   42.1090 C   0  0  0  0  0  2  0  0  0  0  0  0
   50.7930   32.9670   41.9430 C   0  0  0  0  0  2  0  0  0  0  0  0
   50.5760   34.2980   42.6260 C   0  0  0  0  0  2  0  0  0  0  0  0
   49.3640   34.9800   41.9800 C   0  0  0  0  0  2  0  0  0  0  0  0
  1  7  1  0  0  0  0
  1  6  1  0  0  0  0
  2  1  2  0  0  0  0
  3  2  1  0  0  0  0
  3  4  2  0  0  0  0
  4  5  1  0  0  0  0
  5  6  2  0  0  0  0
  5  9  1  0  0  0  0
  8  2  1  0  0  0  0
 10 13  1  0  0  0  0
 10  3  1  0  0  0  0
 11 10  1  0  0  0  0
 12 10  1  0  0  0  0
 14 15  1  0  0  0  0
 14 13  1  0  0  0  0
 16 15  1  0  0  0  0
 16 17  1  0  0  0  0
 18 13  1  0  0  0  0
 18 17  1  0  0  0  0
M  END
>  <minimizedAffinity>
-4.56823349

>  <minimizedRMSD>
1.98729694

$$$$
