
     RDKit          3D

 43 45  0  0  0  0  0  0  0  0999 V2000
   45.6143   34.4165   41.8386 N   0  0  0  0  0  0  0  0  0  0  0  0
   46.9644   34.1130   41.4229 C   0  0  1  0  0  0  0  0  0  0  0  0
   47.0977   34.0059   39.9361 C   0  0  0  0  0  0  0  0  0  0  0  0
   46.0437   33.3887   39.2475 N   0  0  0  0  0  0  0  0  0  0  0  0
   44.7628   33.4552   39.7913 C   0  0  0  0  0  0  0  0  0  0  0  0
   44.6625   34.6073   40.7945 C   0  0  0  0  0  0  0  0  0  0  0  0
   44.7245   35.6156   43.7025 C   0  0  0  0  0  0  0  0  0  0  0  0
   45.3768   34.4928   43.2287 C   0  0  0  0  0  0  0  0  0  0  0  0
   45.7529   33.5123   44.1759 C   0  0  0  0  0  0  0  0  0  0  0  0
   45.4669   33.7039   45.4850 N   0  0  0  0  0  0  0  0  0  0  0  0
   44.8318   34.8096   45.8997 C   0  0  0  0  0  0  0  0  0  0  0  0
   44.4680   35.7455   45.0298 N   0  0  0  0  0  0  0  0  0  0  0  0
   47.8377   35.2617   41.8585 C   0  0  0  0  0  0  0  0  0  0  0  0
   47.2681   33.1607   41.8767 H   0  0  0  0  0  0  0  0  0  0  0  0
   48.0376   33.4594   39.7115 H   0  0  0  0  0  0  0  0  0  0  0  0
   47.2358   35.0354   39.5217 H   0  0  0  0  0  0  0  0  0  0  0  0
   46.0191   33.7287   38.2491 H   0  0  0  0  0  0  0  0  0  0  0  0
   44.5755   32.5342   40.3913 H   0  0  0  0  0  0  0  0  0  0  0  0
   43.9216   33.5104   39.0759 H   0  0  0  0  0  0  0  0  0  0  0  0
   44.9245   35.5412   40.2547 H   0  0  0  0  0  0  0  0  0  0  0  0
   43.6288   34.6868   41.2028 H   0  0  0  0  0  0  0  0  0  0  0  0
   44.4086   36.4043   43.0343 H   0  0  0  0  0  0  0  0  0  0  0  0
   46.2574   32.6635   43.7379 H   0  0  0  0  0  0  0  0  0  0  0  0
   44.6576   34.8526   46.9667 H   0  0  0  0  0  0  0  0  0  0  0  0
   47.7369   35.4377   42.9619 H   0  0  0  0  0  0  0  0  0  0  0  0
   47.4688   36.1731   41.3333 H   0  0  0  0  0  0  0  0  0  0  0  0
   49.2804   35.1228   41.5122 C   0  0  0  0  0  0  0  0  0  0  0  0
   50.0651   36.1290   42.3121 C   0  0  0  0  0  0  0  0  0  0  0  0
   51.2596   35.5994   43.0146 C   0  0  0  0  0  0  0  0  0  0  0  0
   52.0294   34.5226   42.3442 C   0  0  0  0  0  0  0  0  0  0  0  0
   51.2628   33.7552   41.3071 C   0  0  0  0  0  0  0  0  0  0  0  0
   49.8143   33.7263   41.7489 C   0  0  0  0  0  0  0  0  0  0  0  0
   49.4106   35.3350   40.4306 H   0  0  0  0  0  0  0  0  0  0  0  0
   50.3799   36.9787   41.6421 H   0  0  0  0  0  0  0  0  0  0  0  0
   49.4276   36.6118   43.0825 H   0  0  0  0  0  0  0  0  0  0  0  0
   50.9974   35.3327   44.0751 H   0  0  0  0  0  0  0  0  0  0  0  0
   51.9776   36.4622   43.1467 H   0  0  0  0  0  0  0  0  0  0  0  0
   52.9796   34.8610   41.8947 H   0  0  0  0  0  0  0  0  0  0  0  0
   52.3374   33.7799   43.1373 H   0  0  0  0  0  0  0  0  0  0  0  0
   51.3044   34.3182   40.3536 H   0  0  0  0  0  0  0  0  0  0  0  0
   51.6874   32.7322   41.2493 H   0  0  0  0  0  0  0  0  0  0  0  0
   49.2907   33.0178   41.0744 H   0  0  0  0  0  0  0  0  0  0  0  0
   49.7092   33.4308   42.8191 H   0  0  0  0  0  0  0  0  0  0  0  0
  1  8  1  0
  2  1  1  0
  2 13  1  0
  3  2  1  0
  4  5  1  0
  4  3  1  0
  5  6  1  0
  6  1  1  0
  7 12  2  0
  8  7  1  0
  8  9  2  0
  9 10  1  0
 10 11  2  0
 12 11  1  0
  2 14  1  1
  3 15  1  0
  3 16  1  0
  4 17  1  0
  5 18  1  0
  5 19  1  0
  6 20  1  0
  6 21  1  0
  7 22  1  0
  9 23  1  0
 11 24  1  0
 13 25  1  0
 13 26  1  0
 27 28  1  0
 28 29  1  0
 29 30  1  0
 30 31  1  0
 31 32  1  0
 32 27  1  0
 27 33  1  0
 28 34  1  0
 28 35  1  0
 29 36  1  0
 29 37  1  0
 30 38  1  0
 30 39  1  0
 31 40  1  0
 31 41  1  0
 32 42  1  0
 32 43  1  0
 13 27  1  0
M  ISO  8  14  13  15  13  16  13  17   5  18  13  19  13  20  13  21  13
M  ISO  5  22  14  23  14  24  14  25   8  26   8
M  END
>  <DihAtoms>  (1) 
1,12,26,27

>  <DihDeg>  (1) 
179.97244289078554

$$$$
