
 OpenBabel03252503433D

 31 33  0  0  1  0  0  0  0  0999 V2000
   45.0640   34.9330   44.7940 C   0  0  0  0  0  0  0  0  0  0  0  0
   46.0150   34.7310   43.7780 C   0  0  0  0  0  0  0  0  0  0  0  0
   46.9050   33.6560   43.9250 C   0  0  0  0  0  0  0  0  0  0  0  0
   46.8090   32.8790   45.0160 N   0  0  0  0  0  0  0  0  0  0  0  0
   45.8940   33.0930   45.9690 C   0  0  0  0  0  0  0  0  0  0  0  0
   45.0060   34.1280   45.8680 N   0  0  0  0  0  0  0  0  0  0  0  0
   44.3160   35.7130   44.8230 H   0  0  0  0  0  0  0  0  0  0  0  0
   47.6080   33.5320   43.1450 H   0  0  0  0  0  0  0  0  0  0  0  0
   47.3060   31.8290   47.5940 C   0  0  2  0  0  0  0  0  0  0  0  0
   45.8820   32.1640   47.0970 C   0  0  1  0  0  0  0  0  0  0  0  0
   45.3230   32.6530   48.2460 O   0  0  0  0  0  0  0  0  0  0  0  0
   45.6760   31.7950   49.2540 C   0  0  0  0  0  0  0  0  0  0  0  0
   46.8880   30.9970   48.8150 C   0  0  2  0  0  0  0  0  0  0  0  0
   47.8800   31.2650   46.8640 H   0  0  0  0  0  0  0  0  0  0  0  0
   45.3680   31.1920   46.8480 H   0  0  0  0  0  0  0  0  0  0  0  0
   44.8150   31.1290   49.5100 H   0  0  0  0  0  0  0  0  0  0  0  0
   45.9100   32.3960   50.1770 H   0  0  0  0  0  0  0  0  0  0  0  0
   46.4930   29.9990   48.4940 H   0  0  0  0  0  0  0  0  0  0  0  0
   47.8750   32.9620   48.0790 O   0  0  0  0  0  0  0  0  0  0  0  0
   47.1710   33.6260   48.3330 H   0  0  0  0  0  0  0  0  0  0  0  0
   47.8720   30.8920   49.7590 O   0  0  0  0  0  0  0  0  0  0  0  0
   47.8000   30.0350   50.2540 H   0  0  0  0  0  0  0  0  0  0  0  0
   45.9720   35.6790   42.6330 C   0  0  0  0  0  0  0  0  0  0  0  0
   45.5140   36.6260   42.9770 H   0  0  0  0  0  0  0  0  0  0  0  0
   46.9880   35.9350   42.2780 H   0  0  0  0  0  0  0  0  0  0  0  0
   45.1260   35.0470   41.5590 C   0  0  0  0  0  0  0  0  0  0  0  0
   45.0910   33.5420   41.6680 C   0  0  0  0  0  0  0  0  0  0  0  0
   43.6700   33.0380   41.8560 C   0  0  0  0  0  0  0  0  0  0  0  0
   42.7620   33.5130   40.7400 C   0  0  0  0  0  0  0  0  0  0  0  0
   42.8280   35.0030   40.5880 C   0  0  0  0  0  0  0  0  0  0  0  0
   43.7410   35.6550   41.6020 C   0  0  0  0  0  0  0  0  0  0  0  0
  1  7  1  0  0  0  0
  1  6  1  0  0  0  0
  2  3  1  0  0  0  0
  2  1  2  0  0  0  0
  3  4  2  0  0  0  0
  4  5  1  0  0  0  0
  5 10  1  0  0  0  0
  6  5  2  0  0  0  0
  8  3  1  0  0  0  0
  9 14  1  6  0  0  0
  9 19  1  0  0  0  0
  9 13  1  0  0  0  0
 10 15  1  6  0  0  0
 10  9  1  0  0  0  0
 10 11  1  0  0  0  0
 11 12  1  0  0  0  0
 12 16  1  0  0  0  0
 12 17  1  0  0  0  0
 13 18  1  6  0  0  0
 13 12  1  0  0  0  0
 13 21  1  0  0  0  0
 19 20  1  0  0  0  0
 21 22  1  0  0  0  0
 23 24  1  0  0  0  0
 23  2  1  0  0  0  0
 25 23  1  0  0  0  0
 26 31  1  0  0  0  0
 26 27  1  0  0  0  0
 26 23  1  0  0  0  0
 27 28  1  0  0  0  0
 29 28  1  0  0  0  0
 30 29  1  0  0  0  0
 30 31  1  0  0  0  0
M  END
>  <minimizedAffinity>
-6.17188931

>  <minimizedRMSD>
1.31070197

$$$$
