
 OpenBabel03252509273D

 27 29  0  0  1  0  0  0  0  0999 V2000
   46.5710   35.0810   41.9200 C   0  0  1  0  0  0  0  0  0  0  0  0
   48.1070   35.3330   41.9210 C   0  0  0  0  0  0  0  0  0  0  0  0
   47.3670   34.1050   41.2990 C   0  0  2  0  0  0  0  0  0  0  0  0
   46.0060   35.8550   41.3580 H   0  0  0  0  0  0  0  0  0  0  0  0
   48.4660   36.0440   41.1500 H   0  0  0  0  0  0  0  0  0  0  0  0
   48.6690   35.1880   42.8380 H   0  0  0  0  0  0  0  0  0  0  0  0
   47.5850   33.1650   41.8970 H   0  0  0  0  0  0  0  0  0  0  0  0
   44.6820   35.3550   45.1510 C   0  0  0  0  0  0  0  0  0  0  0  0
   45.1280   35.6890   43.8400 C   0  0  0  0  0  0  0  0  0  0  0  0
   46.0710   34.8590   43.3270 C   0  0  0  0  0  0  0  0  0  0  0  0
   46.5580   33.7770   44.0280 N   0  0  0  0  0  0  0  0  0  0  0  0
   46.1080   33.4930   45.2760 C   0  0  0  0  0  0  0  0  0  0  0  0
   45.1610   34.2930   45.8350 N   0  0  0  0  0  0  0  0  0  0  0  0
   43.9210   36.0260   45.5620 H   0  0  0  0  0  0  0  0  0  0  0  0
   46.4570   32.6650   45.8550 H   0  0  0  0  0  0  0  0  0  0  0  0
   44.6480   36.8110   43.1240 N   0  0  0  0  0  0  0  0  0  0  0  0
   43.9900   36.8100   42.2960 H   0  0  0  0  0  0  0  0  0  0  0  0
   44.9110   37.8150   43.3570 H   0  0  0  0  0  0  0  0  0  0  0  0
   47.4120   33.9440   39.7940 C   0  0  0  0  0  0  0  0  0  0  0  0
   46.3930   34.0890   39.3720 H   0  0  0  0  0  0  0  0  0  0  0  0
   48.0810   34.7370   39.3690 H   0  0  0  0  0  0  0  0  0  0  0  0
   47.9270   32.5560   39.4620 C   0  0  0  0  0  3  0  0  0  0  0  0
   48.9960   32.5920   38.4290 C   0  0  0  0  0  2  0  0  0  0  0  0
   50.0800   31.5920   38.5180 C   0  0  0  0  0  2  0  0  0  0  0  0
   49.6370   30.4170   39.3640 C   0  0  0  0  0  2  0  0  0  0  0  0
   49.4690   31.0200   40.7470 C   0  0  0  0  0  2  0  0  0  0  0  0
   48.2060   31.8310   40.7150 C   0  0  0  0  0  2  0  0  0  0  0  0
  1  4  1  6  0  0  0
  1  2  1  0  0  0  0
  1 10  1  0  0  0  0
  2  6  1  0  0  0  0
  3  7  1  1  0  0  0
  3  1  1  0  0  0  0
  3  2  1  0  0  0  0
  5  2  1  0  0  0  0
  8 14  1  0  0  0  0
  8 13  1  0  0  0  0
  9  8  2  0  0  0  0
 10  9  1  0  0  0  0
 10 11  2  0  0  0  0
 11 12  1  0  0  0  0
 12 13  2  0  0  0  0
 12 15  1  0  0  0  0
 16 18  1  0  0  0  0
 16  9  1  0  0  0  0
 17 16  1  0  0  0  0
 19  3  1  0  0  0  0
 20 19  1  0  0  0  0
 21 19  1  0  0  0  0
 22 19  1  0  0  0  0
 22 27  1  0  0  0  0
 23 24  1  0  0  0  0
 23 22  1  0  0  0  0
 24 25  1  0  0  0  0
 25 26  1  0  0  0  0
 27 26  1  0  0  0  0
M  END
>  <minimizedAffinity>
-4.58848953

>  <minimizedRMSD>
0.515357494

$$$$
