
 OpenBabel03242513283D

 27 29  0  0  0  0  0  0  0  0999 V2000
   37.8100   27.6150   41.0710 C   0  0  0  0  0  0  0  0  0  0  0  0
   37.3410   26.4670   41.6840 C   0  0  0  0  0  0  0  0  0  0  0  0
   36.9530   26.5710   42.9920 C   0  0  0  0  0  0  0  0  0  0  0  0
   37.0260   27.7720   43.6790 C   0  0  0  0  0  0  0  0  0  0  0  0
   37.4910   28.8940   43.0600 C   0  0  0  0  0  0  0  0  0  0  0  0
   37.8940   28.8340   41.7330 C   0  0  0  0  0  0  0  0  0  0  0  0
   36.5800   25.6890   43.5050 H   0  0  0  0  0  0  0  0  0  0  0  0
   36.7150   27.8320   44.7110 H   0  0  0  0  0  0  0  0  0  0  0  0
   37.5480   29.8160   43.5800 H   0  0  0  0  0  0  0  0  0  0  0  0
   37.8810   22.9150   40.5290 C   0  0  0  0  0  0  0  0  0  0  0  0
   37.9410   24.0870   41.2920 C   0  0  0  0  0  0  0  0  0  0  0  0
   37.2930   25.2540   40.9150 C   0  0  0  0  0  0  0  0  0  0  0  0
   36.6010   25.1560   39.7470 N   0  0  0  0  0  0  0  0  0  0  0  0
   36.5320   24.0370   39.0000 C   0  0  0  0  0  0  0  0  0  0  0  0
   37.1690   22.9260   39.3910 N   0  0  0  0  0  0  0  0  0  0  0  0
   38.4070   22.0340   40.8710 H   0  0  0  0  0  0  0  0  0  0  0  0
   38.5090   24.0840   42.2030 H   0  0  0  0  0  0  0  0  0  0  0  0
   35.9380   24.1110   38.0870 H   0  0  0  0  0  0  0  0  0  0  0  0
   38.2160   27.5490   39.7340 O   0  0  0  0  0  0  0  0  0  0  0  0
   39.2270   27.3750   39.6240 H   0  0  0  0  0  0  0  0  0  0  0  0
   38.3770   29.9150   41.0260 O   0  0  0  0  0  0  0  0  0  0  0  0
   38.0350   31.2410   41.1810 C   0  0  0  0  0  3  0  0  0  0  0  0
   36.8350   31.5150   40.2890 C   0  0  0  0  0  2  0  0  0  0  0  0
   37.1230   32.5080   39.2070 C   0  0  0  0  0  2  0  0  0  0  0  0
   37.7630   33.7680   39.7120 C   0  0  0  0  0  2  0  0  0  0  0  0
   38.8790   33.5330   40.6810 C   0  0  0  0  0  2  0  0  0  0  0  0
   39.2110   32.0720   40.6990 C   0  0  0  0  0  2  0  0  0  0  0  0
  1  2  2  0  0  0  0
  1  6  1  0  0  0  0
  2  3  1  0  0  0  0
  3  7  1  0  0  0  0
  3  4  2  0  0  0  0
  4  8  1  0  0  0  0
  5  9  1  0  0  0  0
  5  4  1  0  0  0  0
  6  5  2  0  0  0  0
 10 16  1  0  0  0  0
 10 11  1  0  0  0  0
 11 17  1  0  0  0  0
 12 11  2  0  0  0  0
 12  2  1  0  0  0  0
 13 12  1  0  0  0  0
 14 15  1  0  0  0  0
 14 13  2  0  0  0  0
 15 10  2  0  0  0  0
 18 14  1  0  0  0  0
 19  1  1  0  0  0  0
 20 19  1  0  0  0  0
 21 22  1  0  0  0  0
 21  6  1  0  0  0  0
 23 22  1  0  0  0  0
 24 25  1  0  0  0  0
 24 23  1  0  0  0  0
 25 26  1  0  0  0  0
 26 27  1  0  0  0  0
 27 22  1  0  0  0  0
M  END
>  <minimizedAffinity>
-5.43984699

$$$$

 OpenBabel03242513283D

 27 29  0  0  0  0  0  0  0  0999 V2000
   37.2590   30.2420   40.6680 C   0  0  0  0  0  0  0  0  0  0  0  0
   37.4780   30.9740   39.5140 C   0  0  0  0  0  0  0  0  0  0  0  0
   36.7400   30.6380   38.4120 C   0  0  0  0  0  0  0  0  0  0  0  0
   35.8120   29.6100   38.4430 C   0  0  0  0  0  0  0  0  0  0  0  0
   35.6090   28.8980   39.5890 C   0  0  0  0  0  0  0  0  0  0  0  0
   36.3350   29.2050   40.7310 C   0  0  0  0  0  0  0  0  0  0  0  0
   36.8860   31.1920   37.4890 H   0  0  0  0  0  0  0  0  0  0  0  0
   35.2400   29.3610   37.5620 H   0  0  0  0  0  0  0  0  0  0  0  0
   34.9000   28.1110   39.6190 H   0  0  0  0  0  0  0  0  0  0  0  0
   40.5820   33.0250   38.8780 C   0  0  0  0  0  0  0  0  0  0  0  0
   39.6420   31.9890   38.8310 C   0  0  0  0  0  0  0  0  0  0  0  0
   38.4550   32.0270   39.5490 C   0  0  0  0  0  0  0  0  0  0  0  0
   38.2910   33.1520   40.2960 N   0  0  0  0  0  0  0  0  0  0  0  0
   39.1840   34.1590   40.3540 C   0  0  0  0  0  0  0  0  0  0  0  0
   40.3200   34.0930   39.6490 N   0  0  0  0  0  0  0  0  0  0  0  0
   41.4900   32.9410   38.2980 H   0  0  0  0  0  0  0  0  0  0  0  0
   39.8450   31.1320   38.2170 H   0  0  0  0  0  0  0  0  0  0  0  0
   38.9130   34.9990   40.9970 H   0  0  0  0  0  0  0  0  0  0  0  0
   37.9940   30.5560   41.8160 O   0  0  0  0  0  0  0  0  0  0  0  0
   38.8520   29.9900   41.9160 H   0  0  0  0  0  0  0  0  0  0  0  0
   36.1980   28.5420   41.9320 O   0  0  0  0  0  0  0  0  0  0  0  0
   36.7520   27.3330   42.2910 C   0  0  0  0  0  3  0  0  0  0  0  0
   37.3650   27.4970   43.6720 C   0  0  0  0  0  2  0  0  0  0  0  0
   38.8510   27.3120   43.6800 C   0  0  0  0  0  2  0  0  0  0  0  0
   39.2960   26.0500   43.0010 C   0  0  0  0  0  2  0  0  0  0  0  0
   38.6250   25.8020   41.6850 C   0  0  0  0  0  2  0  0  0  0  0  0
   37.8550   27.0250   41.2920 C   0  0  0  0  0  2  0  0  0  0  0  0
  1  6  1  0  0  0  0
  1 19  1  0  0  0  0
  2 12  1  0  0  0  0
  2  1  2  0  0  0  0
  3  4  2  0  0  0  0
  3  2  1  0  0  0  0
  4  5  1  0  0  0  0
  5  9  1  0  0  0  0
  5  6  2  0  0  0  0
  6 21  1  0  0  0  0
  7  3  1  0  0  0  0
  8  4  1  0  0  0  0
 10 15  1  0  0  0  0
 11 10  2  0  0  0  0
 11 12  1  0  0  0  0
 12 13  2  0  0  0  0
 13 14  1  0  0  0  0
 14 18  1  0  0  0  0
 15 14  2  0  0  0  0
 16 10  1  0  0  0  0
 17 11  1  0  0  0  0
 19 20  1  0  0  0  0
 21 22  1  0  0  0  0
 22 23  1  0  0  0  0
 23 24  1  0  0  0  0
 25 24  1  0  0  0  0
 26 25  1  0  0  0  0
 27 26  1  0  0  0  0
 27 22  1  0  0  0  0
M  END
>  <minimizedAffinity>
-5.33872604

$$$$

 OpenBabel03242513283D

 27 29  0  0  0  0  0  0  0  0999 V2000
   39.6000   31.8540   39.9040 C   0  0  0  0  0  0  0  0  0  0  0  0
   39.9430   33.1480   39.5530 C   0  0  0  0  0  0  0  0  0  0  0  0
   38.9420   34.0810   39.5540 C   0  0  0  0  0  0  0  0  0  0  0  0
   37.6390   33.7510   39.8900 C   0  0  0  0  0  0  0  0  0  0  0  0
   37.3180   32.4710   40.2320 C   0  0  0  0  0  0  0  0  0  0  0  0
   38.3020   31.4920   40.2450 C   0  0  0  0  0  0  0  0  0  0  0  0
   39.1760   35.1080   39.2840 H   0  0  0  0  0  0  0  0  0  0  0  0
   36.8650   34.5030   39.8840 H   0  0  0  0  0  0  0  0  0  0  0  0
   36.3240   32.2120   40.4900 H   0  0  0  0  0  0  0  0  0  0  0  0
   43.0640   34.0450   37.6300 C   0  0  0  0  0  0  0  0  0  0  0  0
   41.7250   33.7800   37.9400 C   0  0  0  0  0  0  0  0  0  0  0  0
   41.3120   33.4230   39.2150 C   0  0  0  0  0  0  0  0  0  0  0  0
   42.3190   33.3550   40.1290 N   0  0  0  0  0  0  0  0  0  0  0  0
   43.6130   33.6050   39.8490 C   0  0  0  0  0  0  0  0  0  0  0  0
   43.9800   33.9480   38.6090 N   0  0  0  0  0  0  0  0  0  0  0  0
   43.3280   34.3180   36.6190 H   0  0  0  0  0  0  0  0  0  0  0  0
   40.9890   33.8560   37.1620 H   0  0  0  0  0  0  0  0  0  0  0  0
   44.3070   33.5100   40.6860 H   0  0  0  0  0  0  0  0  0  0  0  0
   40.5960   30.8710   39.9140 O   0  0  0  0  0  0  0  0  0  0  0  0
   40.6610   30.3500   39.0270 H   0  0  0  0  0  0  0  0  0  0  0  0
   38.0720   30.1730   40.5770 O   0  0  0  0  0  0  0  0  0  0  0  0
   37.5640   29.6820   41.7590 C   0  0  0  0  0  3  0  0  0  0  0  0
   38.6990   29.6420   42.7690 C   0  0  0  0  0  2  0  0  0  0  0  0
   39.0320   28.2550   43.2230 C   0  0  0  0  0  2  0  0  0  0  0  0
   37.8320   27.4750   43.6770 C   0  0  0  0  0  2  0  0  0  0  0  0
   36.6560   27.5850   42.7570 C   0  0  0  0  0  2  0  0  0  0  0  0
   37.0860   28.2650   41.4930 C   0  0  0  0  0  2  0  0  0  0  0  0
  1 19  1  0  0  0  0
  1  6  1  0  0  0  0
  2  3  1  0  0  0  0
  2  1  2  0  0  0  0
  3  4  2  0  0  0  0
  4  5  1  0  0  0  0
  5  6  2  0  0  0  0
  5  9  1  0  0  0  0
  6 21  1  0  0  0  0
  7  3  1  0  0  0  0
  8  4  1  0  0  0  0
 10 11  2  0  0  0  0
 10 15  1  0  0  0  0
 11 12  1  0  0  0  0
 12  2  1  0  0  0  0
 12 13  2  0  0  0  0
 14 13  1  0  0  0  0
 14 18  1  0  0  0  0
 15 14  2  0  0  0  0
 16 10  1  0  0  0  0
 17 11  1  0  0  0  0
 20 19  1  0  0  0  0
 21 22  1  0  0  0  0
 22 23  1  0  0  0  0
 23 24  1  0  0  0  0
 24 25  1  0  0  0  0
 26 25  1  0  0  0  0
 27 22  1  0  0  0  0
 27 26  1  0  0  0  0
M  END
>  <minimizedAffinity>
-5.26529598

$$$$

 OpenBabel03242513283D

 27 29  0  0  0  0  0  0  0  0999 V2000
   38.2160   29.8520   41.0960 C   0  0  0  0  0  0  0  0  0  0  0  0
   37.7950   30.9480   40.3640 C   0  0  0  0  0  0  0  0  0  0  0  0
   36.4710   31.0000   40.0230 C   0  0  0  0  0  0  0  0  0  0  0  0
   35.5850   30.0000   40.3900 C   0  0  0  0  0  0  0  0  0  0  0  0
   36.0160   28.9260   41.1110 C   0  0  0  0  0  0  0  0  0  0  0  0
   37.3510   28.8330   41.4800 C   0  0  0  0  0  0  0  0  0  0  0  0
   36.1060   31.8460   39.4480 H   0  0  0  0  0  0  0  0  0  0  0  0
   34.5450   30.0610   40.1100 H   0  0  0  0  0  0  0  0  0  0  0  0
   35.3430   28.1590   41.3950 H   0  0  0  0  0  0  0  0  0  0  0  0
   39.7820   34.1550   40.2710 C   0  0  0  0  0  0  0  0  0  0  0  0
   38.8290   33.1940   40.6240 C   0  0  0  0  0  0  0  0  0  0  0  0
   38.7660   31.9490   40.0160 C   0  0  0  0  0  0  0  0  0  0  0  0
   39.7070   31.7500   39.0530 N   0  0  0  0  0  0  0  0  0  0  0  0
   40.6320   32.6630   38.6990 C   0  0  0  0  0  0  0  0  0  0  0  0
   40.6670   33.8560   39.3060 N   0  0  0  0  0  0  0  0  0  0  0  0
   39.7840   35.1090   40.7790 H   0  0  0  0  0  0  0  0  0  0  0  0
   38.1180   33.4270   41.3950 H   0  0  0  0  0  0  0  0  0  0  0  0
   41.3220   32.3600   37.9090 H   0  0  0  0  0  0  0  0  0  0  0  0
   39.5620   29.7630   41.4650 O   0  0  0  0  0  0  0  0  0  0  0  0
   40.1320   29.2230   40.7950 H   0  0  0  0  0  0  0  0  0  0  0  0
   37.8780   27.7860   42.2070 O   0  0  0  0  0  0  0  0  0  0  0  0
   38.0950   26.4940   41.7810 C   0  0  0  0  0  3  0  0  0  0  0  0
   37.9790   26.4820   40.2650 C   0  0  0  0  0  2  0  0  0  0  0  0
   36.8430   25.6420   39.7710 C   0  0  0  0  0  2  0  0  0  0  0  0
   36.8250   24.2610   40.3590 C   0  0  0  0  0  2  0  0  0  0  0  0
   37.0490   24.2320   41.8390 C   0  0  0  0  0  2  0  0  0  0  0  0
   36.9920   25.6320   42.3700 C   0  0  0  0  0  2  0  0  0  0  0  0
  1 19  1  0  0  0  0
  1  6  1  0  0  0  0
  2  1  2  0  0  0  0
  3  2  1  0  0  0  0
  3  4  2  0  0  0  0
  4  5  1  0  0  0  0
  5  9  1  0  0  0  0
  5  6  2  0  0  0  0
  6 21  1  0  0  0  0
  7  3  1  0  0  0  0
  8  4  1  0  0  0  0
 10 11  1  0  0  0  0
 10 16  1  0  0  0  0
 11 17  1  0  0  0  0
 12  2  1  0  0  0  0
 12 11  2  0  0  0  0
 13 12  1  0  0  0  0
 14 13  2  0  0  0  0
 14 15  1  0  0  0  0
 15 10  2  0  0  0  0
 18 14  1  0  0  0  0
 20 19  1  0  0  0  0
 22 21  1  0  0  0  0
 22 27  1  0  0  0  0
 23 22  1  0  0  0  0
 24 23  1  0  0  0  0
 24 25  1  0  0  0  0
 25 26  1  0  0  0  0
 26 27  1  0  0  0  0
M  END
>  <minimizedAffinity>
-5.16341734

$$$$

 OpenBabel03242513283D

 27 29  0  0  0  0  0  0  0  0999 V2000
   37.4460   28.7410   40.9340 C   0  0  0  0  0  0  0  0  0  0  0  0
   37.9970   29.6320   41.8380 C   0  0  0  0  0  0  0  0  0  0  0  0
   38.0330   29.2490   43.1510 C   0  0  0  0  0  0  0  0  0  0  0  0
   37.5400   28.0230   43.5650 C   0  0  0  0  0  0  0  0  0  0  0  0
   36.9990   27.1560   42.6620 C   0  0  0  0  0  0  0  0  0  0  0  0
   36.9420   27.5030   41.3200 C   0  0  0  0  0  0  0  0  0  0  0  0
   38.4600   29.9250   43.8870 H   0  0  0  0  0  0  0  0  0  0  0  0
   37.5780   27.7410   44.6060 H   0  0  0  0  0  0  0  0  0  0  0  0
   36.6200   26.2170   42.9730 H   0  0  0  0  0  0  0  0  0  0  0  0
   40.2810   32.5020   40.9460 C   0  0  0  0  0  0  0  0  0  0  0  0
   39.8190   31.2750   41.4360 C   0  0  0  0  0  0  0  0  0  0  0  0
   38.4910   30.8880   41.3420 C   0  0  0  0  0  0  0  0  0  0  0  0
   37.6850   31.8020   40.7360 N   0  0  0  0  0  0  0  0  0  0  0  0
   38.1110   32.9870   40.2590 C   0  0  0  0  0  0  0  0  0  0  0  0
   39.4000   33.3320   40.3640 N   0  0  0  0  0  0  0  0  0  0  0  0
   41.3280   32.7510   41.0470 H   0  0  0  0  0  0  0  0  0  0  0  0
   40.5190   30.6060   41.9020 H   0  0  0  0  0  0  0  0  0  0  0  0
   37.3470   33.6160   39.7970 H   0  0  0  0  0  0  0  0  0  0  0  0
   37.3910   29.0960   39.5830 O   0  0  0  0  0  0  0  0  0  0  0  0
   36.4970   29.5370   39.3150 H   0  0  0  0  0  0  0  0  0  0  0  0
   36.4140   26.6930   40.3360 O   0  0  0  0  0  0  0  0  0  0  0  0
   36.9670   25.5500   39.8040 C   0  0  0  0  0  3  0  0  0  0  0  0
   36.4710   24.3710   40.6250 C   0  0  0  0  0  2  0  0  0  0  0  0
   37.5710   23.6520   41.3420 C   0  0  0  0  0  2  0  0  0  0  0  0
   38.7220   23.2860   40.4510 C   0  0  0  0  0  2  0  0  0  0  0  0
   39.1630   24.3960   39.5470 C   0  0  0  0  0  2  0  0  0  0  0  0
   38.4740   25.6620   39.9570 C   0  0  0  0  0  2  0  0  0  0  0  0
  1  6  2  0  0  0  0
  1  2  1  0  0  0  0
  2  3  2  0  0  0  0
  3  4  1  0  0  0  0
  3  7  1  0  0  0  0
  4  8  1  0  0  0  0
  5  9  1  0  0  0  0
  5  4  2  0  0  0  0
  6  5  1  0  0  0  0
 10 16  1  0  0  0  0
 10 11  1  0  0  0  0
 11 17  1  0  0  0  0
 12 11  2  0  0  0  0
 12  2  1  0  0  0  0
 13 12  1  0  0  0  0
 14 15  1  0  0  0  0
 14 13  2  0  0  0  0
 15 10  2  0  0  0  0
 18 14  1  0  0  0  0
 19  1  1  0  0  0  0
 20 19  1  0  0  0  0
 21  6  1  0  0  0  0
 22 27  1  0  0  0  0
 22 21  1  0  0  0  0
 22 23  1  0  0  0  0
 23 24  1  0  0  0  0
 25 24  1  0  0  0  0
 26 27  1  0  0  0  0
 26 25  1  0  0  0  0
M  END
>  <minimizedAffinity>
-5.10578632

$$$$

 OpenBabel03242513283D

 27 29  0  0  0  0  0  0  0  0999 V2000
   37.8330   29.5090   40.4730 C   0  0  0  0  0  0  0  0  0  0  0  0
   37.7350   29.9570   39.1680 C   0  0  0  0  0  0  0  0  0  0  0  0
   36.4940   29.9370   38.5920 C   0  0  0  0  0  0  0  0  0  0  0  0
   35.3790   29.4880   39.2820 C   0  0  0  0  0  0  0  0  0  0  0  0
   35.4940   29.0500   40.5680 C   0  0  0  0  0  0  0  0  0  0  0  0
   36.7340   29.0530   41.1910 C   0  0  0  0  0  0  0  0  0  0  0  0
   36.3800   30.2810   37.5680 H   0  0  0  0  0  0  0  0  0  0  0  0
   34.4090   29.4810   38.8090 H   0  0  0  0  0  0  0  0  0  0  0  0
   34.6450   28.7060   41.1000 H   0  0  0  0  0  0  0  0  0  0  0  0
   40.3200   32.1500   37.5080 C   0  0  0  0  0  0  0  0  0  0  0  0
   39.1480   31.7290   38.1480 C   0  0  0  0  0  0  0  0  0  0  0  0
   38.9300   30.4080   38.5100 C   0  0  0  0  0  0  0  0  0  0  0  0
   39.9500   29.5660   38.1890 N   0  0  0  0  0  0  0  0  0  0  0  0
   41.0840   29.9530   37.5730 C   0  0  0  0  0  0  0  0  0  0  0  0
   41.2650   31.2360   37.2370 N   0  0  0  0  0  0  0  0  0  0  0  0
   40.4350   33.1930   37.2490 H   0  0  0  0  0  0  0  0  0  0  0  0
   38.3880   32.4560   38.3680 H   0  0  0  0  0  0  0  0  0  0  0  0
   41.8140   29.1630   37.3800 H   0  0  0  0  0  0  0  0  0  0  0  0
   39.0860   29.5140   41.0960 O   0  0  0  0  0  0  0  0  0  0  0  0
   39.5850   28.6150   41.0120 H   0  0  0  0  0  0  0  0  0  0  0  0
   36.9460   28.6290   42.4860 O   0  0  0  0  0  0  0  0  0  0  0  0
   37.0990   27.3340   42.9300 C   0  0  0  0  0  3  0  0  0  0  0  0
   38.4410   27.2450   43.6390 C   0  0  0  0  0  2  0  0  0  0  0  0
   39.4010   26.3160   42.9620 C   0  0  0  0  0  2  0  0  0  0  0  0
   38.8150   24.9650   42.6710 C   0  0  0  0  0  2  0  0  0  0  0  0
   37.4420   25.0180   42.0740 C   0  0  0  0  0  2  0  0  0  0  0  0
   37.1230   26.4350   41.7070 C   0  0  0  0  0  2  0  0  0  0  0  0
  1 19  1  0  0  0  0
  1  6  1  0  0  0  0
  2  1  2  0  0  0  0
  3  2  1  0  0  0  0
  3  4  2  0  0  0  0
  4  5  1  0  0  0  0
  5  9  1  0  0  0  0
  5  6  2  0  0  0  0
  6 21  1  0  0  0  0
  7  3  1  0  0  0  0
  8  4  1  0  0  0  0
 10 11  1  0  0  0  0
 11 17  1  0  0  0  0
 11 12  2  0  0  0  0
 12  2  1  0  0  0  0
 13 12  1  0  0  0  0
 14 13  2  0  0  0  0
 15 10  2  0  0  0  0
 15 14  1  0  0  0  0
 16 10  1  0  0  0  0
 18 14  1  0  0  0  0
 20 19  1  0  0  0  0
 21 22  1  0  0  0  0
 22 23  1  0  0  0  0
 24 23  1  0  0  0  0
 25 24  1  0  0  0  0
 26 25  1  0  0  0  0
 27 26  1  0  0  0  0
 27 22  1  0  0  0  0
M  END
>  <minimizedAffinity>
-5.07710743

$$$$

 OpenBabel03242513283D

 27 29  0  0  0  0  0  0  0  0999 V2000
   38.9110   28.3730   41.3510 C   0  0  0  0  0  0  0  0  0  0  0  0
   38.2500   29.4180   41.9710 C   0  0  0  0  0  0  0  0  0  0  0  0
   37.5790   29.1340   43.1290 C   0  0  0  0  0  0  0  0  0  0  0  0
   37.5580   27.8560   43.6640 C   0  0  0  0  0  0  0  0  0  0  0  0
   38.2140   26.8370   43.0390 C   0  0  0  0  0  0  0  0  0  0  0  0
   38.9080   27.0800   41.8620 C   0  0  0  0  0  0  0  0  0  0  0  0
   37.0490   29.9320   43.6430 H   0  0  0  0  0  0  0  0  0  0  0  0
   37.0220   27.6540   44.5780 H   0  0  0  0  0  0  0  0  0  0  0  0
   38.2020   25.8570   43.4430 H   0  0  0  0  0  0  0  0  0  0  0  0
   37.3220   32.5680   40.1090 C   0  0  0  0  0  0  0  0  0  0  0  0
   37.2440   31.2980   40.6940 C   0  0  0  0  0  0  0  0  0  0  0  0
   38.3110   30.7190   41.3640 C   0  0  0  0  0  0  0  0  0  0  0  0
   39.4320   31.4910   41.4000 N   0  0  0  0  0  0  0  0  0  0  0  0
   39.5270   32.7140   40.8430 C   0  0  0  0  0  0  0  0  0  0  0  0
   38.4780   33.2460   40.2040 N   0  0  0  0  0  0  0  0  0  0  0  0
   36.4580   32.9690   39.5990 H   0  0  0  0  0  0  0  0  0  0  0  0
   36.3220   30.7510   40.6220 H   0  0  0  0  0  0  0  0  0  0  0  0
   40.4910   33.2140   40.9550 H   0  0  0  0  0  0  0  0  0  0  0  0
   39.6080   28.6230   40.1640 O   0  0  0  0  0  0  0  0  0  0  0  0
   39.0460   28.4440   39.3180 H   0  0  0  0  0  0  0  0  0  0  0  0
   39.5990   26.1130   41.1620 O   0  0  0  0  0  0  0  0  0  0  0  0
   39.0750   25.1120   40.3740 C   0  0  0  0  0  3  0  0  0  0  0  0
   37.7390   25.5990   39.8370 C   0  0  0  0  0  2  0  0  0  0  0  0
   36.5810   24.7800   40.3160 C   0  0  0  0  0  2  0  0  0  0  0  0
   36.7750   23.3050   40.1190 C   0  0  0  0  0  2  0  0  0  0  0  0
   38.1260   22.8120   40.5360 C   0  0  0  0  0  2  0  0  0  0  0  0
   38.8410   23.9070   41.2680 C   0  0  0  0  0  2  0  0  0  0  0  0
  1  6  2  0  0  0  0
  1  2  1  0  0  0  0
  2  3  2  0  0  0  0
  3  7  1  0  0  0  0
  3  4  1  0  0  0  0
  4  8  1  0  0  0  0
  5  9  1  0  0  0  0
  5  4  2  0  0  0  0
  6  5  1  0  0  0  0
 10 15  2  0  0  0  0
 10 11  1  0  0  0  0
 11 12  2  0  0  0  0
 12 13  1  0  0  0  0
 12  2  1  0  0  0  0
 14 18  1  0  0  0  0
 14 13  2  0  0  0  0
 15 14  1  0  0  0  0
 16 10  1  0  0  0  0
 17 11  1  0  0  0  0
 19  1  1  0  0  0  0
 20 19  1  0  0  0  0
 21  6  1  0  0  0  0
 22 21  1  0  0  0  0
 22 27  1  0  0  0  0
 23 24  1  0  0  0  0
 23 22  1  0  0  0  0
 25 24  1  0  0  0  0
 25 26  1  0  0  0  0
 26 27  1  0  0  0  0
M  END
>  <minimizedAffinity>
-5.03728342

$$$$

 OpenBabel03242513283D

 27 29  0  0  0  0  0  0  0  0999 V2000
   33.9560   29.0550   37.4820 C   0  0  0  0  0  0  0  0  0  0  0  0
   35.2960   29.3270   37.6960 C   0  0  0  0  0  0  0  0  0  0  0  0
   36.0870   29.4830   36.5910 C   0  0  0  0  0  0  0  0  0  0  0  0
   35.5750   29.3730   35.3080 C   0  0  0  0  0  0  0  0  0  0  0  0
   34.2520   29.1040   35.1140 C   0  0  0  0  0  0  0  0  0  0  0  0
   33.4130   28.9390   36.2070 C   0  0  0  0  0  0  0  0  0  0  0  0
   37.1440   29.6970   36.7230 H   0  0  0  0  0  0  0  0  0  0  0  0
   36.2160   29.4990   34.4500 H   0  0  0  0  0  0  0  0  0  0  0  0
   33.8550   29.0190   34.1360 H   0  0  0  0  0  0  0  0  0  0  0  0
   36.7220   30.6750   40.9210 C   0  0  0  0  0  0  0  0  0  0  0  0
   36.2730   30.5970   39.5970 C   0  0  0  0  0  0  0  0  0  0  0  0
   35.7630   29.4280   39.0520 C   0  0  0  0  0  0  0  0  0  0  0  0
   35.7400   28.3740   39.9130 N   0  0  0  0  0  0  0  0  0  0  0  0
   36.1680   28.4300   41.1890 C   0  0  0  0  0  0  0  0  0  0  0  0
   36.6540   29.5730   41.6860 N   0  0  0  0  0  0  0  0  0  0  0  0
   37.1100   31.6130   41.2920 H   0  0  0  0  0  0  0  0  0  0  0  0
   36.3240   31.4740   38.9800 H   0  0  0  0  0  0  0  0  0  0  0  0
   36.0860   27.5020   41.7590 H   0  0  0  0  0  0  0  0  0  0  0  0
   33.1150   28.8900   38.5870 O   0  0  0  0  0  0  0  0  0  0  0  0
   33.0140   27.9050   38.8760 H   0  0  0  0  0  0  0  0  0  0  0  0
   32.0650   28.6650   36.1090 O   0  0  0  0  0  0  0  0  0  0  0  0
   31.0530   29.5380   35.7730 C   0  0  0  0  0  3  0  0  0  0  0  0
   31.2560   29.9440   34.3230 C   0  0  0  0  0  2  0  0  0  0  0  0
   31.5350   31.4060   34.1570 C   0  0  0  0  0  2  0  0  0  0  0  0
   30.5450   32.2840   34.8660 C   0  0  0  0  0  2  0  0  0  0  0  0
   30.2390   31.8430   36.2640 C   0  0  0  0  0  2  0  0  0  0  0  0
   31.2010   30.7640   36.6580 C   0  0  0  0  0  2  0  0  0  0  0  0
  1  2  1  0  0  0  0
  1 19  1  0  0  0  0
  2 12  1  0  0  0  0
  3  7  1  0  0  0  0
  3  2  2  0  0  0  0
  4  3  1  0  0  0  0
  5  4  2  0  0  0  0
  5  6  1  0  0  0  0
  6  1  2  0  0  0  0
  8  4  1  0  0  0  0
  9  5  1  0  0  0  0
 10 16  1  0  0  0  0
 10 15  1  0  0  0  0
 11 10  2  0  0  0  0
 12 11  1  0  0  0  0
 12 13  2  0  0  0  0
 13 14  1  0  0  0  0
 14 15  2  0  0  0  0
 14 18  1  0  0  0  0
 17 11  1  0  0  0  0
 19 20  1  0  0  0  0
 21  6  1  0  0  0  0
 22 21  1  0  0  0  0
 22 27  1  0  0  0  0
 23 22  1  0  0  0  0
 24 23  1  0  0  0  0
 24 25  1  0  0  0  0
 25 26  1  0  0  0  0
 26 27  1  0  0  0  0
M  END
>  <minimizedAffinity>
-5.0222578

$$$$

 OpenBabel03242513283D

 27 29  0  0  0  0  0  0  0  0999 V2000
   37.1630   27.8840   41.2030 C   0  0  0  0  0  0  0  0  0  0  0  0
   37.6510   29.1770   41.2750 C   0  0  0  0  0  0  0  0  0  0  0  0
   38.0950   29.6100   42.4940 C   0  0  0  0  0  0  0  0  0  0  0  0
   38.0600   28.7950   43.6140 C   0  0  0  0  0  0  0  0  0  0  0  0
   37.5760   27.5230   43.5260 C   0  0  0  0  0  0  0  0  0  0  0  0
   37.1150   27.0420   42.3080 C   0  0  0  0  0  0  0  0  0  0  0  0
   38.4850   30.6200   42.5870 H   0  0  0  0  0  0  0  0  0  0  0  0
   38.4160   29.1570   44.5660 H   0  0  0  0  0  0  0  0  0  0  0  0
   37.5470   26.8940   44.3780 H   0  0  0  0  0  0  0  0  0  0  0  0
   37.0830   31.9790   38.8110 C   0  0  0  0  0  0  0  0  0  0  0  0
   37.0640   31.2210   39.9870 C   0  0  0  0  0  0  0  0  0  0  0  0
   37.6580   29.9700   40.0770 C   0  0  0  0  0  0  0  0  0  0  0  0
   38.2540   29.5530   38.9270 N   0  0  0  0  0  0  0  0  0  0  0  0
   38.2810   30.2680   37.7860 C   0  0  0  0  0  0  0  0  0  0  0  0
   37.6990   31.4720   37.7310 N   0  0  0  0  0  0  0  0  0  0  0  0
   36.6030   32.9480   38.7990 H   0  0  0  0  0  0  0  0  0  0  0  0
   36.5730   31.6210   40.8540 H   0  0  0  0  0  0  0  0  0  0  0  0
   38.7980   29.8020   36.9440 H   0  0  0  0  0  0  0  0  0  0  0  0
   36.6990   27.4050   39.9740 O   0  0  0  0  0  0  0  0  0  0  0  0
   35.6830   27.5310   39.8460 H   0  0  0  0  0  0  0  0  0  0  0  0
   36.6080   25.7720   42.1240 O   0  0  0  0  0  0  0  0  0  0  0  0
   37.3160   24.6080   41.9200 C   0  0  0  0  0  3  0  0  0  0  0  0
   38.7480   24.9910   41.5840 C   0  0  0  0  0  2  0  0  0  0  0  0
   39.1560   24.5790   40.2040 C   0  0  0  0  0  2  0  0  0  0  0  0
   38.8610   23.1390   39.9020 C   0  0  0  0  0  2  0  0  0  0  0  0
   37.4930   22.7010   40.3240 C   0  0  0  0  0  2  0  0  0  0  0  0
   36.6960   23.9050   40.7250 C   0  0  0  0  0  2  0  0  0  0  0  0
  1  2  2  0  0  0  0
  1  6  1  0  0  0  0
  2  3  1  0  0  0  0
  3  7  1  0  0  0  0
  3  4  2  0  0  0  0
  4  8  1  0  0  0  0
  5  4  1  0  0  0  0
  5  9  1  0  0  0  0
  6  5  2  0  0  0  0
 10 11  1  0  0  0  0
 11 12  2  0  0  0  0
 11 17  1  0  0  0  0
 12  2  1  0  0  0  0
 13 12  1  0  0  0  0
 14 13  2  0  0  0  0
 15 14  1  0  0  0  0
 15 10  2  0  0  0  0
 16 10  1  0  0  0  0
 18 14  1  0  0  0  0
 19  1  1  0  0  0  0
 20 19  1  0  0  0  0
 21  6  1  0  0  0  0
 22 21  1  0  0  0  0
 23 22  1  0  0  0  0
 24 23  1  0  0  0  0
 25 24  1  0  0  0  0
 25 26  1  0  0  0  0
 26 27  1  0  0  0  0
 27 22  1  0  0  0  0
M  END
>  <minimizedAffinity>
-5.01467371

$$$$
