
 OpenBabel03242522503D

 23 24  0  0  0  0  0  0  0  0999 V2000
   45.5920   30.5730   47.7150 O   0  0  0  0  0  0  0  0  0  0  0  0
   45.9790   31.8900   48.4230 P   0  0  2  0  0  0  0  0  0  0  0  0
   45.3260   31.7920   49.9700 O   0  0  0  0  0  0  0  0  0  0  0  0
   45.5780   32.5230   50.5660 H   0  0  0  0  0  0  0  0  0  0  0  0
   45.2790   33.1730   47.5770 O   0  0  0  0  0  0  0  0  0  0  0  0
   47.1150   32.9990   44.4480 C   0  0  0  0  0  0  0  0  0  0  0  0
   46.6910   32.7300   45.7610 C   0  0  0  0  0  0  0  0  0  0  0  0
   45.6600   33.4700   46.2850 C   0  0  0  0  0  0  0  0  0  0  0  0
   45.1040   34.4240   45.5040 N   0  0  0  0  0  0  0  0  0  0  0  0
   45.5030   34.6850   44.2530 C   0  0  0  0  0  0  0  0  0  0  0  0
   46.5200   33.9630   43.7220 N   0  0  0  0  0  0  0  0  0  0  0  0
   47.9150   32.4780   43.9400 H   0  0  0  0  0  0  0  0  0  0  0  0
   47.2590   31.9450   46.1850 H   0  0  0  0  0  0  0  0  0  0  0  0
   44.9380   35.4820   43.7860 H   0  0  0  0  0  0  0  0  0  0  0  0
   47.6260   32.0240   48.4380 O   0  0  0  0  0  0  0  0  0  0  0  0
   48.5930   31.2730   49.0090 C   0  0  0  0  0  0  0  0  0  0  0  0
   49.5040   31.9680   49.5840 O   0  0  0  0  0  0  0  0  0  0  0  0
   49.2650   30.0030   49.3870 C   0  0  0  0  0  3  0  0  0  0  0  0
   50.7570   30.1720   49.4880 C   0  0  0  0  0  2  0  0  0  0  0  0
   51.5100   30.2260   48.2190 C   0  0  0  0  0  2  0  0  0  0  0  0
   51.0700   29.2200   47.1880 C   0  0  0  0  0  2  0  0  0  0  0  0
   49.5900   29.2080   47.0320 C   0  0  0  0  0  2  0  0  0  0  0  0
   48.8710   28.9850   48.3410 C   0  0  0  0  0  2  0  0  0  0  0  0
  2  1  2  6  0  0  0
  2 15  1  0  0  0  0
  2  3  1  0  0  0  0
  3  4  1  0  0  0  0
  5  2  1  0  0  0  0
  6  7  1  0  0  0  0
  7 13  1  0  0  0  0
  7  8  2  0  0  0  0
  8  5  1  0  0  0  0
  9  8  1  0  0  0  0
 10  9  2  0  0  0  0
 11 10  1  0  0  0  0
 11  6  2  0  0  0  0
 12  6  1  0  0  0  0
 14 10  1  0  0  0  0
 15 16  1  0  0  0  0
 16 18  1  0  0  0  0
 16 17  2  0  0  0  0
 18 19  1  0  0  0  0
 20 19  1  0  0  0  0
 21 20  1  0  0  0  0
 22 21  1  0  0  0  0
 22 23  1  0  0  0  0
 23 18  1  0  0  0  0
M  END
>  <minimizedAffinity>
-4.61210394

>  <minimizedRMSD>
1.13951778

$$$$
