
 OpenBabel03252507553D

 41 44  0  0  1  0  0  0  0  0999 V2000
   47.2930   34.0240   42.4750 C   0  0  2  0  0  0  0  0  0  0  0  0
   47.5530   35.0650   41.3830 C   0  0  0  0  0  0  0  0  0  0  0  0
   48.3920   34.1680   40.4450 C   0  0  0  0  0  0  0  0  0  0  0  0
   47.7610   32.8140   40.5450 C   0  0  1  0  0  0  0  0  0  0  0  0
   46.7220   32.9260   41.6190 C   0  0  0  0  0  0  0  0  0  0  0  0
   48.2680   33.8140   42.9310 H   0  0  0  0  0  0  0  0  0  0  0  0
   46.5970   35.2900   40.8950 H   0  0  0  0  0  0  0  0  0  0  0  0
   48.1330   35.9160   41.7340 H   0  0  0  0  0  0  0  0  0  0  0  0
   49.4570   34.2120   40.7020 H   0  0  0  0  0  0  0  0  0  0  0  0
   48.1680   34.5580   39.4250 H   0  0  0  0  0  0  0  0  0  0  0  0
   48.5490   32.0730   40.7980 H   0  0  0  0  0  0  0  0  0  0  0  0
   45.7760   33.3050   41.2010 H   0  0  0  0  0  0  0  0  0  0  0  0
   46.6010   32.0150   42.2390 H   0  0  0  0  0  0  0  0  0  0  0  0
   44.6600   36.0350   44.2710 C   0  0  0  0  0  0  0  0  0  0  0  0
   45.5310   35.6530   43.2520 C   0  0  0  0  0  0  0  0  0  0  0  0
   46.3030   34.5220   43.4760 C   0  0  0  0  0  0  0  0  0  0  0  0
   46.1980   33.8150   44.6790 N   0  0  0  0  0  0  0  0  0  0  0  0
   45.3320   34.2360   45.6370 C   0  0  0  0  0  0  0  0  0  0  0  0
   44.5700   35.3430   45.4260 N   0  0  0  0  0  0  0  0  0  0  0  0
   44.0570   36.9140   44.1030 H   0  0  0  0  0  0  0  0  0  0  0  0
   45.6420   36.1710   42.3100 H   0  0  0  0  0  0  0  0  0  0  0  0
   45.3280   33.6200   46.5280 H   0  0  0  0  0  0  0  0  0  0  0  0
   47.0570   32.3620   39.2850 C   0  0  2  0  0  0  0  0  0  0  0  0
   46.8610   33.3840   38.2630 C   0  0  0  0  0  0  0  0  0  0  0  0
   45.6920   32.7870   38.9720 C   0  0  1  0  0  0  0  0  0  0  0  0
   47.3560   31.3520   38.9560 H   0  0  0  0  0  0  0  0  0  0  0  0
   46.9960   33.1320   37.1820 H   0  0  0  0  0  0  0  0  0  0  0  0
   47.1780   34.4220   38.4700 H   0  0  0  0  0  0  0  0  0  0  0  0
   45.2050   33.3570   39.7630 H   0  0  0  0  0  0  0  0  0  0  0  0
   44.8800   31.8780   38.2500 O   0  0  0  0  0  0  0  0  0  0  0  0
   42.7690   30.4100   38.6630 O   0  0  0  0  0  0  0  0  0  0  0  0
   43.4230   31.7090   39.0720 P   0  0  1  0  0  0  0  0  0  0  0  0
   43.7170   31.6170   40.7600 O   0  0  0  0  0  0  0  0  0  0  0  0
   44.6390   31.8900   40.9830 H   0  0  0  0  0  0  0  0  0  0  0  0
   42.3430   32.9350   38.8250 O   0  0  0  0  0  0  0  0  0  0  0  0
   42.1090   33.7760   39.8950 C   0  0  0  0  0  0  0  0  0  0  0  0
   42.2220   35.2010   39.4040 C   0  0  0  0  0  0  0  0  0  0  0  0
   40.8580   35.8290   39.1870 C   0  0  0  0  0  0  0  0  0  0  0  0
   40.2220   36.0720   40.5520 C   0  0  0  0  0  0  0  0  0  0  0  0
   40.4550   34.8220   41.3680 C   0  0  0  0  0  0  0  0  0  0  0  0
   40.7160   33.6190   40.4670 C   0  0  0  0  0  0  0  0  0  0  0  0
  1  6  1  1  0  0  0
  1 16  1  0  0  0  0
  2  8  1  0  0  0  0
  2  1  1  0  0  0  0
  3  4  1  0  0  0  0
  3  9  1  0  0  0  0
  3  2  1  0  0  0  0
  4 11  1  1  0  0  0
  4  5  1  0  0  0  0
  5 13  1  0  0  0  0
  5  1  1  0  0  0  0
  7  2  1  0  0  0  0
 10  3  1  0  0  0  0
 12  5  1  0  0  0  0
 14 19  1  0  0  0  0
 15 16  1  0  0  0  0
 15 14  2  0  0  0  0
 16 17  2  0  0  0  0
 17 18  1  0  0  0  0
 18 22  1  0  0  0  0
 19 18  2  0  0  0  0
 20 14  1  0  0  0  0
 21 15  1  0  0  0  0
 23 26  1  6  0  0  0
 23  4  1  0  0  0  0
 24 28  1  0  0  0  0
 24 25  1  0  0  0  0
 24 23  1  0  0  0  0
 25 23  1  0  0  0  0
 25 29  1  1  0  0  0
 27 24  1  0  0  0  0
 30 25  1  0  0  0  0
 30 32  1  0  0  0  0
 32 31  2  6  0  0  0
 32 33  1  0  0  0  0
 33 34  1  0  0  0  0
 35 32  1  0  0  0  0
 35 36  1  0  0  0  0
 36 41  1  0  0  0  0
 37 36  1  0  0  0  0
 38 37  1  0  0  0  0
 38 39  1  0  0  0  0
 39 40  1  0  0  0  0
 41 40  1  0  0  0  0
M  END
>  <minimizedAffinity>
-5.52631998

>  <minimizedRMSD>
7.78946733

$$$$
