
     RDKit          3D

 29 30  0  0  0  0  0  0  0  0999 V2000
   44.5600   36.0103   44.4959 C   0  0  0  0  0  0  0  0  0  0  0  0
   45.3058   35.9229   43.2947 C   0  0  0  0  0  0  0  0  0  0  0  0
   46.1939   34.8585   43.1708 C   0  0  0  0  0  0  0  0  0  0  0  0
   46.3108   33.9588   44.1881 N   0  0  0  0  0  0  0  0  0  0  0  0
   45.5691   34.0859   45.3280 C   0  0  0  0  0  0  0  0  0  0  0  0
   44.7024   35.1043   45.4764 N   0  0  0  0  0  0  0  0  0  0  0  0
   46.9601   34.7743   41.9291 C   0  0  0  0  0  0  0  0  0  0  0  0
   43.8673   36.8277   44.6099 H   0  0  0  0  0  0  0  0  0  0  0  0
   45.1559   36.6696   42.5439 H   0  0  0  0  0  0  0  0  0  0  0  0
   45.6607   33.3798   46.1265 H   0  0  0  0  0  0  0  0  0  0  0  0
   47.2149   33.7053   41.7702 H   0  0  0  0  0  0  0  0  0  0  0  0
   46.4079   35.1105   41.0431 H   0  0  0  0  0  0  0  0  0  0  0  0
   48.2732   35.5063   41.9812 C   0  0  0  0  0  0  0  0  0  0  0  0
   48.5591   36.1857   43.2864 C   0  0  0  0  0  0  0  0  0  0  0  0
   49.6796   37.1856   42.9930 C   0  0  0  0  0  0  0  0  0  0  0  0
   50.8894   36.3825   42.5987 C   0  0  0  0  0  0  0  0  0  0  0  0
   50.6073   35.5646   41.3600 C   0  0  0  0  0  0  0  0  0  0  0  0
   49.4515   34.6049   41.6680 C   0  0  0  0  0  0  0  0  0  0  0  0
   48.2834   36.2977   41.2050 H   0  0  0  0  0  0  0  0  0  0  0  0
   48.9619   35.5029   44.0635 H   0  0  0  0  0  0  0  0  0  0  0  0
   47.6940   36.7515   43.6826 H   0  0  0  0  0  0  0  0  0  0  0  0
   49.3458   37.7528   42.0874 H   0  0  0  0  0  0  0  0  0  0  0  0
   49.8989   37.8125   43.8632 H   0  0  0  0  0  0  0  0  0  0  0  0
   51.7456   37.0604   42.3340 H   0  0  0  0  0  0  0  0  0  0  0  0
   51.1499   35.7284   43.4494 H   0  0  0  0  0  0  0  0  0  0  0  0
   50.2078   36.2258   40.5653 H   0  0  0  0  0  0  0  0  0  0  0  0
   51.4955   35.0235   41.0297 H   0  0  0  0  0  0  0  0  0  0  0  0
   49.2025   34.0247   40.7620 H   0  0  0  0  0  0  0  0  0  0  0  0
   49.7184   33.9405   42.5216 H   0  0  0  0  0  0  0  0  0  0  0  0
  1  6  2  0
  2  1  1  0
  3  2  2  0
  3  4  1  0
  4  5  2  0
  5  6  1  0
  7  3  1  0
  1  8  1  0
  2  9  1  0
  5 10  1  0
  7 11  1  0
  7 12  1  0
 13 14  1  0
 14 15  1  0
 15 16  1  0
 16 17  1  0
 17 18  1  0
 18 13  1  0
 13 19  1  0
 14 20  1  0
 14 21  1  0
 15 22  1  0
 15 23  1  0
 16 24  1  0
 16 25  1  0
 17 26  1  0
 17 27  1  0
 18 28  1  0
 18 29  1  0
  7 13  1  0
M  ISO  5   8  14   9  14  10  14  11   8  12   8
M  END
>  <DihAtoms>  (1) 
2,6,12,13

>  <DihDeg>  (1) 
-59.99933838426612

$$$$
