
 OpenBabel03252507123D

 25 26  0  0  0  0  0  0  0  0999 V2000
   44.5630   34.8220   42.0810 C   0  0  0  0  0  0  0  0  0  0  0  0
   44.7440   33.8710   43.0980 C   0  0  0  0  0  0  0  0  0  0  0  0
   44.9780   34.3320   44.3920 C   0  0  0  0  0  0  0  0  0  0  0  0
   45.0220   35.6660   44.6170 N   0  0  0  0  0  0  0  0  0  0  0  0
   44.8460   36.5490   43.6340 C   0  0  0  0  0  0  0  0  0  0  0  0
   44.6160   36.1230   42.3610 N   0  0  0  0  0  0  0  0  0  0  0  0
   45.1150   33.5740   45.1570 H   0  0  0  0  0  0  0  0  0  0  0  0
   44.8920   37.6030   43.8810 H   0  0  0  0  0  0  0  0  0  0  0  0
   42.9470   34.7720   40.2140 C   0  0  0  0  0  0  0  0  0  0  0  0
   41.9390   34.5380   40.9620 O   0  0  0  0  0  0  0  0  0  0  0  0
   44.3110   34.9210   40.6830 N   0  0  0  0  0  0  0  0  0  0  0  0
   42.6050   34.8360   39.1880 H   0  0  0  0  0  0  0  0  0  0  0  0
   44.9970   35.0920   39.9410 H   0  0  0  0  0  0  0  0  0  0  0  0
   44.6720   32.5620   42.7130 O   0  0  0  0  0  0  0  0  0  0  0  0
   45.8840   30.4050   43.6470 O   0  0  0  0  0  0  0  0  0  0  0  0
   46.0640   31.5480   42.6840 P   0  0  1  0  0  0  0  0  0  0  0  0
   46.2680   30.8930   41.1460 O   0  0  0  0  0  0  0  0  0  0  0  0
   45.8100   30.0280   41.0480 H   0  0  0  0  0  0  0  0  0  0  0  0
   47.4400   32.4150   43.1240 O   0  0  0  0  0  0  0  0  0  0  0  0
   48.2810   32.6250   42.0260 C   0  0  0  0  0  0  0  0  0  0  0  0
   48.0050   33.8780   41.2690 C   0  0  0  0  0  0  0  0  0  0  0  0
   48.5890   35.1250   41.8590 C   0  0  0  0  0  0  0  0  0  0  0  0
   49.8510   34.9280   42.6370 C   0  0  0  0  0  0  0  0  0  0  0  0
   50.5620   33.7000   42.1490 C   0  0  0  0  0  0  0  0  0  0  0  0
   49.7200   32.4880   42.4740 C   0  0  0  0  0  0  0  0  0  0  0  0
  1  6  2  0  0  0  0
  1  2  1  0  0  0  0
  2  3  2  0  0  0  0
  3  4  1  0  0  0  0
  3  7  1  0  0  0  0
  5  8  1  0  0  0  0
  5  4  2  0  0  0  0
  6  5  1  0  0  0  0
  9 11  1  0  0  0  0
  9 10  2  0  0  0  0
 11  1  1  0  0  0  0
 12  9  1  0  0  0  0
 13 11  1  0  0  0  0
 14  2  1  0  0  0  0
 16 14  1  0  0  0  0
 16 19  1  0  0  0  0
 16 15  2  1  0  0  0
 17 16  1  0  0  0  0
 18 17  1  0  0  0  0
 20 25  1  0  0  0  0
 20 19  1  0  0  0  0
 21 22  1  0  0  0  0
 21 20  1  0  0  0  0
 22 23  1  0  0  0  0
 24 25  1  0  0  0  0
 24 23  1  0  0  0  0
M  END
>  <minimizedAffinity>
-4.34818363

>  <minimizedRMSD>
3.57759762

$$$$
