
 OpenBabel03242513443D

 43 46  0  0  0  0  0  0  0  0999 V2000
   47.7370   31.0370   45.9190 C   0  0  0  0  0  0  0  0  0  0  0  0
   46.9860   32.0730   45.4090 C   0  0  0  0  0  0  0  0  0  0  0  0
   45.9510   32.5440   46.1710 C   0  0  0  0  0  0  0  0  0  0  0  0
   45.6300   32.0400   47.4060 C   0  0  0  0  0  0  0  0  0  0  0  0
   44.7020   32.2760   48.3760 N   0  0  0  0  0  0  0  0  0  0  0  0
   44.9040   31.4100   49.4160 C   0  0  0  0  0  0  0  0  0  0  0  0
   45.9570   30.6430   49.0790 N   0  0  0  0  0  0  0  0  0  0  0  0
   46.4100   31.0080   47.8700 C   0  0  0  0  0  0  0  0  0  0  0  0
   47.4530   30.4880   47.1700 C   0  0  0  0  0  0  0  0  0  0  0  0
   48.5710   30.6230   45.3580 H   0  0  0  0  0  0  0  0  0  0  0  0
   45.3370   33.3630   45.7970 H   0  0  0  0  0  0  0  0  0  0  0  0
   43.9730   33.0340   48.2590 H   0  0  0  0  0  0  0  0  0  0  0  0
   44.2850   31.4040   50.3120 H   0  0  0  0  0  0  0  0  0  0  0  0
   47.3180   34.4370   42.6400 C   0  0  0  0  0  0  0  0  0  0  0  0
   47.8900   33.6580   41.6250 C   0  0  0  0  0  0  0  0  0  0  0  0
   48.1470   32.3100   41.9430 C   0  0  0  0  0  0  0  0  0  0  0  0
   47.8450   31.8290   43.1690 N   0  0  0  0  0  0  0  0  0  0  0  0
   47.2950   32.6400   44.0960 C   0  0  0  0  0  0  0  0  0  0  0  0
   47.0270   33.9260   43.8580 N   0  0  0  0  0  0  0  0  0  0  0  0
   47.0760   35.4830   42.5140 H   0  0  0  0  0  0  0  0  0  0  0  0
   48.5880   31.7090   41.1600 H   0  0  0  0  0  0  0  0  0  0  0  0
   48.1800   34.2890   40.3170 C   0  0  0  0  0  0  0  0  0  0  0  0
   48.7100   35.5270   40.6350 F   0  0  0  0  0  0  0  0  0  0  0  0
   47.0110   34.4620   39.6560 F   0  0  0  0  0  0  0  0  0  0  0  0
   49.0760   33.4830   39.6290 F   0  0  0  0  0  0  0  0  0  0  0  0
   48.2050   29.4470   47.6900 O   0  0  0  0  0  0  0  0  0  0  0  0
   49.8100   28.2100   49.3070 O   0  0  0  0  0  0  0  0  0  0  0  0
   49.4080   29.6050   48.8640 P   0  0  2  0  0  0  0  0  0  0  0  0
   48.7100   30.3690   50.2130 O   0  0  0  0  0  0  0  0  0  0  0  0
   48.4300   31.2870   50.0290 H   0  0  0  0  0  0  0  0  0  0  0  0
   50.7520   30.4640   48.3560 O   0  0  0  0  0  0  0  0  0  0  0  0
   51.7490   30.6060   49.2870 C   0  0  0  0  0  0  0  0  0  0  0  0
   51.3610   30.2300   50.2660 H   0  0  0  0  0  0  0  0  0  0  0  0
   52.6620   30.0770   49.0230 H   0  0  0  0  0  0  0  0  0  0  0  0
   51.9710   32.1070   49.4480 C   0  0  0  0  0  0  0  0  0  0  0  0
   53.0470   32.3270   49.6000 H   0  0  0  0  0  0  0  0  0  0  0  0
   51.6410   32.6330   48.5520 H   0  0  0  0  0  0  0  0  0  0  0  0
   51.2230   32.6450   50.6440 C   0  0  0  0  0  0  0  0  0  0  0  0
   51.4270   31.8350   51.8800 C   0  0  0  0  0  0  0  0  0  0  0  0
   51.5270   32.7630   53.0740 C   0  0  0  0  0  0  0  0  0  0  0  0
   52.7910   33.5920   53.0300 C   0  0  0  0  0  0  0  0  0  0  0  0
   52.8840   34.2200   51.6560 C   0  0  0  0  0  0  0  0  0  0  0  0
   51.6090   34.0690   50.8720 C   0  0  0  0  0  0  0  0  0  0  0  0
  1  9  1  0  0  0  0
  2  1  2  0  0  0  0
  2  3  1  0  0  0  0
  3  4  2  0  0  0  0
  4  8  1  0  0  0  0
  4  5  1  0  0  0  0
  5  6  1  0  0  0  0
  6 13  1  0  0  0  0
  7  6  2  0  0  0  0
  8  7  1  0  0  0  0
  9 26  1  0  0  0  0
  9  8  2  0  0  0  0
 10  1  1  0  0  0  0
 11  3  1  0  0  0  0
 12  5  1  0  0  0  0
 14 19  1  0  0  0  0
 15 16  1  0  0  0  0
 15 14  2  0  0  0  0
 16 17  2  0  0  0  0
 17 18  1  0  0  0  0
 18  2  1  0  0  0  0
 19 18  2  0  0  0  0
 20 14  1  0  0  0  0
 21 16  1  0  0  0  0
 22 23  1  0  0  0  0
 22 15  1  0  0  0  0
 24 22  1  0  0  0  0
 25 22  1  0  0  0  0
 26 28  1  0  0  0  0
 28 27  2  1  0  0  0
 28 29  1  0  0  0  0
 30 29  1  0  0  0  0
 31 28  1  0  0  0  0
 31 32  1  0  0  0  0
 32 35  1  0  0  0  0
 32 33  1  0  0  0  0
 34 32  1  0  0  0  0
 35 36  1  0  0  0  0
 35 38  1  0  0  0  0
 37 35  1  0  0  0  0
 38 43  1  0  0  0  0
 38 39  1  0  0  0  0
 39 40  1  0  0  0  0
 41 40  1  0  0  0  0
 42 41  1  0  0  0  0
 43 42  1  0  0  0  0
M  END
>  <minimizedAffinity>
-6.36569548

>  <minimizedRMSD>
1.53282058

$$$$
