
 OpenBabel03252507043D

 44 47  0  0  0  0  0  0  0  0999 V2000
   42.2450   31.6180   42.1100 C   0  0  0  0  0  0  0  0  0  0  0  0
   42.1320   32.7360   42.3180 H   0  0  0  0  0  0  0  0  0  0  0  0
   42.2710   31.1780   43.1310 H   0  0  0  0  0  0  0  0  0  0  0  0
   41.2790   31.1100   41.3440 N   0  0  0  0  0  0  0  0  0  0  0  0
   41.3120   29.9300   40.5490 C   0  0  0  0  0  0  0  0  0  0  0  0
   40.4410   29.0320   41.4260 C   0  0  0  0  0  0  0  0  0  0  0  0
   39.0940   29.5340   41.6350 C   0  0  0  0  0  0  0  0  0  0  0  0
   38.8380   30.9510   41.5000 C   0  0  0  0  0  0  0  0  0  0  0  0
   40.0140   31.8880   41.3550 C   0  0  0  0  0  0  0  0  0  0  0  0
   42.3580   29.5190   40.6370 H   0  0  0  0  0  0  0  0  0  0  0  0
   41.0140   29.9790   39.5150 H   0  0  0  0  0  0  0  0  0  0  0  0
   40.4440   28.0380   40.9160 H   0  0  0  0  0  0  0  0  0  0  0  0
   41.0320   28.8730   42.3690 H   0  0  0  0  0  0  0  0  0  0  0  0
   38.3860   29.0090   40.9290 H   0  0  0  0  0  0  0  0  0  0  0  0
   38.7280   29.2120   42.6460 H   0  0  0  0  0  0  0  0  0  0  0  0
   37.8990   31.4270   41.5130 H   0  0  0  0  0  0  0  0  0  0  0  0
   39.8470   33.6050   41.2650 S   0  0  0  0  0  0  0  0  0  0  0  0
   40.3260   34.4510   39.7920 C   0  0  0  0  0  3  0  0  0  0  0  0
   39.3000   34.5540   38.7050 C   0  0  0  0  0  2  0  0  0  0  0  0
   39.9930   35.0470   37.4480 C   0  0  0  0  0  2  0  0  0  0  0  0
   41.1770   35.9440   37.7510 C   0  0  0  0  0  2  0  0  0  0  0  0
   42.2570   35.1950   38.5060 C   0  0  0  0  0  2  0  0  0  0  0  0
   41.6190   33.9610   39.1600 C   0  0  0  0  0  2  0  0  0  0  0  0
   43.6020   31.4930   41.5140 C   0  0  0  0  0  0  0  0  0  0  0  0
   44.1510   30.6710   42.0600 H   0  0  0  0  0  0  0  0  0  0  0  0
   43.5530   31.2420   40.4380 H   0  0  0  0  0  0  0  0  0  0  0  0
   44.3310   32.7490   41.7510 C   0  0  0  0  0  0  0  0  0  0  0  0
   43.6530   33.9380   41.8730 C   0  0  0  0  0  0  0  0  0  0  0  0
   44.3810   35.0980   42.0820 C   0  0  0  0  0  0  0  0  0  0  0  0
   45.7460   34.9990   42.1580 N   0  0  0  0  0  0  0  0  0  0  0  0
   46.3670   33.8310   42.0370 C   0  0  0  0  0  0  0  0  0  0  0  0
   45.6420   32.7300   41.8360 N   0  0  0  0  0  0  0  0  0  0  0  0
   42.6120   34.2160   41.8610 H   0  0  0  0  0  0  0  0  0  0  0  0
   44.0230   36.1190   42.1980 H   0  0  0  0  0  0  0  0  0  0  0  0
   47.8240   33.8200   42.1640 C   0  0  0  0  0  0  0  0  0  0  0  0
   48.5190   32.6150   42.1630 C   0  0  0  0  0  0  0  0  0  0  0  0
   49.8910   32.6100   42.2940 C   0  0  0  0  0  0  0  0  0  0  0  0
   50.4560   33.8520   42.4180 C   0  0  0  0  0  0  0  0  0  0  0  0
   49.8090   35.0900   42.4260 C   0  0  0  0  0  0  0  0  0  0  0  0
   48.4610   34.9990   42.2910 N   0  0  0  0  0  0  0  0  0  0  0  0
   48.0080   31.6580   42.0610 H   0  0  0  0  0  0  0  0  0  0  0  0
   50.5170   31.7290   42.3040 H   0  0  0  0  0  0  0  0  0  0  0  0
   51.5460   33.8990   42.5260 H   0  0  0  0  0  0  0  0  0  0  0  0
   50.3420   36.0020   42.5280 H   0  0  0  0  0  0  0  0  0  0  0  0
  1  2  1  0  0  0  0
  1  3  1  0  0  0  0
  4  9  1  0  0  0  0
  4  1  1  0  0  0  0
  5 10  1  0  0  0  0
  5  4  1  0  0  0  0
  5  6  1  0  0  0  0
  6  7  1  0  0  0  0
  6 13  1  0  0  0  0
  7 15  1  0  0  0  0
  8 16  1  0  0  0  0
  8  7  1  0  0  0  0
  9  8  2  0  0  0  0
 11  5  1  0  0  0  0
 12  6  1  0  0  0  0
 14  7  1  0  0  0  0
 17  9  1  0  0  0  0
 18 17  1  0  0  0  0
 19 18  1  0  0  0  0
 20 21  1  0  0  0  0
 20 19  1  0  0  0  0
 21 22  1  0  0  0  0
 22 23  1  0  0  0  0
 23 18  1  0  0  0  0
 24 27  1  0  0  0  0
 24 25  1  0  0  0  0
 24  1  1  0  0  0  0
 26 24  1  0  0  0  0
 27 32  2  0  0  0  0
 27 28  1  0  0  0  0
 28 29  2  0  0  0  0
 29 30  1  0  0  0  0
 29 34  1  0  0  0  0
 31 30  2  0  0  0  0
 31 35  1  0  0  0  0
 32 31  1  0  0  0  0
 33 28  1  0  0  0  0
 35 40  1  0  0  0  0
 36 35  2  0  0  0  0
 36 37  1  0  0  0  0
 37 42  1  0  0  0  0
 37 38  2  0  0  0  0
 38 39  1  0  0  0  0
 38 43  1  0  0  0  0
 39 44  1  0  0  0  0
 40 39  2  0  0  0  0
 41 36  1  0  0  0  0
M  END
>  <minimizedAffinity>
-5.61307812

>  <minimizedRMSD>
2.70244241

$$$$
