
 OpenBabel03242515003D

 34 36  0  0  0  0  0  0  0  0999 V2000
   42.0380   34.9020   41.4770 C   0  0  0  0  0  0  0  0  0  0  0  0
   42.1110   35.1180   42.5680 H   0  0  0  0  0  0  0  0  0  0  0  0
   41.5420   33.8910   41.4040 H   0  0  0  0  0  0  0  0  0  0  0  0
   41.1610   35.8800   40.7640 C   0  0  0  0  0  0  0  0  0  0  0  0
   40.4630   36.3050   41.5260 H   0  0  0  0  0  0  0  0  0  0  0  0
   41.7040   36.7290   40.3210 H   0  0  0  0  0  0  0  0  0  0  0  0
   41.9390   36.1730   37.8360 Cl  0  0  0  0  0  0  0  0  0  0  0  0
   40.5760   35.2610   38.3910 C   0  0  0  0  0  0  0  0  0  0  0  0
   40.3010   35.1880   39.7750 C   0  0  0  0  0  0  0  0  0  0  0  0
   39.2070   34.4480   40.1250 C   0  0  0  0  0  0  0  0  0  0  0  0
   38.3460   33.7680   39.2790 C   0  0  0  0  0  0  0  0  0  0  0  0
   38.6320   33.8530   37.9260 C   0  0  0  0  0  0  0  0  0  0  0  0
   37.6020   33.0270   36.7610 Cl  0  0  0  0  0  0  0  0  0  0  0  0
   39.7250   34.5860   37.5070 C   0  0  0  0  0  0  0  0  0  0  0  0
   38.9700   34.3740   41.1920 H   0  0  0  0  0  0  0  0  0  0  0  0
   37.5050   33.2100   39.6580 H   0  0  0  0  0  0  0  0  0  0  0  0
   39.9420   34.6460   36.4420 H   0  0  0  0  0  0  0  0  0  0  0  0
   43.6830   34.7550   40.7560 S   0  0  0  0  0  0  0  0  0  0  0  0
   44.9630   34.5360   42.0000 C   0  0  0  0  0  0  0  0  0  0  0  0
   46.2840   34.6930   41.5690 C   0  0  0  0  0  0  0  0  0  0  0  0
   47.3120   34.5320   42.5000 C   0  0  0  0  0  0  0  0  0  0  0  0
   46.9670   34.2300   43.7790 N   0  0  0  0  0  0  0  0  0  0  0  0
   45.6920   34.0830   44.1770 C   0  0  0  0  0  0  0  0  0  0  0  0
   44.7140   34.2380   43.2780 N   0  0  0  0  0  0  0  0  0  0  0  0
   46.4890   34.9340   40.5360 H   0  0  0  0  0  0  0  0  0  0  0  0
   48.3360   34.6500   42.1870 H   0  0  0  0  0  0  0  0  0  0  0  0
   45.4300   33.7600   45.5640 C   0  0  0  0  0  0  0  0  0  0  0  0
   44.9430   34.6710   46.2820 O   0  0  0  0  0  0  0  0  0  0  0  0
   45.7140   32.4040   46.1550 C   0  0  0  0  0  3  0  0  0  0  0  0
   47.0390   31.9290   45.5950 C   0  0  0  0  0  2  0  0  0  0  0  0
   47.5320   30.6960   46.2780 C   0  0  0  0  0  2  0  0  0  0  0  0
   47.7220   30.9420   47.7380 C   0  0  0  0  0  2  0  0  0  0  0  0
   47.1990   32.3160   48.0960 C   0  0  0  0  0  2  0  0  0  0  0  0
   45.7380   32.4240   47.6500 C   0  0  0  0  0  2  0  0  0  0  0  0
  1  2  1  0  0  0  0
  3  1  1  0  0  0  0
  4  1  1  0  0  0  0
  4  5  1  0  0  0  0
  6  4  1  0  0  0  0
  7  8  1  0  0  0  0
  8  9  1  0  0  0  0
  9 10  2  0  0  0  0
  9  4  1  0  0  0  0
 10 15  1  0  0  0  0
 11 16  1  0  0  0  0
 11 10  1  0  0  0  0
 12 11  2  0  0  0  0
 13 12  1  0  0  0  0
 14 12  1  0  0  0  0
 14  8  2  0  0  0  0
 17 14  1  0  0  0  0
 18  1  1  0  0  0  0
 18 19  1  0  0  0  0
 19 24  1  0  0  0  0
 20 19  2  0  0  0  0
 20 21  1  0  0  0  0
 21 22  2  0  0  0  0
 22 23  1  0  0  0  0
 23 27  1  0  0  0  0
 24 23  2  0  0  0  0
 25 20  1  0  0  0  0
 26 21  1  0  0  0  0
 27 29  1  0  0  0  0
 27 28  2  0  0  0  0
 29 34  1  0  0  0  0
 30 29  1  0  0  0  0
 30 31  1  0  0  0  0
 31 32  1  0  0  0  0
 32 33  1  0  0  0  0
 34 33  1  0  0  0  0
M  END
>  <minimizedAffinity>
-6.63470221

>  <minimizedRMSD>
0.660309553

$$$$
