
 OpenBabel03252509193D

 40 43  0  0  1  0  0  0  0  0999 V2000
   47.0530   26.7120   47.5450 C   0  0  1  0  0  0  0  0  0  0  0  0
   46.9750   25.2530   47.2420 C   0  0  0  0  0  0  0  0  0  0  0  0
   48.2520   24.6510   46.7150 C   0  0  0  0  0  0  0  0  0  0  0  0
   49.4720   25.1170   47.4630 C   0  0  0  0  0  0  0  0  0  0  0  0
   49.4640   26.6060   47.7370 C   0  0  0  0  0  0  0  0  0  0  0  0
   48.3460   27.2520   46.9330 C   0  0  2  0  0  0  0  0  0  0  0  0
   47.1830   26.8390   48.6310 H   0  0  0  0  0  0  0  0  0  0  0  0
   46.5900   24.7190   48.1420 H   0  0  0  0  0  0  0  0  0  0  0  0
   46.1980   25.1110   46.4390 H   0  0  0  0  0  0  0  0  0  0  0  0
   48.3600   24.8800   45.6440 H   0  0  0  0  0  0  0  0  0  0  0  0
   48.1880   23.5600   46.8590 H   0  0  0  0  0  0  0  0  0  0  0  0
   49.5030   24.5540   48.4340 H   0  0  0  0  0  0  0  0  0  0  0  0
   50.3740   24.8770   46.8910 H   0  0  0  0  0  0  0  0  0  0  0  0
   50.4290   27.0790   47.5650 H   0  0  0  0  0  0  0  0  0  0  0  0
   49.1950   26.7540   48.8210 H   0  0  0  0  0  0  0  0  0  0  0  0
   48.4030   26.9610   45.8660 H   0  0  0  0  0  0  0  0  0  0  0  0
   43.7150   28.2950   45.7760 C   0  0  0  0  0  0  0  0  0  0  0  0
   44.0540   28.9450   46.9590 C   0  0  0  0  0  0  0  0  0  0  0  0
   45.1270   28.5120   47.6230 C   0  0  0  0  0  0  0  0  0  0  0  0
   45.8870   27.4370   47.1420 C   0  0  0  0  0  0  0  0  0  0  0  0
   45.0010   26.9980   45.6130 S   0  0  0  0  0  0  0  0  0  0  0  0
   43.4580   29.7740   47.3150 H   0  0  0  0  0  0  0  0  0  0  0  0
   45.5280   28.8960   48.5460 H   0  0  0  0  0  0  0  0  0  0  0  0
   40.3600   29.0790   44.3790 C   0  0  0  0  0  0  0  0  0  0  0  0
   40.6870   29.2780   43.0280 C   0  0  0  0  0  0  0  0  0  0  0  0
   42.0340   29.1330   42.6500 C   0  0  0  0  0  0  0  0  0  0  0  0
   42.9440   28.8080   43.6200 N   0  0  0  0  0  0  0  0  0  0  0  0
   42.5680   28.6300   44.8960 C   0  0  0  0  0  0  0  0  0  0  0  0
   41.2680   28.7640   45.2930 N   0  0  0  0  0  0  0  0  0  0  0  0
   39.3240   29.1880   44.6870 H   0  0  0  0  0  0  0  0  0  0  0  0
   39.9530   29.5370   42.2720 H   0  0  0  0  0  0  0  0  0  0  0  0
   42.3760   29.2680   41.6320 H   0  0  0  0  0  0  0  0  0  0  0  0
   48.4040   28.7170   47.1350 C   0  0  0  0  0  0  0  0  0  0  0  0
   48.5590   29.2280   48.2340 O   0  0  0  0  0  0  0  0  0  0  0  0
   48.3370   29.9940   46.3930 C   0  0  0  0  0  3  0  0  0  0  0  0
   47.4850   31.0160   47.1910 C   0  0  0  0  0  2  0  0  0  0  0  0
   46.6360   31.8560   46.3010 C   0  0  0  0  0  2  0  0  0  0  0  0
   47.2120   32.1650   44.9580 C   0  0  0  0  0  2  0  0  0  0  0  0
   47.6830   30.9330   44.2210 C   0  0  0  0  0  2  0  0  0  0  0  0
   47.5210   29.7680   45.1330 C   0  0  0  0  0  2  0  0  0  0  0  0
  1  7  1  1  0  0  0
  2  1  1  0  0  0  0
  2  8  1  0  0  0  0
  3 11  1  0  0  0  0
  3  2  1  0  0  0  0
  3  4  1  0  0  0  0
  4  5  1  0  0  0  0
  4 12  1  0  0  0  0
  5 15  1  0  0  0  0
  6 16  1  6  0  0  0
  6 33  1  0  0  0  0
  6  1  1  0  0  0  0
  6  5  1  0  0  0  0
  9  2  1  0  0  0  0
 10  3  1  0  0  0  0
 13  4  1  0  0  0  0
 14  5  1  0  0  0  0
 17 18  2  0  0  0  0
 18 22  1  0  0  0  0
 18 19  1  0  0  0  0
 19 23  1  0  0  0  0
 20  1  1  0  0  0  0
 20 19  2  0  0  0  0
 21 17  1  0  0  0  0
 21 20  1  0  0  0  0
 24 30  1  0  0  0  0
 24 29  1  0  0  0  0
 25 24  2  0  0  0  0
 26 25  1  0  0  0  0
 26 27  2  0  0  0  0
 27 28  1  0  0  0  0
 28 29  2  0  0  0  0
 28 17  1  0  0  0  0
 31 25  1  0  0  0  0
 32 26  1  0  0  0  0
 33 34  2  0  0  0  0
 35 33  1  0  0  0  0
 35 36  1  0  0  0  0
 37 36  1  0  0  0  0
 38 37  1  0  0  0  0
 39 38  1  0  0  0  0
 39 40  1  0  0  0  0
 40 35  1  0  0  0  0
M  END
>  <minimizedAffinity>
-3.28062844

>  <minimizedRMSD>
4.98118591

$$$$
