
 OpenBabel03252507163D

 26 28  0  0  0  0  0  0  0  0999 V2000
   45.2630   35.9750   43.0890 C   0  0  0  0  0  0  0  0  0  0  0  0
   45.8100   34.6740   42.9650 C   0  0  0  0  0  0  0  0  0  0  0  0
   45.7240   33.8590   44.0920 C   0  0  0  0  0  0  0  0  0  0  0  0
   45.1470   34.3150   45.2190 N   0  0  0  0  0  0  0  0  0  0  0  0
   44.6290   35.5830   45.2990 C   0  0  0  0  0  0  0  0  0  0  0  0
   44.7010   36.3740   44.2350 N   0  0  0  0  0  0  0  0  0  0  0  0
   45.3070   36.6560   42.2260 H   0  0  0  0  0  0  0  0  0  0  0  0
   44.2000   35.7970   46.2680 H   0  0  0  0  0  0  0  0  0  0  0  0
   46.2790   32.5120   43.9930 C   0  0  0  0  0  0  0  0  0  0  0  0
   45.4390   31.4290   43.8790 C   0  0  0  0  0  0  0  0  0  0  0  0
   45.9900   30.1700   43.7890 C   0  0  0  0  0  0  0  0  0  0  0  0
   47.3580   29.9340   43.8060 C   0  0  0  0  0  0  0  0  0  0  0  0
   48.1480   31.0740   43.9240 C   0  0  0  0  0  0  0  0  0  0  0  0
   47.5920   32.2900   44.0110 N   0  0  0  0  0  0  0  0  0  0  0  0
   44.3440   31.5320   43.8580 H   0  0  0  0  0  0  0  0  0  0  0  0
   45.3500   29.2820   43.6970 H   0  0  0  0  0  0  0  0  0  0  0  0
   47.8040   28.9550   43.7370 H   0  0  0  0  0  0  0  0  0  0  0  0
   49.2290   30.9930   43.9470 H   0  0  0  0  0  0  0  0  0  0  0  0
   46.4070   34.2480   41.7500 C   0  0  0  0  0  0  0  0  0  0  0  0
   47.4880   34.8230   41.4160 O   0  0  0  0  0  0  0  0  0  0  0  0
   46.0210   33.2230   40.7340 C   0  0  0  0  0  3  0  0  0  0  0  0
   46.6980   33.6120   39.4580 C   0  0  0  0  0  2  0  0  0  0  0  0
   46.1170   32.9830   38.2250 C   0  0  0  0  0  2  0  0  0  0  0  0
   44.6240   33.0440   38.1690 C   0  0  0  0  0  2  0  0  0  0  0  0
   43.9860   33.6640   39.3710 C   0  0  0  0  0  2  0  0  0  0  0  0
   44.5380   33.1010   40.6520 C   0  0  0  0  0  2  0  0  0  0  0  0
  1  6  1  0  0  0  0
  2  1  2  0  0  0  0
  2  3  1  0  0  0  0
  3  4  2  0  0  0  0
  4  5  1  0  0  0  0
  5  8  1  0  0  0  0
  6  5  2  0  0  0  0
  7  1  1  0  0  0  0
  9 14  1  0  0  0  0
  9  3  1  0  0  0  0
 10  9  2  0  0  0  0
 11 12  2  0  0  0  0
 11 10  1  0  0  0  0
 12 13  1  0  0  0  0
 13 18  1  0  0  0  0
 13 14  2  0  0  0  0
 15 10  1  0  0  0  0
 16 11  1  0  0  0  0
 17 12  1  0  0  0  0
 19  2  1  0  0  0  0
 20 19  2  0  0  0  0
 21 19  1  0  0  0  0
 22 21  1  0  0  0  0
 23 22  1  0  0  0  0
 24 23  1  0  0  0  0
 24 25  1  0  0  0  0
 25 26  1  0  0  0  0
 26 21  1  0  0  0  0
M  END
>  <minimizedAffinity>
-4.21391726

>  <minimizedRMSD>
0.763721108

$$$$
