
 OpenBabel03242519413D

 26 28  0  0  1  0  0  0  0  0999 V2000
   48.1220   32.8380   41.5340 O   0  0  0  0  0  0  0  0  0  0  0  0
   47.1970   33.9960   41.2400 P   0  0  2  0  0  0  0  0  0  0  0  0
   45.6540   33.6960   41.9530 O   0  0  0  0  0  0  0  0  0  0  0  0
   44.4130   35.8460   44.5780 C   0  0  0  0  0  0  0  0  0  0  0  0
   44.7120   35.3500   43.2930 C   0  0  0  0  0  0  0  0  0  0  0  0
   45.3860   34.1310   43.2080 C   0  0  0  0  0  0  0  0  0  0  0  0
   45.7250   33.4740   44.3370 N   0  0  0  0  0  0  0  0  0  0  0  0
   45.4260   33.9730   45.5580 C   0  0  0  0  0  0  0  0  0  0  0  0
   44.7760   35.1490   45.6870 N   0  0  0  0  0  0  0  0  0  0  0  0
   43.8990   36.7770   44.6580 H   0  0  0  0  0  0  0  0  0  0  0  0
   44.4180   35.9130   42.4310 H   0  0  0  0  0  0  0  0  0  0  0  0
   45.7300   33.3910   46.4180 H   0  0  0  0  0  0  0  0  0  0  0  0
   46.8750   34.1810   39.6250 O   0  0  0  0  0  0  0  0  0  0  0  0
   47.1040   33.3830   38.5750 C   0  0  2  0  0  3  0  0  0  0  0  0
   47.7480   33.9470   37.6150 O   0  0  0  0  0  0  0  0  0  0  0  0
   47.2500   32.4100   37.5760 C   0  0  0  0  0  0  0  0  0  0  0  0
   46.3440   32.6060   36.3810 C   0  0  0  0  0  2  0  0  0  0  0  0
   44.9800   31.9940   36.6050 C   0  0  0  0  0  2  0  0  0  0  0  0
   45.1860   30.5050   36.4480 C   0  0  0  0  0  2  0  0  0  0  0  0
   46.3130   30.0490   37.2720 C   0  0  0  0  0  2  0  0  0  0  0  0
   47.0660   30.9600   38.1080 C   0  0  0  0  0  2  0  0  0  0  0  0
   47.7700   35.3670   41.9640 O   0  0  0  0  0  0  0  0  0  0  0  0
   49.0050   35.7170   41.4520 C   0  0  0  0  0  0  0  0  0  0  0  0
   49.3750   37.0100   41.8130 F   0  0  0  0  0  0  0  0  0  0  0  0
   49.9380   34.7980   41.8100 F   0  0  0  0  0  0  0  0  0  0  0  0
   48.8780   35.7220   40.0710 F   0  0  0  0  0  0  0  0  0  0  0  0
  2  1  2  1  0  0  0
  2  3  1  0  0  0  0
  2 22  1  0  0  0  0
  3  6  1  0  0  0  0
  4 10  1  0  0  0  0
  4  9  1  0  0  0  0
  5  4  2  0  0  0  0
  6  5  1  0  0  0  0
  6  7  2  0  0  0  0
  7  8  1  0  0  0  0
  8  9  2  0  0  0  0
  8 12  1  0  0  0  0
 11  5  1  0  0  0  0
 13  2  1  0  0  0  0
 14 13  1  6  0  0  0
 15 14  1  0  0  0  0
 16 15  1  0  0  0  0
 16 21  1  0  0  0  0
 16 14  1  0  0  0  0
 17 18  1  0  0  0  0
 17 16  1  0  0  0  0
 19 18  1  0  0  0  0
 19 20  1  0  0  0  0
 20 21  1  0  0  0  0
 23 25  1  0  0  0  0
 23 24  1  0  0  0  0
 23 22  1  0  0  0  0
 26 23  1  0  0  0  0
M  END
>  <minimizedAffinity>
-5.08385372

>  <minimizedRMSD>
1.30989075

$$$$
