REMARK  Name = 
REMARK  3 active torsions:
REMARK  status: ('A' for Active; 'I' for Inactive)
REMARK    1  A    between atoms: N_1  and  C_8
REMARK    2  A    between atoms: C_2  and  C_13
REMARK    3  A    between atoms: C_13  and  C_27
REMARK                            x       y       z     vdW  Elec       q    Type
REMARK                         _______ _______ _______ _____ _____    ______ ____
ROOT
ATOM      1  N   UNL     1      45.614  34.416  41.839  0.00  0.00    +0.000 N 
ATOM      2  C   UNL     1      46.964  34.113  41.423  0.00  0.00    +0.000 C 
ATOM      3  C   UNL     1      47.098  34.006  39.936  0.00  0.00    +0.000 C 
ATOM      4  N   UNL     1      46.044  33.389  39.248  0.00  0.00    +0.000 NA
ATOM      5  C   UNL     1      44.763  33.455  39.791  0.00  0.00    +0.000 C 
ATOM      6  C   UNL     1      44.663  34.607  40.794  0.00  0.00    +0.000 C 
ATOM      7  H   UNL     1      47.268  33.161  41.877  0.00  0.00    +0.000 HD
ATOM      8  H   UNL     1      48.038  33.459  39.712  0.00  0.00    +0.000 HD
ATOM      9  H   UNL     1      47.236  35.035  39.522  0.00  0.00    +0.000 HD
ATOM     10  H   UNL     1      46.019  33.729  38.249  0.00  0.00    +0.000 HD
ATOM     11  H   UNL     1      44.575  32.534  40.391  0.00  0.00    +0.000 HD
ATOM     12  H   UNL     1      43.922  33.510  39.076  0.00  0.00    +0.000 HD
ATOM     13  H   UNL     1      44.925  35.541  40.255  0.00  0.00    +0.000 HD
ATOM     14  H   UNL     1      43.629  34.687  41.203  0.00  0.00    +0.000 HD
ENDROOT
BRANCH   1  16
ATOM     15  C   UNL     1      44.724  35.616  43.703  0.00  0.00    +0.000 A 
ATOM     16  C   UNL     1      45.377  34.493  43.229  0.00  0.00    +0.000 A 
ATOM     17  C   UNL     1      45.753  33.512  44.176  0.00  0.00    +0.000 A 
ATOM     18  N   UNL     1      45.467  33.704  45.485  0.00  0.00    +0.000 NA
ATOM     19  C   UNL     1      44.832  34.810  45.900  0.00  0.00    +0.000 A 
ATOM     20  N   UNL     1      44.468  35.745  45.030  0.00  0.00    +0.000 NA
ATOM     21  H   UNL     1      44.409  36.404  43.034  0.00  0.00    +0.000 HD
ATOM     22  H   UNL     1      46.257  32.663  43.738  0.00  0.00    +0.000 HD
ATOM     23  H   UNL     1      44.658  34.853  46.967  0.00  0.00    +0.000 HD
ENDBRANCH   1  16
BRANCH   2  24
ATOM     24  C   UNL     1      47.838  35.262  41.858  0.00  0.00    +0.000 C 
ATOM     25  H   UNL     1      47.737  35.438  42.962  0.00  0.00    +0.000 HD
ATOM     26  H   UNL     1      47.469  36.173  41.333  0.00  0.00    +0.000 HD
BRANCH  24  27
ATOM     27  C   UNL     1      49.280  35.123  41.512  0.00  0.00    +0.000 C 
ATOM     28  C   UNL     1      50.065  36.129  42.312  0.00  0.00    +0.000 C 
ATOM     29  C   UNL     1      51.260  35.599  43.015  0.00  0.00    +0.000 C 
ATOM     30  C   UNL     1      52.029  34.523  42.344  0.00  0.00    +0.000 C 
ATOM     31  C   UNL     1      51.263  33.755  41.307  0.00  0.00    +0.000 C 
ATOM     32  C   UNL     1      49.814  33.726  41.749  0.00  0.00    +0.000 C 
ENDBRANCH  24  27
ENDBRANCH   2  24
TORSDOF 3
