
     RDKit          3D

 55 58  0  0  0  0  0  0  0  0999 V2000
   43.1982   33.2309   41.1641 C   0  0  0  0  0  0  0  0  0  0  0  0
   44.2285   34.0778   41.7862 C   0  0  0  0  0  0  0  0  0  0  0  0
   43.8837   35.2585   42.4012 C   0  0  0  0  0  0  0  0  0  0  0  0
   44.8878   36.0312   42.9609 C   0  0  0  0  0  0  0  0  0  0  0  0
   46.1781   35.5748   42.8737 N   0  0  0  0  0  0  0  0  0  0  0  0
   46.4720   34.4279   42.2734 C   0  0  0  0  0  0  0  0  0  0  0  0
   45.4857   33.7042   41.7410 N   0  0  0  0  0  0  0  0  0  0  0  0
   47.8726   34.0092   42.2566 C   0  0  0  0  0  0  0  0  0  0  0  0
   48.2046   32.6774   42.0279 C   0  0  0  0  0  0  0  0  0  0  0  0
   49.5262   32.2857   42.0254 C   0  0  0  0  0  0  0  0  0  0  0  0
   50.4205   33.2978   42.2598 C   0  0  0  0  0  0  0  0  0  0  0  0
   50.1446   34.6472   42.4946 C   0  0  0  0  0  0  0  0  0  0  0  0
   48.8186   34.9408   42.4787 N   0  0  0  0  0  0  0  0  0  0  0  0
   41.8999   33.9555   41.2146 C   0  0  0  0  0  0  0  0  0  0  0  0
   41.0031   33.5020   40.3388 N   0  0  0  0  0  0  0  0  0  0  0  0
   40.3354   32.2453   40.3311 C   0  0  0  0  0  0  0  0  0  0  0  0
   38.9539   32.7101   40.7914 C   0  0  0  0  0  0  0  0  0  0  0  0
   38.3328   33.6843   39.9115 C   0  0  0  0  0  0  0  0  0  0  0  0
   39.1680   34.4984   39.0551 C   0  0  0  0  0  0  0  0  0  0  0  0
   40.6645   34.4593   39.2553 C   0  0  0  0  0  0  0  0  0  0  0  0
   41.7632   35.4406   38.3538 S   0  0  0  0  0  0  0  0  0  0  0  0
   43.1022   32.2955   41.7882 H   0  0  0  0  0  0  0  0  0  0  0  0
   43.4661   32.9485   40.1292 H   0  0  0  0  0  0  0  0  0  0  0  0
   42.9534   35.7676   42.5849 H   0  0  0  0  0  0  0  0  0  0  0  0
   44.8087   36.9836   43.4804 H   0  0  0  0  0  0  0  0  0  0  0  0
   47.4425   31.9190   41.8477 H   0  0  0  0  0  0  0  0  0  0  0  0
   49.8817   31.2801   41.8581 H   0  0  0  0  0  0  0  0  0  0  0  0
   51.4848   33.0345   42.2676 H   0  0  0  0  0  0  0  0  0  0  0  0
   50.9152   35.3559   42.6666 H   0  0  0  0  0  0  0  0  0  0  0  0
   42.1855   35.0516   41.0612 H   0  0  0  0  0  0  0  0  0  0  0  0
   41.5340   33.9408   42.2650 H   0  0  0  0  0  0  0  0  0  0  0  0
   40.7599   31.6558   41.1929 H   0  0  0  0  0  0  0  0  0  0  0  0
   40.3363   31.6510   39.4334 H   0  0  0  0  0  0  0  0  0  0  0  0
   38.3479   31.7763   40.8765 H   0  0  0  0  0  0  0  0  0  0  0  0
   39.0946   33.0601   41.8502 H   0  0  0  0  0  0  0  0  0  0  0  0
   37.5930   33.1615   39.2366 H   0  0  0  0  0  0  0  0  0  0  0  0
   37.6831   34.3720   40.5137 H   0  0  0  0  0  0  0  0  0  0  0  0
   38.8449   35.1550   38.2972 H   0  0  0  0  0  0  0  0  0  0  0  0
   41.1398   36.5394   37.1200 C   0  0  0  0  0  0  0  0  0  0  0  0
   39.9889   36.0498   36.2963 C   0  0  0  0  0  0  0  0  0  0  0  0
   39.8038   37.0051   35.1307 C   0  0  0  0  0  0  0  0  0  0  0  0
   40.2195   38.4224   35.4700 C   0  0  0  0  0  0  0  0  0  0  0  0
   41.6989   38.5018   35.7899 C   0  0  0  0  0  0  0  0  0  0  0  0
   42.1859   37.0954   36.1673 C   0  0  0  0  0  0  0  0  0  0  0  0
   40.7277   37.4490   37.6763 H   0  0  0  0  0  0  0  0  0  0  0  0
   40.1288   35.0438   35.8853 H   0  0  0  0  0  0  0  0  0  0  0  0
   39.0495   36.1062   36.8860 H   0  0  0  0  0  0  0  0  0  0  0  0
   40.3768   36.7029   34.2307 H   0  0  0  0  0  0  0  0  0  0  0  0
   38.7499   37.0789   34.7976 H   0  0  0  0  0  0  0  0  0  0  0  0
   39.5912   38.8778   36.2596 H   0  0  0  0  0  0  0  0  0  0  0  0
   40.0557   39.0124   34.5459 H   0  0  0  0  0  0  0  0  0  0  0  0
   41.9003   39.1289   36.6774 H   0  0  0  0  0  0  0  0  0  0  0  0
   42.3045   38.8725   34.9440 H   0  0  0  0  0  0  0  0  0  0  0  0
   43.1961   37.0941   36.5725 H   0  0  0  0  0  0  0  0  0  0  0  0
   42.1984   36.5483   35.1909 H   0  0  0  0  0  0  0  0  0  0  0  0
  1 14  1  0
  1  2  1  0
  2  3  2  0
  3  4  1  0
  5  4  2  0
  6  5  1  0
  7  2  1  0
  7  6  2  0
  8  6  1  0
  8 13  1  0
  9  8  2  0
 10  9  1  0
 10 11  2  0
 11 12  1  0
 13 12  2  0
 15 14  1  0
 16 15  1  0
 16 17  1  0
 18 17  1  0
 19 20  2  0
 19 18  1  0
 20 15  1  0
 21 20  1  0
  1 22  1  0
  1 23  1  0
  3 24  1  0
  4 25  1  0
  9 26  1  0
 10 27  1  0
 11 28  1  0
 12 29  1  0
 14 30  1  0
 14 31  1  0
 16 32  1  0
 16 33  1  0
 17 34  1  0
 17 35  1  0
 18 36  1  0
 18 37  1  0
 19 38  1  0
 39 40  1  0
 40 41  1  0
 41 42  1  0
 42 43  1  0
 43 44  1  0
 44 39  1  0
 39 45  1  0
 40 46  1  0
 40 47  1  0
 41 48  1  0
 41 49  1  0
 42 50  1  0
 42 51  1  0
 43 52  1  0
 43 53  1  0
 44 54  1  0
 44 55  1  0
 21 39  1  0
M  ISO  8  22   8  23   8  24  14  25  14  26  14  27  14  28  14  29  14
M  ISO  8  30   8  31   8  32  13  33  13  34  13  35  13  36  13  37  13
M  ISO  1  38  13
M  END
>  <DihAtoms>  (1) 
19,20,38,39

>  <DihDeg>  (1) 
66.94366861289711

$$$$
