REMARK  Name = 
REMARK  3 active torsions:
REMARK  status: ('A' for Active; 'I' for Inactive)
REMARK    1  A    between atoms: C_2  and  C_14
REMARK    2  A    between atoms: C_10  and  C_16
REMARK    3  A    between atoms: C_16  and  C_26
REMARK                            x       y       z     vdW  Elec       q    Type
REMARK                         _______ _______ _______ _____ _____    ______ ____
ROOT
ATOM      1  C   UNL     1      46.891  34.928  42.630  0.00  0.00    +0.000 A 
ATOM      2  C   UNL     1      45.977  35.959  42.541  0.00  0.00    +0.000 A 
ATOM      3  C   UNL     1      44.968  35.995  43.493  0.00  0.00    +0.000 A 
ATOM      4  N   UNL     1      44.927  35.032  44.450  0.00  0.00    +0.000 NA
ATOM      5  C   UNL     1      45.845  34.044  44.495  0.00  0.00    +0.000 A 
ATOM      6  N   UNL     1      46.835  33.977  43.590  0.00  0.00    +0.000 NA
ATOM      7  H   UNL     1      46.018  36.725  41.771  0.00  0.00    +0.000 HD
ATOM      8  H   UNL     1      44.201  36.762  43.513  0.00  0.00    +0.000 HD
ENDROOT
BRANCH   5  10
ATOM      9  C   UNL     1      46.030  31.688  45.131  0.00  0.00    +0.000 A 
ATOM     10  C   UNL     1      45.794  33.003  45.535  0.00  0.00    +0.000 A 
ATOM     11  C   UNL     1      45.529  33.285  46.855  0.00  0.00    +0.000 A 
ATOM     12  C   UNL     1      45.498  32.258  47.776  0.00  0.00    +0.000 A 
ATOM     13  N   UNL     1      45.275  32.214  49.090  0.00  0.00    +0.000 N 
ATOM     14  C   UNL     1      45.356  30.943  49.541  0.00  0.00    +0.000 A 
ATOM     15  C   UNL     1      45.643  30.113  48.490  0.00  0.00    +0.000 A 
ATOM     16  C   UNL     1      45.731  30.941  47.389  0.00  0.00    +0.000 A 
ATOM     17  C   UNL     1      45.998  30.662  46.055  0.00  0.00    +0.000 A 
ATOM     18  H   UNL     1      46.242  31.425  44.105  0.00  0.00    +0.000 HD
ATOM     19  H   UNL     1      45.353  34.315  47.121  0.00  0.00    +0.000 HD
ATOM     20  H   UNL     1      45.064  33.066  49.689  0.00  0.00    +0.000 HD
ATOM     21  H   UNL     1      45.229  30.563  50.544  0.00  0.00    +0.000 HD
ATOM     22  H   UNL     1      45.776  29.035  48.503  0.00  0.00    +0.000 HD
ATOM     23  H   UNL     1      46.181  29.643  45.741  0.00  0.00    +0.000 HD
ENDBRANCH   5  10
BRANCH   1  24
ATOM     24  C   UNL     1      47.929  34.930  41.613  0.00  0.00    +0.000 C 
ATOM     25  O   UNL     1      48.817  35.851  41.501  0.00  0.00    +0.000 OA
BRANCH  24  26
ATOM     26  C   UNL     1      47.892  33.764  40.691  0.00  0.00    +0.000 C 
ATOM     27  C   UNL     1      49.227  33.696  39.938  0.00  0.00    +0.000 C 
ATOM     28  C   UNL     1      49.261  32.538  38.997  0.00  0.00    +0.000 C 
ATOM     29  C   UNL     1      47.919  31.848  38.873  0.00  0.00    +0.000 C 
ATOM     30  C   UNL     1      46.783  32.830  38.678  0.00  0.00    +0.000 C 
ATOM     31  C   UNL     1      46.830  33.973  39.639  0.00  0.00    +0.000 C 
ENDBRANCH  24  26
ENDBRANCH   1  24
TORSDOF 3
