
 OpenBabel03252509273D

 27 29  0  0  1  0  0  0  0  0999 V2000
   46.8520   35.1520   41.8880 C   0  0  1  0  0  0  0  0  0  0  0  0
   48.3430   35.5880   41.9720 C   0  0  0  0  0  0  0  0  0  0  0  0
   47.7870   34.3070   41.2710 C   0  0  2  0  0  0  0  0  0  0  0  0
   46.2210   35.8750   41.3290 H   0  0  0  0  0  0  0  0  0  0  0  0
   48.6450   36.3690   41.2450 H   0  0  0  0  0  0  0  0  0  0  0  0
   48.8800   35.4740   42.9080 H   0  0  0  0  0  0  0  0  0  0  0  0
   48.0930   33.3760   41.8430 H   0  0  0  0  0  0  0  0  0  0  0  0
   44.8190   35.0730   45.0420 C   0  0  0  0  0  0  0  0  0  0  0  0
   45.2790   35.5140   43.7680 C   0  0  0  0  0  0  0  0  0  0  0  0
   46.3230   34.8130   43.2610 C   0  0  0  0  0  0  0  0  0  0  0  0
   46.8930   33.7540   43.9340 N   0  0  0  0  0  0  0  0  0  0  0  0
   46.4280   33.3650   45.1480 C   0  0  0  0  0  0  0  0  0  0  0  0
   45.3800   34.0350   45.6990 N   0  0  0  0  0  0  0  0  0  0  0  0
   43.9760   35.6420   45.4480 H   0  0  0  0  0  0  0  0  0  0  0  0
   46.8390   32.5500   45.7050 H   0  0  0  0  0  0  0  0  0  0  0  0
   44.7120   36.6140   43.0820 N   0  0  0  0  0  0  0  0  0  0  0  0
   44.0910   36.5850   42.2260 H   0  0  0  0  0  0  0  0  0  0  0  0
   44.8580   37.6280   43.3700 H   0  0  0  0  0  0  0  0  0  0  0  0
   47.9160   34.2160   39.7640 C   0  0  0  0  0  0  0  0  0  0  0  0
   46.9050   34.2280   39.3020 H   0  0  0  0  0  0  0  0  0  0  0  0
   48.4780   35.1140   39.3980 H   0  0  0  0  0  0  0  0  0  0  0  0
   48.6430   32.9330   39.4090 C   0  0  0  0  0  3  0  0  0  0  0  0
   49.4160   32.3950   40.5590 C   0  0  0  0  0  2  0  0  0  0  0  0
   49.5300   30.9280   40.6920 C   0  0  0  0  0  2  0  0  0  0  0  0
   49.2430   30.2590   39.3630 C   0  0  0  0  0  2  0  0  0  0  0  0
   47.7790   30.5760   39.1160 C   0  0  0  0  0  2  0  0  0  0  0  0
   47.7100   32.0230   38.7210 C   0  0  0  0  0  2  0  0  0  0  0  0
  1  4  1  6  0  0  0
  1  2  1  0  0  0  0
  1 10  1  0  0  0  0
  2  6  1  0  0  0  0
  3  7  1  1  0  0  0
  3  1  1  0  0  0  0
  3  2  1  0  0  0  0
  5  2  1  0  0  0  0
  8 14  1  0  0  0  0
  8 13  1  0  0  0  0
  9  8  2  0  0  0  0
 10  9  1  0  0  0  0
 10 11  2  0  0  0  0
 11 12  1  0  0  0  0
 12 13  2  0  0  0  0
 12 15  1  0  0  0  0
 16 18  1  0  0  0  0
 16  9  1  0  0  0  0
 17 16  1  0  0  0  0
 19  3  1  0  0  0  0
 20 19  1  0  0  0  0
 21 19  1  0  0  0  0
 22 19  1  0  0  0  0
 22 23  1  0  0  0  0
 23 24  1  0  0  0  0
 25 24  1  0  0  0  0
 26 25  1  0  0  0  0
 27 26  1  0  0  0  0
 27 22  1  0  0  0  0
M  END
>  <minimizedAffinity>
-4.53286982

>  <minimizedRMSD>
0.347539008

$$$$
