
     RDKit          3D

 26 27  0  0  0  0  0  0  0  0999 V2000
   44.6402   35.9923   44.3770 C   0  0  0  0  0  0  0  0  0  0  0  0
   45.4333   35.6399   43.2703 C   0  0  0  0  0  0  0  0  0  0  0  0
   46.2235   34.4923   43.3729 C   0  0  0  0  0  0  0  0  0  0  0  0
   46.1826   33.7818   44.5328 N   0  0  0  0  0  0  0  0  0  0  0  0
   45.4096   34.1444   45.5823 C   0  0  0  0  0  0  0  0  0  0  0  0
   44.6347   35.2533   45.5066 N   0  0  0  0  0  0  0  0  0  0  0  0
   44.0151   36.8886   44.3134 H   0  0  0  0  0  0  0  0  0  0  0  0
   45.4456   36.2149   42.3749 H   0  0  0  0  0  0  0  0  0  0  0  0
   46.8653   34.1424   42.5755 H   0  0  0  0  0  0  0  0  0  0  0  0
   45.4225   33.3105   46.8175 C   0  0  0  0  0  0  0  0  0  0  0  0
   46.3758   33.9461   47.7569 C   0  0  0  0  0  0  0  0  0  0  0  0
   47.6931   33.2327   47.8876 C   0  0  0  0  0  0  0  0  0  0  0  0
   47.3701   31.8249   48.3138 C   0  0  0  0  0  0  0  0  0  0  0  0
   46.5578   31.0899   47.3127 C   0  0  0  0  0  0  0  0  0  0  0  0
   45.6767   31.9002   46.4397 C   0  0  0  0  0  0  0  0  0  0  0  0
   44.3958   33.4355   47.2564 H   0  0  0  0  0  0  0  0  0  0  0  0
   46.6084   35.0015   47.4991 H   0  0  0  0  0  0  0  0  0  0  0  0
   45.9502   34.0178   48.7960 H   0  0  0  0  0  0  0  0  0  0  0  0
   48.2296   33.1934   46.9458 H   0  0  0  0  0  0  0  0  0  0  0  0
   48.2140   33.7060   48.7390 H   0  0  0  0  0  0  0  0  0  0  0  0
   46.8530   31.8066   49.3068 H   0  0  0  0  0  0  0  0  0  0  0  0
   48.3377   31.3138   48.4999 H   0  0  0  0  0  0  0  0  0  0  0  0
   47.2674   30.4583   46.7095 H   0  0  0  0  0  0  0  0  0  0  0  0
   45.9741   30.3016   47.8760 H   0  0  0  0  0  0  0  0  0  0  0  0
   46.0546   31.8320   45.3958 H   0  0  0  0  0  0  0  0  0  0  0  0
   44.6820   31.3801   46.3748 H   0  0  0  0  0  0  0  0  0  0  0  0
  1  6  2  0
  2  3  2  0
  2  1  1  0
  3  4  1  0
  4  5  2  0
  6  5  1  0
  1  7  1  0
  2  8  1  0
  3  9  1  0
 10 11  1  0
 11 12  1  0
 12 13  1  0
 13 14  1  0
 14 15  1  0
 15 10  1  0
 10 16  1  0
 11 17  1  0
 11 18  1  0
 12 19  1  0
 12 20  1  0
 13 21  1  0
 13 22  1  0
 14 23  1  0
 14 24  1  0
 15 25  1  0
 15 26  1  0
  5 10  1  0
M  ISO  3   7  14   8  14   9  14
M  END
>  <DihAtoms>  (1) 
3,4,9,10

>  <DihDeg>  (1) 
-113.31559232805266

$$$$
