
 OpenBabel03242511473D

 41 43  0  0  0  0  0  0  0  0999 V2000
   45.9520   32.3490   44.5740 C   0  0  0  0  0  0  0  0  0  0  0  0
   46.5950   31.9100   43.7800 H   0  0  0  0  0  0  0  0  0  0  0  0
   45.1220   31.6220   44.7800 H   0  0  0  0  0  0  0  0  0  0  0  0
   44.6260   35.7640   44.6620 C   0  0  0  0  0  0  0  0  0  0  0  0
   44.1000   35.9180   43.3570 C   0  0  0  0  0  0  0  0  0  0  0  0
   44.2240   34.8430   42.5040 C   0  0  0  0  0  0  0  0  0  0  0  0
   44.8250   33.7110   42.9270 N   0  0  0  0  0  0  0  0  0  0  0  0
   45.3070   33.6200   44.1820 C   0  0  0  0  0  0  0  0  0  0  0  0
   45.2220   34.6070   45.0430 N   0  0  0  0  0  0  0  0  0  0  0  0
   44.5690   36.5570   45.3890 H   0  0  0  0  0  0  0  0  0  0  0  0
   43.6440   36.8810   43.1480 H   0  0  0  0  0  0  0  0  0  0  0  0
   43.6690   35.0180   41.1370 C   0  0  0  0  0  0  0  0  0  0  0  0
   43.7980   34.1280   40.5210 H   0  0  0  0  0  0  0  0  0  0  0  0
   44.3090   35.8200   40.6720 H   0  0  0  0  0  0  0  0  0  0  0  0
   42.2400   35.5180   41.1720 C   0  0  0  0  0  0  0  0  0  0  0  0
   41.8840   35.3780   42.2120 H   0  0  0  0  0  0  0  0  0  0  0  0
   42.2400   36.6070   40.9670 H   0  0  0  0  0  0  0  0  0  0  0  0
   41.3320   34.8090   40.1970 C   0  0  0  0  0  0  0  0  0  0  0  0
   41.0560   35.7710   39.0340 C   0  0  0  0  0  0  0  0  0  0  0  0
   40.4740   35.0190   37.8740 C   0  0  0  0  0  0  0  0  0  0  0  0
   39.4050   34.0930   38.3970 C   0  0  0  0  0  0  0  0  0  0  0  0
   38.9130   34.5780   39.7380 C   0  0  0  0  0  0  0  0  0  0  0  0
   40.0050   34.4580   40.7810 C   0  0  0  0  0  0  0  0  0  0  0  0
   46.7220   32.5620   45.8520 C   0  0  0  0  0  0  0  0  0  0  0  0
   47.7820   32.2530   45.6680 H   0  0  0  0  0  0  0  0  0  0  0  0
   46.7860   33.6530   46.1080 H   0  0  0  0  0  0  0  0  0  0  0  0
   46.1440   31.8470   46.9670 C   0  0  0  0  0  0  0  0  0  0  0  0
   45.3460   32.3230   47.9740 C   0  0  0  0  0  0  0  0  0  0  0  0
   44.8520   31.5550   48.9810 C   0  0  0  0  0  0  0  0  0  0  0  0
   45.1720   30.2150   48.9920 C   0  0  0  0  0  0  0  0  0  0  0  0
   45.9710   29.7190   47.9890 C   0  0  0  0  0  0  0  0  0  0  0  0
   46.4600   30.5210   46.9790 C   0  0  0  0  0  0  0  0  0  0  0  0
   45.1180   33.3890   47.9250 H   0  0  0  0  0  0  0  0  0  0  0  0
   44.2340   32.0550   49.7140 H   0  0  0  0  0  0  0  0  0  0  0  0
   44.7450   29.6510   49.8250 H   0  0  0  0  0  0  0  0  0  0  0  0
   46.1270   28.6430   48.1470 H   0  0  0  0  0  0  0  0  0  0  0  0
   48.6110   29.4780   46.5680 C   0  0  0  0  0  0  0  0  0  0  0  0
   49.3620   29.8010   47.5550 O   0  0  0  0  0  0  0  0  0  0  0  0
   47.2560   29.6900   46.1150 N   0  0  0  0  0  0  0  0  0  0  0  0
   49.4350   28.9230   46.1280 H   0  0  0  0  0  0  0  0  0  0  0  0
   47.0780   29.1940   45.2170 H   0  0  0  0  0  0  0  0  0  0  0  0
  1  3  1  0  0  0  0
  1 24  1  0  0  0  0
  2  1  1  0  0  0  0
  4  9  1  0  0  0  0
  4 10  1  0  0  0  0
  5  4  2  0  0  0  0
  6  7  2  0  0  0  0
  6  5  1  0  0  0  0
  7  8  1  0  0  0  0
  8  1  1  0  0  0  0
  8  9  2  0  0  0  0
 11  5  1  0  0  0  0
 12 15  1  0  0  0  0
 12  6  1  0  0  0  0
 13 12  1  0  0  0  0
 14 12  1  0  0  0  0
 15 16  1  0  0  0  0
 17 15  1  0  0  0  0
 18 23  1  0  0  0  0
 18 15  1  0  0  0  0
 19 18  1  0  0  0  0
 20 21  1  0  0  0  0
 20 19  1  0  0  0  0
 21 22  1  0  0  0  0
 22 23  1  0  0  0  0
 24 26  1  0  0  0  0
 24 27  1  0  0  0  0
 25 24  1  0  0  0  0
 27 32  2  0  0  0  0
 27 28  1  0  0  0  0
 28 29  2  0  0  0  0
 29 30  1  0  0  0  0
 29 34  1  0  0  0  0
 30 35  1  0  0  0  0
 31 36  1  0  0  0  0
 31 30  2  0  0  0  0
 32 31  1  0  0  0  0
 33 28  1  0  0  0  0
 37 38  2  0  0  0  0
 39 37  1  0  0  0  0
 39 32  1  0  0  0  0
 40 37  1  0  0  0  0
 41 39  1  0  0  0  0
M  END
>  <minimizedAffinity>
-6.29439926

>  <minimizedRMSD>
0.950186431

$$$$
