
 OpenBabel03252506583D

 35 39  0  0  0  0  0  0  0  0999 V2000
   40.7130   30.9570   40.5470 C   0  0  0  0  0  0  0  0  0  0  0  0
   40.4530   32.1210   39.8470 C   0  0  0  0  0  0  0  0  0  0  0  0
   39.1830   32.6500   39.6950 C   0  0  0  0  0  0  0  0  0  0  0  0
   38.0970   31.9970   40.2670 C   0  0  0  0  0  0  0  0  0  0  0  0
   36.7520   32.2090   40.3280 N   0  0  0  0  0  0  0  0  0  0  0  0
   36.2000   31.2030   41.0470 C   0  0  0  0  0  0  0  0  0  0  0  0
   37.2060   30.3820   41.4230 N   0  0  0  0  0  0  0  0  0  0  0  0
   38.3700   30.8450   40.9600 C   0  0  0  0  0  0  0  0  0  0  0  0
   39.6170   30.3040   41.1220 C   0  0  0  0  0  0  0  0  0  0  0  0
   41.7080   30.5730   40.6470 H   0  0  0  0  0  0  0  0  0  0  0  0
   38.9950   33.5540   39.1490 H   0  0  0  0  0  0  0  0  0  0  0  0
   36.2890   33.0420   39.8670 H   0  0  0  0  0  0  0  0  0  0  0  0
   35.1380   31.1340   41.2450 H   0  0  0  0  0  0  0  0  0  0  0  0
   42.4980   33.9580   37.3920 C   0  0  0  0  0  0  0  0  0  0  0  0
   43.6860   34.1610   38.0750 C   0  0  0  0  0  0  0  0  0  0  0  0
   43.7940   33.6700   39.3810 C   0  0  0  0  0  0  0  0  0  0  0  0
   42.7200   33.0130   39.9180 N   0  0  0  0  0  0  0  0  0  0  0  0
   41.5810   32.8310   39.2320 C   0  0  0  0  0  0  0  0  0  0  0  0
   41.4590   33.2980   37.9710 N   0  0  0  0  0  0  0  0  0  0  0  0
   42.3690   34.3260   36.3670 H   0  0  0  0  0  0  0  0  0  0  0  0
   44.5080   34.6800   37.6260 H   0  0  0  0  0  0  0  0  0  0  0  0
   44.7050   33.8030   39.9610 H   0  0  0  0  0  0  0  0  0  0  0  0
   39.8100   29.0580   41.8850 C   0  0  0  0  0  0  0  0  0  0  0  0
   40.8910   28.8250   42.7290 C   0  0  0  0  0  0  0  0  0  0  0  0
   40.6370   27.5280   43.2160 C   0  0  0  0  0  0  0  0  0  0  0  0
   39.4570   27.0760   42.6540 C   0  0  0  0  0  0  0  0  0  0  0  0
   39.0070   28.0370   41.8640 O   0  0  0  0  0  0  0  0  0  0  0  0
   41.7310   29.4700   42.9660 H   0  0  0  0  0  0  0  0  0  0  0  0
   41.2590   26.9840   43.9110 H   0  0  0  0  0  0  0  0  0  0  0  0
   38.7700   25.7600   42.8610 C   0  0  0  0  0  3  0  0  0  0  0  0
   39.5740   24.6210   42.3050 C   0  0  0  0  0  2  0  0  0  0  0  0
   39.1160   24.2000   40.9290 C   0  0  0  0  0  2  0  0  0  0  0  0
   37.6930   23.6970   40.9640 C   0  0  0  0  0  2  0  0  0  0  0  0
   36.8850   24.4270   41.9960 C   0  0  0  0  0  2  0  0  0  0  0  0
   37.3800   25.8170   42.2930 C   0  0  0  0  0  2  0  0  0  0  0  0
  1 10  1  0  0  0  0
  1  9  1  0  0  0  0
  2  1  2  0  0  0  0
  3  2  1  0  0  0  0
  3  4  2  0  0  0  0
  4  5  1  0  0  0  0
  4  8  1  0  0  0  0
  5  6  1  0  0  0  0
  6 13  1  0  0  0  0
  6  7  2  0  0  0  0
  8  9  2  0  0  0  0
  8  7  1  0  0  0  0
  9 23  1  0  0  0  0
 11  3  1  0  0  0  0
 12  5  1  0  0  0  0
 14 19  2  0  0  0  0
 14 15  1  0  0  0  0
 15 16  2  0  0  0  0
 16 17  1  0  0  0  0
 16 22  1  0  0  0  0
 18  2  1  0  0  0  0
 18 17  2  0  0  0  0
 19 18  1  0  0  0  0
 20 14  1  0  0  0  0
 21 15  1  0  0  0  0
 23 24  2  0  0  0  0
 24 28  1  0  0  0  0
 24 25  1  0  0  0  0
 25 29  1  0  0  0  0
 26 30  1  0  0  0  0
 26 25  2  0  0  0  0
 27 23  1  0  0  0  0
 27 26  1  0  0  0  0
 31 30  1  0  0  0  0
 32 33  1  0  0  0  0
 32 31  1  0  0  0  0
 33 34  1  0  0  0  0
 34 35  1  0  0  0  0
 35 30  1  0  0  0  0
M  END
>  <minimizedAffinity>
-6.4704771

$$$$

 OpenBabel03252506583D

 35 39  0  0  0  0  0  0  0  0999 V2000
   40.9600   30.3510   39.0600 C   0  0  0  0  0  0  0  0  0  0  0  0
   41.4770   31.3630   38.2730 C   0  0  0  0  0  0  0  0  0  0  0  0
   41.0390   32.6750   38.3340 C   0  0  0  0  0  0  0  0  0  0  0  0
   40.0280   33.0170   39.2250 C   0  0  0  0  0  0  0  0  0  0  0  0
   39.3640   34.1610   39.5550 N   0  0  0  0  0  0  0  0  0  0  0  0
   38.4630   33.8600   40.5200 C   0  0  0  0  0  0  0  0  0  0  0  0
   38.5780   32.5380   40.7770 N   0  0  0  0  0  0  0  0  0  0  0  0
   39.5260   32.0040   40.0000 C   0  0  0  0  0  0  0  0  0  0  0  0
   39.9430   30.7010   39.9560 C   0  0  0  0  0  0  0  0  0  0  0  0
   41.3200   29.3450   38.9890 H   0  0  0  0  0  0  0  0  0  0  0  0
   41.4490   33.4500   37.7180 H   0  0  0  0  0  0  0  0  0  0  0  0
   39.5720   35.0900   39.0930 H   0  0  0  0  0  0  0  0  0  0  0  0
   37.8020   34.5960   40.9590 H   0  0  0  0  0  0  0  0  0  0  0  0
   43.3250   29.7350   35.5310 C   0  0  0  0  0  0  0  0  0  0  0  0
   44.5380   30.4020   35.5410 C   0  0  0  0  0  0  0  0  0  0  0  0
   44.7310   31.4140   36.4880 C   0  0  0  0  0  0  0  0  0  0  0  0
   43.7110   31.6940   37.3570 N   0  0  0  0  0  0  0  0  0  0  0  0
   42.5450   31.0300   37.3230 C   0  0  0  0  0  0  0  0  0  0  0  0
   42.3410   30.0500   36.4160 N   0  0  0  0  0  0  0  0  0  0  0  0
   43.1290   28.9350   34.8060 H   0  0  0  0  0  0  0  0  0  0  0  0
   45.3170   30.1590   34.8480 H   0  0  0  0  0  0  0  0  0  0  0  0
   45.6660   31.9700   36.5390 H   0  0  0  0  0  0  0  0  0  0  0  0
   39.3390   29.6800   40.8300 C   0  0  0  0  0  0  0  0  0  0  0  0
   39.6720   29.5120   42.1710 C   0  0  0  0  0  0  0  0  0  0  0  0
   38.8500   28.4400   42.5680 C   0  0  0  0  0  0  0  0  0  0  0  0
   38.0960   28.0430   41.4770 C   0  0  0  0  0  0  0  0  0  0  0  0
   38.4330   28.8230   40.4650 O   0  0  0  0  0  0  0  0  0  0  0  0
   40.3860   30.0600   42.7770 H   0  0  0  0  0  0  0  0  0  0  0  0
   38.8150   28.0060   43.5560 H   0  0  0  0  0  0  0  0  0  0  0  0
   37.0780   26.9460   41.3980 C   0  0  0  0  0  3  0  0  0  0  0  0
   37.2020   25.9890   42.5470 C   0  0  0  0  0  2  0  0  0  0  0  0
   37.9910   24.7500   42.1910 C   0  0  0  0  0  2  0  0  0  0  0  0
   37.3030   23.9670   41.1000 C   0  0  0  0  0  2  0  0  0  0  0  0
   36.5840   24.8780   40.1490 C   0  0  0  0  0  2  0  0  0  0  0  0
   37.1700   26.2620   40.0640 C   0  0  0  0  0  2  0  0  0  0  0  0
  1  9  1  0  0  0  0
  2  3  1  0  0  0  0
  2  1  2  0  0  0  0
  3  4  2  0  0  0  0
  4  5  1  0  0  0  0
  4  8  1  0  0  0  0
  5  6  1  0  0  0  0
  6  7  2  0  0  0  0
  6 13  1  0  0  0  0
  8  7  1  0  0  0  0
  9  8  2  0  0  0  0
  9 23  1  0  0  0  0
 10  1  1  0  0  0  0
 11  3  1  0  0  0  0
 12  5  1  0  0  0  0
 14 15  2  0  0  0  0
 14 19  1  0  0  0  0
 15 16  1  0  0  0  0
 16 22  1  0  0  0  0
 16 17  2  0  0  0  0
 18 17  1  0  0  0  0
 18  2  1  0  0  0  0
 19 18  2  0  0  0  0
 20 14  1  0  0  0  0
 21 15  1  0  0  0  0
 23 24  2  0  0  0  0
 24 25  1  0  0  0  0
 24 28  1  0  0  0  0
 25 29  1  0  0  0  0
 26 25  2  0  0  0  0
 27 23  1  0  0  0  0
 27 26  1  0  0  0  0
 30 26  1  0  0  0  0
 30 31  1  0  0  0  0
 32 31  1  0  0  0  0
 33 32  1  0  0  0  0
 34 33  1  0  0  0  0
 35 34  1  0  0  0  0
 35 30  1  0  0  0  0
M  END
>  <minimizedAffinity>
-6.26836491

$$$$

 OpenBabel03252506583D

 35 39  0  0  0  0  0  0  0  0999 V2000
   36.6190   25.4200   40.2630 C   0  0  0  0  0  0  0  0  0  0  0  0
   36.7580   24.0440   40.2620 C   0  0  0  0  0  0  0  0  0  0  0  0
   37.6610   23.3700   41.0660 C   0  0  0  0  0  0  0  0  0  0  0  0
   38.4810   24.0900   41.9280 C   0  0  0  0  0  0  0  0  0  0  0  0
   39.4510   23.7840   42.8340 N   0  0  0  0  0  0  0  0  0  0  0  0
   39.8970   24.9420   43.3790 C   0  0  0  0  0  0  0  0  0  0  0  0
   39.2000   25.9480   42.8050 N   0  0  0  0  0  0  0  0  0  0  0  0
   38.3310   25.4530   41.9190 C   0  0  0  0  0  0  0  0  0  0  0  0
   37.4460   26.1410   41.1330 C   0  0  0  0  0  0  0  0  0  0  0  0
   35.9110   25.9130   39.6300 H   0  0  0  0  0  0  0  0  0  0  0  0
   37.7580   22.3020   41.0560 H   0  0  0  0  0  0  0  0  0  0  0  0
   39.7530   22.7880   43.0270 H   0  0  0  0  0  0  0  0  0  0  0  0
   40.6740   24.9780   44.1310 H   0  0  0  0  0  0  0  0  0  0  0  0
   35.6080   22.1420   37.3220 C   0  0  0  0  0  0  0  0  0  0  0  0
   34.3160   21.7870   37.6740 C   0  0  0  0  0  0  0  0  0  0  0  0
   33.8310   22.1980   38.9200 C   0  0  0  0  0  0  0  0  0  0  0  0
   34.6570   22.9300   39.7310 N   0  0  0  0  0  0  0  0  0  0  0  0
   35.9050   23.2580   39.3630 C   0  0  0  0  0  0  0  0  0  0  0  0
   36.3910   22.8710   38.1640 N   0  0  0  0  0  0  0  0  0  0  0  0
   36.0310   21.8410   36.3560 H   0  0  0  0  0  0  0  0  0  0  0  0
   33.6950   21.2140   37.0170 H   0  0  0  0  0  0  0  0  0  0  0  0
   32.8230   21.9460   39.2450 H   0  0  0  0  0  0  0  0  0  0  0  0
   37.3600   27.6100   41.1940 C   0  0  0  0  0  0  0  0  0  0  0  0
   36.7820   28.3100   42.2490 C   0  0  0  0  0  0  0  0  0  0  0  0
   36.9360   29.6540   41.8570 C   0  0  0  0  0  0  0  0  0  0  0  0
   37.5770   29.6800   40.6310 C   0  0  0  0  0  0  0  0  0  0  0  0
   37.8050   28.4240   40.2840 O   0  0  0  0  0  0  0  0  0  0  0  0
   36.3220   27.9320   43.1550 H   0  0  0  0  0  0  0  0  0  0  0  0
   36.6100   30.5150   42.4220 H   0  0  0  0  0  0  0  0  0  0  0  0
   37.9640   30.8690   39.8060 C   0  0  0  0  0  3  0  0  0  0  0  0
   39.3360   31.3650   40.1580 C   0  0  0  0  0  2  0  0  0  0  0  0
   39.3060   32.5320   41.1180 C   0  0  0  0  0  2  0  0  0  0  0  0
   38.6040   33.7180   40.5040 C   0  0  0  0  0  2  0  0  0  0  0  0
   37.5000   33.2810   39.5880 C   0  0  0  0  0  2  0  0  0  0  0  0
   36.9150   31.9370   39.9300 C   0  0  0  0  0  2  0  0  0  0  0  0
  1  9  1  0  0  0  0
  2  1  2  0  0  0  0
  2  3  1  0  0  0  0
  3  4  2  0  0  0  0
  4  5  1  0  0  0  0
  5 12  1  0  0  0  0
  5  6  1  0  0  0  0
  6 13  1  0  0  0  0
  7  6  2  0  0  0  0
  8  4  1  0  0  0  0
  8  7  1  0  0  0  0
  9 23  1  0  0  0  0
  9  8  2  0  0  0  0
 10  1  1  0  0  0  0
 11  3  1  0  0  0  0
 14 15  2  0  0  0  0
 14 19  1  0  0  0  0
 15 16  1  0  0  0  0
 16 22  1  0  0  0  0
 16 17  2  0  0  0  0
 18 17  1  0  0  0  0
 18  2  1  0  0  0  0
 19 18  2  0  0  0  0
 20 14  1  0  0  0  0
 21 15  1  0  0  0  0
 23 24  2  0  0  0  0
 24 28  1  0  0  0  0
 25 24  1  0  0  0  0
 25 29  1  0  0  0  0
 26 25  2  0  0  0  0
 27 26  1  0  0  0  0
 27 23  1  0  0  0  0
 30 35  1  0  0  0  0
 30 31  1  0  0  0  0
 30 26  1  0  0  0  0
 31 32  1  0  0  0  0
 33 32  1  0  0  0  0
 34 35  1  0  0  0  0
 34 33  1  0  0  0  0
M  END
>  <minimizedAffinity>
-6.19475174

$$$$

 OpenBabel03252506583D

 35 39  0  0  0  0  0  0  0  0999 V2000
   39.8750   31.1380   40.4930 C   0  0  0  0  0  0  0  0  0  0  0  0
   40.7390   31.9910   39.8320 C   0  0  0  0  0  0  0  0  0  0  0  0
   40.5260   32.4400   38.5400 C   0  0  0  0  0  0  0  0  0  0  0  0
   39.3920   32.0260   37.8510 C   0  0  0  0  0  0  0  0  0  0  0  0
   38.8660   32.2510   36.6140 N   0  0  0  0  0  0  0  0  0  0  0  0
   37.7080   31.5550   36.5160 C   0  0  0  0  0  0  0  0  0  0  0  0
   37.5300   30.9090   37.6910 N   0  0  0  0  0  0  0  0  0  0  0  0
   38.5430   31.1820   38.5190 C   0  0  0  0  0  0  0  0  0  0  0  0
   38.7330   30.7250   39.7950 C   0  0  0  0  0  0  0  0  0  0  0  0
   40.0670   30.8080   41.4930 H   0  0  0  0  0  0  0  0  0  0  0  0
   41.2050   33.1020   38.0390 H   0  0  0  0  0  0  0  0  0  0  0  0
   39.3390   32.8760   35.9020 H   0  0  0  0  0  0  0  0  0  0  0  0
   37.0890   31.5610   35.6290 H   0  0  0  0  0  0  0  0  0  0  0  0
   43.1510   34.1610   41.5810 C   0  0  0  0  0  0  0  0  0  0  0  0
   44.1980   33.2970   41.8530 C   0  0  0  0  0  0  0  0  0  0  0  0
   44.0850   31.9650   41.4390 C   0  0  0  0  0  0  0  0  0  0  0  0
   42.9440   31.5830   40.7860 N   0  0  0  0  0  0  0  0  0  0  0  0
   41.9450   32.4430   40.5360 C   0  0  0  0  0  0  0  0  0  0  0  0
   42.0370   33.7320   40.9280 N   0  0  0  0  0  0  0  0  0  0  0  0
   43.1960   35.2130   41.8880 H   0  0  0  0  0  0  0  0  0  0  0  0
   45.0780   33.6270   42.3670 H   0  0  0  0  0  0  0  0  0  0  0  0
   44.8790   31.2450   41.6270 H   0  0  0  0  0  0  0  0  0  0  0  0
   37.7630   29.8160   40.4290 C   0  0  0  0  0  0  0  0  0  0  0  0
   36.3860   30.0140   40.4060 C   0  0  0  0  0  0  0  0  0  0  0  0
   35.8960   28.9080   41.1270 C   0  0  0  0  0  0  0  0  0  0  0  0
   36.9730   28.1380   41.5270 C   0  0  0  0  0  0  0  0  0  0  0  0
   38.0660   28.7330   41.0790 O   0  0  0  0  0  0  0  0  0  0  0  0
   35.8130   30.8150   39.9500 H   0  0  0  0  0  0  0  0  0  0  0  0
   34.8560   28.7000   41.3310 H   0  0  0  0  0  0  0  0  0  0  0  0
   36.9670   26.8650   42.3180 C   0  0  0  0  0  3  0  0  0  0  0  0
   38.0830   26.8280   43.3200 C   0  0  0  0  0  2  0  0  0  0  0  0
   39.2840   26.0560   42.8260 C   0  0  0  0  0  2  0  0  0  0  0  0
   38.9320   24.6100   42.5760 C   0  0  0  0  0  2  0  0  0  0  0  0
   37.5170   24.4720   42.0980 C   0  0  0  0  0  2  0  0  0  0  0  0
   36.9880   25.6870   41.3860 C   0  0  0  0  0  2  0  0  0  0  0  0
  1 10  1  0  0  0  0
  2  1  1  0  0  0  0
  2 18  1  0  0  0  0
  3  2  2  0  0  0  0
  4  8  2  0  0  0  0
  4  3  1  0  0  0  0
  5  4  1  0  0  0  0
  6  5  1  0  0  0  0
  6  7  2  0  0  0  0
  7  8  1  0  0  0  0
  8  9  1  0  0  0  0
  9 23  1  0  0  0  0
  9  1  2  0  0  0  0
 11  3  1  0  0  0  0
 12  5  1  0  0  0  0
 13  6  1  0  0  0  0
 14 15  1  0  0  0  0
 14 20  1  0  0  0  0
 15 21  1  0  0  0  0
 16 22  1  0  0  0  0
 16 15  2  0  0  0  0
 17 16  1  0  0  0  0
 18 17  2  0  0  0  0
 18 19  1  0  0  0  0
 19 14  2  0  0  0  0
 23 27  1  0  0  0  0
 24 23  2  0  0  0  0
 24 25  1  0  0  0  0
 25 29  1  0  0  0  0
 25 26  2  0  0  0  0
 26 30  1  0  0  0  0
 27 26  1  0  0  0  0
 28 24  1  0  0  0  0
 30 31  1  0  0  0  0
 32 31  1  0  0  0  0
 33 32  1  0  0  0  0
 34 33  1  0  0  0  0
 35 34  1  0  0  0  0
 35 30  1  0  0  0  0
M  END
>  <minimizedAffinity>
-6.19390535

$$$$

 OpenBabel03252506583D

 35 39  0  0  0  0  0  0  0  0999 V2000
   34.0910   28.8970   38.0590 C   0  0  0  0  0  0  0  0  0  0  0  0
   33.6810   28.9270   36.7390 C   0  0  0  0  0  0  0  0  0  0  0  0
   34.5350   28.7090   35.6720 C   0  0  0  0  0  0  0  0  0  0  0  0
   35.8780   28.4430   35.9140 C   0  0  0  0  0  0  0  0  0  0  0  0
   36.9750   28.1860   35.1470 N   0  0  0  0  0  0  0  0  0  0  0  0
   38.0320   28.0020   35.9740 C   0  0  0  0  0  0  0  0  0  0  0  0
   37.5790   28.1460   37.2400 N   0  0  0  0  0  0  0  0  0  0  0  0
   36.2700   28.4150   37.2270 C   0  0  0  0  0  0  0  0  0  0  0  0
   35.4440   28.6280   38.2980 C   0  0  0  0  0  0  0  0  0  0  0  0
   33.4060   29.0700   38.8640 H   0  0  0  0  0  0  0  0  0  0  0  0
   34.2040   28.7350   34.6520 H   0  0  0  0  0  0  0  0  0  0  0  0
   36.9330   28.1520   34.0900 H   0  0  0  0  0  0  0  0  0  0  0  0
   39.0290   27.7830   35.6170 H   0  0  0  0  0  0  0  0  0  0  0  0
   30.4730   29.2090   34.9460 C   0  0  0  0  0  0  0  0  0  0  0  0
   29.6270   29.7250   35.9130 C   0  0  0  0  0  0  0  0  0  0  0  0
   30.1490   29.9790   37.1860 C   0  0  0  0  0  0  0  0  0  0  0  0
   31.4720   29.7060   37.4120 N   0  0  0  0  0  0  0  0  0  0  0  0
   32.2680   29.2060   36.4540 C   0  0  0  0  0  0  0  0  0  0  0  0
   31.7810   28.9540   35.2200 N   0  0  0  0  0  0  0  0  0  0  0  0
   30.1070   28.9940   33.9350 H   0  0  0  0  0  0  0  0  0  0  0  0
   28.5960   29.9280   35.7050 H   0  0  0  0  0  0  0  0  0  0  0  0
   29.5270   30.3840   37.9820 H   0  0  0  0  0  0  0  0  0  0  0  0
   35.9600   28.5780   39.6770 C   0  0  0  0  0  0  0  0  0  0  0  0
   36.1370   29.7000   40.4800 C   0  0  0  0  0  0  0  0  0  0  0  0
   36.6400   29.1560   41.6770 C   0  0  0  0  0  0  0  0  0  0  0  0
   36.7310   27.7830   41.5260 C   0  0  0  0  0  0  0  0  0  0  0  0
   36.3100   27.4960   40.3060 O   0  0  0  0  0  0  0  0  0  0  0  0
   35.9410   30.7430   40.2570 H   0  0  0  0  0  0  0  0  0  0  0  0
   36.9060   29.7160   42.5610 H   0  0  0  0  0  0  0  0  0  0  0  0
   37.2090   26.7660   42.5180 C   0  0  0  0  0  3  0  0  0  0  0  0
   37.9740   27.4030   43.6410 C   0  0  0  0  0  2  0  0  0  0  0  0
   39.4690   27.3340   43.4400 C   0  0  0  0  0  2  0  0  0  0  0  0
   39.9450   25.9030   43.4020 C   0  0  0  0  0  2  0  0  0  0  0  0
   38.9140   25.0050   42.7840 C   0  0  0  0  0  2  0  0  0  0  0  0
   37.9980   25.7000   41.8120 C   0  0  0  0  0  2  0  0  0  0  0  0
  1  9  1  0  0  0  0
  1 10  1  0  0  0  0
  2  1  2  0  0  0  0
  3  4  2  0  0  0  0
  3  2  1  0  0  0  0
  4  8  1  0  0  0  0
  5  4  1  0  0  0  0
  5  6  1  0  0  0  0
  6  7  2  0  0  0  0
  8  7  1  0  0  0  0
  8  9  2  0  0  0  0
  9 23  1  0  0  0  0
 11  3  1  0  0  0  0
 12  5  1  0  0  0  0
 13  6  1  0  0  0  0
 14 19  2  0  0  0  0
 14 15  1  0  0  0  0
 15 16  2  0  0  0  0
 16 17  1  0  0  0  0
 16 22  1  0  0  0  0
 18  2  1  0  0  0  0
 18 17  2  0  0  0  0
 19 18  1  0  0  0  0
 20 14  1  0  0  0  0
 21 15  1  0  0  0  0
 23 27  1  0  0  0  0
 23 24  2  0  0  0  0
 24 25  1  0  0  0  0
 25 29  1  0  0  0  0
 26 25  2  0  0  0  0
 26 30  1  0  0  0  0
 27 26  1  0  0  0  0
 28 24  1  0  0  0  0
 30 31  1  0  0  0  0
 32 31  1  0  0  0  0
 33 32  1  0  0  0  0
 34 33  1  0  0  0  0
 35 30  1  0  0  0  0
 35 34  1  0  0  0  0
M  END
>  <minimizedAffinity>
-6.11315489

$$$$

 OpenBabel03252506583D

 35 39  0  0  0  0  0  0  0  0999 V2000
   35.8540   26.7930   39.0140 C   0  0  0  0  0  0  0  0  0  0  0  0
   36.6700   26.4360   40.0710 C   0  0  0  0  0  0  0  0  0  0  0  0
   37.0810   27.3260   41.0490 C   0  0  0  0  0  0  0  0  0  0  0  0
   36.6640   28.6510   40.9870 C   0  0  0  0  0  0  0  0  0  0  0  0
   36.8560   29.7710   41.7400 N   0  0  0  0  0  0  0  0  0  0  0  0
   36.1760   30.7890   41.1600 C   0  0  0  0  0  0  0  0  0  0  0  0
   35.5710   30.2890   40.0590 N   0  0  0  0  0  0  0  0  0  0  0  0
   35.8540   28.9890   39.9330 C   0  0  0  0  0  0  0  0  0  0  0  0
   35.4350   28.1270   38.9550 C   0  0  0  0  0  0  0  0  0  0  0  0
   35.5530   26.0810   38.2730 H   0  0  0  0  0  0  0  0  0  0  0  0
   37.7140   27.0360   41.8640 H   0  0  0  0  0  0  0  0  0  0  0  0
   37.4500   29.7690   42.6160 H   0  0  0  0  0  0  0  0  0  0  0  0
   36.1630   31.7930   41.5620 H   0  0  0  0  0  0  0  0  0  0  0  0
   38.6380   23.4630   41.0050 C   0  0  0  0  0  0  0  0  0  0  0  0
   37.9840   22.4420   40.3370 C   0  0  0  0  0  0  0  0  0  0  0  0
   36.8640   22.7650   39.5620 C   0  0  0  0  0  0  0  0  0  0  0  0
   36.4710   24.0750   39.5030 N   0  0  0  0  0  0  0  0  0  0  0  0
   37.1250   25.0440   40.1620 C   0  0  0  0  0  0  0  0  0  0  0  0
   38.2070   24.7510   40.9140 N   0  0  0  0  0  0  0  0  0  0  0  0
   39.5180   23.2560   41.6240 H   0  0  0  0  0  0  0  0  0  0  0  0
   38.3160   21.4260   40.4040 H   0  0  0  0  0  0  0  0  0  0  0  0
   36.3140   22.0000   39.0170 H   0  0  0  0  0  0  0  0  0  0  0  0
   34.5640   28.5870   37.8600 C   0  0  0  0  0  0  0  0  0  0  0  0
   35.0070   28.8140   36.5610 C   0  0  0  0  0  0  0  0  0  0  0  0
   33.8370   29.2320   35.8970 C   0  0  0  0  0  0  0  0  0  0  0  0
   32.7960   29.2300   36.8090 C   0  0  0  0  0  0  0  0  0  0  0  0
   33.2930   28.8350   37.9690 O   0  0  0  0  0  0  0  0  0  0  0  0
   36.0010   28.7020   36.1430 H   0  0  0  0  0  0  0  0  0  0  0  0
   33.7680   29.5040   34.8550 H   0  0  0  0  0  0  0  0  0  0  0  0
   31.3600   29.5970   36.5850 C   0  0  0  0  0  3  0  0  0  0  0  0
   31.1670   30.3120   35.2810 C   0  0  0  0  0  2  0  0  0  0  0  0
   31.1180   31.8140   35.4410 C   0  0  0  0  0  2  0  0  0  0  0  0
   29.9450   32.2280   36.2940 C   0  0  0  0  0  2  0  0  0  0  0  0
   29.6520   31.2020   37.3490 C   0  0  0  0  0  2  0  0  0  0  0  0
   30.8470   30.3830   37.7580 C   0  0  0  0  0  2  0  0  0  0  0  0
  1  2  1  0  0  0  0
  2 18  1  0  0  0  0
  2  3  2  0  0  0  0
  3 11  1  0  0  0  0
  4  3  1  0  0  0  0
  4  5  1  0  0  0  0
  5 12  1  0  0  0  0
  6 13  1  0  0  0  0
  6  5  1  0  0  0  0
  7  6  2  0  0  0  0
  8  7  1  0  0  0  0
  8  4  2  0  0  0  0
  9  1  2  0  0  0  0
  9  8  1  0  0  0  0
 10  1  1  0  0  0  0
 14 20  1  0  0  0  0
 15 21  1  0  0  0  0
 15 14  2  0  0  0  0
 16 15  1  0  0  0  0
 17 16  2  0  0  0  0
 17 18  1  0  0  0  0
 18 19  2  0  0  0  0
 19 14  1  0  0  0  0
 22 16  1  0  0  0  0
 23 27  1  0  0  0  0
 23  9  1  0  0  0  0
 24 23  2  0  0  0  0
 25 24  1  0  0  0  0
 25 26  2  0  0  0  0
 26 27  1  0  0  0  0
 28 24  1  0  0  0  0
 29 25  1  0  0  0  0
 30 26  1  0  0  0  0
 30 35  1  0  0  0  0
 31 32  1  0  0  0  0
 31 30  1  0  0  0  0
 32 33  1  0  0  0  0
 33 34  1  0  0  0  0
 34 35  1  0  0  0  0
M  END
>  <minimizedAffinity>
-6.08338594

$$$$

 OpenBabel03252506583D

 35 39  0  0  0  0  0  0  0  0999 V2000
   36.1050   27.6370   39.1900 C   0  0  0  0  0  0  0  0  0  0  0  0
   37.2130   27.5920   40.0150 C   0  0  0  0  0  0  0  0  0  0  0  0
   38.0960   28.6480   40.1630 C   0  0  0  0  0  0  0  0  0  0  0  0
   37.8780   29.8260   39.4570 C   0  0  0  0  0  0  0  0  0  0  0  0
   38.5060   31.0310   39.3520 N   0  0  0  0  0  0  0  0  0  0  0  0
   37.8010   31.7970   38.4850 C   0  0  0  0  0  0  0  0  0  0  0  0
   36.7480   31.0610   38.0650 N   0  0  0  0  0  0  0  0  0  0  0  0
   36.7740   29.8570   38.6440 C   0  0  0  0  0  0  0  0  0  0  0  0
   35.8890   28.8250   38.4820 C   0  0  0  0  0  0  0  0  0  0  0  0
   35.4400   26.8030   39.0970 H   0  0  0  0  0  0  0  0  0  0  0  0
   38.9520   28.6000   40.8070 H   0  0  0  0  0  0  0  0  0  0  0  0
   39.3900   31.2580   39.8870 H   0  0  0  0  0  0  0  0  0  0  0  0
   38.0890   32.8070   38.2230 H   0  0  0  0  0  0  0  0  0  0  0  0
   36.9680   24.1110   41.2000 C   0  0  0  0  0  0  0  0  0  0  0  0
   37.9400   24.0540   42.1850 C   0  0  0  0  0  0  0  0  0  0  0  0
   38.6860   25.2080   42.4500 C   0  0  0  0  0  0  0  0  0  0  0  0
   38.4170   26.3360   41.7210 N   0  0  0  0  0  0  0  0  0  0  0  0
   37.4680   26.3610   40.7730 C   0  0  0  0  0  0  0  0  0  0  0  0
   36.7390   25.2570   40.5040 N   0  0  0  0  0  0  0  0  0  0  0  0
   36.3600   23.2300   40.9590 H   0  0  0  0  0  0  0  0  0  0  0  0
   38.1260   23.1560   42.7370 H   0  0  0  0  0  0  0  0  0  0  0  0
   39.4610   25.2180   43.2130 H   0  0  0  0  0  0  0  0  0  0  0  0
   34.7300   28.9540   37.5810 C   0  0  0  0  0  0  0  0  0  0  0  0
   34.8100   28.8550   36.1960 C   0  0  0  0  0  0  0  0  0  0  0  0
   33.4750   29.0440   35.7880 C   0  0  0  0  0  0  0  0  0  0  0  0
   32.6990   29.2380   36.9180 C   0  0  0  0  0  0  0  0  0  0  0  0
   33.5070   29.1730   37.9620 O   0  0  0  0  0  0  0  0  0  0  0  0
   35.6760   28.6770   35.5670 H   0  0  0  0  0  0  0  0  0  0  0  0
   33.1210   29.0360   34.7680 H   0  0  0  0  0  0  0  0  0  0  0  0
   31.2220   29.4790   37.0040 C   0  0  0  0  0  3  0  0  0  0  0  0
   30.7420   30.3740   35.8990 C   0  0  0  0  0  2  0  0  0  0  0  0
   30.6070   31.8150   36.3330 C   0  0  0  0  0  2  0  0  0  0  0  0
   29.5790   31.9550   37.4290 C   0  0  0  0  0  2  0  0  0  0  0  0
   29.5630   30.7450   38.3150 C   0  0  0  0  0  2  0  0  0  0  0  0
   30.8720   30.0040   38.3670 C   0  0  0  0  0  2  0  0  0  0  0  0
  1  2  1  0  0  0  0
  2  3  2  0  0  0  0
  2 18  1  0  0  0  0
  3 11  1  0  0  0  0
  4  3  1  0  0  0  0
  5  4  1  0  0  0  0
  5 12  1  0  0  0  0
  6  5  1  0  0  0  0
  7  6  2  0  0  0  0
  7  8  1  0  0  0  0
  8  4  2  0  0  0  0
  9  8  1  0  0  0  0
  9  1  2  0  0  0  0
 10  1  1  0  0  0  0
 13  6  1  0  0  0  0
 14 15  1  0  0  0  0
 15 16  2  0  0  0  0
 15 21  1  0  0  0  0
 16 22  1  0  0  0  0
 17 16  1  0  0  0  0
 18 17  2  0  0  0  0
 19 18  1  0  0  0  0
 19 14  2  0  0  0  0
 20 14  1  0  0  0  0
 23 27  1  0  0  0  0
 23  9  1  0  0  0  0
 24 23  2  0  0  0  0
 25 24  1  0  0  0  0
 25 26  2  0  0  0  0
 26 30  1  0  0  0  0
 26 27  1  0  0  0  0
 28 24  1  0  0  0  0
 29 25  1  0  0  0  0
 30 35  1  0  0  0  0
 31 32  1  0  0  0  0
 31 30  1  0  0  0  0
 32 33  1  0  0  0  0
 33 34  1  0  0  0  0
 34 35  1  0  0  0  0
M  END
>  <minimizedAffinity>
-6.08171177

$$$$

 OpenBabel03252506583D

 35 39  0  0  0  0  0  0  0  0999 V2000
   36.2970   29.0510   38.6150 C   0  0  0  0  0  0  0  0  0  0  0  0
   36.1270   29.4610   37.3060 C   0  0  0  0  0  0  0  0  0  0  0  0
   36.9470   30.3880   36.6860 C   0  0  0  0  0  0  0  0  0  0  0  0
   38.0030   30.9490   37.3960 C   0  0  0  0  0  0  0  0  0  0  0  0
   38.9840   31.8570   37.1300 N   0  0  0  0  0  0  0  0  0  0  0  0
   39.7370   32.0010   38.2460 C   0  0  0  0  0  0  0  0  0  0  0  0
   39.2160   31.1830   39.1880 N   0  0  0  0  0  0  0  0  0  0  0  0
   38.1600   30.5320   38.6930 C   0  0  0  0  0  0  0  0  0  0  0  0
   37.3610   29.6180   39.3260 C   0  0  0  0  0  0  0  0  0  0  0  0
   35.6450   28.3320   39.0670 H   0  0  0  0  0  0  0  0  0  0  0  0
   36.8050   30.6970   35.6700 H   0  0  0  0  0  0  0  0  0  0  0  0
   39.0790   32.3300   36.1870 H   0  0  0  0  0  0  0  0  0  0  0  0
   40.5870   32.6690   38.3020 H   0  0  0  0  0  0  0  0  0  0  0  0
   34.2410   27.8620   34.5730 C   0  0  0  0  0  0  0  0  0  0  0  0
   32.9540   27.8070   35.0810 C   0  0  0  0  0  0  0  0  0  0  0  0
   32.7240   28.3170   36.3630 C   0  0  0  0  0  0  0  0  0  0  0  0
   33.7830   28.8450   37.0520 N   0  0  0  0  0  0  0  0  0  0  0  0
   35.0200   28.8850   36.5330 C   0  0  0  0  0  0  0  0  0  0  0  0
   35.2600   28.3980   35.2970 N   0  0  0  0  0  0  0  0  0  0  0  0
   34.4670   27.4740   33.5720 H   0  0  0  0  0  0  0  0  0  0  0  0
   32.1470   27.3870   34.5170 H   0  0  0  0  0  0  0  0  0  0  0  0
   31.7310   28.2980   36.8100 H   0  0  0  0  0  0  0  0  0  0  0  0
   37.6100   29.2330   40.7260 C   0  0  0  0  0  0  0  0  0  0  0  0
   37.3520   30.0610   41.8140 C   0  0  0  0  0  0  0  0  0  0  0  0
   37.7440   29.2700   42.9120 C   0  0  0  0  0  0  0  0  0  0  0  0
   38.1980   28.0540   42.4310 C   0  0  0  0  0  0  0  0  0  0  0  0
   38.0940   28.0920   41.1140 O   0  0  0  0  0  0  0  0  0  0  0  0
   36.9490   31.0680   41.8330 H   0  0  0  0  0  0  0  0  0  0  0  0
   37.6950   29.5650   43.9490 H   0  0  0  0  0  0  0  0  0  0  0  0
   38.7210   26.8820   43.2060 C   0  0  0  0  0  3  0  0  0  0  0  0
   40.1260   27.1120   43.6780 C   0  0  0  0  0  2  0  0  0  0  0  0
   41.1560   26.4750   42.7750 C   0  0  0  0  0  2  0  0  0  0  0  0
   40.9930   24.9760   42.7410 C   0  0  0  0  0  2  0  0  0  0  0  0
   39.5500   24.5840   42.8740 C   0  0  0  0  0  2  0  0  0  0  0  0
   38.5830   25.6300   42.3880 C   0  0  0  0  0  2  0  0  0  0  0  0
  1 10  1  0  0  0  0
  1  9  1  0  0  0  0
  2  1  2  0  0  0  0
  3  2  1  0  0  0  0
  3  4  2  0  0  0  0
  4  8  1  0  0  0  0
  5  4  1  0  0  0  0
  5  6  1  0  0  0  0
  6 13  1  0  0  0  0
  6  7  2  0  0  0  0
  8  7  1  0  0  0  0
  8  9  2  0  0  0  0
  9 23  1  0  0  0  0
 11  3  1  0  0  0  0
 12  5  1  0  0  0  0
 14 15  2  0  0  0  0
 14 19  1  0  0  0  0
 15 16  1  0  0  0  0
 16 22  1  0  0  0  0
 16 17  2  0  0  0  0
 18 17  1  0  0  0  0
 18  2  1  0  0  0  0
 19 18  2  0  0  0  0
 20 14  1  0  0  0  0
 21 15  1  0  0  0  0
 23 27  1  0  0  0  0
 23 24  2  0  0  0  0
 24 28  1  0  0  0  0
 24 25  1  0  0  0  0
 25 29  1  0  0  0  0
 26 25  2  0  0  0  0
 26 30  1  0  0  0  0
 27 26  1  0  0  0  0
 30 31  1  0  0  0  0
 32 31  1  0  0  0  0
 33 32  1  0  0  0  0
 33 34  1  0  0  0  0
 35 34  1  0  0  0  0
 35 30  1  0  0  0  0
M  END
>  <minimizedAffinity>
-6.0710969

$$$$

 OpenBabel03252506583D

 35 39  0  0  0  0  0  0  0  0999 V2000
   37.5000   28.8170   40.0150 C   0  0  0  0  0  0  0  0  0  0  0  0
   38.2440   29.1610   41.1280 C   0  0  0  0  0  0  0  0  0  0  0  0
   38.5200   30.4700   41.4840 C   0  0  0  0  0  0  0  0  0  0  0  0
   38.0340   31.5090   40.6990 C   0  0  0  0  0  0  0  0  0  0  0  0
   38.0970   32.8700   40.7340 N   0  0  0  0  0  0  0  0  0  0  0  0
   37.4100   33.3500   39.6700 C   0  0  0  0  0  0  0  0  0  0  0  0
   36.9290   32.2840   38.9910 N   0  0  0  0  0  0  0  0  0  0  0  0
   37.2960   31.1530   39.6000 C   0  0  0  0  0  0  0  0  0  0  0  0
   37.0120   29.8660   39.2280 C   0  0  0  0  0  0  0  0  0  0  0  0
   37.3040   27.7940   39.7650 H   0  0  0  0  0  0  0  0  0  0  0  0
   39.0980   30.7230   42.3510 H   0  0  0  0  0  0  0  0  0  0  0  0
   38.6150   33.3940   41.4940 H   0  0  0  0  0  0  0  0  0  0  0  0
   37.3060   34.4070   39.4630 H   0  0  0  0  0  0  0  0  0  0  0  0
   40.2850   27.3550   43.6100 C   0  0  0  0  0  0  0  0  0  0  0  0
   39.7600   26.0740   43.5640 C   0  0  0  0  0  0  0  0  0  0  0  0
   38.7030   25.8210   42.6820 C   0  0  0  0  0  0  0  0  0  0  0  0
   38.2410   26.8520   41.9090 N   0  0  0  0  0  0  0  0  0  0  0  0
   38.7700   28.0840   41.9750 C   0  0  0  0  0  0  0  0  0  0  0  0
   39.7900   28.3470   42.8200 N   0  0  0  0  0  0  0  0  0  0  0  0
   41.1120   27.5990   44.2870 H   0  0  0  0  0  0  0  0  0  0  0  0
   40.1440   25.2890   44.1820 H   0  0  0  0  0  0  0  0  0  0  0  0
   38.2550   24.8320   42.6060 H   0  0  0  0  0  0  0  0  0  0  0  0
   36.2110   29.5830   38.0250 C   0  0  0  0  0  0  0  0  0  0  0  0
   36.7260   29.5820   36.7320 C   0  0  0  0  0  0  0  0  0  0  0  0
   35.6020   29.2660   35.9450 C   0  0  0  0  0  0  0  0  0  0  0  0
   34.5150   29.1020   36.7850 C   0  0  0  0  0  0  0  0  0  0  0  0
   34.9410   29.3050   38.0200 O   0  0  0  0  0  0  0  0  0  0  0  0
   37.7390   29.7730   36.3950 H   0  0  0  0  0  0  0  0  0  0  0  0
   35.5950   29.1680   34.8690 H   0  0  0  0  0  0  0  0  0  0  0  0
   33.1010   28.7600   36.4230 C   0  0  0  0  0  3  0  0  0  0  0  0
   32.8280   28.9970   34.9670 C   0  0  0  0  0  2  0  0  0  0  0  0
   32.1590   30.3270   34.7080 C   0  0  0  0  0  2  0  0  0  0  0  0
   30.8080   30.3920   35.3780 C   0  0  0  0  0  2  0  0  0  0  0  0
   30.8020   29.6180   36.6630 C   0  0  0  0  0  2  0  0  0  0  0  0
   32.1530   29.5060   37.3180 C   0  0  0  0  0  2  0  0  0  0  0  0
  1  2  1  0  0  0  0
  2  3  2  0  0  0  0
  2 18  1  0  0  0  0
  3 11  1  0  0  0  0
  4  5  1  0  0  0  0
  4  3  1  0  0  0  0
  5 12  1  0  0  0  0
  6  5  1  0  0  0  0
  7  8  1  0  0  0  0
  7  6  2  0  0  0  0
  8  4  2  0  0  0  0
  9  8  1  0  0  0  0
  9  1  2  0  0  0  0
 10  1  1  0  0  0  0
 13  6  1  0  0  0  0
 14 20  1  0  0  0  0
 15 14  1  0  0  0  0
 15 21  1  0  0  0  0
 16 15  2  0  0  0  0
 17 18  2  0  0  0  0
 17 16  1  0  0  0  0
 18 19  1  0  0  0  0
 19 14  2  0  0  0  0
 22 16  1  0  0  0  0
 23  9  1  0  0  0  0
 24 23  2  0  0  0  0
 25 24  1  0  0  0  0
 25 26  2  0  0  0  0
 26 27  1  0  0  0  0
 27 23  1  0  0  0  0
 28 24  1  0  0  0  0
 29 25  1  0  0  0  0
 30 26  1  0  0  0  0
 30 35  1  0  0  0  0
 31 30  1  0  0  0  0
 32 31  1  0  0  0  0
 32 33  1  0  0  0  0
 33 34  1  0  0  0  0
 34 35  1  0  0  0  0
M  END
>  <minimizedAffinity>
-6.0447917

$$$$
