REMARK  Name = 
REMARK  3 active torsions:
REMARK  status: ('A' for Active; 'I' for Inactive)
REMARK    1  A    between atoms: C_1  and  C_9
REMARK    2  A    between atoms: C_6  and  C_14
REMARK    3  A    between atoms: C_8  and  C_25
REMARK                            x       y       z     vdW  Elec       q    Type
REMARK                         _______ _______ _______ _____ _____    ______ ____
ROOT
ATOM      1  C   UNL     1      44.419  36.222  44.788  0.00  0.00    +0.000 A 
ATOM      2  C   UNL     1      45.078  36.136  43.536  0.00  0.00    +0.000 A 
ATOM      3  C   UNL     1      45.884  35.031  43.325  0.00  0.00    +0.000 A 
ATOM      4  N   UNL     1      46.012  34.095  44.308  0.00  0.00    +0.000 NA
ATOM      5  C   UNL     1      45.357  34.232  45.494  0.00  0.00    +0.000 A 
ATOM      6  N   UNL     1      44.564  35.294  45.725  0.00  0.00    +0.000 NA
ATOM      7  N   UNL     1      45.533  33.270  46.529  0.00  0.00    +0.000 N 
ATOM      8  H   UNL     1      43.769  37.030  45.067  0.00  0.00    +0.000 HD
ATOM      9  H   UNL     1      46.488  33.511  46.902  0.00  0.00    +0.000 HD
ATOM     10  H   UNL     1      44.868  32.530  46.817  0.00  0.00    +0.000 HD
ENDROOT
BRANCH   3  11
ATOM     11  C   UNL     1      46.601  34.803  42.104  0.00  0.00    +0.000 A 
ATOM     12  C   UNL     1      47.932  35.217  42.056  0.00  0.00    +0.000 A 
ATOM     13  C   UNL     1      48.708  35.030  40.902  0.00  0.00    +0.000 A 
ATOM     14  C   UNL     1      48.166  34.433  39.796  0.00  0.00    +0.000 A 
ATOM     15  C   UNL     1      46.863  34.032  39.856  0.00  0.00    +0.000 A 
ATOM     16  C   UNL     1      46.080  34.206  40.983  0.00  0.00    +0.000 A 
ATOM     17  H   UNL     1      48.378  35.692  42.923  0.00  0.00    +0.000 HD
ATOM     18  H   UNL     1      49.740  35.364  40.898  0.00  0.00    +0.000 HD
ATOM     19  H   UNL     1      48.712  34.261  38.879  0.00  0.00    +0.000 HD
ATOM     20  H   UNL     1      46.376  33.553  39.013  0.00  0.00    +0.000 HD
BRANCH  16  21
ATOM     21  C   UNL     1      44.672  33.752  41.025  0.00  0.00    +0.000 C 
ATOM     22  F   UNL     1      44.462  32.897  39.945  0.00  0.00    +0.000 F 
ATOM     23  F   UNL     1      43.839  34.846  40.934  0.00  0.00    +0.000 F 
ATOM     24  F   UNL     1      44.322  33.097  42.178  0.00  0.00    +0.000 F 
ENDBRANCH  16  21
ENDBRANCH   3  11
BRANCH   2  25
ATOM     25  C   UNL     1      44.918  37.262  42.577  0.00  0.00    +0.000 C 
ATOM     26  C   UNL     1      46.266  37.999  42.412  0.00  0.00    +0.000 C 
ATOM     27  C   UNL     1      46.147  39.347  43.134  0.00  0.00    +0.000 C 
ATOM     28  C   UNL     1      45.278  40.199  42.232  0.00  0.00    +0.000 C 
ATOM     29  C   UNL     1      44.006  39.409  41.977  0.00  0.00    +0.000 C 
ATOM     30  C   UNL     1      43.872  38.257  42.952  0.00  0.00    +0.000 C 
ENDBRANCH   2  25
TORSDOF 3
