
     RDKit          3D

 47 50  0  0  0  0  0  0  0  0999 V2000
   47.1598   31.2873   46.7164 C   0  0  0  0  0  0  0  0  0  0  0  0
   46.7746   31.7706   48.0956 C   0  0  1  0  0  0  0  0  0  0  0  0
   46.1792   30.7583   49.0093 C   0  0  0  0  0  0  0  0  0  0  0  0
   47.5154   31.2562   49.2706 C   0  0  1  0  0  0  0  0  0  0  0  0
   48.7756   30.5148   49.0297 C   0  0  0  0  0  0  0  0  0  0  0  0
   49.5940   30.2169   50.3136 C   0  0  0  0  0  0  0  0  0  0  0  0
   50.0735   31.2711   49.3883 C   0  0  0  0  0  0  0  0  0  0  0  0
   45.9306   33.1482   45.9197 C   0  0  0  0  0  0  0  0  0  0  0  0
   46.9341   32.3942   45.7001 C   0  0  0  0  0  0  0  0  0  0  0  0
   44.5170   36.1646   44.3532 C   0  0  0  0  0  0  0  0  0  0  0  0
   45.1147   36.1827   43.1011 C   0  0  0  0  0  0  0  0  0  0  0  0
   45.9940   35.1797   42.8236 C   0  0  0  0  0  0  0  0  0  0  0  0
   46.2255   34.2400   43.7764 N   0  0  0  0  0  0  0  0  0  0  0  0
   45.6531   34.2209   44.9751 C   0  0  0  0  0  0  0  0  0  0  0  0
   44.7970   35.2083   45.2313 N   0  0  0  0  0  0  0  0  0  0  0  0
   48.2638   31.1409   46.7212 H   0  0  0  0  0  0  0  0  0  0  0  0
   46.6635   30.3601   46.4231 H   0  0  0  0  0  0  0  0  0  0  0  0
   46.3620   32.7975   48.1782 H   0  0  0  0  0  0  0  0  0  0  0  0
   45.9757   29.7521   48.5759 H   0  0  0  0  0  0  0  0  0  0  0  0
   45.3327   31.0687   49.6811 H   0  0  0  0  0  0  0  0  0  0  0  0
   47.5984   31.9766   50.1414 H   0  0  0  0  0  0  0  0  0  0  0  0
   48.8455   29.8065   48.2017 H   0  0  0  0  0  0  0  0  0  0  0  0
   50.0543   29.1896   50.3014 H   0  0  0  0  0  0  0  0  0  0  0  0
   49.1125   30.4390   51.2735 H   0  0  0  0  0  0  0  0  0  0  0  0
   50.9664   31.0152   48.7580 H   0  0  0  0  0  0  0  0  0  0  0  0
   49.9909   32.2993   49.7707 H   0  0  0  0  0  0  0  0  0  0  0  0
   45.1865   33.1318   46.7349 H   0  0  0  0  0  0  0  0  0  0  0  0
   47.5765   32.5458   44.8384 H   0  0  0  0  0  0  0  0  0  0  0  0
   43.7951   36.9086   44.7027 H   0  0  0  0  0  0  0  0  0  0  0  0
   44.8307   36.9850   42.4712 H   0  0  0  0  0  0  0  0  0  0  0  0
   46.6547   35.1690   41.4761 C   0  0  0  0  0  0  0  0  0  0  0  0
   47.7348   34.1573   41.3360 C   0  0  0  0  0  0  0  0  0  0  0  0
   49.0368   34.7648   40.8185 C   0  0  0  0  0  0  0  0  0  0  0  0
   49.4500   35.9540   41.6392 C   0  0  0  0  0  0  0  0  0  0  0  0
   48.3795   36.9900   41.7636 C   0  0  0  0  0  0  0  0  0  0  0  0
   47.1124   36.5554   41.0866 C   0  0  0  0  0  0  0  0  0  0  0  0
   45.7934   34.9567   40.7673 H   0  0  0  0  0  0  0  0  0  0  0  0
   47.9084   33.5361   42.2383 H   0  0  0  0  0  0  0  0  0  0  0  0
   47.4377   33.4324   40.5492 H   0  0  0  0  0  0  0  0  0  0  0  0
   49.8367   34.0077   40.9106 H   0  0  0  0  0  0  0  0  0  0  0  0
   48.9155   35.0871   39.7811 H   0  0  0  0  0  0  0  0  0  0  0  0
   49.8378   35.5927   42.6349 H   0  0  0  0  0  0  0  0  0  0  0  0
   50.3476   36.3734   41.1347 H   0  0  0  0  0  0  0  0  0  0  0  0
   48.2151   37.3640   42.7967 H   0  0  0  0  0  0  0  0  0  0  0  0
   48.7066   37.9189   41.2005 H   0  0  0  0  0  0  0  0  0  0  0  0
   47.2411   36.5891   39.9873 H   0  0  0  0  0  0  0  0  0  0  0  0
   46.3200   37.2802   41.4089 H   0  0  0  0  0  0  0  0  0  0  0  0
  1  2  1  0
  2  3  1  0
  2  4  1  0
  3  4  1  0
  5  4  1  0
  5  7  1  0
  5  6  1  0
  7  6  1  0
  9  8  2  0
  9  1  1  0
 10 15  2  0
 11 10  1  0
 12 11  2  0
 12 13  1  0
 13 14  2  0
 14 15  1  0
 14  8  1  0
  1 16  1  0
  1 17  1  0
  2 18  1  6
  3 19  1  0
  3 20  1  0
  4 21  1  1
  5 22  1  0
  6 23  1  0
  6 24  1  0
  7 25  1  0
  7 26  1  0
  8 27  1  0
  9 28  1  0
 10 29  1  0
 11 30  1  0
 31 32  1  0
 32 33  1  0
 33 34  1  0
 34 35  1  0
 35 36  1  0
 36 31  1  0
 31 37  1  0
 32 38  1  0
 32 39  1  0
 33 40  1  0
 33 41  1  0
 34 42  1  0
 34 43  1  0
 35 44  1  0
 35 45  1  0
 36 46  1  0
 36 47  1  0
 12 31  1  0
M  ISO  8  16   8  17   8  18  13  19  13  20  13  21  13  22  13  23  13
M  ISO  5  24  13  25  13  26  13  29  14  30  14
M  END
>  <DihAtoms>  (1) 
10,11,30,31

>  <DihDeg>  (1) 
51.72468535952104

$$$$
