
     RDKit          3D

 26 27  0  0  0  0  0  0  0  0999 V2000
   44.6402   35.9923   44.3770 C   0  0  0  0  0  0  0  0  0  0  0  0
   45.4333   35.6399   43.2703 C   0  0  0  0  0  0  0  0  0  0  0  0
   46.2235   34.4923   43.3729 C   0  0  0  0  0  0  0  0  0  0  0  0
   46.1826   33.7818   44.5328 N   0  0  0  0  0  0  0  0  0  0  0  0
   45.4096   34.1444   45.5823 C   0  0  0  0  0  0  0  0  0  0  0  0
   44.6347   35.2533   45.5066 N   0  0  0  0  0  0  0  0  0  0  0  0
   44.0151   36.8886   44.3134 H   0  0  0  0  0  0  0  0  0  0  0  0
   45.4456   36.2149   42.3749 H   0  0  0  0  0  0  0  0  0  0  0  0
   46.8653   34.1424   42.5755 H   0  0  0  0  0  0  0  0  0  0  0  0
   45.4225   33.3105   46.8175 C   0  0  0  0  0  0  0  0  0  0  0  0
   46.6885   32.5410   46.8050 C   0  0  0  0  0  0  0  0  0  0  0  0
   46.5324   31.0876   46.4516 C   0  0  0  0  0  0  0  0  0  0  0  0
   45.5594   30.5134   47.4473 C   0  0  0  0  0  0  0  0  0  0  0  0
   44.2170   31.1416   47.3720 C   0  0  0  0  0  0  0  0  0  0  0  0
   44.1581   32.5405   46.8878 C   0  0  0  0  0  0  0  0  0  0  0  0
   45.4959   34.0503   47.6599 H   0  0  0  0  0  0  0  0  0  0  0  0
   47.4492   32.9584   46.1110 H   0  0  0  0  0  0  0  0  0  0  0  0
   47.2026   32.5699   47.8054 H   0  0  0  0  0  0  0  0  0  0  0  0
   46.1259   30.9527   45.4550 H   0  0  0  0  0  0  0  0  0  0  0  0
   47.5090   30.6156   46.6600 H   0  0  0  0  0  0  0  0  0  0  0  0
   45.9529   30.5872   48.4930 H   0  0  0  0  0  0  0  0  0  0  0  0
   45.5041   29.4221   47.2524 H   0  0  0  0  0  0  0  0  0  0  0  0
   43.5680   30.4632   46.7514 H   0  0  0  0  0  0  0  0  0  0  0  0
   43.7450   31.0351   48.3945 H   0  0  0  0  0  0  0  0  0  0  0  0
   43.6319   32.5532   45.9080 H   0  0  0  0  0  0  0  0  0  0  0  0
   43.4507   33.1069   47.5535 H   0  0  0  0  0  0  0  0  0  0  0  0
  1  6  2  0
  2  3  2  0
  2  1  1  0
  3  4  1  0
  4  5  2  0
  6  5  1  0
  1  7  1  0
  2  8  1  0
  3  9  1  0
 10 11  1  0
 11 12  1  0
 12 13  1  0
 13 14  1  0
 14 15  1  0
 15 10  1  0
 10 16  1  0
 11 17  1  0
 11 18  1  0
 12 19  1  0
 12 20  1  0
 13 21  1  0
 13 22  1  0
 14 23  1  0
 14 24  1  0
 15 25  1  0
 15 26  1  0
  5 10  1  0
M  ISO  3   7  14   8  14   9  14
M  END
>  <DihAtoms>  (1) 
3,4,9,10

>  <DihDeg>  (1) 
-113.31559232805266

$$$$
