
 OpenBabel03242521313D

 44 47  0  0  1  0  0  0  0  0999 V2000
   39.3610   31.4930   40.3900 C   0  0  1  0  0  0  0  0  0  0  0  0
   39.7320   32.9440   40.6820 C   0  0  2  0  0  0  0  0  0  0  0  0
   39.2180   33.8030   39.7540 O   0  0  0  0  0  0  0  0  0  0  0  0
   37.8610   33.8370   39.9280 C   0  0  0  0  0  0  0  0  0  0  0  0
   37.2750   32.5390   39.4620 C   0  0  2  0  0  0  0  0  0  0  0  0
   37.9700   31.2900   39.9680 C   0  0  2  0  0  0  0  0  0  0  0  0
   39.4950   30.9550   41.3780 H   0  0  0  0  0  0  0  0  0  0  0  0
   39.3300   33.1670   41.6970 H   0  0  0  0  0  0  0  0  0  0  0  0
   37.4250   34.6340   39.3240 H   0  0  0  0  0  0  0  0  0  0  0  0
   37.6540   33.9530   41.0160 H   0  0  0  0  0  0  0  0  0  0  0  0
   36.2180   32.5700   39.7520 H   0  0  0  0  0  0  0  0  0  0  0  0
   37.9250   30.5910   39.1080 H   0  0  0  0  0  0  0  0  0  0  0  0
   43.2610   34.1600   40.0290 C   0  0  0  0  0  0  0  0  0  0  0  0
   41.8700   34.0550   39.9410 C   0  0  0  0  0  0  0  0  0  0  0  0
   41.1950   33.0880   40.7570 C   0  0  0  0  0  0  0  0  0  0  0  0
   41.9230   32.3130   41.5800 N   0  0  0  0  0  0  0  0  0  0  0  0
   43.2900   32.4490   41.6370 C   0  0  0  0  0  0  0  0  0  0  0  0
   43.9480   33.3650   40.8660 N   0  0  0  0  0  0  0  0  0  0  0  0
   43.7620   34.8850   39.4170 H   0  0  0  0  0  0  0  0  0  0  0  0
   41.2890   34.6770   39.2800 H   0  0  0  0  0  0  0  0  0  0  0  0
   43.8570   31.8340   42.2890 H   0  0  0  0  0  0  0  0  0  0  0  0
   40.2720   30.8850   39.5410 O   0  0  0  0  0  0  0  0  0  0  0  0
   40.5900   29.9990   39.8410 H   0  0  0  0  0  0  0  0  0  0  0  0
   37.3290   32.5910   38.0610 O   0  0  0  0  0  0  0  0  0  0  0  0
   37.7480   33.3820   37.6950 H   0  0  0  0  0  0  0  0  0  0  0  0
   37.1530   30.6920   40.9390 O   0  0  0  0  0  0  0  0  0  0  0  0
   35.6650   28.8800   41.1380 N   0  0  0  0  0  0  0  0  0  0  0  0
   34.8790   29.4330   40.0260 C   0  0  0  0  0  0  0  0  0  0  0  0
   35.5980   28.7400   38.8870 C   0  0  0  0  0  0  0  0  0  0  0  0
   37.0290   29.0100   39.2650 C   0  0  0  0  0  0  0  0  0  0  0  0
   36.9750   29.3470   40.7770 C   0  0  1  0  0  0  0  0  0  0  0  0
   35.3210   29.2130   42.0490 H   0  0  0  0  0  0  0  0  0  0  0  0
   33.8360   29.0500   40.1210 H   0  0  0  0  0  0  0  0  0  0  0  0
   34.9390   30.5130   39.9400 H   0  0  0  0  0  0  0  0  0  0  0  0
   35.3260   27.6850   38.8010 H   0  0  0  0  0  0  0  0  0  0  0  0
   35.3840   29.3370   37.9800 H   0  0  0  0  0  0  0  0  0  0  0  0
   37.4290   29.9190   38.7360 H   0  0  0  0  0  0  0  0  0  0  0  0
   37.6500   28.1890   38.9970 H   0  0  0  0  0  0  0  0  0  0  0  0
   37.9760   28.4010   41.3500 C   0  0  0  0  0  3  0  0  0  0  0  0
   38.3180   28.8800   42.7720 C   0  0  0  0  0  2  0  0  0  0  0  0
   39.5510   28.0820   43.1800 C   0  0  0  0  0  2  0  0  0  0  0  0
   39.2000   26.6100   43.2270 C   0  0  0  0  0  2  0  0  0  0  0  0
   37.7440   26.4390   42.9280 C   0  0  0  0  0  2  0  0  0  0  0  0
   37.4470   26.9830   41.5530 C   0  0  0  0  0  2  0  0  0  0  0  0
  1  2  1  0  0  0  0
  1  7  1  1  0  0  0
  2 15  1  0  0  0  0
  2  8  1  1  0  0  0
  3  4  1  0  0  0  0
  3  2  1  0  0  0  0
  4 10  1  0  0  0  0
  5 11  1  1  0  0  0
  5  4  1  0  0  0  0
  5  6  1  0  0  0  0
  6 12  1  6  0  0  0
  6  1  1  0  0  0  0
  6 26  1  0  0  0  0
  9  4  1  0  0  0  0
 13 18  1  0  0  0  0
 14 13  2  0  0  0  0
 14 15  1  0  0  0  0
 15 16  2  0  0  0  0
 16 17  1  0  0  0  0
 17 21  1  0  0  0  0
 18 17  2  0  0  0  0
 19 13  1  0  0  0  0
 20 14  1  0  0  0  0
 22 23  1  0  0  0  0
 22  1  1  0  0  0  0
 24  5  1  0  0  0  0
 25 24  1  0  0  0  0
 27 32  1  0  0  0  0
 28 33  1  0  0  0  0
 28 27  1  0  0  0  0
 29 30  1  0  0  0  0
 29 28  1  0  0  0  0
 30 31  1  0  0  0  0
 31 26  1  1  0  0  0
 31 27  1  0  0  0  0
 31 39  1  0  0  0  0
 34 28  1  0  0  0  0
 35 29  1  0  0  0  0
 36 29  1  0  0  0  0
 37 30  1  0  0  0  0
 38 30  1  0  0  0  0
 39 44  1  0  0  0  0
 39 40  1  0  0  0  0
 40 41  1  0  0  0  0
 41 42  1  0  0  0  0
 43 42  1  0  0  0  0
 44 43  1  0  0  0  0
M  END
>  <minimizedAffinity>
-6.06729794

$$$$

 OpenBabel03242521313D

 44 47  0  0  1  0  0  0  0  0999 V2000
   39.4730   31.8050   39.2370 C   0  0  1  0  0  0  0  0  0  0  0  0
   40.3760   32.9150   39.7670 C   0  0  2  0  0  0  0  0  0  0  0  0
   39.7640   34.1340   39.7360 O   0  0  0  0  0  0  0  0  0  0  0  0
   38.7740   34.1260   40.6800 C   0  0  0  0  0  0  0  0  0  0  0  0
   37.6590   33.2420   40.2100 C   0  0  2  0  0  0  0  0  0  0  0  0
   38.0790   31.8820   39.6890 C   0  0  2  0  0  0  0  0  0  0  0  0
   39.9110   30.8490   39.6580 H   0  0  0  0  0  0  0  0  0  0  0  0
   40.6370   32.6270   40.8120 H   0  0  0  0  0  0  0  0  0  0  0  0
   38.3700   35.1300   40.8090 H   0  0  0  0  0  0  0  0  0  0  0  0
   39.1950   33.7020   41.6190 H   0  0  0  0  0  0  0  0  0  0  0  0
   36.9660   33.1640   41.0580 H   0  0  0  0  0  0  0  0  0  0  0  0
   37.3870   31.6950   38.8420 H   0  0  0  0  0  0  0  0  0  0  0  0
   43.2410   34.1610   37.6230 C   0  0  0  0  0  0  0  0  0  0  0  0
   42.0460   34.1600   38.3480 C   0  0  0  0  0  0  0  0  0  0  0  0
   41.6340   32.9530   39.0050 C   0  0  0  0  0  0  0  0  0  0  0  0
   42.4120   31.8610   38.9010 N   0  0  0  0  0  0  0  0  0  0  0  0
   43.5810   31.9050   38.1780 C   0  0  0  0  0  0  0  0  0  0  0  0
   43.9870   33.0460   37.5470 N   0  0  0  0  0  0  0  0  0  0  0  0
   43.5450   35.0660   37.1330 H   0  0  0  0  0  0  0  0  0  0  0  0
   41.4240   35.0360   38.4290 H   0  0  0  0  0  0  0  0  0  0  0  0
   44.1890   31.0390   38.1010 H   0  0  0  0  0  0  0  0  0  0  0  0
   39.5840   31.6590   37.8630 O   0  0  0  0  0  0  0  0  0  0  0  0
   39.7110   30.7290   37.5550 H   0  0  0  0  0  0  0  0  0  0  0  0
   37.0090   33.9700   39.2020 O   0  0  0  0  0  0  0  0  0  0  0  0
   37.4100   34.8240   38.9900 H   0  0  0  0  0  0  0  0  0  0  0  0
   37.7260   30.9150   40.6400 O   0  0  0  0  0  0  0  0  0  0  0  0
   37.9810   28.6530   40.0410 N   0  0  0  0  0  0  0  0  0  0  0  0
   38.0860   28.3100   41.4670 C   0  0  0  0  0  0  0  0  0  0  0  0
   36.6130   28.0890   41.7450 C   0  0  0  0  0  0  0  0  0  0  0  0
   36.0280   29.3180   41.1030 C   0  0  0  0  0  0  0  0  0  0  0  0
   37.1240   29.8040   40.1210 C   0  0  1  0  0  0  0  0  0  0  0  0
   38.9060   28.8280   39.6230 H   0  0  0  0  0  0  0  0  0  0  0  0
   38.6480   27.3500   41.5470 H   0  0  0  0  0  0  0  0  0  0  0  0
   38.4940   29.1070   42.0800 H   0  0  0  0  0  0  0  0  0  0  0  0
   36.2520   27.1360   41.3490 H   0  0  0  0  0  0  0  0  0  0  0  0
   36.4870   28.2020   42.8380 H   0  0  0  0  0  0  0  0  0  0  0  0
   35.8700   30.1390   41.8560 H   0  0  0  0  0  0  0  0  0  0  0  0
   35.0820   29.1000   40.6680 H   0  0  0  0  0  0  0  0  0  0  0  0
   36.3750   29.9100   38.8360 C   0  0  0  0  0  3  0  0  0  0  0  0
   37.0960   29.0350   37.7950 C   0  0  0  0  0  2  0  0  0  0  0  0
   36.4890   29.4230   36.4520 C   0  0  0  0  0  2  0  0  0  0  0  0
   35.0160   29.0760   36.4500 C   0  0  0  0  0  2  0  0  0  0  0  0
   34.6650   28.4020   37.7400 C   0  0  0  0  0  2  0  0  0  0  0  0
   34.9620   29.3330   38.8890 C   0  0  0  0  0  2  0  0  0  0  0  0
  1  7  1  1  0  0  0
  1  6  1  0  0  0  0
  1  2  1  0  0  0  0
  2  8  1  1  0  0  0
  3  2  1  0  0  0  0
  3  4  1  0  0  0  0
  4  9  1  0  0  0  0
  4 10  1  0  0  0  0
  5  4  1  0  0  0  0
  5 11  1  1  0  0  0
  6 12  1  6  0  0  0
  6  5  1  0  0  0  0
  6 26  1  0  0  0  0
 13 14  1  0  0  0  0
 14 20  1  0  0  0  0
 14 15  2  0  0  0  0
 15  2  1  0  0  0  0
 16 15  1  0  0  0  0
 17 16  2  0  0  0  0
 18 13  2  0  0  0  0
 18 17  1  0  0  0  0
 19 13  1  0  0  0  0
 21 17  1  0  0  0  0
 22  1  1  0  0  0  0
 23 22  1  0  0  0  0
 24  5  1  0  0  0  0
 25 24  1  0  0  0  0
 27 31  1  0  0  0  0
 27 28  1  0  0  0  0
 28 33  1  0  0  0  0
 28 29  1  0  0  0  0
 28 34  1  0  0  0  0
 29 36  1  0  0  0  0
 30 29  1  0  0  0  0
 30 37  1  0  0  0  0
 31 26  1  1  0  0  0
 31 30  1  0  0  0  0
 32 27  1  0  0  0  0
 35 29  1  0  0  0  0
 38 30  1  0  0  0  0
 39 44  1  0  0  0  0
 39 31  1  0  0  0  0
 40 39  1  0  0  0  0
 41 40  1  0  0  0  0
 42 41  1  0  0  0  0
 42 43  1  0  0  0  0
 43 44  1  0  0  0  0
M  END
>  <minimizedAffinity>
-5.89909744

$$$$

 OpenBabel03242521313D

 44 47  0  0  1  0  0  0  0  0999 V2000
   36.6810   28.6000   38.9720 C   0  0  1  0  0  0  0  0  0  0  0  0
   36.8030   29.7390   37.9630 C   0  0  2  0  0  0  0  0  0  0  0  0
   36.2250   30.8900   38.4150 O   0  0  0  0  0  0  0  0  0  0  0  0
   36.9960   31.3630   39.4420 C   0  0  0  0  0  0  0  0  0  0  0  0
   36.8190   30.4750   40.6360 C   0  0  2  0  0  0  0  0  0  0  0  0
   36.9310   28.9880   40.3650 C   0  0  2  0  0  0  0  0  0  0  0  0
   37.4910   27.8640   38.6770 H   0  0  0  0  0  0  0  0  0  0  0  0
   37.8940   29.8820   37.7900 H   0  0  0  0  0  0  0  0  0  0  0  0
   36.6700   32.3660   39.7230 H   0  0  0  0  0  0  0  0  0  0  0  0
   38.0610   31.3250   39.1230 H   0  0  0  0  0  0  0  0  0  0  0  0
   37.5560   30.8180   41.3720 H   0  0  0  0  0  0  0  0  0  0  0  0
   36.1700   28.5360   41.0340 H   0  0  0  0  0  0  0  0  0  0  0  0
   36.4620   28.5920   34.3670 C   0  0  0  0  0  0  0  0  0  0  0  0
   37.0540   28.9540   35.5810 C   0  0  0  0  0  0  0  0  0  0  0  0
   36.2110   29.3410   36.6750 C   0  0  0  0  0  0  0  0  0  0  0  0
   34.8790   29.3440   36.4980 N   0  0  0  0  0  0  0  0  0  0  0  0
   34.3370   28.9790   35.2870 C   0  0  0  0  0  0  0  0  0  0  0  0
   35.1250   28.6080   34.2360 N   0  0  0  0  0  0  0  0  0  0  0  0
   37.0960   28.3030   33.5520 H   0  0  0  0  0  0  0  0  0  0  0  0
   38.1230   28.9520   35.7210 H   0  0  0  0  0  0  0  0  0  0  0  0
   33.2840   28.9840   35.1560 H   0  0  0  0  0  0  0  0  0  0  0  0
   35.5000   27.8930   38.8150 O   0  0  0  0  0  0  0  0  0  0  0  0
   35.6060   26.9110   38.7910 H   0  0  0  0  0  0  0  0  0  0  0  0
   35.5470   30.7830   41.1410 O   0  0  0  0  0  0  0  0  0  0  0  0
   35.0470   31.4320   40.6270 H   0  0  0  0  0  0  0  0  0  0  0  0
   38.1530   28.5350   40.8810 O   0  0  0  0  0  0  0  0  0  0  0  0
   38.8440   27.4810   42.8690 N   0  0  0  0  0  0  0  0  0  0  0  0
   38.0720   28.4700   43.6340 C   0  0  0  0  0  0  0  0  0  0  0  0
   36.7520   27.7280   43.6780 C   0  0  0  0  0  0  0  0  0  0  0  0
   36.6170   27.3280   42.2340 C   0  0  0  0  0  0  0  0  0  0  0  0
   38.0570   27.4220   41.6680 C   0  0  1  0  0  0  0  0  0  0  0  0
   39.8190   27.7820   42.7340 H   0  0  0  0  0  0  0  0  0  0  0  0
   38.5180   28.5370   44.6540 H   0  0  0  0  0  0  0  0  0  0  0  0
   37.9750   29.4300   43.1380 H   0  0  0  0  0  0  0  0  0  0  0  0
   36.7620   26.9020   44.3940 H   0  0  0  0  0  0  0  0  0  0  0  0
   35.9770   28.4900   43.8780 H   0  0  0  0  0  0  0  0  0  0  0  0
   35.9870   28.0640   41.6610 H   0  0  0  0  0  0  0  0  0  0  0  0
   36.1500   26.3770   42.1490 H   0  0  0  0  0  0  0  0  0  0  0  0
   38.2480   26.0750   41.0580 C   0  0  0  0  0  3  0  0  0  0  0  0
   38.9380   25.1780   42.1000 C   0  0  0  0  0  2  0  0  0  0  0  0
   39.3870   23.9390   41.3340 C   0  0  0  0  0  2  0  0  0  0  0  0
   38.1710   23.2190   40.7930 C   0  0  0  0  0  2  0  0  0  0  0  0
   36.9330   23.9230   41.2540 C   0  0  0  0  0  2  0  0  0  0  0  0
   36.9450   25.3430   40.7440 C   0  0  0  0  0  2  0  0  0  0  0  0
  1  7  1  6  0  0  0
  1  6  1  0  0  0  0
  2  8  1  6  0  0  0
  2  3  1  0  0  0  0
  2  1  1  0  0  0  0
  3  4  1  0  0  0  0
  4  9  1  0  0  0  0
  4  5  1  0  0  0  0
  5 24  1  0  0  0  0
  5 11  1  1  0  0  0
  6  5  1  0  0  0  0
  6 26  1  0  0  0  0
  6 12  1  1  0  0  0
 10  4  1  0  0  0  0
 13 14  1  0  0  0  0
 14 20  1  0  0  0  0
 14 15  2  0  0  0  0
 15  2  1  0  0  0  0
 16 15  1  0  0  0  0
 17 16  2  0  0  0  0
 18 13  2  0  0  0  0
 18 17  1  0  0  0  0
 19 13  1  0  0  0  0
 21 17  1  0  0  0  0
 22  1  1  0  0  0  0
 23 22  1  0  0  0  0
 25 24  1  0  0  0  0
 27 28  1  0  0  0  0
 28 29  1  0  0  0  0
 28 33  1  0  0  0  0
 29 36  1  0  0  0  0
 29 35  1  0  0  0  0
 30 29  1  0  0  0  0
 31 26  1  6  0  0  0
 31 30  1  0  0  0  0
 31 27  1  0  0  0  0
 32 27  1  0  0  0  0
 34 28  1  0  0  0  0
 37 30  1  0  0  0  0
 38 30  1  0  0  0  0
 39 31  1  0  0  0  0
 39 40  1  0  0  0  0
 41 40  1  0  0  0  0
 42 43  1  0  0  0  0
 42 41  1  0  0  0  0
 44 39  1  0  0  0  0
 44 43  1  0  0  0  0
M  END
>  <minimizedAffinity>
-5.89853811

$$$$

 OpenBabel03242521313D

 44 47  0  0  1  0  0  0  0  0999 V2000
   40.5600   31.8400   40.4520 C   0  0  1  0  0  0  0  0  0  0  0  0
   40.9700   33.2920   40.6760 C   0  0  2  0  0  0  0  0  0  0  0  0
   40.2000   34.1610   39.9590 O   0  0  0  0  0  0  0  0  0  0  0  0
   38.9460   34.1530   40.5080 C   0  0  0  0  0  0  0  0  0  0  0  0
   38.2780   32.8520   40.1820 C   0  0  2  0  0  0  0  0  0  0  0  0
   39.1100   31.6100   40.4310 C   0  0  2  0  0  0  0  0  0  0  0  0
   40.9760   31.2800   41.3450 H   0  0  0  0  0  0  0  0  0  0  0  0
   40.8650   33.4760   41.7700 H   0  0  0  0  0  0  0  0  0  0  0  0
   38.3430   34.9530   40.0770 H   0  0  0  0  0  0  0  0  0  0  0  0
   39.0510   34.2340   41.6130 H   0  0  0  0  0  0  0  0  0  0  0  0
   37.3440   32.8460   40.7570 H   0  0  0  0  0  0  0  0  0  0  0  0
   38.8390   30.9330   39.5950 H   0  0  0  0  0  0  0  0  0  0  0  0
   44.7330   33.5730   41.0220 C   0  0  0  0  0  0  0  0  0  0  0  0
   43.3920   33.3840   41.3680 C   0  0  0  0  0  0  0  0  0  0  0  0
   42.3920   33.4750   40.3440 C   0  0  0  0  0  0  0  0  0  0  0  0
   42.7780   33.7390   39.0830 N   0  0  0  0  0  0  0  0  0  0  0  0
   44.1080   33.9170   38.7850 C   0  0  0  0  0  0  0  0  0  0  0  0
   45.0720   33.8340   39.7480 N   0  0  0  0  0  0  0  0  0  0  0  0
   45.4780   33.5040   41.7910 H   0  0  0  0  0  0  0  0  0  0  0  0
   43.0850   33.1730   42.3790 H   0  0  0  0  0  0  0  0  0  0  0  0
   44.4040   34.1260   37.7870 H   0  0  0  0  0  0  0  0  0  0  0  0
   41.2070   31.2800   39.3620 O   0  0  0  0  0  0  0  0  0  0  0  0
   41.6130   30.3960   39.5310 H   0  0  0  0  0  0  0  0  0  0  0  0
   37.9340   32.9430   38.8240 O   0  0  0  0  0  0  0  0  0  0  0  0
   38.2180   33.7550   38.3830 H   0  0  0  0  0  0  0  0  0  0  0  0
   38.6110   30.9640   41.5710 O   0  0  0  0  0  0  0  0  0  0  0  0
   39.1110   28.6770   41.3270 N   0  0  0  0  0  0  0  0  0  0  0  0
   39.4420   28.6200   42.7590 C   0  0  0  0  0  0  0  0  0  0  0  0
   38.0620   28.2810   43.2850 C   0  0  0  0  0  0  0  0  0  0  0  0
   37.2320   29.2900   42.5420 C   0  0  0  0  0  0  0  0  0  0  0  0
   38.1150   29.7120   41.3400 C   0  0  1  0  0  0  0  0  0  0  0  0
   39.9420   28.8800   40.7530 H   0  0  0  0  0  0  0  0  0  0  0  0
   40.1420   27.7660   42.9140 H   0  0  0  0  0  0  0  0  0  0  0  0
   39.8050   29.5590   43.1620 H   0  0  0  0  0  0  0  0  0  0  0  0
   37.7960   27.2350   43.1130 H   0  0  0  0  0  0  0  0  0  0  0  0
   38.0580   28.5790   44.3500 H   0  0  0  0  0  0  0  0  0  0  0  0
   37.0530   30.2120   43.1610 H   0  0  0  0  0  0  0  0  0  0  0  0
   36.2800   28.8850   42.2950 H   0  0  0  0  0  0  0  0  0  0  0  0
   37.2030   29.4880   40.1810 C   0  0  0  0  0  3  0  0  0  0  0  0
   36.9210   27.9790   40.0870 C   0  0  0  0  0  2  0  0  0  0  0  0
   36.2600   27.7750   38.7290 C   0  0  0  0  0  2  0  0  0  0  0  0
   34.9460   28.5250   38.6950 C   0  0  0  0  0  2  0  0  0  0  0  0
   34.7010   29.1540   40.0310 C   0  0  0  0  0  2  0  0  0  0  0  0
   35.8200   30.1140   40.3460 C   0  0  0  0  0  2  0  0  0  0  0  0
  1  2  1  0  0  0  0
  1  7  1  1  0  0  0
  2  8  1  1  0  0  0
  3  4  1  0  0  0  0
  3  2  1  0  0  0  0
  4 10  1  0  0  0  0
  5  6  1  0  0  0  0
  5  4  1  0  0  0  0
  5 11  1  1  0  0  0
  6 12  1  6  0  0  0
  6  1  1  0  0  0  0
  6 26  1  0  0  0  0
  9  4  1  0  0  0  0
 13 14  1  0  0  0  0
 13 19  1  0  0  0  0
 14 20  1  0  0  0  0
 15  2  1  0  0  0  0
 15 14  2  0  0  0  0
 16 15  1  0  0  0  0
 17 16  2  0  0  0  0
 17 18  1  0  0  0  0
 18 13  2  0  0  0  0
 21 17  1  0  0  0  0
 22 23  1  0  0  0  0
 22  1  1  0  0  0  0
 24  5  1  0  0  0  0
 25 24  1  0  0  0  0
 27 31  1  0  0  0  0
 27 28  1  0  0  0  0
 28 33  1  0  0  0  0
 28 34  1  0  0  0  0
 28 29  1  0  0  0  0
 29 36  1  0  0  0  0
 30 37  1  0  0  0  0
 30 29  1  0  0  0  0
 31 26  1  1  0  0  0
 31 30  1  0  0  0  0
 32 27  1  0  0  0  0
 35 29  1  0  0  0  0
 38 30  1  0  0  0  0
 39 44  1  0  0  0  0
 39 31  1  0  0  0  0
 40 39  1  0  0  0  0
 41 40  1  0  0  0  0
 42 41  1  0  0  0  0
 42 43  1  0  0  0  0
 43 44  1  0  0  0  0
M  END
>  <minimizedAffinity>
-5.8390069

$$$$

 OpenBabel03242521313D

 44 47  0  0  1  0  0  0  0  0999 V2000
   38.8080   30.6480   39.5540 C   0  0  1  0  0  0  0  0  0  0  0  0
   39.3730   31.9170   38.9220 C   0  0  2  0  0  0  0  0  0  0  0  0
   39.3770   31.8550   37.5580 O   0  0  0  0  0  0  0  0  0  0  0  0
   38.0750   31.9060   37.1380 C   0  0  0  0  0  0  0  0  0  0  0  0
   37.4000   30.6110   37.4750 C   0  0  2  0  0  0  0  0  0  0  0  0
   37.6120   30.1140   38.8910 C   0  0  2  0  0  0  0  0  0  0  0  0
   38.5030   30.9560   40.6000 H   0  0  0  0  0  0  0  0  0  0  0  0
   38.7290   32.7530   39.2810 H   0  0  0  0  0  0  0  0  0  0  0  0
   38.0360   32.0300   36.0550 H   0  0  0  0  0  0  0  0  0  0  0  0
   37.5660   32.7290   37.6880 H   0  0  0  0  0  0  0  0  0  0  0  0
   36.3390   30.7620   37.2440 H   0  0  0  0  0  0  0  0  0  0  0  0
   37.6910   29.0130   38.7790 H   0  0  0  0  0  0  0  0  0  0  0  0
   42.2320   33.2100   41.0460 C   0  0  0  0  0  0  0  0  0  0  0  0
   40.9280   32.9760   40.5980 C   0  0  0  0  0  0  0  0  0  0  0  0
   40.7310   32.1740   39.4260 C   0  0  0  0  0  0  0  0  0  0  0  0
   41.8080   31.6730   38.7950 N   0  0  0  0  0  0  0  0  0  0  0  0
   43.0730   31.9270   39.2690 C   0  0  0  0  0  0  0  0  0  0  0  0
   43.2780   32.6890   40.3830 N   0  0  0  0  0  0  0  0  0  0  0  0
   42.3750   33.8110   41.9230 H   0  0  0  0  0  0  0  0  0  0  0  0
   40.0670   33.3790   41.1050 H   0  0  0  0  0  0  0  0  0  0  0  0
   43.9180   31.5280   38.7650 H   0  0  0  0  0  0  0  0  0  0  0  0
   39.7870   29.6860   39.7490 O   0  0  0  0  0  0  0  0  0  0  0  0
   39.7940   29.2800   40.6490 H   0  0  0  0  0  0  0  0  0  0  0  0
   37.9030   29.6820   36.5520 O   0  0  0  0  0  0  0  0  0  0  0  0
   38.5770   30.0250   35.9490 H   0  0  0  0  0  0  0  0  0  0  0  0
   36.4220   30.3010   39.6080 O   0  0  0  0  0  0  0  0  0  0  0  0
   34.4280   29.0940   39.9320 N   0  0  0  0  0  0  0  0  0  0  0  0
   34.3230   28.9210   38.4760 C   0  0  0  0  0  0  0  0  0  0  0  0
   35.1060   27.6310   38.3530 C   0  0  0  0  0  0  0  0  0  0  0  0
   36.3140   27.9660   39.1850 C   0  0  0  0  0  0  0  0  0  0  0  0
   35.8570   29.1490   40.0760 C   0  0  1  0  0  0  0  0  0  0  0  0
   33.9270   29.9330   40.2530 H   0  0  0  0  0  0  0  0  0  0  0  0
   33.2490   28.7530   38.2280 H   0  0  0  0  0  0  0  0  0  0  0  0
   34.7800   29.7230   37.9060 H   0  0  0  0  0  0  0  0  0  0  0  0
   34.5330   26.7620   38.6860 H   0  0  0  0  0  0  0  0  0  0  0  0
   35.4430   27.5740   37.3010 H   0  0  0  0  0  0  0  0  0  0  0  0
   37.1620   28.3390   38.5470 H   0  0  0  0  0  0  0  0  0  0  0  0
   36.6630   27.1060   39.7050 H   0  0  0  0  0  0  0  0  0  0  0  0
   36.2010   28.6680   41.4450 C   0  0  0  0  0  3  0  0  0  0  0  0
   37.1210   27.4440   41.2990 C   0  0  0  0  0  2  0  0  0  0  0  0
   37.1800   26.8150   42.6860 C   0  0  0  0  0  2  0  0  0  0  0  0
   37.8130   27.7940   43.6520 C   0  0  0  0  0  2  0  0  0  0  0  0
   38.2340   29.0220   42.9070 C   0  0  0  0  0  2  0  0  0  0  0  0
   37.0270   29.6570   42.2640 C   0  0  0  0  0  2  0  0  0  0  0  0
  1 22  1  0  0  0  0
  1  7  1  1  0  0  0
  2  8  1  1  0  0  0
  2 15  1  0  0  0  0
  2  1  1  0  0  0  0
  3  2  1  0  0  0  0
  4  5  1  0  0  0  0
  4  3  1  0  0  0  0
  4 10  1  0  0  0  0
  5 11  1  6  0  0  0
  5  6  1  0  0  0  0
  6 12  1  6  0  0  0
  6  1  1  0  0  0  0
  6 26  1  0  0  0  0
  9  4  1  0  0  0  0
 13 19  1  0  0  0  0
 14 13  1  0  0  0  0
 14 20  1  0  0  0  0
 15 14  2  0  0  0  0
 16 17  2  0  0  0  0
 16 15  1  0  0  0  0
 17 18  1  0  0  0  0
 18 13  2  0  0  0  0
 21 17  1  0  0  0  0
 22 23  1  0  0  0  0
 24  5  1  0  0  0  0
 25 24  1  0  0  0  0
 27 31  1  0  0  0  0
 27 32  1  0  0  0  0
 28 27  1  0  0  0  0
 29 28  1  0  0  0  0
 29 35  1  0  0  0  0
 29 30  1  0  0  0  0
 30 38  1  0  0  0  0
 30 31  1  0  0  0  0
 31 26  1  6  0  0  0
 31 39  1  0  0  0  0
 33 28  1  0  0  0  0
 34 28  1  0  0  0  0
 36 29  1  0  0  0  0
 37 30  1  0  0  0  0
 39 44  1  0  0  0  0
 40 39  1  0  0  0  0
 40 41  1  0  0  0  0
 41 42  1  0  0  0  0
 43 42  1  0  0  0  0
 44 43  1  0  0  0  0
M  END
>  <minimizedAffinity>
-5.75553656

$$$$

 OpenBabel03242521313D

 44 47  0  0  1  0  0  0  0  0999 V2000
   38.2040   28.8100   40.4020 C   0  0  1  0  0  0  0  0  0  0  0  0
   37.1810   27.6870   40.2560 C   0  0  2  0  0  0  0  0  0  0  0  0
   36.0230   27.9560   40.9260 O   0  0  0  0  0  0  0  0  0  0  0  0
   35.3910   28.9770   40.2680 C   0  0  0  0  0  0  0  0  0  0  0  0
   36.1490   30.2490   40.4970 C   0  0  2  0  0  0  0  0  0  0  0  0
   37.6470   30.1630   40.2880 C   0  0  2  0  0  0  0  0  0  0  0  0
   38.9190   28.6660   39.5350 H   0  0  0  0  0  0  0  0  0  0  0  0
   36.9930   27.5820   39.1630 H   0  0  0  0  0  0  0  0  0  0  0  0
   34.3850   29.1130   40.6650 H   0  0  0  0  0  0  0  0  0  0  0  0
   35.4020   28.7450   39.1790 H   0  0  0  0  0  0  0  0  0  0  0  0
   35.6820   30.9940   39.8400 H   0  0  0  0  0  0  0  0  0  0  0  0
   38.0660   30.8210   41.0770 H   0  0  0  0  0  0  0  0  0  0  0  0
   37.6270   24.4050   42.0970 C   0  0  0  0  0  0  0  0  0  0  0  0
   37.0500   25.6040   41.6690 C   0  0  0  0  0  0  0  0  0  0  0  0
   37.7560   26.4140   40.7190 C   0  0  0  0  0  0  0  0  0  0  0  0
   38.9510   25.9930   40.2710 N   0  0  0  0  0  0  0  0  0  0  0  0
   39.4840   24.8060   40.7160 C   0  0  0  0  0  0  0  0  0  0  0  0
   38.8240   24.0240   41.6210 N   0  0  0  0  0  0  0  0  0  0  0  0
   37.0960   23.8030   42.8080 H   0  0  0  0  0  0  0  0  0  0  0  0
   36.0920   25.9400   42.0310 H   0  0  0  0  0  0  0  0  0  0  0  0
   40.4280   24.4810   40.3570 H   0  0  0  0  0  0  0  0  0  0  0  0
   38.9940   28.6490   41.5300 O   0  0  0  0  0  0  0  0  0  0  0  0
   39.9640   28.7470   41.3720 H   0  0  0  0  0  0  0  0  0  0  0  0
   35.8620   30.6170   41.8200 O   0  0  0  0  0  0  0  0  0  0  0  0
   35.3060   29.9940   42.3080 H   0  0  0  0  0  0  0  0  0  0  0  0
   37.9660   30.8190   39.0900 O   0  0  0  0  0  0  0  0  0  0  0  0
   38.7230   32.9960   38.6140 N   0  0  0  0  0  0  0  0  0  0  0  0
   37.7660   33.5200   39.5980 C   0  0  0  0  0  0  0  0  0  0  0  0
   38.6570   33.4590   40.8210 C   0  0  0  0  0  0  0  0  0  0  0  0
   39.2120   32.0670   40.6830 C   0  0  0  0  0  0  0  0  0  0  0  0
   38.9980   31.7090   39.1900 C   0  0  1  0  0  0  0  0  0  0  0  0
   38.3200   32.9710   37.6670 H   0  0  0  0  0  0  0  0  0  0  0  0
   37.5440   34.5800   39.3280 H   0  0  0  0  0  0  0  0  0  0  0  0
   36.8790   32.9060   39.7170 H   0  0  0  0  0  0  0  0  0  0  0  0
   39.4000   34.2600   40.8370 H   0  0  0  0  0  0  0  0  0  0  0  0
   37.9800   33.4530   41.6960 H   0  0  0  0  0  0  0  0  0  0  0  0
   38.6200   31.3270   41.2900 H   0  0  0  0  0  0  0  0  0  0  0  0
   40.2170   32.0270   41.0270 H   0  0  0  0  0  0  0  0  0  0  0  0
   40.3660   31.2950   38.7630 C   0  0  0  0  0  3  0  0  0  0  0  0
   40.8430   32.2830   37.6840 C   0  0  0  0  0  2  0  0  0  0  0  0
   42.0810   31.6430   37.0690 C   0  0  0  0  0  2  0  0  0  0  0  0
   43.1550   31.5150   38.1290 C   0  0  0  0  0  2  0  0  0  0  0  0
   42.6660   32.1270   39.4050 C   0  0  0  0  0  2  0  0  0  0  0  0
   41.4220   31.4080   39.8610 C   0  0  0  0  0  2  0  0  0  0  0  0
  1  7  1  6  0  0  0
  1 22  1  0  0  0  0
  2  8  1  6  0  0  0
  2  1  1  0  0  0  0
  2 15  1  0  0  0  0
  2  3  1  0  0  0  0
  4  5  1  0  0  0  0
  4  9  1  0  0  0  0
  4  3  1  0  0  0  0
  5 11  1  6  0  0  0
  5 24  1  0  0  0  0
  6  1  1  0  0  0  0
  6  5  1  0  0  0  0
  6 12  1  1  0  0  0
 10  4  1  0  0  0  0
 13 19  1  0  0  0  0
 14 20  1  0  0  0  0
 14 13  1  0  0  0  0
 15 14  2  0  0  0  0
 16 17  2  0  0  0  0
 16 15  1  0  0  0  0
 17 18  1  0  0  0  0
 18 13  2  0  0  0  0
 21 17  1  0  0  0  0
 23 22  1  0  0  0  0
 24 25  1  0  0  0  0
 26  6  1  0  0  0  0
 27 31  1  0  0  0  0
 27 28  1  0  0  0  0
 28 34  1  0  0  0  0
 28 29  1  0  0  0  0
 29 35  1  0  0  0  0
 29 36  1  0  0  0  0
 30 29  1  0  0  0  0
 30 38  1  0  0  0  0
 30 37  1  0  0  0  0
 31 26  1  6  0  0  0
 31 30  1  0  0  0  0
 32 27  1  0  0  0  0
 33 28  1  0  0  0  0
 39 31  1  0  0  0  0
 39 44  1  0  0  0  0
 40 39  1  0  0  0  0
 41 40  1  0  0  0  0
 41 42  1  0  0  0  0
 42 43  1  0  0  0  0
 43 44  1  0  0  0  0
M  END
>  <minimizedAffinity>
-5.75090694

$$$$

 OpenBabel03242521313D

 44 47  0  0  1  0  0  0  0  0999 V2000
   39.0930   30.1650   39.5030 C   0  0  1  0  0  0  0  0  0  0  0  0
   38.6980   31.3690   38.6530 C   0  0  2  0  0  0  0  0  0  0  0  0
   38.2200   31.0000   37.4290 O   0  0  0  0  0  0  0  0  0  0  0  0
   37.0040   30.4020   37.6220 C   0  0  0  0  0  0  0  0  0  0  0  0
   37.2150   29.0610   38.2560 C   0  0  2  0  0  0  0  0  0  0  0  0
   38.1510   29.0410   39.4480 C   0  0  2  0  0  0  0  0  0  0  0  0
   39.0950   30.5500   40.5690 H   0  0  0  0  0  0  0  0  0  0  0  0
   37.9200   31.9160   39.2360 H   0  0  0  0  0  0  0  0  0  0  0  0
   36.5090   30.2430   36.6640 H   0  0  0  0  0  0  0  0  0  0  0  0
   36.4120   31.0380   38.3180 H   0  0  0  0  0  0  0  0  0  0  0  0
   36.2130   28.6940   38.5110 H   0  0  0  0  0  0  0  0  0  0  0  0
   38.6990   28.0820   39.3420 H   0  0  0  0  0  0  0  0  0  0  0  0
   41.1770   34.1610   39.3020 C   0  0  0  0  0  0  0  0  0  0  0  0
   40.0870   33.3030   39.4790 C   0  0  0  0  0  0  0  0  0  0  0  0
   39.8420   32.2820   38.5020 C   0  0  0  0  0  0  0  0  0  0  0  0
   40.6690   32.1830   37.4470 N   0  0  0  0  0  0  0  0  0  0  0  0
   41.7300   33.0470   37.3100 C   0  0  0  0  0  0  0  0  0  0  0  0
   41.9770   34.0240   38.2310 N   0  0  0  0  0  0  0  0  0  0  0  0
   41.3570   34.9230   40.0350 H   0  0  0  0  0  0  0  0  0  0  0  0
   39.4260   33.3850   40.3260 H   0  0  0  0  0  0  0  0  0  0  0  0
   42.3780   32.9620   36.4740 H   0  0  0  0  0  0  0  0  0  0  0  0
   40.4040   29.7770   39.2740 O   0  0  0  0  0  0  0  0  0  0  0  0
   40.9410   29.6330   40.0910 H   0  0  0  0  0  0  0  0  0  0  0  0
   37.7140   28.2420   37.2320 O   0  0  0  0  0  0  0  0  0  0  0  0
   37.8590   28.6860   36.3850 H   0  0  0  0  0  0  0  0  0  0  0  0
   37.3840   28.8730   40.6100 O   0  0  0  0  0  0  0  0  0  0  0  0
   38.8090   28.0980   42.3160 N   0  0  0  0  0  0  0  0  0  0  0  0
   38.0780   28.9380   43.2760 C   0  0  0  0  0  0  0  0  0  0  0  0
   37.0190   27.9330   43.6800 C   0  0  0  0  0  0  0  0  0  0  0  0
   36.5840   27.4390   42.3270 C   0  0  0  0  0  0  0  0  0  0  0  0
   37.7550   27.8080   41.3820 C   0  0  1  0  0  0  0  0  0  0  0  0
   39.6190   28.5930   41.9170 H   0  0  0  0  0  0  0  0  0  0  0  0
   38.7610   29.1520   44.1310 H   0  0  0  0  0  0  0  0  0  0  0  0
   37.6400   29.8270   42.8350 H   0  0  0  0  0  0  0  0  0  0  0  0
   37.4060   27.1680   44.3570 H   0  0  0  0  0  0  0  0  0  0  0  0
   36.1800   28.5220   44.0950 H   0  0  0  0  0  0  0  0  0  0  0  0
   35.6750   27.9910   41.9600 H   0  0  0  0  0  0  0  0  0  0  0  0
   36.3320   26.4060   42.3680 H   0  0  0  0  0  0  0  0  0  0  0  0
   38.0630   26.5030   40.7310 C   0  0  0  0  0  3  0  0  0  0  0  0
   39.2970   25.9050   41.4300 C   0  0  0  0  0  2  0  0  0  0  0  0
   39.7490   24.7550   40.5380 C   0  0  0  0  0  2  0  0  0  0  0  0
   38.6580   23.7070   40.4830 C   0  0  0  0  0  2  0  0  0  0  0  0
   37.5320   24.1170   41.3810 C   0  0  0  0  0  2  0  0  0  0  0  0
   36.9810   25.4420   40.9190 C   0  0  0  0  0  2  0  0  0  0  0  0
  1  7  1  1  0  0  0
  2  8  1  1  0  0  0
  2  1  1  0  0  0  0
  3  4  1  0  0  0  0
  3  2  1  0  0  0  0
  4  5  1  0  0  0  0
  4 10  1  0  0  0  0
  5 11  1  1  0  0  0
  5  6  1  0  0  0  0
  6 12  1  6  0  0  0
  6  1  1  0  0  0  0
  6 26  1  0  0  0  0
  9  4  1  0  0  0  0
 13 14  1  0  0  0  0
 13 19  1  0  0  0  0
 14 20  1  0  0  0  0
 15  2  1  0  0  0  0
 15 14  2  0  0  0  0
 16 15  1  0  0  0  0
 17 16  2  0  0  0  0
 17 18  1  0  0  0  0
 18 13  2  0  0  0  0
 21 17  1  0  0  0  0
 22  1  1  0  0  0  0
 22 23  1  0  0  0  0
 24  5  1  0  0  0  0
 25 24  1  0  0  0  0
 27 28  1  0  0  0  0
 28 29  1  0  0  0  0
 28 33  1  0  0  0  0
 29 36  1  0  0  0  0
 29 35  1  0  0  0  0
 30 38  1  0  0  0  0
 30 29  1  0  0  0  0
 31 26  1  6  0  0  0
 31 27  1  0  0  0  0
 31 30  1  0  0  0  0
 32 27  1  0  0  0  0
 34 28  1  0  0  0  0
 37 30  1  0  0  0  0
 39 44  1  0  0  0  0
 39 31  1  0  0  0  0
 39 40  1  0  0  0  0
 41 40  1  0  0  0  0
 42 41  1  0  0  0  0
 42 43  1  0  0  0  0
 44 43  1  0  0  0  0
M  END
>  <minimizedAffinity>
-5.72158051

$$$$

 OpenBabel03242521313D

 44 47  0  0  1  0  0  0  0  0999 V2000
   36.8140   28.8340   39.9010 C   0  0  1  0  0  0  0  0  0  0  0  0
   36.5200   29.2690   38.4680 C   0  0  2  0  0  0  0  0  0  0  0  0
   36.1580   30.5830   38.3940 O   0  0  0  0  0  0  0  0  0  0  0  0
   37.2660   31.3350   38.6770 C   0  0  0  0  0  0  0  0  0  0  0  0
   37.5790   31.2130   40.1370 C   0  0  2  0  0  0  0  0  0  0  0  0
   37.5870   29.8020   40.6880 C   0  0  2  0  0  0  0  0  0  0  0  0
   37.4480   27.9010   39.7960 H   0  0  0  0  0  0  0  0  0  0  0  0
   37.4550   29.0800   37.8910 H   0  0  0  0  0  0  0  0  0  0  0  0
   37.0690   32.3870   38.4650 H   0  0  0  0  0  0  0  0  0  0  0  0
   38.1200   30.9260   38.0930 H   0  0  0  0  0  0  0  0  0  0  0  0
   38.5440   31.7170   40.2760 H   0  0  0  0  0  0  0  0  0  0  0  0
   37.1540   29.9080   41.7040 H   0  0  0  0  0  0  0  0  0  0  0  0
   33.3040   28.1630   36.7980 C   0  0  0  0  0  0  0  0  0  0  0  0
   34.2840   29.0010   37.3380 C   0  0  0  0  0  0  0  0  0  0  0  0
   35.4740   28.4160   37.8830 C   0  0  0  0  0  0  0  0  0  0  0  0
   35.6080   27.0780   37.8580 N   0  0  0  0  0  0  0  0  0  0  0  0
   34.6200   26.2890   37.3170 C   0  0  0  0  0  0  0  0  0  0  0  0
   33.4810   26.8310   36.7940 N   0  0  0  0  0  0  0  0  0  0  0  0
   32.4150   28.6050   36.3910 H   0  0  0  0  0  0  0  0  0  0  0  0
   34.1730   30.0730   37.3570 H   0  0  0  0  0  0  0  0  0  0  0  0
   34.7340   25.2350   37.3010 H   0  0  0  0  0  0  0  0  0  0  0  0
   35.6710   28.4020   40.5560 O   0  0  0  0  0  0  0  0  0  0  0  0
   35.7670   27.5390   41.0280 H   0  0  0  0  0  0  0  0  0  0  0  0
   36.6050   31.9850   40.7900 O   0  0  0  0  0  0  0  0  0  0  0  0
   35.9390   32.3800   40.2110 H   0  0  0  0  0  0  0  0  0  0  0  0
   38.9170   29.4250   40.9210 O   0  0  0  0  0  0  0  0  0  0  0  0
   38.2650   29.6550   43.1710 N   0  0  0  0  0  0  0  0  0  0  0  0
   37.8240   28.2530   43.1620 C   0  0  0  0  0  0  0  0  0  0  0  0
   39.1290   27.6130   43.5870 C   0  0  0  0  0  0  0  0  0  0  0  0
   40.0880   28.3110   42.6630 C   0  0  0  0  0  0  0  0  0  0  0  0
   39.3340   29.5880   42.2120 C   0  0  1  0  0  0  0  0  0  0  0  0
   37.4990   30.2960   42.9230 H   0  0  0  0  0  0  0  0  0  0  0  0
   37.0510   28.1340   43.9580 H   0  0  0  0  0  0  0  0  0  0  0  0
   37.5030   27.9000   42.1880 H   0  0  0  0  0  0  0  0  0  0  0  0
   39.3280   27.7400   44.6550 H   0  0  0  0  0  0  0  0  0  0  0  0
   39.0740   26.5570   43.2610 H   0  0  0  0  0  0  0  0  0  0  0  0
   40.2880   27.7010   41.7400 H   0  0  0  0  0  0  0  0  0  0  0  0
   41.0230   28.4740   43.1450 H   0  0  0  0  0  0  0  0  0  0  0  0
   40.3110   30.6670   42.5350 C   0  0  0  0  0  3  0  0  0  0  0  0
   41.6670   30.0030   42.8310 C   0  0  0  0  0  2  0  0  0  0  0  0
   42.5260   31.0970   43.4530 C   0  0  0  0  0  2  0  0  0  0  0  0
   42.7310   32.2060   42.4420 C   0  0  0  0  0  2  0  0  0  0  0  0
   42.0830   31.8210   41.1480 C   0  0  0  0  0  2  0  0  0  0  0  0
   40.6070   31.6090   41.3700 C   0  0  0  0  0  2  0  0  0  0  0  0
  1  7  1  6  0  0  0
  1 22  1  0  0  0  0
  1  6  1  0  0  0  0
  2  8  1  6  0  0  0
  2  1  1  0  0  0  0
  3  2  1  0  0  0  0
  3  4  1  0  0  0  0
  4  5  1  0  0  0  0
  5 11  1  1  0  0  0
  5  6  1  0  0  0  0
  5 24  1  0  0  0  0
  6 26  1  0  0  0  0
  6 12  1  1  0  0  0
  9  4  1  0  0  0  0
 10  4  1  0  0  0  0
 13 14  1  0  0  0  0
 14 20  1  0  0  0  0
 14 15  2  0  0  0  0
 15  2  1  0  0  0  0
 16 15  1  0  0  0  0
 17 16  2  0  0  0  0
 18 13  2  0  0  0  0
 18 17  1  0  0  0  0
 19 13  1  0  0  0  0
 21 17  1  0  0  0  0
 22 23  1  0  0  0  0
 25 24  1  0  0  0  0
 28 27  1  0  0  0  0
 28 29  1  0  0  0  0
 28 33  1  0  0  0  0
 29 35  1  0  0  0  0
 30 38  1  0  0  0  0
 30 29  1  0  0  0  0
 31 26  1  6  0  0  0
 31 39  1  0  0  0  0
 31 30  1  0  0  0  0
 31 27  1  0  0  0  0
 32 27  1  0  0  0  0
 34 28  1  0  0  0  0
 36 29  1  0  0  0  0
 37 30  1  0  0  0  0
 39 40  1  0  0  0  0
 40 41  1  0  0  0  0
 42 41  1  0  0  0  0
 43 44  1  0  0  0  0
 43 42  1  0  0  0  0
 44 39  1  0  0  0  0
M  END
>  <minimizedAffinity>
-5.66568041

$$$$

 OpenBabel03242521313D

 44 47  0  0  1  0  0  0  0  0999 V2000
   37.7050   28.1460   40.7380 C   0  0  1  0  0  0  0  0  0  0  0  0
   37.4410   27.2320   41.9320 C   0  0  2  0  0  0  0  0  0  0  0  0
   38.3200   27.4520   42.9520 O   0  0  0  0  0  0  0  0  0  0  0  0
   38.0340   28.6780   43.4890 C   0  0  0  0  0  0  0  0  0  0  0  0
   38.4550   29.7440   42.5230 C   0  0  2  0  0  0  0  0  0  0  0  0
   38.0120   29.5370   41.0890 C   0  0  2  0  0  0  0  0  0  0  0  0
   36.7330   28.1510   40.1560 H   0  0  0  0  0  0  0  0  0  0  0  0
   36.3950   27.4430   42.2550 H   0  0  0  0  0  0  0  0  0  0  0  0
   38.5970   28.8240   44.4110 H   0  0  0  0  0  0  0  0  0  0  0  0
   36.9330   28.7430   43.6360 H   0  0  0  0  0  0  0  0  0  0  0  0
   38.0780   30.6860   42.9400 H   0  0  0  0  0  0  0  0  0  0  0  0
   38.8680   29.9080   40.4880 H   0  0  0  0  0  0  0  0  0  0  0  0
   38.4370   23.5840   41.6940 C   0  0  0  0  0  0  0  0  0  0  0  0
   38.4120   24.9150   42.1220 C   0  0  0  0  0  0  0  0  0  0  0  0
   37.4850   25.8230   41.5120 C   0  0  0  0  0  0  0  0  0  0  0  0
   36.6700   25.3640   40.5460 N   0  0  0  0  0  0  0  0  0  0  0  0
   36.7260   24.0470   40.1540 C   0  0  0  0  0  0  0  0  0  0  0  0
   37.6030   23.1700   40.7260 N   0  0  0  0  0  0  0  0  0  0  0  0
   39.1320   22.9080   42.1540 H   0  0  0  0  0  0  0  0  0  0  0  0
   39.0670   25.2800   42.8960 H   0  0  0  0  0  0  0  0  0  0  0  0
   36.0790   23.6940   39.3910 H   0  0  0  0  0  0  0  0  0  0  0  0
   38.6290   27.5980   39.8610 O   0  0  0  0  0  0  0  0  0  0  0  0
   38.3580   27.6170   38.9110 H   0  0  0  0  0  0  0  0  0  0  0  0
   39.8550   29.7810   42.5990 O   0  0  0  0  0  0  0  0  0  0  0  0
   40.2510   29.1220   43.1870 H   0  0  0  0  0  0  0  0  0  0  0  0
   36.9790   30.4440   40.8090 O   0  0  0  0  0  0  0  0  0  0  0  0
   36.9180   32.5620   39.7840 N   0  0  0  0  0  0  0  0  0  0  0  0
   38.1130   32.9420   40.5510 C   0  0  0  0  0  0  0  0  0  0  0  0
   39.1620   32.4740   39.5640 C   0  0  0  0  0  0  0  0  0  0  0  0
   38.6380   31.1020   39.2400 C   0  0  0  0  0  0  0  0  0  0  0  0
   37.1440   31.1490   39.6510 C   0  0  1  0  0  0  0  0  0  0  0  0
   36.0520   32.8180   40.2780 H   0  0  0  0  0  0  0  0  0  0  0  0
   38.1240   34.0540   40.6380 H   0  0  0  0  0  0  0  0  0  0  0  0
   38.2030   32.4310   41.5040 H   0  0  0  0  0  0  0  0  0  0  0  0
   39.2630   33.1510   38.7110 H   0  0  0  0  0  0  0  0  0  0  0  0
   40.0920   32.3370   40.1450 H   0  0  0  0  0  0  0  0  0  0  0  0
   39.1310   30.3140   39.8740 H   0  0  0  0  0  0  0  0  0  0  0  0
   38.8290   30.8570   38.2230 H   0  0  0  0  0  0  0  0  0  0  0  0
   36.4580   30.6890   38.4090 C   0  0  0  0  0  3  0  0  0  0  0  0
   37.5110   30.0220   37.5070 C   0  0  0  0  0  2  0  0  0  0  0  0
   36.8370   29.8610   36.1500 C   0  0  0  0  0  2  0  0  0  0  0  0
   35.6490   28.9320   36.2890 C   0  0  0  0  0  2  0  0  0  0  0  0
   35.5800   28.4260   37.6960 C   0  0  0  0  0  2  0  0  0  0  0  0
   35.4210   29.5910   38.6400 C   0  0  0  0  0  2  0  0  0  0  0  0
  1  7  1  6  0  0  0
  1  6  1  0  0  0  0
  1  2  1  0  0  0  0
  2  8  1  1  0  0  0
  2  3  1  0  0  0  0
  3  4  1  0  0  0  0
  4 10  1  0  0  0  0
  4  9  1  0  0  0  0
  5 24  1  0  0  0  0
  5 11  1  1  0  0  0
  5  4  1  0  0  0  0
  6 12  1  6  0  0  0
  6  5  1  0  0  0  0
 13 14  1  0  0  0  0
 13 19  1  0  0  0  0
 14 20  1  0  0  0  0
 15  2  1  0  0  0  0
 15 14  2  0  0  0  0
 16 15  1  0  0  0  0
 17 16  2  0  0  0  0
 17 18  1  0  0  0  0
 18 13  2  0  0  0  0
 21 17  1  0  0  0  0
 22  1  1  0  0  0  0
 23 22  1  0  0  0  0
 24 25  1  0  0  0  0
 26  6  1  0  0  0  0
 27 32  1  0  0  0  0
 27 28  1  0  0  0  0
 28 33  1  0  0  0  0
 28 34  1  0  0  0  0
 29 36  1  0  0  0  0
 29 28  1  0  0  0  0
 30 29  1  0  0  0  0
 30 31  1  0  0  0  0
 30 37  1  0  0  0  0
 31 27  1  0  0  0  0
 31 26  1  1  0  0  0
 35 29  1  0  0  0  0
 38 30  1  0  0  0  0
 39 44  1  0  0  0  0
 39 31  1  0  0  0  0
 40 39  1  0  0  0  0
 41 42  1  0  0  0  0
 41 40  1  0  0  0  0
 42 43  1  0  0  0  0
 43 44  1  0  0  0  0
M  END
>  <minimizedAffinity>
-5.64064741

$$$$
