REMARK  Name = 
REMARK  8 active torsions:
REMARK  status: ('A' for Active; 'I' for Inactive)
REMARK    1  A    between atoms: C_1  and  C_9
REMARK    2  A    between atoms: C_2  and  C_13
REMARK    3  A    between atoms: C_13  and  N_14
REMARK    4  A    between atoms: N_14  and  S_15
REMARK    5  A    between atoms: S_15  and  O_16
REMARK    6  A    between atoms: S_15  and  O_17
REMARK    7  A    between atoms: S_15  and  O_18
REMARK    8  A    between atoms: O_18  and  C_31
REMARK                            x       y       z     vdW  Elec       q    Type
REMARK                         _______ _______ _______ _____ _____    ______ ____
ROOT
ATOM      1  C   UNL     1      42.215  34.176  40.195  0.00  0.00    +0.000 A 
ATOM      2  C   UNL     1      42.288  35.134  41.188  0.00  0.00    +0.000 A 
ATOM      3  C   UNL     1      41.233  36.018  41.353  0.00  0.00    +0.000 A 
ATOM      4  C   UNL     1      40.145  35.925  40.533  0.00  0.00    +0.000 A 
ATOM      5  C   UNL     1      40.030  34.994  39.538  0.00  0.00    +0.000 A 
ATOM      6  C   UNL     1      41.119  34.136  39.421  0.00  0.00    +0.000 A 
ATOM      7  H   UNL     1      41.319  36.757  42.140  0.00  0.00    +0.000 HD
ATOM      8  H   UNL     1      39.359  36.641  40.712  0.00  0.00    +0.000 HD
ATOM      9  H   UNL     1      39.168  34.919  38.886  0.00  0.00    +0.000 HD
ATOM     10  H   UNL     1      41.090  33.370  38.646  0.00  0.00    +0.000 HD
ENDROOT
BRANCH   1  13
ATOM     11  C   UNL     1      44.609  31.296  40.587  0.00  0.00    +0.000 A 
ATOM     12  C   UNL     1      43.467  32.093  40.784  0.00  0.00    +0.000 A 
ATOM     13  C   UNL     1      43.347  33.280  40.070  0.00  0.00    +0.000 A 
ATOM     14  N   UNL     1      44.347  33.591  39.224  0.00  0.00    +0.000 NA
ATOM     15  C   UNL     1      45.439  32.824  39.039  0.00  0.00    +0.000 A 
ATOM     16  N   UNL     1      45.564  31.668  39.729  0.00  0.00    +0.000 NA
ATOM     17  H   UNL     1      44.726  30.369  41.130  0.00  0.00    +0.000 HD
ATOM     18  H   UNL     1      42.692  31.809  41.467  0.00  0.00    +0.000 HD
ATOM     19  H   UNL     1      46.232  33.095  38.352  0.00  0.00    +0.000 HD
ENDBRANCH   1  13
BRANCH   2  20
ATOM     20  C   UNL     1      43.490  35.211  42.070  0.00  0.00    +0.000 C 
ATOM     21  H   UNL     1      44.162  35.962  41.598  0.00  0.00    +0.000 HD
ATOM     22  H   UNL     1      44.050  34.256  42.031  0.00  0.00    +0.000 HD
BRANCH  20  23
ATOM     23  N   UNL     1      43.229  35.666  43.395  0.00  0.00    +0.000 NA
ATOM     24  H   UNL     1      42.647  34.910  43.858  0.00  0.00    +0.000 HD
BRANCH  23  25
ATOM     25  S   UNL     1      44.652  35.849  44.339  0.00  0.00    +0.000 S 
BRANCH  25  26
ATOM     26  O   UNL     1      45.815  35.199  43.665  0.00  0.00    +0.000 OA
ATOM     27  H   UNL     1      46.023  34.231  43.818  0.00  0.00    +0.000 HD
ENDBRANCH  25  26
BRANCH  25  28
ATOM     28  O   UNL     1      44.487  35.315  45.709  0.00  0.00    +0.000 OA
ATOM     29  H   UNL     1      43.723  34.794  46.075  0.00  0.00    +0.000 HD
ENDBRANCH  25  28
BRANCH  25  30
ATOM     30  O   UNL     1      44.937  37.511  44.428  0.00  0.00    +0.000 OA
BRANCH  30  31
ATOM     31  C   UNL     1      45.256  37.945  45.680  0.00  0.00    +0.000 C 
ATOM     32  C   UNL     1      46.747  38.232  45.682  0.00  0.00    +0.000 C 
ATOM     33  C   UNL     1      47.026  39.175  44.542  0.00  0.00    +0.000 C 
ATOM     34  C   UNL     1      45.836  39.915  44.030  0.00  0.00    +0.000 C 
ATOM     35  C   UNL     1      44.817  40.293  45.048  0.00  0.00    +0.000 C 
ATOM     36  C   UNL     1      44.592  39.237  46.103  0.00  0.00    +0.000 C 
ENDBRANCH  30  31
ENDBRANCH  25  30
ENDBRANCH  23  25
ENDBRANCH  20  23
ENDBRANCH   2  20
TORSDOF 8
