
 OpenBabel03242515103D

 33 35  0  0  0  0  0  0  0  0999 V2000
   46.3440   33.7260   44.7800 C   0  0  0  0  0  0  0  0  0  0  0  0
   45.1750   34.4050   45.0080 C   0  0  0  0  0  0  0  0  0  0  0  0
   44.6900   35.4060   44.2050 C   0  0  0  0  0  0  0  0  0  0  0  0
   45.4150   35.7610   43.0880 C   0  0  0  0  0  0  0  0  0  0  0  0
   46.5850   35.1010   42.8320 C   0  0  0  0  0  0  0  0  0  0  0  0
   47.0450   34.0960   43.6650 C   0  0  0  0  0  0  0  0  0  0  0  0
   44.5680   34.1570   45.8820 H   0  0  0  0  0  0  0  0  0  0  0  0
   43.7590   35.9060   44.4400 H   0  0  0  0  0  0  0  0  0  0  0  0
   45.0160   36.5590   42.4580 H   0  0  0  0  0  0  0  0  0  0  0  0
   47.1040   35.4290   41.9410 H   0  0  0  0  0  0  0  0  0  0  0  0
   47.6030   30.4680   45.8990 C   0  0  0  0  0  0  0  0  0  0  0  0
   47.6990   30.6200   47.2780 C   0  0  0  0  0  0  0  0  0  0  0  0
   47.3280   31.8480   47.8310 C   0  0  0  0  0  0  0  0  0  0  0  0
   46.8880   32.8630   47.0350 N   0  0  0  0  0  0  0  0  0  0  0  0
   46.8070   32.6720   45.6700 C   0  0  0  0  0  0  0  0  0  0  0  0
   47.1670   31.4860   45.1570 N   0  0  0  0  0  0  0  0  0  0  0  0
   47.8630   29.5630   45.3820 H   0  0  0  0  0  0  0  0  0  0  0  0
   48.0530   29.7860   47.8670 H   0  0  0  0  0  0  0  0  0  0  0  0
   47.4020   31.9670   48.8950 H   0  0  0  0  0  0  0  0  0  0  0  0
   48.2700   33.5150   43.2600 N   0  0  0  0  0  0  0  0  0  0  0  0
   48.2920   32.4850   43.4700 H   0  0  0  0  0  0  0  0  0  0  0  0
   49.6690   34.1510   42.5180 S   0  0  0  0  0  0  0  0  0  0  0  0
   49.3010   34.5430   41.0870 O   0  0  0  0  0  0  0  0  0  0  0  0
   48.4000   34.4900   40.7050 H   0  0  0  0  0  0  0  0  0  0  0  0
   50.2330   35.3610   43.1910 O   0  0  0  0  0  0  0  0  0  0  0  0
   50.4770   35.3820   44.1520 H   0  0  0  0  0  0  0  0  0  0  0  0
   50.7630   32.9020   42.3700 O   0  0  0  0  0  0  0  0  0  0  0  0
   50.7460   32.1620   41.2460 C   0  0  0  0  0  0  0  0  0  0  0  0
   49.8780   30.9310   41.4150 C   0  0  0  0  0  0  0  0  0  0  0  0
   49.7290   30.1220   40.1710 C   0  0  0  0  0  0  0  0  0  0  0  0
   50.9230   30.0650   39.2840 C   0  0  0  0  0  0  0  0  0  0  0  0
   51.7790   31.2920   39.2710 C   0  0  0  0  0  0  0  0  0  0  0  0
   52.0550   31.6760   40.7150 C   0  0  0  0  0  0  0  0  0  0  0  0
  1  2  1  0  0  0  0
  1 15  1  0  0  0  0
  2  7  1  0  0  0  0
  3  8  1  0  0  0  0
  3  2  2  0  0  0  0
  4  3  1  0  0  0  0
  5  4  2  0  0  0  0
  5  6  1  0  0  0  0
  6  1  2  0  0  0  0
  9  4  1  0  0  0  0
 10  5  1  0  0  0  0
 11 12  1  0  0  0  0
 12 13  2  0  0  0  0
 12 18  1  0  0  0  0
 13 19  1  0  0  0  0
 14 13  1  0  0  0  0
 15 14  2  0  0  0  0
 16 15  1  0  0  0  0
 16 11  2  0  0  0  0
 17 11  1  0  0  0  0
 20 21  1  0  0  0  0
 20  6  1  0  0  0  0
 22 25  1  0  0  0  0
 22 20  1  0  0  0  0
 23 22  1  0  0  0  0
 24 23  1  0  0  0  0
 25 26  1  0  0  0  0
 27 22  1  0  0  0  0
 28 29  1  0  0  0  0
 28 27  1  0  0  0  0
 30 29  1  0  0  0  0
 31 30  1  0  0  0  0
 32 31  1  0  0  0  0
 32 33  1  0  0  0  0
 33 28  1  0  0  0  0
M  END
>  <minimizedAffinity>
-6.11800003

>  <minimizedRMSD>
2.0019238

$$$$
