
     RDKit          3D

 35 37  0  0  0  0  0  0  0  0999 V2000
   45.6178   33.9511   45.4426 C   0  0  0  0  0  0  0  0  0  0  0  0
   44.7037   34.9865   45.6959 C   0  0  0  0  0  0  0  0  0  0  0  0
   44.5231   35.9487   44.6809 C   0  0  0  0  0  0  0  0  0  0  0  0
   45.2420   35.8212   43.5165 N   0  0  0  0  0  0  0  0  0  0  0  0
   46.1011   34.8029   43.3422 C   0  0  0  0  0  0  0  0  0  0  0  0
   46.2950   33.8774   44.2806 N   0  0  0  0  0  0  0  0  0  0  0  0
   46.8377   34.7256   42.0744 C   0  0  0  0  0  0  0  0  0  0  0  0
   48.0127   35.4096   41.9005 C   0  0  0  0  0  0  0  0  0  0  0  0
   48.7740   35.4000   40.7511 C   0  0  0  0  0  0  0  0  0  0  0  0
   48.2483   34.6147   39.7315 C   0  0  0  0  0  0  0  0  0  0  0  0
   47.0620   33.9118   39.8788 C   0  0  0  0  0  0  0  0  0  0  0  0
   46.3616   33.9716   41.0529 N   0  0  0  0  0  0  0  0  0  0  0  0
   44.1829   35.0164   46.6270 H   0  0  0  0  0  0  0  0  0  0  0  0
   43.8354   36.7469   44.8442 H   0  0  0  0  0  0  0  0  0  0  0  0
   48.4121   36.0266   42.7218 H   0  0  0  0  0  0  0  0  0  0  0  0
   49.6992   35.9529   40.6470 H   0  0  0  0  0  0  0  0  0  0  0  0
   48.7615   34.5344   38.7877 H   0  0  0  0  0  0  0  0  0  0  0  0
   46.6628   33.3010   39.0714 H   0  0  0  0  0  0  0  0  0  0  0  0
   45.8790   32.8882   46.4485 C   0  0  0  0  0  0  0  0  0  0  0  0
   47.0401   33.1765   47.3447 C   0  0  0  0  0  0  0  0  0  0  0  0
   47.0748   32.0583   48.3779 C   0  0  0  0  0  0  0  0  0  0  0  0
   47.1181   30.6899   47.7716 C   0  0  0  0  0  0  0  0  0  0  0  0
   46.0797   30.4899   46.6969 C   0  0  0  0  0  0  0  0  0  0  0  0
   46.2406   31.6056   45.6874 C   0  0  0  0  0  0  0  0  0  0  0  0
   44.9926   32.6885   47.0809 H   0  0  0  0  0  0  0  0  0  0  0  0
   46.9531   34.1221   47.9072 H   0  0  0  0  0  0  0  0  0  0  0  0
   47.9631   33.1585   46.7082 H   0  0  0  0  0  0  0  0  0  0  0  0
   47.9497   32.1655   49.0469 H   0  0  0  0  0  0  0  0  0  0  0  0
   46.1144   32.1456   48.9468 H   0  0  0  0  0  0  0  0  0  0  0  0
   46.8501   29.9741   48.5811 H   0  0  0  0  0  0  0  0  0  0  0  0
   48.1022   30.4641   47.3112 H   0  0  0  0  0  0  0  0  0  0  0  0
   46.2638   29.5351   46.1909 H   0  0  0  0  0  0  0  0  0  0  0  0
   45.0507   30.5809   47.1042 H   0  0  0  0  0  0  0  0  0  0  0  0
   45.5348   31.5302   44.8475 H   0  0  0  0  0  0  0  0  0  0  0  0
   47.3040   31.7450   45.3657 H   0  0  0  0  0  0  0  0  0  0  0  0
  1  2  2  0
  3  2  1  0
  4  3  2  0
  5  4  1  0
  5  6  2  0
  6  1  1  0
  7  5  1  0
  8  7  2  0
  9  8  1  0
 10 11  1  0
 10  9  2  0
 11 12  2  0
 12  7  1  0
  2 13  1  0
  3 14  1  0
  8 15  1  0
  9 16  1  0
 10 17  1  0
 11 18  1  0
 19 20  1  0
 20 21  1  0
 21 22  1  0
 22 23  1  0
 23 24  1  0
 24 19  1  0
 19 25  1  0
 20 26  1  0
 20 27  1  0
 21 28  1  0
 21 29  1  0
 22 30  1  0
 22 31  1  0
 23 32  1  0
 23 33  1  0
 24 34  1  0
 24 35  1  0
  1 19  1  0
M  ISO  6  13  14  14  14  15  14  16  14  17  14  18  14
M  END
>  <DihAtoms>  (1) 
1,0,18,19

>  <DihDeg>  (1) 
-123.32049774831327

$$$$
