REMARK  Name = 
REMARK  3 active torsions:
REMARK  status: ('A' for Active; 'I' for Inactive)
REMARK    1  A    between atoms: C_1  and  C_4
REMARK    2  A    between atoms: C_2  and  C_10
REMARK    3  A    between atoms: C_8  and  C_20
REMARK                            x       y       z     vdW  Elec       q    Type
REMARK                         _______ _______ _______ _____ _____    ______ ____
ROOT
ATOM      1  C   UNL     1      45.959  32.859  44.842  0.00  0.00    +0.000 A 
ATOM      2  C   UNL     1      46.639  31.650  44.530  0.00  0.00    +0.000 A 
ATOM      3  C   UNL     1      47.355  30.956  45.507  0.00  0.00    +0.000 A 
ATOM      4  N   UNL     1      47.356  31.510  46.756  0.00  0.00    +0.000 NA
ATOM      5  C   UNL     1      46.691  32.675  47.017  0.00  0.00    +0.000 A 
ATOM      6  N   UNL     1      46.015  33.322  46.081  0.00  0.00    +0.000 NA
ATOM      7  H   UNL     1      46.591  31.284  43.535  0.00  0.00    +0.000 HD
ATOM      8  H   UNL     1      47.865  30.052  45.278  0.00  0.00    +0.000 HD
ENDROOT
BRANCH   1   9
ATOM      9  C   UNL     1      45.226  33.556  43.773  0.00  0.00    +0.000 C 
ATOM     10  C   UNL     1      45.856  34.951  43.461  0.00  0.00    +0.000 C 
ATOM     11  C   UNL     1      45.752  33.825  42.473  0.00  0.00    +0.000 C 
ATOM     12  H   UNL     1      44.120  33.608  43.974  0.00  0.00    +0.000 HD
ATOM     13  H   UNL     1      46.802  35.210  43.926  0.00  0.00    +0.000 HD
ATOM     14  H   UNL     1      45.090  33.932  41.592  0.00  0.00    +0.000 HD
ATOM     15  H   UNL     1      46.749  33.416  42.182  0.00  0.00    +0.000 HD
BRANCH  10  16
ATOM     16  C   UNL     1      44.837  36.050  43.277  0.00  0.00    +0.000 C 
ATOM     17  F   UNL     1      45.412  37.302  43.255  0.00  0.00    +0.000 F 
ATOM     18  F   UNL     1      44.212  35.861  42.035  0.00  0.00    +0.000 F 
ATOM     19  F   UNL     1      43.841  35.963  44.224  0.00  0.00    +0.000 F 
ENDBRANCH  10  16
ENDBRANCH   1   9
BRANCH   5  20
ATOM     20  C   UNL     1      46.713  33.252  48.390  0.00  0.00    +0.000 C 
ATOM     21  C   UNL     1      46.717  32.228  49.476  0.00  0.00    +0.000 C 
ATOM     22  C   UNL     1      45.323  31.883  49.970  0.00  0.00    +0.000 C 
ATOM     23  C   UNL     1      44.604  33.082  50.555  0.00  0.00    +0.000 C 
ATOM     24  C   UNL     1      45.232  34.373  50.062  0.00  0.00    +0.000 C 
ATOM     25  C   UNL     1      45.513  34.179  48.597  0.00  0.00    +0.000 C 
ENDBRANCH   5  20
TORSDOF 3
