
 OpenBabel03252504543D

 18 19  0  0  0  0  0  0  0  0999 V2000
   44.4210   35.9740   44.4640 C   0  0  0  0  0  0  0  0  0  0  0  0
   44.4350   35.4030   43.1680 C   0  0  0  0  0  0  0  0  0  0  0  0
   44.8930   34.0930   43.0530 C   0  0  0  0  0  0  0  0  0  0  0  0
   45.3020   33.4240   44.1670 N   0  0  0  0  0  0  0  0  0  0  0  0
   45.2690   34.0190   45.3960 C   0  0  0  0  0  0  0  0  0  0  0  0
   44.8310   35.2830   45.5390 N   0  0  0  0  0  0  0  0  0  0  0  0
   44.0690   36.9880   44.5720 H   0  0  0  0  0  0  0  0  0  0  0  0
   44.0970   35.9950   42.3430 H   0  0  0  0  0  0  0  0  0  0  0  0
   45.5900   33.4940   46.2720 H   0  0  0  0  0  0  0  0  0  0  0  0
   44.9050   33.5100   41.7130 C   0  0  0  0  0  0  0  0  0  0  0  0
   45.0300   32.4130   41.8310 H   0  0  0  0  0  0  0  0  0  0  0  0
   43.9770   33.6710   41.1500 H   0  0  0  0  0  0  0  0  0  0  0  0
   46.0620   33.9660   40.8680 C   0  0  0  0  0  3  0  0  0  0  0  0
   47.3490   34.1490   41.6150 C   0  0  0  0  0  2  0  0  0  0  0  0
   48.2380   34.9950   40.7030 C   0  0  0  0  0  2  0  0  0  0  0  0
   48.5150   34.1700   39.4750 C   0  0  0  0  0  2  0  0  0  0  0  0
   47.2280   33.8350   38.7560 C   0  0  0  0  0  2  0  0  0  0  0  0
   46.3380   33.0290   39.7080 C   0  0  0  0  0  2  0  0  0  0  0  0
  1  7  1  0  0  0  0
  1  6  1  0  0  0  0
  2  1  2  0  0  0  0
  3  2  1  0  0  0  0
  3  4  2  0  0  0  0
  4  5  1  0  0  0  0
  5  6  2  0  0  0  0
  5  9  1  0  0  0  0
  8  2  1  0  0  0  0
 10 11  1  0  0  0  0
 10  3  1  0  0  0  0
 12 10  1  0  0  0  0
 13 14  1  0  0  0  0
 13 10  1  0  0  0  0
 15 14  1  0  0  0  0
 16 15  1  0  0  0  0
 17 16  1  0  0  0  0
 17 18  1  0  0  0  0
 18 13  1  0  0  0  0
M  END
>  <minimizedAffinity>
-3.8134973

>  <minimizedRMSD>
2.60492063

$$$$
