
     RDKit          3D

 42 45  0  0  0  0  0  0  0  0999 V2000
   45.2130   36.1721   43.4908 C   0  0  0  0  0  0  0  0  0  0  0  0
   45.8608   34.9691   43.1530 C   0  0  0  0  0  0  0  0  0  0  0  0
   45.8095   33.9964   44.1298 C   0  0  0  0  0  0  0  0  0  0  0  0
   45.1872   34.1790   45.3199 N   0  0  0  0  0  0  0  0  0  0  0  0
   44.5774   35.3629   45.5921 C   0  0  0  0  0  0  0  0  0  0  0  0
   44.5934   36.3570   44.6731 N   0  0  0  0  0  0  0  0  0  0  0  0
   46.4305   32.7621   43.8856 C   0  0  0  0  0  0  0  0  0  0  0  0
   47.7024   32.2816   44.0041 C   0  0  0  0  0  0  0  0  0  0  0  0
   48.0461   31.0348   43.7007 C   0  0  0  0  0  0  0  0  0  0  0  0
   47.0423   30.2312   43.2514 C   0  0  0  0  0  0  0  0  0  0  0  0
   45.5613   31.3293   43.2751 S   0  0  0  0  0  0  0  0  0  0  0  0
   46.4942   34.8277   41.9007 C   0  0  0  0  0  0  0  0  0  0  0  0
   47.6969   35.2424   41.8408 O   0  0  0  0  0  0  0  0  0  0  0  0
   45.7540   34.2216   40.7464 C   0  0  0  0  0  0  0  0  0  0  0  0
   44.4159   34.3347   40.4775 C   0  0  0  0  0  0  0  0  0  0  0  0
   44.1944   33.6364   39.3537 N   0  0  0  0  0  0  0  0  0  0  0  0
   45.3707   33.1072   38.9433 C   0  0  0  0  0  0  0  0  0  0  0  0
   46.3451   33.4704   39.8099 N   0  0  0  0  0  0  0  0  0  0  0  0
   45.2065   36.9943   42.7735 H   0  0  0  0  0  0  0  0  0  0  0  0
   44.0952   35.4579   46.5558 H   0  0  0  0  0  0  0  0  0  0  0  0
   48.4338   33.0282   44.3796 H   0  0  0  0  0  0  0  0  0  0  0  0
   49.0349   30.6045   43.7761 H   0  0  0  0  0  0  0  0  0  0  0  0
   47.0555   29.1687   42.9348 H   0  0  0  0  0  0  0  0  0  0  0  0
   43.6849   34.8857   41.0667 H   0  0  0  0  0  0  0  0  0  0  0  0
   43.2472   33.5693   38.9419 H   0  0  0  0  0  0  0  0  0  0  0  0
   45.5483   32.2591   37.7250 C   0  0  0  0  0  0  0  0  0  0  0  0
   45.3724   30.7993   37.9918 C   0  0  0  0  0  0  0  0  0  0  0  0
   45.2547   30.0987   36.6509 C   0  0  0  0  0  0  0  0  0  0  0  0
   43.9832   30.4211   35.9281 C   0  0  0  0  0  0  0  0  0  0  0  0
   43.4352   31.7193   36.5272 C   0  0  0  0  0  0  0  0  0  0  0  0
   44.6135   32.6799   36.6195 C   0  0  0  0  0  0  0  0  0  0  0  0
   46.5827   32.4127   37.3227 H   0  0  0  0  0  0  0  0  0  0  0  0
   46.2781   30.3701   38.4866 H   0  0  0  0  0  0  0  0  0  0  0  0
   44.5049   30.5651   38.6315 H   0  0  0  0  0  0  0  0  0  0  0  0
   45.3845   28.9905   36.7852 H   0  0  0  0  0  0  0  0  0  0  0  0
   46.0844   30.4431   35.9958 H   0  0  0  0  0  0  0  0  0  0  0  0
   44.1146   30.6357   34.8436 H   0  0  0  0  0  0  0  0  0  0  0  0
   43.2111   29.6130   35.9938 H   0  0  0  0  0  0  0  0  0  0  0  0
   42.6658   32.1242   35.8567 H   0  0  0  0  0  0  0  0  0  0  0  0
   42.9541   31.5381   37.4964 H   0  0  0  0  0  0  0  0  0  0  0  0
   45.1026   32.6999   35.6279 H   0  0  0  0  0  0  0  0  0  0  0  0
   44.2361   33.7012   36.8793 H   0  0  0  0  0  0  0  0  0  0  0  0
  1  6  2  0
  2  1  1  0
  2  3  2  0
  3  4  1  0
  4  5  2  0
  6  5  1  0
  7  8  2  0
  7  3  1  0
  9  8  1  0
 10 11  1  0
 10  9  2  0
 11  7  1  0
 12  2  1  0
 13 12  2  0
 14 12  1  0
 15 14  2  0
 16 15  1  0
 17 16  1  0
 17 18  2  0
 18 14  1  0
  1 19  1  0
  5 20  1  0
  8 21  1  0
  9 22  1  0
 10 23  1  0
 15 24  1  0
 16 25  1  0
 26 27  1  0
 27 28  1  0
 28 29  1  0
 29 30  1  0
 30 31  1  0
 31 26  1  0
 26 32  1  0
 27 33  1  0
 27 34  1  0
 28 35  1  0
 28 36  1  0
 29 37  1  0
 29 38  1  0
 30 39  1  0
 30 40  1  0
 31 41  1  0
 31 42  1  0
 17 26  1  0
M  ISO  7  19  14  20  14  21  14  22  14  23  14  24  14  25   9
M  END
>  <DihAtoms>  (1) 
15,16,25,26

>  <DihDeg>  (1) 
-59.97636908599726

$$$$
