
 OpenBabel03252507413D

 22 23  0  0  0  0  0  0  0  0999 V2000
   38.6750   29.1500   42.9210 C   0  0  0  0  0  0  0  0  0  0  0  0
   39.3890   29.5720   43.6480 H   0  0  0  0  0  0  0  0  0  0  0  0
   39.2390   28.4030   42.3150 H   0  0  0  0  0  0  0  0  0  0  0  0
   38.1580   30.1760   41.9980 C   0  0  0  0  0  0  0  0  0  0  0  0
   39.0710   31.1440   41.5730 C   0  0  0  0  0  0  0  0  0  0  0  0
   38.6450   32.1280   40.7100 C   0  0  0  0  0  0  0  0  0  0  0  0
   37.3250   32.1340   40.2850 N   0  0  0  0  0  0  0  0  0  0  0  0
   36.4870   31.1820   40.7220 C   0  0  0  0  0  0  0  0  0  0  0  0
   36.8730   30.2140   41.5620 N   0  0  0  0  0  0  0  0  0  0  0  0
   39.3230   32.9030   40.3520 H   0  0  0  0  0  0  0  0  0  0  0  0
   35.4490   31.1630   40.4060 H   0  0  0  0  0  0  0  0  0  0  0  0
   40.7640   31.1070   42.1390 S   0  0  0  0  0  0  0  0  0  0  0  0
   41.4100   32.2680   41.7220 H   0  0  0  0  0  0  0  0  0  0  0  0
   37.5820   28.3980   43.6360 C   0  0  0  0  0  0  0  0  0  0  0  0
   37.6340   28.6200   44.7220 H   0  0  0  0  0  0  0  0  0  0  0  0
   36.5910   28.6710   43.2750 H   0  0  0  0  0  0  0  0  0  0  0  0
   37.7790   26.9120   43.4630 C   0  0  0  0  0  3  0  0  0  0  0  0
   39.2370   26.5340   43.4160 C   0  0  0  0  0  2  0  0  0  0  0  0
   39.5220   25.4530   42.4110 C   0  0  0  0  0  2  0  0  0  0  0  0
   38.4170   24.4360   42.2760 C   0  0  0  0  0  2  0  0  0  0  0  0
   37.0500   25.0210   42.1470 C   0  0  0  0  0  2  0  0  0  0  0  0
   37.1680   26.5290   42.1310 C   0  0  0  0  0  2  0  0  0  0  0  0
  1 14  1  0  0  0  0
  1  2  1  0  0  0  0
  3  1  1  0  0  0  0
  4  1  1  0  0  0  0
  5  4  1  0  0  0  0
  5 12  1  0  0  0  0
  6  5  2  0  0  0  0
  7  6  1  0  0  0  0
  7  8  2  0  0  0  0
  8  9  1  0  0  0  0
  9  4  2  0  0  0  0
 10  6  1  0  0  0  0
 11  8  1  0  0  0  0
 13 12  1  0  0  0  0
 14 15  1  0  0  0  0
 16 14  1  0  0  0  0
 17 14  1  0  0  0  0
 18 17  1  0  0  0  0
 19 18  1  0  0  0  0
 20 19  1  0  0  0  0
 21 20  1  0  0  0  0
 22 21  1  0  0  0  0
 22 17  1  0  0  0  0
M  END
>  <minimizedAffinity>
-4.6591897

$$$$

 OpenBabel03252507413D

 22 23  0  0  0  0  0  0  0  0999 V2000
   37.3870   28.5390   43.2930 C   0  0  0  0  0  0  0  0  0  0  0  0
   36.4920   28.1580   42.7730 H   0  0  0  0  0  0  0  0  0  0  0  0
   37.0390   28.9600   44.2650 H   0  0  0  0  0  0  0  0  0  0  0  0
   38.0380   29.6260   42.5410 C   0  0  0  0  0  0  0  0  0  0  0  0
   37.3910   30.0490   41.3770 C   0  0  0  0  0  0  0  0  0  0  0  0
   37.9530   31.0620   40.6350 C   0  0  0  0  0  0  0  0  0  0  0  0
   39.1420   31.6370   41.0580 N   0  0  0  0  0  0  0  0  0  0  0  0
   39.7240   31.1950   42.1820 C   0  0  0  0  0  0  0  0  0  0  0  0
   39.2020   30.2110   42.9240 N   0  0  0  0  0  0  0  0  0  0  0  0
   37.4820   31.4250   39.7200 H   0  0  0  0  0  0  0  0  0  0  0  0
   40.6560   31.6260   42.5360 H   0  0  0  0  0  0  0  0  0  0  0  0
   35.8610   29.2890   40.8610 S   0  0  0  0  0  0  0  0  0  0  0  0
   35.5230   29.7580   39.5950 H   0  0  0  0  0  0  0  0  0  0  0  0
   38.3250   27.4050   43.6180 C   0  0  0  0  0  0  0  0  0  0  0  0
   39.3570   27.8010   43.7240 H   0  0  0  0  0  0  0  0  0  0  0  0
   38.0530   26.8990   44.5440 H   0  0  0  0  0  0  0  0  0  0  0  0
   38.3330   26.4020   42.4910 C   0  0  0  0  0  3  0  0  0  0  0  0
   36.9530   25.8790   42.1850 C   0  0  0  0  0  2  0  0  0  0  0  0
   36.9490   24.4110   41.8630 C   0  0  0  0  0  2  0  0  0  0  0  0
   38.1760   23.9440   41.1190 C   0  0  0  0  0  2  0  0  0  0  0  0
   39.4680   24.4220   41.6940 C   0  0  0  0  0  2  0  0  0  0  0  0
   39.1750   25.2250   42.9420 C   0  0  0  0  0  2  0  0  0  0  0  0
  1 14  1  0  0  0  0
  1  3  1  0  0  0  0
  2  1  1  0  0  0  0
  4  9  1  0  0  0  0
  4  1  1  0  0  0  0
  5  4  2  0  0  0  0
  6  7  2  0  0  0  0
  6  5  1  0  0  0  0
  7  8  1  0  0  0  0
  8 11  1  0  0  0  0
  8  9  2  0  0  0  0
 10  6  1  0  0  0  0
 12  5  1  0  0  0  0
 13 12  1  0  0  0  0
 14 15  1  0  0  0  0
 14 16  1  0  0  0  0
 17 22  1  0  0  0  0
 17 14  1  0  0  0  0
 18 17  1  0  0  0  0
 19 18  1  0  0  0  0
 20 21  1  0  0  0  0
 20 19  1  0  0  0  0
 21 22  1  0  0  0  0
M  END
>  <minimizedAffinity>
-4.46485281

$$$$

 OpenBabel03252507413D

 22 23  0  0  0  0  0  0  0  0999 V2000
   36.1060   28.4050   41.3030 C   0  0  0  0  0  0  0  0  0  0  0  0
   36.2380   27.5010   40.6860 H   0  0  0  0  0  0  0  0  0  0  0  0
   35.0260   28.4510   41.5780 H   0  0  0  0  0  0  0  0  0  0  0  0
   36.4300   29.6330   40.5560 C   0  0  0  0  0  0  0  0  0  0  0  0
   36.3930   29.5390   39.1630 C   0  0  0  0  0  0  0  0  0  0  0  0
   36.6860   30.6550   38.4130 C   0  0  0  0  0  0  0  0  0  0  0  0
   37.0110   31.8410   39.0550 N   0  0  0  0  0  0  0  0  0  0  0  0
   37.0330   31.8790   40.3950 C   0  0  0  0  0  0  0  0  0  0  0  0
   36.7530   30.8110   41.1510 N   0  0  0  0  0  0  0  0  0  0  0  0
   36.6690   30.6280   37.3220 H   0  0  0  0  0  0  0  0  0  0  0  0
   37.2840   32.7930   40.9240 H   0  0  0  0  0  0  0  0  0  0  0  0
   35.9700   27.9980   38.3670 S   0  0  0  0  0  0  0  0  0  0  0  0
   36.1800   28.1200   36.9960 H   0  0  0  0  0  0  0  0  0  0  0  0
   36.8790   28.2790   42.5900 C   0  0  0  0  0  0  0  0  0  0  0  0
   37.8120   28.8760   42.5190 H   0  0  0  0  0  0  0  0  0  0  0  0
   36.3080   28.6300   43.4490 H   0  0  0  0  0  0  0  0  0  0  0  0
   37.2750   26.8390   42.8160 C   0  0  0  0  0  3  0  0  0  0  0  0
   38.7380   26.6980   43.1490 C   0  0  0  0  0  2  0  0  0  0  0  0
   39.3640   25.4930   42.5040 C   0  0  0  0  0  2  0  0  0  0  0  0
   38.4380   24.3060   42.3970 C   0  0  0  0  0  2  0  0  0  0  0  0
   37.0810   24.6260   41.8660 C   0  0  0  0  0  2  0  0  0  0  0  0
   37.0310   26.0970   41.5180 C   0  0  0  0  0  2  0  0  0  0  0  0
  1  3  1  0  0  0  0
  1 14  1  0  0  0  0
  2  1  1  0  0  0  0
  4  9  1  0  0  0  0
  4  1  1  0  0  0  0
  5  4  2  0  0  0  0
  6  7  2  0  0  0  0
  6  5  1  0  0  0  0
  7  8  1  0  0  0  0
  8 11  1  0  0  0  0
  8  9  2  0  0  0  0
 10  6  1  0  0  0  0
 12  5  1  0  0  0  0
 13 12  1  0  0  0  0
 14 17  1  0  0  0  0
 14 16  1  0  0  0  0
 15 14  1  0  0  0  0
 17 18  1  0  0  0  0
 19 18  1  0  0  0  0
 20 19  1  0  0  0  0
 21 20  1  0  0  0  0
 22 21  1  0  0  0  0
 22 17  1  0  0  0  0
M  END
>  <minimizedAffinity>
-4.4559412

$$$$

 OpenBabel03252507413D

 22 23  0  0  0  0  0  0  0  0999 V2000
   37.2820   29.0110   42.3730 C   0  0  0  0  0  0  0  0  0  0  0  0
   37.1670   28.2680   41.5670 H   0  0  0  0  0  0  0  0  0  0  0  0
   36.2920   29.5120   42.4920 H   0  0  0  0  0  0  0  0  0  0  0  0
   38.2700   30.0480   42.0300 C   0  0  0  0  0  0  0  0  0  0  0  0
   37.9400   30.8910   40.9660 C   0  0  0  0  0  0  0  0  0  0  0  0
   38.8250   31.8790   40.6010 C   0  0  0  0  0  0  0  0  0  0  0  0
   40.0190   32.0150   41.2950 N   0  0  0  0  0  0  0  0  0  0  0  0
   40.2890   31.1800   42.3090 C   0  0  0  0  0  0  0  0  0  0  0  0
   39.4480   30.2090   42.6870 N   0  0  0  0  0  0  0  0  0  0  0  0
   38.6090   32.5600   39.7770 H   0  0  0  0  0  0  0  0  0  0  0  0
   41.2150   31.2630   42.8690 H   0  0  0  0  0  0  0  0  0  0  0  0
   36.3960   30.6900   40.0940 S   0  0  0  0  0  0  0  0  0  0  0  0
   36.3910   31.5230   38.9780 H   0  0  0  0  0  0  0  0  0  0  0  0
   37.5820   28.3220   43.6800 C   0  0  0  0  0  0  0  0  0  0  0  0
   38.5270   28.7260   44.1000 H   0  0  0  0  0  0  0  0  0  0  0  0
   36.7890   28.4660   44.4120 H   0  0  0  0  0  0  0  0  0  0  0  0
   37.7800   26.8430   43.4500 C   0  0  0  0  0  3  0  0  0  0  0  0
   39.2370   26.4760   43.3340 C   0  0  0  0  0  2  0  0  0  0  0  0
   39.4880   25.4300   42.2840 C   0  0  0  0  0  2  0  0  0  0  0  0
   38.3830   24.4110   42.1590 C   0  0  0  0  0  2  0  0  0  0  0  0
   37.0090   24.9920   42.1020 C   0  0  0  0  0  2  0  0  0  0  0  0
   37.1190   26.5000   42.1310 C   0  0  0  0  0  2  0  0  0  0  0  0
  1  3  1  0  0  0  0
  1 14  1  0  0  0  0
  2  1  1  0  0  0  0
  4  1  1  0  0  0  0
  4  9  1  0  0  0  0
  5  4  2  0  0  0  0
  6  5  1  0  0  0  0
  6  7  2  0  0  0  0
  7  8  1  0  0  0  0
  8  9  2  0  0  0  0
  8 11  1  0  0  0  0
 10  6  1  0  0  0  0
 12  5  1  0  0  0  0
 13 12  1  0  0  0  0
 14 15  1  0  0  0  0
 14 16  1  0  0  0  0
 17 14  1  0  0  0  0
 18 17  1  0  0  0  0
 19 18  1  0  0  0  0
 20 19  1  0  0  0  0
 21 22  1  0  0  0  0
 21 20  1  0  0  0  0
 22 17  1  0  0  0  0
M  END
>  <minimizedAffinity>
-4.40587425

$$$$

 OpenBabel03252507413D

 22 23  0  0  0  0  0  0  0  0999 V2000
   37.2510   29.8570   40.0190 C   0  0  0  0  0  0  0  0  0  0  0  0
   38.1010   29.1950   40.2570 H   0  0  0  0  0  0  0  0  0  0  0  0
   36.9620   29.6420   38.9640 H   0  0  0  0  0  0  0  0  0  0  0  0
   37.6220   31.2800   40.1010 C   0  0  0  0  0  0  0  0  0  0  0  0
   38.6990   31.5930   40.9330 C   0  0  0  0  0  0  0  0  0  0  0  0
   39.0910   32.9080   41.0480 C   0  0  0  0  0  0  0  0  0  0  0  0
   38.4100   33.8850   40.3380 N   0  0  0  0  0  0  0  0  0  0  0  0
   37.3820   33.5330   39.5520 C   0  0  0  0  0  0  0  0  0  0  0  0
   36.9780   32.2640   39.4210 N   0  0  0  0  0  0  0  0  0  0  0  0
   39.9270   33.1980   41.6860 H   0  0  0  0  0  0  0  0  0  0  0  0
   36.8310   34.2770   38.9850 H   0  0  0  0  0  0  0  0  0  0  0  0
   39.5550   30.3110   41.8330 S   0  0  0  0  0  0  0  0  0  0  0  0
   40.4560   30.8980   42.7170 H   0  0  0  0  0  0  0  0  0  0  0  0
   36.0620   29.5090   40.8780 C   0  0  0  0  0  0  0  0  0  0  0  0
   36.0730   30.1370   41.7930 H   0  0  0  0  0  0  0  0  0  0  0  0
   35.1180   29.6720   40.3580 H   0  0  0  0  0  0  0  0  0  0  0  0
   36.1430   28.0660   41.3120 C   0  0  0  0  0  3  0  0  0  0  0  0
   36.6530   27.9250   42.7240 C   0  0  0  0  0  2  0  0  0  0  0  0
   37.5810   26.7550   42.8890 C   0  0  0  0  0  2  0  0  0  0  0  0
   37.2230   25.5640   42.0350 C   0  0  0  0  0  2  0  0  0  0  0  0
   36.9300   25.8920   40.6080 C   0  0  0  0  0  2  0  0  0  0  0  0
   37.1360   27.3760   40.4000 C   0  0  0  0  0  2  0  0  0  0  0  0
  1  4  1  0  0  0  0
  1  2  1  0  0  0  0
  1 14  1  0  0  0  0
  3  1  1  0  0  0  0
  4  5  1  0  0  0  0
  5  6  2  0  0  0  0
  5 12  1  0  0  0  0
  6 10  1  0  0  0  0
  7  6  1  0  0  0  0
  8  7  2  0  0  0  0
  9  8  1  0  0  0  0
  9  4  2  0  0  0  0
 11  8  1  0  0  0  0
 12 13  1  0  0  0  0
 14 17  1  0  0  0  0
 14 15  1  0  0  0  0
 16 14  1  0  0  0  0
 17 18  1  0  0  0  0
 18 19  1  0  0  0  0
 20 19  1  0  0  0  0
 21 20  1  0  0  0  0
 22 21  1  0  0  0  0
 22 17  1  0  0  0  0
M  END
>  <minimizedAffinity>
-4.31657791

$$$$

 OpenBabel03252507413D

 22 23  0  0  0  0  0  0  0  0999 V2000
   39.8970   30.1780   41.1980 C   0  0  0  0  0  0  0  0  0  0  0  0
   40.9700   30.2450   40.9540 H   0  0  0  0  0  0  0  0  0  0  0  0
   39.4970   29.2960   40.6460 H   0  0  0  0  0  0  0  0  0  0  0  0
   39.1540   31.3660   40.7430 C   0  0  0  0  0  0  0  0  0  0  0  0
   39.8990   32.5350   40.5710 C   0  0  0  0  0  0  0  0  0  0  0  0
   39.2580   33.6760   40.1470 C   0  0  0  0  0  0  0  0  0  0  0  0
   37.8930   33.6390   39.9010 N   0  0  0  0  0  0  0  0  0  0  0  0
   37.2220   32.4920   40.0810 C   0  0  0  0  0  0  0  0  0  0  0  0
   37.8190   31.3660   40.4940 N   0  0  0  0  0  0  0  0  0  0  0  0
   39.8000   34.6110   39.9980 H   0  0  0  0  0  0  0  0  0  0  0  0
   36.1540   32.4340   39.8970 H   0  0  0  0  0  0  0  0  0  0  0  0
   41.6540   32.5500   40.8950 S   0  0  0  0  0  0  0  0  0  0  0  0
   42.1200   33.8600   40.8260 H   0  0  0  0  0  0  0  0  0  0  0  0
   39.7110   29.8960   42.6670 C   0  0  0  0  0  0  0  0  0  0  0  0
   40.7050   29.7980   43.1510 H   0  0  0  0  0  0  0  0  0  0  0  0
   39.1590   30.6880   43.1710 H   0  0  0  0  0  0  0  0  0  0  0  0
   38.9810   28.5880   42.8530 C   0  0  0  0  0  3  0  0  0  0  0  0
   39.0230   27.7320   41.6130 C   0  0  0  0  0  2  0  0  0  0  0  0
   37.7260   27.0160   41.3610 C   0  0  0  0  0  2  0  0  0  0  0  0
   37.0080   26.5880   42.6160 C   0  0  0  0  0  2  0  0  0  0  0  0
   36.9070   27.6480   43.6630 C   0  0  0  0  0  2  0  0  0  0  0  0
   37.5280   28.9190   43.1270 C   0  0  0  0  0  2  0  0  0  0  0  0
  1 14  1  0  0  0  0
  2  1  1  0  0  0  0
  3  1  1  0  0  0  0
  4  1  1  0  0  0  0
  5  4  1  0  0  0  0
  5 12  1  0  0  0  0
  6  5  2  0  0  0  0
  7  8  2  0  0  0  0
  7  6  1  0  0  0  0
  8  9  1  0  0  0  0
  9  4  2  0  0  0  0
 10  6  1  0  0  0  0
 11  8  1  0  0  0  0
 13 12  1  0  0  0  0
 14 17  1  0  0  0  0
 14 15  1  0  0  0  0
 14 16  1  0  0  0  0
 17 22  1  0  0  0  0
 18 17  1  0  0  0  0
 19 18  1  0  0  0  0
 19 20  1  0  0  0  0
 20 21  1  0  0  0  0
 22 21  1  0  0  0  0
M  END
>  <minimizedAffinity>
-4.26823282

$$$$

 OpenBabel03252507413D

 22 23  0  0  0  0  0  0  0  0999 V2000
   37.0730   27.1010   41.1910 C   0  0  0  0  0  0  0  0  0  0  0  0
   36.4050   26.3380   40.7560 H   0  0  0  0  0  0  0  0  0  0  0  0
   37.5990   27.5910   40.3390 H   0  0  0  0  0  0  0  0  0  0  0  0
   38.0970   26.5020   42.0650 C   0  0  0  0  0  0  0  0  0  0  0  0
   38.2280   25.1120   42.0030 C   0  0  0  0  0  0  0  0  0  0  0  0
   39.1700   24.4970   42.7960 C   0  0  0  0  0  0  0  0  0  0  0  0
   39.9610   25.2680   43.6350 N   0  0  0  0  0  0  0  0  0  0  0  0
   39.7960   26.5990   43.6580 C   0  0  0  0  0  0  0  0  0  0  0  0
   38.8890   27.2250   42.8980 N   0  0  0  0  0  0  0  0  0  0  0  0
   39.3070   23.4150   42.7800 H   0  0  0  0  0  0  0  0  0  0  0  0
   40.4010   27.2260   44.3040 H   0  0  0  0  0  0  0  0  0  0  0  0
   37.1940   24.1490   40.9130 S   0  0  0  0  0  0  0  0  0  0  0  0
   37.3940   22.7960   41.1710 H   0  0  0  0  0  0  0  0  0  0  0  0
   36.2650   28.1710   41.8800 C   0  0  0  0  0  0  0  0  0  0  0  0
   35.2460   27.7850   42.0890 H   0  0  0  0  0  0  0  0  0  0  0  0
   36.7160   28.4840   42.8210 H   0  0  0  0  0  0  0  0  0  0  0  0
   36.1230   29.3720   40.9770 C   0  0  0  0  0  3  0  0  0  0  0  0
   36.0970   28.9880   39.5200 C   0  0  0  0  0  2  0  0  0  0  0  0
   36.8540   29.9550   38.6530 C   0  0  0  0  0  2  0  0  0  0  0  0
   36.7670   31.3890   39.1150 C   0  0  0  0  0  2  0  0  0  0  0  0
   37.0090   31.5840   40.5750 C   0  0  0  0  0  2  0  0  0  0  0  0
   37.3420   30.2450   41.1950 C   0  0  0  0  0  2  0  0  0  0  0  0
  1 14  1  0  0  0  0
  1  4  1  0  0  0  0
  2  1  1  0  0  0  0
  3  1  1  0  0  0  0
  4  9  1  0  0  0  0
  5  4  2  0  0  0  0
  5  6  1  0  0  0  0
  6  7  2  0  0  0  0
  7  8  1  0  0  0  0
  8 11  1  0  0  0  0
  9  8  2  0  0  0  0
 10  6  1  0  0  0  0
 12 13  1  0  0  0  0
 12  5  1  0  0  0  0
 14 15  1  0  0  0  0
 14 16  1  0  0  0  0
 17 22  1  0  0  0  0
 17 14  1  0  0  0  0
 18 17  1  0  0  0  0
 19 20  1  0  0  0  0
 19 18  1  0  0  0  0
 20 21  1  0  0  0  0
 21 22  1  0  0  0  0
M  END
>  <minimizedAffinity>
-4.22099352

$$$$

 OpenBabel03252507413D

 22 23  0  0  0  0  0  0  0  0999 V2000
   38.0460   27.4750   41.6910 C   0  0  0  0  0  0  0  0  0  0  0  0
   39.0320   27.5200   42.1820 H   0  0  0  0  0  0  0  0  0  0  0  0
   38.1870   26.9130   40.7380 H   0  0  0  0  0  0  0  0  0  0  0  0
   37.5390   28.8160   41.3490 C   0  0  0  0  0  0  0  0  0  0  0  0
   38.4750   29.8530   41.3590 C   0  0  0  0  0  0  0  0  0  0  0  0
   38.0600   31.1270   41.0460 C   0  0  0  0  0  0  0  0  0  0  0  0
   36.7270   31.3500   40.7310 N   0  0  0  0  0  0  0  0  0  0  0  0
   35.8680   30.3210   40.7350 C   0  0  0  0  0  0  0  0  0  0  0  0
   36.2430   29.0710   41.0360 N   0  0  0  0  0  0  0  0  0  0  0  0
   38.7560   31.9670   41.0410 H   0  0  0  0  0  0  0  0  0  0  0  0
   34.8200   30.4660   40.4930 H   0  0  0  0  0  0  0  0  0  0  0  0
   40.1830   29.5320   41.7680 S   0  0  0  0  0  0  0  0  0  0  0  0
   40.8600   30.7430   41.8830 H   0  0  0  0  0  0  0  0  0  0  0  0
   37.0800   26.6780   42.5300 C   0  0  0  0  0  0  0  0  0  0  0  0
   37.4240   26.6780   43.5850 H   0  0  0  0  0  0  0  0  0  0  0  0
   36.0710   27.0870   42.4960 H   0  0  0  0  0  0  0  0  0  0  0  0
   37.0480   25.2440   42.0590 C   0  0  0  0  0  3  0  0  0  0  0  0
   38.3620   24.5420   42.2880 C   0  0  0  0  0  2  0  0  0  0  0  0
   38.7310   23.6240   41.1560 C   0  0  0  0  0  2  0  0  0  0  0  0
   37.5500   22.9440   40.5090 C   0  0  0  0  0  2  0  0  0  0  0  0
   36.4100   23.8540   40.1880 C   0  0  0  0  0  2  0  0  0  0  0  0
   36.7980   25.2670   40.5650 C   0  0  0  0  0  2  0  0  0  0  0  0
  1  2  1  0  0  0  0
  1 14  1  0  0  0  0
  3  1  1  0  0  0  0
  4  5  1  0  0  0  0
  4  1  1  0  0  0  0
  5 12  1  0  0  0  0
  6  5  2  0  0  0  0
  7  8  2  0  0  0  0
  7  6  1  0  0  0  0
  8  9  1  0  0  0  0
  9  4  2  0  0  0  0
 10  6  1  0  0  0  0
 11  8  1  0  0  0  0
 12 13  1  0  0  0  0
 14 15  1  0  0  0  0
 16 14  1  0  0  0  0
 17 18  1  0  0  0  0
 17 14  1  0  0  0  0
 19 18  1  0  0  0  0
 20 19  1  0  0  0  0
 21 20  1  0  0  0  0
 21 22  1  0  0  0  0
 22 17  1  0  0  0  0
M  END
>  <minimizedAffinity>
-4.14615917

$$$$

 OpenBabel03252507413D

 22 23  0  0  0  0  0  0  0  0999 V2000
   38.9760   29.7850   42.6870 C   0  0  0  0  0  0  0  0  0  0  0  0
   39.2490   30.6090   43.3670 H   0  0  0  0  0  0  0  0  0  0  0  0
   37.8820   29.6080   42.8210 H   0  0  0  0  0  0  0  0  0  0  0  0
   39.6750   28.5340   43.0290 C   0  0  0  0  0  0  0  0  0  0  0  0
   38.8680   27.4370   43.3410 C   0  0  0  0  0  0  0  0  0  0  0  0
   39.4670   26.2420   43.6680 C   0  0  0  0  0  0  0  0  0  0  0  0
   40.8520   26.1550   43.6790 N   0  0  0  0  0  0  0  0  0  0  0  0
   41.5820   27.2370   43.3720 C   0  0  0  0  0  0  0  0  0  0  0  0
   41.0280   28.4130   43.0510 N   0  0  0  0  0  0  0  0  0  0  0  0
   38.8760   25.3600   43.9180 H   0  0  0  0  0  0  0  0  0  0  0  0
   42.6670   27.1980   43.3730 H   0  0  0  0  0  0  0  0  0  0  0  0
   37.0900   27.5820   43.3170 S   0  0  0  0  0  0  0  0  0  0  0  0
   36.5300   26.4180   43.8360 H   0  0  0  0  0  0  0  0  0  0  0  0
   39.1790   30.2000   41.2530 C   0  0  0  0  0  0  0  0  0  0  0  0
   40.2550   30.4100   41.0800 H   0  0  0  0  0  0  0  0  0  0  0  0
   38.8620   29.4280   40.5530 H   0  0  0  0  0  0  0  0  0  0  0  0
   38.4140   31.4690   40.9690 C   0  0  0  0  0  3  0  0  0  0  0  0
   37.2940   31.2490   39.9840 C   0  0  0  0  0  2  0  0  0  0  0  0
   37.1440   32.3890   39.0150 C   0  0  0  0  0  2  0  0  0  0  0  0
   37.4470   33.7420   39.6100 C   0  0  0  0  0  2  0  0  0  0  0  0
   38.7090   33.8010   40.4050 C   0  0  0  0  0  2  0  0  0  0  0  0
   39.3850   32.4490   40.3410 C   0  0  0  0  0  2  0  0  0  0  0  0
  1  3  1  0  0  0  0
  1  4  1  0  0  0  0
  1  2  1  0  0  0  0
  4  9  2  0  0  0  0
  4  5  1  0  0  0  0
  5  6  2  0  0  0  0
  6  7  1  0  0  0  0
  6 10  1  0  0  0  0
  8 11  1  0  0  0  0
  8  7  2  0  0  0  0
  9  8  1  0  0  0  0
 12  5  1  0  0  0  0
 12 13  1  0  0  0  0
 14  1  1  0  0  0  0
 15 14  1  0  0  0  0
 16 14  1  0  0  0  0
 17 14  1  0  0  0  0
 18 17  1  0  0  0  0
 19 20  1  0  0  0  0
 19 18  1  0  0  0  0
 20 21  1  0  0  0  0
 22 21  1  0  0  0  0
 22 17  1  0  0  0  0
M  END
>  <minimizedAffinity>
-4.08790922

$$$$
