
 OpenBabel03252504423D

 42 45  0  0  0  0  0  0  0  0999 V2000
   46.0500   32.3070   48.2030 C   0  0  0  0  0  0  0  0  0  0  0  0
   45.6200   31.5240   49.2400 C   0  0  0  0  0  0  0  0  0  0  0  0
   46.6780   30.7930   49.6220 N   0  0  0  0  0  0  0  0  0  0  0  0
   47.7480   31.0820   48.8740 C   0  0  0  0  0  0  0  0  0  0  0  0
   47.3440   32.0300   47.9890 N   0  0  0  0  0  0  0  0  0  0  0  0
   49.0790   30.5780   48.8980 N   0  0  0  0  0  0  0  0  0  0  0  0
   50.0610   31.2640   49.7690 C   0  0  0  0  0  0  0  0  0  0  0  0
   50.2270   30.3390   50.9740 C   0  0  0  0  0  0  0  0  0  0  0  0
   50.4470   28.9210   50.4960 C   0  0  0  0  0  0  0  0  0  0  0  0
   50.8350   28.9100   49.0360 C   0  0  0  0  0  0  0  0  0  0  0  0
   49.7060   29.4880   48.2210 C   0  0  0  0  0  0  0  0  0  0  0  0
   44.6430   31.4550   49.7070 H   0  0  0  0  0  0  0  0  0  0  0  0
   46.6920   30.0890   50.3940 H   0  0  0  0  0  0  0  0  0  0  0  0
   51.0230   31.4100   49.2670 H   0  0  0  0  0  0  0  0  0  0  0  0
   49.6230   32.2090   50.1670 H   0  0  0  0  0  0  0  0  0  0  0  0
   49.3250   30.4510   51.5900 H   0  0  0  0  0  0  0  0  0  0  0  0
   51.1140   30.6910   51.5060 H   0  0  0  0  0  0  0  0  0  0  0  0
   51.2340   28.4640   51.1270 H   0  0  0  0  0  0  0  0  0  0  0  0
   49.5180   28.3550   50.6670 H   0  0  0  0  0  0  0  0  0  0  0  0
   51.7730   29.4920   48.9530 H   0  0  0  0  0  0  0  0  0  0  0  0
   51.0210   27.8480   48.7570 H   0  0  0  0  0  0  0  0  0  0  0  0
   50.1910   29.8470   47.2700 H   0  0  0  0  0  0  0  0  0  0  0  0
   49.0260   28.6600   47.9260 H   0  0  0  0  0  0  0  0  0  0  0  0
   45.2260   33.2890   47.4510 C   0  0  0  0  0  0  0  0  0  0  0  0
   45.4370   34.2920   47.9200 H   0  0  0  0  0  0  0  0  0  0  0  0
   44.1470   33.1200   47.5250 H   0  0  0  0  0  0  0  0  0  0  0  0
   45.2870   34.3370   45.2160 C   0  0  0  0  0  0  0  0  0  0  0  0
   45.6830   33.3880   46.0430 C   0  0  0  0  0  0  0  0  0  0  0  0
   45.8110   34.3220   43.8510 C   0  0  0  0  0  0  0  0  0  0  0  0
   45.1560   34.9800   42.7940 C   0  0  0  0  0  0  0  0  0  0  0  0
   45.7330   34.9080   41.5360 C   0  0  0  0  0  0  0  0  0  0  0  0
   46.8710   34.2280   41.3650 N   0  0  0  0  0  0  0  0  0  0  0  0
   47.4930   33.5970   42.3850 C   0  0  0  0  0  0  0  0  0  0  0  0
   46.9690   33.6500   43.5920 N   0  0  0  0  0  0  0  0  0  0  0  0
   44.2350   35.5160   42.9980 H   0  0  0  0  0  0  0  0  0  0  0  0
   45.2180   35.4180   40.7320 H   0  0  0  0  0  0  0  0  0  0  0  0
   48.7560   32.8650   42.0980 C   0  0  0  0  0  0  0  0  0  0  0  0
   48.9150   32.4720   40.6760 C   0  0  0  0  0  0  0  0  0  0  0  0
   50.3390   31.9880   40.4890 C   0  0  0  0  0  0  0  0  0  0  0  0
   50.9550   31.6060   41.8240 C   0  0  0  0  0  0  0  0  0  0  0  0
   49.9840   30.8440   42.6800 C   0  0  0  0  0  0  0  0  0  0  0  0
   48.7790   31.6690   43.0020 C   0  0  0  0  0  0  0  0  0  0  0  0
  1  2  2  0  0  0  0
  2  3  1  0  0  0  0
  2 12  1  0  0  0  0
  3 13  1  0  0  0  0
  4  6  1  0  0  0  0
  4  3  1  0  0  0  0
  5  1  1  0  0  0  0
  5  4  2  0  0  0  0
  6  7  1  0  0  0  0
  7 15  1  0  0  0  0
  7  8  1  0  0  0  0
  8 17  1  0  0  0  0
  8 16  1  0  0  0  0
  9 19  1  0  0  0  0
  9  8  1  0  0  0  0
  9 18  1  0  0  0  0
 10  9  1  0  0  0  0
 11  6  1  0  0  0  0
 11 10  1  0  0  0  0
 14  7  1  0  0  0  0
 20 10  1  0  0  0  0
 21 10  1  0  0  0  0
 22 11  1  0  0  0  0
 23 11  1  0  0  0  0
 24 26  1  0  0  0  0
 24 25  1  0  0  0  0
 24  1  1  0  0  0  0
 27 28  2  0  0  0  0
 28 24  1  0  0  0  0
 29 27  1  0  0  0  0
 30 35  1  0  0  0  0
 30 29  2  0  0  0  0
 31 30  1  0  0  0  0
 32 31  2  0  0  0  0
 32 33  1  0  0  0  0
 33 34  2  0  0  0  0
 34 29  1  0  0  0  0
 36 31  1  0  0  0  0
 37 33  1  0  0  0  0
 37 42  1  0  0  0  0
 38 37  1  0  0  0  0
 39 38  1  0  0  0  0
 39 40  1  0  0  0  0
 40 41  1  0  0  0  0
 41 42  1  0  0  0  0
M  END
>  <minimizedAffinity>
-6.20687532

>  <minimizedRMSD>
1.39809012

$$$$
