
     RDKit          3D

 26 27  0  0  0  0  0  0  0  0999 V2000
   44.6402   35.9923   44.3770 C   0  0  0  0  0  0  0  0  0  0  0  0
   45.4333   35.6399   43.2703 C   0  0  0  0  0  0  0  0  0  0  0  0
   46.2235   34.4923   43.3729 C   0  0  0  0  0  0  0  0  0  0  0  0
   46.1826   33.7818   44.5328 N   0  0  0  0  0  0  0  0  0  0  0  0
   45.4096   34.1444   45.5823 C   0  0  0  0  0  0  0  0  0  0  0  0
   44.6347   35.2533   45.5066 N   0  0  0  0  0  0  0  0  0  0  0  0
   44.0151   36.8886   44.3134 H   0  0  0  0  0  0  0  0  0  0  0  0
   45.4456   36.2149   42.3749 H   0  0  0  0  0  0  0  0  0  0  0  0
   46.8653   34.1424   42.5755 H   0  0  0  0  0  0  0  0  0  0  0  0
   45.4225   33.3105   46.8175 C   0  0  0  0  0  0  0  0  0  0  0  0
   44.1639   33.5976   47.5447 C   0  0  0  0  0  0  0  0  0  0  0  0
   44.3291   34.4702   48.7582 C   0  0  0  0  0  0  0  0  0  0  0  0
   45.3217   33.7709   49.6489 C   0  0  0  0  0  0  0  0  0  0  0  0
   46.6568   33.6188   49.0190 C   0  0  0  0  0  0  0  0  0  0  0  0
   46.6952   33.5454   47.5397 C   0  0  0  0  0  0  0  0  0  0  0  0
   45.3540   32.2519   46.4473 H   0  0  0  0  0  0  0  0  0  0  0  0
   43.3894   34.0778   46.9091 H   0  0  0  0  0  0  0  0  0  0  0  0
   43.6641   32.6540   47.8991 H   0  0  0  0  0  0  0  0  0  0  0  0
   44.7225   35.4488   48.5051 H   0  0  0  0  0  0  0  0  0  0  0  0
   43.3601   34.4440   49.2879 H   0  0  0  0  0  0  0  0  0  0  0  0
   44.9426   32.7696   49.9769 H   0  0  0  0  0  0  0  0  0  0  0  0
   45.3848   34.3602   50.5874 H   0  0  0  0  0  0  0  0  0  0  0  0
   47.3033   34.4543   49.4069 H   0  0  0  0  0  0  0  0  0  0  0  0
   47.1444   32.7149   49.4931 H   0  0  0  0  0  0  0  0  0  0  0  0
   47.2071   34.4545   47.1543 H   0  0  0  0  0  0  0  0  0  0  0  0
   47.4065   32.7232   47.2531 H   0  0  0  0  0  0  0  0  0  0  0  0
  1  6  2  0
  2  3  2  0
  2  1  1  0
  3  4  1  0
  4  5  2  0
  6  5  1  0
  1  7  1  0
  2  8  1  0
  3  9  1  0
 10 11  1  0
 11 12  1  0
 12 13  1  0
 13 14  1  0
 14 15  1  0
 15 10  1  0
 10 16  1  0
 11 17  1  0
 11 18  1  0
 12 19  1  0
 12 20  1  0
 13 21  1  0
 13 22  1  0
 14 23  1  0
 14 24  1  0
 15 25  1  0
 15 26  1  0
  5 10  1  0
M  ISO  3   7  14   8  14   9  14
M  END
>  <DihAtoms>  (1) 
3,4,9,10

>  <DihDeg>  (1) 
-113.31559232805266

$$$$
