
     RDKit          3D

 33 35  0  0  0  0  0  0  0  0999 V2000
   44.5969   35.8051   44.7204 C   0  0  0  0  0  0  0  0  0  0  0  0
   45.2742   35.5690   43.5047 C   0  0  0  0  0  0  0  0  0  0  0  0
   46.1243   34.4493   43.4249 C   0  0  0  0  0  0  0  0  0  0  0  0
   46.2477   33.6509   44.5303 N   0  0  0  0  0  0  0  0  0  0  0  0
   45.5717   33.9249   45.6762 C   0  0  0  0  0  0  0  0  0  0  0  0
   44.7487   34.9970   45.7744 N   0  0  0  0  0  0  0  0  0  0  0  0
   45.8638   32.9333   46.7125 C   0  0  0  0  0  0  0  0  0  0  0  0
   45.1074   32.7717   47.8986 C   0  0  0  0  0  0  0  0  0  0  0  0
   45.4907   31.8121   48.7721 C   0  0  0  0  0  0  0  0  0  0  0  0
   46.6222   31.0049   48.4833 C   0  0  0  0  0  0  0  0  0  0  0  0
   47.1634   31.6609   46.8696 S   0  0  0  0  0  0  0  0  0  0  0  0
   43.9403   36.6486   44.8194 H   0  0  0  0  0  0  0  0  0  0  0  0
   45.1546   36.2178   42.6529 H   0  0  0  0  0  0  0  0  0  0  0  0
   46.6726   34.2093   42.5263 H   0  0  0  0  0  0  0  0  0  0  0  0
   44.2490   33.3938   48.1040 H   0  0  0  0  0  0  0  0  0  0  0  0
   45.0512   31.5561   49.6895 H   0  0  0  0  0  0  0  0  0  0  0  0
   47.3156   29.9383   49.1161 C   0  0  0  0  0  0  0  0  0  0  0  0
   47.0668   28.6087   48.4559 C   0  0  0  0  0  0  0  0  0  0  0  0
   48.2634   27.7146   48.3694 C   0  0  0  0  0  0  0  0  0  0  0  0
   49.1016   27.7064   49.6175 C   0  0  0  0  0  0  0  0  0  0  0  0
   49.3224   29.0862   50.1822 C   0  0  0  0  0  0  0  0  0  0  0  0
   48.8356   30.1324   49.1820 C   0  0  0  0  0  0  0  0  0  0  0  0
   47.0022   29.8787   50.1783 H   0  0  0  0  0  0  0  0  0  0  0  0
   46.1704   28.1150   48.8753 H   0  0  0  0  0  0  0  0  0  0  0  0
   46.8046   28.8533   47.3883 H   0  0  0  0  0  0  0  0  0  0  0  0
   47.8884   26.6789   48.2123 H   0  0  0  0  0  0  0  0  0  0  0  0
   48.9105   27.9545   47.4930 H   0  0  0  0  0  0  0  0  0  0  0  0
   48.6560   26.9890   50.3335 H   0  0  0  0  0  0  0  0  0  0  0  0
   50.1006   27.2954   49.3442 H   0  0  0  0  0  0  0  0  0  0  0  0
   48.6806   29.1803   51.0830 H   0  0  0  0  0  0  0  0  0  0  0  0
   50.3837   29.2669   50.4358 H   0  0  0  0  0  0  0  0  0  0  0  0
   49.2953   29.9749   48.1984 H   0  0  0  0  0  0  0  0  0  0  0  0
   49.0168   31.1362   49.5989 H   0  0  0  0  0  0  0  0  0  0  0  0
  1  6  2  0
  2  1  1  0
  3  2  2  0
  3  4  1  0
  4  5  2  0
  5  6  1  0
  5  7  1  0
  7 11  1  0
  7  8  2  0
  8  9  1  0
 10  9  2  0
 11 10  1  0
  1 12  1  0
  2 13  1  0
  3 14  1  0
  8 15  1  0
  9 16  1  0
 17 18  1  0
 18 19  1  0
 19 20  1  0
 20 21  1  0
 21 22  1  0
 22 17  1  0
 17 23  1  0
 18 24  1  0
 18 25  1  0
 19 26  1  0
 19 27  1  0
 20 28  1  0
 20 29  1  0
 21 30  1  0
 21 31  1  0
 22 32  1  0
 22 33  1  0
 10 17  1  0
M  ISO  5  12  14  13  14  14  14  15  14  16  14
M  END
>  <DihAtoms>  (1) 
8,9,16,17

>  <DihDeg>  (1) 
121.3800526359521

$$$$
