
 OpenBabel03252509243D

 24 26  0  0  1  0  0  0  0  0999 V2000
   46.5510   35.0520   41.9760 C   0  0  1  0  0  0  0  0  0  0  0  0
   48.0760   35.3280   41.9480 C   0  0  0  0  0  0  0  0  0  0  0  0
   47.3600   34.0840   41.3290 C   0  0  2  0  0  0  0  0  0  0  0  0
   45.9540   35.8310   41.4740 H   0  0  0  0  0  0  0  0  0  0  0  0
   48.6670   35.1850   42.8490 H   0  0  0  0  0  0  0  0  0  0  0  0
   48.3520   36.1180   41.2530 H   0  0  0  0  0  0  0  0  0  0  0  0
   47.6050   33.1470   41.9110 H   0  0  0  0  0  0  0  0  0  0  0  0
   44.7120   35.2410   45.2460 C   0  0  0  0  0  0  0  0  0  0  0  0
   45.1310   35.6040   43.9280 C   0  0  0  0  0  0  0  0  0  0  0  0
   46.0980   34.7900   43.4040 C   0  0  0  0  0  0  0  0  0  0  0  0
   46.6110   33.7160   44.1080 N   0  0  0  0  0  0  0  0  0  0  0  0
   46.1790   33.4240   45.3400 C   0  0  0  0  0  0  0  0  0  0  0  0
   45.2180   34.1970   45.9160 N   0  0  0  0  0  0  0  0  0  0  0  0
   43.9490   35.8540   45.7040 H   0  0  0  0  0  0  0  0  0  0  0  0
   46.6870   32.5570   45.7380 H   0  0  0  0  0  0  0  0  0  0  0  0
   44.6150   36.7300   43.2280 N   0  0  0  0  0  0  0  0  0  0  0  0
   45.0350   37.6820   43.1040 H   0  0  0  0  0  0  0  0  0  0  0  0
   43.6760   36.4370   42.8250 H   0  0  0  0  0  0  0  0  0  0  0  0
   47.4560   33.9200   39.8420 C   0  0  0  0  0  3  0  0  0  0  0  0
   48.5440   32.9470   39.4390 C   0  0  0  0  0  2  0  0  0  0  0  0
   48.7730   32.9180   37.9650 C   0  0  0  0  0  2  0  0  0  0  0  0
   47.5900   33.4010   37.1710 C   0  0  0  0  0  2  0  0  0  0  0  0
   46.3270   32.9260   37.8480 C   0  0  0  0  0  2  0  0  0  0  0  0
   46.1630   33.4480   39.2530 C   0  0  0  0  0  2  0  0  0  0  0  0
  1  4  1  6  0  0  0
  1 10  1  0  0  0  0
  2  1  1  0  0  0  0
  2  5  1  0  0  0  0
  3  7  1  1  0  0  0
  3  2  1  0  0  0  0
  3  1  1  0  0  0  0
  6  2  1  0  0  0  0
  8 14  1  0  0  0  0
  8 13  1  0  0  0  0
  9  8  2  0  0  0  0
 10  9  1  0  0  0  0
 10 11  2  0  0  0  0
 11 12  1  0  0  0  0
 12 15  1  0  0  0  0
 12 13  2  0  0  0  0
 16  9  1  0  0  0  0
 17 16  1  0  0  0  0
 18 16  1  0  0  0  0
 19  3  1  0  0  0  0
 20 19  1  0  0  0  0
 21 20  1  0  0  0  0
 22 23  1  0  0  0  0
 22 21  1  0  0  0  0
 23 24  1  0  0  0  0
 24 19  1  0  0  0  0
M  END
>  <minimizedAffinity>
-4.95680904

>  <minimizedRMSD>
0.286577642

$$$$
