
 OpenBabel03242520513D

 19 20  0  0  0  0  0  0  0  0999 V2000
   44.4570   35.8270   44.6040 C   0  0  0  0  0  0  0  0  0  0  0  0
   45.1360   35.9070   43.3760 C   0  0  0  0  0  0  0  0  0  0  0  0
   46.1930   35.0450   43.1320 C   0  0  0  0  0  0  0  0  0  0  0  0
   46.5190   34.1610   44.1050 N   0  0  0  0  0  0  0  0  0  0  0  0
   45.8650   34.0900   45.2760 C   0  0  0  0  0  0  0  0  0  0  0  0
   44.8330   34.9330   45.5120 N   0  0  0  0  0  0  0  0  0  0  0  0
   43.6390   36.5060   44.7730 H   0  0  0  0  0  0  0  0  0  0  0  0
   44.8920   36.6060   42.5870 H   0  0  0  0  0  0  0  0  0  0  0  0
   46.2550   33.1130   46.3050 C   0  0  0  0  0  0  0  0  0  0  0  0
   46.3890   31.7260   45.7060 C   0  0  0  0  0  0  0  0  0  0  0  0
   47.1280   30.8950   46.7350 C   0  0  0  0  0  0  0  0  0  0  0  0
   47.1610   31.4930   48.1000 C   0  0  0  0  0  0  0  0  0  0  0  0
   45.9220   32.2020   48.5220 C   0  0  0  0  0  0  0  0  0  0  0  0
   45.2460   32.9910   47.4210 C   0  0  0  0  0  0  0  0  0  0  0  0
   46.9570   34.9960   41.9870 O   0  0  0  0  0  0  0  0  0  0  0  0
   46.4640   34.1780   40.9130 C   0  0  0  0  0  0  0  0  0  0  0  0
   45.1670   34.5220   40.6160 F   0  0  0  0  0  0  0  0  0  0  0  0
   47.2840   34.4020   39.8000 F   0  0  0  0  0  0  0  0  0  0  0  0
   46.5830   32.8210   41.2560 F   0  0  0  0  0  0  0  0  0  0  0  0
  1  7  1  0  0  0  0
  1  6  1  0  0  0  0
  2  1  2  0  0  0  0
  3  2  1  0  0  0  0
  3  4  2  0  0  0  0
  4  5  1  0  0  0  0
  5  6  2  0  0  0  0
  5  9  1  0  0  0  0
  8  2  1  0  0  0  0
  9 14  1  0  0  0  0
 10  9  1  0  0  0  0
 10 11  1  0  0  0  0
 11 12  1  0  0  0  0
 12 13  1  0  0  0  0
 14 13  1  0  0  0  0
 15  3  1  0  0  0  0
 16 19  1  0  0  0  0
 16 15  1  0  0  0  0
 17 16  1  0  0  0  0
 18 16  1  0  0  0  0
M  END
>  <minimizedAffinity>
-5.16067028

>  <minimizedRMSD>
0.640795946

$$$$
