
 OpenBabel03252501463D

 20 21  0  0  0  0  0  0  0  0999 V2000
   36.0550   29.4480   41.0170 C   0  0  0  0  0  0  0  0  0  0  0  0
   36.9980   30.4760   40.9850 C   0  0  0  0  0  0  0  0  0  0  0  0
   38.2570   30.2340   41.5240 C   0  0  0  0  0  0  0  0  0  0  0  0
   38.5010   28.9930   42.0590 N   0  0  0  0  0  0  0  0  0  0  0  0
   37.5730   28.0240   42.0740 C   0  0  0  0  0  0  0  0  0  0  0  0
   36.3690   28.2580   41.5570 N   0  0  0  0  0  0  0  0  0  0  0  0
   35.0620   29.6260   40.5960 H   0  0  0  0  0  0  0  0  0  0  0  0
   39.0100   31.0040   41.5190 H   0  0  0  0  0  0  0  0  0  0  0  0
   37.9730   26.7410   42.6790 C   0  0  0  0  0  3  0  0  0  0  0  0
   39.4050   26.7420   43.1330 C   0  0  0  0  0  2  0  0  0  0  0  0
   39.7710   25.3760   43.6290 C   0  0  0  0  0  2  0  0  0  0  0  0
   39.4930   24.3110   42.6130 C   0  0  0  0  0  2  0  0  0  0  0  0
   38.0000   24.2860   42.3350 C   0  0  0  0  0  2  0  0  0  0  0  0
   37.6520   25.6250   41.7140 C   0  0  0  0  0  2  0  0  0  0  0  0
   36.7160   31.7870   40.4130 C   0  0  0  0  0  3  0  0  0  0  0  0
   37.6100   32.6580   39.9950 C   0  0  0  0  0  3  0  0  0  0  0  0
   37.2090   33.9940   39.4160 C   0  0  0  0  0  0  0  0  0  0  0  0
   37.8510   34.7530   39.8940 H   0  0  0  0  0  0  0  0  0  0  0  0
   36.1820   34.1730   39.7980 H   0  0  0  0  0  0  0  0  0  0  0  0
   37.2330   33.9900   38.3200 H   0  0  0  0  0  0  0  0  0  0  0  0
  1  6  1  0  0  0  0
  2  1  2  0  0  0  0
  2  3  1  0  0  0  0
  3  4  2  0  0  0  0
  4  5  1  0  0  0  0
  5  9  1  0  0  0  0
  6  5  2  0  0  0  0
  7  1  1  0  0  0  0
  8  3  1  0  0  0  0
  9 10  1  0  0  0  0
 10 11  1  0  0  0  0
 12 11  1  0  0  0  0
 13 12  1  0  0  0  0
 14 13  1  0  0  0  0
 14  9  1  0  0  0  0
 15  2  1  0  0  0  0
 16 15  2  0  0  0  0
 17 19  1  0  0  0  0
 17 18  1  0  0  0  0
 17 16  1  0  0  0  0
 20 17  1  0  0  0  0
M  END
>  <minimizedAffinity>
-4.77571774

$$$$

 OpenBabel03252501463D

 20 21  0  0  0  0  0  0  0  0999 V2000
   38.1750   29.5750   40.0330 C   0  0  0  0  0  0  0  0  0  0  0  0
   37.0160   30.3340   40.1980 C   0  0  0  0  0  0  0  0  0  0  0  0
   35.9020   29.7220   40.7650 C   0  0  0  0  0  0  0  0  0  0  0  0
   36.0080   28.4030   41.1300 N   0  0  0  0  0  0  0  0  0  0  0  0
   37.1370   27.7000   40.9580 C   0  0  0  0  0  0  0  0  0  0  0  0
   38.2010   28.2870   40.4170 N   0  0  0  0  0  0  0  0  0  0  0  0
   39.0570   30.0440   39.5890 H   0  0  0  0  0  0  0  0  0  0  0  0
   34.9890   30.2760   40.9070 H   0  0  0  0  0  0  0  0  0  0  0  0
   37.1080   26.2930   41.3960 C   0  0  0  0  0  3  0  0  0  0  0  0
   38.4150   25.8500   41.9890 C   0  0  0  0  0  2  0  0  0  0  0  0
   38.3480   24.3860   42.3040 C   0  0  0  0  0  2  0  0  0  0  0  0
   37.9540   23.5680   41.1130 C   0  0  0  0  0  2  0  0  0  0  0  0
   36.5580   23.9840   40.6830 C   0  0  0  0  0  2  0  0  0  0  0  0
   36.6520   25.4310   40.2430 C   0  0  0  0  0  2  0  0  0  0  0  0
   36.9260   31.7340   39.8020 C   0  0  0  0  0  3  0  0  0  0  0  0
   37.7490   32.6950   40.1640 C   0  0  0  0  0  3  0  0  0  0  0  0
   37.5660   34.1180   39.6940 C   0  0  0  0  0  0  0  0  0  0  0  0
   37.6800   34.7630   40.5820 H   0  0  0  0  0  0  0  0  0  0  0  0
   36.4970   34.1850   39.4000 H   0  0  0  0  0  0  0  0  0  0  0  0
   38.2280   34.3620   38.8550 H   0  0  0  0  0  0  0  0  0  0  0  0
  1  2  2  0  0  0  0
  1  6  1  0  0  0  0
  2  3  1  0  0  0  0
  3  8  1  0  0  0  0
  3  4  2  0  0  0  0
  5  4  1  0  0  0  0
  5  9  1  0  0  0  0
  6  5  2  0  0  0  0
  7  1  1  0  0  0  0
  9 10  1  0  0  0  0
 10 11  1  0  0  0  0
 12 11  1  0  0  0  0
 13 12  1  0  0  0  0
 14 13  1  0  0  0  0
 14  9  1  0  0  0  0
 15 16  2  0  0  0  0
 15  2  1  0  0  0  0
 17 16  1  0  0  0  0
 17 18  1  0  0  0  0
 19 17  1  0  0  0  0
 20 17  1  0  0  0  0
M  END
>  <minimizedAffinity>
-4.44902849

$$$$

 OpenBabel03252501463D

 20 21  0  0  0  0  0  0  0  0999 V2000
   35.3780   29.1530   37.8680 C   0  0  0  0  0  0  0  0  0  0  0  0
   36.5350   29.5910   37.2240 C   0  0  0  0  0  0  0  0  0  0  0  0
   37.7100   29.6770   37.9640 C   0  0  0  0  0  0  0  0  0  0  0  0
   37.6640   29.3230   39.2890 N   0  0  0  0  0  0  0  0  0  0  0  0
   36.5350   28.9050   39.8810 C   0  0  0  0  0  0  0  0  0  0  0  0
   35.4120   28.8230   39.1710 N   0  0  0  0  0  0  0  0  0  0  0  0
   34.4480   29.0810   37.2970 H   0  0  0  0  0  0  0  0  0  0  0  0
   38.6240   30.0130   37.5000 H   0  0  0  0  0  0  0  0  0  0  0  0
   36.6310   28.5580   41.3100 C   0  0  0  0  0  3  0  0  0  0  0  0
   37.6110   29.4260   42.0460 C   0  0  0  0  0  2  0  0  0  0  0  0
   37.7400   28.9440   43.4590 C   0  0  0  0  0  2  0  0  0  0  0  0
   38.0970   27.4910   43.5310 C   0  0  0  0  0  2  0  0  0  0  0  0
   36.9740   26.6860   42.8980 C   0  0  0  0  0  2  0  0  0  0  0  0
   36.9280   27.0830   41.4360 C   0  0  0  0  0  2  0  0  0  0  0  0
   36.5610   29.9620   35.8140 C   0  0  0  0  0  3  0  0  0  0  0  0
   36.5120   29.1320   34.7940 C   0  0  0  0  0  3  0  0  0  0  0  0
   36.5450   29.6230   33.3660 C   0  0  0  0  0  0  0  0  0  0  0  0
   37.2740   28.9920   32.8300 H   0  0  0  0  0  0  0  0  0  0  0  0
   36.9970   30.6360   33.4250 H   0  0  0  0  0  0  0  0  0  0  0  0
   35.5440   29.6570   32.9210 H   0  0  0  0  0  0  0  0  0  0  0  0
  1  6  1  0  0  0  0
  2  1  2  0  0  0  0
  2  3  1  0  0  0  0
  3  4  2  0  0  0  0
  4  5  1  0  0  0  0
  5  9  1  0  0  0  0
  6  5  2  0  0  0  0
  7  1  1  0  0  0  0
  8  3  1  0  0  0  0
  9 14  1  0  0  0  0
  9 10  1  0  0  0  0
 10 11  1  0  0  0  0
 11 12  1  0  0  0  0
 13 12  1  0  0  0  0
 14 13  1  0  0  0  0
 15  2  1  0  0  0  0
 16 15  2  0  0  0  0
 17 19  1  0  0  0  0
 17 16  1  0  0  0  0
 18 17  1  0  0  0  0
 20 17  1  0  0  0  0
M  END
>  <minimizedAffinity>
-4.33747768

$$$$

 OpenBabel03252501463D

 20 21  0  0  0  0  0  0  0  0999 V2000
   35.6460   27.7600   38.1620 C   0  0  0  0  0  0  0  0  0  0  0  0
   34.5630   28.6390   38.1400 C   0  0  0  0  0  0  0  0  0  0  0  0
   34.2080   29.2790   39.3230 C   0  0  0  0  0  0  0  0  0  0  0  0
   34.9470   29.0090   40.4480 N   0  0  0  0  0  0  0  0  0  0  0  0
   35.9840   28.1590   40.4370 C   0  0  0  0  0  0  0  0  0  0  0  0
   36.3220   27.5480   39.3040 N   0  0  0  0  0  0  0  0  0  0  0  0
   35.9350   27.2510   37.2390 H   0  0  0  0  0  0  0  0  0  0  0  0
   33.3760   29.9630   39.3450 H   0  0  0  0  0  0  0  0  0  0  0  0
   36.6870   27.9640   41.7180 C   0  0  0  0  0  3  0  0  0  0  0  0
   37.3210   29.2280   42.2220 C   0  0  0  0  0  2  0  0  0  0  0  0
   38.1110   28.9300   43.4610 C   0  0  0  0  0  2  0  0  0  0  0  0
   39.1100   27.8350   43.2450 C   0  0  0  0  0  2  0  0  0  0  0  0
   38.3630   26.5620   42.8900 C   0  0  0  0  0  2  0  0  0  0  0  0
   37.6650   26.8230   41.5690 C   0  0  0  0  0  2  0  0  0  0  0  0
   33.7920   28.9100   36.9330 C   0  0  0  0  0  3  0  0  0  0  0  0
   32.5370   29.3060   36.8880 C   0  0  0  0  0  3  0  0  0  0  0  0
   31.8300   29.5600   35.5780 C   0  0  0  0  0  0  0  0  0  0  0  0
   30.8460   29.0660   35.6480 H   0  0  0  0  0  0  0  0  0  0  0  0
   32.4100   28.9860   34.8260 H   0  0  0  0  0  0  0  0  0  0  0  0
   31.7970   30.6270   35.3290 H   0  0  0  0  0  0  0  0  0  0  0  0
  1  6  1  0  0  0  0
  2  1  2  0  0  0  0
  2  3  1  0  0  0  0
  3  8  1  0  0  0  0
  3  4  2  0  0  0  0
  5  4  1  0  0  0  0
  5  9  1  0  0  0  0
  6  5  2  0  0  0  0
  7  1  1  0  0  0  0
  9 10  1  0  0  0  0
 10 11  1  0  0  0  0
 12 11  1  0  0  0  0
 13 12  1  0  0  0  0
 14  9  1  0  0  0  0
 14 13  1  0  0  0  0
 15  2  1  0  0  0  0
 16 15  2  0  0  0  0
 17 18  1  0  0  0  0
 17 16  1  0  0  0  0
 19 17  1  0  0  0  0
 20 17  1  0  0  0  0
M  END
>  <minimizedAffinity>
-4.32067442

$$$$

 OpenBabel03252501463D

 20 21  0  0  0  0  0  0  0  0999 V2000
   39.2780   28.4420   42.3340 C   0  0  0  0  0  0  0  0  0  0  0  0
   37.9150   28.1690   42.2110 C   0  0  0  0  0  0  0  0  0  0  0  0
   37.0670   29.2030   41.8290 C   0  0  0  0  0  0  0  0  0  0  0  0
   37.6210   30.4370   41.5940 N   0  0  0  0  0  0  0  0  0  0  0  0
   38.9360   30.6680   41.7200 C   0  0  0  0  0  0  0  0  0  0  0  0
   39.7460   29.6770   42.0860 N   0  0  0  0  0  0  0  0  0  0  0  0
   39.9550   27.6380   42.6340 H   0  0  0  0  0  0  0  0  0  0  0  0
   36.0080   29.0300   41.7250 H   0  0  0  0  0  0  0  0  0  0  0  0
   39.3920   32.0400   41.4360 C   0  0  0  0  0  3  0  0  0  0  0  0
   38.3930   32.8230   40.6330 C   0  0  0  0  0  2  0  0  0  0  0  0
   38.9710   34.1610   40.2860 C   0  0  0  0  0  2  0  0  0  0  0  0
   40.2950   34.0440   39.5940 C   0  0  0  0  0  2  0  0  0  0  0  0
   41.2770   33.3800   40.5430 C   0  0  0  0  0  2  0  0  0  0  0  0
   40.7580   31.9780   40.7930 C   0  0  0  0  0  2  0  0  0  0  0  0
   37.3490   26.8500   42.4670 C   0  0  0  0  0  3  0  0  0  0  0  0
   37.4590   25.7950   41.6880 C   0  0  0  0  0  3  0  0  0  0  0  0
   36.8310   24.4700   42.0490 C   0  0  0  0  0  0  0  0  0  0  0  0
   36.3190   24.1050   41.1430 H   0  0  0  0  0  0  0  0  0  0  0  0
   36.0300   24.7240   42.7750 H   0  0  0  0  0  0  0  0  0  0  0  0
   37.5600   23.7750   42.4820 H   0  0  0  0  0  0  0  0  0  0  0  0
  1  7  1  0  0  0  0
  2  1  1  0  0  0  0
  2 15  1  0  0  0  0
  3  2  2  0  0  0  0
  4  5  2  0  0  0  0
  4  3  1  0  0  0  0
  5  6  1  0  0  0  0
  6  1  2  0  0  0  0
  8  3  1  0  0  0  0
  9  5  1  0  0  0  0
 10  9  1  0  0  0  0
 11 10  1  0  0  0  0
 12 11  1  0  0  0  0
 12 13  1  0  0  0  0
 13 14  1  0  0  0  0
 14  9  1  0  0  0  0
 16 17  1  0  0  0  0
 16 15  2  0  0  0  0
 17 20  1  0  0  0  0
 17 19  1  0  0  0  0
 18 17  1  0  0  0  0
M  END
>  <minimizedAffinity>
-4.30778694

$$$$

 OpenBabel03252501463D

 20 21  0  0  0  0  0  0  0  0999 V2000
   35.0840   27.6690   37.7910 C   0  0  0  0  0  0  0  0  0  0  0  0
   34.0310   28.5530   38.0320 C   0  0  0  0  0  0  0  0  0  0  0  0
   34.0120   29.2420   39.2400 C   0  0  0  0  0  0  0  0  0  0  0  0
   35.0330   29.0120   40.1290 N   0  0  0  0  0  0  0  0  0  0  0  0
   36.0310   28.1560   39.8680 C   0  0  0  0  0  0  0  0  0  0  0  0
   36.0480   27.4980   38.7110 N   0  0  0  0  0  0  0  0  0  0  0  0
   35.1100   27.1210   36.8450 H   0  0  0  0  0  0  0  0  0  0  0  0
   33.2140   29.9320   39.4620 H   0  0  0  0  0  0  0  0  0  0  0  0
   37.0600   28.0080   40.9130 C   0  0  0  0  0  3  0  0  0  0  0  0
   36.9920   26.6750   41.6000 C   0  0  0  0  0  2  0  0  0  0  0  0
   37.9870   26.6410   42.7210 C   0  0  0  0  0  2  0  0  0  0  0  0
   37.8080   27.7850   43.6720 C   0  0  0  0  0  2  0  0  0  0  0  0
   38.0480   29.0810   42.9180 C   0  0  0  0  0  2  0  0  0  0  0  0
   36.9620   29.1770   41.8640 C   0  0  0  0  0  2  0  0  0  0  0  0
   32.9570   28.7800   37.0730 C   0  0  0  0  0  3  0  0  0  0  0  0
   31.9320   29.5890   37.2360 C   0  0  0  0  0  3  0  0  0  0  0  0
   30.8700   29.7510   36.1750 C   0  0  0  0  0  0  0  0  0  0  0  0
   29.8960   29.6920   36.6890 H   0  0  0  0  0  0  0  0  0  0  0  0
   30.9470   28.8340   35.5530 H   0  0  0  0  0  0  0  0  0  0  0  0
   31.0240   30.6560   35.5740 H   0  0  0  0  0  0  0  0  0  0  0  0
  1  2  2  0  0  0  0
  1  6  1  0  0  0  0
  2  3  1  0  0  0  0
  3  8  1  0  0  0  0
  3  4  2  0  0  0  0
  5  4  1  0  0  0  0
  5  9  1  0  0  0  0
  6  5  2  0  0  0  0
  7  1  1  0  0  0  0
  9 10  1  0  0  0  0
  9 14  1  0  0  0  0
 10 11  1  0  0  0  0
 11 12  1  0  0  0  0
 13 12  1  0  0  0  0
 14 13  1  0  0  0  0
 15 16  2  0  0  0  0
 15  2  1  0  0  0  0
 17 18  1  0  0  0  0
 17 16  1  0  0  0  0
 19 17  1  0  0  0  0
 20 17  1  0  0  0  0
M  END
>  <minimizedAffinity>
-4.23992729

$$$$

 OpenBabel03252501463D

 20 21  0  0  0  0  0  0  0  0999 V2000
   37.2300   27.8760   42.3190 C   0  0  0  0  0  0  0  0  0  0  0  0
   37.1710   27.0920   41.1670 C   0  0  0  0  0  0  0  0  0  0  0  0
   37.2130   27.7300   39.9310 C   0  0  0  0  0  0  0  0  0  0  0  0
   37.3110   29.0990   39.9170 N   0  0  0  0  0  0  0  0  0  0  0  0
   37.3660   29.8260   41.0430 C   0  0  0  0  0  0  0  0  0  0  0  0
   37.3270   29.2140   42.2240 N   0  0  0  0  0  0  0  0  0  0  0  0
   37.1990   27.3870   43.2960 H   0  0  0  0  0  0  0  0  0  0  0  0
   37.1690   27.1570   39.0200 H   0  0  0  0  0  0  0  0  0  0  0  0
   37.4710   31.2870   40.8770 C   0  0  0  0  0  3  0  0  0  0  0  0
   36.9630   31.7510   39.5420 C   0  0  0  0  0  2  0  0  0  0  0  0
   37.2060   33.2230   39.4010 C   0  0  0  0  0  2  0  0  0  0  0  0
   38.6430   33.5840   39.6250 C   0  0  0  0  0  2  0  0  0  0  0  0
   39.0170   33.2170   41.0500 C   0  0  0  0  0  2  0  0  0  0  0  0
   38.8940   31.7100   41.1560 C   0  0  0  0  0  2  0  0  0  0  0  0
   37.0660   25.6380   41.2070 C   0  0  0  0  0  3  0  0  0  0  0  0
   36.8330   24.8500   40.1790 C   0  0  0  0  0  3  0  0  0  0  0  0
   36.7440   23.3510   40.3300 C   0  0  0  0  0  0  0  0  0  0  0  0
   35.8470   23.0280   39.7740 H   0  0  0  0  0  0  0  0  0  0  0  0
   36.5160   23.1860   41.4050 H   0  0  0  0  0  0  0  0  0  0  0  0
   37.6760   22.8520   40.0380 H   0  0  0  0  0  0  0  0  0  0  0  0
  1  7  1  0  0  0  0
  2 15  1  0  0  0  0
  2  1  2  0  0  0  0
  3  2  1  0  0  0  0
  4  3  2  0  0  0  0
  4  5  1  0  0  0  0
  5  6  2  0  0  0  0
  6  1  1  0  0  0  0
  8  3  1  0  0  0  0
  9  5  1  0  0  0  0
  9 14  1  0  0  0  0
 10  9  1  0  0  0  0
 11 10  1  0  0  0  0
 11 12  1  0  0  0  0
 12 13  1  0  0  0  0
 13 14  1  0  0  0  0
 16 17  1  0  0  0  0
 16 15  2  0  0  0  0
 17 19  1  0  0  0  0
 18 17  1  0  0  0  0
 20 17  1  0  0  0  0
M  END
>  <minimizedAffinity>
-4.17926121

$$$$

 OpenBabel03252501463D

 20 21  0  0  0  0  0  0  0  0999 V2000
   35.9840   29.6610   37.6000 C   0  0  0  0  0  0  0  0  0  0  0  0
   35.0390   28.9710   38.3590 C   0  0  0  0  0  0  0  0  0  0  0  0
   34.9390   29.2650   39.7150 C   0  0  0  0  0  0  0  0  0  0  0  0
   35.7780   30.2220   40.2300 N   0  0  0  0  0  0  0  0  0  0  0  0
   36.6770   30.8690   39.4740 C   0  0  0  0  0  0  0  0  0  0  0  0
   36.7710   30.5860   38.1760 N   0  0  0  0  0  0  0  0  0  0  0  0
   36.0720   29.4390   36.5330 H   0  0  0  0  0  0  0  0  0  0  0  0
   34.2210   28.7510   40.3330 H   0  0  0  0  0  0  0  0  0  0  0  0
   37.5120   31.8710   40.1590 C   0  0  0  0  0  3  0  0  0  0  0  0
   37.4230   33.2270   39.5180 C   0  0  0  0  0  2  0  0  0  0  0  0
   38.3810   34.1610   40.1940 C   0  0  0  0  0  2  0  0  0  0  0  0
   39.7800   33.6240   40.2060 C   0  0  0  0  0  2  0  0  0  0  0  0
   39.7960   32.3340   41.0070 C   0  0  0  0  0  2  0  0  0  0  0  0
   38.9250   31.3460   40.2540 C   0  0  0  0  0  2  0  0  0  0  0  0
   34.1580   27.9580   37.7900 C   0  0  0  0  0  3  0  0  0  0  0  0
   33.7820   27.8770   36.5320 C   0  0  0  0  0  3  0  0  0  0  0  0
   32.8630   26.7820   36.0450 C   0  0  0  0  0  0  0  0  0  0  0  0
   32.0930   27.2680   35.4210 H   0  0  0  0  0  0  0  0  0  0  0  0
   32.3400   26.4240   36.9570 H   0  0  0  0  0  0  0  0  0  0  0  0
   33.4140   25.9710   35.5550 H   0  0  0  0  0  0  0  0  0  0  0  0
  1  6  2  0  0  0  0
  1  2  1  0  0  0  0
  2  3  2  0  0  0  0
  3  4  1  0  0  0  0
  3  8  1  0  0  0  0
  5  9  1  0  0  0  0
  5  4  2  0  0  0  0
  6  5  1  0  0  0  0
  7  1  1  0  0  0  0
  9 14  1  0  0  0  0
 10  9  1  0  0  0  0
 10 11  1  0  0  0  0
 11 12  1  0  0  0  0
 12 13  1  0  0  0  0
 14 13  1  0  0  0  0
 15  2  1  0  0  0  0
 16 15  2  0  0  0  0
 17 16  1  0  0  0  0
 17 19  1  0  0  0  0
 18 17  1  0  0  0  0
 20 17  1  0  0  0  0
M  END
>  <minimizedAffinity>
-4.06110954

$$$$

 OpenBabel03252501463D

 20 21  0  0  0  0  0  0  0  0999 V2000
   36.5680   27.8620   36.9830 C   0  0  0  0  0  0  0  0  0  0  0  0
   36.4830   29.2510   36.8820 C   0  0  0  0  0  0  0  0  0  0  0  0
   36.3920   29.9940   38.0550 C   0  0  0  0  0  0  0  0  0  0  0  0
   36.3910   29.3160   39.2480 N   0  0  0  0  0  0  0  0  0  0  0  0
   36.4740   27.9790   39.3130 C   0  0  0  0  0  0  0  0  0  0  0  0
   36.5620   27.2700   38.1900 N   0  0  0  0  0  0  0  0  0  0  0  0
   36.6410   27.2670   36.0690 H   0  0  0  0  0  0  0  0  0  0  0  0
   36.3240   31.0690   38.0150 H   0  0  0  0  0  0  0  0  0  0  0  0
   36.4620   27.3840   40.6610 C   0  0  0  0  0  3  0  0  0  0  0  0
   36.5690   28.4180   41.7450 C   0  0  0  0  0  2  0  0  0  0  0  0
   36.6660   27.7360   43.0760 C   0  0  0  0  0  2  0  0  0  0  0  0
   37.7840   26.7410   43.1220 C   0  0  0  0  0  2  0  0  0  0  0  0
   37.5070   25.6550   42.0980 C   0  0  0  0  0  2  0  0  0  0  0  0
   37.5350   26.3250   40.7380 C   0  0  0  0  0  2  0  0  0  0  0  0
   36.4860   29.9500   35.6020 C   0  0  0  0  0  3  0  0  0  0  0  0
   36.4840   29.3870   34.4130 C   0  0  0  0  0  3  0  0  0  0  0  0
   36.4860   30.2080   33.1450 C   0  0  0  0  0  0  0  0  0  0  0  0
   37.2500   29.7660   32.4820 H   0  0  0  0  0  0  0  0  0  0  0  0
   36.8790   31.2010   33.4490 H   0  0  0  0  0  0  0  0  0  0  0  0
   35.4840   30.2910   32.7080 H   0  0  0  0  0  0  0  0  0  0  0  0
  1  6  1  0  0  0  0
  2  1  2  0  0  0  0
  2  3  1  0  0  0  0
  3  4  2  0  0  0  0
  4  5  1  0  0  0  0
  5  9  1  0  0  0  0
  6  5  2  0  0  0  0
  7  1  1  0  0  0  0
  8  3  1  0  0  0  0
  9 14  1  0  0  0  0
  9 10  1  0  0  0  0
 10 11  1  0  0  0  0
 11 12  1  0  0  0  0
 13 12  1  0  0  0  0
 14 13  1  0  0  0  0
 15  2  1  0  0  0  0
 16 15  2  0  0  0  0
 17 19  1  0  0  0  0
 17 16  1  0  0  0  0
 18 17  1  0  0  0  0
 20 17  1  0  0  0  0
M  END
>  <minimizedAffinity>
-3.98460865

$$$$
