
 OpenBabel03252509243D

 24 26  0  0  1  0  0  0  0  0999 V2000
   46.5160   35.0310   42.0330 C   0  0  1  0  0  0  0  0  0  0  0  0
   48.0360   35.3210   41.9570 C   0  0  0  0  0  0  0  0  0  0  0  0
   47.3070   34.0930   41.3220 C   0  0  2  0  0  0  0  0  0  0  0  0
   45.8950   35.8220   41.5800 H   0  0  0  0  0  0  0  0  0  0  0  0
   48.6620   35.1520   42.8300 H   0  0  0  0  0  0  0  0  0  0  0  0
   48.2810   36.1370   41.2800 H   0  0  0  0  0  0  0  0  0  0  0  0
   47.5800   33.1390   41.8630 H   0  0  0  0  0  0  0  0  0  0  0  0
   44.7750   35.0690   45.3600 C   0  0  0  0  0  0  0  0  0  0  0  0
   45.1380   35.4800   44.0400 C   0  0  0  0  0  0  0  0  0  0  0  0
   46.1180   34.7170   43.4660 C   0  0  0  0  0  0  0  0  0  0  0  0
   46.6940   33.6480   44.1260 N   0  0  0  0  0  0  0  0  0  0  0  0
   46.3130   33.3090   45.3630 C   0  0  0  0  0  0  0  0  0  0  0  0
   45.3410   34.0290   45.9870 N   0  0  0  0  0  0  0  0  0  0  0  0
   44.0030   35.6400   45.8570 H   0  0  0  0  0  0  0  0  0  0  0  0
   46.8660   32.4530   45.7230 H   0  0  0  0  0  0  0  0  0  0  0  0
   44.5570   36.6010   43.3850 N   0  0  0  0  0  0  0  0  0  0  0  0
   44.9360   37.5720   43.2720 H   0  0  0  0  0  0  0  0  0  0  0  0
   43.6180   36.2820   43.0030 H   0  0  0  0  0  0  0  0  0  0  0  0
   47.3480   33.9810   39.8280 C   0  0  0  0  0  3  0  0  0  0  0  0
   48.4940   33.1160   39.3480 C   0  0  0  0  0  2  0  0  0  0  0  0
   48.6590   33.1490   37.8640 C   0  0  0  0  0  2  0  0  0  0  0  0
   47.4050   33.5520   37.1390 C   0  0  0  0  0  2  0  0  0  0  0  0
   46.2180   32.9520   37.8530 C   0  0  0  0  0  2  0  0  0  0  0  0
   46.0750   33.4170   39.2810 C   0  0  0  0  0  2  0  0  0  0  0  0
  1  4  1  6  0  0  0
  1 10  1  0  0  0  0
  2  1  1  0  0  0  0
  2  5  1  0  0  0  0
  3  7  1  1  0  0  0
  3  2  1  0  0  0  0
  3  1  1  0  0  0  0
  6  2  1  0  0  0  0
  8 14  1  0  0  0  0
  8 13  1  0  0  0  0
  9  8  2  0  0  0  0
 10  9  1  0  0  0  0
 10 11  2  0  0  0  0
 11 12  1  0  0  0  0
 12 15  1  0  0  0  0
 12 13  2  0  0  0  0
 16  9  1  0  0  0  0
 17 16  1  0  0  0  0
 18 16  1  0  0  0  0
 19  3  1  0  0  0  0
 20 19  1  0  0  0  0
 21 20  1  0  0  0  0
 22 23  1  0  0  0  0
 22 21  1  0  0  0  0
 23 24  1  0  0  0  0
 24 19  1  0  0  0  0
M  END
>  <minimizedAffinity>
-4.98071337

>  <minimizedRMSD>
0.52189219

$$$$
