
 OpenBabel03252500003D

 18 19  0  0  0  0  0  0  0  0999 V2000
   36.2410   28.2540   39.3860 C   0  0  0  0  0  0  0  0  0  0  0  0
   36.5070   29.6380   39.3820 C   0  0  0  0  0  0  0  0  0  0  0  0
   36.9240   30.2040   40.5780 C   0  0  0  0  0  0  0  0  0  0  0  0
   37.0550   29.4240   41.6800 N   0  0  0  0  0  0  0  0  0  0  0  0
   36.7910   28.0990   41.6450 C   0  0  0  0  0  0  0  0  0  0  0  0
   36.3840   27.5260   40.4910 N   0  0  0  0  0  0  0  0  0  0  0  0
   35.9120   27.7890   38.4520 H   0  0  0  0  0  0  0  0  0  0  0  0
   36.4050   30.2570   38.5170 H   0  0  0  0  0  0  0  0  0  0  0  0
   37.2300   31.6750   40.6710 C   0  0  0  0  0  3  0  0  0  0  0  0
   37.0260   32.3510   39.3460 C   0  0  0  0  0  2  0  0  0  0  0  0
   37.4130   33.8020   39.5110 C   0  0  0  0  0  2  0  0  0  0  0  0
   38.7690   33.9910   40.1440 C   0  0  0  0  0  2  0  0  0  0  0  0
   39.4720   32.6380   40.2120 C   0  0  0  0  0  2  0  0  0  0  0  0
   38.6600   31.7800   41.1490 C   0  0  0  0  0  2  0  0  0  0  0  0
   36.9920   27.4130   42.9460 C   0  0  0  0  0  0  0  0  0  0  0  0
   35.8310   27.3700   43.6800 F   0  0  0  0  0  0  0  0  0  0  0  0
   37.9840   28.0550   43.6740 F   0  0  0  0  0  0  0  0  0  0  0  0
   37.4670   26.1200   42.7190 F   0  0  0  0  0  0  0  0  0  0  0  0
  1  6  1  0  0  0  0
  2  1  2  0  0  0  0
  2  3  1  0  0  0  0
  3  9  1  0  0  0  0
  3  4  2  0  0  0  0
  5  4  1  0  0  0  0
  5 15  1  0  0  0  0
  6  5  2  0  0  0  0
  7  1  1  0  0  0  0
  8  2  1  0  0  0  0
  9 14  1  0  0  0  0
 10 11  1  0  0  0  0
 10  9  1  0  0  0  0
 11 12  1  0  0  0  0
 12 13  1  0  0  0  0
 13 14  1  0  0  0  0
 15 17  1  0  0  0  0
 15 16  1  0  0  0  0
 18 15  1  0  0  0  0
M  END
>  <minimizedAffinity>
-5.05003309

$$$$

 OpenBabel03252500003D

 18 19  0  0  0  0  0  0  0  0999 V2000
   36.6490   26.5730   39.4230 C   0  0  0  0  0  0  0  0  0  0  0  0
   36.5150   27.8760   38.9010 C   0  0  0  0  0  0  0  0  0  0  0  0
   36.6120   28.9290   39.7980 C   0  0  0  0  0  0  0  0  0  0  0  0
   36.8260   28.6730   41.1130 N   0  0  0  0  0  0  0  0  0  0  0  0
   36.9510   27.4100   41.5770 C   0  0  0  0  0  0  0  0  0  0  0  0
   36.8600   26.3690   40.7220 N   0  0  0  0  0  0  0  0  0  0  0  0
   36.5760   25.7300   38.7320 H   0  0  0  0  0  0  0  0  0  0  0  0
   36.3460   28.0820   37.8670 H   0  0  0  0  0  0  0  0  0  0  0  0
   36.4800   30.3540   39.3330 C   0  0  0  0  0  3  0  0  0  0  0  0
   37.5870   30.7150   38.3850 C   0  0  0  0  0  2  0  0  0  0  0  0
   37.4160   32.1710   38.0180 C   0  0  0  0  0  2  0  0  0  0  0  0
   37.2530   33.0750   39.2150 C   0  0  0  0  0  2  0  0  0  0  0  0
   37.5580   32.2750   40.4790 C   0  0  0  0  0  2  0  0  0  0  0  0
   36.4950   31.2100   40.5790 C   0  0  0  0  0  2  0  0  0  0  0  0
   37.1820   27.3300   43.0420 C   0  0  0  0  0  0  0  0  0  0  0  0
   38.2470   26.5140   43.3410 F   0  0  0  0  0  0  0  0  0  0  0  0
   36.0400   26.8680   43.6800 F   0  0  0  0  0  0  0  0  0  0  0  0
   37.4030   28.6130   43.5450 F   0  0  0  0  0  0  0  0  0  0  0  0
  1  6  1  0  0  0  0
  2  1  2  0  0  0  0
  2  3  1  0  0  0  0
  3  4  2  0  0  0  0
  4  5  1  0  0  0  0
  5 15  1  0  0  0  0
  6  5  2  0  0  0  0
  7  1  1  0  0  0  0
  8  2  1  0  0  0  0
  9  3  1  0  0  0  0
  9 14  1  0  0  0  0
 10  9  1  0  0  0  0
 11 10  1  0  0  0  0
 11 12  1  0  0  0  0
 12 13  1  0  0  0  0
 13 14  1  0  0  0  0
 15 16  1  0  0  0  0
 15 18  1  0  0  0  0
 15 17  1  0  0  0  0
M  END
>  <minimizedAffinity>
-4.99163008

$$$$

 OpenBabel03252500003D

 18 19  0  0  0  0  0  0  0  0999 V2000
   35.6160   29.6340   40.3810 C   0  0  0  0  0  0  0  0  0  0  0  0
   36.2610   28.7950   41.3130 C   0  0  0  0  0  0  0  0  0  0  0  0
   37.4590   29.2470   41.8460 C   0  0  0  0  0  0  0  0  0  0  0  0
   37.9540   30.4500   41.4590 N   0  0  0  0  0  0  0  0  0  0  0  0
   37.3070   31.2270   40.5630 C   0  0  0  0  0  0  0  0  0  0  0  0
   36.1380   30.8070   40.0310 N   0  0  0  0  0  0  0  0  0  0  0  0
   34.6700   29.2950   39.9500 H   0  0  0  0  0  0  0  0  0  0  0  0
   35.8750   27.8480   41.6210 H   0  0  0  0  0  0  0  0  0  0  0  0
   38.2190   28.4200   42.8470 C   0  0  0  0  0  3  0  0  0  0  0  0
   39.6830   28.3870   42.5160 C   0  0  0  0  0  2  0  0  0  0  0  0
   40.3580   27.4900   43.5280 C   0  0  0  0  0  2  0  0  0  0  0  0
   39.6880   26.1480   43.6790 C   0  0  0  0  0  2  0  0  0  0  0  0
   38.6490   25.9900   42.5710 C   0  0  0  0  0  2  0  0  0  0  0  0
   37.5970   27.0420   42.8170 C   0  0  0  0  0  2  0  0  0  0  0  0
   38.0020   32.5050   40.2660 C   0  0  0  0  0  0  0  0  0  0  0  0
   38.7570   32.9290   41.3330 F   0  0  0  0  0  0  0  0  0  0  0  0
   37.0770   33.4820   39.9270 F   0  0  0  0  0  0  0  0  0  0  0  0
   38.8090   32.3410   39.1400 F   0  0  0  0  0  0  0  0  0  0  0  0
  1  2  1  0  0  0  0
  2  8  1  0  0  0  0
  2  3  2  0  0  0  0
  3  9  1  0  0  0  0
  4  3  1  0  0  0  0
  5  4  2  0  0  0  0
  6  1  2  0  0  0  0
  6  5  1  0  0  0  0
  7  1  1  0  0  0  0
 10  9  1  0  0  0  0
 10 11  1  0  0  0  0
 11 12  1  0  0  0  0
 13 14  1  0  0  0  0
 13 12  1  0  0  0  0
 14  9  1  0  0  0  0
 15  5  1  0  0  0  0
 15 16  1  0  0  0  0
 17 15  1  0  0  0  0
 18 15  1  0  0  0  0
M  END
>  <minimizedAffinity>
-4.93547297

$$$$

 OpenBabel03252500003D

 18 19  0  0  0  0  0  0  0  0999 V2000
   38.0530   28.9300   43.3380 C   0  0  0  0  0  0  0  0  0  0  0  0
   38.3900   27.5680   43.1960 C   0  0  0  0  0  0  0  0  0  0  0  0
   37.8290   26.8870   42.1260 C   0  0  0  0  0  0  0  0  0  0  0  0
   36.9950   27.5400   41.2780 N   0  0  0  0  0  0  0  0  0  0  0  0
   36.6950   28.8470   41.4460 C   0  0  0  0  0  0  0  0  0  0  0  0
   37.2310   29.5300   42.4810 N   0  0  0  0  0  0  0  0  0  0  0  0
   38.4860   29.4840   44.1750 H   0  0  0  0  0  0  0  0  0  0  0  0
   39.0460   27.0500   43.8610 H   0  0  0  0  0  0  0  0  0  0  0  0
   38.1310   25.4310   41.8940 C   0  0  0  0  0  3  0  0  0  0  0  0
   38.7750   25.2220   40.5540 C   0  0  0  0  0  2  0  0  0  0  0  0
   38.9850   23.7360   40.3770 C   0  0  0  0  0  2  0  0  0  0  0  0
   37.7450   22.9200   40.6460 C   0  0  0  0  0  2  0  0  0  0  0  0
   36.5550   23.8670   40.7830 C   0  0  0  0  0  2  0  0  0  0  0  0
   36.8110   24.7020   42.0120 C   0  0  0  0  0  2  0  0  0  0  0  0
   35.7680   29.3860   40.4190 C   0  0  0  0  0  0  0  0  0  0  0  0
   35.8150   30.7580   40.3670 F   0  0  0  0  0  0  0  0  0  0  0  0
   34.4720   28.9680   40.6820 F   0  0  0  0  0  0  0  0  0  0  0  0
   36.0940   28.8450   39.1740 F   0  0  0  0  0  0  0  0  0  0  0  0
  1  7  1  0  0  0  0
  2  1  1  0  0  0  0
  2  8  1  0  0  0  0
  3  2  2  0  0  0  0
  4  5  2  0  0  0  0
  4  3  1  0  0  0  0
  5  6  1  0  0  0  0
  6  1  2  0  0  0  0
  9 14  1  0  0  0  0
  9  3  1  0  0  0  0
 10  9  1  0  0  0  0
 11 10  1  0  0  0  0
 11 12  1  0  0  0  0
 12 13  1  0  0  0  0
 13 14  1  0  0  0  0
 15 17  1  0  0  0  0
 15  5  1  0  0  0  0
 16 15  1  0  0  0  0
 18 15  1  0  0  0  0
M  END
>  <minimizedAffinity>
-4.92756462

$$$$

 OpenBabel03252500003D

 18 19  0  0  0  0  0  0  0  0999 V2000
   37.6430   28.4020   43.5160 C   0  0  0  0  0  0  0  0  0  0  0  0
   37.4150   29.3800   42.5270 C   0  0  0  0  0  0  0  0  0  0  0  0
   37.0930   28.9300   41.2550 C   0  0  0  0  0  0  0  0  0  0  0  0
   37.0130   27.5970   41.0160 N   0  0  0  0  0  0  0  0  0  0  0  0
   37.2380   26.6880   41.9900 C   0  0  0  0  0  0  0  0  0  0  0  0
   37.5530   27.1040   43.2360 N   0  0  0  0  0  0  0  0  0  0  0  0
   37.8980   28.7370   44.5250 H   0  0  0  0  0  0  0  0  0  0  0  0
   37.4770   30.4310   42.7100 H   0  0  0  0  0  0  0  0  0  0  0  0
   36.8340   29.9010   40.1350 C   0  0  0  0  0  3  0  0  0  0  0  0
   38.0190   29.9920   39.2170 C   0  0  0  0  0  2  0  0  0  0  0  0
   37.7000   31.0280   38.1640 C   0  0  0  0  0  2  0  0  0  0  0  0
   37.2100   32.3340   38.7380 C   0  0  0  0  0  2  0  0  0  0  0  0
   37.4150   32.3120   40.2510 C   0  0  0  0  0  2  0  0  0  0  0  0
   36.5170   31.2270   40.7890 C   0  0  0  0  0  2  0  0  0  0  0  0
   37.1030   25.2800   41.5380 C   0  0  0  0  0  0  0  0  0  0  0  0
   36.4340   24.5150   42.4630 F   0  0  0  0  0  0  0  0  0  0  0  0
   38.3560   24.7360   41.2950 F   0  0  0  0  0  0  0  0  0  0  0  0
   36.4330   25.2500   40.3140 F   0  0  0  0  0  0  0  0  0  0  0  0
  1  7  1  0  0  0  0
  2  8  1  0  0  0  0
  2  1  2  0  0  0  0
  3  2  1  0  0  0  0
  4  3  2  0  0  0  0
  4  5  1  0  0  0  0
  5  6  2  0  0  0  0
  6  1  1  0  0  0  0
  9 14  1  0  0  0  0
  9  3  1  0  0  0  0
 10  9  1  0  0  0  0
 11 12  1  0  0  0  0
 11 10  1  0  0  0  0
 12 13  1  0  0  0  0
 13 14  1  0  0  0  0
 15  5  1  0  0  0  0
 15 16  1  0  0  0  0
 17 15  1  0  0  0  0
 18 15  1  0  0  0  0
M  END
>  <minimizedAffinity>
-4.89571095

$$$$

 OpenBabel03252500003D

 18 19  0  0  0  0  0  0  0  0999 V2000
   40.6300   32.3450   40.9660 C   0  0  0  0  0  0  0  0  0  0  0  0
   40.3910   31.2970   41.8770 C   0  0  0  0  0  0  0  0  0  0  0  0
   39.1320   30.7150   41.8550 C   0  0  0  0  0  0  0  0  0  0  0  0
   38.2000   31.1660   40.9780 N   0  0  0  0  0  0  0  0  0  0  0  0
   38.4660   32.1740   40.1180 C   0  0  0  0  0  0  0  0  0  0  0  0
   39.6860   32.7550   40.1220 N   0  0  0  0  0  0  0  0  0  0  0  0
   41.6170   32.8160   40.9680 H   0  0  0  0  0  0  0  0  0  0  0  0
   41.1220   30.9380   42.5690 H   0  0  0  0  0  0  0  0  0  0  0  0
   38.7850   29.5900   42.7920 C   0  0  0  0  0  3  0  0  0  0  0  0
   39.6660   28.3980   42.5520 C   0  0  0  0  0  2  0  0  0  0  0  0
   39.2110   27.3010   43.4870 C   0  0  0  0  0  2  0  0  0  0  0  0
   37.7260   27.0440   43.4300 C   0  0  0  0  0  2  0  0  0  0  0  0
   37.1400   27.8120   42.2480 C   0  0  0  0  0  2  0  0  0  0  0  0
   37.3250   29.2770   42.5550 C   0  0  0  0  0  2  0  0  0  0  0  0
   37.3240   32.5270   39.2370 C   0  0  0  0  0  0  0  0  0  0  0  0
   36.9490   33.8390   39.3980 F   0  0  0  0  0  0  0  0  0  0  0  0
   36.2460   31.6940   39.4990 F   0  0  0  0  0  0  0  0  0  0  0  0
   37.6750   32.2860   37.9080 F   0  0  0  0  0  0  0  0  0  0  0  0
  1  7  1  0  0  0  0
  1  2  1  0  0  0  0
  2  8  1  0  0  0  0
  3  2  2  0  0  0  0
  3  9  1  0  0  0  0
  4  3  1  0  0  0  0
  5  6  1  0  0  0  0
  5  4  2  0  0  0  0
  6  1  2  0  0  0  0
 10  9  1  0  0  0  0
 10 11  1  0  0  0  0
 12 11  1  0  0  0  0
 13 14  1  0  0  0  0
 13 12  1  0  0  0  0
 14  9  1  0  0  0  0
 15 16  1  0  0  0  0
 15 17  1  0  0  0  0
 15  5  1  0  0  0  0
 18 15  1  0  0  0  0
M  END
>  <minimizedAffinity>
-4.88633728

$$$$

 OpenBabel03252500003D

 18 19  0  0  0  0  0  0  0  0999 V2000
   36.7910   29.9130   37.3400 C   0  0  0  0  0  0  0  0  0  0  0  0
   36.4830   28.9250   38.2960 C   0  0  0  0  0  0  0  0  0  0  0  0
   36.5920   29.2820   39.6310 C   0  0  0  0  0  0  0  0  0  0  0  0
   36.9830   30.5390   39.9600 N   0  0  0  0  0  0  0  0  0  0  0  0
   37.2710   31.4610   39.0150 C   0  0  0  0  0  0  0  0  0  0  0  0
   37.1710   31.1350   37.7080 N   0  0  0  0  0  0  0  0  0  0  0  0
   36.7100   29.6510   36.2810 H   0  0  0  0  0  0  0  0  0  0  0  0
   36.1740   27.9340   38.0420 H   0  0  0  0  0  0  0  0  0  0  0  0
   36.2850   28.2930   40.7230 C   0  0  0  0  0  3  0  0  0  0  0  0
   37.0050   28.6490   41.9910 C   0  0  0  0  0  2  0  0  0  0  0  0
   36.6930   27.5770   43.0090 C   0  0  0  0  0  2  0  0  0  0  0  0
   36.9210   26.1780   42.4940 C   0  0  0  0  0  2  0  0  0  0  0  0
   37.6460   26.2610   41.1530 C   0  0  0  0  0  2  0  0  0  0  0  0
   36.6980   26.9370   40.1950 C   0  0  0  0  0  2  0  0  0  0  0  0
   37.6800   32.7770   39.5660 C   0  0  0  0  0  0  0  0  0  0  0  0
   37.6310   32.7860   40.9400 F   0  0  0  0  0  0  0  0  0  0  0  0
   36.8650   33.7790   39.0600 F   0  0  0  0  0  0  0  0  0  0  0  0
   38.9700   33.0810   39.1280 F   0  0  0  0  0  0  0  0  0  0  0  0
  1  6  2  0  0  0  0
  1  2  1  0  0  0  0
  2  3  2  0  0  0  0
  3  4  1  0  0  0  0
  3  9  1  0  0  0  0
  5 15  1  0  0  0  0
  5  4  2  0  0  0  0
  6  5  1  0  0  0  0
  7  1  1  0  0  0  0
  8  2  1  0  0  0  0
  9 10  1  0  0  0  0
 10 11  1  0  0  0  0
 12 11  1  0  0  0  0
 13 12  1  0  0  0  0
 14  9  1  0  0  0  0
 14 13  1  0  0  0  0
 15 16  1  0  0  0  0
 17 15  1  0  0  0  0
 18 15  1  0  0  0  0
M  END
>  <minimizedAffinity>
-4.6335144

$$$$

 OpenBabel03252500003D

 18 19  0  0  0  0  0  0  0  0999 V2000
   40.0620   29.9470   42.5520 C   0  0  0  0  0  0  0  0  0  0  0  0
   39.6990   28.6030   42.7750 C   0  0  0  0  0  0  0  0  0  0  0  0
   38.4590   28.1980   42.3060 C   0  0  0  0  0  0  0  0  0  0  0  0
   37.6600   29.0880   41.6670 N   0  0  0  0  0  0  0  0  0  0  0  0
   38.0420   30.3700   41.4710 C   0  0  0  0  0  0  0  0  0  0  0  0
   39.2460   30.7860   41.9200 N   0  0  0  0  0  0  0  0  0  0  0  0
   41.0370   30.2850   42.9140 H   0  0  0  0  0  0  0  0  0  0  0  0
   40.3250   27.8980   43.2780 H   0  0  0  0  0  0  0  0  0  0  0  0
   37.9850   26.7820   42.4990 C   0  0  0  0  0  3  0  0  0  0  0  0
   39.1310   25.8160   42.4140 C   0  0  0  0  0  2  0  0  0  0  0  0
   38.5620   24.4230   42.5550 C   0  0  0  0  0  2  0  0  0  0  0  0
   37.4040   24.1530   41.6280 C   0  0  0  0  0  2  0  0  0  0  0  0
   37.2970   25.3020   40.6280 C   0  0  0  0  0  2  0  0  0  0  0  0
   36.9490   26.5330   41.4270 C   0  0  0  0  0  2  0  0  0  0  0  0
   37.0350   31.1920   40.7530 C   0  0  0  0  0  0  0  0  0  0  0  0
   37.4550   32.4930   40.6110 F   0  0  0  0  0  0  0  0  0  0  0  0
   35.8240   31.1600   41.4290 F   0  0  0  0  0  0  0  0  0  0  0  0
   36.7850   30.6270   39.5020 F   0  0  0  0  0  0  0  0  0  0  0  0
  1  2  1  0  0  0  0
  1  7  1  0  0  0  0
  2  8  1  0  0  0  0
  3  9  1  0  0  0  0
  3  2  2  0  0  0  0
  4  3  1  0  0  0  0
  5  4  2  0  0  0  0
  5  6  1  0  0  0  0
  6  1  2  0  0  0  0
 10  9  1  0  0  0  0
 10 11  1  0  0  0  0
 12 11  1  0  0  0  0
 13 14  1  0  0  0  0
 13 12  1  0  0  0  0
 14  9  1  0  0  0  0
 15 17  1  0  0  0  0
 15  5  1  0  0  0  0
 16 15  1  0  0  0  0
 18 15  1  0  0  0  0
M  END
>  <minimizedAffinity>
-4.58769035

$$$$

 OpenBabel03252500003D

 18 19  0  0  0  0  0  0  0  0999 V2000
   38.7430   33.4160   40.2800 C   0  0  0  0  0  0  0  0  0  0  0  0
   37.6080   32.8330   39.6800 C   0  0  0  0  0  0  0  0  0  0  0  0
   37.3050   31.5280   40.0380 C   0  0  0  0  0  0  0  0  0  0  0  0
   38.0930   30.8770   40.9290 N   0  0  0  0  0  0  0  0  0  0  0  0
   39.1730   31.4680   41.4840 C   0  0  0  0  0  0  0  0  0  0  0  0
   39.4870   32.7390   41.1510 N   0  0  0  0  0  0  0  0  0  0  0  0
   38.9980   34.4450   40.0110 H   0  0  0  0  0  0  0  0  0  0  0  0
   36.9850   33.3430   38.9770 H   0  0  0  0  0  0  0  0  0  0  0  0
   36.1130   30.8230   39.4480 C   0  0  0  0  0  3  0  0  0  0  0  0
   35.5960   29.7680   40.3810 C   0  0  0  0  0  2  0  0  0  0  0  0
   34.4470   29.0720   39.6900 C   0  0  0  0  0  2  0  0  0  0  0  0
   34.7810   28.6080   38.2940 C   0  0  0  0  0  2  0  0  0  0  0  0
   36.2830   28.7640   38.0720 C   0  0  0  0  0  2  0  0  0  0  0  0
   36.5740   30.2420   38.1300 C   0  0  0  0  0  2  0  0  0  0  0  0
   39.9100   30.5990   42.4360 C   0  0  0  0  0  0  0  0  0  0  0  0
   40.8210   31.3160   43.1740 F   0  0  0  0  0  0  0  0  0  0  0  0
   40.5570   29.5820   41.7490 F   0  0  0  0  0  0  0  0  0  0  0  0
   38.9980   29.9630   43.2810 F   0  0  0  0  0  0  0  0  0  0  0  0
  1  6  1  0  0  0  0
  2  3  1  0  0  0  0
  2  1  2  0  0  0  0
  3  4  2  0  0  0  0
  4  5  1  0  0  0  0
  5 15  1  0  0  0  0
  6  5  2  0  0  0  0
  7  1  1  0  0  0  0
  8  2  1  0  0  0  0
  9  3  1  0  0  0  0
  9 10  1  0  0  0  0
 11 10  1  0  0  0  0
 12 11  1  0  0  0  0
 13 14  1  0  0  0  0
 13 12  1  0  0  0  0
 14  9  1  0  0  0  0
 15 16  1  0  0  0  0
 15 18  1  0  0  0  0
 17 15  1  0  0  0  0
M  END
>  <minimizedAffinity>
-4.48614836

$$$$
