
 OpenBabel03242521153D

 25 27  0  0  0  0  0  0  0  0999 V2000
   37.6620   27.6270   43.6790 C   0  0  0  0  0  0  0  0  0  0  0  0
   37.7660   28.9400   43.1710 C   0  0  0  0  0  0  0  0  0  0  0  0
   37.7310   29.1340   41.7970 C   0  0  0  0  0  0  0  0  0  0  0  0
   37.5980   28.0320   40.9910 N   0  0  0  0  0  0  0  0  0  0  0  0
   37.5030   26.7960   41.5030 C   0  0  0  0  0  0  0  0  0  0  0  0
   37.5330   26.5750   42.8480 N   0  0  0  0  0  0  0  0  0  0  0  0
   37.6930   27.5210   44.7450 H   0  0  0  0  0  0  0  0  0  0  0  0
   37.8680   29.7560   43.8660 H   0  0  0  0  0  0  0  0  0  0  0  0
   37.8370   30.4590   41.3050 N   0  0  0  0  0  0  0  0  0  0  0  0
   39.0700   31.0200   41.2700 C   0  0  0  0  0  0  0  0  0  0  0  0
   39.1760   32.3290   40.7840 C   0  0  0  0  0  0  0  0  0  0  0  0
   38.0390   32.9650   40.3740 C   0  0  0  0  0  0  0  0  0  0  0  0
   38.1540   34.1580   39.9330 O   0  0  0  0  0  0  0  0  0  0  0  0
   36.8060   32.4160   40.4030 N   0  0  0  0  0  0  0  0  0  0  0  0
   36.7610   31.1480   40.8830 C   0  0  0  0  0  0  0  0  0  0  0  0
   35.6730   30.5390   40.9560 O   0  0  0  0  0  0  0  0  0  0  0  0
   39.9600   30.5190   41.5930 H   0  0  0  0  0  0  0  0  0  0  0  0
   40.1570   32.7870   40.7520 H   0  0  0  0  0  0  0  0  0  0  0  0
   35.9520   32.9250   40.0830 H   0  0  0  0  0  0  0  0  0  0  0  0
   37.3630   25.7120   40.4970 C   0  0  0  0  0  3  0  0  0  0  0  0
   36.8230   24.4840   41.2300 C   0  0  0  0  0  2  0  0  0  0  0  0
   36.9360   23.3070   40.2980 C   0  0  0  0  0  2  0  0  0  0  0  0
   36.2980   23.5300   38.9680 C   0  0  0  0  0  2  0  0  0  0  0  0
   36.4670   24.9020   38.3960 C   0  0  0  0  0  2  0  0  0  0  0  0
   36.3850   26.0120   39.4090 C   0  0  0  0  0  2  0  0  0  0  0  0
  1  7  1  0  0  0  0
  2  1  1  0  0  0  0
  2  8  1  0  0  0  0
  3  2  2  0  0  0  0
  4  5  2  0  0  0  0
  4  3  1  0  0  0  0
  5  6  1  0  0  0  0
  6  1  2  0  0  0  0
  9  3  1  0  0  0  0
 10  9  1  0  0  0  0
 10 17  1  0  0  0  0
 11 10  2  0  0  0  0
 12 14  1  0  0  0  0
 12 11  1  0  0  0  0
 13 12  2  0  0  0  0
 14 15  1  0  0  0  0
 15 16  2  0  0  0  0
 15  9  1  0  0  0  0
 18 11  1  0  0  0  0
 19 14  1  0  0  0  0
 20 21  1  0  0  0  0
 20  5  1  0  0  0  0
 22 21  1  0  0  0  0
 23 22  1  0  0  0  0
 24 23  1  0  0  0  0
 24 25  1  0  0  0  0
 25 20  1  0  0  0  0
M  END
>  <minimizedAffinity>
-5.98607635

$$$$

 OpenBabel03242521153D

 25 27  0  0  0  0  0  0  0  0999 V2000
   36.2010   30.8630   40.9590 C   0  0  0  0  0  0  0  0  0  0  0  0
   37.2230   31.5300   40.2500 C   0  0  0  0  0  0  0  0  0  0  0  0
   38.2520   30.7830   39.6920 C   0  0  0  0  0  0  0  0  0  0  0  0
   38.2270   29.4220   39.8590 N   0  0  0  0  0  0  0  0  0  0  0  0
   37.2420   28.8170   40.5390 C   0  0  0  0  0  0  0  0  0  0  0  0
   36.2190   29.5240   41.0960 N   0  0  0  0  0  0  0  0  0  0  0  0
   35.4260   31.4770   41.3730 H   0  0  0  0  0  0  0  0  0  0  0  0
   37.1750   32.6020   40.1600 H   0  0  0  0  0  0  0  0  0  0  0  0
   39.2700   31.4700   38.9840 N   0  0  0  0  0  0  0  0  0  0  0  0
   40.3780   31.8350   39.6730 C   0  0  0  0  0  0  0  0  0  0  0  0
   41.3840   32.5120   38.9740 C   0  0  0  0  0  0  0  0  0  0  0  0
   41.1970   32.7670   37.6460 C   0  0  0  0  0  0  0  0  0  0  0  0
   42.1250   33.3860   37.0240 O   0  0  0  0  0  0  0  0  0  0  0  0
   40.0970   32.4070   36.9490 N   0  0  0  0  0  0  0  0  0  0  0  0
   39.1550   31.7550   37.6740 C   0  0  0  0  0  0  0  0  0  0  0  0
   38.0950   31.3730   37.1340 O   0  0  0  0  0  0  0  0  0  0  0  0
   40.5230   31.6340   40.7150 H   0  0  0  0  0  0  0  0  0  0  0  0
   42.2740   32.8090   39.5150 H   0  0  0  0  0  0  0  0  0  0  0  0
   39.9790   32.6140   35.9320 H   0  0  0  0  0  0  0  0  0  0  0  0
   37.3610   27.3380   40.6280 C   0  0  0  0  0  3  0  0  0  0  0  0
   36.8960   26.9330   42.0260 C   0  0  0  0  0  2  0  0  0  0  0  0
   37.2670   25.4880   42.2310 C   0  0  0  0  0  2  0  0  0  0  0  0
   36.7700   24.5800   41.1560 C   0  0  0  0  0  2  0  0  0  0  0  0
   36.8330   25.1350   39.7680 C   0  0  0  0  0  2  0  0  0  0  0  0
   36.4910   26.5970   39.6670 C   0  0  0  0  0  2  0  0  0  0  0  0
  1  6  1  0  0  0  0
  1  7  1  0  0  0  0
  2  1  2  0  0  0  0
  3  4  2  0  0  0  0
  3  2  1  0  0  0  0
  4  5  1  0  0  0  0
  5 20  1  0  0  0  0
  5  6  2  0  0  0  0
  8  2  1  0  0  0  0
  9 10  1  0  0  0  0
  9  3  1  0  0  0  0
 10 17  1  0  0  0  0
 11 18  1  0  0  0  0
 11 10  2  0  0  0  0
 12 11  1  0  0  0  0
 13 12  2  0  0  0  0
 14 12  1  0  0  0  0
 14 15  1  0  0  0  0
 15  9  1  0  0  0  0
 16 15  2  0  0  0  0
 19 14  1  0  0  0  0
 20 21  1  0  0  0  0
 21 22  1  0  0  0  0
 23 22  1  0  0  0  0
 24 23  1  0  0  0  0
 25 24  1  0  0  0  0
 25 20  1  0  0  0  0
M  END
>  <minimizedAffinity>
-5.90788841

$$$$

 OpenBabel03242521153D

 25 27  0  0  0  0  0  0  0  0999 V2000
   35.6810   30.0030   40.6230 C   0  0  0  0  0  0  0  0  0  0  0  0
   36.7590   30.8990   40.4610 C   0  0  0  0  0  0  0  0  0  0  0  0
   38.0350   30.4890   40.8240 C   0  0  0  0  0  0  0  0  0  0  0  0
   38.1890   29.2220   41.3270 N   0  0  0  0  0  0  0  0  0  0  0  0
   37.1440   28.3930   41.4700 C   0  0  0  0  0  0  0  0  0  0  0  0
   35.8810   28.7680   41.1210 N   0  0  0  0  0  0  0  0  0  0  0  0
   34.7130   30.3580   40.3300 H   0  0  0  0  0  0  0  0  0  0  0  0
   36.5610   31.8780   40.0580 H   0  0  0  0  0  0  0  0  0  0  0  0
   39.1060   31.4020   40.6540 N   0  0  0  0  0  0  0  0  0  0  0  0
   39.2580   31.9730   39.4350 C   0  0  0  0  0  0  0  0  0  0  0  0
   40.3150   32.8760   39.2670 C   0  0  0  0  0  0  0  0  0  0  0  0
   41.1290   33.1310   40.3330 C   0  0  0  0  0  0  0  0  0  0  0  0
   42.0870   33.9580   40.1610 O   0  0  0  0  0  0  0  0  0  0  0  0
   40.9860   32.5690   41.5520 N   0  0  0  0  0  0  0  0  0  0  0  0
   39.9480   31.7030   41.6600 C   0  0  0  0  0  0  0  0  0  0  0  0
   39.7190   31.1230   42.7420 O   0  0  0  0  0  0  0  0  0  0  0  0
   38.6180   31.7710   38.6000 H   0  0  0  0  0  0  0  0  0  0  0  0
   40.4450   33.3370   38.2960 H   0  0  0  0  0  0  0  0  0  0  0  0
   41.6240   32.7820   42.3520 H   0  0  0  0  0  0  0  0  0  0  0  0
   37.4780   27.0570   42.0280 C   0  0  0  0  0  3  0  0  0  0  0  0
   36.9190   26.0130   41.0620 C   0  0  0  0  0  2  0  0  0  0  0  0
   37.0010   24.6710   41.7410 C   0  0  0  0  0  2  0  0  0  0  0  0
   38.3630   24.3360   42.2490 C   0  0  0  0  0  2  0  0  0  0  0  0
   39.1240   25.4780   42.8480 C   0  0  0  0  0  2  0  0  0  0  0  0
   38.9440   26.7890   42.1310 C   0  0  0  0  0  2  0  0  0  0  0  0
  1  6  1  0  0  0  0
  2  1  2  0  0  0  0
  2  3  1  0  0  0  0
  3  4  2  0  0  0  0
  4  5  1  0  0  0  0
  5 20  1  0  0  0  0
  6  5  2  0  0  0  0
  7  1  1  0  0  0  0
  8  2  1  0  0  0  0
  9  3  1  0  0  0  0
  9 15  1  0  0  0  0
 10  9  1  0  0  0  0
 11 10  2  0  0  0  0
 11 12  1  0  0  0  0
 12 14  1  0  0  0  0
 13 12  2  0  0  0  0
 14 15  1  0  0  0  0
 14 19  1  0  0  0  0
 15 16  2  0  0  0  0
 17 10  1  0  0  0  0
 18 11  1  0  0  0  0
 20 25  1  0  0  0  0
 21 22  1  0  0  0  0
 21 20  1  0  0  0  0
 22 23  1  0  0  0  0
 23 24  1  0  0  0  0
 25 24  1  0  0  0  0
M  END
>  <minimizedAffinity>
-5.44137239

$$$$

 OpenBabel03242521153D

 25 27  0  0  0  0  0  0  0  0999 V2000
   35.8190   30.1350   40.4610 C   0  0  0  0  0  0  0  0  0  0  0  0
   36.8180   30.9110   39.8350 C   0  0  0  0  0  0  0  0  0  0  0  0
   38.0440   30.3260   39.5480 C   0  0  0  0  0  0  0  0  0  0  0  0
   38.2280   29.0110   39.8890 N   0  0  0  0  0  0  0  0  0  0  0  0
   37.2590   28.2980   40.4830 C   0  0  0  0  0  0  0  0  0  0  0  0
   36.0460   28.8460   40.7760 N   0  0  0  0  0  0  0  0  0  0  0  0
   34.8880   30.6240   40.6640 H   0  0  0  0  0  0  0  0  0  0  0  0
   36.5990   31.9390   39.5980 H   0  0  0  0  0  0  0  0  0  0  0  0
   39.0350   31.1220   38.9200 N   0  0  0  0  0  0  0  0  0  0  0  0
   40.0880   31.5240   39.6730 C   0  0  0  0  0  0  0  0  0  0  0  0
   41.0670   32.3090   39.0540 C   0  0  0  0  0  0  0  0  0  0  0  0
   40.9100   32.6260   37.7350 C   0  0  0  0  0  0  0  0  0  0  0  0
   41.8140   33.3430   37.1860 O   0  0  0  0  0  0  0  0  0  0  0  0
   39.8660   32.2310   36.9750 N   0  0  0  0  0  0  0  0  0  0  0  0
   38.9470   31.4730   37.6240 C   0  0  0  0  0  0  0  0  0  0  0  0
   37.9380   31.0510   37.0220 O   0  0  0  0  0  0  0  0  0  0  0  0
   40.2080   31.2740   40.7080 H   0  0  0  0  0  0  0  0  0  0  0  0
   41.9130   32.6360   39.6460 H   0  0  0  0  0  0  0  0  0  0  0  0
   39.7700   32.4880   35.9670 H   0  0  0  0  0  0  0  0  0  0  0  0
   37.6180   26.8880   40.7860 C   0  0  0  0  0  3  0  0  0  0  0  0
   39.0890   26.8770   41.2010 C   0  0  0  0  0  2  0  0  0  0  0  0
   39.5420   25.4410   41.2420 C   0  0  0  0  0  2  0  0  0  0  0  0
   38.6820   24.5630   42.0870 C   0  0  0  0  0  2  0  0  0  0  0  0
   37.2130   24.8370   42.0120 C   0  0  0  0  0  2  0  0  0  0  0  0
   36.8570   26.2970   41.9270 C   0  0  0  0  0  2  0  0  0  0  0  0
  1  7  1  0  0  0  0
  1  6  1  0  0  0  0
  2  1  2  0  0  0  0
  3  2  1  0  0  0  0
  3  4  2  0  0  0  0
  4  5  1  0  0  0  0
  5  6  2  0  0  0  0
  5 20  1  0  0  0  0
  8  2  1  0  0  0  0
  9  3  1  0  0  0  0
  9 10  1  0  0  0  0
 10 17  1  0  0  0  0
 11 18  1  0  0  0  0
 11 10  2  0  0  0  0
 12 11  1  0  0  0  0
 13 12  2  0  0  0  0
 14 15  1  0  0  0  0
 14 12  1  0  0  0  0
 15  9  1  0  0  0  0
 16 15  2  0  0  0  0
 19 14  1  0  0  0  0
 20 21  1  0  0  0  0
 20 25  1  0  0  0  0
 21 22  1  0  0  0  0
 22 23  1  0  0  0  0
 24 23  1  0  0  0  0
 25 24  1  0  0  0  0
M  END
>  <minimizedAffinity>
-5.39404678

$$$$

 OpenBabel03242521153D

 25 27  0  0  0  0  0  0  0  0999 V2000
   36.5120   31.7590   39.6420 C   0  0  0  0  0  0  0  0  0  0  0  0
   37.6750   32.3350   39.0890 C   0  0  0  0  0  0  0  0  0  0  0  0
   38.9170   31.9200   39.5510 C   0  0  0  0  0  0  0  0  0  0  0  0
   38.9540   30.9620   40.5320 N   0  0  0  0  0  0  0  0  0  0  0  0
   37.8310   30.4330   41.0380 C   0  0  0  0  0  0  0  0  0  0  0  0
   36.5980   30.8200   40.6040 N   0  0  0  0  0  0  0  0  0  0  0  0
   35.5740   32.1070   39.2570 H   0  0  0  0  0  0  0  0  0  0  0  0
   37.5660   33.0830   38.3220 H   0  0  0  0  0  0  0  0  0  0  0  0
   40.0740   32.5110   38.9840 N   0  0  0  0  0  0  0  0  0  0  0  0
   40.5400   31.9920   37.8220 C   0  0  0  0  0  0  0  0  0  0  0  0
   41.6820   32.5750   37.2610 C   0  0  0  0  0  0  0  0  0  0  0  0
   42.2620   33.6270   37.9110 C   0  0  0  0  0  0  0  0  0  0  0  0
   43.3030   34.1460   37.3840 O   0  0  0  0  0  0  0  0  0  0  0  0
   41.8070   34.1520   39.0680 N   0  0  0  0  0  0  0  0  0  0  0  0
   40.6990   33.5500   39.5680 C   0  0  0  0  0  0  0  0  0  0  0  0
   40.1880   33.9520   40.6340 O   0  0  0  0  0  0  0  0  0  0  0  0
   40.0830   31.1660   37.3150 H   0  0  0  0  0  0  0  0  0  0  0  0
   42.0630   32.1680   36.3330 H   0  0  0  0  0  0  0  0  0  0  0  0
   42.2700   34.9580   39.5450 H   0  0  0  0  0  0  0  0  0  0  0  0
   38.0430   29.4070   42.0920 C   0  0  0  0  0  3  0  0  0  0  0  0
   37.0800   28.2570   41.8010 C   0  0  0  0  0  2  0  0  0  0  0  0
   37.0820   27.3440   42.9990 C   0  0  0  0  0  2  0  0  0  0  0  0
   38.4420   26.8870   43.4060 C   0  0  0  0  0  2  0  0  0  0  0  0
   39.5230   27.9170   43.3010 C   0  0  0  0  0  2  0  0  0  0  0  0
   39.4130   28.8130   42.0980 C   0  0  0  0  0  2  0  0  0  0  0  0
  1  6  1  0  0  0  0
  2  3  1  0  0  0  0
  2  1  2  0  0  0  0
  3  4  2  0  0  0  0
  4  5  1  0  0  0  0
  5 20  1  0  0  0  0
  6  5  2  0  0  0  0
  7  1  1  0  0  0  0
  8  2  1  0  0  0  0
  9  3  1  0  0  0  0
  9 15  1  0  0  0  0
 10  9  1  0  0  0  0
 11 10  2  0  0  0  0
 11 12  1  0  0  0  0
 12 14  1  0  0  0  0
 13 12  2  0  0  0  0
 14 19  1  0  0  0  0
 14 15  1  0  0  0  0
 15 16  2  0  0  0  0
 17 10  1  0  0  0  0
 18 11  1  0  0  0  0
 20 25  1  0  0  0  0
 21 20  1  0  0  0  0
 21 22  1  0  0  0  0
 22 23  1  0  0  0  0
 24 23  1  0  0  0  0
 25 24  1  0  0  0  0
M  END
>  <minimizedAffinity>
-5.2413969

$$$$

 OpenBabel03242521153D

 25 27  0  0  0  0  0  0  0  0999 V2000
   39.3660   27.0120   43.5870 C   0  0  0  0  0  0  0  0  0  0  0  0
   39.0260   28.1990   42.9040 C   0  0  0  0  0  0  0  0  0  0  0  0
   38.2450   28.1160   41.7590 C   0  0  0  0  0  0  0  0  0  0  0  0
   37.8390   26.8740   41.3410 N   0  0  0  0  0  0  0  0  0  0  0  0
   38.1800   25.7640   42.0120 C   0  0  0  0  0  0  0  0  0  0  0  0
   38.9440   25.8150   43.1400 N   0  0  0  0  0  0  0  0  0  0  0  0
   39.9690   27.1210   44.4660 H   0  0  0  0  0  0  0  0  0  0  0  0
   39.3820   29.1390   43.2920 H   0  0  0  0  0  0  0  0  0  0  0  0
   37.9140   29.3190   41.0850 N   0  0  0  0  0  0  0  0  0  0  0  0
   36.8130   29.9900   41.5030 C   0  0  0  0  0  0  0  0  0  0  0  0
   36.4860   31.1780   40.8390 C   0  0  0  0  0  0  0  0  0  0  0  0
   37.2860   31.5940   39.8150 C   0  0  0  0  0  0  0  0  0  0  0  0
   36.9720   32.6800   39.2210 O   0  0  0  0  0  0  0  0  0  0  0  0
   38.3850   30.9340   39.3900 N   0  0  0  0  0  0  0  0  0  0  0  0
   38.6560   29.7900   40.0670 C   0  0  0  0  0  0  0  0  0  0  0  0
   39.6490   29.0960   39.7620 O   0  0  0  0  0  0  0  0  0  0  0  0
   36.1860   29.6620   42.3070 H   0  0  0  0  0  0  0  0  0  0  0  0
   35.6080   31.7230   41.1650 H   0  0  0  0  0  0  0  0  0  0  0  0
   38.9810   31.2740   38.6030 H   0  0  0  0  0  0  0  0  0  0  0  0
   37.6590   24.4990   41.4300 C   0  0  0  0  0  3  0  0  0  0  0  0
   36.6620   24.8830   40.3380 C   0  0  0  0  0  2  0  0  0  0  0  0
   35.9240   23.6340   39.9320 C   0  0  0  0  0  2  0  0  0  0  0  0
   36.8190   22.5060   39.5440 C   0  0  0  0  0  2  0  0  0  0  0  0
   38.0590   22.3570   40.3700 C   0  0  0  0  0  2  0  0  0  0  0  0
   38.7010   23.6590   40.7680 C   0  0  0  0  0  2  0  0  0  0  0  0
  1  7  1  0  0  0  0
  2  8  1  0  0  0  0
  2  1  2  0  0  0  0
  3  2  1  0  0  0  0
  4  3  2  0  0  0  0
  4  5  1  0  0  0  0
  5  6  2  0  0  0  0
  6  1  1  0  0  0  0
  9 10  1  0  0  0  0
  9  3  1  0  0  0  0
 10 17  1  0  0  0  0
 11 18  1  0  0  0  0
 11 10  2  0  0  0  0
 12 11  1  0  0  0  0
 13 12  2  0  0  0  0
 14 12  1  0  0  0  0
 14 15  1  0  0  0  0
 15  9  1  0  0  0  0
 16 15  2  0  0  0  0
 19 14  1  0  0  0  0
 20  5  1  0  0  0  0
 21 20  1  0  0  0  0
 22 21  1  0  0  0  0
 23 22  1  0  0  0  0
 23 24  1  0  0  0  0
 24 25  1  0  0  0  0
 25 20  1  0  0  0  0
M  END
>  <minimizedAffinity>
-5.18609285

$$$$

 OpenBabel03242521153D

 25 27  0  0  0  0  0  0  0  0999 V2000
   36.8310   29.2590   37.4850 C   0  0  0  0  0  0  0  0  0  0  0  0
   37.8360   30.2350   37.3110 C   0  0  0  0  0  0  0  0  0  0  0  0
   38.7600   30.4390   38.3280 C   0  0  0  0  0  0  0  0  0  0  0  0
   38.6510   29.6760   39.4620 N   0  0  0  0  0  0  0  0  0  0  0  0
   37.6850   28.7560   39.5980 C   0  0  0  0  0  0  0  0  0  0  0  0
   36.7650   28.5340   38.6170 N   0  0  0  0  0  0  0  0  0  0  0  0
   36.1390   29.1340   36.6760 H   0  0  0  0  0  0  0  0  0  0  0  0
   37.8580   30.7960   36.3920 H   0  0  0  0  0  0  0  0  0  0  0  0
   39.7610   31.4240   38.1360 N   0  0  0  0  0  0  0  0  0  0  0  0
   40.8220   31.0980   37.3590 C   0  0  0  0  0  0  0  0  0  0  0  0
   41.8110   32.0700   37.1680 C   0  0  0  0  0  0  0  0  0  0  0  0
   41.6550   33.2850   37.7700 C   0  0  0  0  0  0  0  0  0  0  0  0
   42.5670   34.1600   37.5850 O   0  0  0  0  0  0  0  0  0  0  0  0
   40.6020   33.6210   38.5460 N   0  0  0  0  0  0  0  0  0  0  0  0
   39.6740   32.6430   38.6980 C   0  0  0  0  0  0  0  0  0  0  0  0
   38.6560   32.8410   39.3930 O   0  0  0  0  0  0  0  0  0  0  0  0
   40.9430   30.1430   36.8870 H   0  0  0  0  0  0  0  0  0  0  0  0
   42.6640   31.8200   36.5490 H   0  0  0  0  0  0  0  0  0  0  0  0
   40.5060   34.5590   38.9960 H   0  0  0  0  0  0  0  0  0  0  0  0
   37.7060   28.0140   40.8860 C   0  0  0  0  0  3  0  0  0  0  0  0
   38.9720   28.4380   41.6290 C   0  0  0  0  0  2  0  0  0  0  0  0
   39.1540   27.5020   42.7950 C   0  0  0  0  0  2  0  0  0  0  0  0
   37.9560   27.4020   43.6780 C   0  0  0  0  0  2  0  0  0  0  0  0
   36.6360   27.4030   42.9730 C   0  0  0  0  0  2  0  0  0  0  0  0
   36.5630   28.3330   41.7920 C   0  0  0  0  0  2  0  0  0  0  0  0
  1  6  1  0  0  0  0
  2  1  2  0  0  0  0
  2  3  1  0  0  0  0
  3  4  2  0  0  0  0
  4  5  1  0  0  0  0
  5 20  1  0  0  0  0
  6  5  2  0  0  0  0
  7  1  1  0  0  0  0
  8  2  1  0  0  0  0
  9  3  1  0  0  0  0
  9 15  1  0  0  0  0
 10  9  1  0  0  0  0
 11 10  2  0  0  0  0
 11 12  1  0  0  0  0
 12 14  1  0  0  0  0
 13 12  2  0  0  0  0
 14 15  1  0  0  0  0
 14 19  1  0  0  0  0
 15 16  2  0  0  0  0
 17 10  1  0  0  0  0
 18 11  1  0  0  0  0
 20 21  1  0  0  0  0
 20 25  1  0  0  0  0
 21 22  1  0  0  0  0
 22 23  1  0  0  0  0
 24 23  1  0  0  0  0
 25 24  1  0  0  0  0
M  END
>  <minimizedAffinity>
-5.08446455

$$$$

 OpenBabel03242521153D

 25 27  0  0  0  0  0  0  0  0999 V2000
   36.2090   27.1890   38.0130 C   0  0  0  0  0  0  0  0  0  0  0  0
   36.4490   28.5590   38.2520 C   0  0  0  0  0  0  0  0  0  0  0  0
   37.2970   28.9240   39.2890 C   0  0  0  0  0  0  0  0  0  0  0  0
   37.8660   27.9270   40.0390 N   0  0  0  0  0  0  0  0  0  0  0  0
   37.6190   26.6330   39.7890 C   0  0  0  0  0  0  0  0  0  0  0  0
   36.7920   26.2450   38.7770 N   0  0  0  0  0  0  0  0  0  0  0  0
   35.5490   26.9500   37.2030 H   0  0  0  0  0  0  0  0  0  0  0  0
   35.9650   29.2850   37.6200 H   0  0  0  0  0  0  0  0  0  0  0  0
   37.5240   30.3050   39.5130 N   0  0  0  0  0  0  0  0  0  0  0  0
   38.5450   30.8910   38.8410 C   0  0  0  0  0  0  0  0  0  0  0  0
   38.7700   32.2550   39.0620 C   0  0  0  0  0  0  0  0  0  0  0  0
   37.9560   32.9160   39.9360 C   0  0  0  0  0  0  0  0  0  0  0  0
   38.1760   34.1600   40.1250 O   0  0  0  0  0  0  0  0  0  0  0  0
   36.9360   32.3430   40.6110 N   0  0  0  0  0  0  0  0  0  0  0  0
   36.7630   31.0210   40.3600 C   0  0  0  0  0  0  0  0  0  0  0  0
   35.8500   30.3860   40.9280 O   0  0  0  0  0  0  0  0  0  0  0  0
   39.1820   30.3700   38.1560 H   0  0  0  0  0  0  0  0  0  0  0  0
   39.5830   32.7330   38.5300 H   0  0  0  0  0  0  0  0  0  0  0  0
   36.3280   32.8720   41.2750 H   0  0  0  0  0  0  0  0  0  0  0  0
   38.3140   25.6780   40.6910 C   0  0  0  0  0  3  0  0  0  0  0  0
   39.4200   26.4560   41.4030 C   0  0  0  0  0  2  0  0  0  0  0  0
   40.3040   25.4580   42.1040 C   0  0  0  0  0  2  0  0  0  0  0  0
   39.5630   24.5270   43.0040 C   0  0  0  0  0  2  0  0  0  0  0  0
   38.2370   24.0590   42.4930 C   0  0  0  0  0  2  0  0  0  0  0  0
   37.4450   25.1120   41.7650 C   0  0  0  0  0  2  0  0  0  0  0  0
  1  2  2  0  0  0  0
  1  6  1  0  0  0  0
  2  3  1  0  0  0  0
  3  9  1  0  0  0  0
  3  4  2  0  0  0  0
  5  4  1  0  0  0  0
  5 20  1  0  0  0  0
  6  5  2  0  0  0  0
  7  1  1  0  0  0  0
  8  2  1  0  0  0  0
  9 15  1  0  0  0  0
 10 11  2  0  0  0  0
 10  9  1  0  0  0  0
 11 12  1  0  0  0  0
 12 13  2  0  0  0  0
 12 14  1  0  0  0  0
 14 19  1  0  0  0  0
 15 14  1  0  0  0  0
 15 16  2  0  0  0  0
 17 10  1  0  0  0  0
 18 11  1  0  0  0  0
 20 21  1  0  0  0  0
 20 25  1  0  0  0  0
 21 22  1  0  0  0  0
 22 23  1  0  0  0  0
 24 23  1  0  0  0  0
 25 24  1  0  0  0  0
M  END
>  <minimizedAffinity>
-5.0508585

$$$$

 OpenBabel03242521153D

 25 27  0  0  0  0  0  0  0  0999 V2000
   37.0740   32.4060   40.1040 C   0  0  0  0  0  0  0  0  0  0  0  0
   38.3060   32.9090   39.6320 C   0  0  0  0  0  0  0  0  0  0  0  0
   39.4640   32.1780   39.8610 C   0  0  0  0  0  0  0  0  0  0  0  0
   39.3550   30.9920   40.5420 N   0  0  0  0  0  0  0  0  0  0  0  0
   38.1700   30.5400   40.9790 C   0  0  0  0  0  0  0  0  0  0  0  0
   37.0170   31.2360   40.7670 N   0  0  0  0  0  0  0  0  0  0  0  0
   36.2050   33.0010   39.9060 H   0  0  0  0  0  0  0  0  0  0  0  0
   38.3120   33.8480   39.1050 H   0  0  0  0  0  0  0  0  0  0  0  0
   40.6910   32.6990   39.3810 N   0  0  0  0  0  0  0  0  0  0  0  0
   41.4360   33.4420   40.2350 C   0  0  0  0  0  0  0  0  0  0  0  0
   42.6490   33.9560   39.7610 C   0  0  0  0  0  0  0  0  0  0  0  0
   43.0130   33.6840   38.4730 C   0  0  0  0  0  0  0  0  0  0  0  0
   44.1230   34.1610   38.0580 O   0  0  0  0  0  0  0  0  0  0  0  0
   42.2800   32.9440   37.6140 N   0  0  0  0  0  0  0  0  0  0  0  0
   41.1150   32.4710   38.1240 C   0  0  0  0  0  0  0  0  0  0  0  0
   40.3550   31.7740   37.4200 O   0  0  0  0  0  0  0  0  0  0  0  0
   41.1480   33.6540   41.2440 H   0  0  0  0  0  0  0  0  0  0  0  0
   43.2510   34.5520   40.4350 H   0  0  0  0  0  0  0  0  0  0  0  0
   42.5820   32.7510   36.6330 H   0  0  0  0  0  0  0  0  0  0  0  0
   38.2240   29.2400   41.6970 C   0  0  0  0  0  3  0  0  0  0  0  0
   39.6870   28.9830   42.0530 C   0  0  0  0  0  2  0  0  0  0  0  0
   39.8000   27.5580   42.5280 C   0  0  0  0  0  2  0  0  0  0  0  0
   38.8540   27.2150   43.6290 C   0  0  0  0  0  2  0  0  0  0  0  0
   37.4880   27.8140   43.5130 C   0  0  0  0  0  2  0  0  0  0  0  0
   37.4710   29.2240   42.9860 C   0  0  0  0  0  2  0  0  0  0  0  0
  1  6  1  0  0  0  0
  2  3  1  0  0  0  0
  2  1  2  0  0  0  0
  3  4  2  0  0  0  0
  4  5  1  0  0  0  0
  5 20  1  0  0  0  0
  6  5  2  0  0  0  0
  7  1  1  0  0  0  0
  8  2  1  0  0  0  0
  9  3  1  0  0  0  0
  9 10  1  0  0  0  0
 10 17  1  0  0  0  0
 11 10  2  0  0  0  0
 11 18  1  0  0  0  0
 12 11  1  0  0  0  0
 13 12  2  0  0  0  0
 14 15  1  0  0  0  0
 14 12  1  0  0  0  0
 15  9  1  0  0  0  0
 16 15  2  0  0  0  0
 19 14  1  0  0  0  0
 20 21  1  0  0  0  0
 20 25  1  0  0  0  0
 21 22  1  0  0  0  0
 22 23  1  0  0  0  0
 24 23  1  0  0  0  0
 25 24  1  0  0  0  0
M  END
>  <minimizedAffinity>
-5.04127073

$$$$
