REMARK  Name = 
REMARK  5 active torsions:
REMARK  status: ('A' for Active; 'I' for Inactive)
REMARK    1  A    between atoms: C_1  and  N_5
REMARK    2  A    between atoms: C_1  and  C_13
REMARK    3  A    between atoms: C_2  and  C_11
REMARK    4  A    between atoms: C_13  and  C_15
REMARK    5  A    between atoms: C_22  and  C_37
REMARK                            x       y       z     vdW  Elec       q    Type
REMARK                         _______ _______ _______ _____ _____    ______ ____
ROOT
ATOM      1  C   UNL     1      46.012  29.948  48.257  0.00  0.00    +0.000 C 
ATOM      2  H   UNL     1      45.437  30.887  48.381  0.00  0.00    +0.000 HD
ATOM      3  H   UNL     1      46.197  29.599  49.316  0.00  0.00    +0.000 HD
ENDROOT
BRANCH   1   5
ATOM      4  C   UNL     1      45.125  27.542  47.905  0.00  0.00    +0.000 A 
ATOM      5  C   UNL     1      45.192  28.900  47.639  0.00  0.00    +0.000 A 
ATOM      6  C   UNL     1      44.359  29.381  46.629  0.00  0.00    +0.000 A 
ATOM      7  C   UNL     1      43.510  28.560  45.924  0.00  0.00    +0.000 A 
ATOM      8  N   UNL     1      42.624  28.737  44.939  0.00  0.00    +0.000 N 
ATOM      9  C   UNL     1      42.037  27.568  44.606  0.00  0.00    +0.000 A 
ATOM     10  C   UNL     1      42.549  26.555  45.401  0.00  0.00    +0.000 A 
ATOM     11  C   UNL     1      43.457  27.215  46.202  0.00  0.00    +0.000 A 
ATOM     12  C   UNL     1      44.280  26.740  47.200  0.00  0.00    +0.000 A 
ATOM     13  H   UNL     1      45.800  27.250  48.699  0.00  0.00    +0.000 HD
ATOM     14  H   UNL     1      44.312  30.417  46.321  0.00  0.00    +0.000 HD
ATOM     15  H   UNL     1      42.411  29.666  44.481  0.00  0.00    +0.000 HD
ATOM     16  H   UNL     1      41.274  27.417  43.833  0.00  0.00    +0.000 HD
ATOM     17  H   UNL     1      42.321  25.496  45.422  0.00  0.00    +0.000 HD
BRANCH  12  18
ATOM     18  C   UNL     1      44.251  25.310  47.522  0.00  0.00    +0.000 C 
ATOM     19  C   UNL     1      43.285  24.872  48.555  0.00  0.00    +0.000 C 
ATOM     20  C   UNL     1      42.268  23.862  48.109  0.00  0.00    +0.000 C 
ATOM     21  C   UNL     1      42.866  22.629  47.513  0.00  0.00    +0.000 C 
ATOM     22  C   UNL     1      44.019  22.983  46.632  0.00  0.00    +0.000 C 
ATOM     23  C   UNL     1      43.937  24.470  46.276  0.00  0.00    +0.000 C 
ENDBRANCH  12  18
ENDBRANCH   1   5
BRANCH   1  24
ATOM     24  C   UNL     1      47.329  30.213  47.644  0.00  0.00    +0.000 C 
ATOM     25  H   UNL     1      47.879  29.296  47.439  0.00  0.00    +0.000 HD
ATOM     26  H   UNL     1      47.933  30.794  48.389  0.00  0.00    +0.000 HD
BRANCH  24  30
ATOM     27  C   UNL     1      46.554  32.670  45.175  0.00  0.00    +0.000 A 
ATOM     28  C   UNL     1      47.278  31.708  44.426  0.00  0.00    +0.000 A 
ATOM     29  C   UNL     1      47.645  30.695  45.248  0.00  0.00    +0.000 A 
ATOM     30  N   UNL     1      47.170  31.013  46.456  0.00  0.00    +0.000 N 
ATOM     31  N   UNL     1      46.523  32.183  46.413  0.00  0.00    +0.000 NA
ATOM     32  H   UNL     1      47.507  31.764  43.369  0.00  0.00    +0.000 HD
ATOM     33  H   UNL     1      48.211  29.824  44.937  0.00  0.00    +0.000 HD
BRANCH  27  38
ATOM     34  C   UNL     1      44.566  35.697  44.830  0.00  0.00    +0.000 A 
ATOM     35  C   UNL     1      44.939  36.191  43.582  0.00  0.00    +0.000 A 
ATOM     36  C   UNL     1      45.882  35.472  42.858  0.00  0.00    +0.000 A 
ATOM     37  N   UNL     1      46.387  34.334  43.403  0.00  0.00    +0.000 NA
ATOM     38  C   UNL     1      46.016  33.879  44.600  0.00  0.00    +0.000 A 
ATOM     39  N   UNL     1      45.099  34.569  45.314  0.00  0.00    +0.000 NA
ATOM     40  H   UNL     1      43.838  36.203  45.448  0.00  0.00    +0.000 HD
ATOM     41  H   UNL     1      44.504  37.088  43.216  0.00  0.00    +0.000 HD
ATOM     42  H   UNL     1      46.204  35.820  41.877  0.00  0.00    +0.000 HD
ENDBRANCH  27  38
ENDBRANCH  24  30
ENDBRANCH   1  24
TORSDOF 5
