
     RDKit          3D

 36 38  0  0  0  0  0  0  0  0999 V2000
   45.5283   34.1487   44.4154 C   0  0  0  0  0  0  0  0  0  0  0  0
   46.5040   33.6030   43.5411 C   0  0  0  0  0  0  0  0  0  0  0  0
   47.3952   32.6746   44.0611 C   0  0  0  0  0  0  0  0  0  0  0  0
   47.2847   32.3425   45.3703 N   0  0  0  0  0  0  0  0  0  0  0  0
   46.3388   32.8864   46.1742 C   0  0  0  0  0  0  0  0  0  0  0  0
   45.4578   33.7953   45.6850 N   0  0  0  0  0  0  0  0  0  0  0  0
   46.3979   32.3867   47.5869 C   0  0  0  0  0  0  0  0  0  0  0  0
   45.3869   32.9171   48.3550 F   0  0  0  0  0  0  0  0  0  0  0  0
   47.6191   32.7475   48.1635 F   0  0  0  0  0  0  0  0  0  0  0  0
   46.3789   30.9982   47.5726 F   0  0  0  0  0  0  0  0  0  0  0  0
   44.5694   35.1581   43.8840 C   0  0  1  0  0  0  0  0  0  0  0  0
   44.8804   36.6042   44.3255 C   0  0  0  0  0  0  0  0  0  0  0  0
   44.9765   36.1547   42.8935 C   0  0  2  0  0  0  0  0  0  0  0  0
   46.5227   33.9233   42.5099 H   0  0  0  0  0  0  0  0  0  0  0  0
   48.1379   32.2532   43.4123 H   0  0  0  0  0  0  0  0  0  0  0  0
   43.5104   34.8521   43.9855 H   0  0  0  0  0  0  0  0  0  0  0  0
   45.7777   36.7750   44.9360 H   0  0  0  0  0  0  0  0  0  0  0  0
   43.9895   37.1956   44.5549 H   0  0  0  0  0  0  0  0  0  0  0  0
   46.0523   36.0623   42.5643 H   0  0  0  0  0  0  0  0  0  0  0  0
   44.0402   36.6625   41.8465 C   0  0  0  0  0  0  0  0  0  0  0  0
   42.6352   36.2801   42.2349 C   0  0  0  0  0  0  0  0  0  0  0  0
   41.7681   35.8779   41.0704 C   0  0  0  0  0  0  0  0  0  0  0  0
   42.0256   36.6854   39.8336 C   0  0  0  0  0  0  0  0  0  0  0  0
   43.4913   36.7475   39.4732 C   0  0  0  0  0  0  0  0  0  0  0  0
   44.3512   36.0537   40.5149 C   0  0  0  0  0  0  0  0  0  0  0  0
   44.1007   37.7603   41.7323 H   0  0  0  0  0  0  0  0  0  0  0  0
   42.1965   37.0943   42.8459 H   0  0  0  0  0  0  0  0  0  0  0  0
   42.6798   35.3804   42.8973 H   0  0  0  0  0  0  0  0  0  0  0  0
   41.8540   34.7823   40.8585 H   0  0  0  0  0  0  0  0  0  0  0  0
   40.7118   36.0505   41.3702 H   0  0  0  0  0  0  0  0  0  0  0  0
   41.5537   37.6911   39.9323 H   0  0  0  0  0  0  0  0  0  0  0  0
   41.5067   36.1678   38.9997 H   0  0  0  0  0  0  0  0  0  0  0  0
   43.6898   36.3603   38.4480 H   0  0  0  0  0  0  0  0  0  0  0  0
   43.7838   37.8175   39.4908 H   0  0  0  0  0  0  0  0  0  0  0  0
   45.3992   36.3245   40.2553 H   0  0  0  0  0  0  0  0  0  0  0  0
   44.1942   34.9575   40.4854 H   0  0  0  0  0  0  0  0  0  0  0  0
  1  6  2  0
  2  3  2  0
  2  1  1  0
  3  4  1  0
  4  5  2  0
  5  7  1  0
  6  5  1  0
  7  9  1  0
  7  8  1  0
 10  7  1  0
 11 12  1  0
 11  1  1  0
 13 11  1  0
 13 12  1  0
  2 14  1  0
  3 15  1  0
 11 16  1  6
 12 17  1  0
 12 18  1  0
 13 19  1  6
 20 21  1  0
 21 22  1  0
 22 23  1  0
 23 24  1  0
 24 25  1  0
 25 20  1  0
 20 26  1  0
 21 27  1  0
 21 28  1  0
 22 29  1  0
 22 30  1  0
 23 31  1  0
 23 32  1  0
 24 33  1  0
 24 34  1  0
 25 35  1  0
 25 36  1  0
 13 20  1  0
M  ISO  6  14  14  15  14  16  13  17  13  18  13  19  13
M  END
>  <DihAtoms>  (1) 
10,12,19,20

>  <DihDeg>  (1) 
-59.99748515956114

$$$$
