
 OpenBabel03252508263D

 38 42  0  0  1  0  0  0  0  0999 V2000
   46.3280   32.3670   46.1140 C   0  0  1  0  0  0  0  0  0  0  0  0
   46.7210   32.4610   47.5260 C   0  0  0  0  0  0  0  0  0  0  0  0
   45.3940   31.7520   47.0350 C   0  0  2  0  0  0  0  0  0  0  0  0
   47.2050   31.8350   45.5950 H   0  0  0  0  0  0  0  0  0  0  0  0
   47.3860   31.7480   48.0430 H   0  0  0  0  0  0  0  0  0  0  0  0
   46.6080   33.4060   48.0820 H   0  0  0  0  0  0  0  0  0  0  0  0
   44.6160   32.3210   47.6210 H   0  0  0  0  0  0  0  0  0  0  0  0
   45.2260   30.3100   47.2350 C   0  0  0  0  0  0  0  0  0  0  0  0
   45.1290   29.6450   48.4190 C   0  0  0  0  0  0  0  0  0  0  0  0
   45.0950   28.2660   48.5760 C   0  0  0  0  0  0  0  0  0  0  0  0
   45.1690   27.5040   47.3990 C   0  0  0  0  0  0  0  0  0  0  0  0
   45.2650   28.1540   46.1740 C   0  0  0  0  0  0  0  0  0  0  0  0
   45.2790   27.3690   45.0350 C   0  0  0  0  0  0  0  0  0  0  0  0
   45.3070   27.9840   43.7930 C   0  0  0  0  0  0  0  0  0  0  0  0
   45.3210   29.3560   43.6820 C   0  0  0  0  0  0  0  0  0  0  0  0
   45.3090   30.0960   44.8420 C   0  0  0  0  0  0  0  0  0  0  0  0
   45.2900   29.5360   46.1030 C   0  0  0  0  0  0  0  0  0  0  0  0
   45.0750   30.2760   49.3010 H   0  0  0  0  0  0  0  0  0  0  0  0
   45.0170   27.8050   49.5520 H   0  0  0  0  0  0  0  0  0  0  0  0
   45.1510   26.4250   47.4650 H   0  0  0  0  0  0  0  0  0  0  0  0
   45.2640   26.2850   45.1520 H   0  0  0  0  0  0  0  0  0  0  0  0
   45.3180   27.2570   42.9640 H   0  0  0  0  0  0  0  0  0  0  0  0
   45.3400   29.6380   42.6430 H   0  0  0  0  0  0  0  0  0  0  0  0
   45.2380   31.0890   44.5040 H   0  0  0  0  0  0  0  0  0  0  0  0
   44.6320   35.5200   45.2130 C   0  0  0  0  0  0  0  0  0  0  0  0
   45.0860   35.7500   43.8680 C   0  0  0  0  0  0  0  0  0  0  0  0
   45.9980   34.7790   43.3190 C   0  0  0  0  0  0  0  0  0  0  0  0
   46.3660   33.7510   44.0610 N   0  0  0  0  0  0  0  0  0  0  0  0
   45.9020   33.5740   45.3500 C   0  0  0  0  0  0  0  0  0  0  0  0
   45.0600   34.4380   45.9000 N   0  0  0  0  0  0  0  0  0  0  0  0
   43.9430   36.2530   45.6240 H   0  0  0  0  0  0  0  0  0  0  0  0
   44.7530   36.5990   43.3220 H   0  0  0  0  0  0  0  0  0  0  0  0
   46.4810   34.9920   41.9260 C   0  0  0  0  0  3  0  0  0  0  0  0
   47.9480   35.3160   41.9550 C   0  0  0  0  0  2  0  0  0  0  0  0
   48.6360   35.2410   40.6430 C   0  0  0  0  0  2  0  0  0  0  0  0
   48.3460   33.9770   39.8980 C   0  0  0  0  0  2  0  0  0  0  0  0
   46.8500   33.8530   39.7490 C   0  0  0  0  0  2  0  0  0  0  0  0
   46.1680   33.7910   41.0690 C   0  0  0  0  0  2  0  0  0  0  0  0
  1  4  1  6  0  0  0
  1  3  1  0  0  0  0
  1  2  1  0  0  0  0
  2  5  1  0  0  0  0
  2  6  1  0  0  0  0
  3  8  1  0  0  0  0
  3  2  1  0  0  0  0
  3  7  1  1  0  0  0
  8  9  1  0  0  0  0
  9 10  2  0  0  0  0
  9 18  1  0  0  0  0
 10 19  1  0  0  0  0
 11 20  1  0  0  0  0
 11 10  1  0  0  0  0
 12 11  2  0  0  0  0
 13 21  1  0  0  0  0
 13 12  1  0  0  0  0
 14 13  2  0  0  0  0
 15 14  1  0  0  0  0
 15 16  2  0  0  0  0
 16 17  1  0  0  0  0
 17 12  1  0  0  0  0
 17  8  2  0  0  0  0
 22 14  1  0  0  0  0
 23 15  1  0  0  0  0
 24 16  1  0  0  0  0
 25 31  1  0  0  0  0
 25 30  1  0  0  0  0
 26 25  2  0  0  0  0
 27 26  1  0  0  0  0
 27 28  2  0  0  0  0
 28 29  1  0  0  0  0
 29 30  2  0  0  0  0
 29  1  1  0  0  0  0
 32 26  1  0  0  0  0
 33 34  1  0  0  0  0
 33 27  1  0  0  0  0
 35 34  1  0  0  0  0
 36 35  1  0  0  0  0
 37 36  1  0  0  0  0
 37 38  1  0  0  0  0
 38 33  1  0  0  0  0
M  END
>  <minimizedAffinity>
-6.09261036

>  <minimizedRMSD>
0.838039756

$$$$
