
 OpenBabel03252502423D

 21 22  0  0  0  0  0  0  0  0999 V2000
   37.7180   28.3010   43.6790 C   0  0  0  0  0  0  0  0  0  0  0  0
   38.7570   27.9590   43.8780 H   0  0  0  0  0  0  0  0  0  0  0  0
   37.3170   28.7230   44.6040 H   0  0  0  0  0  0  0  0  0  0  0  0
   39.2090   31.0590   41.5950 C   0  0  0  0  0  0  0  0  0  0  0  0
   39.0670   30.0340   42.5410 C   0  0  0  0  0  0  0  0  0  0  0  0
   37.8490   29.3860   42.6740 C   0  0  0  0  0  0  0  0  0  0  0  0
   36.8400   29.7980   41.8570 N   0  0  0  0  0  0  0  0  0  0  0  0
   36.9990   30.7840   40.9570 C   0  0  0  0  0  0  0  0  0  0  0  0
   38.1580   31.4150   40.8160 N   0  0  0  0  0  0  0  0  0  0  0  0
   40.2030   31.4870   41.5850 H   0  0  0  0  0  0  0  0  0  0  0  0
   39.8750   29.7160   43.1830 H   0  0  0  0  0  0  0  0  0  0  0  0
   36.1580   31.0880   40.3160 H   0  0  0  0  0  0  0  0  0  0  0  0
   36.8480   27.2140   43.1070 C   0  0  0  0  0  0  0  0  0  0  0  0
   36.3580   26.6990   43.9510 H   0  0  0  0  0  0  0  0  0  0  0  0
   36.0400   27.6980   42.5230 H   0  0  0  0  0  0  0  0  0  0  0  0
   37.5890   26.2000   42.2810 C   0  0  0  0  0  3  0  0  0  0  0  0
   38.9320   25.9840   42.9170 C   0  0  0  0  0  2  0  0  0  0  0  0
   39.3580   24.5380   42.9130 C   0  0  0  0  0  2  0  0  0  0  0  0
   39.0520   24.0120   41.5120 C   0  0  0  0  0  2  0  0  0  0  0  0
   37.5610   23.8720   41.4180 C   0  0  0  0  0  2  0  0  0  0  0  0
   36.7860   24.9300   42.1200 C   0  0  0  0  0  2  0  0  0  0  0  0
  1  2  1  0  0  0  0
  1  3  1  0  0  0  0
  4  5  1  0  0  0  0
  5  6  2  0  0  0  0
  5 11  1  0  0  0  0
  6  1  1  0  0  0  0
  7  6  1  0  0  0  0
  8  7  2  0  0  0  0
  9  8  1  0  0  0  0
  9  4  2  0  0  0  0
 10  4  1  0  0  0  0
 12  8  1  0  0  0  0
 13  1  1  0  0  0  0
 13 14  1  0  0  0  0
 15 13  1  0  0  0  0
 16 17  1  0  0  0  0
 16 13  1  0  0  0  0
 18 17  1  0  0  0  0
 19 18  1  0  0  0  0
 20 19  1  0  0  0  0
 20 21  1  0  0  0  0
 21 16  1  0  0  0  0
M  END
>  <minimizedAffinity>
-4.65913439

$$$$

 OpenBabel03252502423D

 21 22  0  0  0  0  0  0  0  0999 V2000
   38.8440   29.2900   42.9180 C   0  0  0  0  0  0  0  0  0  0  0  0
   39.5940   28.7250   42.3230 H   0  0  0  0  0  0  0  0  0  0  0  0
   39.3790   29.8780   43.6680 H   0  0  0  0  0  0  0  0  0  0  0  0
   36.2480   30.8550   40.6860 C   0  0  0  0  0  0  0  0  0  0  0  0
   36.8760   29.9900   41.5940 C   0  0  0  0  0  0  0  0  0  0  0  0
   38.1950   30.2160   41.9550 C   0  0  0  0  0  0  0  0  0  0  0  0
   38.8130   31.2900   41.3920 N   0  0  0  0  0  0  0  0  0  0  0  0
   38.1910   32.1060   40.5230 C   0  0  0  0  0  0  0  0  0  0  0  0
   36.9280   31.9050   40.1650 N   0  0  0  0  0  0  0  0  0  0  0  0
   35.2220   30.5770   40.4820 H   0  0  0  0  0  0  0  0  0  0  0  0
   36.3750   29.1410   42.0340 H   0  0  0  0  0  0  0  0  0  0  0  0
   38.7260   32.9630   40.0900 H   0  0  0  0  0  0  0  0  0  0  0  0
   37.7890   28.3980   43.5170 C   0  0  0  0  0  0  0  0  0  0  0  0
   37.6300   28.7210   44.5600 H   0  0  0  0  0  0  0  0  0  0  0  0
   36.8370   28.5910   42.9800 H   0  0  0  0  0  0  0  0  0  0  0  0
   38.1360   26.9360   43.5070 C   0  0  0  0  0  3  0  0  0  0  0  0
   37.5450   26.3340   42.2640 C   0  0  0  0  0  2  0  0  0  0  0  0
   38.4610   25.3360   41.6030 C   0  0  0  0  0  2  0  0  0  0  0  0
   39.0090   24.4560   42.7250 C   0  0  0  0  0  2  0  0  0  0  0  0
   39.9960   25.2910   43.4870 C   0  0  0  0  0  2  0  0  0  0  0  0
   39.6280   26.7250   43.6290 C   0  0  0  0  0  2  0  0  0  0  0  0
  1 13  1  0  0  0  0
  1  3  1  0  0  0  0
  2  1  1  0  0  0  0
  4  5  1  0  0  0  0
  5  6  2  0  0  0  0
  5 11  1  0  0  0  0
  6  1  1  0  0  0  0
  7  6  1  0  0  0  0
  8  7  2  0  0  0  0
  9  8  1  0  0  0  0
  9  4  2  0  0  0  0
 10  4  1  0  0  0  0
 12  8  1  0  0  0  0
 13 14  1  0  0  0  0
 15 13  1  0  0  0  0
 16 13  1  0  0  0  0
 16 21  1  0  0  0  0
 17 16  1  0  0  0  0
 18 17  1  0  0  0  0
 18 19  1  0  0  0  0
 19 20  1  0  0  0  0
 20 21  1  0  0  0  0
M  END
>  <minimizedAffinity>
-4.46427441

$$$$

 OpenBabel03252502423D

 21 22  0  0  0  0  0  0  0  0999 V2000
   35.4340   29.1500   40.3520 C   0  0  0  0  0  0  0  0  0  0  0  0
   35.2740   29.3230   41.4390 H   0  0  0  0  0  0  0  0  0  0  0  0
   34.4580   29.1590   39.8600 H   0  0  0  0  0  0  0  0  0  0  0  0
   37.3250   31.4840   38.0830 C   0  0  0  0  0  0  0  0  0  0  0  0
   36.5840   30.3870   38.5450 C   0  0  0  0  0  0  0  0  0  0  0  0
   36.2190   30.3190   39.8810 C   0  0  0  0  0  0  0  0  0  0  0  0
   36.6140   31.3480   40.6810 N   0  0  0  0  0  0  0  0  0  0  0  0
   37.3250   32.3900   40.2150 C   0  0  0  0  0  0  0  0  0  0  0  0
   37.6830   32.4720   38.9400 N   0  0  0  0  0  0  0  0  0  0  0  0
   37.5490   31.4250   37.0260 H   0  0  0  0  0  0  0  0  0  0  0  0
   36.2770   29.5770   37.9010 H   0  0  0  0  0  0  0  0  0  0  0  0
   37.6250   33.2010   40.8950 H   0  0  0  0  0  0  0  0  0  0  0  0
   36.2190   27.8960   40.0730 C   0  0  0  0  0  0  0  0  0  0  0  0
   35.5010   27.1060   39.7960 H   0  0  0  0  0  0  0  0  0  0  0  0
   36.8450   28.0810   39.1770 H   0  0  0  0  0  0  0  0  0  0  0  0
   37.0480   27.4160   41.2310 C   0  0  0  0  0  3  0  0  0  0  0  0
   38.4780   27.7840   40.9540 C   0  0  0  0  0  2  0  0  0  0  0  0
   39.2050   28.2770   42.1790 C   0  0  0  0  0  2  0  0  0  0  0  0
   38.8410   27.3100   43.3040 C   0  0  0  0  0  2  0  0  0  0  0  0
   37.4170   27.6000   43.6800 C   0  0  0  0  0  2  0  0  0  0  0  0
   36.5290   27.9600   42.5420 C   0  0  0  0  0  2  0  0  0  0  0  0
  1  2  1  0  0  0  0
  3  1  1  0  0  0  0
  4  5  2  0  0  0  0
  4  9  1  0  0  0  0
  5  6  1  0  0  0  0
  6  1  1  0  0  0  0
  6  7  2  0  0  0  0
  8  7  1  0  0  0  0
  8 12  1  0  0  0  0
  9  8  2  0  0  0  0
 10  4  1  0  0  0  0
 11  5  1  0  0  0  0
 13  1  1  0  0  0  0
 13 16  1  0  0  0  0
 14 13  1  0  0  0  0
 15 13  1  0  0  0  0
 16 21  1  0  0  0  0
 17 16  1  0  0  0  0
 17 18  1  0  0  0  0
 18 19  1  0  0  0  0
 19 20  1  0  0  0  0
 21 20  1  0  0  0  0
M  END
>  <minimizedAffinity>
-4.34613276

$$$$

 OpenBabel03252502423D

 21 22  0  0  0  0  0  0  0  0999 V2000
   37.8510   28.4910   42.9570 C   0  0  0  0  0  0  0  0  0  0  0  0
   38.8830   28.1020   42.8210 H   0  0  0  0  0  0  0  0  0  0  0  0
   37.7310   28.7780   44.0040 H   0  0  0  0  0  0  0  0  0  0  0  0
   36.4810   31.1980   40.7280 C   0  0  0  0  0  0  0  0  0  0  0  0
   36.5680   30.0500   41.5270 C   0  0  0  0  0  0  0  0  0  0  0  0
   37.7780   29.7110   42.1130 C   0  0  0  0  0  0  0  0  0  0  0  0
   38.8330   30.5360   41.8680 N   0  0  0  0  0  0  0  0  0  0  0  0
   38.7270   31.6330   41.0980 C   0  0  0  0  0  0  0  0  0  0  0  0
   37.5760   31.9720   40.5290 N   0  0  0  0  0  0  0  0  0  0  0  0
   35.4890   31.3570   40.3270 H   0  0  0  0  0  0  0  0  0  0  0  0
   35.7240   29.4020   41.7140 H   0  0  0  0  0  0  0  0  0  0  0  0
   39.6030   32.2730   40.9250 H   0  0  0  0  0  0  0  0  0  0  0  0
   36.7990   27.5190   42.4930 C   0  0  0  0  0  0  0  0  0  0  0  0
   36.3770   27.0300   43.3870 H   0  0  0  0  0  0  0  0  0  0  0  0
   35.9740   28.1040   42.0360 H   0  0  0  0  0  0  0  0  0  0  0  0
   37.3060   26.4620   41.5530 C   0  0  0  0  0  3  0  0  0  0  0  0
   37.0420   25.1240   42.1820 C   0  0  0  0  0  2  0  0  0  0  0  0
   36.5690   24.0920   41.1900 C   0  0  0  0  0  2  0  0  0  0  0  0
   37.4820   24.2270   39.9730 C   0  0  0  0  0  2  0  0  0  0  0  0
   37.0890   25.4960   39.2750 C   0  0  0  0  0  2  0  0  0  0  0  0
   36.6980   26.6120   40.1770 C   0  0  0  0  0  2  0  0  0  0  0  0
  1  3  1  0  0  0  0
  2  1  1  0  0  0  0
  4  5  1  0  0  0  0
  5 11  1  0  0  0  0
  5  6  2  0  0  0  0
  6  1  1  0  0  0  0
  7  6  1  0  0  0  0
  8  7  2  0  0  0  0
  9  4  2  0  0  0  0
  9  8  1  0  0  0  0
 10  4  1  0  0  0  0
 12  8  1  0  0  0  0
 13  1  1  0  0  0  0
 13 14  1  0  0  0  0
 15 13  1  0  0  0  0
 16 17  1  0  0  0  0
 16 13  1  0  0  0  0
 18 17  1  0  0  0  0
 19 18  1  0  0  0  0
 20 19  1  0  0  0  0
 20 21  1  0  0  0  0
 21 16  1  0  0  0  0
M  END
>  <minimizedAffinity>
-4.22291088

$$$$

 OpenBabel03252502423D

 21 22  0  0  0  0  0  0  0  0999 V2000
   36.5100   27.7670   40.8150 C   0  0  0  0  0  0  0  0  0  0  0  0
   35.5110   27.4580   40.4360 H   0  0  0  0  0  0  0  0  0  0  0  0
   37.2580   27.0940   40.3880 H   0  0  0  0  0  0  0  0  0  0  0  0
   36.6850   31.5210   40.5980 C   0  0  0  0  0  0  0  0  0  0  0  0
   36.4830   30.2240   41.0920 C   0  0  0  0  0  0  0  0  0  0  0  0
   36.7290   29.1320   40.2740 C   0  0  0  0  0  0  0  0  0  0  0  0
   37.1610   29.3950   39.0100 N   0  0  0  0  0  0  0  0  0  0  0  0
   37.3460   30.6470   38.5570 C   0  0  0  0  0  0  0  0  0  0  0  0
   37.1170   31.7050   39.3270 N   0  0  0  0  0  0  0  0  0  0  0  0
   36.4600   32.2880   41.3280 H   0  0  0  0  0  0  0  0  0  0  0  0
   36.1400   30.0290   42.0980 H   0  0  0  0  0  0  0  0  0  0  0  0
   37.6960   30.8170   37.5290 H   0  0  0  0  0  0  0  0  0  0  0  0
   36.5670   27.8270   42.3180 C   0  0  0  0  0  0  0  0  0  0  0  0
   36.8200   28.8630   42.6020 H   0  0  0  0  0  0  0  0  0  0  0  0
   35.5450   27.6360   42.7040 H   0  0  0  0  0  0  0  0  0  0  0  0
   37.5690   26.8940   42.9370 C   0  0  0  0  0  3  0  0  0  0  0  0
   37.6890   25.6920   42.0430 C   0  0  0  0  0  2  0  0  0  0  0  0
   39.1090   25.2090   41.8970 C   0  0  0  0  0  2  0  0  0  0  0  0
   39.7030   25.2100   43.3050 C   0  0  0  0  0  2  0  0  0  0  0  0
   39.9260   26.6460   43.6800 C   0  0  0  0  0  2  0  0  0  0  0  0
   38.8860   27.5910   43.1910 C   0  0  0  0  0  2  0  0  0  0  0  0
  1 13  1  0  0  0  0
  2  1  1  0  0  0  0
  3  1  1  0  0  0  0
  4  5  1  0  0  0  0
  4 10  1  0  0  0  0
  5 11  1  0  0  0  0
  6  1  1  0  0  0  0
  6  5  2  0  0  0  0
  7  6  1  0  0  0  0
  8  7  2  0  0  0  0
  8  9  1  0  0  0  0
  9  4  2  0  0  0  0
 12  8  1  0  0  0  0
 13 14  1  0  0  0  0
 13 15  1  0  0  0  0
 13 16  1  0  0  0  0
 16 21  1  0  0  0  0
 17 16  1  0  0  0  0
 18 17  1  0  0  0  0
 18 19  1  0  0  0  0
 19 20  1  0  0  0  0
 21 20  1  0  0  0  0
M  END
>  <minimizedAffinity>
-4.18667698

$$$$

 OpenBabel03252502423D

 21 22  0  0  0  0  0  0  0  0999 V2000
   39.9390   30.2680   41.2700 C   0  0  0  0  0  0  0  0  0  0  0  0
   39.2240   29.6980   40.6360 H   0  0  0  0  0  0  0  0  0  0  0  0
   40.9180   29.7900   41.1900 H   0  0  0  0  0  0  0  0  0  0  0  0
   39.1550   33.8670   40.4920 C   0  0  0  0  0  0  0  0  0  0  0  0
   39.1000   32.5850   41.0570 C   0  0  0  0  0  0  0  0  0  0  0  0
   40.0120   31.6200   40.6590 C   0  0  0  0  0  0  0  0  0  0  0  0
   40.9280   31.9870   39.7210 N   0  0  0  0  0  0  0  0  0  0  0  0
   40.9610   33.2230   39.1920 C   0  0  0  0  0  0  0  0  0  0  0  0
   40.0960   34.1590   39.5610 N   0  0  0  0  0  0  0  0  0  0  0  0
   38.3930   34.5310   40.8800 H   0  0  0  0  0  0  0  0  0  0  0  0
   38.3680   32.3050   41.8010 H   0  0  0  0  0  0  0  0  0  0  0  0
   41.7170   33.4790   38.4360 H   0  0  0  0  0  0  0  0  0  0  0  0
   39.4680   30.4050   42.6930 C   0  0  0  0  0  0  0  0  0  0  0  0
   40.3540   30.3380   43.3470 H   0  0  0  0  0  0  0  0  0  0  0  0
   39.0620   31.4300   42.8190 H   0  0  0  0  0  0  0  0  0  0  0  0
   38.4700   29.3650   43.1170 C   0  0  0  0  0  3  0  0  0  0  0  0
   37.2450   29.5300   42.2630 C   0  0  0  0  0  2  0  0  0  0  0  0
   36.6470   28.2140   41.8350 C   0  0  0  0  0  2  0  0  0  0  0  0
   36.6290   27.3330   43.0820 C   0  0  0  0  0  2  0  0  0  0  0  0
   38.0500   26.9290   43.3480 C   0  0  0  0  0  2  0  0  0  0  0  0
   39.0640   27.9760   43.0590 C   0  0  0  0  0  2  0  0  0  0  0  0
  1 13  1  0  0  0  0
  2  1  1  0  0  0  0
  3  1  1  0  0  0  0
  4 10  1  0  0  0  0
  4  5  1  0  0  0  0
  5 11  1  0  0  0  0
  6  5  2  0  0  0  0
  6  1  1  0  0  0  0
  7  6  1  0  0  0  0
  8  9  1  0  0  0  0
  8  7  2  0  0  0  0
  9  4  2  0  0  0  0
 12  8  1  0  0  0  0
 13 15  1  0  0  0  0
 13 16  1  0  0  0  0
 13 14  1  0  0  0  0
 17 16  1  0  0  0  0
 18 17  1  0  0  0  0
 18 19  1  0  0  0  0
 19 20  1  0  0  0  0
 21 16  1  0  0  0  0
 21 20  1  0  0  0  0
M  END
>  <minimizedAffinity>
-4.1468029

$$$$

 OpenBabel03252502423D

 21 22  0  0  0  0  0  0  0  0999 V2000
   36.2680   30.7870   40.8850 C   0  0  0  0  0  0  0  0  0  0  0  0
   35.1650   30.6470   40.9210 H   0  0  0  0  0  0  0  0  0  0  0  0
   36.5130   31.6960   41.4400 H   0  0  0  0  0  0  0  0  0  0  0  0
   38.5440   28.6900   43.0280 C   0  0  0  0  0  0  0  0  0  0  0  0
   37.9950   29.7830   42.3430 C   0  0  0  0  0  0  0  0  0  0  0  0
   36.8340   29.6170   41.6040 C   0  0  0  0  0  0  0  0  0  0  0  0
   36.2860   28.3710   41.5900 N   0  0  0  0  0  0  0  0  0  0  0  0
   36.8300   27.3370   42.2540 C   0  0  0  0  0  0  0  0  0  0  0  0
   37.9410   27.4770   42.9670 N   0  0  0  0  0  0  0  0  0  0  0  0
   39.4480   28.9420   43.5670 H   0  0  0  0  0  0  0  0  0  0  0  0
   38.4400   30.7670   42.3610 H   0  0  0  0  0  0  0  0  0  0  0  0
   36.3550   26.3460   42.2170 H   0  0  0  0  0  0  0  0  0  0  0  0
   36.8050   30.7970   39.4790 C   0  0  0  0  0  0  0  0  0  0  0  0
   37.2510   29.8070   39.2840 H   0  0  0  0  0  0  0  0  0  0  0  0
   35.9440   30.8960   38.7870 H   0  0  0  0  0  0  0  0  0  0  0  0
   37.8390   31.8560   39.2200 C   0  0  0  0  0  3  0  0  0  0  0  0
   37.6200   32.9630   40.2110 C   0  0  0  0  0  2  0  0  0  0  0  0
   38.9080   33.5240   40.7590 C   0  0  0  0  0  2  0  0  0  0  0  0
   39.8320   33.7100   39.5570 C   0  0  0  0  0  2  0  0  0  0  0  0
   40.2740   32.3400   39.1330 C   0  0  0  0  0  2  0  0  0  0  0  0
   39.2370   31.2810   39.2570 C   0  0  0  0  0  2  0  0  0  0  0  0
  1  2  1  0  0  0  0
  1  3  1  0  0  0  0
  1  6  1  0  0  0  0
  4 10  1  0  0  0  0
  5 11  1  0  0  0  0
  5  4  2  0  0  0  0
  6  5  1  0  0  0  0
  7  6  2  0  0  0  0
  7  8  1  0  0  0  0
  8  9  2  0  0  0  0
  9  4  1  0  0  0  0
 12  8  1  0  0  0  0
 13  1  1  0  0  0  0
 14 13  1  0  0  0  0
 15 13  1  0  0  0  0
 16 21  1  0  0  0  0
 16 13  1  0  0  0  0
 16 17  1  0  0  0  0
 17 18  1  0  0  0  0
 19 18  1  0  0  0  0
 20 21  1  0  0  0  0
 20 19  1  0  0  0  0
M  END
>  <minimizedAffinity>
-4.07114029

$$$$

 OpenBabel03252502423D

 21 22  0  0  0  0  0  0  0  0999 V2000
   37.2690   28.1310   43.0880 C   0  0  0  0  0  0  0  0  0  0  0  0
   36.5840   28.0810   42.2130 H   0  0  0  0  0  0  0  0  0  0  0  0
   36.6620   28.1320   43.9960 H   0  0  0  0  0  0  0  0  0  0  0  0
   38.3020   24.6100   42.2490 C   0  0  0  0  0  0  0  0  0  0  0  0
   37.5700   25.8040   42.3060 C   0  0  0  0  0  0  0  0  0  0  0  0
   38.0590   26.8740   43.0390 C   0  0  0  0  0  0  0  0  0  0  0  0
   39.2510   26.6940   43.6720 N   0  0  0  0  0  0  0  0  0  0  0  0
   39.9360   25.5390   43.6030 C   0  0  0  0  0  0  0  0  0  0  0  0
   39.4830   24.5040   42.9070 N   0  0  0  0  0  0  0  0  0  0  0  0
   37.8200   23.8490   41.6490 H   0  0  0  0  0  0  0  0  0  0  0  0
   36.6250   25.9350   41.8000 H   0  0  0  0  0  0  0  0  0  0  0  0
   40.8950   25.4340   44.1290 H   0  0  0  0  0  0  0  0  0  0  0  0
   38.2160   29.2990   43.0160 C   0  0  0  0  0  0  0  0  0  0  0  0
   38.0450   29.9240   43.9090 H   0  0  0  0  0  0  0  0  0  0  0  0
   39.2490   28.9050   43.1010 H   0  0  0  0  0  0  0  0  0  0  0  0
   38.0550   30.1510   41.7880 C   0  0  0  0  0  3  0  0  0  0  0  0
   38.9620   29.5990   40.7250 C   0  0  0  0  0  2  0  0  0  0  0  0
   38.3310   29.6000   39.3560 C   0  0  0  0  0  2  0  0  0  0  0  0
   37.6680   30.9680   39.1980 C   0  0  0  0  0  2  0  0  0  0  0  0
   36.4500   30.9630   40.0760 C   0  0  0  0  0  2  0  0  0  0  0  0
   36.6070   30.2340   41.3620 C   0  0  0  0  0  2  0  0  0  0  0  0
  1  3  1  0  0  0  0
  2  1  1  0  0  0  0
  4  5  2  0  0  0  0
  4  9  1  0  0  0  0
  5  6  1  0  0  0  0
  6  1  1  0  0  0  0
  6  7  2  0  0  0  0
  8  7  1  0  0  0  0
  8 12  1  0  0  0  0
  9  8  2  0  0  0  0
 10  4  1  0  0  0  0
 11  5  1  0  0  0  0
 13  1  1  0  0  0  0
 13 15  1  0  0  0  0
 13 14  1  0  0  0  0
 16 13  1  0  0  0  0
 17 16  1  0  0  0  0
 18 17  1  0  0  0  0
 19 18  1  0  0  0  0
 19 20  1  0  0  0  0
 20 21  1  0  0  0  0
 21 16  1  0  0  0  0
M  END
>  <minimizedAffinity>
-4.05810452

$$$$

 OpenBabel03252502423D

 21 22  0  0  0  0  0  0  0  0999 V2000
   39.4850   30.3020   40.8850 C   0  0  0  0  0  0  0  0  0  0  0  0
   40.5070   30.2570   40.4490 H   0  0  0  0  0  0  0  0  0  0  0  0
   39.5740   30.2100   41.9700 H   0  0  0  0  0  0  0  0  0  0  0  0
   37.3230   33.0520   39.4950 C   0  0  0  0  0  0  0  0  0  0  0  0
   37.8150   31.7790   39.8130 C   0  0  0  0  0  0  0  0  0  0  0  0
   38.9780   31.6590   40.5580 C   0  0  0  0  0  0  0  0  0  0  0  0
   39.5840   32.8150   40.9440 N   0  0  0  0  0  0  0  0  0  0  0  0
   39.0930   34.0260   40.6270 C   0  0  0  0  0  0  0  0  0  0  0  0
   37.9810   34.1600   39.9150 N   0  0  0  0  0  0  0  0  0  0  0  0
   36.4120   33.0170   38.9110 H   0  0  0  0  0  0  0  0  0  0  0  0
   37.3260   30.8680   39.5000 H   0  0  0  0  0  0  0  0  0  0  0  0
   39.6130   34.9370   40.9590 H   0  0  0  0  0  0  0  0  0  0  0  0
   38.5540   29.2810   40.2850 C   0  0  0  0  0  0  0  0  0  0  0  0
   37.9570   29.7880   39.5090 H   0  0  0  0  0  0  0  0  0  0  0  0
   39.1730   28.5240   39.7620 H   0  0  0  0  0  0  0  0  0  0  0  0
   37.6230   28.6380   41.2740 C   0  0  0  0  0  3  0  0  0  0  0  0
   37.5440   27.1750   40.9440 C   0  0  0  0  0  2  0  0  0  0  0  0
   37.5360   26.2960   42.1690 C   0  0  0  0  0  2  0  0  0  0  0  0
   36.5520   26.9410   43.1440 C   0  0  0  0  0  2  0  0  0  0  0  0
   37.2190   28.1750   43.6800 C   0  0  0  0  0  2  0  0  0  0  0  0
   38.0540   28.9140   42.6960 C   0  0  0  0  0  2  0  0  0  0  0  0
  1  3  1  0  0  0  0
  2  1  1  0  0  0  0
  4  5  2  0  0  0  0
  4  9  1  0  0  0  0
  5  6  1  0  0  0  0
  6  1  1  0  0  0  0
  6  7  2  0  0  0  0
  8  7  1  0  0  0  0
  8 12  1  0  0  0  0
  9  8  2  0  0  0  0
 10  4  1  0  0  0  0
 11  5  1  0  0  0  0
 13  1  1  0  0  0  0
 13 16  1  0  0  0  0
 14 13  1  0  0  0  0
 15 13  1  0  0  0  0
 16 21  1  0  0  0  0
 17 16  1  0  0  0  0
 17 18  1  0  0  0  0
 18 19  1  0  0  0  0
 19 20  1  0  0  0  0
 21 20  1  0  0  0  0
M  END
>  <minimizedAffinity>
-4.03136635

$$$$
