
     RDKit          3D

 29 30  0  0  0  0  0  0  0  0999 V2000
   45.4423   35.0633   43.9954 C   0  0  0  0  0  0  0  0  0  0  0  0
   46.5012   34.2973   43.5003 C   0  0  0  0  0  0  0  0  0  0  0  0
   47.0133   33.2929   44.3356 C   0  0  0  0  0  0  0  0  0  0  0  0
   46.4604   33.1243   45.5584 N   0  0  0  0  0  0  0  0  0  0  0  0
   45.4279   33.8928   46.0045 C   0  0  0  0  0  0  0  0  0  0  0  0
   44.9204   34.8631   45.2192 N   0  0  0  0  0  0  0  0  0  0  0  0
   44.8994   36.1393   43.0907 C   0  0  0  0  0  0  0  0  0  0  0  0
   46.9385   34.4378   42.5211 H   0  0  0  0  0  0  0  0  0  0  0  0
   47.8399   32.6624   44.0042 H   0  0  0  0  0  0  0  0  0  0  0  0
   44.8038   35.7604   42.0590 H   0  0  0  0  0  0  0  0  0  0  0  0
   43.9352   36.5139   43.4411 H   0  0  0  0  0  0  0  0  0  0  0  0
   45.6581   36.9586   43.0863 H   0  0  0  0  0  0  0  0  0  0  0  0
   44.8995   33.6308   47.3441 C   0  0  0  0  0  0  0  0  0  0  0  0
   44.1585   32.3469   47.4820 C   0  0  0  0  0  0  0  0  0  0  0  0
   44.6516   31.4880   48.6208 C   0  0  0  0  0  0  0  0  0  0  0  0
   44.8733   32.2343   49.9060 C   0  0  0  0  0  0  0  0  0  0  0  0
   45.5765   33.5612   49.7269 C   0  0  0  0  0  0  0  0  0  0  0  0
   46.0846   33.7050   48.3119 C   0  0  0  0  0  0  0  0  0  0  0  0
   44.2669   34.5188   47.6339 H   0  0  0  0  0  0  0  0  0  0  0  0
   43.0527   32.5188   47.5846 H   0  0  0  0  0  0  0  0  0  0  0  0
   44.2590   31.7322   46.5611 H   0  0  0  0  0  0  0  0  0  0  0  0
   43.8539   30.7265   48.8251 H   0  0  0  0  0  0  0  0  0  0  0  0
   45.5250   30.9169   48.2919 H   0  0  0  0  0  0  0  0  0  0  0  0
   43.9676   32.4062   50.4850 H   0  0  0  0  0  0  0  0  0  0  0  0
   45.5710   31.5973   50.5235 H   0  0  0  0  0  0  0  0  0  0  0  0
   46.4466   33.6821   50.4052 H   0  0  0  0  0  0  0  0  0  0  0  0
   44.8886   34.4229   49.9448 H   0  0  0  0  0  0  0  0  0  0  0  0
   46.8512   32.9632   48.0816 H   0  0  0  0  0  0  0  0  0  0  0  0
   46.5175   34.7123   48.1803 H   0  0  0  0  0  0  0  0  0  0  0  0
  1  6  2  0
  2  1  1  0
  2  3  2  0
  3  4  1  0
  4  5  2  0
  6  5  1  0
  7  1  1  0
  2  8  1  0
  3  9  1  0
  7 10  1  0
  7 11  1  0
  7 12  1  0
 13 14  1  0
 14 15  1  0
 15 16  1  0
 16 17  1  0
 17 18  1  0
 18 13  1  0
 13 19  1  0
 14 20  1  0
 14 21  1  0
 15 22  1  0
 15 23  1  0
 16 24  1  0
 16 25  1  0
 17 26  1  0
 17 27  1  0
 18 28  1  0
 18 29  1  0
  5 13  1  0
M  ISO  5   8  14   9  14  10   8  11   8  12   8
M  END
>  <DihAtoms>  (1) 
3,4,12,13

>  <DihDeg>  (1) 
125.23094953198665

$$$$
