
 OpenBabel03252504543D

 18 19  0  0  0  0  0  0  0  0999 V2000
   37.1880   30.7280   37.9140 C   0  0  0  0  0  0  0  0  0  0  0  0
   36.7510   29.9950   39.0440 C   0  0  0  0  0  0  0  0  0  0  0  0
   36.6600   30.6790   40.2530 C   0  0  0  0  0  0  0  0  0  0  0  0
   36.9880   32.0010   40.3030 N   0  0  0  0  0  0  0  0  0  0  0  0
   37.4040   32.6650   39.1840 C   0  0  0  0  0  0  0  0  0  0  0  0
   37.5020   32.0300   38.0020 N   0  0  0  0  0  0  0  0  0  0  0  0
   37.2650   30.2150   36.9690 H   0  0  0  0  0  0  0  0  0  0  0  0
   36.5120   28.9590   38.9210 H   0  0  0  0  0  0  0  0  0  0  0  0
   37.6620   33.7030   39.2230 H   0  0  0  0  0  0  0  0  0  0  0  0
   36.2070   29.9170   41.4150 C   0  0  0  0  0  0  0  0  0  0  0  0
   36.0510   30.6390   42.2430 H   0  0  0  0  0  0  0  0  0  0  0  0
   35.2570   29.3910   41.2590 H   0  0  0  0  0  0  0  0  0  0  0  0
   37.2230   28.9280   41.9180 C   0  0  0  0  0  3  0  0  0  0  0  0
   38.2480   29.5020   42.8490 C   0  0  0  0  0  2  0  0  0  0  0  0
   39.3850   28.4800   42.8910 C   0  0  0  0  0  2  0  0  0  0  0  0
   38.8250   27.2290   43.5120 C   0  0  0  0  0  2  0  0  0  0  0  0
   37.6880   26.6830   42.6820 C   0  0  0  0  0  2  0  0  0  0  0  0
   36.5830   27.7450   42.6170 C   0  0  0  0  0  2  0  0  0  0  0  0
  1  6  2  0  0  0  0
  1  2  1  0  0  0  0
  2  3  2  0  0  0  0
  3  4  1  0  0  0  0
  3 10  1  0  0  0  0
  5  9  1  0  0  0  0
  5  4  2  0  0  0  0
  6  5  1  0  0  0  0
  7  1  1  0  0  0  0
  8  2  1  0  0  0  0
 10 13  1  0  0  0  0
 10 11  1  0  0  0  0
 12 10  1  0  0  0  0
 13 18  1  0  0  0  0
 13 14  1  0  0  0  0
 14 15  1  0  0  0  0
 15 16  1  0  0  0  0
 17 16  1  0  0  0  0
 18 17  1  0  0  0  0
M  END
>  <minimizedAffinity>
-4.23615885

$$$$

 OpenBabel03252504543D

 18 19  0  0  0  0  0  0  0  0999 V2000
   36.9700   31.9230   39.6580 C   0  0  0  0  0  0  0  0  0  0  0  0
   37.4110   30.9210   40.5570 C   0  0  0  0  0  0  0  0  0  0  0  0
   38.5180   31.2160   41.3480 C   0  0  0  0  0  0  0  0  0  0  0  0
   39.1240   32.4310   41.2300 N   0  0  0  0  0  0  0  0  0  0  0  0
   38.6610   33.3650   40.3470 C   0  0  0  0  0  0  0  0  0  0  0  0
   37.5930   33.1090   39.5700 N   0  0  0  0  0  0  0  0  0  0  0  0
   36.1150   31.7120   39.0370 H   0  0  0  0  0  0  0  0  0  0  0  0
   36.8810   29.9930   40.5890 H   0  0  0  0  0  0  0  0  0  0  0  0
   39.1370   34.3190   40.2540 H   0  0  0  0  0  0  0  0  0  0  0  0
   38.9670   30.1780   42.2740 C   0  0  0  0  0  0  0  0  0  0  0  0
   39.9940   29.8850   41.9690 H   0  0  0  0  0  0  0  0  0  0  0  0
   39.0210   30.5080   43.3190 H   0  0  0  0  0  0  0  0  0  0  0  0
   38.1460   28.9200   42.2120 C   0  0  0  0  0  3  0  0  0  0  0  0
   38.8390   27.7500   41.5810 C   0  0  0  0  0  2  0  0  0  0  0  0
   37.7320   26.7510   41.2380 C   0  0  0  0  0  2  0  0  0  0  0  0
   37.1290   26.3020   42.5410 C   0  0  0  0  0  2  0  0  0  0  0  0
   36.5370   27.4730   43.2880 C   0  0  0  0  0  2  0  0  0  0  0  0
   37.6570   28.4790   43.5780 C   0  0  0  0  0  2  0  0  0  0  0  0
  1  2  1  0  0  0  0
  2  8  1  0  0  0  0
  2  3  2  0  0  0  0
  3 10  1  0  0  0  0
  4  3  1  0  0  0  0
  5  4  2  0  0  0  0
  6  1  2  0  0  0  0
  6  5  1  0  0  0  0
  7  1  1  0  0  0  0
  9  5  1  0  0  0  0
 10 12  1  0  0  0  0
 11 10  1  0  0  0  0
 13 10  1  0  0  0  0
 13 18  1  0  0  0  0
 14 13  1  0  0  0  0
 15 14  1  0  0  0  0
 15 16  1  0  0  0  0
 16 17  1  0  0  0  0
 17 18  1  0  0  0  0
M  END
>  <minimizedAffinity>
-4.17463732

$$$$

 OpenBabel03252504543D

 18 19  0  0  0  0  0  0  0  0999 V2000
   38.5320   24.5940   42.3310 C   0  0  0  0  0  0  0  0  0  0  0  0
   37.4930   25.5470   42.1870 C   0  0  0  0  0  0  0  0  0  0  0  0
   37.6560   26.7700   42.8330 C   0  0  0  0  0  0  0  0  0  0  0  0
   38.7820   27.0000   43.5640 N   0  0  0  0  0  0  0  0  0  0  0  0
   39.7560   26.0480   43.6720 C   0  0  0  0  0  0  0  0  0  0  0  0
   39.6280   24.8570   43.0590 N   0  0  0  0  0  0  0  0  0  0  0  0
   38.4240   23.6420   41.8380 H   0  0  0  0  0  0  0  0  0  0  0  0
   36.6400   25.2890   41.5960 H   0  0  0  0  0  0  0  0  0  0  0  0
   40.6410   26.2280   44.2470 H   0  0  0  0  0  0  0  0  0  0  0  0
   36.5810   27.7490   42.6800 C   0  0  0  0  0  0  0  0  0  0  0  0
   35.6340   27.1820   42.5510 H   0  0  0  0  0  0  0  0  0  0  0  0
   36.4500   28.4050   43.5490 H   0  0  0  0  0  0  0  0  0  0  0  0
   36.7170   28.6050   41.4500 C   0  0  0  0  0  3  0  0  0  0  0  0
   35.4270   28.8980   40.7460 C   0  0  0  0  0  2  0  0  0  0  0  0
   35.8210   29.3880   39.3510 C   0  0  0  0  0  2  0  0  0  0  0  0
   36.5670   30.6810   39.5370 C   0  0  0  0  0  2  0  0  0  0  0  0
   37.8110   30.4660   40.3660 C   0  0  0  0  0  2  0  0  0  0  0  0
   37.3910   29.9320   41.7400 C   0  0  0  0  0  2  0  0  0  0  0  0
  1  6  1  0  0  0  0
  2  1  2  0  0  0  0
  2  3  1  0  0  0  0
  3  4  2  0  0  0  0
  4  5  1  0  0  0  0
  5  9  1  0  0  0  0
  6  5  2  0  0  0  0
  7  1  1  0  0  0  0
  8  2  1  0  0  0  0
 10  3  1  0  0  0  0
 10 12  1  0  0  0  0
 11 10  1  0  0  0  0
 13 18  1  0  0  0  0
 13 10  1  0  0  0  0
 14 13  1  0  0  0  0
 15 16  1  0  0  0  0
 15 14  1  0  0  0  0
 16 17  1  0  0  0  0
 17 18  1  0  0  0  0
M  END
>  <minimizedAffinity>
-4.16475773

$$$$

 OpenBabel03252504543D

 18 19  0  0  0  0  0  0  0  0999 V2000
   36.4660   29.0740   38.9530 C   0  0  0  0  0  0  0  0  0  0  0  0
   36.4890   28.1810   40.0520 C   0  0  0  0  0  0  0  0  0  0  0  0
   36.4880   28.7390   41.3280 C   0  0  0  0  0  0  0  0  0  0  0  0
   36.4670   30.0940   41.4680 N   0  0  0  0  0  0  0  0  0  0  0  0
   36.4460   30.9140   40.3760 C   0  0  0  0  0  0  0  0  0  0  0  0
   36.4450   30.4050   39.1310 N   0  0  0  0  0  0  0  0  0  0  0  0
   36.4670   28.6610   37.9570 H   0  0  0  0  0  0  0  0  0  0  0  0
   36.5050   27.1300   39.8570 H   0  0  0  0  0  0  0  0  0  0  0  0
   36.4300   31.9790   40.4870 H   0  0  0  0  0  0  0  0  0  0  0  0
   36.5110   27.8120   42.4570 C   0  0  0  0  0  0  0  0  0  0  0  0
   36.5640   28.4210   43.3840 H   0  0  0  0  0  0  0  0  0  0  0  0
   35.6160   27.1820   42.5330 H   0  0  0  0  0  0  0  0  0  0  0  0
   37.7240   26.9220   42.4810 C   0  0  0  0  0  3  0  0  0  0  0  0
   38.6060   27.1000   43.6800 C   0  0  0  0  0  2  0  0  0  0  0  0
   39.9410   26.4500   43.3090 C   0  0  0  0  0  2  0  0  0  0  0  0
   39.6750   24.9800   43.1260 C   0  0  0  0  0  2  0  0  0  0  0  0
   38.6770   24.7510   42.0160 C   0  0  0  0  0  2  0  0  0  0  0  0
   37.3660   25.4520   42.3920 C   0  0  0  0  0  2  0  0  0  0  0  0
  1  6  2  0  0  0  0
  1  2  1  0  0  0  0
  2  3  2  0  0  0  0
  3  4  1  0  0  0  0
  3 10  1  0  0  0  0
  5  9  1  0  0  0  0
  5  4  2  0  0  0  0
  6  5  1  0  0  0  0
  7  1  1  0  0  0  0
  8  2  1  0  0  0  0
 10 13  1  0  0  0  0
 10 12  1  0  0  0  0
 10 11  1  0  0  0  0
 13 14  1  0  0  0  0
 15 14  1  0  0  0  0
 16 15  1  0  0  0  0
 17 18  1  0  0  0  0
 17 16  1  0  0  0  0
 18 13  1  0  0  0  0
M  END
>  <minimizedAffinity>
-4.12697887

$$$$

 OpenBabel03252504543D

 18 19  0  0  0  0  0  0  0  0999 V2000
   38.1620   26.0410   41.6850 C   0  0  0  0  0  0  0  0  0  0  0  0
   37.3020   26.8470   40.9000 C   0  0  0  0  0  0  0  0  0  0  0  0
   36.7890   27.9980   41.4920 C   0  0  0  0  0  0  0  0  0  0  0  0
   37.1260   28.2990   42.7770 N   0  0  0  0  0  0  0  0  0  0  0  0
   37.9600   27.4890   43.4940 C   0  0  0  0  0  0  0  0  0  0  0  0
   38.4720   26.3710   42.9480 N   0  0  0  0  0  0  0  0  0  0  0  0
   38.5690   25.1460   41.2430 H   0  0  0  0  0  0  0  0  0  0  0  0
   37.0860   26.5410   39.8980 H   0  0  0  0  0  0  0  0  0  0  0  0
   38.2240   27.7250   44.5040 H   0  0  0  0  0  0  0  0  0  0  0  0
   35.9020   28.8260   40.6760 C   0  0  0  0  0  0  0  0  0  0  0  0
   35.5350   28.1930   39.8410 H   0  0  0  0  0  0  0  0  0  0  0  0
   35.0210   29.1960   41.2140 H   0  0  0  0  0  0  0  0  0  0  0  0
   36.5950   29.9950   40.0320 C   0  0  0  0  0  3  0  0  0  0  0  0
   36.2370   30.2190   38.5940 C   0  0  0  0  0  2  0  0  0  0  0  0
   37.3270   31.1370   38.0360 C   0  0  0  0  0  2  0  0  0  0  0  0
   37.2090   32.4480   38.7660 C   0  0  0  0  0  2  0  0  0  0  0  0
   37.4220   32.2550   40.2490 C   0  0  0  0  0  2  0  0  0  0  0  0
   36.3460   31.2950   40.7720 C   0  0  0  0  0  2  0  0  0  0  0  0
  1  6  1  0  0  0  0
  2  3  1  0  0  0  0
  2  1  2  0  0  0  0
  3  4  2  0  0  0  0
  4  5  1  0  0  0  0
  5  9  1  0  0  0  0
  6  5  2  0  0  0  0
  7  1  1  0  0  0  0
  8  2  1  0  0  0  0
 10 12  1  0  0  0  0
 10  3  1  0  0  0  0
 11 10  1  0  0  0  0
 13 10  1  0  0  0  0
 13 18  1  0  0  0  0
 14 13  1  0  0  0  0
 15 14  1  0  0  0  0
 15 16  1  0  0  0  0
 16 17  1  0  0  0  0
 17 18  1  0  0  0  0
M  END
>  <minimizedAffinity>
-4.12560606

$$$$

 OpenBabel03252504543D

 18 19  0  0  0  0  0  0  0  0999 V2000
   40.3240   31.2160   41.6940 C   0  0  0  0  0  0  0  0  0  0  0  0
   39.8990   30.1700   42.5490 C   0  0  0  0  0  0  0  0  0  0  0  0
   38.5560   29.8060   42.4940 C   0  0  0  0  0  0  0  0  0  0  0  0
   37.7190   30.4560   41.6380 N   0  0  0  0  0  0  0  0  0  0  0  0
   38.1770   31.4600   40.8330 C   0  0  0  0  0  0  0  0  0  0  0  0
   39.4690   31.8320   40.8630 N   0  0  0  0  0  0  0  0  0  0  0  0
   41.3610   31.5110   41.7230 H   0  0  0  0  0  0  0  0  0  0  0  0
   40.6200   29.7100   43.1930 H   0  0  0  0  0  0  0  0  0  0  0  0
   37.5190   31.9700   40.1610 H   0  0  0  0  0  0  0  0  0  0  0  0
   38.1250   28.7250   43.3790 C   0  0  0  0  0  0  0  0  0  0  0  0
   38.7750   28.7560   44.2780 H   0  0  0  0  0  0  0  0  0  0  0  0
   37.0880   28.8220   43.7240 H   0  0  0  0  0  0  0  0  0  0  0  0
   38.3060   27.3540   42.7870 C   0  0  0  0  0  3  0  0  0  0  0  0
   39.3000   26.4910   43.5020 C   0  0  0  0  0  2  0  0  0  0  0  0
   39.6380   25.3600   42.5280 C   0  0  0  0  0  2  0  0  0  0  0  0
   38.3770   24.5660   42.3260 C   0  0  0  0  0  2  0  0  0  0  0  0
   37.2900   25.4310   41.7340 C   0  0  0  0  0  2  0  0  0  0  0  0
   37.0040   26.5820   42.7070 C   0  0  0  0  0  2  0  0  0  0  0  0
  1  7  1  0  0  0  0
  1  2  1  0  0  0  0
  2  8  1  0  0  0  0
  3  2  2  0  0  0  0
  3 10  1  0  0  0  0
  4  3  1  0  0  0  0
  5  6  1  0  0  0  0
  5  4  2  0  0  0  0
  6  1  2  0  0  0  0
  9  5  1  0  0  0  0
 10 12  1  0  0  0  0
 10 11  1  0  0  0  0
 13 10  1  0  0  0  0
 13 14  1  0  0  0  0
 15 14  1  0  0  0  0
 16 15  1  0  0  0  0
 17 16  1  0  0  0  0
 17 18  1  0  0  0  0
 18 13  1  0  0  0  0
M  END
>  <minimizedAffinity>
-4.02708721

$$$$

 OpenBabel03252504543D

 18 19  0  0  0  0  0  0  0  0999 V2000
   37.6000   26.3840   41.7330 C   0  0  0  0  0  0  0  0  0  0  0  0
   36.8000   27.3100   41.0190 C   0  0  0  0  0  0  0  0  0  0  0  0
   36.6340   28.5740   41.5780 C   0  0  0  0  0  0  0  0  0  0  0  0
   37.2340   28.8670   42.7660 N   0  0  0  0  0  0  0  0  0  0  0  0
   37.9960   27.9390   43.4170 C   0  0  0  0  0  0  0  0  0  0  0  0
   38.1750   26.7100   42.9010 N   0  0  0  0  0  0  0  0  0  0  0  0
   37.7400   25.4000   41.3160 H   0  0  0  0  0  0  0  0  0  0  0  0
   36.3630   27.0010   40.0930 H   0  0  0  0  0  0  0  0  0  0  0  0
   38.4670   28.1690   44.3500 H   0  0  0  0  0  0  0  0  0  0  0  0
   35.8080   29.5240   40.8360 C   0  0  0  0  0  0  0  0  0  0  0  0
   34.8130   29.5510   41.3290 H   0  0  0  0  0  0  0  0  0  0  0  0
   36.1990   30.5490   40.8390 H   0  0  0  0  0  0  0  0  0  0  0  0
   35.5500   29.1140   39.4120 C   0  0  0  0  0  3  0  0  0  0  0  0
   34.1020   29.0490   39.0320 C   0  0  0  0  0  2  0  0  0  0  0  0
   34.0520   28.2290   37.7410 C   0  0  0  0  0  2  0  0  0  0  0  0
   34.7850   29.0210   36.6920 C   0  0  0  0  0  2  0  0  0  0  0  0
   36.2240   29.2380   37.0950 C   0  0  0  0  0  2  0  0  0  0  0  0
   36.2440   30.0200   38.4140 C   0  0  0  0  0  2  0  0  0  0  0  0
  1  6  1  0  0  0  0
  2  3  1  0  0  0  0
  2  1  2  0  0  0  0
  3  4  2  0  0  0  0
  4  5  1  0  0  0  0
  5  9  1  0  0  0  0
  6  5  2  0  0  0  0
  7  1  1  0  0  0  0
  8  2  1  0  0  0  0
 10 12  1  0  0  0  0
 10 11  1  0  0  0  0
 10  3  1  0  0  0  0
 13 10  1  0  0  0  0
 14 13  1  0  0  0  0
 15 14  1  0  0  0  0
 16 17  1  0  0  0  0
 16 15  1  0  0  0  0
 17 18  1  0  0  0  0
 18 13  1  0  0  0  0
M  END
>  <minimizedAffinity>
-3.91354752

$$$$

 OpenBabel03252504543D

 18 19  0  0  0  0  0  0  0  0999 V2000
   37.4570   29.5470   37.4840 C   0  0  0  0  0  0  0  0  0  0  0  0
   36.9380   29.7490   38.7870 C   0  0  0  0  0  0  0  0  0  0  0  0
   35.9640   28.8580   39.2310 C   0  0  0  0  0  0  0  0  0  0  0  0
   35.5540   27.8490   38.4130 N   0  0  0  0  0  0  0  0  0  0  0  0
   36.0840   27.6960   37.1630 C   0  0  0  0  0  0  0  0  0  0  0  0
   37.0280   28.5400   36.7070 N   0  0  0  0  0  0  0  0  0  0  0  0
   38.2120   30.2260   37.1230 H   0  0  0  0  0  0  0  0  0  0  0  0
   37.3140   30.5660   39.3670 H   0  0  0  0  0  0  0  0  0  0  0  0
   35.7620   26.9040   36.5210 H   0  0  0  0  0  0  0  0  0  0  0  0
   35.4340   29.0720   40.5760 C   0  0  0  0  0  0  0  0  0  0  0  0
   35.5160   30.1570   40.7950 H   0  0  0  0  0  0  0  0  0  0  0  0
   34.3780   28.7970   40.6860 H   0  0  0  0  0  0  0  0  0  0  0  0
   36.2230   28.3750   41.6510 C   0  0  0  0  0  3  0  0  0  0  0  0
   36.9500   27.1460   41.1970 C   0  0  0  0  0  2  0  0  0  0  0  0
   37.3110   26.3850   42.4740 C   0  0  0  0  0  2  0  0  0  0  0  0
   38.2720   27.2510   43.2420 C   0  0  0  0  0  2  0  0  0  0  0  0
   37.6310   28.5690   43.6050 C   0  0  0  0  0  2  0  0  0  0  0  0
   37.2370   29.2890   42.3090 C   0  0  0  0  0  2  0  0  0  0  0  0
  1  2  1  0  0  0  0
  2  3  2  0  0  0  0
  2  8  1  0  0  0  0
  3 10  1  0  0  0  0
  4  3  1  0  0  0  0
  5  4  2  0  0  0  0
  6  5  1  0  0  0  0
  6  1  2  0  0  0  0
  7  1  1  0  0  0  0
  9  5  1  0  0  0  0
 10 12  1  0  0  0  0
 10 11  1  0  0  0  0
 10 13  1  0  0  0  0
 13 18  1  0  0  0  0
 14 13  1  0  0  0  0
 14 15  1  0  0  0  0
 15 16  1  0  0  0  0
 16 17  1  0  0  0  0
 18 17  1  0  0  0  0
M  END
>  <minimizedAffinity>
-3.83121991

$$$$

 OpenBabel03252504543D

 18 19  0  0  0  0  0  0  0  0999 V2000
   37.0150   27.8080   42.9640 C   0  0  0  0  0  0  0  0  0  0  0  0
   37.3960   29.0890   42.4950 C   0  0  0  0  0  0  0  0  0  0  0  0
   38.7570   29.3800   42.4650 C   0  0  0  0  0  0  0  0  0  0  0  0
   39.6530   28.4410   42.8810 N   0  0  0  0  0  0  0  0  0  0  0  0
   39.2360   27.2190   43.3250 C   0  0  0  0  0  0  0  0  0  0  0  0
   37.9280   26.9090   43.3640 N   0  0  0  0  0  0  0  0  0  0  0  0
   35.9650   27.5640   42.9930 H   0  0  0  0  0  0  0  0  0  0  0  0
   36.6300   29.7690   42.1860 H   0  0  0  0  0  0  0  0  0  0  0  0
   39.9400   26.4820   43.6520 H   0  0  0  0  0  0  0  0  0  0  0  0
   39.1420   30.7030   41.9800 C   0  0  0  0  0  0  0  0  0  0  0  0
   38.9490   31.4250   42.8010 H   0  0  0  0  0  0  0  0  0  0  0  0
   40.2040   30.7880   41.7160 H   0  0  0  0  0  0  0  0  0  0  0  0
   38.3210   31.1790   40.8130 C   0  0  0  0  0  3  0  0  0  0  0  0
   38.4050   32.6510   40.5470 C   0  0  0  0  0  2  0  0  0  0  0  0
   37.2140   32.9760   39.6430 C   0  0  0  0  0  2  0  0  0  0  0  0
   37.4370   32.2450   38.3480 C   0  0  0  0  0  2  0  0  0  0  0  0
   37.5010   30.7540   38.5800 C   0  0  0  0  0  2  0  0  0  0  0  0
   38.6730   30.4610   39.5250 C   0  0  0  0  0  2  0  0  0  0  0  0
  1  7  1  0  0  0  0
  1  6  1  0  0  0  0
  2  1  2  0  0  0  0
  3  2  1  0  0  0  0
  3  4  2  0  0  0  0
  4  5  1  0  0  0  0
  5  6  2  0  0  0  0
  5  9  1  0  0  0  0
  8  2  1  0  0  0  0
 10  3  1  0  0  0  0
 10 11  1  0  0  0  0
 12 10  1  0  0  0  0
 13 10  1  0  0  0  0
 14 13  1  0  0  0  0
 15 14  1  0  0  0  0
 16 17  1  0  0  0  0
 16 15  1  0  0  0  0
 17 18  1  0  0  0  0
 18 13  1  0  0  0  0
M  END
>  <minimizedAffinity>
-3.80051589

$$$$
