
 OpenBabel03252506563D

 35 39  0  0  0  0  0  0  0  0999 V2000
   47.3080   31.3370   45.1910 C   0  0  0  0  0  0  0  0  0  0  0  0
   46.9050   32.6580   45.1250 C   0  0  0  0  0  0  0  0  0  0  0  0
   46.2540   33.3070   46.1600 C   0  0  0  0  0  0  0  0  0  0  0  0
   45.9830   32.6180   47.3370 C   0  0  0  0  0  0  0  0  0  0  0  0
   45.3840   32.9150   48.5250 N   0  0  0  0  0  0  0  0  0  0  0  0
   45.4190   31.8050   49.3010 C   0  0  0  0  0  0  0  0  0  0  0  0
   46.0380   30.8370   48.5880 N   0  0  0  0  0  0  0  0  0  0  0  0
   46.3900   31.3100   47.3880 C   0  0  0  0  0  0  0  0  0  0  0  0
   47.0330   30.6470   46.3780 C   0  0  0  0  0  0  0  0  0  0  0  0
   47.8100   30.8620   44.3730 H   0  0  0  0  0  0  0  0  0  0  0  0
   45.9470   34.3330   46.0960 H   0  0  0  0  0  0  0  0  0  0  0  0
   44.9830   33.8720   48.7340 H   0  0  0  0  0  0  0  0  0  0  0  0
   45.0080   31.7720   50.3010 H   0  0  0  0  0  0  0  0  0  0  0  0
   46.5990   35.1210   42.4010 C   0  0  0  0  0  0  0  0  0  0  0  0
   47.6840   34.8210   41.5940 C   0  0  0  0  0  0  0  0  0  0  0  0
   48.5280   33.7730   41.9790 C   0  0  0  0  0  0  0  0  0  0  0  0
   48.2380   33.0960   43.1330 N   0  0  0  0  0  0  0  0  0  0  0  0
   47.1790   33.4090   43.8950 C   0  0  0  0  0  0  0  0  0  0  0  0
   46.3540   34.4180   43.5400 N   0  0  0  0  0  0  0  0  0  0  0  0
   45.9120   35.9350   42.1390 H   0  0  0  0  0  0  0  0  0  0  0  0
   47.8830   35.3700   40.6970 H   0  0  0  0  0  0  0  0  0  0  0  0
   49.3940   33.4960   41.3810 H   0  0  0  0  0  0  0  0  0  0  0  0
   47.4310   29.2370   46.5280 C   0  0  0  0  0  0  0  0  0  0  0  0
   48.7520   28.8010   46.5460 C   0  0  0  0  0  0  0  0  0  0  0  0
   48.6230   27.4080   46.7050 C   0  0  0  0  0  0  0  0  0  0  0  0
   47.2750   27.1010   46.7720 C   0  0  0  0  0  0  0  0  0  0  0  0
   46.6100   28.2380   46.6590 O   0  0  0  0  0  0  0  0  0  0  0  0
   49.6680   29.3770   46.4600 H   0  0  0  0  0  0  0  0  0  0  0  0
   49.4390   26.7030   46.7670 H   0  0  0  0  0  0  0  0  0  0  0  0
   46.6320   25.7570   46.9380 C   0  0  0  0  0  3  0  0  0  0  0  0
   46.0300   25.5950   48.3020 C   0  0  0  0  0  2  0  0  0  0  0  0
   46.9340   24.8460   49.2540 C   0  0  0  0  0  2  0  0  0  0  0  0
   47.1860   23.4410   48.7650 C   0  0  0  0  0  2  0  0  0  0  0  0
   47.2150   23.3840   47.2660 C   0  0  0  0  0  2  0  0  0  0  0  0
   47.6230   24.6770   46.6110 C   0  0  0  0  0  2  0  0  0  0  0  0
  1  9  1  0  0  0  0
  2  1  2  0  0  0  0
  2  3  1  0  0  0  0
  3  4  2  0  0  0  0
  4  8  1  0  0  0  0
  4  5  1  0  0  0  0
  5 12  1  0  0  0  0
  5  6  1  0  0  0  0
  6 13  1  0  0  0  0
  7  6  2  0  0  0  0
  8  7  1  0  0  0  0
  9 23  1  0  0  0  0
  9  8  2  0  0  0  0
 10  1  1  0  0  0  0
 11  3  1  0  0  0  0
 14 19  1  0  0  0  0
 15 16  1  0  0  0  0
 15 14  2  0  0  0  0
 16 17  2  0  0  0  0
 17 18  1  0  0  0  0
 18  2  1  0  0  0  0
 19 18  2  0  0  0  0
 20 14  1  0  0  0  0
 21 15  1  0  0  0  0
 22 16  1  0  0  0  0
 23 24  2  0  0  0  0
 23 27  1  0  0  0  0
 24 25  1  0  0  0  0
 25 29  1  0  0  0  0
 25 26  2  0  0  0  0
 26 30  1  0  0  0  0
 27 26  1  0  0  0  0
 28 24  1  0  0  0  0
 30 31  1  0  0  0  0
 31 32  1  0  0  0  0
 33 32  1  0  0  0  0
 34 33  1  0  0  0  0
 35 30  1  0  0  0  0
 35 34  1  0  0  0  0
M  END
>  <minimizedAffinity>
-5.5902977

>  <minimizedRMSD>
0.657564342

$$$$
