
 OpenBabel03242511403D

 21 22  0  0  0  0  0  0  0  0999 V2000
   38.9640   29.5740   42.7770 C   0  0  0  0  0  0  0  0  0  0  0  0
   39.5830   30.0110   43.5650 H   0  0  0  0  0  0  0  0  0  0  0  0
   39.5650   28.8690   42.1720 H   0  0  0  0  0  0  0  0  0  0  0  0
   38.5630   32.4920   40.5180 C   0  0  0  0  0  0  0  0  0  0  0  0
   37.2570   32.2850   40.0010 C   0  0  0  0  0  0  0  0  0  0  0  0
   36.5720   31.1600   40.4440 C   0  0  0  0  0  0  0  0  0  0  0  0
   37.1840   30.3480   41.3280 N   0  0  0  0  0  0  0  0  0  0  0  0
   38.4330   30.5720   41.8050 C   0  0  0  0  0  0  0  0  0  0  0  0
   39.1270   31.6450   41.4020 N   0  0  0  0  0  0  0  0  0  0  0  0
   39.0470   33.3770   40.1410 H   0  0  0  0  0  0  0  0  0  0  0  0
   36.8280   32.9810   39.2910 H   0  0  0  0  0  0  0  0  0  0  0  0
   35.5820   30.9470   40.0910 H   0  0  0  0  0  0  0  0  0  0  0  0
   37.7330   28.8650   43.3490 C   0  0  0  0  0  0  0  0  0  0  0  0
   37.3920   29.3160   44.2770 H   0  0  0  0  0  0  0  0  0  0  0  0
   36.9390   28.8880   42.5740 H   0  0  0  0  0  0  0  0  0  0  0  0
   38.1250   27.4060   43.5200 C   0  0  0  0  0  3  0  0  0  0  0  0
   37.3750   26.5000   42.6050 C   0  0  0  0  0  2  0  0  0  0  0  0
   38.2230   25.5190   41.8610 C   0  0  0  0  0  2  0  0  0  0  0  0
   39.2280   24.8190   42.7450 C   0  0  0  0  0  2  0  0  0  0  0  0
   39.9290   25.7780   43.6800 C   0  0  0  0  0  2  0  0  0  0  0  0
   39.6040   27.2050   43.2560 C   0  0  0  0  0  2  0  0  0  0  0  0
  1 13  1  0  0  0  0
  1  2  1  0  0  0  0
  3  1  1  0  0  0  0
  4  9  1  0  0  0  0
  5  6  1  0  0  0  0
  5  4  2  0  0  0  0
  6  7  2  0  0  0  0
  7  8  1  0  0  0  0
  8  1  1  0  0  0  0
  9  8  2  0  0  0  0
 10  4  1  0  0  0  0
 11  5  1  0  0  0  0
 12  6  1  0  0  0  0
 13 16  1  0  0  0  0
 13 14  1  0  0  0  0
 15 13  1  0  0  0  0
 17 16  1  0  0  0  0
 18 17  1  0  0  0  0
 18 19  1  0  0  0  0
 19 20  1  0  0  0  0
 21 16  1  0  0  0  0
 21 20  1  0  0  0  0
M  END
>  <minimizedAffinity>
-4.57543898

$$$$

 OpenBabel03242511403D

 21 22  0  0  0  0  0  0  0  0999 V2000
   36.7460   27.8350   40.6670 C   0  0  0  0  0  0  0  0  0  0  0  0
   37.6320   27.2260   40.4770 H   0  0  0  0  0  0  0  0  0  0  0  0
   35.8650   27.3860   40.1700 H   0  0  0  0  0  0  0  0  0  0  0  0
   36.9780   30.7770   38.4160 C   0  0  0  0  0  0  0  0  0  0  0  0
   37.0050   31.8540   39.3420 C   0  0  0  0  0  0  0  0  0  0  0  0
   36.9420   31.5290   40.6910 C   0  0  0  0  0  0  0  0  0  0  0  0
   36.8620   30.2270   41.0310 N   0  0  0  0  0  0  0  0  0  0  0  0
   36.8380   29.2210   40.1230 C   0  0  0  0  0  0  0  0  0  0  0  0
   36.8970   29.4920   38.8120 N   0  0  0  0  0  0  0  0  0  0  0  0
   37.0280   31.0860   37.3850 H   0  0  0  0  0  0  0  0  0  0  0  0
   37.0700   32.8780   38.9950 H   0  0  0  0  0  0  0  0  0  0  0  0
   36.9580   32.2960   41.4400 H   0  0  0  0  0  0  0  0  0  0  0  0
   36.4810   28.0020   42.1660 C   0  0  0  0  0  0  0  0  0  0  0  0
   36.6600   29.0180   42.5060 H   0  0  0  0  0  0  0  0  0  0  0  0
   35.4340   27.6900   42.3610 H   0  0  0  0  0  0  0  0  0  0  0  0
   37.3680   26.9870   42.8690 C   0  0  0  0  0  3  0  0  0  0  0  0
   37.2160   25.6110   42.3170 C   0  0  0  0  0  2  0  0  0  0  0  0
   38.5030   24.9130   42.0130 C   0  0  0  0  0  2  0  0  0  0  0  0
   39.5140   25.0270   43.1290 C   0  0  0  0  0  2  0  0  0  0  0  0
   39.5980   26.4330   43.6790 C   0  0  0  0  0  2  0  0  0  0  0  0
   38.8310   27.3700   42.7550 C   0  0  0  0  0  2  0  0  0  0  0  0
  1 13  1  0  0  0  0
  2  1  1  0  0  0  0
  3  1  1  0  0  0  0
  4  9  2  0  0  0  0
  4  5  1  0  0  0  0
  5  6  2  0  0  0  0
  6  7  1  0  0  0  0
  6 12  1  0  0  0  0
  8  1  1  0  0  0  0
  8  7  2  0  0  0  0
  9  8  1  0  0  0  0
 10  4  1  0  0  0  0
 11  5  1  0  0  0  0
 13 15  1  0  0  0  0
 13 14  1  0  0  0  0
 13 16  1  0  0  0  0
 17 16  1  0  0  0  0
 18 17  1  0  0  0  0
 18 19  1  0  0  0  0
 19 20  1  0  0  0  0
 21 16  1  0  0  0  0
 21 20  1  0  0  0  0
M  END
>  <minimizedAffinity>
-4.25319624

$$$$

 OpenBabel03242511403D

 21 22  0  0  0  0  0  0  0  0999 V2000
   39.6850   30.1050   41.0700 C   0  0  0  0  0  0  0  0  0  0  0  0
   40.7350   30.1500   40.7750 H   0  0  0  0  0  0  0  0  0  0  0  0
   39.2190   29.1840   40.6690 H   0  0  0  0  0  0  0  0  0  0  0  0
   37.1010   32.1150   39.3200 C   0  0  0  0  0  0  0  0  0  0  0  0
   37.4810   33.4410   39.6600 C   0  0  0  0  0  0  0  0  0  0  0  0
   38.5990   33.5900   40.4710 C   0  0  0  0  0  0  0  0  0  0  0  0
   39.2460   32.4790   40.8770 N   0  0  0  0  0  0  0  0  0  0  0  0
   38.8590   31.2260   40.5350 C   0  0  0  0  0  0  0  0  0  0  0  0
   37.7860   31.0390   39.7560 N   0  0  0  0  0  0  0  0  0  0  0  0
   36.2280   32.0580   38.6920 H   0  0  0  0  0  0  0  0  0  0  0  0
   36.9120   34.2880   39.2970 H   0  0  0  0  0  0  0  0  0  0  0  0
   38.9380   34.5650   40.7630 H   0  0  0  0  0  0  0  0  0  0  0  0
   39.5180   30.1640   42.5910 C   0  0  0  0  0  0  0  0  0  0  0  0
   40.4640   30.3100   43.1040 H   0  0  0  0  0  0  0  0  0  0  0  0
   38.8040   30.9820   42.8220 H   0  0  0  0  0  0  0  0  0  0  0  0
   38.8310   28.8690   42.9930 C   0  0  0  0  0  3  0  0  0  0  0  0
   37.3450   28.9870   43.0040 C   0  0  0  0  0  2  0  0  0  0  0  0
   36.6250   27.8850   42.2950 C   0  0  0  0  0  2  0  0  0  0  0  0
   37.1430   26.5130   42.6550 C   0  0  0  0  0  2  0  0  0  0  0  0
   38.6530   26.4610   42.6680 C   0  0  0  0  0  2  0  0  0  0  0  0
   39.1960   27.7420   42.0460 C   0  0  0  0  0  2  0  0  0  0  0  0
  1 13  1  0  0  0  0
  2  1  1  0  0  0  0
  3  1  1  0  0  0  0
  4  5  2  0  0  0  0
  4  9  1  0  0  0  0
  5  6  1  0  0  0  0
  6 12  1  0  0  0  0
  6  7  2  0  0  0  0
  8  7  1  0  0  0  0
  8  1  1  0  0  0  0
  9  8  2  0  0  0  0
 10  4  1  0  0  0  0
 11  5  1  0  0  0  0
 13 15  1  0  0  0  0
 13 16  1  0  0  0  0
 13 14  1  0  0  0  0
 16 17  1  0  0  0  0
 18 19  1  0  0  0  0
 18 17  1  0  0  0  0
 19 20  1  0  0  0  0
 21 20  1  0  0  0  0
 21 16  1  0  0  0  0
M  END
>  <minimizedAffinity>
-4.21319771

$$$$

 OpenBabel03242511403D

 21 22  0  0  0  0  0  0  0  0999 V2000
   37.9860   29.9460   40.2950 C   0  0  0  0  0  0  0  0  0  0  0  0
   38.5530   29.3750   41.0340 H   0  0  0  0  0  0  0  0  0  0  0  0
   38.2250   29.5840   39.2760 H   0  0  0  0  0  0  0  0  0  0  0  0
   39.6950   33.2260   40.6070 C   0  0  0  0  0  0  0  0  0  0  0  0
   38.6850   34.1250   40.1710 C   0  0  0  0  0  0  0  0  0  0  0  0
   37.4690   33.5730   39.7900 C   0  0  0  0  0  0  0  0  0  0  0  0
   37.3260   32.2350   39.8590 N   0  0  0  0  0  0  0  0  0  0  0  0
   38.3080   31.4020   40.2790 C   0  0  0  0  0  0  0  0  0  0  0  0
   39.4960   31.8940   40.6550 N   0  0  0  0  0  0  0  0  0  0  0  0
   40.6160   33.7070   40.8890 H   0  0  0  0  0  0  0  0  0  0  0  0
   38.8720   35.1920   40.1410 H   0  0  0  0  0  0  0  0  0  0  0  0
   36.6660   34.1980   39.4510 H   0  0  0  0  0  0  0  0  0  0  0  0
   36.4780   29.8630   40.5470 C   0  0  0  0  0  0  0  0  0  0  0  0
   36.1020   30.7300   41.0830 H   0  0  0  0  0  0  0  0  0  0  0  0
   35.9760   29.7480   39.5640 H   0  0  0  0  0  0  0  0  0  0  0  0
   36.2450   28.5650   41.3020 C   0  0  0  0  0  3  0  0  0  0  0  0
   36.5830   27.3610   40.4920 C   0  0  0  0  0  2  0  0  0  0  0  0
   37.4380   26.3550   41.1940 C   0  0  0  0  0  2  0  0  0  0  0  0
   36.9610   26.0490   42.5940 C   0  0  0  0  0  2  0  0  0  0  0  0
   36.5930   27.3020   43.3560 C   0  0  0  0  0  2  0  0  0  0  0  0
   37.0750   28.5150   42.5700 C   0  0  0  0  0  2  0  0  0  0  0  0
  1 13  1  0  0  0  0
  1  2  1  0  0  0  0
  3  1  1  0  0  0  0
  4  9  1  0  0  0  0
  4 10  1  0  0  0  0
  5  4  2  0  0  0  0
  6  7  2  0  0  0  0
  6  5  1  0  0  0  0
  7  8  1  0  0  0  0
  8  1  1  0  0  0  0
  8  9  2  0  0  0  0
 11  5  1  0  0  0  0
 12  6  1  0  0  0  0
 13 14  1  0  0  0  0
 13 16  1  0  0  0  0
 15 13  1  0  0  0  0
 16 21  1  0  0  0  0
 17 18  1  0  0  0  0
 17 16  1  0  0  0  0
 18 19  1  0  0  0  0
 19 20  1  0  0  0  0
 21 20  1  0  0  0  0
M  END
>  <minimizedAffinity>
-4.15596771

$$$$

 OpenBabel03242511403D

 21 22  0  0  0  0  0  0  0  0999 V2000
   36.9630   27.7240   42.6440 C   0  0  0  0  0  0  0  0  0  0  0  0
   36.0180   27.6110   43.1800 H   0  0  0  0  0  0  0  0  0  0  0  0
   36.7710   27.8390   41.5600 H   0  0  0  0  0  0  0  0  0  0  0  0
   38.4600   24.3370   42.3820 C   0  0  0  0  0  0  0  0  0  0  0  0
   39.6800   24.5000   43.0920 C   0  0  0  0  0  0  0  0  0  0  0  0
   39.9370   25.7560   43.6260 C   0  0  0  0  0  0  0  0  0  0  0  0
   39.0230   26.7290   43.4410 N   0  0  0  0  0  0  0  0  0  0  0  0
   37.8670   26.5430   42.7590 C   0  0  0  0  0  0  0  0  0  0  0  0
   37.5800   25.3460   42.2270 N   0  0  0  0  0  0  0  0  0  0  0  0
   38.3120   23.3460   41.9890 H   0  0  0  0  0  0  0  0  0  0  0  0
   40.3690   23.6720   43.2010 H   0  0  0  0  0  0  0  0  0  0  0  0
   40.8410   25.9440   44.1730 H   0  0  0  0  0  0  0  0  0  0  0  0
   37.7760   28.9120   43.1670 C   0  0  0  0  0  0  0  0  0  0  0  0
   37.3990   29.2830   44.1160 H   0  0  0  0  0  0  0  0  0  0  0  0
   38.8330   28.5870   43.2520 H   0  0  0  0  0  0  0  0  0  0  0  0
   37.7370   29.9670   42.0730 C   0  0  0  0  0  3  0  0  0  0  0  0
   38.9010   29.8760   41.1470 C   0  0  0  0  0  2  0  0  0  0  0  0
   38.5480   29.9080   39.6940 C   0  0  0  0  0  2  0  0  0  0  0  0
   37.5630   31.0000   39.3500 C   0  0  0  0  0  2  0  0  0  0  0  0
   36.4260   31.0740   40.3440 C   0  0  0  0  0  2  0  0  0  0  0  0
   36.4760   29.8430   41.2410 C   0  0  0  0  0  2  0  0  0  0  0  0
  1  8  1  0  0  0  0
  1 13  1  0  0  0  0
  1  2  1  0  0  0  0
  3  1  1  0  0  0  0
  4  5  1  0  0  0  0
  5 11  1  0  0  0  0
  5  6  2  0  0  0  0
  6 12  1  0  0  0  0
  7  6  1  0  0  0  0
  8  7  2  0  0  0  0
  9  4  2  0  0  0  0
  9  8  1  0  0  0  0
 10  4  1  0  0  0  0
 13 15  1  0  0  0  0
 13 14  1  0  0  0  0
 16 13  1  0  0  0  0
 17 16  1  0  0  0  0
 18 17  1  0  0  0  0
 19 18  1  0  0  0  0
 19 20  1  0  0  0  0
 20 21  1  0  0  0  0
 21 16  1  0  0  0  0
M  END
>  <minimizedAffinity>
-4.10560274

$$$$

 OpenBabel03242511403D

 21 22  0  0  0  0  0  0  0  0999 V2000
   36.6400   27.8590   41.9930 C   0  0  0  0  0  0  0  0  0  0  0  0
   36.1370   26.9920   41.5600 H   0  0  0  0  0  0  0  0  0  0  0  0
   36.0920   28.2010   42.8930 H   0  0  0  0  0  0  0  0  0  0  0  0
   36.7210   31.3150   40.6410 C   0  0  0  0  0  0  0  0  0  0  0  0
   36.7810   31.0800   39.2410 C   0  0  0  0  0  0  0  0  0  0  0  0
   36.7930   29.7560   38.8220 C   0  0  0  0  0  0  0  0  0  0  0  0
   36.7440   28.7890   39.7600 N   0  0  0  0  0  0  0  0  0  0  0  0
   36.6870   29.0440   41.0890 C   0  0  0  0  0  0  0  0  0  0  0  0
   36.6750   30.3080   41.5350 N   0  0  0  0  0  0  0  0  0  0  0  0
   36.7160   32.3580   40.9100 H   0  0  0  0  0  0  0  0  0  0  0  0
   36.8190   31.9090   38.5440 H   0  0  0  0  0  0  0  0  0  0  0  0
   36.8370   29.5120   37.7790 H   0  0  0  0  0  0  0  0  0  0  0  0
   38.0980   27.5550   42.3450 C   0  0  0  0  0  0  0  0  0  0  0  0
   38.7960   28.1160   41.7300 H   0  0  0  0  0  0  0  0  0  0  0  0
   38.2410   27.7790   43.4230 H   0  0  0  0  0  0  0  0  0  0  0  0
   38.2670   26.0520   42.1930 C   0  0  0  0  0  3  0  0  0  0  0  0
   36.9820   25.3120   42.3390 C   0  0  0  0  0  2  0  0  0  0  0  0
   36.7160   24.3020   41.2690 C   0  0  0  0  0  2  0  0  0  0  0  0
   37.9100   23.4240   40.9790 C   0  0  0  0  0  2  0  0  0  0  0  0
   39.1920   24.2190   40.8810 C   0  0  0  0  0  2  0  0  0  0  0  0
   38.8480   25.7030   40.8370 C   0  0  0  0  0  2  0  0  0  0  0  0
  1 13  1  0  0  0  0
  1  3  1  0  0  0  0
  2  1  1  0  0  0  0
  4 10  1  0  0  0  0
  4  9  1  0  0  0  0
  5  4  2  0  0  0  0
  6  5  1  0  0  0  0
  6  7  2  0  0  0  0
  7  8  1  0  0  0  0
  8  9  2  0  0  0  0
  8  1  1  0  0  0  0
 11  5  1  0  0  0  0
 12  6  1  0  0  0  0
 13 15  1  0  0  0  0
 14 13  1  0  0  0  0
 16 17  1  0  0  0  0
 16 13  1  0  0  0  0
 18 17  1  0  0  0  0
 19 18  1  0  0  0  0
 20 19  1  0  0  0  0
 21 20  1  0  0  0  0
 21 16  1  0  0  0  0
M  END
>  <minimizedAffinity>
-4.03720522

$$$$

 OpenBabel03242511403D

 21 22  0  0  0  0  0  0  0  0999 V2000
   36.6070   30.3190   41.2470 C   0  0  0  0  0  0  0  0  0  0  0  0
   37.2240   30.8690   40.5330 H   0  0  0  0  0  0  0  0  0  0  0  0
   36.1910   31.0150   42.0010 H   0  0  0  0  0  0  0  0  0  0  0  0
   39.2420   28.4510   43.0760 C   0  0  0  0  0  0  0  0  0  0  0  0
   38.5450   27.2820   43.4820 C   0  0  0  0  0  0  0  0  0  0  0  0
   37.2090   27.1840   43.1150 C   0  0  0  0  0  0  0  0  0  0  0  0
   36.6660   28.1920   42.4030 N   0  0  0  0  0  0  0  0  0  0  0  0
   37.3580   29.2960   42.0310 C   0  0  0  0  0  0  0  0  0  0  0  0
   38.6480   29.4300   42.3650 N   0  0  0  0  0  0  0  0  0  0  0  0
   40.2730   28.4760   43.3880 H   0  0  0  0  0  0  0  0  0  0  0  0
   39.0470   26.5110   44.0530 H   0  0  0  0  0  0  0  0  0  0  0  0
   36.6270   26.3260   43.3900 H   0  0  0  0  0  0  0  0  0  0  0  0
   35.4770   29.5540   40.5520 C   0  0  0  0  0  0  0  0  0  0  0  0
   35.5040   28.4900   40.7720 H   0  0  0  0  0  0  0  0  0  0  0  0
   34.5160   30.0080   40.8700 H   0  0  0  0  0  0  0  0  0  0  0  0
   35.6190   29.8450   39.0670 C   0  0  0  0  0  3  0  0  0  0  0  0
   36.7250   30.7990   38.7710 C   0  0  0  0  0  2  0  0  0  0  0  0
   37.6450   30.3700   37.6740 C   0  0  0  0  0  2  0  0  0  0  0  0
   36.9120   29.8700   36.4520 C   0  0  0  0  0  2  0  0  0  0  0  0
   35.7770   28.9390   36.8110 C   0  0  0  0  0  2  0  0  0  0  0  0
   35.8880   28.5730   38.2860 C   0  0  0  0  0  2  0  0  0  0  0  0
  1  3  1  0  0  0  0
  1  8  1  0  0  0  0
  2  1  1  0  0  0  0
  4 10  1  0  0  0  0
  4  5  1  0  0  0  0
  5 11  1  0  0  0  0
  6 12  1  0  0  0  0
  6  5  2  0  0  0  0
  7  6  1  0  0  0  0
  8  9  1  0  0  0  0
  8  7  2  0  0  0  0
  9  4  2  0  0  0  0
 13 14  1  0  0  0  0
 13 15  1  0  0  0  0
 13  1  1  0  0  0  0
 16 13  1  0  0  0  0
 17 16  1  0  0  0  0
 18 17  1  0  0  0  0
 19 20  1  0  0  0  0
 19 18  1  0  0  0  0
 20 21  1  0  0  0  0
 21 16  1  0  0  0  0
M  END
>  <minimizedAffinity>
-4.00838232

$$$$

 OpenBabel03242511403D

 21 22  0  0  0  0  0  0  0  0999 V2000
   36.6360   27.8710   39.2930 C   0  0  0  0  0  0  0  0  0  0  0  0
   36.4600   27.6190   38.2450 H   0  0  0  0  0  0  0  0  0  0  0  0
   37.6020   28.4030   39.3960 H   0  0  0  0  0  0  0  0  0  0  0  0
   36.6410   24.4190   40.6580 C   0  0  0  0  0  0  0  0  0  0  0  0
   37.0030   24.6410   42.0140 C   0  0  0  0  0  0  0  0  0  0  0  0
   37.2300   25.9560   42.4010 C   0  0  0  0  0  0  0  0  0  0  0  0
   37.0920   26.9260   41.4760 N   0  0  0  0  0  0  0  0  0  0  0  0
   36.7450   26.6830   40.1890 C   0  0  0  0  0  0  0  0  0  0  0  0
   36.5180   25.4300   39.7750 N   0  0  0  0  0  0  0  0  0  0  0  0
   36.4780   23.3840   40.4130 H   0  0  0  0  0  0  0  0  0  0  0  0
   37.0960   23.8100   42.7030 H   0  0  0  0  0  0  0  0  0  0  0  0
   37.5070   26.1890   43.4100 H   0  0  0  0  0  0  0  0  0  0  0  0
   35.5000   28.7180   39.8730 C   0  0  0  0  0  0  0  0  0  0  0  0
   34.5350   28.4620   39.4460 H   0  0  0  0  0  0  0  0  0  0  0  0
   35.5030   28.5790   40.9740 H   0  0  0  0  0  0  0  0  0  0  0  0
   35.8820   30.1680   39.6230 C   0  0  0  0  0  3  0  0  0  0  0  0
   36.2790   30.8810   40.8700 C   0  0  0  0  0  2  0  0  0  0  0  0
   37.5530   31.6570   40.7680 C   0  0  0  0  0  2  0  0  0  0  0  0
   37.6320   32.5000   39.5180 C   0  0  0  0  0  2  0  0  0  0  0  0
   37.1790   31.7410   38.2910 C   0  0  0  0  0  2  0  0  0  0  0  0
   37.0390   30.2670   38.6480 C   0  0  0  0  0  2  0  0  0  0  0  0
  1  3  1  0  0  0  0
  1 13  1  0  0  0  0
  1  8  1  0  0  0  0
  2  1  1  0  0  0  0
  4  5  1  0  0  0  0
  5  6  2  0  0  0  0
  5 11  1  0  0  0  0
  6 12  1  0  0  0  0
  7  6  1  0  0  0  0
  8  7  2  0  0  0  0
  9  8  1  0  0  0  0
  9  4  2  0  0  0  0
 10  4  1  0  0  0  0
 13 15  1  0  0  0  0
 14 13  1  0  0  0  0
 16 13  1  0  0  0  0
 16 17  1  0  0  0  0
 18 17  1  0  0  0  0
 19 18  1  0  0  0  0
 20 21  1  0  0  0  0
 20 19  1  0  0  0  0
 21 16  1  0  0  0  0
M  END
>  <minimizedAffinity>
-3.99459147

$$$$

 OpenBabel03242511403D

 21 22  0  0  0  0  0  0  0  0999 V2000
   35.6660   29.1580   40.6680 C   0  0  0  0  0  0  0  0  0  0  0  0
   35.7620   28.1130   40.9720 H   0  0  0  0  0  0  0  0  0  0  0  0
   34.6180   29.4920   40.7910 H   0  0  0  0  0  0  0  0  0  0  0  0
   35.6590   29.1410   36.9560 C   0  0  0  0  0  0  0  0  0  0  0  0
   36.7610   29.9870   36.6580 C   0  0  0  0  0  0  0  0  0  0  0  0
   37.4550   30.5250   37.7340 C   0  0  0  0  0  0  0  0  0  0  0  0
   37.0450   30.2120   38.9790 N   0  0  0  0  0  0  0  0  0  0  0  0
   35.9890   29.4020   39.2330 C   0  0  0  0  0  0  0  0  0  0  0  0
   35.2920   28.8630   38.2230 N   0  0  0  0  0  0  0  0  0  0  0  0
   35.1570   28.7540   36.0860 H   0  0  0  0  0  0  0  0  0  0  0  0
   37.0340   30.1950   35.6300 H   0  0  0  0  0  0  0  0  0  0  0  0
   38.2970   31.1700   37.5750 H   0  0  0  0  0  0  0  0  0  0  0  0
   36.6090   30.0690   41.4590 C   0  0  0  0  0  0  0  0  0  0  0  0
   37.2860   30.6210   40.8140 H   0  0  0  0  0  0  0  0  0  0  0  0
   35.9840   30.7540   42.0690 H   0  0  0  0  0  0  0  0  0  0  0  0
   37.3430   29.1700   42.4410 C   0  0  0  0  0  3  0  0  0  0  0  0
   36.6410   27.8760   42.6700 C   0  0  0  0  0  2  0  0  0  0  0  0
   37.5130   26.6650   42.5750 C   0  0  0  0  0  2  0  0  0  0  0  0
   38.8100   26.8120   43.3340 C   0  0  0  0  0  2  0  0  0  0  0  0
   39.4590   28.1570   43.0980 C   0  0  0  0  0  2  0  0  0  0  0  0
   38.7420   28.8540   41.9480 C   0  0  0  0  0  2  0  0  0  0  0  0
  1  3  1  0  0  0  0
  1  2  1  0  0  0  0
  1 13  1  0  0  0  0
  4  9  1  0  0  0  0
  5  4  2  0  0  0  0
  5  6  1  0  0  0  0
  6  7  2  0  0  0  0
  7  8  1  0  0  0  0
  8  1  1  0  0  0  0
  9  8  2  0  0  0  0
 10  4  1  0  0  0  0
 11  5  1  0  0  0  0
 12  6  1  0  0  0  0
 13 15  1  0  0  0  0
 13 16  1  0  0  0  0
 14 13  1  0  0  0  0
 16 17  1  0  0  0  0
 18 17  1  0  0  0  0
 18 19  1  0  0  0  0
 20 19  1  0  0  0  0
 21 16  1  0  0  0  0
 21 20  1  0  0  0  0
M  END
>  <minimizedAffinity>
-3.94438958

$$$$
