
 OpenBabel03252506563D

 35 39  0  0  0  0  0  0  0  0999 V2000
   47.2400   31.3820   45.1530 C   0  0  0  0  0  0  0  0  0  0  0  0
   46.8690   32.7140   45.1450 C   0  0  0  0  0  0  0  0  0  0  0  0
   46.2440   33.3360   46.2120 C   0  0  0  0  0  0  0  0  0  0  0  0
   45.9670   32.6070   47.3620 C   0  0  0  0  0  0  0  0  0  0  0  0
   45.3870   32.8690   48.5680 N   0  0  0  0  0  0  0  0  0  0  0  0
   45.4030   31.7290   49.2980 C   0  0  0  0  0  0  0  0  0  0  0  0
   45.9910   30.7760   48.5400 N   0  0  0  0  0  0  0  0  0  0  0  0
   46.3430   31.2880   47.3570 C   0  0  0  0  0  0  0  0  0  0  0  0
   46.9600   30.6520   46.3140 C   0  0  0  0  0  0  0  0  0  0  0  0
   47.7220   30.9290   44.3110 H   0  0  0  0  0  0  0  0  0  0  0  0
   45.9610   34.3710   46.1920 H   0  0  0  0  0  0  0  0  0  0  0  0
   45.0110   33.8260   48.8200 H   0  0  0  0  0  0  0  0  0  0  0  0
   45.0000   31.6650   50.3010 H   0  0  0  0  0  0  0  0  0  0  0  0
   46.5020   35.1740   42.4250 C   0  0  0  0  0  0  0  0  0  0  0  0
   47.6660   34.9980   41.6950 C   0  0  0  0  0  0  0  0  0  0  0  0
   48.5830   34.0360   42.1300 C   0  0  0  0  0  0  0  0  0  0  0  0
   48.2850   33.3150   43.2550 N   0  0  0  0  0  0  0  0  0  0  0  0
   47.1490   33.5080   43.9430 C   0  0  0  0  0  0  0  0  0  0  0  0
   46.2510   34.4330   43.5380 N   0  0  0  0  0  0  0  0  0  0  0  0
   45.7550   35.9180   42.1220 H   0  0  0  0  0  0  0  0  0  0  0  0
   47.8690   35.5780   40.8180 H   0  0  0  0  0  0  0  0  0  0  0  0
   49.5130   33.8570   41.5920 H   0  0  0  0  0  0  0  0  0  0  0  0
   47.3250   29.2270   46.4030 C   0  0  0  0  0  0  0  0  0  0  0  0
   48.6340   28.7670   46.5100 C   0  0  0  0  0  0  0  0  0  0  0  0
   48.4730   27.3690   46.5630 C   0  0  0  0  0  0  0  0  0  0  0  0
   47.1210   27.0830   46.4860 C   0  0  0  0  0  0  0  0  0  0  0  0
   46.4830   28.2380   46.3920 O   0  0  0  0  0  0  0  0  0  0  0  0
   49.5600   29.3300   46.5470 H   0  0  0  0  0  0  0  0  0  0  0  0
   49.2710   26.6470   46.6490 H   0  0  0  0  0  0  0  0  0  0  0  0
   46.4490   25.7440   46.5020 C   0  0  0  0  0  3  0  0  0  0  0  0
   47.4390   24.6250   46.3530 C   0  0  0  0  0  2  0  0  0  0  0  0
   47.5400   24.1220   44.9330 C   0  0  0  0  0  2  0  0  0  0  0  0
   46.2250   23.5470   44.4680 C   0  0  0  0  0  2  0  0  0  0  0  0
   45.0670   24.2780   45.0790 C   0  0  0  0  0  2  0  0  0  0  0  0
   45.3710   25.7030   45.4570 C   0  0  0  0  0  2  0  0  0  0  0  0
  1  9  1  0  0  0  0
  2  1  2  0  0  0  0
  2  3  1  0  0  0  0
  3  4  2  0  0  0  0
  4  5  1  0  0  0  0
  5 12  1  0  0  0  0
  5  6  1  0  0  0  0
  6 13  1  0  0  0  0
  7  6  2  0  0  0  0
  8  4  1  0  0  0  0
  8  7  1  0  0  0  0
  9 23  1  0  0  0  0
  9  8  2  0  0  0  0
 10  1  1  0  0  0  0
 11  3  1  0  0  0  0
 14 19  1  0  0  0  0
 15 16  1  0  0  0  0
 15 14  2  0  0  0  0
 16 17  2  0  0  0  0
 17 18  1  0  0  0  0
 18  2  1  0  0  0  0
 19 18  2  0  0  0  0
 20 14  1  0  0  0  0
 21 15  1  0  0  0  0
 22 16  1  0  0  0  0
 23 24  2  0  0  0  0
 24 28  1  0  0  0  0
 24 25  1  0  0  0  0
 25 29  1  0  0  0  0
 26 30  1  0  0  0  0
 26 25  2  0  0  0  0
 27 23  1  0  0  0  0
 27 26  1  0  0  0  0
 31 30  1  0  0  0  0
 32 31  1  0  0  0  0
 33 32  1  0  0  0  0
 33 34  1  0  0  0  0
 34 35  1  0  0  0  0
 35 30  1  0  0  0  0
M  END
>  <minimizedAffinity>
-5.22233868

>  <minimizedRMSD>
0.158261865

$$$$
