
 OpenBabel03252504123D

 22 23  0  0  0  0  0  0  0  0999 V2000
   37.7160   30.9170   40.7340 C   0  0  0  0  0  0  0  0  0  0  0  0
   38.8400   31.6700   41.0950 C   0  0  0  0  0  0  0  0  0  0  0  0
   39.6170   31.1990   42.1760 C   0  0  0  0  0  0  0  0  0  0  0  0
   39.2370   30.0600   42.7960 N   0  0  0  0  0  0  0  0  0  0  0  0
   38.1440   29.3750   42.4060 C   0  0  0  0  0  0  0  0  0  0  0  0
   37.3840   29.7940   41.3830 N   0  0  0  0  0  0  0  0  0  0  0  0
   40.4870   31.7660   42.4700 H   0  0  0  0  0  0  0  0  0  0  0  0
   37.8660   28.1380   43.1980 C   0  0  0  0  0  3  0  0  0  0  0  0
   36.8830   27.3520   42.4150 C   0  0  0  0  0  2  0  0  0  0  0  0
   37.0150   25.8650   42.5280 C   0  0  0  0  0  2  0  0  0  0  0  0
   38.4430   25.5600   42.0620 C   0  0  0  0  0  2  0  0  0  0  0  0
   39.3480   26.0720   43.1240 C   0  0  0  0  0  2  0  0  0  0  0  0
   39.1610   27.4870   43.5140 C   0  0  0  0  0  2  0  0  0  0  0  0
   39.1740   32.9070   40.3520 C   0  0  0  0  0  0  0  0  0  0  0  0
   40.2270   33.5600   40.9960 F   0  0  0  0  0  0  0  0  0  0  0  0
   39.6400   32.5380   39.1050 F   0  0  0  0  0  0  0  0  0  0  0  0
   38.1600   33.7950   40.2300 F   0  0  0  0  0  0  0  0  0  0  0  0
   36.9760   31.3700   39.7000 O   0  0  0  0  0  0  0  0  0  0  0  0
   36.9690   30.8920   38.3790 C   0  0  0  0  0  0  0  0  0  0  0  0
   38.0920   30.0780   38.2490 F   0  0  0  0  0  0  0  0  0  0  0  0
   35.8030   30.2400   38.1170 F   0  0  0  0  0  0  0  0  0  0  0  0
   37.1890   31.9470   37.5020 F   0  0  0  0  0  0  0  0  0  0  0  0
  1  2  2  0  0  0  0
  1  6  1  0  0  0  0
  2  3  1  0  0  0  0
  3  7  1  0  0  0  0
  3  4  2  0  0  0  0
  5  4  1  0  0  0  0
  5  8  1  0  0  0  0
  6  5  2  0  0  0  0
  8 13  1  0  0  0  0
  9 10  1  0  0  0  0
  9  8  1  0  0  0  0
 11 10  1  0  0  0  0
 11 12  1  0  0  0  0
 12 13  1  0  0  0  0
 14 15  1  0  0  0  0
 14  2  1  0  0  0  0
 16 14  1  0  0  0  0
 17 14  1  0  0  0  0
 18  1  1  0  0  0  0
 19 18  1  0  0  0  0
 20 19  1  0  0  0  0
 21 19  1  0  0  0  0
 22 19  1  0  0  0  0
M  END
>  <minimizedAffinity>
-5.43289185

$$$$

 OpenBabel03252504123D

 22 23  0  0  0  0  0  0  0  0999 V2000
   38.9470   31.3840   41.4290 C   0  0  0  0  0  0  0  0  0  0  0  0
   37.8870   31.9040   40.6760 C   0  0  0  0  0  0  0  0  0  0  0  0
   36.6620   31.2030   40.7090 C   0  0  0  0  0  0  0  0  0  0  0  0
   36.5810   30.0800   41.4570 N   0  0  0  0  0  0  0  0  0  0  0  0
   37.6340   29.6250   42.1620 C   0  0  0  0  0  0  0  0  0  0  0  0
   38.8120   30.2660   42.1540 N   0  0  0  0  0  0  0  0  0  0  0  0
   35.8330   31.5880   40.1350 H   0  0  0  0  0  0  0  0  0  0  0  0
   37.3740   28.3720   42.9350 C   0  0  0  0  0  3  0  0  0  0  0  0
   36.7610   27.4130   41.9830 C   0  0  0  0  0  2  0  0  0  0  0  0
   37.1040   25.9750   42.2130 C   0  0  0  0  0  2  0  0  0  0  0  0
   38.6330   25.9160   42.1270 C   0  0  0  0  0  2  0  0  0  0  0  0
   39.1470   26.5940   43.3460 C   0  0  0  0  0  2  0  0  0  0  0  0
   38.6380   27.9610   43.5940 C   0  0  0  0  0  2  0  0  0  0  0  0
   38.0760   33.1430   39.8870 C   0  0  0  0  0  0  0  0  0  0  0  0
   36.8660   33.4940   39.2840 F   0  0  0  0  0  0  0  0  0  0  0  0
   38.3900   34.1610   40.7670 F   0  0  0  0  0  0  0  0  0  0  0  0
   39.0080   33.0650   38.9080 F   0  0  0  0  0  0  0  0  0  0  0  0
   40.1160   32.0580   41.3950 O   0  0  0  0  0  0  0  0  0  0  0  0
   41.3290   31.6370   40.8250 C   0  0  0  0  0  0  0  0  0  0  0  0
   42.0220   32.7930   40.4730 F   0  0  0  0  0  0  0  0  0  0  0  0
   42.0150   30.8480   41.6980 F   0  0  0  0  0  0  0  0  0  0  0  0
   41.0770   30.9900   39.6210 F   0  0  0  0  0  0  0  0  0  0  0  0
  1  6  1  0  0  0  0
  2  3  1  0  0  0  0
  2  1  2  0  0  0  0
  3  4  2  0  0  0  0
  4  5  1  0  0  0  0
  5  8  1  0  0  0  0
  6  5  2  0  0  0  0
  7  3  1  0  0  0  0
  8 13  1  0  0  0  0
  9 10  1  0  0  0  0
  9  8  1  0  0  0  0
 11 10  1  0  0  0  0
 11 12  1  0  0  0  0
 12 13  1  0  0  0  0
 14  2  1  0  0  0  0
 14 16  1  0  0  0  0
 15 14  1  0  0  0  0
 17 14  1  0  0  0  0
 18  1  1  0  0  0  0
 19 18  1  0  0  0  0
 19 21  1  0  0  0  0
 20 19  1  0  0  0  0
 22 19  1  0  0  0  0
M  END
>  <minimizedAffinity>
-5.3668437

$$$$

 OpenBabel03252504123D

 22 23  0  0  0  0  0  0  0  0999 V2000
   37.3800   29.2610   40.4070 C   0  0  0  0  0  0  0  0  0  0  0  0
   37.9310   30.4210   40.9630 C   0  0  0  0  0  0  0  0  0  0  0  0
   38.5180   30.3120   42.2430 C   0  0  0  0  0  0  0  0  0  0  0  0
   38.5140   29.1070   42.8530 N   0  0  0  0  0  0  0  0  0  0  0  0
   37.9690   28.0220   42.2710 C   0  0  0  0  0  0  0  0  0  0  0  0
   37.4030   28.0900   41.0560 N   0  0  0  0  0  0  0  0  0  0  0  0
   38.9480   31.1960   42.6880 H   0  0  0  0  0  0  0  0  0  0  0  0
   38.0500   26.7690   43.0820 C   0  0  0  0  0  3  0  0  0  0  0  0
   37.6340   25.6630   42.1870 C   0  0  0  0  0  2  0  0  0  0  0  0
   38.3170   24.3530   42.4260 C   0  0  0  0  0  2  0  0  0  0  0  0
   39.8110   24.6510   42.2570 C   0  0  0  0  0  2  0  0  0  0  0  0
   40.2090   25.4710   43.4310 C   0  0  0  0  0  2  0  0  0  0  0  0
   39.4060   26.6880   43.6790 C   0  0  0  0  0  2  0  0  0  0  0  0
   37.8850   31.6970   40.2130 C   0  0  0  0  0  0  0  0  0  0  0  0
   38.4280   32.7140   41.0000 F   0  0  0  0  0  0  0  0  0  0  0  0
   38.7060   31.5690   39.1100 F   0  0  0  0  0  0  0  0  0  0  0  0
   36.6480   32.0960   39.8320 F   0  0  0  0  0  0  0  0  0  0  0  0
   36.8200   29.3690   39.1830 O   0  0  0  0  0  0  0  0  0  0  0  0
   35.4750   29.1590   38.8370 C   0  0  0  0  0  0  0  0  0  0  0  0
   34.7160   29.6020   39.9180 F   0  0  0  0  0  0  0  0  0  0  0  0
   35.1770   29.8050   37.6750 F   0  0  0  0  0  0  0  0  0  0  0  0
   35.2230   27.7950   38.7570 F   0  0  0  0  0  0  0  0  0  0  0  0
  1  2  2  0  0  0  0
  1  6  1  0  0  0  0
  2  3  1  0  0  0  0
  3  7  1  0  0  0  0
  3  4  2  0  0  0  0
  5  4  1  0  0  0  0
  5  8  1  0  0  0  0
  6  5  2  0  0  0  0
  8 13  1  0  0  0  0
  9 10  1  0  0  0  0
  9  8  1  0  0  0  0
 11 10  1  0  0  0  0
 11 12  1  0  0  0  0
 12 13  1  0  0  0  0
 14  2  1  0  0  0  0
 14 15  1  0  0  0  0
 16 14  1  0  0  0  0
 17 14  1  0  0  0  0
 18  1  1  0  0  0  0
 19 18  1  0  0  0  0
 19 20  1  0  0  0  0
 21 19  1  0  0  0  0
 22 19  1  0  0  0  0
M  END
>  <minimizedAffinity>
-5.18825817

$$$$

 OpenBabel03252504123D

 22 23  0  0  0  0  0  0  0  0999 V2000
   37.3640   27.4100   41.4030 C   0  0  0  0  0  0  0  0  0  0  0  0
   36.9560   26.2750   40.6930 C   0  0  0  0  0  0  0  0  0  0  0  0
   36.2730   26.4820   39.4750 C   0  0  0  0  0  0  0  0  0  0  0  0
   36.0530   27.7500   39.0660 N   0  0  0  0  0  0  0  0  0  0  0  0
   36.4670   28.8080   39.7900 C   0  0  0  0  0  0  0  0  0  0  0  0
   37.1190   28.6470   40.9520 N   0  0  0  0  0  0  0  0  0  0  0  0
   35.9500   25.6180   38.9130 H   0  0  0  0  0  0  0  0  0  0  0  0
   36.1420   30.1390   39.1950 C   0  0  0  0  0  3  0  0  0  0  0  0
   36.6210   31.1570   40.1600 C   0  0  0  0  0  2  0  0  0  0  0  0
   37.1250   32.4290   39.5540 C   0  0  0  0  0  2  0  0  0  0  0  0
   38.2610   31.9970   38.6190 C   0  0  0  0  0  2  0  0  0  0  0  0
   37.6180   31.2970   37.4770 C   0  0  0  0  0  2  0  0  0  0  0  0
   36.7040   30.1860   37.8230 C   0  0  0  0  0  2  0  0  0  0  0  0
   37.2460   24.9240   41.2260 C   0  0  0  0  0  0  0  0  0  0  0  0
   36.6670   24.7930   42.4900 F   0  0  0  0  0  0  0  0  0  0  0  0
   36.6210   24.0030   40.4070 F   0  0  0  0  0  0  0  0  0  0  0  0
   38.5610   24.6240   41.3500 F   0  0  0  0  0  0  0  0  0  0  0  0
   38.0180   27.2090   42.5670 O   0  0  0  0  0  0  0  0  0  0  0  0
   39.3830   27.4110   42.8270 C   0  0  0  0  0  0  0  0  0  0  0  0
   39.5000   28.7020   43.3360 F   0  0  0  0  0  0  0  0  0  0  0  0
   39.8510   26.4560   43.6780 F   0  0  0  0  0  0  0  0  0  0  0  0
   40.0850   27.4340   41.6290 F   0  0  0  0  0  0  0  0  0  0  0  0
  1 18  1  0  0  0  0
  2 14  1  0  0  0  0
  2  1  2  0  0  0  0
  3  2  1  0  0  0  0
  4  3  2  0  0  0  0
  4  5  1  0  0  0  0
  5  6  2  0  0  0  0
  6  1  1  0  0  0  0
  7  3  1  0  0  0  0
  8  5  1  0  0  0  0
  8  9  1  0  0  0  0
 10  9  1  0  0  0  0
 11 10  1  0  0  0  0
 12 13  1  0  0  0  0
 12 11  1  0  0  0  0
 13  8  1  0  0  0  0
 14 17  1  0  0  0  0
 14 15  1  0  0  0  0
 16 14  1  0  0  0  0
 18 19  1  0  0  0  0
 19 20  1  0  0  0  0
 19 21  1  0  0  0  0
 22 19  1  0  0  0  0
M  END
>  <minimizedAffinity>
-5.14627314

$$$$

 OpenBabel03252504123D

 22 23  0  0  0  0  0  0  0  0999 V2000
   37.2990   28.9300   39.8400 C   0  0  0  0  0  0  0  0  0  0  0  0
   36.6110   28.2220   38.8480 C   0  0  0  0  0  0  0  0  0  0  0  0
   36.3130   26.8660   39.1060 C   0  0  0  0  0  0  0  0  0  0  0  0
   36.7060   26.3320   40.2830 N   0  0  0  0  0  0  0  0  0  0  0  0
   37.3670   27.0600   41.2030 C   0  0  0  0  0  0  0  0  0  0  0  0
   37.6650   28.3510   40.9910 N   0  0  0  0  0  0  0  0  0  0  0  0
   35.7830   26.3030   38.3520 H   0  0  0  0  0  0  0  0  0  0  0  0
   37.7270   26.3170   42.4490 C   0  0  0  0  0  3  0  0  0  0  0  0
   38.2670   25.0060   42.0120 C   0  0  0  0  0  2  0  0  0  0  0  0
   39.3470   24.4370   42.8780 C   0  0  0  0  0  2  0  0  0  0  0  0
   40.4500   25.5010   42.8820 C   0  0  0  0  0  2  0  0  0  0  0  0
   39.9290   26.6420   43.6790 C   0  0  0  0  0  2  0  0  0  0  0  0
   38.6140   27.1800   43.2660 C   0  0  0  0  0  2  0  0  0  0  0  0
   36.2230   28.8980   37.5880 C   0  0  0  0  0  0  0  0  0  0  0  0
   35.7110   27.9530   36.6970 F   0  0  0  0  0  0  0  0  0  0  0  0
   35.1900   29.7700   37.8770 F   0  0  0  0  0  0  0  0  0  0  0  0
   37.2250   29.5520   36.9550 F   0  0  0  0  0  0  0  0  0  0  0  0
   37.5810   30.2270   39.5900 O   0  0  0  0  0  0  0  0  0  0  0  0
   36.9930   31.3580   40.1800 C   0  0  0  0  0  0  0  0  0  0  0  0
   35.7660   30.9430   40.6920 F   0  0  0  0  0  0  0  0  0  0  0  0
   37.8190   31.8820   41.1280 F   0  0  0  0  0  0  0  0  0  0  0  0
   36.6740   32.2830   39.1930 F   0  0  0  0  0  0  0  0  0  0  0  0
  1  6  1  0  0  0  0
  2  3  1  0  0  0  0
  2  1  2  0  0  0  0
  3  4  2  0  0  0  0
  4  5  1  0  0  0  0
  5  8  1  0  0  0  0
  6  5  2  0  0  0  0
  7  3  1  0  0  0  0
  8 13  1  0  0  0  0
  9  8  1  0  0  0  0
  9 10  1  0  0  0  0
 10 11  1  0  0  0  0
 11 12  1  0  0  0  0
 13 12  1  0  0  0  0
 14 16  1  0  0  0  0
 14  2  1  0  0  0  0
 15 14  1  0  0  0  0
 17 14  1  0  0  0  0
 18  1  1  0  0  0  0
 18 19  1  0  0  0  0
 19 20  1  0  0  0  0
 19 21  1  0  0  0  0
 22 19  1  0  0  0  0
M  END
>  <minimizedAffinity>
-5.05178547

$$$$

 OpenBabel03252504123D

 22 23  0  0  0  0  0  0  0  0999 V2000
   38.1080   29.7050   40.2130 C   0  0  0  0  0  0  0  0  0  0  0  0
   37.1140   29.5400   39.2420 C   0  0  0  0  0  0  0  0  0  0  0  0
   36.2450   28.4360   39.3850 C   0  0  0  0  0  0  0  0  0  0  0  0
   36.4200   27.6100   40.4390 N   0  0  0  0  0  0  0  0  0  0  0  0
   37.3950   27.8160   41.3440 C   0  0  0  0  0  0  0  0  0  0  0  0
   38.2380   28.8550   41.2390 N   0  0  0  0  0  0  0  0  0  0  0  0
   35.4710   28.2920   38.6460 H   0  0  0  0  0  0  0  0  0  0  0  0
   37.4490   26.8080   42.4470 C   0  0  0  0  0  3  0  0  0  0  0  0
   37.4780   25.4770   41.7950 C   0  0  0  0  0  2  0  0  0  0  0  0
   38.2690   24.4290   42.5130 C   0  0  0  0  0  2  0  0  0  0  0  0
   39.6840   25.0070   42.6190 C   0  0  0  0  0  2  0  0  0  0  0  0
   39.6080   26.1200   43.6010 C   0  0  0  0  0  2  0  0  0  0  0  0
   38.5840   27.1540   43.3370 C   0  0  0  0  0  2  0  0  0  0  0  0
   37.0030   30.5020   38.1220 C   0  0  0  0  0  0  0  0  0  0  0  0
   38.2140   30.5420   37.4280 F   0  0  0  0  0  0  0  0  0  0  0  0
   36.0580   30.0170   37.2390 F   0  0  0  0  0  0  0  0  0  0  0  0
   36.7010   31.7720   38.4820 F   0  0  0  0  0  0  0  0  0  0  0  0
   38.9370   30.7620   40.0730 O   0  0  0  0  0  0  0  0  0  0  0  0
   38.9910   31.9180   40.8690 C   0  0  0  0  0  0  0  0  0  0  0  0
   39.8630   32.7960   40.2320 F   0  0  0  0  0  0  0  0  0  0  0  0
   37.7420   32.4340   41.0400 F   0  0  0  0  0  0  0  0  0  0  0  0
   39.6040   31.6200   42.0800 F   0  0  0  0  0  0  0  0  0  0  0  0
  1  6  1  0  0  0  0
  2  3  1  0  0  0  0
  2  1  2  0  0  0  0
  3  4  2  0  0  0  0
  4  5  1  0  0  0  0
  5  8  1  0  0  0  0
  6  5  2  0  0  0  0
  7  3  1  0  0  0  0
  8 13  1  0  0  0  0
  9  8  1  0  0  0  0
  9 10  1  0  0  0  0
 10 11  1  0  0  0  0
 11 12  1  0  0  0  0
 13 12  1  0  0  0  0
 14 17  1  0  0  0  0
 14  2  1  0  0  0  0
 15 14  1  0  0  0  0
 16 14  1  0  0  0  0
 18  1  1  0  0  0  0
 18 19  1  0  0  0  0
 19 21  1  0  0  0  0
 19 22  1  0  0  0  0
 20 19  1  0  0  0  0
M  END
>  <minimizedAffinity>
-5.04155588

$$$$

 OpenBabel03252504123D

 22 23  0  0  0  0  0  0  0  0999 V2000
   38.7730   30.2690   41.4760 C   0  0  0  0  0  0  0  0  0  0  0  0
   40.1470   30.3050   41.2110 C   0  0  0  0  0  0  0  0  0  0  0  0
   40.9160   29.1940   41.6210 C   0  0  0  0  0  0  0  0  0  0  0  0
   40.2910   28.1690   42.2410 N   0  0  0  0  0  0  0  0  0  0  0  0
   38.9640   28.1880   42.4720 C   0  0  0  0  0  0  0  0  0  0  0  0
   38.2030   29.2270   42.0950 N   0  0  0  0  0  0  0  0  0  0  0  0
   41.9780   29.2020   41.4250 H   0  0  0  0  0  0  0  0  0  0  0  0
   38.4330   26.9760   43.1680 C   0  0  0  0  0  3  0  0  0  0  0  0
   37.4320   26.3750   42.2550 C   0  0  0  0  0  2  0  0  0  0  0  0
   37.3380   24.8820   42.3010 C   0  0  0  0  0  2  0  0  0  0  0  0
   38.7470   24.3870   41.9560 C   0  0  0  0  0  2  0  0  0  0  0  0
   39.6040   24.7190   43.1250 C   0  0  0  0  0  2  0  0  0  0  0  0
   39.5820   26.1300   43.5690 C   0  0  0  0  0  2  0  0  0  0  0  0
   40.7400   31.4750   40.5240 C   0  0  0  0  0  0  0  0  0  0  0  0
   40.5030   32.6230   41.2840 F   0  0  0  0  0  0  0  0  0  0  0  0
   42.1100   31.2980   40.4910 F   0  0  0  0  0  0  0  0  0  0  0  0
   40.2680   31.7110   39.2770 F   0  0  0  0  0  0  0  0  0  0  0  0
   38.0410   31.3330   41.0820 O   0  0  0  0  0  0  0  0  0  0  0  0
   37.0220   31.3580   40.1160 C   0  0  0  0  0  0  0  0  0  0  0  0
   36.8580   32.6920   39.7510 F   0  0  0  0  0  0  0  0  0  0  0  0
   37.3430   30.5520   39.0660 F   0  0  0  0  0  0  0  0  0  0  0  0
   35.8160   30.9980   40.7040 F   0  0  0  0  0  0  0  0  0  0  0  0
  1  6  1  0  0  0  0
  2  1  2  0  0  0  0
  2  3  1  0  0  0  0
  3  4  2  0  0  0  0
  4  5  1  0  0  0  0
  5  8  1  0  0  0  0
  6  5  2  0  0  0  0
  7  3  1  0  0  0  0
  8 13  1  0  0  0  0
  9 10  1  0  0  0  0
  9  8  1  0  0  0  0
 11 10  1  0  0  0  0
 11 12  1  0  0  0  0
 12 13  1  0  0  0  0
 14  2  1  0  0  0  0
 14 15  1  0  0  0  0
 16 14  1  0  0  0  0
 17 14  1  0  0  0  0
 18  1  1  0  0  0  0
 19 22  1  0  0  0  0
 19 18  1  0  0  0  0
 20 19  1  0  0  0  0
 21 19  1  0  0  0  0
M  END
>  <minimizedAffinity>
-5.00806618

$$$$

 OpenBabel03252504123D

 22 23  0  0  0  0  0  0  0  0999 V2000
   37.4480   29.4100   41.7840 C   0  0  0  0  0  0  0  0  0  0  0  0
   38.0560   28.3250   42.4270 C   0  0  0  0  0  0  0  0  0  0  0  0
   39.4320   28.4350   42.7250 C   0  0  0  0  0  0  0  0  0  0  0  0
   40.0790   29.5680   42.3750 N   0  0  0  0  0  0  0  0  0  0  0  0
   39.4440   30.5820   41.7570 C   0  0  0  0  0  0  0  0  0  0  0  0
   38.1370   30.5110   41.4590 N   0  0  0  0  0  0  0  0  0  0  0  0
   39.9180   27.6080   43.2200 H   0  0  0  0  0  0  0  0  0  0  0  0
   40.3070   31.7600   41.4410 C   0  0  0  0  0  3  0  0  0  0  0  0
   41.3550   31.2750   40.5100 C   0  0  0  0  0  2  0  0  0  0  0  0
   41.8160   32.2670   39.4900 C   0  0  0  0  0  2  0  0  0  0  0  0
   40.5500   32.6580   38.7190 C   0  0  0  0  0  2  0  0  0  0  0  0
   39.7280   33.4730   39.6510 C   0  0  0  0  0  2  0  0  0  0  0  0
   39.4340   32.8620   40.9660 C   0  0  0  0  0  2  0  0  0  0  0  0
   37.2590   27.1250   42.7690 C   0  0  0  0  0  0  0  0  0  0  0  0
   36.8120   26.5180   41.5940 F   0  0  0  0  0  0  0  0  0  0  0  0
   38.1010   26.2190   43.3860 F   0  0  0  0  0  0  0  0  0  0  0  0
   36.1730   27.3570   43.5440 F   0  0  0  0  0  0  0  0  0  0  0  0
   36.1320   29.3010   41.5020 O   0  0  0  0  0  0  0  0  0  0  0  0
   35.5300   29.2730   40.2330 C   0  0  0  0  0  0  0  0  0  0  0  0
   35.5940   30.5730   39.7370 F   0  0  0  0  0  0  0  0  0  0  0  0
   36.1530   28.3640   39.4330 F   0  0  0  0  0  0  0  0  0  0  0  0
   34.1730   29.0080   40.3700 F   0  0  0  0  0  0  0  0  0  0  0  0
  1  2  1  0  0  0  0
  2  3  2  0  0  0  0
  2 14  1  0  0  0  0
  3  7  1  0  0  0  0
  4  3  1  0  0  0  0
  5  4  2  0  0  0  0
  6  5  1  0  0  0  0
  6  1  2  0  0  0  0
  8  5  1  0  0  0  0
  9  8  1  0  0  0  0
 10  9  1  0  0  0  0
 11 10  1  0  0  0  0
 11 12  1  0  0  0  0
 12 13  1  0  0  0  0
 13  8  1  0  0  0  0
 14 16  1  0  0  0  0
 14 17  1  0  0  0  0
 15 14  1  0  0  0  0
 18  1  1  0  0  0  0
 19 22  1  0  0  0  0
 19 18  1  0  0  0  0
 20 19  1  0  0  0  0
 21 19  1  0  0  0  0
M  END
>  <minimizedAffinity>
-4.97400093

$$$$

 OpenBabel03252504123D

 22 23  0  0  0  0  0  0  0  0999 V2000
   37.1770   26.5460   40.7200 C   0  0  0  0  0  0  0  0  0  0  0  0
   36.8860   27.6980   41.4600 C   0  0  0  0  0  0  0  0  0  0  0  0
   36.0590   28.6680   40.8510 C   0  0  0  0  0  0  0  0  0  0  0  0
   35.6010   28.4330   39.6020 N   0  0  0  0  0  0  0  0  0  0  0  0
   35.9140   27.3060   38.9360 C   0  0  0  0  0  0  0  0  0  0  0  0
   36.6970   26.3640   39.4840 N   0  0  0  0  0  0  0  0  0  0  0  0
   35.8240   29.5630   41.4060 H   0  0  0  0  0  0  0  0  0  0  0  0
   35.3240   27.2050   37.5660 C   0  0  0  0  0  3  0  0  0  0  0  0
   34.4030   28.3580   37.4210 C   0  0  0  0  0  2  0  0  0  0  0  0
   34.3040   28.9300   36.0420 C   0  0  0  0  0  2  0  0  0  0  0  0
   35.7360   29.3370   35.6790 C   0  0  0  0  0  2  0  0  0  0  0  0
   36.4910   28.0730   35.4790 C   0  0  0  0  0  2  0  0  0  0  0  0
   36.4350   27.0960   36.5890 C   0  0  0  0  0  2  0  0  0  0  0  0
   37.4380   27.8620   42.8240 C   0  0  0  0  0  0  0  0  0  0  0  0
   37.2510   29.1820   43.2410 F   0  0  0  0  0  0  0  0  0  0  0  0
   36.6960   27.0690   43.6790 F   0  0  0  0  0  0  0  0  0  0  0  0
   38.7560   27.5810   42.9490 F   0  0  0  0  0  0  0  0  0  0  0  0
   37.9680   25.6200   41.3050 O   0  0  0  0  0  0  0  0  0  0  0  0
   37.5910   24.3560   41.7860 C   0  0  0  0  0  0  0  0  0  0  0  0
   36.2900   24.4880   42.2660 F   0  0  0  0  0  0  0  0  0  0  0  0
   37.7050   23.4210   40.8020 F   0  0  0  0  0  0  0  0  0  0  0  0
   38.3540   24.0370   42.9020 F   0  0  0  0  0  0  0  0  0  0  0  0
  1 18  1  0  0  0  0
  1  2  1  0  0  0  0
  2 14  1  0  0  0  0
  3  7  1  0  0  0  0
  3  2  2  0  0  0  0
  4  3  1  0  0  0  0
  5  6  1  0  0  0  0
  5  4  2  0  0  0  0
  6  1  2  0  0  0  0
  8  5  1  0  0  0  0
  9  8  1  0  0  0  0
 10  9  1  0  0  0  0
 11 10  1  0  0  0  0
 12 11  1  0  0  0  0
 12 13  1  0  0  0  0
 13  8  1  0  0  0  0
 14 17  1  0  0  0  0
 14 15  1  0  0  0  0
 14 16  1  0  0  0  0
 18 19  1  0  0  0  0
 19 20  1  0  0  0  0
 19 22  1  0  0  0  0
 21 19  1  0  0  0  0
M  END
>  <minimizedAffinity>
-4.96102428

$$$$
