
 OpenBabel03252507213D

 41 44  0  0  1  0  0  0  0  0999 V2000
   39.5630   30.1800   39.7520 C   0  0  0  0  0  0  0  0  0  0  0  0
   39.0510   29.4650   38.8150 O   0  0  0  0  0  0  0  0  0  0  0  0
   40.5570   29.6640   40.6610 N   0  0  0  0  0  0  0  0  0  0  0  0
   41.8000   30.2680   41.1330 C   0  0  0  0  0  0  0  0  0  0  0  0
   41.8450   30.2180   42.6540 C   0  0  0  0  0  0  0  0  0  0  0  0
   41.8730   28.7900   43.1070 C   0  0  0  0  0  0  0  0  0  0  0  0
   41.5010   27.8780   41.9780 C   0  0  0  0  0  0  0  0  0  0  0  0
   40.3190   28.3400   41.1620 C   0  0  1  0  0  0  0  0  0  0  0  0
   41.8120   31.3570   40.8900 H   0  0  0  0  0  0  0  0  0  0  0  0
   42.6910   29.7820   40.7360 H   0  0  0  0  0  0  0  0  0  0  0  0
   41.1000   30.8600   43.1380 H   0  0  0  0  0  0  0  0  0  0  0  0
   42.8310   30.7270   42.9050 H   0  0  0  0  0  0  0  0  0  0  0  0
   41.3450   28.6430   44.0460 H   0  0  0  0  0  0  0  0  0  0  0  0
   42.9500   28.5380   43.3400 H   0  0  0  0  0  0  0  0  0  0  0  0
   42.3680   27.6750   41.3120 H   0  0  0  0  0  0  0  0  0  0  0  0
   41.2160   26.8970   42.4160 H   0  0  0  0  0  0  0  0  0  0  0  0
   40.3410   27.6860   40.2590 H   0  0  0  0  0  0  0  0  0  0  0  0
   40.0970   32.5080   40.1180 C   0  0  0  0  0  0  0  0  0  0  0  0
   39.1300   31.5290   39.8900 C   0  0  0  0  0  0  0  0  0  0  0  0
   37.8070   31.8970   39.8030 C   0  0  0  0  0  0  0  0  0  0  0  0
   37.4910   33.2020   39.9420 N   0  0  0  0  0  0  0  0  0  0  0  0
   38.4270   34.1610   40.1640 C   0  0  0  0  0  0  0  0  0  0  0  0
   39.7250   33.7950   40.2500 N   0  0  0  0  0  0  0  0  0  0  0  0
   41.1350   32.4050   40.2230 H   0  0  0  0  0  0  0  0  0  0  0  0
   38.0450   35.1670   40.2570 H   0  0  0  0  0  0  0  0  0  0  0  0
   36.8100   30.8690   39.5720 C   0  0  0  0  0  0  0  0  0  0  0  0
   36.1750   30.2770   40.6230 C   0  0  0  0  0  0  0  0  0  0  0  0
   35.2360   29.3060   40.3790 C   0  0  0  0  0  0  0  0  0  0  0  0
   34.8940   28.8890   39.1010 C   0  0  0  0  0  0  0  0  0  0  0  0
   35.5650   29.5180   38.0740 C   0  0  0  0  0  0  0  0  0  0  0  0
   36.4760   30.4620   38.3450 N   0  0  0  0  0  0  0  0  0  0  0  0
   36.3250   30.4780   41.6680 H   0  0  0  0  0  0  0  0  0  0  0  0
   34.6880   28.7900   41.1820 H   0  0  0  0  0  0  0  0  0  0  0  0
   34.1710   28.1390   38.8500 H   0  0  0  0  0  0  0  0  0  0  0  0
   35.3820   29.2750   37.0340 H   0  0  0  0  0  0  0  0  0  0  0  0
   39.0230   28.0740   41.8220 C   0  0  0  0  0  3  0  0  0  0  0  0
   38.8270   28.4390   43.2340 C   0  0  0  0  0  2  0  0  0  0  0  0
   37.3030   28.5520   43.4200 C   0  0  0  0  0  2  0  0  0  0  0  0
   36.7100   27.1670   43.1520 C   0  0  0  0  0  2  0  0  0  0  0  0
   37.0790   26.6400   41.7930 C   0  0  0  0  0  2  0  0  0  0  0  0
   38.5930   26.6250   41.6690 C   0  0  0  0  0  2  0  0  0  0  0  0
  1 19  1  0  0  0  0
  1  3  1  0  0  0  0
  2  1  2  0  0  0  0
  3  4  1  0  0  0  0
  3  8  1  0  0  0  0
  4  5  1  0  0  0  0
  5 12  1  0  0  0  0
  5  6  1  0  0  0  0
  5 11  1  0  0  0  0
  6 14  1  0  0  0  0
  6 13  1  0  0  0  0
  7 16  1  0  0  0  0
  7  6  1  0  0  0  0
  8 17  1  6  0  0  0
  8 36  1  0  0  0  0
  8  7  1  0  0  0  0
  9  4  1  0  0  0  0
 10  4  1  0  0  0  0
 15  7  1  0  0  0  0
 18 24  1  0  0  0  0
 18 23  1  0  0  0  0
 19 18  2  0  0  0  0
 20 19  1  0  0  0  0
 20 21  2  0  0  0  0
 21 22  1  0  0  0  0
 22 23  2  0  0  0  0
 22 25  1  0  0  0  0
 26 20  1  0  0  0  0
 26 27  1  0  0  0  0
 27 32  1  0  0  0  0
 28 27  2  0  0  0  0
 28 33  1  0  0  0  0
 29 28  1  0  0  0  0
 30 31  1  0  0  0  0
 30 29  2  0  0  0  0
 31 26  2  0  0  0  0
 34 29  1  0  0  0  0
 35 30  1  0  0  0  0
 36 37  1  0  0  0  0
 37 38  1  0  0  0  0
 39 38  1  0  0  0  0
 40 39  1  0  0  0  0
 41 40  1  0  0  0  0
 41 36  1  0  0  0  0
M  END
>  <minimizedAffinity>
-6.45740128

$$$$

 OpenBabel03252507213D

 41 44  0  0  1  0  0  0  0  0999 V2000
   39.8400   29.4710   41.0280 C   0  0  0  0  0  0  0  0  0  0  0  0
   40.7190   30.1970   41.6220 O   0  0  0  0  0  0  0  0  0  0  0  0
   38.7280   28.8780   41.7280 N   0  0  0  0  0  0  0  0  0  0  0  0
   37.3160   28.8080   41.3590 C   0  0  0  0  0  0  0  0  0  0  0  0
   36.8370   27.3660   41.4510 C   0  0  0  0  0  0  0  0  0  0  0  0
   36.9230   26.9000   42.8720 C   0  0  0  0  0  0  0  0  0  0  0  0
   37.7600   27.8440   43.6800 C   0  0  0  0  0  0  0  0  0  0  0  0
   39.0310   28.2910   43.0030 C   0  0  1  0  0  0  0  0  0  0  0  0
   37.1890   29.0750   40.2830 H   0  0  0  0  0  0  0  0  0  0  0  0
   36.6780   29.4340   41.9810 H   0  0  0  0  0  0  0  0  0  0  0  0
   37.2860   26.7040   40.7010 H   0  0  0  0  0  0  0  0  0  0  0  0
   35.7480   27.4290   41.1250 H   0  0  0  0  0  0  0  0  0  0  0  0
   37.1700   25.8440   42.9470 H   0  0  0  0  0  0  0  0  0  0  0  0
   35.8840   26.9850   43.3110 H   0  0  0  0  0  0  0  0  0  0  0  0
   37.1740   28.7280   44.0140 H   0  0  0  0  0  0  0  0  0  0  0  0
   38.0680   27.3140   44.6070 H   0  0  0  0  0  0  0  0  0  0  0  0
   39.3870   29.1430   43.6300 H   0  0  0  0  0  0  0  0  0  0  0  0
   40.4720   28.0190   39.2020 C   0  0  0  0  0  0  0  0  0  0  0  0
   39.9760   29.2520   39.6280 C   0  0  0  0  0  0  0  0  0  0  0  0
   39.6360   30.2010   38.6910 C   0  0  0  0  0  0  0  0  0  0  0  0
   39.7960   29.9010   37.3850 N   0  0  0  0  0  0  0  0  0  0  0  0
   40.2770   28.7030   36.9630 C   0  0  0  0  0  0  0  0  0  0  0  0
   40.6100   27.7750   37.8860 N   0  0  0  0  0  0  0  0  0  0  0  0
   40.7870   27.1970   39.7730 H   0  0  0  0  0  0  0  0  0  0  0  0
   40.3570   28.5880   35.8910 H   0  0  0  0  0  0  0  0  0  0  0  0
   39.1290   31.4810   39.1470 C   0  0  0  0  0  0  0  0  0  0  0  0
   37.7860   31.6990   39.2300 C   0  0  0  0  0  0  0  0  0  0  0  0
   37.3300   32.9190   39.6640 C   0  0  0  0  0  0  0  0  0  0  0  0
   38.1760   33.9570   40.0260 C   0  0  0  0  0  0  0  0  0  0  0  0
   39.5240   33.6850   39.9230 C   0  0  0  0  0  0  0  0  0  0  0  0
   39.9370   32.4850   39.4970 N   0  0  0  0  0  0  0  0  0  0  0  0
   37.0000   31.0090   38.9840 H   0  0  0  0  0  0  0  0  0  0  0  0
   36.2590   33.1590   39.7540 H   0  0  0  0  0  0  0  0  0  0  0  0
   37.8790   34.9270   40.3710 H   0  0  0  0  0  0  0  0  0  0  0  0
   40.2800   34.4190   40.1780 H   0  0  0  0  0  0  0  0  0  0  0  0
   40.1030   27.2740   43.0570 C   0  0  0  0  0  3  0  0  0  0  0  0
   39.8440   25.9650   43.6770 C   0  0  0  0  0  2  0  0  0  0  0  0
   40.9030   25.0160   43.0870 C   0  0  0  0  0  2  0  0  0  0  0  0
   42.2740   25.5400   43.5230 C   0  0  0  0  0  2  0  0  0  0  0  0
   42.4980   26.9680   43.1120 C   0  0  0  0  0  2  0  0  0  0  0  0
   41.3760   27.8220   43.6780 C   0  0  0  0  0  2  0  0  0  0  0  0
  1  2  2  0  0  0  0
  1  3  1  0  0  0  0
  3  8  1  0  0  0  0
  4  5  1  0  0  0  0
  4  3  1  0  0  0  0
  4 10  1  0  0  0  0
  5  6  1  0  0  0  0
  6 13  1  0  0  0  0
  6 14  1  0  0  0  0
  6  7  1  0  0  0  0
  7 15  1  0  0  0  0
  7 16  1  0  0  0  0
  8 36  1  0  0  0  0
  8 17  1  1  0  0  0
  8  7  1  0  0  0  0
  9  4  1  0  0  0  0
 11  5  1  0  0  0  0
 12  5  1  0  0  0  0
 18 19  1  0  0  0  0
 18 24  1  0  0  0  0
 19  1  1  0  0  0  0
 20 26  1  0  0  0  0
 20 19  2  0  0  0  0
 21 20  1  0  0  0  0
 22 21  2  0  0  0  0
 22 23  1  0  0  0  0
 23 18  2  0  0  0  0
 25 22  1  0  0  0  0
 26 27  2  0  0  0  0
 26 31  1  0  0  0  0
 27 28  1  0  0  0  0
 28 33  1  0  0  0  0
 28 29  2  0  0  0  0
 29 34  1  0  0  0  0
 30 29  1  0  0  0  0
 30 35  1  0  0  0  0
 31 30  2  0  0  0  0
 32 27  1  0  0  0  0
 36 37  1  0  0  0  0
 36 41  1  0  0  0  0
 38 39  1  0  0  0  0
 38 37  1  0  0  0  0
 40 39  1  0  0  0  0
 40 41  1  0  0  0  0
M  END
>  <minimizedAffinity>
-6.03335285

$$$$

 OpenBabel03252507213D

 41 44  0  0  1  0  0  0  0  0999 V2000
   39.2350   29.2280   40.4410 C   0  0  0  0  0  0  0  0  0  0  0  0
   40.4380   29.5960   40.7000 O   0  0  0  0  0  0  0  0  0  0  0  0
   38.2620   28.9860   41.4780 N   0  0  0  0  0  0  0  0  0  0  0  0
   36.8620   29.3960   41.5640 C   0  0  0  0  0  0  0  0  0  0  0  0
   35.9940   28.1830   41.8690 C   0  0  0  0  0  0  0  0  0  0  0  0
   36.3560   27.6350   43.2150 C   0  0  0  0  0  0  0  0  0  0  0  0
   37.6580   28.2110   43.6800 C   0  0  0  0  0  0  0  0  0  0  0  0
   38.7340   28.2620   42.6240 C   0  0  1  0  0  0  0  0  0  0  0  0
   36.5060   29.7500   40.5680 H   0  0  0  0  0  0  0  0  0  0  0  0
   36.6840   30.1580   42.3220 H   0  0  0  0  0  0  0  0  0  0  0  0
   35.9520   27.4550   41.0500 H   0  0  0  0  0  0  0  0  0  0  0  0
   34.9400   28.6120   41.8910 H   0  0  0  0  0  0  0  0  0  0  0  0
   36.2580   26.5530   43.2620 H   0  0  0  0  0  0  0  0  0  0  0  0
   35.5880   28.0250   43.9480 H   0  0  0  0  0  0  0  0  0  0  0  0
   37.5220   29.2160   44.1350 H   0  0  0  0  0  0  0  0  0  0  0  0
   38.0460   27.5580   44.4920 H   0  0  0  0  0  0  0  0  0  0  0  0
   39.5200   28.9170   43.0690 H   0  0  0  0  0  0  0  0  0  0  0  0
   38.8760   27.7640   38.5520 C   0  0  0  0  0  0  0  0  0  0  0  0
   38.8570   29.0560   39.0800 C   0  0  0  0  0  0  0  0  0  0  0  0
   38.4750   30.1050   38.2770 C   0  0  0  0  0  0  0  0  0  0  0  0
   38.1290   29.8450   36.9980 N   0  0  0  0  0  0  0  0  0  0  0  0
   38.1440   28.5900   36.4770 C   0  0  0  0  0  0  0  0  0  0  0  0
   38.5210   27.5620   37.2690 N   0  0  0  0  0  0  0  0  0  0  0  0
   39.1480   26.8620   39.0130 H   0  0  0  0  0  0  0  0  0  0  0  0
   37.8450   28.5150   35.4420 H   0  0  0  0  0  0  0  0  0  0  0  0
   38.4660   31.4440   38.8350 C   0  0  0  0  0  0  0  0  0  0  0  0
   37.2880   32.0430   39.1690 C   0  0  0  0  0  0  0  0  0  0  0  0
   37.3050   33.3110   39.6950 C   0  0  0  0  0  0  0  0  0  0  0  0
   38.4760   34.0250   39.9080 C   0  0  0  0  0  0  0  0  0  0  0  0
   39.6390   33.3740   39.5530 C   0  0  0  0  0  0  0  0  0  0  0  0
   39.5880   32.1370   39.0420 N   0  0  0  0  0  0  0  0  0  0  0  0
   36.2990   31.6350   39.0630 H   0  0  0  0  0  0  0  0  0  0  0  0
   36.3900   33.8500   39.9850 H   0  0  0  0  0  0  0  0  0  0  0  0
   38.5510   35.0130   40.3140 H   0  0  0  0  0  0  0  0  0  0  0  0
   40.6130   33.8330   39.6740 H   0  0  0  0  0  0  0  0  0  0  0  0
   39.3810   26.9520   42.3940 C   0  0  0  0  0  3  0  0  0  0  0  0
   38.6520   25.8850   41.6900 C   0  0  0  0  0  2  0  0  0  0  0  0
   39.7360   24.9370   41.1490 C   0  0  0  0  0  2  0  0  0  0  0  0
   40.4740   24.3560   42.3580 C   0  0  0  0  0  2  0  0  0  0  0  0
   41.0460   25.4250   43.2470 C   0  0  0  0  0  2  0  0  0  0  0  0
   39.9240   26.3530   43.6800 C   0  0  0  0  0  2  0  0  0  0  0  0
  1  2  2  0  0  0  0
  1  3  1  0  0  0  0
  3  4  1  0  0  0  0
  3  8  1  0  0  0  0
  4  5  1  0  0  0  0
  4 10  1  0  0  0  0
  5 12  1  0  0  0  0
  5  6  1  0  0  0  0
  6 13  1  0  0  0  0
  6  7  1  0  0  0  0
  6 14  1  0  0  0  0
  7 15  1  0  0  0  0
  7 16  1  0  0  0  0
  8 17  1  1  0  0  0
  8  7  1  0  0  0  0
  9  4  1  0  0  0  0
 11  5  1  0  0  0  0
 18 24  1  0  0  0  0
 18 19  1  0  0  0  0
 19  1  1  0  0  0  0
 20 26  1  0  0  0  0
 20 19  2  0  0  0  0
 21 20  1  0  0  0  0
 22 21  2  0  0  0  0
 22 23  1  0  0  0  0
 23 18  2  0  0  0  0
 25 22  1  0  0  0  0
 26 31  2  0  0  0  0
 26 27  1  0  0  0  0
 27 28  2  0  0  0  0
 28 29  1  0  0  0  0
 28 33  1  0  0  0  0
 29 34  1  0  0  0  0
 30 35  1  0  0  0  0
 30 29  2  0  0  0  0
 31 30  1  0  0  0  0
 32 27  1  0  0  0  0
 36  8  1  0  0  0  0
 36 41  1  0  0  0  0
 37 36  1  0  0  0  0
 38 37  1  0  0  0  0
 38 39  1  0  0  0  0
 39 40  1  0  0  0  0
 40 41  1  0  0  0  0
M  END
>  <minimizedAffinity>
-5.88808298

$$$$

 OpenBabel03252507213D

 41 44  0  0  1  0  0  0  0  0999 V2000
   37.9650   28.0100   39.4760 C   0  0  0  0  0  0  0  0  0  0  0  0
   39.0530   27.9100   38.8000 O   0  0  0  0  0  0  0  0  0  0  0  0
   37.9410   27.9410   40.9160 N   0  0  0  0  0  0  0  0  0  0  0  0
   37.2310   28.7730   41.8840 C   0  0  0  0  0  0  0  0  0  0  0  0
   36.4430   27.8850   42.8370 C   0  0  0  0  0  0  0  0  0  0  0  0
   37.3910   27.0370   43.6290 C   0  0  0  0  0  0  0  0  0  0  0  0
   38.7550   27.0630   43.0090 C   0  0  0  0  0  0  0  0  0  0  0  0
   38.7650   26.9250   41.5080 C   0  0  1  0  0  0  0  0  0  0  0  0
   36.4530   29.3820   41.3650 H   0  0  0  0  0  0  0  0  0  0  0  0
   37.8910   29.4170   42.4630 H   0  0  0  0  0  0  0  0  0  0  0  0
   35.6100   27.3560   42.3600 H   0  0  0  0  0  0  0  0  0  0  0  0
   35.9210   28.6300   43.5210 H   0  0  0  0  0  0  0  0  0  0  0  0
   36.9780   26.0570   43.8550 H   0  0  0  0  0  0  0  0  0  0  0  0
   37.5190   27.5350   44.6350 H   0  0  0  0  0  0  0  0  0  0  0  0
   39.3250   27.9680   43.3130 H   0  0  0  0  0  0  0  0  0  0  0  0
   39.3240   26.1960   43.4090 H   0  0  0  0  0  0  0  0  0  0  0  0
   39.8060   27.1990   41.2170 H   0  0  0  0  0  0  0  0  0  0  0  0
   35.9880   27.0680   38.4540 C   0  0  0  0  0  0  0  0  0  0  0  0
   36.7440   28.1970   38.7700 C   0  0  0  0  0  0  0  0  0  0  0  0
   36.2850   29.4400   38.3950 C   0  0  0  0  0  0  0  0  0  0  0  0
   35.1120   29.5190   37.7310 N   0  0  0  0  0  0  0  0  0  0  0  0
   34.3710   28.4240   37.4210 C   0  0  0  0  0  0  0  0  0  0  0  0
   34.8260   27.2060   37.7900 N   0  0  0  0  0  0  0  0  0  0  0  0
   36.1910   26.0570   38.6500 H   0  0  0  0  0  0  0  0  0  0  0  0
   33.4530   28.6230   36.8880 H   0  0  0  0  0  0  0  0  0  0  0  0
   37.0830   30.6060   38.7220 C   0  0  0  0  0  0  0  0  0  0  0  0
   36.7230   31.4170   39.7580 C   0  0  0  0  0  0  0  0  0  0  0  0
   37.4940   32.5150   40.0480 C   0  0  0  0  0  0  0  0  0  0  0  0
   38.6350   32.8480   39.3330 C   0  0  0  0  0  0  0  0  0  0  0  0
   38.9540   31.9960   38.2970 C   0  0  0  0  0  0  0  0  0  0  0  0
   38.1820   30.9330   38.0390 N   0  0  0  0  0  0  0  0  0  0  0  0
   35.8720   31.3060   40.4040 H   0  0  0  0  0  0  0  0  0  0  0  0
   37.2590   33.2090   40.8700 H   0  0  0  0  0  0  0  0  0  0  0  0
   39.2740   33.6890   39.5140 H   0  0  0  0  0  0  0  0  0  0  0  0
   39.8230   32.1550   37.6690 H   0  0  0  0  0  0  0  0  0  0  0  0
   38.5730   25.5300   41.0550 C   0  0  0  0  0  3  0  0  0  0  0  0
   38.0030   24.5310   41.9730 C   0  0  0  0  0  2  0  0  0  0  0  0
   37.4410   23.4180   41.0690 C   0  0  0  0  0  2  0  0  0  0  0  0
   38.6230   22.8150   40.3060 C   0  0  0  0  0  2  0  0  0  0  0  0
   39.3890   23.8480   39.5270 C   0  0  0  0  0  2  0  0  0  0  0  0
   39.8470   24.9380   40.4790 C   0  0  0  0  0  2  0  0  0  0  0  0
  1  3  1  0  0  0  0
  2  1  2  0  0  0  0
  3  8  1  0  0  0  0
  3  4  1  0  0  0  0
  4 10  1  0  0  0  0
  4  5  1  0  0  0  0
  5 12  1  0  0  0  0
  5  6  1  0  0  0  0
  6 13  1  0  0  0  0
  6 14  1  0  0  0  0
  7 15  1  0  0  0  0
  7 16  1  0  0  0  0
  7  6  1  0  0  0  0
  8 17  1  6  0  0  0
  8  7  1  0  0  0  0
  9  4  1  0  0  0  0
 11  5  1  0  0  0  0
 18 24  1  0  0  0  0
 18 19  1  0  0  0  0
 19  1  1  0  0  0  0
 20 26  1  0  0  0  0
 20 19  2  0  0  0  0
 21 20  1  0  0  0  0
 22 21  2  0  0  0  0
 22 23  1  0  0  0  0
 23 18  2  0  0  0  0
 25 22  1  0  0  0  0
 26 27  1  0  0  0  0
 27 28  2  0  0  0  0
 27 32  1  0  0  0  0
 28 33  1  0  0  0  0
 29 34  1  0  0  0  0
 29 28  1  0  0  0  0
 30 29  2  0  0  0  0
 31 30  1  0  0  0  0
 31 26  2  0  0  0  0
 35 30  1  0  0  0  0
 36  8  1  0  0  0  0
 36 37  1  0  0  0  0
 38 37  1  0  0  0  0
 39 38  1  0  0  0  0
 40 39  1  0  0  0  0
 40 41  1  0  0  0  0
 41 36  1  0  0  0  0
M  END
>  <minimizedAffinity>
-5.73855972

$$$$

 OpenBabel03252507213D

 41 44  0  0  1  0  0  0  0  0999 V2000
   39.2240   29.6010   40.3210 C   0  0  0  0  0  0  0  0  0  0  0  0
   39.9170   29.1410   39.3420 O   0  0  0  0  0  0  0  0  0  0  0  0
   38.6650   28.7480   41.3400 N   0  0  0  0  0  0  0  0  0  0  0  0
   38.6430   28.9080   42.7920 C   0  0  0  0  0  0  0  0  0  0  0  0
   37.2170   28.7490   43.3000 C   0  0  0  0  0  0  0  0  0  0  0  0
   36.7420   27.3550   43.0260 C   0  0  0  0  0  0  0  0  0  0  0  0
   37.6530   26.6770   42.0490 C   0  0  0  0  0  0  0  0  0  0  0  0
   38.0620   27.5300   40.8750 C   0  0  1  0  0  0  0  0  0  0  0  0
   38.9200   29.9550   43.0640 H   0  0  0  0  0  0  0  0  0  0  0  0
   39.2870   28.2010   43.3120 H   0  0  0  0  0  0  0  0  0  0  0  0
   36.5450   29.5550   42.9880 H   0  0  0  0  0  0  0  0  0  0  0  0
   37.3180   28.9140   44.4220 H   0  0  0  0  0  0  0  0  0  0  0  0
   35.6780   27.3160   42.8060 H   0  0  0  0  0  0  0  0  0  0  0  0
   36.8590   26.7700   43.9860 H   0  0  0  0  0  0  0  0  0  0  0  0
   38.5550   26.2610   42.5510 H   0  0  0  0  0  0  0  0  0  0  0  0
   37.1090   25.8040   41.6290 H   0  0  0  0  0  0  0  0  0  0  0  0
   38.8980   26.9620   40.4040 H   0  0  0  0  0  0  0  0  0  0  0  0
   37.7970   31.5100   39.9200 C   0  0  0  0  0  0  0  0  0  0  0  0
   39.0080   31.0060   40.3970 C   0  0  0  0  0  0  0  0  0  0  0  0
   39.9380   31.8740   40.9200 C   0  0  0  0  0  0  0  0  0  0  0  0
   39.6420   33.1910   40.9540 N   0  0  0  0  0  0  0  0  0  0  0  0
   38.4660   33.6880   40.4930 C   0  0  0  0  0  0  0  0  0  0  0  0
   37.5550   32.8320   39.9790 N   0  0  0  0  0  0  0  0  0  0  0  0
   36.9910   30.9990   39.4840 H   0  0  0  0  0  0  0  0  0  0  0  0
   38.3510   34.7590   40.5770 H   0  0  0  0  0  0  0  0  0  0  0  0
   41.1960   31.3400   41.4060 C   0  0  0  0  0  0  0  0  0  0  0  0
   41.3660   31.0750   42.7330 C   0  0  0  0  0  0  0  0  0  0  0  0
   42.5650   30.5700   43.1680 C   0  0  0  0  0  0  0  0  0  0  0  0
   43.6300   30.3100   42.3170 C   0  0  0  0  0  0  0  0  0  0  0  0
   43.4070   30.5950   40.9860 C   0  0  0  0  0  0  0  0  0  0  0  0
   42.2250   31.0880   40.5930 N   0  0  0  0  0  0  0  0  0  0  0  0
   40.6500   31.2230   43.5200 H   0  0  0  0  0  0  0  0  0  0  0  0
   42.7660   30.3350   44.2240 H   0  0  0  0  0  0  0  0  0  0  0  0
   44.5860   29.9170   42.5980 H   0  0  0  0  0  0  0  0  0  0  0  0
   44.1650   30.4340   40.2290 H   0  0  0  0  0  0  0  0  0  0  0  0
   37.0100   27.6320   39.8410 C   0  0  0  0  0  3  0  0  0  0  0  0
   35.8260   28.4750   40.0770 C   0  0  0  0  0  2  0  0  0  0  0  0
   35.2650   28.7920   38.6800 C   0  0  0  0  0  2  0  0  0  0  0  0
   34.8430   27.4630   38.0480 C   0  0  0  0  0  2  0  0  0  0  0  0
   35.9720   26.4710   37.9960 C   0  0  0  0  0  2  0  0  0  0  0  0
   36.5100   26.2670   39.4010 C   0  0  0  0  0  2  0  0  0  0  0  0
  1 19  1  0  0  0  0
  1  3  1  0  0  0  0
  2  1  2  0  0  0  0
  3  4  1  0  0  0  0
  4  9  1  0  0  0  0
  4  5  1  0  0  0  0
  4 10  1  0  0  0  0
  5 12  1  0  0  0  0
  6  5  1  0  0  0  0
  6 14  1  0  0  0  0
  7 15  1  0  0  0  0
  7  6  1  0  0  0  0
  8 17  1  6  0  0  0
  8  3  1  0  0  0  0
  8  7  1  0  0  0  0
 11  5  1  0  0  0  0
 13  6  1  0  0  0  0
 16  7  1  0  0  0  0
 18 23  2  0  0  0  0
 18 19  1  0  0  0  0
 19 20  2  0  0  0  0
 20 21  1  0  0  0  0
 20 26  1  0  0  0  0
 22 25  1  0  0  0  0
 22 21  2  0  0  0  0
 23 22  1  0  0  0  0
 24 18  1  0  0  0  0
 26 27  1  0  0  0  0
 27 28  2  0  0  0  0
 27 32  1  0  0  0  0
 28 33  1  0  0  0  0
 29 34  1  0  0  0  0
 29 28  1  0  0  0  0
 30 29  2  0  0  0  0
 31 30  1  0  0  0  0
 31 26  2  0  0  0  0
 35 30  1  0  0  0  0
 36 37  1  0  0  0  0
 36  8  1  0  0  0  0
 38 37  1  0  0  0  0
 39 38  1  0  0  0  0
 40 39  1  0  0  0  0
 40 41  1  0  0  0  0
 41 36  1  0  0  0  0
M  END
>  <minimizedAffinity>
-5.66474009

$$$$

 OpenBabel03252507213D

 41 44  0  0  1  0  0  0  0  0999 V2000
   40.3700   30.7530   42.2700 C   0  0  0  0  0  0  0  0  0  0  0  0
   39.4160   30.7100   43.1300 O   0  0  0  0  0  0  0  0  0  0  0  0
   40.5920   31.8980   41.4220 N   0  0  0  0  0  0  0  0  0  0  0  0
   41.8350   32.5840   41.0790 C   0  0  0  0  0  0  0  0  0  0  0  0
   41.9470   32.7100   39.5650 C   0  0  0  0  0  0  0  0  0  0  0  0
   40.8350   33.5730   39.0520 C   0  0  0  0  0  0  0  0  0  0  0  0
   39.7840   33.7490   40.1050 C   0  0  0  0  0  0  0  0  0  0  0  0
   39.4170   32.4860   40.8440 C   0  0  1  0  0  0  0  0  0  0  0  0
   42.7110   31.9570   41.3710 H   0  0  0  0  0  0  0  0  0  0  0  0
   41.9150   33.5750   41.5230 H   0  0  0  0  0  0  0  0  0  0  0  0
   42.0850   31.7510   39.0520 H   0  0  0  0  0  0  0  0  0  0  0  0
   42.9470   33.2320   39.4180 H   0  0  0  0  0  0  0  0  0  0  0  0
   40.4910   33.2630   38.0690 H   0  0  0  0  0  0  0  0  0  0  0  0
   41.2640   34.6070   38.8950 H   0  0  0  0  0  0  0  0  0  0  0  0
   40.0580   34.5490   40.8280 H   0  0  0  0  0  0  0  0  0  0  0  0
   38.8570   34.0990   39.6020 H   0  0  0  0  0  0  0  0  0  0  0  0
   38.8220   32.8460   41.7160 H   0  0  0  0  0  0  0  0  0  0  0  0
   42.6050   29.8630   42.0450 C   0  0  0  0  0  0  0  0  0  0  0  0
   41.2340   29.6280   42.1600 C   0  0  0  0  0  0  0  0  0  0  0  0
   40.7720   28.3320   42.1650 C   0  0  0  0  0  0  0  0  0  0  0  0
   41.6680   27.3290   42.0590 N   0  0  0  0  0  0  0  0  0  0  0  0
   43.0040   27.5490   41.9480 C   0  0  0  0  0  0  0  0  0  0  0  0
   43.4540   28.8230   41.9420 N   0  0  0  0  0  0  0  0  0  0  0  0
   43.1220   30.7750   42.0120 H   0  0  0  0  0  0  0  0  0  0  0  0
   43.6150   26.6610   41.8700 H   0  0  0  0  0  0  0  0  0  0  0  0
   39.3440   28.1010   42.2780 C   0  0  0  0  0  0  0  0  0  0  0  0
   38.5730   28.0010   41.1580 C   0  0  0  0  0  0  0  0  0  0  0  0
   37.2240   27.7820   41.2910 C   0  0  0  0  0  0  0  0  0  0  0  0
   36.5960   27.6570   42.5210 C   0  0  0  0  0  0  0  0  0  0  0  0
   37.4200   27.7670   43.6210 C   0  0  0  0  0  0  0  0  0  0  0  0
   38.7320   27.9800   43.4580 N   0  0  0  0  0  0  0  0  0  0  0  0
   38.8980   28.0790   40.1370 H   0  0  0  0  0  0  0  0  0  0  0  0
   36.5460   27.6910   40.4280 H   0  0  0  0  0  0  0  0  0  0  0  0
   35.5510   27.4870   42.6850 H   0  0  0  0  0  0  0  0  0  0  0  0
   37.0420   27.6860   44.6330 H   0  0  0  0  0  0  0  0  0  0  0  0
   38.5140   31.6080   40.0710 C   0  0  0  0  0  3  0  0  0  0  0  0
   38.7610   31.3740   38.6390 C   0  0  0  0  0  2  0  0  0  0  0  0
   38.0380   30.0570   38.3080 C   0  0  0  0  0  2  0  0  0  0  0  0
   36.5440   30.2880   38.5500 C   0  0  0  0  0  2  0  0  0  0  0  0
   36.2560   30.7570   39.9490 C   0  0  0  0  0  2  0  0  0  0  0  0
   37.0590   32.0190   40.2150 C   0  0  0  0  0  2  0  0  0  0  0  0
  1  2  2  0  0  0  0
  3  1  1  0  0  0  0
  4  9  1  0  0  0  0
  4  3  1  0  0  0  0
  4 10  1  0  0  0  0
  5  4  1  0  0  0  0
  6  5  1  0  0  0  0
  6  7  1  0  0  0  0
  7 15  1  0  0  0  0
  7  8  1  0  0  0  0
  8  3  1  0  0  0  0
  8 17  1  1  0  0  0
 11  5  1  0  0  0  0
 12  5  1  0  0  0  0
 13  6  1  0  0  0  0
 14  6  1  0  0  0  0
 16  7  1  0  0  0  0
 18 19  1  0  0  0  0
 19 20  2  0  0  0  0
 19  1  1  0  0  0  0
 20 26  1  0  0  0  0
 21 20  1  0  0  0  0
 22 21  2  0  0  0  0
 23 22  1  0  0  0  0
 23 18  2  0  0  0  0
 24 18  1  0  0  0  0
 25 22  1  0  0  0  0
 26 31  1  0  0  0  0
 27 28  1  0  0  0  0
 27 26  2  0  0  0  0
 28 29  2  0  0  0  0
 29 34  1  0  0  0  0
 29 30  1  0  0  0  0
 30 35  1  0  0  0  0
 31 30  2  0  0  0  0
 32 27  1  0  0  0  0
 33 28  1  0  0  0  0
 36 41  1  0  0  0  0
 36  8  1  0  0  0  0
 37 36  1  0  0  0  0
 38 39  1  0  0  0  0
 38 37  1  0  0  0  0
 39 40  1  0  0  0  0
 40 41  1  0  0  0  0
M  END
>  <minimizedAffinity>
-5.5950079

$$$$

 OpenBabel03252507213D

 41 44  0  0  1  0  0  0  0  0999 V2000
   39.5250   28.5460   39.9320 C   0  0  0  0  0  0  0  0  0  0  0  0
   40.5450   27.8810   39.5210 O   0  0  0  0  0  0  0  0  0  0  0  0
   39.0900   28.5210   41.3060 N   0  0  0  0  0  0  0  0  0  0  0  0
   38.6740   29.6160   42.1790 C   0  0  0  0  0  0  0  0  0  0  0  0
   37.3250   29.2860   42.8030 C   0  0  0  0  0  0  0  0  0  0  0  0
   37.4620   28.0790   43.6800 C   0  0  0  0  0  0  0  0  0  0  0  0
   38.7570   27.3780   43.4030 C   0  0  0  0  0  0  0  0  0  0  0  0
   39.0920   27.2330   41.9400 C   0  0  1  0  0  0  0  0  0  0  0  0
   38.4840   30.5350   41.5750 H   0  0  0  0  0  0  0  0  0  0  0  0
   39.3890   29.8280   42.9730 H   0  0  0  0  0  0  0  0  0  0  0  0
   36.5000   29.2640   42.0820 H   0  0  0  0  0  0  0  0  0  0  0  0
   37.0960   30.2040   43.4350 H   0  0  0  0  0  0  0  0  0  0  0  0
   36.5660   27.4630   43.6790 H   0  0  0  0  0  0  0  0  0  0  0  0
   37.5540   28.4510   44.7430 H   0  0  0  0  0  0  0  0  0  0  0  0
   39.6040   27.8550   43.9440 H   0  0  0  0  0  0  0  0  0  0  0  0
   38.6770   26.3480   43.8110 H   0  0  0  0  0  0  0  0  0  0  0  0
   40.1620   26.9170   41.9370 H   0  0  0  0  0  0  0  0  0  0  0  0
   37.6370   28.8030   38.4450 C   0  0  0  0  0  0  0  0  0  0  0  0
   38.8060   29.3350   38.9900 C   0  0  0  0  0  0  0  0  0  0  0  0
   39.2160   30.5910   38.6050 C   0  0  0  0  0  0  0  0  0  0  0  0
   38.4670   31.2660   37.7090 N   0  0  0  0  0  0  0  0  0  0  0  0
   37.3270   30.7550   37.1750 C   0  0  0  0  0  0  0  0  0  0  0  0
   36.9280   29.5210   37.5550 N   0  0  0  0  0  0  0  0  0  0  0  0
   37.1900   27.8690   38.6150 H   0  0  0  0  0  0  0  0  0  0  0  0
   36.8190   31.3950   36.4680 H   0  0  0  0  0  0  0  0  0  0  0  0
   40.4370   31.1300   39.1730 C   0  0  0  0  0  0  0  0  0  0  0  0
   41.6320   30.9410   38.5430 C   0  0  0  0  0  0  0  0  0  0  0  0
   42.7730   31.4620   39.1000 C   0  0  0  0  0  0  0  0  0  0  0  0
   42.7760   32.1790   40.2870 C   0  0  0  0  0  0  0  0  0  0  0  0
   41.5430   32.3410   40.8830 C   0  0  0  0  0  0  0  0  0  0  0  0
   40.4480   31.8220   40.3150 N   0  0  0  0  0  0  0  0  0  0  0  0
   41.8050   30.4080   37.6260 H   0  0  0  0  0  0  0  0  0  0  0  0
   43.7680   31.3450   38.6420 H   0  0  0  0  0  0  0  0  0  0  0  0
   43.6320   32.6080   40.7680 H   0  0  0  0  0  0  0  0  0  0  0  0
   41.4220   32.8840   41.8140 H   0  0  0  0  0  0  0  0  0  0  0  0
   38.3460   26.1390   41.2830 C   0  0  0  0  0  3  0  0  0  0  0  0
   36.9490   26.3470   40.8690 C   0  0  0  0  0  2  0  0  0  0  0  0
   36.6830   25.2920   39.7800 C   0  0  0  0  0  2  0  0  0  0  0  0
   36.8360   23.9170   40.4340 C   0  0  0  0  0  2  0  0  0  0  0  0
   38.1800   23.7380   41.0830 C   0  0  0  0  0  2  0  0  0  0  0  0
   38.3890   24.8540   42.0920 C   0  0  0  0  0  2  0  0  0  0  0  0
  1  3  1  0  0  0  0
  2  1  2  0  0  0  0
  3  8  1  0  0  0  0
  3  4  1  0  0  0  0
  4  5  1  0  0  0  0
  4 10  1  0  0  0  0
  5 12  1  0  0  0  0
  5  6  1  0  0  0  0
  6 14  1  0  0  0  0
  7  6  1  0  0  0  0
  7 16  1  0  0  0  0
  7 15  1  0  0  0  0
  8 17  1  6  0  0  0
  8  7  1  0  0  0  0
  9  4  1  0  0  0  0
 11  5  1  0  0  0  0
 13  6  1  0  0  0  0
 18 24  1  0  0  0  0
 18 19  1  0  0  0  0
 19  1  1  0  0  0  0
 20 19  2  0  0  0  0
 20 26  1  0  0  0  0
 21 20  1  0  0  0  0
 22 23  1  0  0  0  0
 22 21  2  0  0  0  0
 23 18  2  0  0  0  0
 25 22  1  0  0  0  0
 26 31  1  0  0  0  0
 27 28  1  0  0  0  0
 27 26  2  0  0  0  0
 28 29  2  0  0  0  0
 29 34  1  0  0  0  0
 29 30  1  0  0  0  0
 30 35  1  0  0  0  0
 31 30  2  0  0  0  0
 32 27  1  0  0  0  0
 33 28  1  0  0  0  0
 36  8  1  0  0  0  0
 36 41  1  0  0  0  0
 37 36  1  0  0  0  0
 38 39  1  0  0  0  0
 38 37  1  0  0  0  0
 39 40  1  0  0  0  0
 40 41  1  0  0  0  0
M  END
>  <minimizedAffinity>
-5.57039976

$$$$

 OpenBabel03252507213D

 41 44  0  0  1  0  0  0  0  0999 V2000
   40.3200   29.8690   40.0080 C   0  0  0  0  0  0  0  0  0  0  0  0
   39.7940   29.2290   39.0270 O   0  0  0  0  0  0  0  0  0  0  0  0
   41.1300   29.2190   41.0090 N   0  0  0  0  0  0  0  0  0  0  0  0
   42.4030   29.6290   41.5980 C   0  0  0  0  0  0  0  0  0  0  0  0
   42.2940   29.5970   43.1160 C   0  0  0  0  0  0  0  0  0  0  0  0
   42.0560   28.1890   43.5700 C   0  0  0  0  0  0  0  0  0  0  0  0
   41.6550   27.3290   42.4110 C   0  0  0  0  0  0  0  0  0  0  0  0
   40.6420   27.9560   41.4850 C   0  0  1  0  0  0  0  0  0  0  0  0
   42.6070   30.7000   41.3560 H   0  0  0  0  0  0  0  0  0  0  0  0
   43.2400   29.0060   41.2890 H   0  0  0  0  0  0  0  0  0  0  0  0
   41.6170   30.3540   43.5260 H   0  0  0  0  0  0  0  0  0  0  0  0
   43.3200   29.9500   43.4610 H   0  0  0  0  0  0  0  0  0  0  0  0
   41.4250   28.1400   44.4540 H   0  0  0  0  0  0  0  0  0  0  0  0
   43.0530   27.7760   43.9060 H   0  0  0  0  0  0  0  0  0  0  0  0
   42.5390   26.9830   41.8320 H   0  0  0  0  0  0  0  0  0  0  0  0
   41.1800   26.4110   42.8200 H   0  0  0  0  0  0  0  0  0  0  0  0
   40.6480   27.2930   40.5880 H   0  0  0  0  0  0  0  0  0  0  0  0
   39.0680   31.7140   40.9410 C   0  0  0  0  0  0  0  0  0  0  0  0
   40.0920   31.2710   40.1030 C   0  0  0  0  0  0  0  0  0  0  0  0
   40.8400   32.1940   39.4090 C   0  0  0  0  0  0  0  0  0  0  0  0
   40.5530   33.5040   39.5650 N   0  0  0  0  0  0  0  0  0  0  0  0
   39.5580   33.9420   40.3790 C   0  0  0  0  0  0  0  0  0  0  0  0
   38.8250   33.0330   41.0590 N   0  0  0  0  0  0  0  0  0  0  0  0
   38.4010   31.1550   41.5270 H   0  0  0  0  0  0  0  0  0  0  0  0
   39.4290   35.0140   40.4170 H   0  0  0  0  0  0  0  0  0  0  0  0
   41.8970   31.7210   38.5360 C   0  0  0  0  0  0  0  0  0  0  0  0
   43.1950   31.7440   38.9520 C   0  0  0  0  0  0  0  0  0  0  0  0
   44.1780   31.2920   38.1070 C   0  0  0  0  0  0  0  0  0  0  0  0
   43.9170   30.8050   36.8350 C   0  0  0  0  0  0  0  0  0  0  0  0
   42.5890   30.8040   36.4630 C   0  0  0  0  0  0  0  0  0  0  0  0
   41.6530   31.2520   37.3100 N   0  0  0  0  0  0  0  0  0  0  0  0
   43.5670   32.0930   39.8980 H   0  0  0  0  0  0  0  0  0  0  0  0
   45.2450   31.2830   38.3820 H   0  0  0  0  0  0  0  0  0  0  0  0
   44.6400   30.4400   36.1340 H   0  0  0  0  0  0  0  0  0  0  0  0
   42.2640   30.4470   35.4930 H   0  0  0  0  0  0  0  0  0  0  0  0
   39.2640   27.9050   42.0170 C   0  0  0  0  0  3  0  0  0  0  0  0
   38.8320   28.8740   43.0380 C   0  0  0  0  0  2  0  0  0  0  0  0
   37.2960   28.9070   42.9470 C   0  0  0  0  0  2  0  0  0  0  0  0
   36.7910   27.5080   43.3080 C   0  0  0  0  0  2  0  0  0  0  0  0
   37.3890   26.4410   42.4340 C   0  0  0  0  0  2  0  0  0  0  0  0
   38.9020   26.5210   42.5290 C   0  0  0  0  0  2  0  0  0  0  0  0
  1 19  1  0  0  0  0
  1  3  1  0  0  0  0
  2  1  2  0  0  0  0
  3  8  1  0  0  0  0
  3  4  1  0  0  0  0
  4  5  1  0  0  0  0
  5 12  1  0  0  0  0
  5 11  1  0  0  0  0
  5  6  1  0  0  0  0
  6 14  1  0  0  0  0
  6 13  1  0  0  0  0
  7 16  1  0  0  0  0
  7  6  1  0  0  0  0
  8 17  1  6  0  0  0
  8 36  1  0  0  0  0
  8  7  1  0  0  0  0
  9  4  1  0  0  0  0
 10  4  1  0  0  0  0
 15  7  1  0  0  0  0
 18 23  1  0  0  0  0
 18 24  1  0  0  0  0
 19 18  2  0  0  0  0
 20 21  2  0  0  0  0
 20 19  1  0  0  0  0
 21 22  1  0  0  0  0
 22 25  1  0  0  0  0
 22 23  2  0  0  0  0
 26 27  1  0  0  0  0
 26 20  1  0  0  0  0
 27 32  1  0  0  0  0
 28 33  1  0  0  0  0
 28 27  2  0  0  0  0
 29 28  1  0  0  0  0
 30 29  2  0  0  0  0
 30 31  1  0  0  0  0
 31 26  2  0  0  0  0
 34 29  1  0  0  0  0
 35 30  1  0  0  0  0
 36 41  1  0  0  0  0
 36 37  1  0  0  0  0
 38 37  1  0  0  0  0
 38 39  1  0  0  0  0
 40 41  1  0  0  0  0
 40 39  1  0  0  0  0
M  END
>  <minimizedAffinity>
-5.48137236

$$$$

 OpenBabel03252507213D

 41 44  0  0  1  0  0  0  0  0999 V2000
   36.7220   27.0720   39.6090 C   0  0  0  0  0  0  0  0  0  0  0  0
   35.6680   27.6130   39.1110 O   0  0  0  0  0  0  0  0  0  0  0  0
   36.9540   26.9980   41.0310 N   0  0  0  0  0  0  0  0  0  0  0  0
   37.4300   25.8840   41.8470 C   0  0  0  0  0  0  0  0  0  0  0  0
   38.6020   26.3440   42.7020 C   0  0  0  0  0  0  0  0  0  0  0  0
   38.1390   27.3990   43.6600 C   0  0  0  0  0  0  0  0  0  0  0  0
   36.7920   27.9150   43.2550 C   0  0  0  0  0  0  0  0  0  0  0  0
   36.6400   28.1830   41.7790 C   0  0  1  0  0  0  0  0  0  0  0  0
   37.8580   25.0870   41.1930 H   0  0  0  0  0  0  0  0  0  0  0  0
   36.6610   25.4670   42.4950 H   0  0  0  0  0  0  0  0  0  0  0  0
   39.5020   26.5830   42.1240 H   0  0  0  0  0  0  0  0  0  0  0  0
   38.8990   25.4040   43.2700 H   0  0  0  0  0  0  0  0  0  0  0  0
   38.9060   28.1440   43.8580 H   0  0  0  0  0  0  0  0  0  0  0  0
   37.9680   26.8900   44.6550 H   0  0  0  0  0  0  0  0  0  0  0  0
   35.9750   27.2480   43.6080 H   0  0  0  0  0  0  0  0  0  0  0  0
   36.6350   28.8880   43.7690 H   0  0  0  0  0  0  0  0  0  0  0  0
   35.5430   28.3240   41.6400 H   0  0  0  0  0  0  0  0  0  0  0  0
   38.8710   27.2420   38.5170 C   0  0  0  0  0  0  0  0  0  0  0  0
   37.6900   26.5270   38.7190 C   0  0  0  0  0  0  0  0  0  0  0  0
   37.5050   25.3330   38.0610 C   0  0  0  0  0  0  0  0  0  0  0  0
   38.4810   24.8930   37.2390 N   0  0  0  0  0  0  0  0  0  0  0  0
   39.6340   25.5830   37.0370 C   0  0  0  0  0  0  0  0  0  0  0  0
   39.8110   26.7560   37.6850 N   0  0  0  0  0  0  0  0  0  0  0  0
   39.1680   28.1630   38.9220 H   0  0  0  0  0  0  0  0  0  0  0  0
   40.3350   25.1240   36.3550 H   0  0  0  0  0  0  0  0  0  0  0  0
   36.2700   24.6030   38.2740 C   0  0  0  0  0  0  0  0  0  0  0  0
   36.1610   23.7210   39.3080 C   0  0  0  0  0  0  0  0  0  0  0  0
   34.9820   23.0420   39.4890 C   0  0  0  0  0  0  0  0  0  0  0  0
   33.8800   23.2070   38.6620 C   0  0  0  0  0  0  0  0  0  0  0  0
   34.0420   24.1090   37.6320 C   0  0  0  0  0  0  0  0  0  0  0  0
   35.2050   24.7560   37.4830 N   0  0  0  0  0  0  0  0  0  0  0  0
   36.9150   23.4730   40.0320 H   0  0  0  0  0  0  0  0  0  0  0  0
   34.8290   22.3180   40.3040 H   0  0  0  0  0  0  0  0  0  0  0  0
   32.9370   22.7070   38.7550 H   0  0  0  0  0  0  0  0  0  0  0  0
   33.2510   24.3210   36.9230 H   0  0  0  0  0  0  0  0  0  0  0  0
   37.2680   29.4530   41.3550 C   0  0  0  0  0  3  0  0  0  0  0  0
   38.3290   30.0590   42.1760 C   0  0  0  0  0  2  0  0  0  0  0  0
   39.1040   30.9860   41.2230 C   0  0  0  0  0  2  0  0  0  0  0  0
   38.1290   32.0660   40.7480 C   0  0  0  0  0  2  0  0  0  0  0  0
   36.9030   31.4840   40.1010 C   0  0  0  0  0  2  0  0  0  0  0  0
   36.2370   30.5330   41.0810 C   0  0  0  0  0  2  0  0  0  0  0  0
  1  3  1  0  0  0  0
  2  1  2  0  0  0  0
  3  8  1  0  0  0  0
  3  4  1  0  0  0  0
  4 10  1  0  0  0  0
  4  5  1  0  0  0  0
  5 12  1  0  0  0  0
  5  6  1  0  0  0  0
  6 13  1  0  0  0  0
  6 14  1  0  0  0  0
  7 15  1  0  0  0  0
  7  6  1  0  0  0  0
  7 16  1  0  0  0  0
  8 17  1  6  0  0  0
  8  7  1  0  0  0  0
  9  4  1  0  0  0  0
 11  5  1  0  0  0  0
 18 19  1  0  0  0  0
 18 24  1  0  0  0  0
 19  1  1  0  0  0  0
 20 26  1  0  0  0  0
 20 19  2  0  0  0  0
 21 20  1  0  0  0  0
 22 21  2  0  0  0  0
 22 23  1  0  0  0  0
 23 18  2  0  0  0  0
 25 22  1  0  0  0  0
 26 27  1  0  0  0  0
 27 28  2  0  0  0  0
 27 32  1  0  0  0  0
 28 33  1  0  0  0  0
 29 34  1  0  0  0  0
 29 28  1  0  0  0  0
 30 29  2  0  0  0  0
 31 30  1  0  0  0  0
 31 26  2  0  0  0  0
 35 30  1  0  0  0  0
 36  8  1  0  0  0  0
 36 37  1  0  0  0  0
 38 37  1  0  0  0  0
 39 38  1  0  0  0  0
 40 39  1  0  0  0  0
 40 41  1  0  0  0  0
 41 36  1  0  0  0  0
M  END
>  <minimizedAffinity>
-5.44969082

$$$$
