
     RDKit          3D

 36 38  0  0  0  0  0  0  0  0999 V2000
   45.2258   33.5563   43.7734 C   0  0  1  0  0  0  0  0  0  0  0  0
   45.8559   34.9514   43.4614 C   0  0  1  0  0  0  0  0  0  0  0  0
   45.7522   33.8249   42.4728 C   0  0  0  0  0  0  0  0  0  0  0  0
   45.9591   32.8592   44.8424 C   0  0  0  0  0  0  0  0  0  0  0  0
   46.6394   31.6497   44.5299 C   0  0  0  0  0  0  0  0  0  0  0  0
   47.3553   30.9565   45.5070 C   0  0  0  0  0  0  0  0  0  0  0  0
   47.3562   31.5104   46.7559 N   0  0  0  0  0  0  0  0  0  0  0  0
   46.6905   32.6754   47.0175 C   0  0  0  0  0  0  0  0  0  0  0  0
   46.0149   33.3222   46.0810 N   0  0  0  0  0  0  0  0  0  0  0  0
   44.8373   36.0504   43.2766 C   0  0  0  0  0  0  0  0  0  0  0  0
   45.4118   37.3021   43.2553 F   0  0  0  0  0  0  0  0  0  0  0  0
   44.2123   35.8607   42.0348 F   0  0  0  0  0  0  0  0  0  0  0  0
   43.8412   35.9627   44.2240 F   0  0  0  0  0  0  0  0  0  0  0  0
   44.1203   33.6080   43.9735 H   0  0  0  0  0  0  0  0  0  0  0  0
   46.8018   35.2097   43.9256 H   0  0  0  0  0  0  0  0  0  0  0  0
   45.0896   33.9320   41.5916 H   0  0  0  0  0  0  0  0  0  0  0  0
   46.7492   33.4164   42.1820 H   0  0  0  0  0  0  0  0  0  0  0  0
   46.5911   31.2840   43.5345 H   0  0  0  0  0  0  0  0  0  0  0  0
   47.8646   30.0524   45.2781 H   0  0  0  0  0  0  0  0  0  0  0  0
   46.7129   33.2515   48.3902 C   0  0  0  0  0  0  0  0  0  0  0  0
   48.0411   33.7989   48.7954 C   0  0  0  0  0  0  0  0  0  0  0  0
   48.8987   32.7865   49.5327 C   0  0  0  0  0  0  0  0  0  0  0  0
   48.2544   32.3110   50.8195 C   0  0  0  0  0  0  0  0  0  0  0  0
   46.7592   32.5699   50.7944 C   0  0  0  0  0  0  0  0  0  0  0  0
   46.2848   32.1987   49.4154 C   0  0  0  0  0  0  0  0  0  0  0  0
   45.8985   34.0144   48.4190 H   0  0  0  0  0  0  0  0  0  0  0  0
   47.8729   34.6656   49.4830 H   0  0  0  0  0  0  0  0  0  0  0  0
   48.6664   34.1411   47.9396 H   0  0  0  0  0  0  0  0  0  0  0  0
   49.8278   33.3251   49.8389 H   0  0  0  0  0  0  0  0  0  0  0  0
   49.1091   31.9484   48.8439 H   0  0  0  0  0  0  0  0  0  0  0  0
   48.3764   31.1951   50.8684 H   0  0  0  0  0  0  0  0  0  0  0  0
   48.6839   32.7573   51.7197 H   0  0  0  0  0  0  0  0  0  0  0  0
   46.5016   33.6287   50.9673 H   0  0  0  0  0  0  0  0  0  0  0  0
   46.2318   31.9254   51.5260 H   0  0  0  0  0  0  0  0  0  0  0  0
   45.1886   32.0305   49.3580 H   0  0  0  0  0  0  0  0  0  0  0  0
   46.8124   31.2661   49.1247 H   0  0  0  0  0  0  0  0  0  0  0  0
  1  4  1  0
  2  1  1  0
  3  2  1  0
  3  1  1  0
  4  9  1  0
  5  4  2  0
  5  6  1  0
  6  7  2  0
  7  8  1  0
  9  8  2  0
 10  2  1  0
 10 13  1  0
 11 10  1  0
 12 10  1  0
  1 14  1  6
  2 15  1  1
  3 16  1  0
  3 17  1  0
  5 18  1  0
  6 19  1  0
 20 21  1  0
 21 22  1  0
 22 23  1  0
 23 24  1  0
 24 25  1  0
 25 20  1  0
 20 26  1  0
 21 27  1  0
 21 28  1  0
 22 29  1  0
 22 30  1  0
 23 31  1  0
 23 32  1  0
 24 33  1  0
 24 34  1  0
 25 35  1  0
 25 36  1  0
  8 20  1  0
M  ISO  6  14  13  15  13  16  13  17  13  18  14  19  14
M  END
>  <DihAtoms>  (1) 
6,7,19,20

>  <DihDeg>  (1) 
-125.01788457359623

$$$$
