
 OpenBabel03242513023D

 28 31  0  0  1  0  0  0  0  0999 V2000
   36.9570   31.2140   40.6540 C   0  0  0  0  0  0  0  0  0  0  0  0
   37.8880   30.4780   41.3440 C   0  0  0  0  0  0  0  0  0  0  0  0
   39.1910   30.9300   41.5710 C   0  0  0  0  0  0  0  0  0  0  0  0
   39.5890   32.1780   41.0870 C   0  0  0  0  0  0  0  0  0  0  0  0
   40.7240   32.9200   41.1120 N   0  0  0  0  0  0  0  0  0  0  0  0
   40.4870   34.0920   40.4460 C   0  0  0  0  0  0  0  0  0  0  0  0
   39.1900   34.0450   40.0190 N   0  0  0  0  0  0  0  0  0  0  0  0
   38.6170   32.8920   40.3950 C   0  0  0  0  0  0  0  0  0  0  0  0
   37.3320   32.4640   40.1620 C   0  0  0  0  0  0  0  0  0  0  0  0
   35.9470   30.8630   40.4790 H   0  0  0  0  0  0  0  0  0  0  0  0
   39.9420   30.3860   42.1020 H   0  0  0  0  0  0  0  0  0  0  0  0
   41.5770   32.5350   41.6000 H   0  0  0  0  0  0  0  0  0  0  0  0
   41.2830   34.7930   40.3740 H   0  0  0  0  0  0  0  0  0  0  0  0
   36.6280   33.0650   39.6190 H   0  0  0  0  0  0  0  0  0  0  0  0
   36.9230   27.7810   43.6620 C   0  0  0  0  0  0  0  0  0  0  0  0
   36.9100   26.6660   42.8260 C   0  0  0  0  0  0  0  0  0  0  0  0
   37.2350   26.8400   41.4540 C   0  0  0  0  0  0  0  0  0  0  0  0
   37.5450   28.1070   41.0330 N   0  0  0  0  0  0  0  0  0  0  0  0
   37.5450   29.1620   41.8810 C   0  0  0  0  0  0  0  0  0  0  0  0
   37.2390   28.9990   43.1750 N   0  0  0  0  0  0  0  0  0  0  0  0
   36.6710   27.5940   44.6900 H   0  0  0  0  0  0  0  0  0  0  0  0
   36.6640   25.6870   43.1860 H   0  0  0  0  0  0  0  0  0  0  0  0
   37.2350   25.6790   40.5240 C   0  0  2  0  0  3  0  0  0  0  0  0
   36.7370   24.4520   41.2530 C   0  0  0  0  0  2  0  0  0  0  0  0
   36.6950   23.3700   40.1690 C   0  0  0  0  0  2  0  0  0  0  0  0
   38.1490   22.9970   39.9950 C   0  0  0  0  0  2  0  0  0  0  0  0
   39.0280   24.1270   39.6270 C   0  0  0  0  0  3  0  0  0  0  0  0
   38.5260   25.5080   39.8380 C   0  0  0  0  0  3  0  0  0  0  0  0
  1  2  1  0  0  0  0
  2  3  2  0  0  0  0
  2 19  1  0  0  0  0
  3 11  1  0  0  0  0
  4  5  1  0  0  0  0
  4  3  1  0  0  0  0
  5 12  1  0  0  0  0
  6  5  1  0  0  0  0
  7  8  1  0  0  0  0
  7  6  2  0  0  0  0
  8  4  2  0  0  0  0
  9  8  1  0  0  0  0
  9  1  2  0  0  0  0
 10  1  1  0  0  0  0
 13  6  1  0  0  0  0
 14  9  1  0  0  0  0
 15 21  1  0  0  0  0
 16 22  1  0  0  0  0
 16 15  2  0  0  0  0
 17 16  1  0  0  0  0
 18 17  2  0  0  0  0
 18 19  1  0  0  0  0
 19 20  2  0  0  0  0
 20 15  1  0  0  0  0
 23 24  1  0  0  0  0
 23 17  1  1  0  0  0
 25 24  1  0  0  0  0
 26 25  1  0  0  0  0
 27 28  2  0  0  0  0
 27 26  1  0  0  0  0
 28 23  1  0  0  0  0
M  END
>  <minimizedAffinity>
-6.06878281

$$$$

 OpenBabel03242513023D

 28 31  0  0  1  0  0  0  0  0999 V2000
   36.7740   30.9500   40.4390 C   0  0  0  0  0  0  0  0  0  0  0  0
   37.7170   30.3040   41.1980 C   0  0  0  0  0  0  0  0  0  0  0  0
   38.9480   30.8790   41.5240 C   0  0  0  0  0  0  0  0  0  0  0  0
   39.2570   32.1640   41.0720 C   0  0  0  0  0  0  0  0  0  0  0  0
   40.3090   33.0120   41.1840 N   0  0  0  0  0  0  0  0  0  0  0  0
   40.0100   34.1610   40.5010 C   0  0  0  0  0  0  0  0  0  0  0  0
   38.7600   33.9910   39.9760 N   0  0  0  0  0  0  0  0  0  0  0  0
   38.2760   32.7840   40.3070 C   0  0  0  0  0  0  0  0  0  0  0  0
   37.0610   32.2350   39.9760 C   0  0  0  0  0  0  0  0  0  0  0  0
   35.8200   30.5030   40.1860 H   0  0  0  0  0  0  0  0  0  0  0  0
   39.7060   30.4070   42.1120 H   0  0  0  0  0  0  0  0  0  0  0  0
   41.1560   32.7090   41.7360 H   0  0  0  0  0  0  0  0  0  0  0  0
   40.7360   34.9370   40.4900 H   0  0  0  0  0  0  0  0  0  0  0  0
   36.3450   32.7670   39.3800 H   0  0  0  0  0  0  0  0  0  0  0  0
   37.0900   27.4800   43.4810 C   0  0  0  0  0  0  0  0  0  0  0  0
   36.9920   26.4050   42.5990 C   0  0  0  0  0  0  0  0  0  0  0  0
   37.1430   26.6510   41.2080 C   0  0  0  0  0  0  0  0  0  0  0  0
   37.3780   27.9430   40.8150 N   0  0  0  0  0  0  0  0  0  0  0  0
   37.4640   28.9560   41.7070 C   0  0  0  0  0  0  0  0  0  0  0  0
   37.3230   28.7260   43.0190 N   0  0  0  0  0  0  0  0  0  0  0  0
   36.9680   27.2400   44.5210 H   0  0  0  0  0  0  0  0  0  0  0  0
   36.8090   25.4050   42.9380 H   0  0  0  0  0  0  0  0  0  0  0  0
   37.0480   25.5350   40.2290 C   0  0  2  0  0  3  0  0  0  0  0  0
   36.2800   25.9980   39.0120 C   0  0  0  0  0  2  0  0  0  0  0  0
   36.3430   24.8020   38.0580 C   0  0  0  0  0  2  0  0  0  0  0  0
   35.3380   23.8380   38.6460 C   0  0  0  0  0  2  0  0  0  0  0  0
   35.6110   23.4540   40.0470 C   0  0  0  0  0  3  0  0  0  0  0  0
   36.5460   24.2920   40.8390 C   0  0  0  0  0  3  0  0  0  0  0  0
  1  2  1  0  0  0  0
  2  3  2  0  0  0  0
  2 19  1  0  0  0  0
  3 11  1  0  0  0  0
  4  5  1  0  0  0  0
  4  3  1  0  0  0  0
  5 12  1  0  0  0  0
  6  5  1  0  0  0  0
  7  8  1  0  0  0  0
  7  6  2  0  0  0  0
  8  4  2  0  0  0  0
  9  8  1  0  0  0  0
  9  1  2  0  0  0  0
 10  1  1  0  0  0  0
 13  6  1  0  0  0  0
 14  9  1  0  0  0  0
 15 21  1  0  0  0  0
 16 22  1  0  0  0  0
 16 15  2  0  0  0  0
 17 16  1  0  0  0  0
 18 17  2  0  0  0  0
 18 19  1  0  0  0  0
 19 20  2  0  0  0  0
 20 15  1  0  0  0  0
 23 28  1  0  0  0  0
 23 17  1  1  0  0  0
 24 23  1  0  0  0  0
 25 26  1  0  0  0  0
 25 24  1  0  0  0  0
 26 27  1  0  0  0  0
 27 28  2  0  0  0  0
M  END
>  <minimizedAffinity>
-6.02740335

$$$$

 OpenBabel03242513023D

 28 31  0  0  1  0  0  0  0  0999 V2000
   37.2460   29.2430   41.0450 C   0  0  0  0  0  0  0  0  0  0  0  0
   38.4530   29.1350   41.6880 C   0  0  0  0  0  0  0  0  0  0  0  0
   39.3240   30.2160   41.8490 C   0  0  0  0  0  0  0  0  0  0  0  0
   38.9760   31.4710   41.3420 C   0  0  0  0  0  0  0  0  0  0  0  0
   39.5410   32.7030   41.3090 N   0  0  0  0  0  0  0  0  0  0  0  0
   38.6890   33.5500   40.6530 C   0  0  0  0  0  0  0  0  0  0  0  0
   37.6000   32.8080   40.2920 N   0  0  0  0  0  0  0  0  0  0  0  0
   37.7450   31.5390   40.6990 C   0  0  0  0  0  0  0  0  0  0  0  0
   36.8770   30.4870   40.5320 C   0  0  0  0  0  0  0  0  0  0  0  0
   36.5720   28.4040   40.9220 H   0  0  0  0  0  0  0  0  0  0  0  0
   40.2710   30.1710   42.3420 H   0  0  0  0  0  0  0  0  0  0  0  0
   40.4880   32.8450   41.7540 H   0  0  0  0  0  0  0  0  0  0  0  0
   38.9860   34.5640   40.5390 H   0  0  0  0  0  0  0  0  0  0  0  0
   35.9390   30.6050   40.0230 H   0  0  0  0  0  0  0  0  0  0  0  0
   40.2470   26.6050   43.6800 C   0  0  0  0  0  0  0  0  0  0  0  0
   39.6550   25.4190   43.2490 C   0  0  0  0  0  0  0  0  0  0  0  0
   38.6310   25.4870   42.2670 C   0  0  0  0  0  0  0  0  0  0  0  0
   38.2850   26.7280   41.7970 N   0  0  0  0  0  0  0  0  0  0  0  0
   38.8870   27.8530   42.2450 C   0  0  0  0  0  0  0  0  0  0  0  0
   39.8530   27.7910   43.1710 N   0  0  0  0  0  0  0  0  0  0  0  0
   41.0150   26.4980   44.4230 H   0  0  0  0  0  0  0  0  0  0  0  0
   39.9480   24.4630   43.6350 H   0  0  0  0  0  0  0  0  0  0  0  0
   37.9710   24.2470   41.7760 C   0  0  2  0  0  3  0  0  0  0  0  0
   38.8070   23.6350   40.6760 C   0  0  0  0  0  2  0  0  0  0  0  0
   38.0750   22.3330   40.3360 C   0  0  0  0  0  2  0  0  0  0  0  0
   36.8890   22.8050   39.5270 C   0  0  0  0  0  2  0  0  0  0  0  0
   36.0190   23.7730   40.2280 C   0  0  0  0  0  3  0  0  0  0  0  0
   36.5560   24.4630   41.4280 C   0  0  0  0  0  3  0  0  0  0  0  0
  1  2  1  0  0  0  0
  2  3  2  0  0  0  0
  2 19  1  0  0  0  0
  3 11  1  0  0  0  0
  4  3  1  0  0  0  0
  5  4  1  0  0  0  0
  5 12  1  0  0  0  0
  6  5  1  0  0  0  0
  7  6  2  0  0  0  0
  7  8  1  0  0  0  0
  8  4  2  0  0  0  0
  9  8  1  0  0  0  0
  9  1  2  0  0  0  0
 10  1  1  0  0  0  0
 13  6  1  0  0  0  0
 14  9  1  0  0  0  0
 15 21  1  0  0  0  0
 16 22  1  0  0  0  0
 16 15  1  0  0  0  0
 17 16  2  0  0  0  0
 18 19  2  0  0  0  0
 18 17  1  0  0  0  0
 19 20  1  0  0  0  0
 20 15  2  0  0  0  0
 23 17  1  6  0  0  0
 24 23  1  0  0  0  0
 25 24  1  0  0  0  0
 26 27  1  0  0  0  0
 26 25  1  0  0  0  0
 27 28  2  0  0  0  0
 28 23  1  0  0  0  0
M  END
>  <minimizedAffinity>
-5.8389945

$$$$

 OpenBabel03242513023D

 28 31  0  0  1  0  0  0  0  0999 V2000
   35.4350   29.5100   38.3630 C   0  0  0  0  0  0  0  0  0  0  0  0
   36.6850   30.0310   38.1400 C   0  0  0  0  0  0  0  0  0  0  0  0
   37.3100   29.9890   36.8910 C   0  0  0  0  0  0  0  0  0  0  0  0
   36.6580   29.3960   35.8060 C   0  0  0  0  0  0  0  0  0  0  0  0
   36.9390   29.1780   34.4980 N   0  0  0  0  0  0  0  0  0  0  0  0
   35.8730   28.5320   33.9310 C   0  0  0  0  0  0  0  0  0  0  0  0
   34.9450   28.3640   34.9200 N   0  0  0  0  0  0  0  0  0  0  0  0
   35.3950   28.8810   36.0730 C   0  0  0  0  0  0  0  0  0  0  0  0
   34.7650   28.9140   37.2940 C   0  0  0  0  0  0  0  0  0  0  0  0
   34.9520   29.5440   39.3320 H   0  0  0  0  0  0  0  0  0  0  0  0
   38.2810   30.3830   36.6790 H   0  0  0  0  0  0  0  0  0  0  0  0
   37.8650   29.5050   34.1100 H   0  0  0  0  0  0  0  0  0  0  0  0
   35.9330   28.2840   32.8990 H   0  0  0  0  0  0  0  0  0  0  0  0
   33.7870   28.4970   37.4350 H   0  0  0  0  0  0  0  0  0  0  0  0
   38.4090   32.5530   40.2010 C   0  0  0  0  0  0  0  0  0  0  0  0
   38.8280   31.8010   41.2960 C   0  0  0  0  0  0  0  0  0  0  0  0
   38.5170   30.4150   41.3290 C   0  0  0  0  0  0  0  0  0  0  0  0
   37.8170   29.8980   40.2700 N   0  0  0  0  0  0  0  0  0  0  0  0
   37.4290   30.6670   39.2270 C   0  0  0  0  0  0  0  0  0  0  0  0
   37.7230   31.9740   39.1940 N   0  0  0  0  0  0  0  0  0  0  0  0
   38.6710   33.5950   40.2260 H   0  0  0  0  0  0  0  0  0  0  0  0
   39.3760   32.2340   42.1090 H   0  0  0  0  0  0  0  0  0  0  0  0
   38.9450   29.5710   42.4770 C   0  0  2  0  0  3  0  0  0  0  0  0
   39.9940   28.5870   42.0140 C   0  0  0  0  0  2  0  0  0  0  0  0
   40.4110   27.8600   43.2960 C   0  0  0  0  0  2  0  0  0  0  0  0
   39.2600   26.9130   43.5460 C   0  0  0  0  0  2  0  0  0  0  0  0
   37.9450   27.5730   43.6770 C   0  0  0  0  0  3  0  0  0  0  0  0
   37.8040   28.9680   43.1870 C   0  0  0  0  0  3  0  0  0  0  0  0
  1 10  1  0  0  0  0
  2  1  1  0  0  0  0
  2 19  1  0  0  0  0
  3  2  2  0  0  0  0
  4  8  2  0  0  0  0
  4  3  1  0  0  0  0
  5  4  1  0  0  0  0
  6  5  1  0  0  0  0
  6  7  2  0  0  0  0
  7  8  1  0  0  0  0
  8  9  1  0  0  0  0
  9 14  1  0  0  0  0
  9  1  2  0  0  0  0
 11  3  1  0  0  0  0
 12  5  1  0  0  0  0
 13  6  1  0  0  0  0
 15 21  1  0  0  0  0
 15 16  1  0  0  0  0
 16 17  2  0  0  0  0
 16 22  1  0  0  0  0
 18 17  1  0  0  0  0
 19 18  2  0  0  0  0
 20 19  1  0  0  0  0
 20 15  2  0  0  0  0
 23 17  1  6  0  0  0
 23 28  1  0  0  0  0
 24 23  1  0  0  0  0
 24 25  1  0  0  0  0
 25 26  1  0  0  0  0
 26 27  1  0  0  0  0
 28 27  2  0  0  0  0
M  END
>  <minimizedAffinity>
-5.76008797

$$$$

 OpenBabel03242513023D

 28 31  0  0  1  0  0  0  0  0999 V2000
   39.3990   31.0650   38.8370 C   0  0  0  0  0  0  0  0  0  0  0  0
   39.1120   30.9780   40.1760 C   0  0  0  0  0  0  0  0  0  0  0  0
   39.7640   31.7510   41.1410 C   0  0  0  0  0  0  0  0  0  0  0  0
   40.7550   32.6570   40.7540 C   0  0  0  0  0  0  0  0  0  0  0  0
   41.5700   33.5400   41.3810 N   0  0  0  0  0  0  0  0  0  0  0  0
   42.3450   34.1560   40.4350 C   0  0  0  0  0  0  0  0  0  0  0  0
   41.9830   33.6300   39.2270 N   0  0  0  0  0  0  0  0  0  0  0  0
   41.0160   32.7150   39.3890 C   0  0  0  0  0  0  0  0  0  0  0  0
   40.3850   31.9640   38.4270 C   0  0  0  0  0  0  0  0  0  0  0  0
   38.8930   30.4660   38.0900 H   0  0  0  0  0  0  0  0  0  0  0  0
   39.5680   31.7110   42.1910 H   0  0  0  0  0  0  0  0  0  0  0  0
   41.5130   33.6350   42.4310 H   0  0  0  0  0  0  0  0  0  0  0  0
   43.0460   34.8850   40.7640 H   0  0  0  0  0  0  0  0  0  0  0  0
   40.6340   32.0560   37.3870 H   0  0  0  0  0  0  0  0  0  0  0  0
   35.8500   29.3940   40.8350 C   0  0  0  0  0  0  0  0  0  0  0  0
   36.2120   28.2790   41.5890 C   0  0  0  0  0  0  0  0  0  0  0  0
   37.5880   28.0690   41.8740 C   0  0  0  0  0  0  0  0  0  0  0  0
   38.4840   28.9840   41.3860 N   0  0  0  0  0  0  0  0  0  0  0  0
   38.0870   30.0530   40.6570 C   0  0  0  0  0  0  0  0  0  0  0  0
   36.7900   30.2530   40.3870 N   0  0  0  0  0  0  0  0  0  0  0  0
   34.7980   29.5060   40.6480 H   0  0  0  0  0  0  0  0  0  0  0  0
   35.4880   27.5810   41.9580 H   0  0  0  0  0  0  0  0  0  0  0  0
   38.0230   26.8930   42.6770 C   0  0  2  0  0  3  0  0  0  0  0  0
   39.5320   26.8700   42.7570 C   0  0  0  0  0  2  0  0  0  0  0  0
   39.8350   25.6850   43.6800 C   0  0  0  0  0  2  0  0  0  0  0  0
   39.6040   24.4860   42.7890 C   0  0  0  0  0  2  0  0  0  0  0  0
   38.2480   24.4120   42.2060 C   0  0  0  0  0  3  0  0  0  0  0  0
   37.4100   25.6380   42.2120 C   0  0  0  0  0  3  0  0  0  0  0  0
  1  2  1  0  0  0  0
  2 19  1  0  0  0  0
  2  3  2  0  0  0  0
  3 11  1  0  0  0  0
  4  3  1  0  0  0  0
  4  5  1  0  0  0  0
  5 12  1  0  0  0  0
  6 13  1  0  0  0  0
  6  5  1  0  0  0  0
  7  8  1  0  0  0  0
  7  6  2  0  0  0  0
  8  4  2  0  0  0  0
  9  1  2  0  0  0  0
  9  8  1  0  0  0  0
 10  1  1  0  0  0  0
 14  9  1  0  0  0  0
 15 16  1  0  0  0  0
 16 17  2  0  0  0  0
 16 22  1  0  0  0  0
 18 17  1  0  0  0  0
 19 18  2  0  0  0  0
 20 19  1  0  0  0  0
 20 15  2  0  0  0  0
 21 15  1  0  0  0  0
 23 17  1  6  0  0  0
 23 24  1  0  0  0  0
 24 25  1  0  0  0  0
 26 25  1  0  0  0  0
 27 28  2  0  0  0  0
 27 26  1  0  0  0  0
 28 23  1  0  0  0  0
M  END
>  <minimizedAffinity>
-5.63585138

$$$$

 OpenBabel03242513023D

 28 31  0  0  1  0  0  0  0  0999 V2000
   36.0010   26.9830   38.7370 C   0  0  0  0  0  0  0  0  0  0  0  0
   35.4410   28.2270   38.5950 C   0  0  0  0  0  0  0  0  0  0  0  0
   35.5060   29.2030   39.5940 C   0  0  0  0  0  0  0  0  0  0  0  0
   36.1620   28.9260   40.7960 C   0  0  0  0  0  0  0  0  0  0  0  0
   36.4180   29.5970   41.9460 N   0  0  0  0  0  0  0  0  0  0  0  0
   37.1250   28.7700   42.7770 C   0  0  0  0  0  0  0  0  0  0  0  0
   37.2900   27.5900   42.1090 N   0  0  0  0  0  0  0  0  0  0  0  0
   36.7150   27.6550   40.8990 C   0  0  0  0  0  0  0  0  0  0  0  0
   36.6610   26.6840   39.9290 C   0  0  0  0  0  0  0  0  0  0  0  0
   35.9490   26.2270   37.9620 H   0  0  0  0  0  0  0  0  0  0  0  0
   35.0820   30.1820   39.5200 H   0  0  0  0  0  0  0  0  0  0  0  0
   36.0700   30.5880   42.0500 H   0  0  0  0  0  0  0  0  0  0  0  0
   37.4080   29.1470   43.7300 H   0  0  0  0  0  0  0  0  0  0  0  0
   37.1100   25.7190   40.0710 H   0  0  0  0  0  0  0  0  0  0  0  0
   34.6890   28.8570   35.0430 C   0  0  0  0  0  0  0  0  0  0  0  0
   33.3640   29.2850   35.0940 C   0  0  0  0  0  0  0  0  0  0  0  0
   32.7220   29.3590   36.3600 C   0  0  0  0  0  0  0  0  0  0  0  0
   33.4520   29.0010   37.4630 N   0  0  0  0  0  0  0  0  0  0  0  0
   34.7370   28.5900   37.3650 C   0  0  0  0  0  0  0  0  0  0  0  0
   35.3450   28.5200   36.1730 N   0  0  0  0  0  0  0  0  0  0  0  0
   35.1270   28.8190   34.0630 H   0  0  0  0  0  0  0  0  0  0  0  0
   32.8190   29.5590   34.2140 H   0  0  0  0  0  0  0  0  0  0  0  0
   31.3080   29.8120   36.4640 C   0  0  2  0  0  3  0  0  0  0  0  0
   31.1090   31.0400   35.6060 C   0  0  0  0  0  2  0  0  0  0  0  0
   29.6110   31.3360   35.7260 C   0  0  0  0  0  2  0  0  0  0  0  0
   29.4910   31.9570   37.0990 C   0  0  0  0  0  2  0  0  0  0  0  0
   29.9850   31.1040   38.1990 C   0  0  0  0  0  3  0  0  0  0  0  0
   30.8660   29.9570   37.8620 C   0  0  0  0  0  3  0  0  0  0  0  0
  1  9  1  0  0  0  0
  2  1  2  0  0  0  0
  2  3  1  0  0  0  0
  3  4  2  0  0  0  0
  4  8  1  0  0  0  0
  4  5  1  0  0  0  0
  5 12  1  0  0  0  0
  5  6  1  0  0  0  0
  6 13  1  0  0  0  0
  7  6  2  0  0  0  0
  8  7  1  0  0  0  0
  9 14  1  0  0  0  0
  9  8  2  0  0  0  0
 10  1  1  0  0  0  0
 11  3  1  0  0  0  0
 15 16  2  0  0  0  0
 15 20  1  0  0  0  0
 16 17  1  0  0  0  0
 17 18  2  0  0  0  0
 19 18  1  0  0  0  0
 19  2  1  0  0  0  0
 20 19  2  0  0  0  0
 21 15  1  0  0  0  0
 22 16  1  0  0  0  0
 23 17  1  1  0  0  0
 23 28  1  0  0  0  0
 24 25  1  0  0  0  0
 24 23  1  0  0  0  0
 25 26  1  0  0  0  0
 26 27  1  0  0  0  0
 28 27  2  0  0  0  0
M  END
>  <minimizedAffinity>
-5.63001299

$$$$

 OpenBabel03242513023D

 28 31  0  0  1  0  0  0  0  0999 V2000
   40.2610   31.6580   41.0370 C   0  0  0  0  0  0  0  0  0  0  0  0
   39.3540   31.3210   40.0640 C   0  0  0  0  0  0  0  0  0  0  0  0
   39.4900   31.7200   38.7320 C   0  0  0  0  0  0  0  0  0  0  0  0
   40.5860   32.4950   38.3470 C   0  0  0  0  0  0  0  0  0  0  0  0
   41.0350   33.0480   37.1930 N   0  0  0  0  0  0  0  0  0  0  0  0
   42.2020   33.7130   37.4590 C   0  0  0  0  0  0  0  0  0  0  0  0
   42.4480   33.5530   38.7930 N   0  0  0  0  0  0  0  0  0  0  0  0
   41.4820   32.8150   39.3610 C   0  0  0  0  0  0  0  0  0  0  0  0
   41.3640   32.4320   40.6750 C   0  0  0  0  0  0  0  0  0  0  0  0
   40.1540   31.3480   42.0690 H   0  0  0  0  0  0  0  0  0  0  0  0
   38.8040   31.4770   37.9480 H   0  0  0  0  0  0  0  0  0  0  0  0
   40.4780   32.9080   36.3060 H   0  0  0  0  0  0  0  0  0  0  0  0
   42.6880   34.2060   36.6530 H   0  0  0  0  0  0  0  0  0  0  0  0
   42.0930   32.7130   41.4110 H   0  0  0  0  0  0  0  0  0  0  0  0
   35.9080   30.3220   40.9070 C   0  0  0  0  0  0  0  0  0  0  0  0
   36.0180   28.9360   41.0020 C   0  0  0  0  0  0  0  0  0  0  0  0
   37.2870   28.3380   40.7760 C   0  0  0  0  0  0  0  0  0  0  0  0
   38.3350   29.1690   40.4740 N   0  0  0  0  0  0  0  0  0  0  0  0
   38.1810   30.5110   40.3920 C   0  0  0  0  0  0  0  0  0  0  0  0
   36.9850   31.0760   40.6060 N   0  0  0  0  0  0  0  0  0  0  0  0
   34.9270   30.7230   41.0880 H   0  0  0  0  0  0  0  0  0  0  0  0
   35.1800   28.3130   41.2410 H   0  0  0  0  0  0  0  0  0  0  0  0
   37.4540   26.8620   40.8680 C   0  0  2  0  0  3  0  0  0  0  0  0
   36.9680   26.3850   42.2170 C   0  0  0  0  0  2  0  0  0  0  0  0
   37.1030   24.8610   42.1410 C   0  0  0  0  0  2  0  0  0  0  0  0
   38.5880   24.6360   42.3060 C   0  0  0  0  0  2  0  0  0  0  0  0
   39.4240   25.3250   41.3010 C   0  0  0  0  0  3  0  0  0  0  0  0
   38.8150   26.4270   40.5130 C   0  0  0  0  0  3  0  0  0  0  0  0
  1 10  1  0  0  0  0
  2 19  1  0  0  0  0
  2  1  2  0  0  0  0
  3  2  1  0  0  0  0
  4  3  2  0  0  0  0
  4  8  1  0  0  0  0
  5  6  1  0  0  0  0
  5  4  1  0  0  0  0
  6  7  2  0  0  0  0
  7  8  1  0  0  0  0
  8  9  2  0  0  0  0
  9  1  1  0  0  0  0
  9 14  1  0  0  0  0
 11  3  1  0  0  0  0
 12  5  1  0  0  0  0
 13  6  1  0  0  0  0
 15 16  1  0  0  0  0
 15 21  1  0  0  0  0
 16 22  1  0  0  0  0
 17 16  2  0  0  0  0
 18 17  1  0  0  0  0
 19 18  2  0  0  0  0
 19 20  1  0  0  0  0
 20 15  2  0  0  0  0
 23 17  1  1  0  0  0
 23 24  1  0  0  0  0
 25 24  1  0  0  0  0
 25 26  1  0  0  0  0
 27 26  1  0  0  0  0
 28 23  1  0  0  0  0
 28 27  2  0  0  0  0
M  END
>  <minimizedAffinity>
-5.62114191

$$$$

 OpenBabel03242513023D

 28 31  0  0  1  0  0  0  0  0999 V2000
   41.0550   32.6890   37.6940 C   0  0  0  0  0  0  0  0  0  0  0  0
   40.7760   32.6500   39.0370 C   0  0  0  0  0  0  0  0  0  0  0  0
   41.7090   33.0110   40.0130 C   0  0  0  0  0  0  0  0  0  0  0  0
   42.9850   33.4330   39.6330 C   0  0  0  0  0  0  0  0  0  0  0  0
   44.1080   33.8460   40.2720 N   0  0  0  0  0  0  0  0  0  0  0  0
   45.0580   34.1330   39.3290 C   0  0  0  0  0  0  0  0  0  0  0  0
   44.4900   33.8850   38.1110 N   0  0  0  0  0  0  0  0  0  0  0  0
   43.2280   33.4590   38.2650 C   0  0  0  0  0  0  0  0  0  0  0  0
   42.3240   33.1070   37.2910 C   0  0  0  0  0  0  0  0  0  0  0  0
   40.3310   32.4080   36.9380 H   0  0  0  0  0  0  0  0  0  0  0  0
   41.5280   32.9940   41.0670 H   0  0  0  0  0  0  0  0  0  0  0  0
   44.1110   33.8920   41.3270 H   0  0  0  0  0  0  0  0  0  0  0  0
   46.0070   34.4730   39.6660 H   0  0  0  0  0  0  0  0  0  0  0  0
   42.5740   33.1490   36.2490 H   0  0  0  0  0  0  0  0  0  0  0  0
   37.1670   32.5810   39.7770 C   0  0  0  0  0  0  0  0  0  0  0  0
   37.0230   31.3540   40.4220 C   0  0  0  0  0  0  0  0  0  0  0  0
   38.1740   30.5420   40.6050 C   0  0  0  0  0  0  0  0  0  0  0  0
   39.3690   31.0200   40.1320 N   0  0  0  0  0  0  0  0  0  0  0  0
   39.4610   32.2190   39.5100 C   0  0  0  0  0  0  0  0  0  0  0  0
   38.3760   32.9860   39.3370 N   0  0  0  0  0  0  0  0  0  0  0  0
   36.2660   33.1550   39.6650 H   0  0  0  0  0  0  0  0  0  0  0  0
   36.0750   31.0070   40.7830 H   0  0  0  0  0  0  0  0  0  0  0  0
   38.0700   29.2240   41.2890 C   0  0  2  0  0  3  0  0  0  0  0  0
   36.7170   28.6150   41.0010 C   0  0  0  0  0  2  0  0  0  0  0  0
   36.7800   27.2400   41.6720 C   0  0  0  0  0  2  0  0  0  0  0  0
   36.6120   27.5630   43.1390 C   0  0  0  0  0  2  0  0  0  0  0  0
   37.6230   28.4980   43.6770 C   0  0  0  0  0  3  0  0  0  0  0  0
   38.4200   29.3030   42.7170 C   0  0  0  0  0  3  0  0  0  0  0  0
  1  2  1  0  0  0  0
  2 19  1  0  0  0  0
  2  3  2  0  0  0  0
  3 11  1  0  0  0  0
  4  3  1  0  0  0  0
  4  5  1  0  0  0  0
  5 12  1  0  0  0  0
  6 13  1  0  0  0  0
  6  5  1  0  0  0  0
  7  8  1  0  0  0  0
  7  6  2  0  0  0  0
  8  4  2  0  0  0  0
  9  1  2  0  0  0  0
  9  8  1  0  0  0  0
 10  1  1  0  0  0  0
 14  9  1  0  0  0  0
 15 16  1  0  0  0  0
 16 17  2  0  0  0  0
 16 22  1  0  0  0  0
 18 17  1  0  0  0  0
 19 18  2  0  0  0  0
 20 19  1  0  0  0  0
 20 15  2  0  0  0  0
 21 15  1  0  0  0  0
 23 17  1  1  0  0  0
 23 28  1  0  0  0  0
 24 23  1  0  0  0  0
 24 25  1  0  0  0  0
 25 26  1  0  0  0  0
 26 27  1  0  0  0  0
 28 27  2  0  0  0  0
M  END
>  <minimizedAffinity>
-5.59966087

$$$$

 OpenBabel03242513023D

 28 31  0  0  1  0  0  0  0  0999 V2000
   35.0300   28.9130   38.7010 C   0  0  0  0  0  0  0  0  0  0  0  0
   36.3660   29.2210   38.7490 C   0  0  0  0  0  0  0  0  0  0  0  0
   37.1330   29.4400   37.6010 C   0  0  0  0  0  0  0  0  0  0  0  0
   36.5390   29.3480   36.3400 C   0  0  0  0  0  0  0  0  0  0  0  0
   36.9470   29.4900   35.0540 N   0  0  0  0  0  0  0  0  0  0  0  0
   35.8720   29.2710   34.2350 C   0  0  0  0  0  0  0  0  0  0  0  0
   34.8090   28.9940   35.0480 N   0  0  0  0  0  0  0  0  0  0  0  0
   35.1840   29.0350   36.3350 C   0  0  0  0  0  0  0  0  0  0  0  0
   34.4150   28.8160   37.4530 C   0  0  0  0  0  0  0  0  0  0  0  0
   34.4370   28.7430   39.5920 H   0  0  0  0  0  0  0  0  0  0  0  0
   38.1740   29.6810   37.5980 H   0  0  0  0  0  0  0  0  0  0  0  0
   37.9560   29.7310   34.8600 H   0  0  0  0  0  0  0  0  0  0  0  0
   36.0240   29.3440   33.1850 H   0  0  0  0  0  0  0  0  0  0  0  0
   33.3720   28.5770   37.3810 H   0  0  0  0  0  0  0  0  0  0  0  0
   38.0830   30.6220   41.6930 C   0  0  0  0  0  0  0  0  0  0  0  0
   38.3500   29.4820   42.4480 C   0  0  0  0  0  0  0  0  0  0  0  0
   37.9380   28.2190   41.9420 C   0  0  0  0  0  0  0  0  0  0  0  0
   37.2960   28.2010   40.7310 N   0  0  0  0  0  0  0  0  0  0  0  0
   37.0580   29.3350   40.0330 C   0  0  0  0  0  0  0  0  0  0  0  0
   37.4460   30.5260   40.5080 N   0  0  0  0  0  0  0  0  0  0  0  0
   38.4160   31.5500   42.1200 H   0  0  0  0  0  0  0  0  0  0  0  0
   38.8550   29.5280   43.3920 H   0  0  0  0  0  0  0  0  0  0  0  0
   38.2020   26.9740   42.7120 C   0  0  2  0  0  3  0  0  0  0  0  0
   39.6930   26.7380   42.7890 C   0  0  0  0  0  2  0  0  0  0  0  0
   39.8260   25.4980   43.6790 C   0  0  0  0  0  2  0  0  0  0  0  0
   39.4320   24.3670   42.7570 C   0  0  0  0  0  2  0  0  0  0  0  0
   38.0800   24.4990   42.1750 C   0  0  0  0  0  3  0  0  0  0  0  0
   37.4210   25.8290   42.2150 C   0  0  0  0  0  3  0  0  0  0  0  0
  1  2  1  0  0  0  0
  1 10  1  0  0  0  0
  2 19  1  0  0  0  0
  3  2  2  0  0  0  0
  4  3  1  0  0  0  0
  5  4  1  0  0  0  0
  6  7  2  0  0  0  0
  6  5  1  0  0  0  0
  7  8  1  0  0  0  0
  8  4  2  0  0  0  0
  8  9  1  0  0  0  0
  9  1  2  0  0  0  0
 11  3  1  0  0  0  0
 12  5  1  0  0  0  0
 13  6  1  0  0  0  0
 14  9  1  0  0  0  0
 15 21  1  0  0  0  0
 15 16  1  0  0  0  0
 16 22  1  0  0  0  0
 17 16  2  0  0  0  0
 18 17  1  0  0  0  0
 19 20  1  0  0  0  0
 19 18  2  0  0  0  0
 20 15  2  0  0  0  0
 23 17  1  6  0  0  0
 23 24  1  0  0  0  0
 24 25  1  0  0  0  0
 26 25  1  0  0  0  0
 27 28  2  0  0  0  0
 27 26  1  0  0  0  0
 28 23  1  0  0  0  0
M  END
>  <minimizedAffinity>
-5.58974361

$$$$
