
 OpenBabel03252506263D

 42 46  0  0  0  0  0  0  0  0999 V2000
   45.9750   30.2310   48.4520 C   0  0  0  0  0  0  0  0  0  0  0  0
   45.2850   31.0930   48.5500 H   0  0  0  0  0  0  0  0  0  0  0  0
   46.1270   29.8800   49.5160 H   0  0  0  0  0  0  0  0  0  0  0  0
   45.5360   27.7440   47.8820 C   0  0  0  0  0  0  0  0  0  0  0  0
   45.3290   29.1090   47.7610 C   0  0  0  0  0  0  0  0  0  0  0  0
   44.3580   29.5160   46.8460 C   0  0  0  0  0  0  0  0  0  0  0  0
   43.6360   28.6180   46.0940 C   0  0  0  0  0  0  0  0  0  0  0  0
   42.6720   28.7150   45.1740 N   0  0  0  0  0  0  0  0  0  0  0  0
   42.2950   27.4930   44.7420 C   0  0  0  0  0  0  0  0  0  0  0  0
   43.0380   26.5260   45.4010 C   0  0  0  0  0  0  0  0  0  0  0  0
   43.8540   27.2680   46.2280 C   0  0  0  0  0  0  0  0  0  0  0  0
   44.8140   26.8660   47.1320 C   0  0  0  0  0  0  0  0  0  0  0  0
   46.3020   27.5130   48.6100 H   0  0  0  0  0  0  0  0  0  0  0  0
   44.0970   30.5480   46.6540 H   0  0  0  0  0  0  0  0  0  0  0  0
   42.2590   29.6260   44.8280 H   0  0  0  0  0  0  0  0  0  0  0  0
   41.5270   27.2730   43.9920 H   0  0  0  0  0  0  0  0  0  0  0  0
   43.0150   25.4460   45.3170 H   0  0  0  0  0  0  0  0  0  0  0  0
   45.0750   25.4330   47.2990 C   0  0  0  0  0  3  0  0  0  0  0  0
   46.0460   24.8130   46.3700 C   0  0  0  0  0  2  0  0  0  0  0  0
   47.2460   24.1780   47.0120 C   0  0  0  0  0  2  0  0  0  0  0  0
   46.9040   23.1520   48.0430 C   0  0  0  0  0  2  0  0  0  0  0  0
   45.7550   23.6160   48.8770 C   0  0  0  0  0  2  0  0  0  0  0  0
   45.5960   25.1290   48.7100 C   0  0  0  0  0  2  0  0  0  0  0  0
   47.2900   30.6630   47.9380 C   0  0  0  0  0  0  0  0  0  0  0  0
   47.9930   29.8350   47.8600 H   0  0  0  0  0  0  0  0  0  0  0  0
   47.7180   31.3840   48.6820 H   0  0  0  0  0  0  0  0  0  0  0  0
   46.5310   32.8780   45.2450 C   0  0  0  0  0  0  0  0  0  0  0  0
   47.2190   31.8270   44.5870 C   0  0  0  0  0  0  0  0  0  0  0  0
   47.5760   30.8930   45.5010 C   0  0  0  0  0  0  0  0  0  0  0  0
   47.1290   31.3430   46.6780 N   0  0  0  0  0  0  0  0  0  0  0  0
   46.5100   32.5190   46.5260 N   0  0  0  0  0  0  0  0  0  0  0  0
   47.4310   31.7710   43.5260 H   0  0  0  0  0  0  0  0  0  0  0  0
   48.1150   29.9810   45.2720 H   0  0  0  0  0  0  0  0  0  0  0  0
   44.5350   35.8460   44.5840 C   0  0  0  0  0  0  0  0  0  0  0  0
   44.9680   36.2560   43.3250 C   0  0  0  0  0  0  0  0  0  0  0  0
   45.9540   35.5010   42.7040 C   0  0  0  0  0  0  0  0  0  0  0  0
   46.4410   34.4110   43.3530 N   0  0  0  0  0  0  0  0  0  0  0  0
   46.0120   34.0360   44.5590 C   0  0  0  0  0  0  0  0  0  0  0  0
   45.0520   34.7620   45.1740 N   0  0  0  0  0  0  0  0  0  0  0  0
   43.7700   36.3850   45.1270 H   0  0  0  0  0  0  0  0  0  0  0  0
   44.5440   37.1190   42.8750 H   0  0  0  0  0  0  0  0  0  0  0  0
   46.3240   35.7830   41.7190 H   0  0  0  0  0  0  0  0  0  0  0  0
  1  2  1  0  0  0  0
  1  3  1  0  0  0  0
  4 13  1  0  0  0  0
  5  4  1  0  0  0  0
  5  1  1  0  0  0  0
  6  5  2  0  0  0  0
  7 11  2  0  0  0  0
  7  6  1  0  0  0  0
  8  7  1  0  0  0  0
  9  8  1  0  0  0  0
  9 10  2  0  0  0  0
 10 11  1  0  0  0  0
 11 12  1  0  0  0  0
 12 18  1  0  0  0  0
 12  4  2  0  0  0  0
 14  6  1  0  0  0  0
 15  8  1  0  0  0  0
 16  9  1  0  0  0  0
 17 10  1  0  0  0  0
 18 23  1  0  0  0  0
 19 20  1  0  0  0  0
 19 18  1  0  0  0  0
 20 21  1  0  0  0  0
 21 22  1  0  0  0  0
 23 22  1  0  0  0  0
 24  1  1  0  0  0  0
 24 26  1  0  0  0  0
 25 24  1  0  0  0  0
 27 31  2  0  0  0  0
 28 27  1  0  0  0  0
 28 29  2  0  0  0  0
 29 30  1  0  0  0  0
 30 24  1  0  0  0  0
 31 30  1  0  0  0  0
 32 28  1  0  0  0  0
 33 29  1  0  0  0  0
 34 40  1  0  0  0  0
 34 39  1  0  0  0  0
 35 34  2  0  0  0  0
 36 35  1  0  0  0  0
 36 37  2  0  0  0  0
 37 38  1  0  0  0  0
 38 39  2  0  0  0  0
 38 27  1  0  0  0  0
 41 35  1  0  0  0  0
 42 36  1  0  0  0  0
M  END
>  <minimizedAffinity>
-5.43515348

>  <minimizedRMSD>
1.08982229

$$$$
