
 OpenBabel03242511133D

 41 45  0  0  1  0  0  0  0  0999 V2000
   50.1130   32.4230   41.3760 C   0  0  1  0  0  0  0  0  0  0  0  0
   49.1300   32.1260   40.2790 C   0  0  0  0  0  0  0  0  0  0  0  0
   48.7420   32.1140   41.7850 C   0  0  2  0  0  0  0  0  0  0  0  0
   50.4200   33.4640   41.4580 H   0  0  0  0  0  0  0  0  0  0  0  0
   48.7130   32.9390   39.6650 H   0  0  0  0  0  0  0  0  0  0  0  0
   49.1700   31.1250   39.8060 H   0  0  0  0  0  0  0  0  0  0  0  0
   48.5490   31.1150   42.2330 H   0  0  0  0  0  0  0  0  0  0  0  0
   53.0430   30.2150   40.8660 C   0  0  0  0  0  0  0  0  0  0  0  0
   53.1860   29.6170   42.1690 C   0  0  0  0  0  0  0  0  0  0  0  0
   52.2600   30.0030   43.1890 C   0  0  0  0  0  0  0  0  0  0  0  0
   51.3150   30.8860   42.8980 N   0  0  0  0  0  0  0  0  0  0  0  0
   51.2130   31.4280   41.6490 C   0  0  0  0  0  0  0  0  0  0  0  0
   52.0680   31.1020   40.6280 N   0  0  0  0  0  0  0  0  0  0  0  0
   53.7820   29.8660   40.1640 H   0  0  0  0  0  0  0  0  0  0  0  0
   53.9350   28.9090   42.4270 H   0  0  0  0  0  0  0  0  0  0  0  0
   52.4130   29.3820   44.5320 C   0  0  0  0  0  0  0  0  0  0  0  0
   53.3060   30.2480   45.3350 C   0  0  0  0  0  0  0  0  0  0  0  0
   53.9520   29.5700   46.5200 C   0  0  0  0  0  0  0  0  0  0  0  0
   54.7490   28.4060   45.9450 C   0  0  0  0  0  0  0  0  0  0  0  0
   53.7240   27.4230   45.4350 C   0  0  0  0  0  0  0  0  0  0  0  0
   52.8630   27.9720   44.3480 C   0  0  0  0  0  0  0  0  0  0  0  0
   47.9020   33.1830   42.2330 N   0  0  0  0  0  0  0  0  0  0  0  0
   47.9710   33.9020   41.4870 H   0  0  0  0  0  0  0  0  0  0  0  0
   47.2220   33.1270   43.4590 C   0  0  0  0  0  0  0  0  0  0  0  0
   47.5160   32.1250   44.3510 C   0  0  0  0  0  0  0  0  0  0  0  0
   46.9430   32.0440   45.6100 C   0  0  0  0  0  0  0  0  0  0  0  0
   46.0320   32.9890   46.0310 C   0  0  0  0  0  0  0  0  0  0  0  0
   45.7220   34.0040   45.1530 C   0  0  0  0  0  0  0  0  0  0  0  0
   44.8150   34.9650   45.5580 C   0  0  0  0  0  0  0  0  0  0  0  0
   44.4560   36.0030   44.7480 C   0  0  0  0  0  0  0  0  0  0  0  0
   45.0470   36.0470   43.4930 C   0  0  0  0  0  0  0  0  0  0  0  0
   45.9430   35.0880   43.1050 C   0  0  0  0  0  0  0  0  0  0  0  0
   46.3080   34.0530   43.9090 C   0  0  0  0  0  0  0  0  0  0  0  0
   48.2150   31.3170   44.1470 H   0  0  0  0  0  0  0  0  0  0  0  0
   47.1740   31.2550   46.3100 H   0  0  0  0  0  0  0  0  0  0  0  0
   45.5700   32.9520   47.0080 H   0  0  0  0  0  0  0  0  0  0  0  0
   44.3580   34.9250   46.5340 H   0  0  0  0  0  0  0  0  0  0  0  0
   43.7480   36.7690   45.0450 H   0  0  0  0  0  0  0  0  0  0  0  0
   44.7580   36.8730   42.8500 H   0  0  0  0  0  0  0  0  0  0  0  0
   46.4900   35.1750   41.8470 O   0  0  0  0  0  0  0  0  0  0  0  0
   45.8840   35.2630   41.0240 H   0  0  0  0  0  0  0  0  0  0  0  0
  1  4  1  1  0  0  0
  1 12  1  0  0  0  0
  1  3  1  0  0  0  0
  2  1  1  0  0  0  0
  2  3  1  0  0  0  0
  3  7  1  1  0  0  0
  3 22  1  0  0  0  0
  5  2  1  0  0  0  0
  6  2  1  0  0  0  0
  8  9  1  0  0  0  0
  9 15  1  0  0  0  0
  9 10  2  0  0  0  0
 10 16  1  0  0  0  0
 11 10  1  0  0  0  0
 12 11  2  0  0  0  0
 13  8  2  0  0  0  0
 13 12  1  0  0  0  0
 14  8  1  0  0  0  0
 16 17  1  0  0  0  0
 17 18  1  0  0  0  0
 19 18  1  0  0  0  0
 20 19  1  0  0  0  0
 21 16  1  0  0  0  0
 21 20  1  0  0  0  0
 22 24  1  0  0  0  0
 23 22  1  0  0  0  0
 24 33  2  0  0  0  0
 24 25  1  0  0  0  0
 25 26  2  0  0  0  0
 26 27  1  0  0  0  0
 26 35  1  0  0  0  0
 27 36  1  0  0  0  0
 28 29  1  0  0  0  0
 28 27  2  0  0  0  0
 29 37  1  0  0  0  0
 30 38  1  0  0  0  0
 30 29  2  0  0  0  0
 31 30  1  0  0  0  0
 32 31  2  0  0  0  0
 32 33  1  0  0  0  0
 33 28  1  0  0  0  0
 34 25  1  0  0  0  0
 39 31  1  0  0  0  0
 40 32  1  0  0  0  0
 41 40  1  0  0  0  0
M  END
>  <minimizedAffinity>
-5.25263309

>  <minimizedRMSD>
1.44659901

$$$$
