
 OpenBabel03242512373D

 31 34  0  0  0  0  0  0  0  0999 V2000
   47.6010   34.8790   42.2730 C   0  0  0  0  0  0  0  0  0  0  0  0
   48.7550   35.3950   42.3700 O   0  0  0  0  0  0  0  0  0  0  0  0
   46.1550   33.6370   40.6230 C   0  0  0  0  0  0  0  0  0  0  0  0
   47.3260   34.3420   40.9380 C   0  0  0  0  0  0  0  0  0  0  0  0
   48.2460   34.5440   39.9430 C   0  0  0  0  0  0  0  0  0  0  0  0
   48.1040   34.0990   38.6360 C   0  0  0  0  0  0  0  0  0  0  0  0
   48.8560   34.1850   37.5250 N   0  0  0  0  0  0  0  0  0  0  0  0
   48.2330   33.5760   36.5190 C   0  0  0  0  0  0  0  0  0  0  0  0
   47.0330   33.0790   37.0000 C   0  0  0  0  0  0  0  0  0  0  0  0
   46.9370   33.4030   38.3410 C   0  0  0  0  0  0  0  0  0  0  0  0
   45.9940   33.1820   39.3140 C   0  0  0  0  0  0  0  0  0  0  0  0
   45.4310   33.4760   41.4000 H   0  0  0  0  0  0  0  0  0  0  0  0
   49.1980   35.0840   40.0880 H   0  0  0  0  0  0  0  0  0  0  0  0
   49.7810   34.6470   37.4390 H   0  0  0  0  0  0  0  0  0  0  0  0
   48.4830   33.4190   35.4860 H   0  0  0  0  0  0  0  0  0  0  0  0
   46.2620   32.5360   36.5060 H   0  0  0  0  0  0  0  0  0  0  0  0
   45.0990   32.6510   39.1020 H   0  0  0  0  0  0  0  0  0  0  0  0
   46.6190   34.7950   43.3130 C   0  0  0  0  0  0  0  0  0  0  0  0
   45.6140   35.7720   43.2850 C   0  0  0  0  0  0  0  0  0  0  0  0
   44.6510   35.6860   44.3080 C   0  0  0  0  0  0  0  0  0  0  0  0
   44.7530   34.6860   45.2370 N   0  0  0  0  0  0  0  0  0  0  0  0
   45.7480   33.7830   45.1980 C   0  0  0  0  0  0  0  0  0  0  0  0
   46.6820   33.8450   44.2290 N   0  0  0  0  0  0  0  0  0  0  0  0
   45.5660   36.5550   42.5280 H   0  0  0  0  0  0  0  0  0  0  0  0
   43.8590   36.4270   44.3150 H   0  0  0  0  0  0  0  0  0  0  0  0
   45.8490   32.6990   46.2130 C   0  0  0  0  0  0  0  0  0  0  0  0
   47.2520   32.3220   46.5620 C   0  0  0  0  0  0  0  0  0  0  0  0
   47.4660   32.1430   48.0440 C   0  0  0  0  0  0  0  0  0  0  0  0
   46.3390   31.4000   48.7220 C   0  0  0  0  0  0  0  0  0  0  0  0
   44.9830   31.9630   48.3570 C   0  0  0  0  0  0  0  0  0  0  0  0
   45.1240   33.1820   47.4720 C   0  0  0  0  0  0  0  0  0  0  0  0
  1  2  2  0  0  0  0
  1 18  1  0  0  0  0
  3  4  1  0  0  0  0
  3 12  1  0  0  0  0
  4  1  1  0  0  0  0
  5 13  1  0  0  0  0
  5  4  2  0  0  0  0
  6  5  1  0  0  0  0
  7  6  1  0  0  0  0
  8  9  2  0  0  0  0
  8  7  1  0  0  0  0
  9 10  1  0  0  0  0
 10  6  2  0  0  0  0
 10 11  1  0  0  0  0
 11  3  2  0  0  0  0
 14  7  1  0  0  0  0
 15  8  1  0  0  0  0
 16  9  1  0  0  0  0
 17 11  1  0  0  0  0
 18 23  1  0  0  0  0
 19 18  2  0  0  0  0
 19 20  1  0  0  0  0
 20 25  1  0  0  0  0
 20 21  2  0  0  0  0
 22 21  1  0  0  0  0
 22 26  1  0  0  0  0
 23 22  2  0  0  0  0
 24 19  1  0  0  0  0
 26 27  1  0  0  0  0
 26 31  1  0  0  0  0
 27 28  1  0  0  0  0
 28 29  1  0  0  0  0
 30 29  1  0  0  0  0
 31 30  1  0  0  0  0
M  END
>  <minimizedAffinity>
-6.62512255

>  <minimizedRMSD>
0.638967693

$$$$
