
 OpenBabel03252504533D

 18 19  0  0  0  0  0  0  0  0999 V2000
   44.3270   35.8440   44.5150 C   0  0  0  0  0  0  0  0  0  0  0  0
   44.6850   35.1580   43.3290 C   0  0  0  0  0  0  0  0  0  0  0  0
   45.3450   33.9410   43.4700 C   0  0  0  0  0  0  0  0  0  0  0  0
   45.6190   33.4660   44.7170 N   0  0  0  0  0  0  0  0  0  0  0  0
   45.2540   34.1660   45.8320 C   0  0  0  0  0  0  0  0  0  0  0  0
   44.6140   35.3440   45.7270 N   0  0  0  0  0  0  0  0  0  0  0  0
   43.8150   36.7890   44.4250 H   0  0  0  0  0  0  0  0  0  0  0  0
   44.4330   35.5990   42.3870 H   0  0  0  0  0  0  0  0  0  0  0  0
   45.4700   33.7930   46.8120 H   0  0  0  0  0  0  0  0  0  0  0  0
   45.7100   33.2370   42.2420 C   0  0  0  0  0  0  0  0  0  0  0  0
   45.9730   32.1960   42.5230 H   0  0  0  0  0  0  0  0  0  0  0  0
   44.8990   33.1790   41.5050 H   0  0  0  0  0  0  0  0  0  0  0  0
   46.9300   33.8000   41.5660 C   0  0  0  0  0  3  0  0  0  0  0  0
   46.7630   34.0760   40.1020 C   0  0  0  0  0  2  0  0  0  0  0  0
   48.1810   34.2220   39.5460 C   0  0  0  0  0  2  0  0  0  0  0  0
   48.7830   35.4390   40.1950 C   0  0  0  0  0  2  0  0  0  0  0  0
   48.8450   35.2690   41.6950 C   0  0  0  0  0  2  0  0  0  0  0  0
   47.4170   35.0800   42.2190 C   0  0  0  0  0  2  0  0  0  0  0  0
  1  6  1  0  0  0  0
  2  3  1  0  0  0  0
  2  1  2  0  0  0  0
  3  4  2  0  0  0  0
  4  5  1  0  0  0  0
  5  9  1  0  0  0  0
  6  5  2  0  0  0  0
  7  1  1  0  0  0  0
  8  2  1  0  0  0  0
 10 11  1  0  0  0  0
 10  3  1  0  0  0  0
 12 10  1  0  0  0  0
 13 18  1  0  0  0  0
 13 10  1  0  0  0  0
 14 13  1  0  0  0  0
 15 14  1  0  0  0  0
 15 16  1  0  0  0  0
 16 17  1  0  0  0  0
 17 18  1  0  0  0  0
M  END
>  <minimizedAffinity>
-4.41167831

>  <minimizedRMSD>
1.97494602

$$$$
