
 OpenBabel03252506573D

 35 39  0  0  0  0  0  0  0  0999 V2000
   47.1630   31.2040   45.1920 C   0  0  0  0  0  0  0  0  0  0  0  0
   46.9020   32.5610   45.1600 C   0  0  0  0  0  0  0  0  0  0  0  0
   46.3540   33.2560   46.2250 C   0  0  0  0  0  0  0  0  0  0  0  0
   46.0430   32.5770   47.3970 C   0  0  0  0  0  0  0  0  0  0  0  0
   45.5130   32.9120   48.6080 N   0  0  0  0  0  0  0  0  0  0  0  0
   45.4510   31.7900   49.3640 C   0  0  0  0  0  0  0  0  0  0  0  0
   45.9420   30.7760   48.6160 N   0  0  0  0  0  0  0  0  0  0  0  0
   46.3090   31.2320   47.4150 C   0  0  0  0  0  0  0  0  0  0  0  0
   46.8490   30.5240   46.3750 C   0  0  0  0  0  0  0  0  0  0  0  0
   47.5880   30.6940   44.3520 H   0  0  0  0  0  0  0  0  0  0  0  0
   46.1570   34.3100   46.1870 H   0  0  0  0  0  0  0  0  0  0  0  0
   45.2230   33.9020   48.8450 H   0  0  0  0  0  0  0  0  0  0  0  0
   45.0660   31.7820   50.3750 H   0  0  0  0  0  0  0  0  0  0  0  0
   46.7290   35.0410   42.4390 C   0  0  0  0  0  0  0  0  0  0  0  0
   47.8100   34.6980   41.6440 C   0  0  0  0  0  0  0  0  0  0  0  0
   48.6060   33.6160   42.0350 C   0  0  0  0  0  0  0  0  0  0  0  0
   48.2750   32.9490   43.1850 N   0  0  0  0  0  0  0  0  0  0  0  0
   47.2210   33.3040   43.9350 C   0  0  0  0  0  0  0  0  0  0  0  0
   46.4420   34.3460   43.5730 N   0  0  0  0  0  0  0  0  0  0  0  0
   46.0790   35.8820   42.1710 H   0  0  0  0  0  0  0  0  0  0  0  0
   48.0420   35.2400   40.7500 H   0  0  0  0  0  0  0  0  0  0  0  0
   49.4670   33.3050   41.4470 H   0  0  0  0  0  0  0  0  0  0  0  0
   47.0970   29.0770   46.4900 C   0  0  0  0  0  0  0  0  0  0  0  0
   48.3600   28.4980   46.4130 C   0  0  0  0  0  0  0  0  0  0  0  0
   48.0880   27.1250   46.5740 C   0  0  0  0  0  0  0  0  0  0  0  0
   46.7220   26.9680   46.7330 C   0  0  0  0  0  0  0  0  0  0  0  0
   46.1810   28.1730   46.6730 O   0  0  0  0  0  0  0  0  0  0  0  0
   49.3250   28.9700   46.2670 H   0  0  0  0  0  0  0  0  0  0  0  0
   48.8230   26.3340   46.5740 H   0  0  0  0  0  0  0  0  0  0  0  0
   45.9470   25.7020   46.9360 C   0  0  0  0  0  3  0  0  0  0  0  0
   45.0470   25.7890   48.1330 C   0  0  0  0  0  2  0  0  0  0  0  0
   45.6520   25.1560   49.3640 C   0  0  0  0  0  2  0  0  0  0  0  0
   45.8850   23.6800   49.1540 C   0  0  0  0  0  2  0  0  0  0  0  0
   46.2400   23.3850   47.7270 C   0  0  0  0  0  2  0  0  0  0  0  0
   46.8910   24.5350   47.0060 C   0  0  0  0  0  2  0  0  0  0  0  0
  1  9  1  0  0  0  0
  2  1  2  0  0  0  0
  2  3  1  0  0  0  0
  3  4  2  0  0  0  0
  4  8  1  0  0  0  0
  4  5  1  0  0  0  0
  5 12  1  0  0  0  0
  5  6  1  0  0  0  0
  6 13  1  0  0  0  0
  7  6  2  0  0  0  0
  8  7  1  0  0  0  0
  9 23  1  0  0  0  0
  9  8  2  0  0  0  0
 10  1  1  0  0  0  0
 11  3  1  0  0  0  0
 14 19  1  0  0  0  0
 15 16  1  0  0  0  0
 15 14  2  0  0  0  0
 16 17  2  0  0  0  0
 17 18  1  0  0  0  0
 18  2  1  0  0  0  0
 19 18  2  0  0  0  0
 20 14  1  0  0  0  0
 21 15  1  0  0  0  0
 22 16  1  0  0  0  0
 23 27  1  0  0  0  0
 24 23  2  0  0  0  0
 24 25  1  0  0  0  0
 25 26  2  0  0  0  0
 26 30  1  0  0  0  0
 27 26  1  0  0  0  0
 28 24  1  0  0  0  0
 29 25  1  0  0  0  0
 30 35  1  0  0  0  0
 30 31  1  0  0  0  0
 31 32  1  0  0  0  0
 33 32  1  0  0  0  0
 34 33  1  0  0  0  0
 35 34  1  0  0  0  0
M  END
>  <minimizedAffinity>
-5.74156618

>  <minimizedRMSD>
0.549740136

$$$$
