REMARK  Name = 
REMARK  2 active torsions:
REMARK  status: ('A' for Active; 'I' for Inactive)
REMARK    1  A    between atoms: C_5  and  C_7
REMARK    2  A    between atoms: C_10  and  C_17
REMARK                            x       y       z     vdW  Elec       q    Type
REMARK                         _______ _______ _______ _____ _____    ______ ____
ROOT
ATOM      1  C   UNL     1      45.864  32.933  46.712  0.00  0.00    +0.000 A 
ATOM      2  C   UNL     1      45.107  32.772  47.899  0.00  0.00    +0.000 A 
ATOM      3  C   UNL     1      45.491  31.812  48.772  0.00  0.00    +0.000 A 
ATOM      4  C   UNL     1      46.622  31.005  48.483  0.00  0.00    +0.000 A 
ATOM      5  S   UNL     1      47.163  31.661  46.870  0.00  0.00    +0.000 S 
ATOM      6  H   UNL     1      44.249  33.394  48.104  0.00  0.00    +0.000 HD
ATOM      7  H   UNL     1      45.051  31.556  49.690  0.00  0.00    +0.000 HD
ENDROOT
BRANCH   1  12
ATOM      8  C   UNL     1      44.597  35.805  44.720  0.00  0.00    +0.000 A 
ATOM      9  C   UNL     1      45.274  35.569  43.505  0.00  0.00    +0.000 A 
ATOM     10  C   UNL     1      46.124  34.449  43.425  0.00  0.00    +0.000 A 
ATOM     11  N   UNL     1      46.248  33.651  44.530  0.00  0.00    +0.000 NA
ATOM     12  C   UNL     1      45.572  33.925  45.676  0.00  0.00    +0.000 A 
ATOM     13  N   UNL     1      44.749  34.997  45.774  0.00  0.00    +0.000 NA
ATOM     14  H   UNL     1      43.940  36.649  44.819  0.00  0.00    +0.000 HD
ATOM     15  H   UNL     1      45.155  36.218  42.653  0.00  0.00    +0.000 HD
ATOM     16  H   UNL     1      46.673  34.209  42.526  0.00  0.00    +0.000 HD
ENDBRANCH   1  12
BRANCH   4  17
ATOM     17  C   UNL     1      47.316  29.938  49.116  0.00  0.00    +0.000 C 
ATOM     18  C   UNL     1      47.992  29.020  48.134  0.00  0.00    +0.000 C 
ATOM     19  C   UNL     1      49.340  28.526  48.559  0.00  0.00    +0.000 C 
ATOM     20  C   UNL     1      49.411  28.140  50.010  0.00  0.00    +0.000 C 
ATOM     21  C   UNL     1      48.736  29.140  50.914  0.00  0.00    +0.000 C 
ATOM     22  C   UNL     1      48.384  30.394  50.118  0.00  0.00    +0.000 C 
ENDBRANCH   4  17
TORSDOF 2
