
     RDKit          3D

 53 57  0  0  0  0  0  0  0  0999 V2000
   47.3291   30.2131   47.6441 C   0  0  0  0  0  0  0  0  0  0  0  0
   46.5543   32.6696   45.1752 C   0  0  0  0  0  0  0  0  0  0  0  0
   47.2782   31.7080   44.4263 C   0  0  0  0  0  0  0  0  0  0  0  0
   47.6452   30.6954   45.2478 C   0  0  0  0  0  0  0  0  0  0  0  0
   47.1700   31.0133   46.4562 N   0  0  0  0  0  0  0  0  0  0  0  0
   46.5234   32.1834   46.4132 N   0  0  0  0  0  0  0  0  0  0  0  0
   44.5662   35.6966   44.8303 C   0  0  0  0  0  0  0  0  0  0  0  0
   44.9388   36.1909   43.5820 C   0  0  0  0  0  0  0  0  0  0  0  0
   45.8820   35.4725   42.8583 C   0  0  0  0  0  0  0  0  0  0  0  0
   46.3866   34.3343   43.4034 N   0  0  0  0  0  0  0  0  0  0  0  0
   46.0157   33.8793   44.6000 C   0  0  0  0  0  0  0  0  0  0  0  0
   45.0990   34.5690   45.3140 N   0  0  0  0  0  0  0  0  0  0  0  0
   46.0116   29.9475   48.2569 C   0  0  0  0  0  0  0  0  0  0  0  0
   45.1254   27.5417   47.9051 C   0  0  0  0  0  0  0  0  0  0  0  0
   45.1920   28.8999   47.6390 C   0  0  0  0  0  0  0  0  0  0  0  0
   44.3593   29.3815   46.6285 C   0  0  0  0  0  0  0  0  0  0  0  0
   43.5102   28.5600   45.9244 C   0  0  0  0  0  0  0  0  0  0  0  0
   42.6244   28.7372   44.9390 N   0  0  0  0  0  0  0  0  0  0  0  0
   42.0371   27.5680   44.6059 C   0  0  0  0  0  0  0  0  0  0  0  0
   42.5486   26.5545   45.4014 C   0  0  0  0  0  0  0  0  0  0  0  0
   43.4571   27.2153   46.2018 C   0  0  0  0  0  0  0  0  0  0  0  0
   44.2800   26.7399   47.1995 C   0  0  0  0  0  0  0  0  0  0  0  0
   47.8794   29.2958   47.4388 H   0  0  0  0  0  0  0  0  0  0  0  0
   47.9334   30.7938   48.3885 H   0  0  0  0  0  0  0  0  0  0  0  0
   47.5066   31.7636   43.3687 H   0  0  0  0  0  0  0  0  0  0  0  0
   48.2107   29.8241   44.9373 H   0  0  0  0  0  0  0  0  0  0  0  0
   43.8382   36.2033   45.4480 H   0  0  0  0  0  0  0  0  0  0  0  0
   44.5037   37.0881   43.2162 H   0  0  0  0  0  0  0  0  0  0  0  0
   46.2044   35.8201   41.8773 H   0  0  0  0  0  0  0  0  0  0  0  0
   45.4368   30.8875   48.3808 H   0  0  0  0  0  0  0  0  0  0  0  0
   46.1971   29.5995   49.3160 H   0  0  0  0  0  0  0  0  0  0  0  0
   45.7997   27.2497   48.6990 H   0  0  0  0  0  0  0  0  0  0  0  0
   44.3122   30.4173   46.3205 H   0  0  0  0  0  0  0  0  0  0  0  0
   42.4109   29.6658   44.4811 H   0  0  0  0  0  0  0  0  0  0  0  0
   41.2739   27.4174   43.8326 H   0  0  0  0  0  0  0  0  0  0  0  0
   42.3205   25.4961   45.4224 H   0  0  0  0  0  0  0  0  0  0  0  0
   44.2512   25.3100   47.5222 C   0  0  0  0  0  0  0  0  0  0  0  0
   42.9200   24.6719   47.6358 C   0  0  0  0  0  0  0  0  0  0  0  0
   42.6606   23.5340   46.6912 C   0  0  0  0  0  0  0  0  0  0  0  0
   43.6802   22.4444   46.7683 C   0  0  0  0  0  0  0  0  0  0  0  0
   45.0511   23.0227   46.8991 C   0  0  0  0  0  0  0  0  0  0  0  0
   45.0159   24.4923   46.4721 C   0  0  0  0  0  0  0  0  0  0  0  0
   44.8546   25.1705   48.4590 H   0  0  0  0  0  0  0  0  0  0  0  0
   42.8208   24.2348   48.6651 H   0  0  0  0  0  0  0  0  0  0  0  0
   42.0609   25.3589   47.5488 H   0  0  0  0  0  0  0  0  0  0  0  0
   42.5323   23.9729   45.6673 H   0  0  0  0  0  0  0  0  0  0  0  0
   41.6356   23.1428   46.9649 H   0  0  0  0  0  0  0  0  0  0  0  0
   43.3967   21.7918   47.6200 H   0  0  0  0  0  0  0  0  0  0  0  0
   43.6170   21.8657   45.8102 H   0  0  0  0  0  0  0  0  0  0  0  0
   45.7299   22.5119   46.1971 H   0  0  0  0  0  0  0  0  0  0  0  0
   45.4729   22.9251   47.9205 H   0  0  0  0  0  0  0  0  0  0  0  0
   44.4960   24.4797   45.4929 H   0  0  0  0  0  0  0  0  0  0  0  0
   46.0786   24.8009   46.4163 H   0  0  0  0  0  0  0  0  0  0  0  0
  1 13  1  0
  2  6  2  0
  3  2  1  0
  3  4  2  0
  4  5  1  0
  5  1  1  0
  6  5  1  0
  7 12  2  0
  8  7  1  0
  9 10  1  0
  9  8  2  0
 10 11  2  0
 11  2  1  0
 11 12  1  0
 15 14  2  0
 15 13  1  0
 16 15  1  0
 17 21  1  0
 17 16  2  0
 18 17  1  0
 19 18  1  0
 19 20  2  0
 20 21  1  0
 21 22  2  0
 22 14  1  0
  1 23  1  0
  1 24  1  0
  3 25  1  0
  4 26  1  0
  7 27  1  0
  8 28  1  0
  9 29  1  0
 13 30  1  0
 13 31  1  0
 14 32  1  0
 16 33  1  0
 18 34  1  0
 19 35  1  0
 20 36  1  0
 37 38  1  0
 38 39  1  0
 39 40  1  0
 40 41  1  0
 41 42  1  0
 42 37  1  0
 37 43  1  0
 38 44  1  0
 38 45  1  0
 39 46  1  0
 39 47  1  0
 40 48  1  0
 40 49  1  0
 41 50  1  0
 41 51  1  0
 42 52  1  0
 42 53  1  0
 22 37  1  0
M  ISO  8  23   8  24   8  25  14  26  14  27  14  28  14  29  14  30   8
M  ISO  6  31   8  32  14  33  14  34   9  35  14  36  14
M  END
>  <DihAtoms>  (1) 
20,21,36,37

>  <DihDeg>  (1) 
90.19933105499382

$$$$
