
 OpenBabel03242513193D

 34 37  0  0  0  0  0  0  0  0999 V2000
   36.5990   30.8140   40.9620 Cl  0  0  0  0  0  0  0  0  0  0  0  0
   36.8400   30.7450   39.2120 C   0  0  0  0  0  0  0  0  0  0  0  0
   36.2280   29.7520   38.4820 C   0  0  0  0  0  0  0  0  0  0  0  0
   36.4360   29.7440   37.1370 C   0  0  0  0  0  0  0  0  0  0  0  0
   37.2290   30.6960   36.5320 C   0  0  0  0  0  0  0  0  0  0  0  0
   37.8420   31.6910   37.2760 C   0  0  0  0  0  0  0  0  0  0  0  0
   37.6290   31.6970   38.6430 C   0  0  0  0  0  0  0  0  0  0  0  0
   35.9420   28.9490   36.5800 H   0  0  0  0  0  0  0  0  0  0  0  0
   37.3400   30.6150   35.4630 H   0  0  0  0  0  0  0  0  0  0  0  0
   38.4560   32.4160   36.7600 H   0  0  0  0  0  0  0  0  0  0  0  0
   38.3230   32.7810   39.3360 C   0  0  0  0  0  0  0  0  0  0  0  0
   37.8230   33.9530   39.8820 C   0  0  0  0  0  0  0  0  0  0  0  0
   38.8060   34.7210   40.4550 C   0  0  0  0  0  0  0  0  0  0  0  0
   39.9350   33.9490   40.2270 C   0  0  0  0  0  0  0  0  0  0  0  0
   39.5960   32.8740   39.5950 O   0  0  0  0  0  0  0  0  0  0  0  0
   36.7540   34.2260   39.8520 H   0  0  0  0  0  0  0  0  0  0  0  0
   38.7600   35.6650   40.9520 H   0  0  0  0  0  0  0  0  0  0  0  0
   40.9730   34.1650   40.5140 H   0  0  0  0  0  0  0  0  0  0  0  0
   35.4070   28.7680   39.1770 C   0  0  0  0  0  0  0  0  0  0  0  0
   34.2390   29.0960   39.4840 O   0  0  0  0  0  0  0  0  0  0  0  0
   36.2540   25.2510   38.8370 C   0  0  0  0  0  0  0  0  0  0  0  0
   36.9630   24.9190   39.9930 C   0  0  0  0  0  0  0  0  0  0  0  0
   37.1390   25.9510   40.8950 C   0  0  0  0  0  0  0  0  0  0  0  0
   36.6220   27.1860   40.6000 N   0  0  0  0  0  0  0  0  0  0  0  0
   35.9560   27.4550   39.4890 C   0  0  0  0  0  0  0  0  0  0  0  0
   35.7730   26.4650   38.5990 N   0  0  0  0  0  0  0  0  0  0  0  0
   36.0820   24.4780   38.0860 H   0  0  0  0  0  0  0  0  0  0  0  0
   37.3280   23.9150   40.1290 H   0  0  0  0  0  0  0  0  0  0  0  0
   37.8720   25.7020   42.1420 C   0  0  0  0  0  3  0  0  0  0  0  0
   38.9970   24.7170   41.9590 C   0  0  0  0  0  2  0  0  0  0  0  0
   39.7430   24.5950   43.2740 C   0  0  0  0  0  2  0  0  0  0  0  0
   40.3790   25.9600   43.5030 C   0  0  0  0  0  2  0  0  0  0  0  0
   39.2450   26.8850   43.8820 C   0  0  0  0  0  2  0  0  0  0  0  0
   38.3250   27.0220   42.7000 C   0  0  0  0  0  2  0  0  0  0  0  0
  2  1  1  0  0  0  0
  3 19  1  0  0  0  0
  3  2  2  0  0  0  0
  4  3  1  0  0  0  0
  5  4  2  0  0  0  0
  5  6  1  0  0  0  0
  6  7  2  0  0  0  0
  7  2  1  0  0  0  0
  7 11  1  0  0  0  0
  8  4  1  0  0  0  0
  9  5  1  0  0  0  0
 10  6  1  0  0  0  0
 11 15  1  0  0  0  0
 11 12  2  0  0  0  0
 12 13  1  0  0  0  0
 13 17  1  0  0  0  0
 14 13  2  0  0  0  0
 14 18  1  0  0  0  0
 15 14  1  0  0  0  0
 16 12  1  0  0  0  0
 19 20  2  0  0  0  0
 19 25  1  0  0  0  0
 21 22  1  0  0  0  0
 22 28  1  0  0  0  0
 22 23  2  0  0  0  0
 23 29  1  0  0  0  0
 24 23  1  0  0  0  0
 25 24  2  0  0  0  0
 26 21  2  0  0  0  0
 26 25  1  0  0  0  0
 27 21  1  0  0  0  0
 29 34  1  0  0  0  0
 30 29  1  0  0  0  0
 30 31  1  0  0  0  0
 31 32  1  0  0  0  0
 32 33  1  0  0  0  0
 34 33  1  0  0  0  0
M  END
>  <minimizedAffinity>
-6.74670696

$$$$

 OpenBabel03242513193D

 34 37  0  0  0  0  0  0  0  0999 V2000
   40.3250   31.1300   38.1810 Cl  0  0  0  0  0  0  0  0  0  0  0  0
   39.5960   32.5260   38.9830 C   0  0  0  0  0  0  0  0  0  0  0  0
   38.2500   32.5170   39.2690 C   0  0  0  0  0  0  0  0  0  0  0  0
   37.7350   33.6100   39.8950 C   0  0  0  0  0  0  0  0  0  0  0  0
   38.5330   34.6830   40.2290 C   0  0  0  0  0  0  0  0  0  0  0  0
   39.8870   34.6830   39.9360 C   0  0  0  0  0  0  0  0  0  0  0  0
   40.4090   33.5710   39.2990 C   0  0  0  0  0  0  0  0  0  0  0  0
   36.6680   33.5810   40.1120 H   0  0  0  0  0  0  0  0  0  0  0  0
   38.0440   35.5070   40.7230 H   0  0  0  0  0  0  0  0  0  0  0  0
   40.4760   35.5460   40.2150 H   0  0  0  0  0  0  0  0  0  0  0  0
   41.8420   33.6720   39.0280 C   0  0  0  0  0  0  0  0  0  0  0  0
   42.5050   34.1640   37.9150 C   0  0  0  0  0  0  0  0  0  0  0  0
   43.8690   34.0860   38.0450 C   0  0  0  0  0  0  0  0  0  0  0  0
   44.0000   33.5180   39.3030 C   0  0  0  0  0  0  0  0  0  0  0  0
   42.8260   33.3110   39.8020 O   0  0  0  0  0  0  0  0  0  0  0  0
   41.9840   34.5690   37.0310 H   0  0  0  0  0  0  0  0  0  0  0  0
   44.6560   34.3720   37.3820 H   0  0  0  0  0  0  0  0  0  0  0  0
   44.9240   33.2640   39.8390 H   0  0  0  0  0  0  0  0  0  0  0  0
   37.4540   31.3570   38.8850 C   0  0  0  0  0  0  0  0  0  0  0  0
   37.0800   31.2740   37.6940 O   0  0  0  0  0  0  0  0  0  0  0  0
   35.5270   28.9080   40.7550 C   0  0  0  0  0  0  0  0  0  0  0  0
   36.3910   28.4130   41.7330 C   0  0  0  0  0  0  0  0  0  0  0  0
   37.6630   28.9540   41.7260 C   0  0  0  0  0  0  0  0  0  0  0  0
   37.9750   29.9060   40.7900 N   0  0  0  0  0  0  0  0  0  0  0  0
   37.1210   30.3440   39.8800 C   0  0  0  0  0  0  0  0  0  0  0  0
   35.8790   29.8330   39.8690 N   0  0  0  0  0  0  0  0  0  0  0  0
   34.5070   28.5200   40.7090 H   0  0  0  0  0  0  0  0  0  0  0  0
   36.0460   27.6640   42.4250 H   0  0  0  0  0  0  0  0  0  0  0  0
   38.6450   28.4990   42.7160 C   0  0  0  0  0  3  0  0  0  0  0  0
   38.4930   27.0360   43.0450 C   0  0  0  0  0  2  0  0  0  0  0  0
   39.6030   26.6450   44.0040 C   0  0  0  0  0  2  0  0  0  0  0  0
   40.8910   26.7900   43.2070 C   0  0  0  0  0  2  0  0  0  0  0  0
   41.1240   28.2770   43.0650 C   0  0  0  0  0  2  0  0  0  0  0  0
   40.0190   28.8550   42.2230 C   0  0  0  0  0  2  0  0  0  0  0  0
  1  2  1  0  0  0  0
  2  3  2  0  0  0  0
  2  7  1  0  0  0  0
  3  4  1  0  0  0  0
  4  8  1  0  0  0  0
  4  5  2  0  0  0  0
  5  9  1  0  0  0  0
  6 10  1  0  0  0  0
  6  5  1  0  0  0  0
  7  6  2  0  0  0  0
 11  7  1  0  0  0  0
 11 15  1  0  0  0  0
 12 13  1  0  0  0  0
 12 11  2  0  0  0  0
 13 14  2  0  0  0  0
 14 15  1  0  0  0  0
 14 18  1  0  0  0  0
 16 12  1  0  0  0  0
 17 13  1  0  0  0  0
 19  3  1  0  0  0  0
 19 25  1  0  0  0  0
 20 19  2  0  0  0  0
 21 22  1  0  0  0  0
 22 28  1  0  0  0  0
 23 22  2  0  0  0  0
 23 29  1  0  0  0  0
 24 23  1  0  0  0  0
 25 24  2  0  0  0  0
 26 25  1  0  0  0  0
 26 21  2  0  0  0  0
 27 21  1  0  0  0  0
 29 30  1  0  0  0  0
 30 31  1  0  0  0  0
 32 31  1  0  0  0  0
 33 32  1  0  0  0  0
 34 29  1  0  0  0  0
 34 33  1  0  0  0  0
M  END
>  <minimizedAffinity>
-6.46487141

$$$$

 OpenBabel03242513193D

 34 37  0  0  0  0  0  0  0  0999 V2000
   38.8270   29.9520   42.9160 Cl  0  0  0  0  0  0  0  0  0  0  0  0
   37.4960   29.7530   41.7690 C   0  0  0  0  0  0  0  0  0  0  0  0
   36.6780   28.6510   41.8660 C   0  0  0  0  0  0  0  0  0  0  0  0
   35.6610   28.5450   40.9680 C   0  0  0  0  0  0  0  0  0  0  0  0
   35.4610   29.5060   39.9990 C   0  0  0  0  0  0  0  0  0  0  0  0
   36.2920   30.6110   39.9100 C   0  0  0  0  0  0  0  0  0  0  0  0
   37.3240   30.7180   40.8240 C   0  0  0  0  0  0  0  0  0  0  0  0
   35.0260   27.6650   41.0630 H   0  0  0  0  0  0  0  0  0  0  0  0
   34.6340   29.3430   39.3290 H   0  0  0  0  0  0  0  0  0  0  0  0
   36.0990   31.3400   39.1350 H   0  0  0  0  0  0  0  0  0  0  0  0
   38.1460   31.9130   40.6410 C   0  0  0  0  0  0  0  0  0  0  0  0
   37.7760   33.2010   40.2850 C   0  0  0  0  0  0  0  0  0  0  0  0
   38.8510   34.0510   40.2180 C   0  0  0  0  0  0  0  0  0  0  0  0
   39.8990   33.2070   40.5550 C   0  0  0  0  0  0  0  0  0  0  0  0
   39.4360   32.0220   40.7800 O   0  0  0  0  0  0  0  0  0  0  0  0
   36.7320   33.4960   40.0800 H   0  0  0  0  0  0  0  0  0  0  0  0
   38.9130   35.0900   39.9760 H   0  0  0  0  0  0  0  0  0  0  0  0
   40.9660   33.4500   40.6330 H   0  0  0  0  0  0  0  0  0  0  0  0
   36.9420   27.6640   42.9070 C   0  0  0  0  0  0  0  0  0  0  0  0
   36.4900   27.8870   44.0510 O   0  0  0  0  0  0  0  0  0  0  0  0
   37.6940   24.2660   41.8610 C   0  0  0  0  0  0  0  0  0  0  0  0
   39.0800   24.1360   41.9650 C   0  0  0  0  0  0  0  0  0  0  0  0
   39.7480   25.2620   42.4100 C   0  0  0  0  0  0  0  0  0  0  0  0
   39.0250   26.3890   42.7060 N   0  0  0  0  0  0  0  0  0  0  0  0
   37.7090   26.4650   42.5910 C   0  0  0  0  0  0  0  0  0  0  0  0
   37.0410   25.3820   42.1610 N   0  0  0  0  0  0  0  0  0  0  0  0
   37.1100   23.4100   41.5160 H   0  0  0  0  0  0  0  0  0  0  0  0
   39.5530   23.2040   41.7080 H   0  0  0  0  0  0  0  0  0  0  0  0
   41.2070   25.2250   42.5540 C   0  0  0  0  0  3  0  0  0  0  0  0
   41.9180   25.7250   41.3220 C   0  0  0  0  0  2  0  0  0  0  0  0
   43.4090   25.7310   41.6010 C   0  0  0  0  0  2  0  0  0  0  0  0
   43.6100   26.7780   42.6880 C   0  0  0  0  0  2  0  0  0  0  0  0
   43.0660   26.1650   43.9580 C   0  0  0  0  0  2  0  0  0  0  0  0
   41.5830   25.9760   43.8000 C   0  0  0  0  0  2  0  0  0  0  0  0
  2  3  1  0  0  0  0
  2  1  1  0  0  0  0
  3 19  1  0  0  0  0
  4  8  1  0  0  0  0
  4  3  2  0  0  0  0
  5  4  1  0  0  0  0
  6  5  2  0  0  0  0
  6  7  1  0  0  0  0
  7  2  2  0  0  0  0
  9  5  1  0  0  0  0
 10  6  1  0  0  0  0
 11 15  1  0  0  0  0
 11  7  1  0  0  0  0
 12 11  2  0  0  0  0
 13 12  1  0  0  0  0
 13 14  2  0  0  0  0
 14 18  1  0  0  0  0
 14 15  1  0  0  0  0
 16 12  1  0  0  0  0
 17 13  1  0  0  0  0
 19 20  2  0  0  0  0
 21 22  2  0  0  0  0
 21 26  1  0  0  0  0
 22 23  1  0  0  0  0
 23 29  1  0  0  0  0
 23 24  2  0  0  0  0
 25 24  1  0  0  0  0
 25 19  1  0  0  0  0
 26 25  2  0  0  0  0
 27 21  1  0  0  0  0
 28 22  1  0  0  0  0
 29 34  1  0  0  0  0
 30 31  1  0  0  0  0
 30 29  1  0  0  0  0
 31 32  1  0  0  0  0
 32 33  1  0  0  0  0
 34 33  1  0  0  0  0
M  END
>  <minimizedAffinity>
-6.45637131

$$$$

 OpenBabel03242513193D

 34 37  0  0  0  0  0  0  0  0999 V2000
   36.9120   26.3800   41.1300 Cl  0  0  0  0  0  0  0  0  0  0  0  0
   38.3090   26.0500   42.1630 C   0  0  0  0  0  0  0  0  0  0  0  0
   38.6800   26.9700   43.1160 C   0  0  0  0  0  0  0  0  0  0  0  0
   39.7550   26.6690   43.8930 C   0  0  0  0  0  0  0  0  0  0  0  0
   40.4440   25.4860   43.7300 C   0  0  0  0  0  0  0  0  0  0  0  0
   40.0630   24.5660   42.7670 C   0  0  0  0  0  0  0  0  0  0  0  0
   38.9700   24.8740   41.9780 C   0  0  0  0  0  0  0  0  0  0  0  0
   40.0310   27.4120   44.6410 H   0  0  0  0  0  0  0  0  0  0  0  0
   41.2830   25.3280   44.3880 H   0  0  0  0  0  0  0  0  0  0  0  0
   40.6330   23.6520   42.6740 H   0  0  0  0  0  0  0  0  0  0  0  0
   38.6540   23.8440   40.9900 C   0  0  0  0  0  0  0  0  0  0  0  0
   39.2220   23.5950   39.7510 C   0  0  0  0  0  0  0  0  0  0  0  0
   38.6410   22.5250   39.1170 C   0  0  0  0  0  0  0  0  0  0  0  0
   37.6860   22.1350   40.0430 C   0  0  0  0  0  0  0  0  0  0  0  0
   37.7450   22.9150   41.0710 O   0  0  0  0  0  0  0  0  0  0  0  0
   40.0470   24.1970   39.3320 H   0  0  0  0  0  0  0  0  0  0  0  0
   38.8390   22.0780   38.1670 H   0  0  0  0  0  0  0  0  0  0  0  0
   36.9700   21.3060   39.9690 H   0  0  0  0  0  0  0  0  0  0  0  0
   37.9180   28.2080   43.2370 C   0  0  0  0  0  0  0  0  0  0  0  0
   36.9710   28.2320   44.0550 O   0  0  0  0  0  0  0  0  0  0  0  0
   39.5960   31.2480   42.1650 C   0  0  0  0  0  0  0  0  0  0  0  0
   39.0210   31.5860   40.9390 C   0  0  0  0  0  0  0  0  0  0  0  0
   38.0310   30.7280   40.4950 C   0  0  0  0  0  0  0  0  0  0  0  0
   37.6980   29.6430   41.2630 N   0  0  0  0  0  0  0  0  0  0  0  0
   38.2730   29.3620   42.4210 C   0  0  0  0  0  0  0  0  0  0  0  0
   39.2370   30.1820   42.8720 N   0  0  0  0  0  0  0  0  0  0  0  0
   40.3830   31.8860   42.5700 H   0  0  0  0  0  0  0  0  0  0  0  0
   39.3540   32.4630   40.4130 H   0  0  0  0  0  0  0  0  0  0  0  0
   37.3640   30.9980   39.2160 C   0  0  0  0  0  3  0  0  0  0  0  0
   38.3330   31.4200   38.1420 C   0  0  0  0  0  2  0  0  0  0  0  0
   37.5630   31.5890   36.8450 C   0  0  0  0  0  2  0  0  0  0  0  0
   37.0760   30.1930   36.4820 C   0  0  0  0  0  2  0  0  0  0  0  0
   35.9640   29.8780   37.4570 C   0  0  0  0  0  2  0  0  0  0  0  0
   36.5500   29.7930   38.8390 C   0  0  0  0  0  2  0  0  0  0  0  0
  1  2  1  0  0  0  0
  2  3  1  0  0  0  0
  3 19  1  0  0  0  0
  3  4  2  0  0  0  0
  4  8  1  0  0  0  0
  5  4  1  0  0  0  0
  5  9  1  0  0  0  0
  6  5  2  0  0  0  0
  7  2  2  0  0  0  0
  7  6  1  0  0  0  0
 10  6  1  0  0  0  0
 11 15  1  0  0  0  0
 11  7  1  0  0  0  0
 12 11  2  0  0  0  0
 13 12  1  0  0  0  0
 13 14  2  0  0  0  0
 14 15  1  0  0  0  0
 16 12  1  0  0  0  0
 17 13  1  0  0  0  0
 18 14  1  0  0  0  0
 19 20  2  0  0  0  0
 21 27  1  0  0  0  0
 21 26  1  0  0  0  0
 22 21  2  0  0  0  0
 23 22  1  0  0  0  0
 23 24  2  0  0  0  0
 24 25  1  0  0  0  0
 25 26  2  0  0  0  0
 25 19  1  0  0  0  0
 28 22  1  0  0  0  0
 29 23  1  0  0  0  0
 30 29  1  0  0  0  0
 31 30  1  0  0  0  0
 32 31  1  0  0  0  0
 32 33  1  0  0  0  0
 33 34  1  0  0  0  0
 34 29  1  0  0  0  0
M  END
>  <minimizedAffinity>
-6.39004421

$$$$

 OpenBabel03242513193D

 34 37  0  0  0  0  0  0  0  0999 V2000
   39.4630   27.2990   40.5380 Cl  0  0  0  0  0  0  0  0  0  0  0  0
   38.3890   27.4490   41.9350 C   0  0  0  0  0  0  0  0  0  0  0  0
   38.3530   28.6310   42.6380 C   0  0  0  0  0  0  0  0  0  0  0  0
   37.5050   28.7020   43.7000 C   0  0  0  0  0  0  0  0  0  0  0  0
   36.7130   27.6310   44.0550 C   0  0  0  0  0  0  0  0  0  0  0  0
   36.7580   26.4450   43.3400 C   0  0  0  0  0  0  0  0  0  0  0  0
   37.6200   26.3740   42.2610 C   0  0  0  0  0  0  0  0  0  0  0  0
   37.4930   29.6480   44.2410 H   0  0  0  0  0  0  0  0  0  0  0  0
   36.0710   27.7730   44.9080 H   0  0  0  0  0  0  0  0  0  0  0  0
   36.1200   25.6300   43.6540 H   0  0  0  0  0  0  0  0  0  0  0  0
   37.5980   25.0800   41.5800 C   0  0  0  0  0  0  0  0  0  0  0  0
   36.6130   24.5070   40.7910 C   0  0  0  0  0  0  0  0  0  0  0  0
   36.9740   23.2670   40.3270 C   0  0  0  0  0  0  0  0  0  0  0  0
   38.2370   23.1170   40.8790 C   0  0  0  0  0  0  0  0  0  0  0  0
   38.5280   24.1690   41.5700 O   0  0  0  0  0  0  0  0  0  0  0  0
   35.6520   25.0020   40.5690 H   0  0  0  0  0  0  0  0  0  0  0  0
   36.4550   22.5690   39.7070 H   0  0  0  0  0  0  0  0  0  0  0  0
   38.9240   22.2660   40.7790 H   0  0  0  0  0  0  0  0  0  0  0  0
   39.2180   29.7280   42.2210 C   0  0  0  0  0  0  0  0  0  0  0  0
   40.3520   29.8090   42.7440 O   0  0  0  0  0  0  0  0  0  0  0  0
   38.7020   32.8800   40.4860 C   0  0  0  0  0  0  0  0  0  0  0  0
   37.9070   32.5770   39.3800 C   0  0  0  0  0  0  0  0  0  0  0  0
   37.5530   31.2460   39.2520 C   0  0  0  0  0  0  0  0  0  0  0  0
   37.9950   30.3490   40.1900 N   0  0  0  0  0  0  0  0  0  0  0  0
   38.7500   30.6830   41.2240 C   0  0  0  0  0  0  0  0  0  0  0  0
   39.1040   31.9710   41.3680 N   0  0  0  0  0  0  0  0  0  0  0  0
   39.0140   33.9140   40.6420 H   0  0  0  0  0  0  0  0  0  0  0  0
   37.6120   33.3580   38.7010 H   0  0  0  0  0  0  0  0  0  0  0  0
   36.7180   30.8270   38.1220 C   0  0  0  0  0  3  0  0  0  0  0  0
   37.5360   30.4040   36.9290 C   0  0  0  0  0  2  0  0  0  0  0  0
   36.5900   29.9090   35.8520 C   0  0  0  0  0  2  0  0  0  0  0  0
   35.9530   28.6500   36.4250 C   0  0  0  0  0  2  0  0  0  0  0  0
   34.9860   29.1220   37.4850 C   0  0  0  0  0  2  0  0  0  0  0  0
   35.7710   29.7620   38.5970 C   0  0  0  0  0  2  0  0  0  0  0  0
  1  2  1  0  0  0  0
  2  7  2  0  0  0  0
  2  3  1  0  0  0  0
  3  4  2  0  0  0  0
  4  5  1  0  0  0  0
  4  8  1  0  0  0  0
  5  9  1  0  0  0  0
  6 10  1  0  0  0  0
  6  5  2  0  0  0  0
  7  6  1  0  0  0  0
 11  7  1  0  0  0  0
 12 11  2  0  0  0  0
 13 12  1  0  0  0  0
 13 14  2  0  0  0  0
 14 15  1  0  0  0  0
 15 11  1  0  0  0  0
 16 12  1  0  0  0  0
 17 13  1  0  0  0  0
 18 14  1  0  0  0  0
 19  3  1  0  0  0  0
 19 20  2  0  0  0  0
 21 27  1  0  0  0  0
 21 26  1  0  0  0  0
 22 21  2  0  0  0  0
 23 22  1  0  0  0  0
 23 24  2  0  0  0  0
 24 25  1  0  0  0  0
 25 26  2  0  0  0  0
 25 19  1  0  0  0  0
 28 22  1  0  0  0  0
 29 34  1  0  0  0  0
 29 23  1  0  0  0  0
 30 29  1  0  0  0  0
 31 32  1  0  0  0  0
 31 30  1  0  0  0  0
 32 33  1  0  0  0  0
 33 34  1  0  0  0  0
M  END
>  <minimizedAffinity>
-6.25786114

$$$$

 OpenBabel03242513193D

 34 37  0  0  0  0  0  0  0  0999 V2000
   39.4290   27.3260   40.3800 Cl  0  0  0  0  0  0  0  0  0  0  0  0
   38.4080   27.5490   41.8070 C   0  0  0  0  0  0  0  0  0  0  0  0
   38.4830   28.7250   42.5160 C   0  0  0  0  0  0  0  0  0  0  0  0
   37.6720   28.8550   43.6010 C   0  0  0  0  0  0  0  0  0  0  0  0
   36.8100   27.8460   43.9730 C   0  0  0  0  0  0  0  0  0  0  0  0
   36.7420   26.6650   43.2520 C   0  0  0  0  0  0  0  0  0  0  0  0
   37.5670   26.5340   42.1490 C   0  0  0  0  0  0  0  0  0  0  0  0
   37.7490   29.7940   44.1480 H   0  0  0  0  0  0  0  0  0  0  0  0
   36.2040   28.0320   44.8440 H   0  0  0  0  0  0  0  0  0  0  0  0
   36.0520   25.8990   43.5790 H   0  0  0  0  0  0  0  0  0  0  0  0
   37.4260   25.2520   41.4620 C   0  0  0  0  0  0  0  0  0  0  0  0
   38.1070   24.0600   41.6530 C   0  0  0  0  0  0  0  0  0  0  0  0
   37.6790   23.0730   40.8000 C   0  0  0  0  0  0  0  0  0  0  0  0
   36.6960   23.7330   40.0770 C   0  0  0  0  0  0  0  0  0  0  0  0
   36.6040   24.9510   40.4970 O   0  0  0  0  0  0  0  0  0  0  0  0
   38.9010   23.9320   42.4080 H   0  0  0  0  0  0  0  0  0  0  0  0
   37.9900   22.0570   40.6870 H   0  0  0  0  0  0  0  0  0  0  0  0
   36.0680   23.3360   39.2700 H   0  0  0  0  0  0  0  0  0  0  0  0
   39.4200   29.7550   42.0810 C   0  0  0  0  0  0  0  0  0  0  0  0
   40.5310   29.8110   42.6520 O   0  0  0  0  0  0  0  0  0  0  0  0
   37.3780   31.9360   40.0120 C   0  0  0  0  0  0  0  0  0  0  0  0
   38.2300   32.4200   39.0180 C   0  0  0  0  0  0  0  0  0  0  0  0
   39.5340   31.9680   39.0850 C   0  0  0  0  0  0  0  0  0  0  0  0
   39.8870   31.1050   40.0910 N   0  0  0  0  0  0  0  0  0  0  0  0
   39.0440   30.6730   41.0130 C   0  0  0  0  0  0  0  0  0  0  0  0
   37.7710   31.0990   40.9660 N   0  0  0  0  0  0  0  0  0  0  0  0
   36.3350   32.2560   40.0120 H   0  0  0  0  0  0  0  0  0  0  0  0
   37.8520   33.0960   38.2700 H   0  0  0  0  0  0  0  0  0  0  0  0
   40.5070   32.4200   38.0840 C   0  0  0  0  0  3  0  0  0  0  0  0
   41.2960   33.6160   38.5500 C   0  0  0  0  0  2  0  0  0  0  0  0
   42.3280   33.9500   37.4880 C   0  0  0  0  0  2  0  0  0  0  0  0
   43.2830   32.7650   37.4700 C   0  0  0  0  0  2  0  0  0  0  0  0
   42.5260   31.6340   36.8130 C   0  0  0  0  0  2  0  0  0  0  0  0
   41.3720   31.2540   37.6980 C   0  0  0  0  0  2  0  0  0  0  0  0
  1  2  1  0  0  0  0
  2  7  2  0  0  0  0
  2  3  1  0  0  0  0
  3  4  2  0  0  0  0
  4  5  1  0  0  0  0
  4  8  1  0  0  0  0
  5  9  1  0  0  0  0
  6 10  1  0  0  0  0
  6  5  2  0  0  0  0
  7  6  1  0  0  0  0
 11 12  2  0  0  0  0
 11  7  1  0  0  0  0
 12 16  1  0  0  0  0
 13 12  1  0  0  0  0
 14 15  1  0  0  0  0
 14 13  2  0  0  0  0
 15 11  1  0  0  0  0
 17 13  1  0  0  0  0
 18 14  1  0  0  0  0
 19  3  1  0  0  0  0
 19 20  2  0  0  0  0
 21 26  1  0  0  0  0
 22 23  1  0  0  0  0
 22 21  2  0  0  0  0
 23 24  2  0  0  0  0
 24 25  1  0  0  0  0
 25 19  1  0  0  0  0
 26 25  2  0  0  0  0
 27 21  1  0  0  0  0
 28 22  1  0  0  0  0
 29 30  1  0  0  0  0
 29 23  1  0  0  0  0
 31 30  1  0  0  0  0
 32 31  1  0  0  0  0
 33 32  1  0  0  0  0
 33 34  1  0  0  0  0
 34 29  1  0  0  0  0
M  END
>  <minimizedAffinity>
-6.20683527

$$$$

 OpenBabel03242513193D

 34 37  0  0  0  0  0  0  0  0999 V2000
   39.7210   31.3040   42.2140 Cl  0  0  0  0  0  0  0  0  0  0  0  0
   38.3940   31.2220   41.0480 C   0  0  0  0  0  0  0  0  0  0  0  0
   38.2330   32.2370   40.1330 C   0  0  0  0  0  0  0  0  0  0  0  0
   37.2030   32.1260   39.2500 C   0  0  0  0  0  0  0  0  0  0  0  0
   36.3560   31.0390   39.2740 C   0  0  0  0  0  0  0  0  0  0  0  0
   36.5270   30.0230   40.2000 C   0  0  0  0  0  0  0  0  0  0  0  0
   37.5740   30.1360   41.0960 C   0  0  0  0  0  0  0  0  0  0  0  0
   37.0950   32.9410   38.5350 H   0  0  0  0  0  0  0  0  0  0  0  0
   35.5680   31.0310   38.5390 H   0  0  0  0  0  0  0  0  0  0  0  0
   35.8390   29.1890   40.1830 H   0  0  0  0  0  0  0  0  0  0  0  0
   37.6640   29.0190   42.0350 C   0  0  0  0  0  0  0  0  0  0  0  0
   37.9970   27.6930   41.8100 C   0  0  0  0  0  0  0  0  0  0  0  0
   37.9690   26.9470   42.9620 C   0  0  0  0  0  0  0  0  0  0  0  0
   37.5980   27.8950   43.9020 C   0  0  0  0  0  0  0  0  0  0  0  0
   37.4420   29.0370   43.3180 O   0  0  0  0  0  0  0  0  0  0  0  0
   38.2550   27.2940   40.8130 H   0  0  0  0  0  0  0  0  0  0  0  0
   38.1700   25.9120   43.1340 H   0  0  0  0  0  0  0  0  0  0  0  0
   37.4470   27.7570   44.9810 H   0  0  0  0  0  0  0  0  0  0  0  0
   39.1550   33.3660   40.1600 C   0  0  0  0  0  0  0  0  0  0  0  0
   38.9360   34.2780   40.9880 O   0  0  0  0  0  0  0  0  0  0  0  0
   42.0640   34.6050   38.3690 C   0  0  0  0  0  0  0  0  0  0  0  0
   42.4560   33.5690   37.5210 C   0  0  0  0  0  0  0  0  0  0  0  0
   41.6810   32.4260   37.5870 C   0  0  0  0  0  0  0  0  0  0  0  0
   40.6190   32.3930   38.4530 N   0  0  0  0  0  0  0  0  0  0  0  0
   40.2850   33.4020   39.2400 C   0  0  0  0  0  0  0  0  0  0  0  0
   41.0240   34.5230   39.1920 N   0  0  0  0  0  0  0  0  0  0  0  0
   42.6370   35.5350   38.3630 H   0  0  0  0  0  0  0  0  0  0  0  0
   43.3080   33.6960   36.8760 H   0  0  0  0  0  0  0  0  0  0  0  0
   42.0120   31.2800   36.7330 C   0  0  0  0  0  3  0  0  0  0  0  0
   43.4880   31.1870   36.4440 C   0  0  0  0  0  2  0  0  0  0  0  0
   43.7370   29.9280   35.6340 C   0  0  0  0  0  2  0  0  0  0  0  0
   43.3910   28.7750   36.5650 C   0  0  0  0  0  2  0  0  0  0  0  0
   41.8840   28.7720   36.6760 C   0  0  0  0  0  2  0  0  0  0  0  0
   41.4520   30.0370   37.3640 C   0  0  0  0  0  2  0  0  0  0  0  0
  2  7  1  0  0  0  0
  2  1  1  0  0  0  0
  3 19  1  0  0  0  0
  3  2  2  0  0  0  0
  4  5  2  0  0  0  0
  4  3  1  0  0  0  0
  5  6  1  0  0  0  0
  6  7  2  0  0  0  0
  7 11  1  0  0  0  0
  8  4  1  0  0  0  0
  9  5  1  0  0  0  0
 10  6  1  0  0  0  0
 11 15  1  0  0  0  0
 12 11  2  0  0  0  0
 12 13  1  0  0  0  0
 13 17  1  0  0  0  0
 13 14  2  0  0  0  0
 14 18  1  0  0  0  0
 15 14  1  0  0  0  0
 16 12  1  0  0  0  0
 19 20  2  0  0  0  0
 21 26  1  0  0  0  0
 22 23  1  0  0  0  0
 22 21  2  0  0  0  0
 23 24  2  0  0  0  0
 24 25  1  0  0  0  0
 25 19  1  0  0  0  0
 26 25  2  0  0  0  0
 27 21  1  0  0  0  0
 28 22  1  0  0  0  0
 29 34  1  0  0  0  0
 29 23  1  0  0  0  0
 30 29  1  0  0  0  0
 31 30  1  0  0  0  0
 31 32  1  0  0  0  0
 32 33  1  0  0  0  0
 33 34  1  0  0  0  0
M  END
>  <minimizedAffinity>
-6.16745138

$$$$

 OpenBabel03242513193D

 34 37  0  0  0  0  0  0  0  0999 V2000
   40.3250   30.8540   38.5090 Cl  0  0  0  0  0  0  0  0  0  0  0  0
   39.5620   32.2930   39.1980 C   0  0  0  0  0  0  0  0  0  0  0  0
   38.2450   32.2380   39.5920 C   0  0  0  0  0  0  0  0  0  0  0  0
   37.7040   33.3670   40.1240 C   0  0  0  0  0  0  0  0  0  0  0  0
   38.4470   34.5190   40.2630 C   0  0  0  0  0  0  0  0  0  0  0  0
   39.7720   34.5640   39.8620 C   0  0  0  0  0  0  0  0  0  0  0  0
   40.3220   33.4160   39.3210 C   0  0  0  0  0  0  0  0  0  0  0  0
   36.6590   33.3000   40.4290 H   0  0  0  0  0  0  0  0  0  0  0  0
   37.9400   35.3660   40.6940 H   0  0  0  0  0  0  0  0  0  0  0  0
   40.3190   35.4890   39.9880 H   0  0  0  0  0  0  0  0  0  0  0  0
   41.7210   33.5680   38.9240 C   0  0  0  0  0  0  0  0  0  0  0  0
   42.8810   33.3090   39.6360 C   0  0  0  0  0  0  0  0  0  0  0  0
   44.0110   33.5830   38.9070 C   0  0  0  0  0  0  0  0  0  0  0  0
   43.4720   34.0250   37.7080 C   0  0  0  0  0  0  0  0  0  0  0  0
   42.1830   33.9920   37.7830 O   0  0  0  0  0  0  0  0  0  0  0  0
   42.8830   32.9260   40.6710 H   0  0  0  0  0  0  0  0  0  0  0  0
   45.0470   33.4960   39.1540 H   0  0  0  0  0  0  0  0  0  0  0  0
   44.0050   34.3590   36.8080 H   0  0  0  0  0  0  0  0  0  0  0  0
   37.5050   30.9940   39.4140 C   0  0  0  0  0  0  0  0  0  0  0  0
   36.8140   30.8690   38.3790 O   0  0  0  0  0  0  0  0  0  0  0  0
   37.7520   29.4090   42.6750 C   0  0  0  0  0  0  0  0  0  0  0  0
   37.7540   28.0350   42.4290 C   0  0  0  0  0  0  0  0  0  0  0  0
   37.6680   27.6730   41.0980 C   0  0  0  0  0  0  0  0  0  0  0  0
   37.5880   28.6570   40.1460 N   0  0  0  0  0  0  0  0  0  0  0  0
   37.5890   29.9490   40.4270 C   0  0  0  0  0  0  0  0  0  0  0  0
   37.6730   30.3230   41.7150 N   0  0  0  0  0  0  0  0  0  0  0  0
   37.8190   29.7590   43.7070 H   0  0  0  0  0  0  0  0  0  0  0  0
   37.8210   27.3430   43.2500 H   0  0  0  0  0  0  0  0  0  0  0  0
   37.6630   26.2510   40.7360 C   0  0  0  0  0  3  0  0  0  0  0  0
   37.2930   25.3650   41.8970 C   0  0  0  0  0  2  0  0  0  0  0  0
   37.2300   23.9320   41.4030 C   0  0  0  0  0  2  0  0  0  0  0  0
   36.0630   23.8960   40.4260 C   0  0  0  0  0  2  0  0  0  0  0  0
   36.5380   24.6230   39.1890 C   0  0  0  0  0  2  0  0  0  0  0  0
   36.7690   26.0660   39.5420 C   0  0  0  0  0  2  0  0  0  0  0  0
  1  2  1  0  0  0  0
  2  7  2  0  0  0  0
  2  3  1  0  0  0  0
  3  4  2  0  0  0  0
  4  5  1  0  0  0  0
  4  8  1  0  0  0  0
  5  9  1  0  0  0  0
  6 10  1  0  0  0  0
  6  5  2  0  0  0  0
  7  6  1  0  0  0  0
 11  7  1  0  0  0  0
 11 12  2  0  0  0  0
 12 16  1  0  0  0  0
 13 17  1  0  0  0  0
 13 12  1  0  0  0  0
 14 15  1  0  0  0  0
 14 13  2  0  0  0  0
 15 11  1  0  0  0  0
 18 14  1  0  0  0  0
 19  3  1  0  0  0  0
 19 25  1  0  0  0  0
 20 19  2  0  0  0  0
 21 27  1  0  0  0  0
 22 21  1  0  0  0  0
 22 28  1  0  0  0  0
 23 22  2  0  0  0  0
 24 25  2  0  0  0  0
 24 23  1  0  0  0  0
 25 26  1  0  0  0  0
 26 21  2  0  0  0  0
 29 23  1  0  0  0  0
 29 30  1  0  0  0  0
 31 30  1  0  0  0  0
 32 31  1  0  0  0  0
 33 34  1  0  0  0  0
 33 32  1  0  0  0  0
 34 29  1  0  0  0  0
M  END
>  <minimizedAffinity>
-6.1225276

$$$$

 OpenBabel03242513193D

 34 37  0  0  0  0  0  0  0  0999 V2000
   39.8600   29.6470   38.3080 Cl  0  0  0  0  0  0  0  0  0  0  0  0
   39.0430   31.0710   38.9650 C   0  0  0  0  0  0  0  0  0  0  0  0
   39.6930   31.8620   39.8830 C   0  0  0  0  0  0  0  0  0  0  0  0
   39.0280   32.9520   40.3530 C   0  0  0  0  0  0  0  0  0  0  0  0
   37.7530   33.2510   39.9240 C   0  0  0  0  0  0  0  0  0  0  0  0
   37.1060   32.4470   39.0000 C   0  0  0  0  0  0  0  0  0  0  0  0
   37.7830   31.3390   38.5220 C   0  0  0  0  0  0  0  0  0  0  0  0
   39.5630   33.5640   41.0800 H   0  0  0  0  0  0  0  0  0  0  0  0
   37.3000   34.1320   40.3480 H   0  0  0  0  0  0  0  0  0  0  0  0
   36.1050   32.7180   38.6910 H   0  0  0  0  0  0  0  0  0  0  0  0
   37.0140   30.5550   37.5580 C   0  0  0  0  0  0  0  0  0  0  0  0
   36.0250   29.6060   37.7690 C   0  0  0  0  0  0  0  0  0  0  0  0
   35.5400   29.0890   36.5940 C   0  0  0  0  0  0  0  0  0  0  0  0
   36.2910   29.7780   35.6530 C   0  0  0  0  0  0  0  0  0  0  0  0
   37.0980   30.5850   36.2590 O   0  0  0  0  0  0  0  0  0  0  0  0
   35.6770   29.3090   38.7740 H   0  0  0  0  0  0  0  0  0  0  0  0
   34.7890   28.3540   36.4060 H   0  0  0  0  0  0  0  0  0  0  0  0
   36.2480   29.6940   34.5590 H   0  0  0  0  0  0  0  0  0  0  0  0
   41.0390   31.4930   40.3060 C   0  0  0  0  0  0  0  0  0  0  0  0
   42.0010   32.1040   39.7880 O   0  0  0  0  0  0  0  0  0  0  0  0
   42.6920   29.2700   42.6580 C   0  0  0  0  0  0  0  0  0  0  0  0
   41.6830   28.4710   43.1960 C   0  0  0  0  0  0  0  0  0  0  0  0
   40.4100   28.7250   42.7190 C   0  0  0  0  0  0  0  0  0  0  0  0
   40.2360   29.7110   41.7830 N   0  0  0  0  0  0  0  0  0  0  0  0
   41.2250   30.4450   41.3020 C   0  0  0  0  0  0  0  0  0  0  0  0
   42.4700   30.2150   41.7510 N   0  0  0  0  0  0  0  0  0  0  0  0
   43.7190   29.1170   42.9940 H   0  0  0  0  0  0  0  0  0  0  0  0
   41.9250   27.7200   43.9280 H   0  0  0  0  0  0  0  0  0  0  0  0
   39.2800   27.9370   43.2240 C   0  0  0  0  0  3  0  0  0  0  0  0
   38.0900   28.7940   43.5670 C   0  0  0  0  0  2  0  0  0  0  0  0
   36.9520   27.8840   43.9920 C   0  0  0  0  0  2  0  0  0  0  0  0
   36.5860   27.0900   42.7460 C   0  0  0  0  0  2  0  0  0  0  0  0
   37.7080   26.0990   42.5430 C   0  0  0  0  0  2  0  0  0  0  0  0
   38.9660   26.8590   42.2250 C   0  0  0  0  0  2  0  0  0  0  0  0
  1  2  1  0  0  0  0
  2  3  1  0  0  0  0
  3 19  1  0  0  0  0
  3  4  2  0  0  0  0
  4  8  1  0  0  0  0
  5  9  1  0  0  0  0
  5  4  1  0  0  0  0
  6  5  2  0  0  0  0
  7  2  2  0  0  0  0
  7  6  1  0  0  0  0
 10  6  1  0  0  0  0
 11 12  2  0  0  0  0
 11  7  1  0  0  0  0
 12 16  1  0  0  0  0
 13 12  1  0  0  0  0
 14 15  1  0  0  0  0
 14 13  2  0  0  0  0
 15 11  1  0  0  0  0
 17 13  1  0  0  0  0
 18 14  1  0  0  0  0
 19 25  1  0  0  0  0
 20 19  2  0  0  0  0
 21 27  1  0  0  0  0
 21 22  1  0  0  0  0
 22 28  1  0  0  0  0
 23 22  2  0  0  0  0
 23 29  1  0  0  0  0
 24 23  1  0  0  0  0
 25 26  1  0  0  0  0
 25 24  2  0  0  0  0
 26 21  2  0  0  0  0
 29 30  1  0  0  0  0
 30 31  1  0  0  0  0
 32 31  1  0  0  0  0
 33 32  1  0  0  0  0
 34 33  1  0  0  0  0
 34 29  1  0  0  0  0
M  END
>  <minimizedAffinity>
-6.01547098

$$$$
