REMARK  Name = 
REMARK  4 active torsions:
REMARK  status: ('A' for Active; 'I' for Inactive)
REMARK    1  A    between atoms: C_1  and  C_14
REMARK    2  A    between atoms: C_5  and  C_9
REMARK    3  A    between atoms: C_15  and  C_16
REMARK    4  A    between atoms: C_16  and  C_27
REMARK                            x       y       z     vdW  Elec       q    Type
REMARK                         _______ _______ _______ _____ _____    ______ ____
ROOT
ATOM      1  C   UNL     1      45.211  36.124  43.016  0.00  0.00    +0.000 A 
ATOM      2  C   UNL     1      44.212  35.785  42.090  0.00  0.00    +0.000 A 
ATOM      3  C   UNL     1      44.473  34.693  41.230  0.00  0.00    +0.000 A 
ATOM      4  N   UNL     1      45.651  34.043  41.342  0.00  0.00    +0.000 NA
ATOM      5  C   UNL     1      46.582  34.406  42.250  0.00  0.00    +0.000 A 
ATOM      6  N   UNL     1      46.362  35.438  43.078  0.00  0.00    +0.000 NA
ATOM      7  H   UNL     1      43.282  36.303  42.005  0.00  0.00    +0.000 HD
ATOM      8  H   UNL     1      43.778  34.358  40.492  0.00  0.00    +0.000 HD
ENDROOT
BRANCH   5  11
ATOM      9 CL   UNL     1      49.058  35.923  41.380  0.00  0.00    +0.000 Cl
ATOM     10  C   UNL     1      49.011  34.271  41.910  0.00  0.00    +0.000 A 
ATOM     11  C   UNL     1      47.833  33.638  42.296  0.00  0.00    +0.000 A 
ATOM     12  C   UNL     1      47.766  32.330  42.720  0.00  0.00    +0.000 A 
ATOM     13  C   UNL     1      48.962  31.636  42.752  0.00  0.00    +0.000 A 
ATOM     14  C   UNL     1      50.184  32.168  42.391  0.00  0.00    +0.000 A 
ATOM     15  C   UNL     1      50.148  33.501  41.975  0.00  0.00    +0.000 A 
ATOM     16  H   UNL     1      46.846  31.887  43.005  0.00  0.00    +0.000 HD
ATOM     17  H   UNL     1      48.998  30.599  43.074  0.00  0.00    +0.000 HD
ATOM     18  H   UNL     1      51.098  31.609  42.424  0.00  0.00    +0.000 HD
ATOM     19  H   UNL     1      51.093  33.953  41.683  0.00  0.00    +0.000 HD
ENDBRANCH   5  11
BRANCH   1  20
ATOM     20  C   UNL     1      44.955  37.259  43.919  0.00  0.00    +0.000 C 
ATOM     21  C   UNL     1      45.504  38.416  43.632  0.00  0.00    +0.000 C 
BRANCH  21  22
ATOM     22  C   UNL     1      45.293  39.604  44.494  0.00  0.00    +0.000 C 
ATOM     23  H   UNL     1      46.250  40.007  44.867  0.00  0.00    +0.000 HD
ATOM     24  H   UNL     1      44.587  39.386  45.331  0.00  0.00    +0.000 HD
BRANCH  22  25
ATOM     25  C   UNL     1      44.634  40.663  43.614  0.00  0.00    +0.000 C 
ATOM     26  C   UNL     1      44.391  41.880  44.406  0.00  0.00    +0.000 C 
ATOM     27  C   UNL     1      44.660  43.189  43.706  0.00  0.00    +0.000 C 
ATOM     28  C   UNL     1      44.171  43.020  42.282  0.00  0.00    +0.000 C 
ATOM     29  C   UNL     1      45.185  42.112  41.628  0.00  0.00    +0.000 C 
ATOM     30  C   UNL     1      45.401  40.835  42.347  0.00  0.00    +0.000 C 
ENDBRANCH  22  25
ENDBRANCH  21  22
ENDBRANCH   1  20
TORSDOF 4
