
     RDKit          3D

 29 30  0  0  0  0  0  0  0  0999 V2000
   44.3826   35.7801   44.4393 C   0  0  0  0  0  0  0  0  0  0  0  0
   44.6659   35.0658   43.2680 C   0  0  0  0  0  0  0  0  0  0  0  0
   45.2975   33.8158   43.3877 C   0  0  0  0  0  0  0  0  0  0  0  0
   45.5939   33.3772   44.6260 N   0  0  0  0  0  0  0  0  0  0  0  0
   45.3068   34.0929   45.7463 C   0  0  0  0  0  0  0  0  0  0  0  0
   44.6931   35.3115   45.6611 N   0  0  0  0  0  0  0  0  0  0  0  0
   44.2591   35.7228   42.0086 C   0  0  0  0  0  0  0  0  0  0  0  0
   43.9017   36.7492   44.4845 H   0  0  0  0  0  0  0  0  0  0  0  0
   45.4911   33.3132   42.4725 H   0  0  0  0  0  0  0  0  0  0  0  0
   44.5511   35.0595   41.1812 H   0  0  0  0  0  0  0  0  0  0  0  0
   43.1641   35.8881   42.0655 H   0  0  0  0  0  0  0  0  0  0  0  0
   44.8384   36.6692   41.9321 H   0  0  0  0  0  0  0  0  0  0  0  0
   45.6867   33.4932   47.0330 C   0  0  0  0  0  0  0  0  0  0  0  0
   46.9629   33.9801   47.6190 C   0  0  0  0  0  0  0  0  0  0  0  0
   47.9146   32.8852   48.0319 C   0  0  0  0  0  0  0  0  0  0  0  0
   47.2834   31.7364   48.7412 C   0  0  0  0  0  0  0  0  0  0  0  0
   45.9014   31.3973   48.2206 C   0  0  0  0  0  0  0  0  0  0  0  0
   45.8294   31.9833   46.8261 C   0  0  0  0  0  0  0  0  0  0  0  0
   44.8147   33.6230   47.7342 H   0  0  0  0  0  0  0  0  0  0  0  0
   46.7421   34.6583   48.4827 H   0  0  0  0  0  0  0  0  0  0  0  0
   47.5143   34.6188   46.8830 H   0  0  0  0  0  0  0  0  0  0  0  0
   48.6217   33.3516   48.7775 H   0  0  0  0  0  0  0  0  0  0  0  0
   48.5557   32.5957   47.1922 H   0  0  0  0  0  0  0  0  0  0  0  0
   47.3112   31.8302   49.8545 H   0  0  0  0  0  0  0  0  0  0  0  0
   47.9085   30.8341   48.5121 H   0  0  0  0  0  0  0  0  0  0  0  0
   45.1249   31.9530   48.8178 H   0  0  0  0  0  0  0  0  0  0  0  0
   45.7039   30.3167   48.2011 H   0  0  0  0  0  0  0  0  0  0  0  0
   46.8132   31.8085   46.3560 H   0  0  0  0  0  0  0  0  0  0  0  0
   44.9770   31.6023   46.2296 H   0  0  0  0  0  0  0  0  0  0  0  0
  1  6  2  0
  2  3  2  0
  2  1  1  0
  3  4  1  0
  4  5  2  0
  6  5  1  0
  7  2  1  0
  1  8  1  0
  3  9  1  0
  7 10  1  0
  7 11  1  0
  7 12  1  0
 13 14  1  0
 14 15  1  0
 15 16  1  0
 16 17  1  0
 17 18  1  0
 18 13  1  0
 13 19  1  0
 14 20  1  0
 14 21  1  0
 15 22  1  0
 15 23  1  0
 16 24  1  0
 16 25  1  0
 17 26  1  0
 17 27  1  0
 18 28  1  0
 18 29  1  0
  5 13  1  0
M  ISO  5   8  14   9  14  10   8  11   8  12   8
M  END
>  <DihAtoms>  (1) 
3,4,12,13

>  <DihDeg>  (1) 
53.586174692150145

$$$$
