
 OpenBabel03252503133D

 31 34  0  0  0  0  0  0  0  0999 V2000
   45.5130   36.2090   43.2470 C   0  0  0  0  0  0  0  0  0  0  0  0
   46.1530   34.9790   43.0030 C   0  0  0  0  0  0  0  0  0  0  0  0
   45.9300   34.0160   43.9650 C   0  0  0  0  0  0  0  0  0  0  0  0
   45.1580   34.2300   45.0580 N   0  0  0  0  0  0  0  0  0  0  0  0
   44.5630   35.4390   45.2420 C   0  0  0  0  0  0  0  0  0  0  0  0
   44.7440   36.4250   44.3330 N   0  0  0  0  0  0  0  0  0  0  0  0
   45.6370   37.0260   42.5340 H   0  0  0  0  0  0  0  0  0  0  0  0
   43.9580   35.5590   46.1310 H   0  0  0  0  0  0  0  0  0  0  0  0
   46.5300   32.7570   43.8100 C   0  0  0  0  0  0  0  0  0  0  0  0
   47.7710   32.2440   44.0480 C   0  0  0  0  0  0  0  0  0  0  0  0
   48.0990   30.9780   43.8110 C   0  0  0  0  0  0  0  0  0  0  0  0
   47.1110   30.1900   43.3020 C   0  0  0  0  0  0  0  0  0  0  0  0
   45.6690   31.3310   43.1700 S   0  0  0  0  0  0  0  0  0  0  0  0
   48.4930   32.9800   44.4620 H   0  0  0  0  0  0  0  0  0  0  0  0
   49.0650   30.5220   43.9810 H   0  0  0  0  0  0  0  0  0  0  0  0
   47.1180   29.1190   43.0190 H   0  0  0  0  0  0  0  0  0  0  0  0
   46.9460   34.8060   41.8500 C   0  0  0  0  0  0  0  0  0  0  0  0
   48.1500   35.2120   41.9410 O   0  0  0  0  0  0  0  0  0  0  0  0
   46.3610   34.1770   40.6210 C   0  0  0  0  0  0  0  0  0  0  0  0
   45.0360   33.9410   40.3690 C   0  0  0  0  0  0  0  0  0  0  0  0
   44.9750   33.3660   39.1590 N   0  0  0  0  0  0  0  0  0  0  0  0
   46.2360   33.2540   38.6780 C   0  0  0  0  0  0  0  0  0  0  0  0
   47.1020   33.7580   39.5880 N   0  0  0  0  0  0  0  0  0  0  0  0
   44.2030   34.1760   41.0310 H   0  0  0  0  0  0  0  0  0  0  0  0
   44.0700   33.0890   38.7410 H   0  0  0  0  0  0  0  0  0  0  0  0
   46.5960   32.6640   37.3530 C   0  0  0  0  0  3  0  0  0  0  0  0
   46.9970   31.2270   37.4350 C   0  0  0  0  0  2  0  0  0  0  0  0
   47.0180   30.6750   36.0230 C   0  0  0  0  0  2  0  0  0  0  0  0
   45.6550   30.5650   35.4120 C   0  0  0  0  0  2  0  0  0  0  0  0
   44.7270   31.4920   36.2030 C   0  0  0  0  0  2  0  0  0  0  0  0
   45.4710   32.8120   36.3600 C   0  0  0  0  0  2  0  0  0  0  0  0
  1  6  1  0  0  0  0
  2  1  2  0  0  0  0
  2  3  1  0  0  0  0
  3  4  2  0  0  0  0
  4  5  1  0  0  0  0
  5  8  1  0  0  0  0
  6  5  2  0  0  0  0
  7  1  1  0  0  0  0
  9  3  1  0  0  0  0
  9 10  2  0  0  0  0
 10 14  1  0  0  0  0
 11 15  1  0  0  0  0
 11 10  1  0  0  0  0
 12 11  2  0  0  0  0
 13 12  1  0  0  0  0
 13  9  1  0  0  0  0
 16 12  1  0  0  0  0
 17 18  2  0  0  0  0
 17  2  1  0  0  0  0
 19 17  1  0  0  0  0
 20 19  2  0  0  0  0
 20 24  1  0  0  0  0
 21 20  1  0  0  0  0
 22 21  1  0  0  0  0
 22 23  2  0  0  0  0
 23 19  1  0  0  0  0
 25 21  1  0  0  0  0
 26 27  1  0  0  0  0
 26 22  1  0  0  0  0
 28 27  1  0  0  0  0
 29 28  1  0  0  0  0
 29 30  1  0  0  0  0
 30 31  1  0  0  0  0
 31 26  1  0  0  0  0
M  END
>  <minimizedAffinity>
-4.83158875

>  <minimizedRMSD>
0.953597903

$$$$
