
 OpenBabel03242510063D

 15 16  0  0  1  0  0  0  0  0999 V2000
   45.2660   34.8430   44.6930 C   0  0  0  0  0  0  0  0  0  0  0  0
   46.1170   34.7420   43.5780 C   0  0  0  0  0  0  0  0  0  0  0  0
   46.9640   33.6330   43.5020 C   0  0  0  0  0  0  0  0  0  0  0  0
   46.9180   32.7160   44.5060 N   0  0  0  0  0  0  0  0  0  0  0  0
   46.0890   32.8380   45.5670 C   0  0  0  0  0  0  0  0  0  0  0  0
   45.2590   33.9050   45.6640 N   0  0  0  0  0  0  0  0  0  0  0  0
   44.5970   35.7060   44.7690 H   0  0  0  0  0  0  0  0  0  0  0  0
   46.1320   35.4750   42.8070 H   0  0  0  0  0  0  0  0  0  0  0  0
   47.6520   33.4690   42.6830 H   0  0  0  0  0  0  0  0  0  0  0  0
   46.1000   31.7880   46.6250 C   0  0  2  0  0  3  0  0  0  0  0  0
   46.4270   32.4660   47.9020 C   0  0  0  0  0  2  0  0  0  0  0  0
   47.8310   32.2370   48.3880 C   0  0  0  0  0  2  0  0  0  0  0  0
   47.9970   30.7440   48.5100 C   0  0  0  0  0  2  0  0  0  0  0  0
   47.8500   30.0400   47.2120 C   0  0  0  0  0  3  0  0  0  0  0  0
   46.9900   30.6850   46.1930 C   0  0  0  0  0  3  0  0  0  0  0  0
  1  7  1  0  0  0  0
  1  6  1  0  0  0  0
  2  1  2  0  0  0  0
  3  2  1  0  0  0  0
  3  4  2  0  0  0  0
  4  5  1  0  0  0  0
  5  6  2  0  0  0  0
  8  2  1  0  0  0  0
  9  3  1  0  0  0  0
 10  5  1  6  0  0  0
 10 11  1  0  0  0  0
 11 12  1  0  0  0  0
 12 13  1  0  0  0  0
 14 13  1  0  0  0  0
 15 10  1  0  0  0  0
 15 14  2  0  0  0  0
M  END
>  <minimizedAffinity>
-3.51027465

>  <minimizedRMSD>
1.45416152

$$$$
