
 OpenBabel03252508143D

 34 37  0  0  1  0  0  0  0  0999 V2000
   46.0590   30.9060   46.7840 C   0  0  0  0  0  0  0  0  0  0  0  0
   47.0960   30.5000   46.7760 H   0  0  0  0  0  0  0  0  0  0  0  0
   45.3410   30.0960   46.6420 H   0  0  0  0  0  0  0  0  0  0  0  0
   45.8870   31.6470   48.0910 C   0  0  1  0  0  0  0  0  0  0  0  0
   45.6620   30.8090   49.3000 C   0  0  0  0  0  0  0  0  0  0  0  0
   46.9230   31.5060   49.1390 C   0  0  1  0  0  0  0  0  0  0  0  0
   45.3370   32.6090   48.0610 H   0  0  0  0  0  0  0  0  0  0  0  0
   45.5440   29.7140   49.1350 H   0  0  0  0  0  0  0  0  0  0  0  0
   44.9300   31.1670   50.0750 H   0  0  0  0  0  0  0  0  0  0  0  0
   47.0610   32.4120   49.8040 H   0  0  0  0  0  0  0  0  0  0  0  0
   48.2140   30.8800   48.7630 C   0  0  0  0  0  0  0  0  0  0  0  0
   49.0820   30.4380   49.9710 C   0  0  0  0  0  0  0  0  0  0  0  0
   49.4810   31.6440   49.2060 C   0  0  0  0  0  0  0  0  0  0  0  0
   48.2970   30.3090   47.8360 H   0  0  0  0  0  0  0  0  0  0  0  0
   49.5930   29.4510   49.7930 H   0  0  0  0  0  0  0  0  0  0  0  0
   48.6160   30.4860   50.9620 H   0  0  0  0  0  0  0  0  0  0  0  0
   50.3670   31.5360   48.5270 H   0  0  0  0  0  0  0  0  0  0  0  0
   49.3550   32.5970   49.7430 H   0  0  0  0  0  0  0  0  0  0  0  0
   45.8060   33.1030   45.9390 C   0  0  0  0  0  3  0  0  0  0  0  0
   46.0350   31.8900   45.6260 C   0  0  0  0  0  3  0  0  0  0  0  0
   44.8580   36.0160   43.8960 C   0  0  0  0  0  0  0  0  0  0  0  0
   45.6660   35.8940   42.7740 C   0  0  0  0  0  0  0  0  0  0  0  0
   46.5220   34.8350   42.7440 C   0  0  0  0  0  0  0  0  0  0  0  0
   46.5310   33.9790   43.7980 N   0  0  0  0  0  0  0  0  0  0  0  0
   45.7580   34.0940   44.8720 C   0  0  0  0  0  0  0  0  0  0  0  0
   44.9270   35.1340   44.8870 N   0  0  0  0  0  0  0  0  0  0  0  0
   44.1290   36.8180   44.0470 H   0  0  0  0  0  0  0  0  0  0  0  0
   45.5410   36.6450   42.0380 H   0  0  0  0  0  0  0  0  0  0  0  0
   47.4070   34.6720   41.5420 C   0  0  0  0  0  3  0  0  0  0  0  0
   47.7920   33.2660   41.2550 C   0  0  0  0  0  2  0  0  0  0  0  0
   49.3010   33.0960   41.0980 C   0  0  0  0  0  2  0  0  0  0  0  0
   50.0420   33.6800   42.2680 C   0  0  0  0  0  2  0  0  0  0  0  0
   49.6820   35.1030   42.5480 C   0  0  0  0  0  2  0  0  0  0  0  0
   48.6040   35.5900   41.6240 C   0  0  0  0  0  2  0  0  0  0  0  0
  1  4  1  0  0  0  0
  2  1  1  0  0  0  0
  3  1  1  0  0  0  0
  4  7  1  6  0  0  0
  4  6  1  0  0  0  0
  4  5  1  0  0  0  0
  5  9  1  0  0  0  0
  6  5  1  0  0  0  0
  6 10  1  1  0  0  0
  8  5  1  0  0  0  0
 11  6  1  0  0  0  0
 11 13  1  0  0  0  0
 11 12  1  0  0  0  0
 12 16  1  0  0  0  0
 13 18  1  0  0  0  0
 13 12  1  0  0  0  0
 14 11  1  0  0  0  0
 15 12  1  0  0  0  0
 17 13  1  0  0  0  0
 20 19  2  0  0  0  0
 20  1  1  0  0  0  0
 21 27  1  0  0  0  0
 21 26  1  0  0  0  0
 22 21  2  0  0  0  0
 23 22  1  0  0  0  0
 23 24  2  0  0  0  0
 24 25  1  0  0  0  0
 25 26  2  0  0  0  0
 25 19  1  0  0  0  0
 28 22  1  0  0  0  0
 29 34  1  0  0  0  0
 29 23  1  0  0  0  0
 30 29  1  0  0  0  0
 31 30  1  0  0  0  0
 31 32  1  0  0  0  0
 32 33  1  0  0  0  0
 34 33  1  0  0  0  0
M  END
>  <minimizedAffinity>
-6.30027819

>  <minimizedRMSD>
1.34469795

$$$$
