
 OpenBabel03252503133D

 31 34  0  0  0  0  0  0  0  0999 V2000
   45.5590   36.2070   43.2620 C   0  0  0  0  0  0  0  0  0  0  0  0
   46.2020   34.9770   43.0250 C   0  0  0  0  0  0  0  0  0  0  0  0
   45.9430   34.0040   43.9690 C   0  0  0  0  0  0  0  0  0  0  0  0
   45.1370   34.2110   45.0390 N   0  0  0  0  0  0  0  0  0  0  0  0
   44.5420   35.4200   45.2170 C   0  0  0  0  0  0  0  0  0  0  0  0
   44.7570   36.4150   44.3250 N   0  0  0  0  0  0  0  0  0  0  0  0
   45.7090   37.0300   42.5620 H   0  0  0  0  0  0  0  0  0  0  0  0
   43.9090   35.5330   46.0870 H   0  0  0  0  0  0  0  0  0  0  0  0
   46.5430   32.7440   43.8200 C   0  0  0  0  0  0  0  0  0  0  0  0
   47.7810   32.2300   44.0680 C   0  0  0  0  0  0  0  0  0  0  0  0
   48.1090   30.9630   43.8350 C   0  0  0  0  0  0  0  0  0  0  0  0
   47.1240   30.1760   43.3200 C   0  0  0  0  0  0  0  0  0  0  0  0
   45.6840   31.3190   43.1760 S   0  0  0  0  0  0  0  0  0  0  0  0
   48.5010   32.9650   44.4860 H   0  0  0  0  0  0  0  0  0  0  0  0
   49.0730   30.5060   44.0130 H   0  0  0  0  0  0  0  0  0  0  0  0
   47.1310   29.1040   43.0390 H   0  0  0  0  0  0  0  0  0  0  0  0
   47.0300   34.8120   41.8970 C   0  0  0  0  0  0  0  0  0  0  0  0
   48.2360   35.1980   42.0360 O   0  0  0  0  0  0  0  0  0  0  0  0
   46.4780   34.2140   40.6370 C   0  0  0  0  0  0  0  0  0  0  0  0
   45.1680   33.9150   40.3750 C   0  0  0  0  0  0  0  0  0  0  0  0
   45.1360   33.4000   39.1370 N   0  0  0  0  0  0  0  0  0  0  0  0
   46.4000   33.3850   38.6500 C   0  0  0  0  0  0  0  0  0  0  0  0
   47.2390   33.8910   39.5840 N   0  0  0  0  0  0  0  0  0  0  0  0
   44.3260   34.0680   41.0480 H   0  0  0  0  0  0  0  0  0  0  0  0
   44.2470   33.0940   38.7060 H   0  0  0  0  0  0  0  0  0  0  0  0
   46.7890   32.8860   37.2960 C   0  0  0  0  0  3  0  0  0  0  0  0
   47.6050   31.6350   37.3410 C   0  0  0  0  0  2  0  0  0  0  0  0
   47.6530   31.0680   35.9340 C   0  0  0  0  0  2  0  0  0  0  0  0
   46.3310   30.5400   35.4680 C   0  0  0  0  0  2  0  0  0  0  0  0
   45.2510   31.1760   36.3460 C   0  0  0  0  0  2  0  0  0  0  0  0
   45.5810   32.6610   36.4240 C   0  0  0  0  0  2  0  0  0  0  0  0
  1  6  1  0  0  0  0
  2  1  2  0  0  0  0
  2  3  1  0  0  0  0
  3  4  2  0  0  0  0
  4  5  1  0  0  0  0
  5  8  1  0  0  0  0
  6  5  2  0  0  0  0
  7  1  1  0  0  0  0
  9  3  1  0  0  0  0
  9 10  2  0  0  0  0
 10 14  1  0  0  0  0
 11 15  1  0  0  0  0
 11 10  1  0  0  0  0
 12 11  2  0  0  0  0
 13 12  1  0  0  0  0
 13  9  1  0  0  0  0
 16 12  1  0  0  0  0
 17 18  2  0  0  0  0
 17  2  1  0  0  0  0
 19 17  1  0  0  0  0
 20 19  2  0  0  0  0
 20 24  1  0  0  0  0
 21 20  1  0  0  0  0
 22 21  1  0  0  0  0
 22 23  2  0  0  0  0
 23 19  1  0  0  0  0
 25 21  1  0  0  0  0
 26 27  1  0  0  0  0
 26 22  1  0  0  0  0
 28 27  1  0  0  0  0
 29 28  1  0  0  0  0
 29 30  1  0  0  0  0
 30 31  1  0  0  0  0
 31 26  1  0  0  0  0
M  END
>  <minimizedAffinity>
-4.80011654

>  <minimizedRMSD>
1.1500392

$$$$
