
 OpenBabel03252506563D

 35 39  0  0  0  0  0  0  0  0999 V2000
   47.3590   31.3730   45.2070 C   0  0  0  0  0  0  0  0  0  0  0  0
   46.9100   32.6760   45.1090 C   0  0  0  0  0  0  0  0  0  0  0  0
   46.2270   33.3240   46.1240 C   0  0  0  0  0  0  0  0  0  0  0  0
   45.9700   32.6510   47.3140 C   0  0  0  0  0  0  0  0  0  0  0  0
   45.3510   32.9510   48.4900 N   0  0  0  0  0  0  0  0  0  0  0  0
   45.4200   31.8600   49.2910 C   0  0  0  0  0  0  0  0  0  0  0  0
   46.0780   30.9000   48.6030 N   0  0  0  0  0  0  0  0  0  0  0  0
   46.4240   31.3590   47.3970 C   0  0  0  0  0  0  0  0  0  0  0  0
   47.0990   30.6990   46.4060 C   0  0  0  0  0  0  0  0  0  0  0  0
   47.8840   30.8990   44.4030 H   0  0  0  0  0  0  0  0  0  0  0  0
   45.8840   34.3360   46.0360 H   0  0  0  0  0  0  0  0  0  0  0  0
   44.9140   33.8970   48.6760 H   0  0  0  0  0  0  0  0  0  0  0  0
   45.0010   31.8330   50.2880 H   0  0  0  0  0  0  0  0  0  0  0  0
   46.5930   35.1320   42.3780 C   0  0  0  0  0  0  0  0  0  0  0  0
   47.6410   34.7920   41.5390 C   0  0  0  0  0  0  0  0  0  0  0  0
   48.4630   33.7190   41.9030 C   0  0  0  0  0  0  0  0  0  0  0  0
   48.1900   33.0590   43.0710 N   0  0  0  0  0  0  0  0  0  0  0  0
   47.1670   33.4110   43.8650 C   0  0  0  0  0  0  0  0  0  0  0  0
   46.3630   34.4440   43.5290 N   0  0  0  0  0  0  0  0  0  0  0  0
   45.9250   35.9650   42.1330 H   0  0  0  0  0  0  0  0  0  0  0  0
   47.8280   35.3280   40.6320 H   0  0  0  0  0  0  0  0  0  0  0  0
   49.3000   33.4110   41.2790 H   0  0  0  0  0  0  0  0  0  0  0  0
   47.5460   29.3070   46.5890 C   0  0  0  0  0  0  0  0  0  0  0  0
   48.8800   28.9120   46.5680 C   0  0  0  0  0  0  0  0  0  0  0  0
   48.8000   27.5220   46.7820 C   0  0  0  0  0  0  0  0  0  0  0  0
   47.4660   27.1780   46.9150 C   0  0  0  0  0  0  0  0  0  0  0  0
   46.7620   28.2900   46.7890 O   0  0  0  0  0  0  0  0  0  0  0  0
   49.7730   29.5110   46.4250 H   0  0  0  0  0  0  0  0  0  0  0  0
   49.6390   26.8440   46.8350 H   0  0  0  0  0  0  0  0  0  0  0  0
   46.8720   25.8230   47.1540 C   0  0  0  0  0  3  0  0  0  0  0  0
   46.3030   25.2360   45.8950 C   0  0  0  0  0  2  0  0  0  0  0  0
   44.8110   25.4390   45.7800 C   0  0  0  0  0  2  0  0  0  0  0  0
   44.0840   24.7420   46.9030 C   0  0  0  0  0  2  0  0  0  0  0  0
   44.8950   24.7510   48.1650 C   0  0  0  0  0  2  0  0  0  0  0  0
   45.8630   25.8990   48.2630 C   0  0  0  0  0  2  0  0  0  0  0  0
  1  9  1  0  0  0  0
  2  1  2  0  0  0  0
  2  3  1  0  0  0  0
  3  4  2  0  0  0  0
  4  8  1  0  0  0  0
  4  5  1  0  0  0  0
  5 12  1  0  0  0  0
  5  6  1  0  0  0  0
  6 13  1  0  0  0  0
  7  6  2  0  0  0  0
  8  7  1  0  0  0  0
  9 23  1  0  0  0  0
  9  8  2  0  0  0  0
 10  1  1  0  0  0  0
 11  3  1  0  0  0  0
 14 19  1  0  0  0  0
 15 16  1  0  0  0  0
 15 14  2  0  0  0  0
 16 17  2  0  0  0  0
 17 18  1  0  0  0  0
 18  2  1  0  0  0  0
 19 18  2  0  0  0  0
 20 14  1  0  0  0  0
 21 15  1  0  0  0  0
 22 16  1  0  0  0  0
 23 27  1  0  0  0  0
 24 23  2  0  0  0  0
 24 25  1  0  0  0  0
 25 29  1  0  0  0  0
 25 26  2  0  0  0  0
 26 30  1  0  0  0  0
 27 26  1  0  0  0  0
 28 24  1  0  0  0  0
 30 35  1  0  0  0  0
 31 30  1  0  0  0  0
 32 31  1  0  0  0  0
 32 33  1  0  0  0  0
 33 34  1  0  0  0  0
 34 35  1  0  0  0  0
M  END
>  <minimizedAffinity>
-5.65047836

>  <minimizedRMSD>
1.31032157

$$$$
