
 OpenBabel03252504543D

 18 19  0  0  0  0  0  0  0  0999 V2000
   44.3270   35.8440   44.5150 C   0  0  0  0  0  0  0  0  0  0  0  0
   44.6840   35.1580   43.3280 C   0  0  0  0  0  0  0  0  0  0  0  0
   45.3450   33.9410   43.4700 C   0  0  0  0  0  0  0  0  0  0  0  0
   45.6190   33.4660   44.7170 N   0  0  0  0  0  0  0  0  0  0  0  0
   45.2550   34.1660   45.8320 C   0  0  0  0  0  0  0  0  0  0  0  0
   44.6140   35.3440   45.7270 N   0  0  0  0  0  0  0  0  0  0  0  0
   43.8140   36.7890   44.4260 H   0  0  0  0  0  0  0  0  0  0  0  0
   44.4320   35.5990   42.3870 H   0  0  0  0  0  0  0  0  0  0  0  0
   45.4700   33.7930   46.8120 H   0  0  0  0  0  0  0  0  0  0  0  0
   45.7100   33.2370   42.2410 C   0  0  0  0  0  0  0  0  0  0  0  0
   45.9720   32.1960   42.5230 H   0  0  0  0  0  0  0  0  0  0  0  0
   44.8990   33.1800   41.5050 H   0  0  0  0  0  0  0  0  0  0  0  0
   46.9300   33.8000   41.5650 C   0  0  0  0  0  3  0  0  0  0  0  0
   46.7620   34.0760   40.1010 C   0  0  0  0  0  2  0  0  0  0  0  0
   48.1810   34.2200   39.5460 C   0  0  0  0  0  2  0  0  0  0  0  0
   48.7830   35.4370   40.1940 C   0  0  0  0  0  2  0  0  0  0  0  0
   48.8450   35.2690   41.6940 C   0  0  0  0  0  2  0  0  0  0  0  0
   47.4160   35.0790   42.2180 C   0  0  0  0  0  2  0  0  0  0  0  0
  1  6  1  0  0  0  0
  2  3  1  0  0  0  0
  2  1  2  0  0  0  0
  3  4  2  0  0  0  0
  4  5  1  0  0  0  0
  5  9  1  0  0  0  0
  6  5  2  0  0  0  0
  7  1  1  0  0  0  0
  8  2  1  0  0  0  0
 10 11  1  0  0  0  0
 10  3  1  0  0  0  0
 12 10  1  0  0  0  0
 13 18  1  0  0  0  0
 13 10  1  0  0  0  0
 14 13  1  0  0  0  0
 15 14  1  0  0  0  0
 15 16  1  0  0  0  0
 16 17  1  0  0  0  0
 17 18  1  0  0  0  0
M  END
>  <minimizedAffinity>
-4.41155005

>  <minimizedRMSD>
1.95085597

$$$$
