
     RDKit          3D

 35 37  0  0  0  0  0  0  0  0999 V2000
   44.6299   35.4562   45.1299 C   0  0  0  0  0  0  0  0  0  0  0  0
   45.0982   35.7144   43.8040 C   0  0  0  0  0  0  0  0  0  0  0  0
   46.0413   34.8270   43.3608 C   0  0  0  0  0  0  0  0  0  0  0  0
   46.4881   33.7810   44.1472 N   0  0  0  0  0  0  0  0  0  0  0  0
   46.0134   33.5885   45.3827 C   0  0  0  0  0  0  0  0  0  0  0  0
   45.0718   34.4375   45.8795 N   0  0  0  0  0  0  0  0  0  0  0  0
   46.5413   34.9751   41.9327 C   0  0  1  0  0  0  0  0  0  0  0  0
   48.0611   35.2777   41.9339 C   0  0  0  0  0  0  0  0  0  0  0  0
   47.3889   33.9720   41.3986 C   0  0  2  0  0  0  0  0  0  0  0  0
   44.6489   36.8116   43.0187 N   0  0  0  0  0  0  0  0  0  0  0  0
   43.8830   36.1289   45.5259 H   0  0  0  0  0  0  0  0  0  0  0  0
   46.4717   32.7289   45.8497 H   0  0  0  0  0  0  0  0  0  0  0  0
   45.9496   35.6966   41.3447 H   0  0  0  0  0  0  0  0  0  0  0  0
   48.6217   35.2228   42.8636 H   0  0  0  0  0  0  0  0  0  0  0  0
   48.3491   36.0108   41.1845 H   0  0  0  0  0  0  0  0  0  0  0  0
   47.6282   33.0927   42.0678 H   0  0  0  0  0  0  0  0  0  0  0  0
   45.1136   37.7349   42.8454 H   0  0  0  0  0  0  0  0  0  0  0  0
   43.7092   36.5328   42.6087 H   0  0  0  0  0  0  0  0  0  0  0  0
   47.5409   33.6839   39.9358 C   0  0  0  0  0  0  0  0  0  0  0  0
   48.5170   32.5573   39.6701 C   0  0  0  0  0  0  0  0  0  0  0  0
   48.8184   32.3866   38.2181 C   0  0  0  0  0  0  0  0  0  0  0  0
   47.7494   32.9492   37.3209 C   0  0  0  0  0  0  0  0  0  0  0  0
   46.4024   32.6860   37.9498 C   0  0  0  0  0  0  0  0  0  0  0  0
   46.2324   33.3295   39.3025 C   0  0  0  0  0  0  0  0  0  0  0  0
   47.9232   34.6102   39.4624 H   0  0  0  0  0  0  0  0  0  0  0  0
   48.0933   31.6045   40.0497 H   0  0  0  0  0  0  0  0  0  0  0  0
   49.4538   32.8588   40.2189 H   0  0  0  0  0  0  0  0  0  0  0  0
   48.9370   31.3126   37.9795 H   0  0  0  0  0  0  0  0  0  0  0  0
   49.7543   32.9620   37.9868 H   0  0  0  0  0  0  0  0  0  0  0  0
   47.9022   33.9961   37.0506 H   0  0  0  0  0  0  0  0  0  0  0  0
   47.7641   32.3765   36.3755 H   0  0  0  0  0  0  0  0  0  0  0  0
   46.2797   31.5915   38.0851 H   0  0  0  0  0  0  0  0  0  0  0  0
   45.6117   32.9972   37.2266 H   0  0  0  0  0  0  0  0  0  0  0  0
   45.6183   34.2483   39.1494 H   0  0  0  0  0  0  0  0  0  0  0  0
   45.6772   32.6353   39.9953 H   0  0  0  0  0  0  0  0  0  0  0  0
  1  6  2  0
  2  1  1  0
  3  2  2  0
  3  4  1  0
  4  5  2  0
  5  6  1  0
  7  3  1  0
  8  7  1  0
  9  8  1  0
  9  7  1  0
 10  2  1  0
  1 11  1  0
  5 12  1  0
  7 13  1  6
  8 14  1  0
  8 15  1  0
  9 16  1  1
 10 17  1  0
 10 18  1  0
 19 20  1  0
 20 21  1  0
 21 22  1  0
 22 23  1  0
 23 24  1  0
 24 19  1  0
 19 25  1  0
 20 26  1  0
 20 27  1  0
 21 28  1  0
 21 29  1  0
 22 30  1  0
 22 31  1  0
 23 32  1  0
 23 33  1  0
 24 34  1  0
 24 35  1  0
  9 19  1  0
M  ISO  6  11  14  12  14  13  13  14  13  15  13  16  13
M  END
>  <DihAtoms>  (1) 
7,8,18,19

>  <DihDeg>  (1) 
-13.602938366458762

$$$$
