
 OpenBabel03252506533D

 28 31  0  0  0  0  0  0  0  0999 V2000
   38.3700   30.4210   39.8330 C   0  0  0  0  0  0  0  0  0  0  0  0
   38.5640   31.0680   38.6260 C   0  0  0  0  0  0  0  0  0  0  0  0
   37.7520   30.8540   37.5140 C   0  0  0  0  0  0  0  0  0  0  0  0
   36.6900   29.9430   37.6130 C   0  0  0  0  0  0  0  0  0  0  0  0
   35.7230   29.4990   36.7550 N   0  0  0  0  0  0  0  0  0  0  0  0
   34.9620   28.5940   37.4520 C   0  0  0  0  0  0  0  0  0  0  0  0
   35.4700   28.5060   38.6970 N   0  0  0  0  0  0  0  0  0  0  0  0
   36.5270   29.3170   38.8310 C   0  0  0  0  0  0  0  0  0  0  0  0
   37.3120   29.5120   39.9350 C   0  0  0  0  0  0  0  0  0  0  0  0
   39.0220   30.6150   40.6700 H   0  0  0  0  0  0  0  0  0  0  0  0
   37.8920   31.3520   36.5670 H   0  0  0  0  0  0  0  0  0  0  0  0
   35.6130   29.8040   35.7810 H   0  0  0  0  0  0  0  0  0  0  0  0
   34.1060   28.0500   37.0660 H   0  0  0  0  0  0  0  0  0  0  0  0
   41.5260   32.8270   37.3350 C   0  0  0  0  0  0  0  0  0  0  0  0
   41.6810   33.8650   38.2520 C   0  0  0  0  0  0  0  0  0  0  0  0
   40.7600   33.9670   39.3280 C   0  0  0  0  0  0  0  0  0  0  0  0
   39.7870   33.0130   39.3590 N   0  0  0  0  0  0  0  0  0  0  0  0
   39.6530   32.0230   38.4720 C   0  0  0  0  0  0  0  0  0  0  0  0
   40.5170   31.9320   37.4660 N   0  0  0  0  0  0  0  0  0  0  0  0
   42.2100   32.7160   36.4990 H   0  0  0  0  0  0  0  0  0  0  0  0
   42.4850   34.5780   38.1480 H   0  0  0  0  0  0  0  0  0  0  0  0
   40.8440   34.7480   40.0540 H   0  0  0  0  0  0  0  0  0  0  0  0
   37.0590   28.7920   41.1970 C   0  0  0  0  0  3  0  0  0  0  0  0
   37.4330   29.5160   42.4490 C   0  0  0  0  0  2  0  0  0  0  0  0
   37.5880   28.4840   43.5560 C   0  0  0  0  0  2  0  0  0  0  0  0
   36.6900   27.2880   43.3570 C   0  0  0  0  0  2  0  0  0  0  0  0
   36.9740   26.5420   42.0890 C   0  0  0  0  0  2  0  0  0  0  0  0
   37.8100   27.4700   41.2010 C   0  0  0  0  0  2  0  0  0  0  0  0
  1  9  1  0  0  0  0
  1 10  1  0  0  0  0
  2  1  2  0  0  0  0
  3  4  2  0  0  0  0
  3  2  1  0  0  0  0
  4  8  1  0  0  0  0
  5  6  1  0  0  0  0
  5  4  1  0  0  0  0
  6  7  2  0  0  0  0
  7  8  1  0  0  0  0
  8  9  2  0  0  0  0
  9 23  1  0  0  0  0
 11  3  1  0  0  0  0
 12  5  1  0  0  0  0
 13  6  1  0  0  0  0
 14 19  2  0  0  0  0
 14 15  1  0  0  0  0
 15 16  2  0  0  0  0
 16 17  1  0  0  0  0
 16 22  1  0  0  0  0
 18  2  1  0  0  0  0
 18 17  2  0  0  0  0
 19 18  1  0  0  0  0
 20 14  1  0  0  0  0
 21 15  1  0  0  0  0
 23 28  1  0  0  0  0
 23 24  1  0  0  0  0
 24 25  1  0  0  0  0
 26 25  1  0  0  0  0
 27 26  1  0  0  0  0
 28 27  1  0  0  0  0
M  END
>  <minimizedAffinity>
-5.57856894

$$$$

 OpenBabel03252506533D

 28 31  0  0  0  0  0  0  0  0999 V2000
   36.7270   30.4240   39.1710 C   0  0  0  0  0  0  0  0  0  0  0  0
   35.7970   29.4010   39.1270 C   0  0  0  0  0  0  0  0  0  0  0  0
   35.5830   28.5280   40.1910 C   0  0  0  0  0  0  0  0  0  0  0  0
   36.3410   28.6830   41.3610 C   0  0  0  0  0  0  0  0  0  0  0  0
   36.3980   28.0330   42.5620 N   0  0  0  0  0  0  0  0  0  0  0  0
   37.3570   28.6670   43.3100 C   0  0  0  0  0  0  0  0  0  0  0  0
   37.8560   29.6740   42.5660 N   0  0  0  0  0  0  0  0  0  0  0  0
   37.2590   29.7130   41.3690 C   0  0  0  0  0  0  0  0  0  0  0  0
   37.4840   30.5830   40.3360 C   0  0  0  0  0  0  0  0  0  0  0  0
   36.8620   31.0800   38.3250 H   0  0  0  0  0  0  0  0  0  0  0  0
   34.8610   27.7260   40.1700 H   0  0  0  0  0  0  0  0  0  0  0  0
   35.8190   27.2260   42.8230 H   0  0  0  0  0  0  0  0  0  0  0  0
   37.6550   28.4040   44.3200 H   0  0  0  0  0  0  0  0  0  0  0  0
   32.9430   28.7450   36.9000 C   0  0  0  0  0  0  0  0  0  0  0  0
   33.5250   28.8260   35.6360 C   0  0  0  0  0  0  0  0  0  0  0  0
   34.9130   29.1100   35.5430 C   0  0  0  0  0  0  0  0  0  0  0  0
   35.5590   29.2800   36.7300 N   0  0  0  0  0  0  0  0  0  0  0  0
   34.9860   29.1980   37.9350 C   0  0  0  0  0  0  0  0  0  0  0  0
   33.6860   28.9320   38.0180 N   0  0  0  0  0  0  0  0  0  0  0  0
   31.8850   28.5300   37.0130 H   0  0  0  0  0  0  0  0  0  0  0  0
   32.9330   28.6770   34.7460 H   0  0  0  0  0  0  0  0  0  0  0  0
   35.3980   29.1810   34.5920 H   0  0  0  0  0  0  0  0  0  0  0  0
   38.4910   31.6560   40.4390 C   0  0  0  0  0  3  0  0  0  0  0  0
   37.9720   33.0520   40.3300 C   0  0  0  0  0  2  0  0  0  0  0  0
   39.1350   33.9540   39.9490 C   0  0  0  0  0  2  0  0  0  0  0  0
   40.4540   33.4460   40.4770 C   0  0  0  0  0  2  0  0  0  0  0  0
   40.8210   32.0940   39.9460 C   0  0  0  0  0  2  0  0  0  0  0  0
   39.5450   31.4830   39.3560 C   0  0  0  0  0  2  0  0  0  0  0  0
  1  9  1  0  0  0  0
  2  1  2  0  0  0  0
  2  3  1  0  0  0  0
  3  4  2  0  0  0  0
  4  8  1  0  0  0  0
  4  5  1  0  0  0  0
  5 12  1  0  0  0  0
  5  6  1  0  0  0  0
  6 13  1  0  0  0  0
  7  6  2  0  0  0  0
  8  7  1  0  0  0  0
  9 23  1  0  0  0  0
  9  8  2  0  0  0  0
 10  1  1  0  0  0  0
 11  3  1  0  0  0  0
 14 20  1  0  0  0  0
 14 19  1  0  0  0  0
 15 14  2  0  0  0  0
 16 15  1  0  0  0  0
 16 17  2  0  0  0  0
 17 18  1  0  0  0  0
 18 19  2  0  0  0  0
 18  2  1  0  0  0  0
 21 15  1  0  0  0  0
 22 16  1  0  0  0  0
 24 23  1  0  0  0  0
 25 24  1  0  0  0  0
 25 26  1  0  0  0  0
 27 26  1  0  0  0  0
 28 27  1  0  0  0  0
 28 23  1  0  0  0  0
M  END
>  <minimizedAffinity>
-5.47709274

$$$$

 OpenBabel03252506533D

 28 31  0  0  0  0  0  0  0  0999 V2000
   37.1400   29.2840   39.0470 C   0  0  0  0  0  0  0  0  0  0  0  0
   37.0150   30.0270   37.8860 C   0  0  0  0  0  0  0  0  0  0  0  0
   37.3570   31.3750   37.8100 C   0  0  0  0  0  0  0  0  0  0  0  0
   37.8500   32.0170   38.9560 C   0  0  0  0  0  0  0  0  0  0  0  0
   38.2710   33.2860   39.2390 N   0  0  0  0  0  0  0  0  0  0  0  0
   38.6430   33.2930   40.5600 C   0  0  0  0  0  0  0  0  0  0  0  0
   38.4450   32.0520   41.0480 N   0  0  0  0  0  0  0  0  0  0  0  0
   37.9610   31.2460   40.0940 C   0  0  0  0  0  0  0  0  0  0  0  0
   37.6310   29.9210   40.1910 C   0  0  0  0  0  0  0  0  0  0  0  0
   36.8640   28.2420   39.0630 H   0  0  0  0  0  0  0  0  0  0  0  0
   37.2650   31.9660   36.9120 H   0  0  0  0  0  0  0  0  0  0  0  0
   38.2940   34.0630   38.5700 H   0  0  0  0  0  0  0  0  0  0  0  0
   39.0270   34.1470   41.1100 H   0  0  0  0  0  0  0  0  0  0  0  0
   35.4690   27.6410   35.5510 C   0  0  0  0  0  0  0  0  0  0  0  0
   35.5760   28.3050   34.3300 C   0  0  0  0  0  0  0  0  0  0  0  0
   36.1860   29.5880   34.3030 C   0  0  0  0  0  0  0  0  0  0  0  0
   36.6180   30.0570   35.5070 N   0  0  0  0  0  0  0  0  0  0  0  0
   36.5080   29.4060   36.6690 C   0  0  0  0  0  0  0  0  0  0  0  0
   35.9370   28.2060   36.6900 N   0  0  0  0  0  0  0  0  0  0  0  0
   35.0090   26.6590   35.6120 H   0  0  0  0  0  0  0  0  0  0  0  0
   35.2040   27.8550   33.4220 H   0  0  0  0  0  0  0  0  0  0  0  0
   36.2880   30.1300   33.3870 H   0  0  0  0  0  0  0  0  0  0  0  0
   37.7850   29.1790   41.4560 C   0  0  0  0  0  3  0  0  0  0  0  0
   39.1660   28.7050   41.7730 C   0  0  0  0  0  2  0  0  0  0  0  0
   39.0510   27.5740   42.7830 C   0  0  0  0  0  2  0  0  0  0  0  0
   37.8460   27.7240   43.6790 C   0  0  0  0  0  2  0  0  0  0  0  0
   36.5480   27.7090   42.9310 C   0  0  0  0  0  2  0  0  0  0  0  0
   36.8800   27.9570   41.4550 C   0  0  0  0  0  2  0  0  0  0  0  0
  1 10  1  0  0  0  0
  1  9  1  0  0  0  0
  2  1  2  0  0  0  0
  3  2  1  0  0  0  0
  3  4  2  0  0  0  0
  4  5  1  0  0  0  0
  4  8  1  0  0  0  0
  5  6  1  0  0  0  0
  6  7  2  0  0  0  0
  6 13  1  0  0  0  0
  8  9  2  0  0  0  0
  8  7  1  0  0  0  0
  9 23  1  0  0  0  0
 11  3  1  0  0  0  0
 12  5  1  0  0  0  0
 14 20  1  0  0  0  0
 14 19  1  0  0  0  0
 15 14  2  0  0  0  0
 16 15  1  0  0  0  0
 16 17  2  0  0  0  0
 17 18  1  0  0  0  0
 18 19  2  0  0  0  0
 18  2  1  0  0  0  0
 21 15  1  0  0  0  0
 22 16  1  0  0  0  0
 23 24  1  0  0  0  0
 24 25  1  0  0  0  0
 25 26  1  0  0  0  0
 27 26  1  0  0  0  0
 28 23  1  0  0  0  0
 28 27  1  0  0  0  0
M  END
>  <minimizedAffinity>
-5.46987581

$$$$

 OpenBabel03252506533D

 28 31  0  0  0  0  0  0  0  0999 V2000
   37.5580   29.0040   39.8690 C   0  0  0  0  0  0  0  0  0  0  0  0
   38.2470   29.3010   41.0310 C   0  0  0  0  0  0  0  0  0  0  0  0
   38.5020   30.6060   41.4460 C   0  0  0  0  0  0  0  0  0  0  0  0
   38.0430   31.6720   40.6580 C   0  0  0  0  0  0  0  0  0  0  0  0
   38.1080   33.0340   40.7540 N   0  0  0  0  0  0  0  0  0  0  0  0
   37.4600   33.5380   39.6540 C   0  0  0  0  0  0  0  0  0  0  0  0
   37.0200   32.4940   38.9240 N   0  0  0  0  0  0  0  0  0  0  0  0
   37.3590   31.3380   39.5080 C   0  0  0  0  0  0  0  0  0  0  0  0
   37.0980   30.0640   39.0810 C   0  0  0  0  0  0  0  0  0  0  0  0
   37.3810   27.9790   39.5830 H   0  0  0  0  0  0  0  0  0  0  0  0
   39.0380   30.8520   42.3500 H   0  0  0  0  0  0  0  0  0  0  0  0
   38.5620   33.5510   41.5160 H   0  0  0  0  0  0  0  0  0  0  0  0
   37.3270   34.5900   39.4200 H   0  0  0  0  0  0  0  0  0  0  0  0
   40.2000   27.4240   43.5210 C   0  0  0  0  0  0  0  0  0  0  0  0
   39.6260   26.1560   43.4570 C   0  0  0  0  0  0  0  0  0  0  0  0
   38.5550   25.9370   42.5500 C   0  0  0  0  0  0  0  0  0  0  0  0
   38.1830   27.0200   41.8100 N   0  0  0  0  0  0  0  0  0  0  0  0
   38.7450   28.2300   41.8830 C   0  0  0  0  0  0  0  0  0  0  0  0
   39.7470   28.4300   42.7340 N   0  0  0  0  0  0  0  0  0  0  0  0
   41.0200   27.6310   44.2020 H   0  0  0  0  0  0  0  0  0  0  0  0
   39.9860   25.3540   44.0840 H   0  0  0  0  0  0  0  0  0  0  0  0
   38.0870   24.9790   42.4690 H   0  0  0  0  0  0  0  0  0  0  0  0
   36.3570   29.8070   37.8320 C   0  0  0  0  0  3  0  0  0  0  0  0
   35.0040   29.1950   37.9890 C   0  0  0  0  0  2  0  0  0  0  0  0
   34.6270   28.5500   36.6640 C   0  0  0  0  0  2  0  0  0  0  0  0
   35.2410   29.2610   35.4840 C   0  0  0  0  0  2  0  0  0  0  0  0
   36.7390   29.2560   35.5050 C   0  0  0  0  0  2  0  0  0  0  0  0
   37.1650   28.8860   36.9300 C   0  0  0  0  0  2  0  0  0  0  0  0
  1  2  1  0  0  0  0
  2  3  2  0  0  0  0
  2 18  1  0  0  0  0
  3 11  1  0  0  0  0
  4  5  1  0  0  0  0
  4  3  1  0  0  0  0
  5 12  1  0  0  0  0
  6  5  1  0  0  0  0
  7  8  1  0  0  0  0
  7  6  2  0  0  0  0
  8  4  2  0  0  0  0
  9  8  1  0  0  0  0
  9  1  2  0  0  0  0
 10  1  1  0  0  0  0
 13  6  1  0  0  0  0
 14 20  1  0  0  0  0
 15 14  1  0  0  0  0
 15 21  1  0  0  0  0
 16 15  2  0  0  0  0
 17 18  2  0  0  0  0
 17 16  1  0  0  0  0
 18 19  1  0  0  0  0
 19 14  2  0  0  0  0
 22 16  1  0  0  0  0
 23 24  1  0  0  0  0
 23  9  1  0  0  0  0
 25 24  1  0  0  0  0
 26 27  1  0  0  0  0
 26 25  1  0  0  0  0
 27 28  1  0  0  0  0
 28 23  1  0  0  0  0
M  END
>  <minimizedAffinity>
-5.42828369

$$$$

 OpenBabel03252506533D

 28 31  0  0  0  0  0  0  0  0999 V2000
   35.9950   27.2510   38.9980 C   0  0  0  0  0  0  0  0  0  0  0  0
   35.3230   28.4590   38.9410 C   0  0  0  0  0  0  0  0  0  0  0  0
   35.4210   29.4270   39.9380 C   0  0  0  0  0  0  0  0  0  0  0  0
   36.2350   29.1750   41.0530 C   0  0  0  0  0  0  0  0  0  0  0  0
   36.5580   29.8710   42.1830 N   0  0  0  0  0  0  0  0  0  0  0  0
   37.4160   29.0800   42.9040 C   0  0  0  0  0  0  0  0  0  0  0  0
   37.5970   27.9370   42.2120 N   0  0  0  0  0  0  0  0  0  0  0  0
   36.8900   27.9610   41.0750 C   0  0  0  0  0  0  0  0  0  0  0  0
   36.8080   26.9960   40.1070 C   0  0  0  0  0  0  0  0  0  0  0  0
   35.8920   26.5280   38.2040 H   0  0  0  0  0  0  0  0  0  0  0  0
   34.9020   30.3730   39.9070 H   0  0  0  0  0  0  0  0  0  0  0  0
   36.2080   30.8070   42.4190 H   0  0  0  0  0  0  0  0  0  0  0  0
   37.8670   29.3330   43.8580 H   0  0  0  0  0  0  0  0  0  0  0  0
   34.1350   29.0940   35.5180 C   0  0  0  0  0  0  0  0  0  0  0  0
   32.7810   29.3610   35.7150 C   0  0  0  0  0  0  0  0  0  0  0  0
   32.2650   29.3230   37.0380 C   0  0  0  0  0  0  0  0  0  0  0  0
   33.1690   29.0210   38.0110 N   0  0  0  0  0  0  0  0  0  0  0  0
   34.4650   28.7690   37.8050 C   0  0  0  0  0  0  0  0  0  0  0  0
   34.9430   28.8040   36.5650 N   0  0  0  0  0  0  0  0  0  0  0  0
   34.5660   29.1120   34.5210 H   0  0  0  0  0  0  0  0  0  0  0  0
   32.1360   29.5910   34.8810 H   0  0  0  0  0  0  0  0  0  0  0  0
   31.2320   29.5220   37.2330 H   0  0  0  0  0  0  0  0  0  0  0  0
   37.5480   25.7260   40.2210 C   0  0  0  0  0  3  0  0  0  0  0  0
   37.8990   25.0560   38.9330 C   0  0  0  0  0  2  0  0  0  0  0  0
   38.1730   23.5890   39.2300 C   0  0  0  0  0  2  0  0  0  0  0  0
   38.7260   23.3770   40.6170 C   0  0  0  0  0  2  0  0  0  0  0  0
   37.7910   23.8230   41.7000 C   0  0  0  0  0  2  0  0  0  0  0  0
   36.7440   24.7290   41.0420 C   0  0  0  0  0  2  0  0  0  0  0  0
  1  9  1  0  0  0  0
  2  1  2  0  0  0  0
  2  3  1  0  0  0  0
  3  4  2  0  0  0  0
  4  8  1  0  0  0  0
  4  5  1  0  0  0  0
  5 12  1  0  0  0  0
  5  6  1  0  0  0  0
  6 13  1  0  0  0  0
  7  6  2  0  0  0  0
  8  7  1  0  0  0  0
  9 23  1  0  0  0  0
  9  8  2  0  0  0  0
 10  1  1  0  0  0  0
 11  3  1  0  0  0  0
 14 15  2  0  0  0  0
 14 19  1  0  0  0  0
 15 16  1  0  0  0  0
 16 22  1  0  0  0  0
 16 17  2  0  0  0  0
 18 17  1  0  0  0  0
 18  2  1  0  0  0  0
 19 18  2  0  0  0  0
 20 14  1  0  0  0  0
 21 15  1  0  0  0  0
 23 28  1  0  0  0  0
 24 25  1  0  0  0  0
 24 23  1  0  0  0  0
 25 26  1  0  0  0  0
 26 27  1  0  0  0  0
 28 27  1  0  0  0  0
M  END
>  <minimizedAffinity>
-5.41342306

$$$$

 OpenBabel03252506533D

 28 31  0  0  0  0  0  0  0  0999 V2000
   37.5800   30.0830   39.6690 C   0  0  0  0  0  0  0  0  0  0  0  0
   38.3640   30.7840   40.5670 C   0  0  0  0  0  0  0  0  0  0  0  0
   38.4120   30.4810   41.9260 C   0  0  0  0  0  0  0  0  0  0  0  0
   37.6330   29.4210   42.4140 C   0  0  0  0  0  0  0  0  0  0  0  0
   37.4380   28.8610   43.6450 N   0  0  0  0  0  0  0  0  0  0  0  0
   36.5430   27.8350   43.4750 C   0  0  0  0  0  0  0  0  0  0  0  0
   36.2160   27.7890   42.1680 N   0  0  0  0  0  0  0  0  0  0  0  0
   36.8640   28.7450   41.4900 C   0  0  0  0  0  0  0  0  0  0  0  0
   36.8030   29.0250   40.1520 C   0  0  0  0  0  0  0  0  0  0  0  0
   37.5720   30.3500   38.6240 H   0  0  0  0  0  0  0  0  0  0  0  0
   39.0190   31.0190   42.6380 H   0  0  0  0  0  0  0  0  0  0  0  0
   37.8900   29.1710   44.5130 H   0  0  0  0  0  0  0  0  0  0  0  0
   36.1680   27.1800   44.2550 H   0  0  0  0  0  0  0  0  0  0  0  0
   40.7370   32.8190   38.6280 C   0  0  0  0  0  0  0  0  0  0  0  0
   40.7200   34.0330   39.3130 C   0  0  0  0  0  0  0  0  0  0  0  0
   39.8850   34.1590   40.4550 C   0  0  0  0  0  0  0  0  0  0  0  0
   39.1620   33.0500   40.7780 N   0  0  0  0  0  0  0  0  0  0  0  0
   39.1910   31.8930   40.1110 C   0  0  0  0  0  0  0  0  0  0  0  0
   39.9730   31.7800   39.0420 N   0  0  0  0  0  0  0  0  0  0  0  0
   41.3620   32.6840   37.7500 H   0  0  0  0  0  0  0  0  0  0  0  0
   41.3280   34.8620   38.9840 H   0  0  0  0  0  0  0  0  0  0  0  0
   39.8430   35.0730   41.0090 H   0  0  0  0  0  0  0  0  0  0  0  0
   35.9470   28.2440   39.2390 C   0  0  0  0  0  3  0  0  0  0  0  0
   36.5420   26.9810   38.7060 C   0  0  0  0  0  2  0  0  0  0  0  0
   35.7770   26.6000   37.4480 C   0  0  0  0  0  2  0  0  0  0  0  0
   34.3390   27.0550   37.4900 C   0  0  0  0  0  2  0  0  0  0  0  0
   34.1930   28.5420   37.5970 C   0  0  0  0  0  2  0  0  0  0  0  0
   35.5520   29.0950   38.0420 C   0  0  0  0  0  2  0  0  0  0  0  0
  1  9  2  0  0  0  0
  1  2  1  0  0  0  0
  2  3  2  0  0  0  0
  3  4  1  0  0  0  0
  3 11  1  0  0  0  0
  4  5  1  0  0  0  0
  5 12  1  0  0  0  0
  6  5  1  0  0  0  0
  6 13  1  0  0  0  0
  7  6  2  0  0  0  0
  8  7  1  0  0  0  0
  8  4  2  0  0  0  0
  9  8  1  0  0  0  0
 10  1  1  0  0  0  0
 14 19  2  0  0  0  0
 14 15  1  0  0  0  0
 15 16  2  0  0  0  0
 16 17  1  0  0  0  0
 16 22  1  0  0  0  0
 18  2  1  0  0  0  0
 18 17  2  0  0  0  0
 19 18  1  0  0  0  0
 20 14  1  0  0  0  0
 21 15  1  0  0  0  0
 23  9  1  0  0  0  0
 24 23  1  0  0  0  0
 25 26  1  0  0  0  0
 25 24  1  0  0  0  0
 26 27  1  0  0  0  0
 27 28  1  0  0  0  0
 28 23  1  0  0  0  0
M  END
>  <minimizedAffinity>
-5.32906723

$$$$

 OpenBabel03252506533D

 28 31  0  0  0  0  0  0  0  0999 V2000
   38.9740   30.2000   38.0320 C   0  0  0  0  0  0  0  0  0  0  0  0
   40.2090   30.8000   37.8680 C   0  0  0  0  0  0  0  0  0  0  0  0
   40.4970   32.0780   38.3410 C   0  0  0  0  0  0  0  0  0  0  0  0
   39.4970   32.7960   39.0140 C   0  0  0  0  0  0  0  0  0  0  0  0
   39.4280   34.0310   39.5940 N   0  0  0  0  0  0  0  0  0  0  0  0
   38.1580   34.1600   40.0980 C   0  0  0  0  0  0  0  0  0  0  0  0
   37.4910   33.0220   39.8220 N   0  0  0  0  0  0  0  0  0  0  0  0
   38.2790   32.1660   39.1590 C   0  0  0  0  0  0  0  0  0  0  0  0
   37.9740   30.9120   38.7030 C   0  0  0  0  0  0  0  0  0  0  0  0
   38.7910   29.2070   37.6510 H   0  0  0  0  0  0  0  0  0  0  0  0
   41.4560   32.5580   38.2190 H   0  0  0  0  0  0  0  0  0  0  0  0
   40.1970   34.7100   39.6290 H   0  0  0  0  0  0  0  0  0  0  0  0
   37.7660   35.0240   40.6250 H   0  0  0  0  0  0  0  0  0  0  0  0
   43.2560   30.0890   35.9320 C   0  0  0  0  0  0  0  0  0  0  0  0
   43.2650   28.6960   35.8900 C   0  0  0  0  0  0  0  0  0  0  0  0
   42.2140   27.9880   36.5320 C   0  0  0  0  0  0  0  0  0  0  0  0
   41.2740   28.7610   37.1440 N   0  0  0  0  0  0  0  0  0  0  0  0
   41.2800   30.0970   37.1750 C   0  0  0  0  0  0  0  0  0  0  0  0
   42.2650   30.7550   36.5730 N   0  0  0  0  0  0  0  0  0  0  0  0
   44.0410   30.6650   35.4530 H   0  0  0  0  0  0  0  0  0  0  0  0
   44.0530   28.1640   35.3790 H   0  0  0  0  0  0  0  0  0  0  0  0
   42.1840   26.9180   36.5220 H   0  0  0  0  0  0  0  0  0  0  0  0
   36.6390   30.3210   38.9080 C   0  0  0  0  0  3  0  0  0  0  0  0
   36.3360   29.8500   40.2920 C   0  0  0  0  0  2  0  0  0  0  0  0
   35.1930   28.8510   40.2060 C   0  0  0  0  0  2  0  0  0  0  0  0
   34.2630   29.1390   39.0540 C   0  0  0  0  0  2  0  0  0  0  0  0
   34.9390   29.0700   37.7180 C   0  0  0  0  0  2  0  0  0  0  0  0
   36.4490   29.1330   37.9770 C   0  0  0  0  0  2  0  0  0  0  0  0
  1  9  1  0  0  0  0
  2  1  2  0  0  0  0
  2  3  1  0  0  0  0
  3  4  2  0  0  0  0
  4  8  1  0  0  0  0
  4  5  1  0  0  0  0
  5 12  1  0  0  0  0
  5  6  1  0  0  0  0
  6 13  1  0  0  0  0
  7  6  2  0  0  0  0
  8  7  1  0  0  0  0
  9 23  1  0  0  0  0
  9  8  2  0  0  0  0
 10  1  1  0  0  0  0
 11  3  1  0  0  0  0
 14 19  1  0  0  0  0
 15 14  2  0  0  0  0
 15 16  1  0  0  0  0
 16 17  2  0  0  0  0
 17 18  1  0  0  0  0
 18  2  1  0  0  0  0
 19 18  2  0  0  0  0
 20 14  1  0  0  0  0
 21 15  1  0  0  0  0
 22 16  1  0  0  0  0
 23 24  1  0  0  0  0
 25 24  1  0  0  0  0
 26 25  1  0  0  0  0
 27 28  1  0  0  0  0
 27 26  1  0  0  0  0
 28 23  1  0  0  0  0
M  END
>  <minimizedAffinity>
-5.19357538

$$$$

 OpenBabel03252506533D

 28 31  0  0  0  0  0  0  0  0999 V2000
   35.9410   28.3650   39.0950 C   0  0  0  0  0  0  0  0  0  0  0  0
   35.6370   28.8160   37.8230 C   0  0  0  0  0  0  0  0  0  0  0  0
   36.4630   29.6800   37.1090 C   0  0  0  0  0  0  0  0  0  0  0  0
   37.6590   30.1190   37.6980 C   0  0  0  0  0  0  0  0  0  0  0  0
   38.6770   30.9410   37.3050 N   0  0  0  0  0  0  0  0  0  0  0  0
   39.5790   30.9750   38.3390 C   0  0  0  0  0  0  0  0  0  0  0  0
   39.1010   30.1890   39.3240 N   0  0  0  0  0  0  0  0  0  0  0  0
   37.9290   29.6500   38.9660 C   0  0  0  0  0  0  0  0  0  0  0  0
   37.1320   28.8000   39.6850 C   0  0  0  0  0  0  0  0  0  0  0  0
   35.2730   27.6960   39.6140 H   0  0  0  0  0  0  0  0  0  0  0  0
   36.2380   30.0390   36.1170 H   0  0  0  0  0  0  0  0  0  0  0  0
   38.7290   31.4250   36.4010 H   0  0  0  0  0  0  0  0  0  0  0  0
   40.5080   31.5360   38.3560 H   0  0  0  0  0  0  0  0  0  0  0  0
   33.0720   26.7430   36.1910 C   0  0  0  0  0  0  0  0  0  0  0  0
   32.0580   27.6650   35.9380 C   0  0  0  0  0  0  0  0  0  0  0  0
   32.2530   29.0160   36.3300 C   0  0  0  0  0  0  0  0  0  0  0  0
   33.4450   29.2860   36.9330 N   0  0  0  0  0  0  0  0  0  0  0  0
   34.4070   28.3890   37.1680 C   0  0  0  0  0  0  0  0  0  0  0  0
   34.2200   27.1260   36.8000 N   0  0  0  0  0  0  0  0  0  0  0  0
   32.9610   25.7010   35.9070 H   0  0  0  0  0  0  0  0  0  0  0  0
   31.1430   27.3610   35.4530 H   0  0  0  0  0  0  0  0  0  0  0  0
   31.5000   29.7560   36.1530 H   0  0  0  0  0  0  0  0  0  0  0  0
   37.5070   28.3530   41.0390 C   0  0  0  0  0  3  0  0  0  0  0  0
   36.9490   27.0360   41.4710 C   0  0  0  0  0  2  0  0  0  0  0  0
   37.0000   26.9830   42.9900 C   0  0  0  0  0  2  0  0  0  0  0  0
   38.1460   27.7850   43.5550 C   0  0  0  0  0  2  0  0  0  0  0  0
   38.0680   29.2430   43.2210 C   0  0  0  0  0  2  0  0  0  0  0  0
   37.0690   29.3850   42.0670 C   0  0  0  0  0  2  0  0  0  0  0  0
  1 10  1  0  0  0  0
  1  9  1  0  0  0  0
  2  1  2  0  0  0  0
  3  4  2  0  0  0  0
  3  2  1  0  0  0  0
  4  8  1  0  0  0  0
  5  4  1  0  0  0  0
  5  6  1  0  0  0  0
  6 13  1  0  0  0  0
  6  7  2  0  0  0  0
  8  7  1  0  0  0  0
  8  9  2  0  0  0  0
  9 23  1  0  0  0  0
 11  3  1  0  0  0  0
 12  5  1  0  0  0  0
 14 19  1  0  0  0  0
 15 14  2  0  0  0  0
 15 16  1  0  0  0  0
 16 17  2  0  0  0  0
 17 18  1  0  0  0  0
 18  2  1  0  0  0  0
 19 18  2  0  0  0  0
 20 14  1  0  0  0  0
 21 15  1  0  0  0  0
 22 16  1  0  0  0  0
 23 24  1  0  0  0  0
 23 28  1  0  0  0  0
 24 25  1  0  0  0  0
 25 26  1  0  0  0  0
 27 26  1  0  0  0  0
 28 27  1  0  0  0  0
M  END
>  <minimizedAffinity>
-5.13603258

$$$$

 OpenBabel03252506533D

 28 31  0  0  0  0  0  0  0  0999 V2000
   39.9610   29.2550   39.5840 C   0  0  0  0  0  0  0  0  0  0  0  0
   40.4090   29.9210   38.4580 C   0  0  0  0  0  0  0  0  0  0  0  0
   39.9410   31.1800   38.0870 C   0  0  0  0  0  0  0  0  0  0  0  0
   38.9720   31.8070   38.8840 C   0  0  0  0  0  0  0  0  0  0  0  0
   38.3080   33.0000   38.8270 N   0  0  0  0  0  0  0  0  0  0  0  0
   37.4710   33.0380   39.9150 C   0  0  0  0  0  0  0  0  0  0  0  0
   37.6390   31.8900   40.6000 N   0  0  0  0  0  0  0  0  0  0  0  0
   38.5490   31.1130   39.9990 C   0  0  0  0  0  0  0  0  0  0  0  0
   38.9950   29.8770   40.3820 C   0  0  0  0  0  0  0  0  0  0  0  0
   40.3490   28.2810   39.8360 H   0  0  0  0  0  0  0  0  0  0  0  0
   40.2820   31.7100   37.2110 H   0  0  0  0  0  0  0  0  0  0  0  0
   38.4340   33.7110   38.0980 H   0  0  0  0  0  0  0  0  0  0  0  0
   36.7980   33.8500   40.1720 H   0  0  0  0  0  0  0  0  0  0  0  0
   42.9550   29.4300   35.8480 C   0  0  0  0  0  0  0  0  0  0  0  0
   43.3010   28.0900   36.0150 C   0  0  0  0  0  0  0  0  0  0  0  0
   42.6550   27.3430   37.0360 C   0  0  0  0  0  0  0  0  0  0  0  0
   41.7350   28.0270   37.7720 N   0  0  0  0  0  0  0  0  0  0  0  0
   41.4150   29.3120   37.5970 C   0  0  0  0  0  0  0  0  0  0  0  0
   42.0220   30.0090   36.6410 N   0  0  0  0  0  0  0  0  0  0  0  0
   43.4260   30.0350   35.0790 H   0  0  0  0  0  0  0  0  0  0  0  0
   44.0440   27.6290   35.3830 H   0  0  0  0  0  0  0  0  0  0  0  0
   42.8910   26.3120   37.1970 H   0  0  0  0  0  0  0  0  0  0  0  0
   38.4800   29.2140   41.5940 C   0  0  0  0  0  3  0  0  0  0  0  0
   39.5090   28.7240   42.5590 C   0  0  0  0  0  2  0  0  0  0  0  0
   38.8600   27.6640   43.4350 C   0  0  0  0  0  2  0  0  0  0  0  0
   37.3830   27.9030   43.6290 C   0  0  0  0  0  2  0  0  0  0  0  0
   36.6080   27.8750   42.3470 C   0  0  0  0  0  2  0  0  0  0  0  0
   37.6220   28.0190   41.2070 C   0  0  0  0  0  2  0  0  0  0  0  0
  1 10  1  0  0  0  0
  1  9  1  0  0  0  0
  2  1  2  0  0  0  0
  3  2  1  0  0  0  0
  3  4  2  0  0  0  0
  4  8  1  0  0  0  0
  5  4  1  0  0  0  0
  5  6  1  0  0  0  0
  6 13  1  0  0  0  0
  6  7  2  0  0  0  0
  8  9  2  0  0  0  0
  8  7  1  0  0  0  0
  9 23  1  0  0  0  0
 11  3  1  0  0  0  0
 12  5  1  0  0  0  0
 14 15  2  0  0  0  0
 14 19  1  0  0  0  0
 15 16  1  0  0  0  0
 16 22  1  0  0  0  0
 16 17  2  0  0  0  0
 18 17  1  0  0  0  0
 18  2  1  0  0  0  0
 19 18  2  0  0  0  0
 20 14  1  0  0  0  0
 21 15  1  0  0  0  0
 23 24  1  0  0  0  0
 24 25  1  0  0  0  0
 25 26  1  0  0  0  0
 27 26  1  0  0  0  0
 28 23  1  0  0  0  0
 28 27  1  0  0  0  0
M  END
>  <minimizedAffinity>
-5.08365154

$$$$
