
 OpenBabel03242514143D

 31 33  0  0  0  0  0  0  0  0999 V2000
   46.1420   31.9850   45.8310 C   0  0  0  0  0  0  0  0  0  0  0  0
   46.6090   32.9350   46.7460 C   0  0  0  0  0  0  0  0  0  0  0  0
   47.1840   32.2930   47.9930 C   0  0  0  0  0  0  0  0  0  0  0  0
   46.0700   31.5850   48.7480 C   0  0  0  0  0  0  0  0  0  0  0  0
   45.2390   30.7430   47.8540 C   0  0  0  0  0  0  0  0  0  0  0  0
   45.8840   30.6000   46.5050 C   0  0  0  0  0  0  0  0  0  0  0  0
   45.1010   32.1580   45.4870 H   0  0  0  0  0  0  0  0  0  0  0  0
   47.0940   33.8650   46.4400 H   0  0  0  0  0  0  0  0  0  0  0  0
   45.7160   33.4200   47.2230 H   0  0  0  0  0  0  0  0  0  0  0  0
   47.7640   32.9470   48.6280 H   0  0  0  0  0  0  0  0  0  0  0  0
   47.8030   31.3770   47.7340 H   0  0  0  0  0  0  0  0  0  0  0  0
   45.4720   32.3990   49.2420 H   0  0  0  0  0  0  0  0  0  0  0  0
   46.5270   30.9780   49.5530 H   0  0  0  0  0  0  0  0  0  0  0  0
   44.2740   31.3030   47.6700 H   0  0  0  0  0  0  0  0  0  0  0  0
   45.0110   29.7440   48.2280 H   0  0  0  0  0  0  0  0  0  0  0  0
   46.8400   30.0510   46.5730 H   0  0  0  0  0  0  0  0  0  0  0  0
   45.2160   29.9790   45.8720 H   0  0  0  0  0  0  0  0  0  0  0  0
   46.8530   31.7340   44.5760 C   0  0  0  0  0  0  0  0  0  0  0  0
   46.4800   32.6060   43.5500 C   0  0  0  0  0  0  0  0  0  0  0  0
   47.2890   32.4060   42.4810 C   0  0  0  0  0  0  0  0  0  0  0  0
   48.2930   31.4980   42.4180 N   0  0  0  0  0  0  0  0  0  0  0  0
   48.6060   30.6880   43.4010 C   0  0  0  0  0  0  0  0  0  0  0  0
   47.8690   30.8250   44.4800 N   0  0  0  0  0  0  0  0  0  0  0  0
   47.3850   32.8300   41.4850 H   0  0  0  0  0  0  0  0  0  0  0  0
   49.3270   29.9220   43.5620 H   0  0  0  0  0  0  0  0  0  0  0  0
   45.5350   33.5520   43.0740 C   0  0  0  0  0  0  0  0  0  0  0  0
   45.3180   33.4290   41.5200 C   0  0  0  0  0  0  0  0  0  0  0  0
   44.6130   34.6260   41.0060 C   0  0  0  0  0  0  0  0  0  0  0  0
   43.9300   35.4770   42.0240 C   0  0  0  0  0  0  0  0  0  0  0  0
   44.9410   36.0110   42.9890 C   0  0  0  0  0  0  0  0  0  0  0  0
   46.0740   34.9910   43.1360 C   0  0  0  0  0  0  0  0  0  0  0  0
  1  6  1  0  0  0  0
  1  2  1  0  0  0  0
  2  9  1  0  0  0  0
  2  3  1  0  0  0  0
  3 10  1  0  0  0  0
  3  4  1  0  0  0  0
  4 12  1  0  0  0  0
  4 13  1  0  0  0  0
  5 15  1  0  0  0  0
  5  4  1  0  0  0  0
  6 16  1  0  0  0  0
  6  5  1  0  0  0  0
  7  1  1  0  0  0  0
  8  2  1  0  0  0  0
 11  3  1  0  0  0  0
 14  5  1  0  0  0  0
 17  6  1  0  0  0  0
 18  1  1  0  0  0  0
 19 18  2  0  0  0  0
 20 19  1  0  0  0  0
 21 20  2  0  0  0  0
 21 22  1  0  0  0  0
 22 25  1  0  0  0  0
 22 23  2  0  0  0  0
 23 18  1  0  0  0  0
 24 20  1  0  0  0  0
 26 31  1  0  0  0  0
 26 19  1  0  0  0  0
 27 26  1  0  0  0  0
 28 27  1  0  0  0  0
 28 29  1  0  0  0  0
 29 30  1  0  0  0  0
 30 31  1  0  0  0  0
M  END
>  <minimizedAffinity>
-4.6882391

>  <minimizedRMSD>
4.63490677

$$$$
