REMARK  Name = 
REMARK  3 active torsions:
REMARK  status: ('A' for Active; 'I' for Inactive)
REMARK    1  A    between atoms: C_1  and  C_9
REMARK    2  A    between atoms: C_2  and  C_13
REMARK    3  A    between atoms: C_13  and  C_23
REMARK                            x       y       z     vdW  Elec       q    Type
REMARK                         _______ _______ _______ _____ _____    ______ ____
ROOT
ATOM      1  C   UNL     1      46.610  34.424  41.444  0.00  0.00    +0.000 A 
ATOM      2  C   UNL     1      47.898  34.921  41.247  0.00  0.00    +0.000 A 
ATOM      3  C   UNL     1      48.517  34.641  40.038  0.00  0.00    +0.000 A 
ATOM      4  C   UNL     1      47.874  33.905  39.090  0.00  0.00    +0.000 A 
ATOM      5  C   UNL     1      46.618  33.413  39.263  0.00  0.00    +0.000 A 
ATOM      6  C   UNL     1      46.012  33.703  40.483  0.00  0.00    +0.000 A 
ATOM      7  H   UNL     1      49.495  34.973  39.810  0.00  0.00    +0.000 HD
ATOM      8  H   UNL     1      48.332  33.667  38.128  0.00  0.00    +0.000 HD
ATOM      9  H   UNL     1      46.036  32.834  38.589  0.00  0.00    +0.000 HD
ATOM     10  H   UNL     1      45.003  33.350  40.710  0.00  0.00    +0.000 HD
ENDROOT
BRANCH   1  13
ATOM     11  C   UNL     1      44.693  36.059  44.271  0.00  0.00    +0.000 A 
ATOM     12  C   UNL     1      45.238  35.867  42.983  0.00  0.00    +0.000 A 
ATOM     13  C   UNL     1      45.993  34.737  42.737  0.00  0.00    +0.000 A 
ATOM     14  N   UNL     1      46.171  33.865  43.763  0.00  0.00    +0.000 NA
ATOM     15  C   UNL     1      45.645  34.059  44.995  0.00  0.00    +0.000 A 
ATOM     16  N   UNL     1      44.909  35.150  45.250  0.00  0.00    +0.000 NA
ATOM     17  H   UNL     1      44.108  36.952  44.436  0.00  0.00    +0.000 HD
ATOM     18  H   UNL     1      45.111  36.539  42.162  0.00  0.00    +0.000 HD
ATOM     19  H   UNL     1      45.818  33.333  45.777  0.00  0.00    +0.000 HD
ENDBRANCH   1  13
BRANCH   2  20
ATOM     20  C   UNL     1      48.551  35.722  42.303  0.00  0.00    +0.000 C 
ATOM     21  H   UNL     1      47.800  36.484  42.629  0.00  0.00    +0.000 HD
ATOM     22  H   UNL     1      48.632  35.033  43.192  0.00  0.00    +0.000 HD
BRANCH  20  23
ATOM     23  C   UNL     1      49.858  36.323  41.973  0.00  0.00    +0.000 C 
ATOM     24  C   UNL     1      49.582  37.718  41.383  0.00  0.00    +0.000 C 
ATOM     25  C   UNL     1      50.674  38.178  40.471  0.00  0.00    +0.000 C 
ATOM     26  C   UNL     1      50.451  37.457  39.144  0.00  0.00    +0.000 C 
ATOM     27  C   UNL     1      49.968  36.084  39.476  0.00  0.00    +0.000 C 
ATOM     28  C   UNL     1      50.460  35.549  40.800  0.00  0.00    +0.000 C 
ENDBRANCH  20  23
ENDBRANCH   2  20
TORSDOF 3
