
 OpenBabel03252509213D

 22 24  0  0  0  0  0  0  0  0999 V2000
   47.6520   31.9250   43.7190 C   0  0  0  0  0  0  0  0  0  0  0  0
   47.4320   33.2420   43.2730 C   0  0  0  0  0  0  0  0  0  0  0  0
   48.1560   33.6010   42.1510 C   0  0  0  0  0  0  0  0  0  0  0  0
   49.0120   32.6940   41.5570 N   0  0  0  0  0  0  0  0  0  0  0  0
   49.1880   31.4450   42.0200 C   0  0  0  0  0  0  0  0  0  0  0  0
   48.4900   31.0690   43.1200 N   0  0  0  0  0  0  0  0  0  0  0  0
   47.1690   31.5010   44.5700 H   0  0  0  0  0  0  0  0  0  0  0  0
   49.8970   30.9190   41.4040 H   0  0  0  0  0  0  0  0  0  0  0  0
   47.9290   34.9640   41.5390 C   0  0  0  0  0  0  0  0  0  0  0  0
   49.1750   35.8440   41.7220 C   0  0  0  0  0  0  0  0  0  0  0  0
   48.6650   35.3110   40.3480 C   0  0  0  0  0  0  0  0  0  0  0  0
   47.0900   35.5620   41.9820 H   0  0  0  0  0  0  0  0  0  0  0  0
   50.1240   35.3780   42.0150 H   0  0  0  0  0  0  0  0  0  0  0  0
   49.0930   36.9230   41.8060 H   0  0  0  0  0  0  0  0  0  0  0  0
   49.2440   34.5140   39.8590 H   0  0  0  0  0  0  0  0  0  0  0  0
   48.2950   36.0630   39.6220 H   0  0  0  0  0  0  0  0  0  0  0  0
   46.5150   34.1160   43.9700 C   0  0  0  0  0  3  0  0  0  0  0  0
   45.1580   34.1010   43.2930 C   0  0  0  0  0  2  0  0  0  0  0  0
   44.5380   35.4530   43.5760 C   0  0  0  0  0  2  0  0  0  0  0  0
   44.5810   35.6750   45.0650 C   0  0  0  0  0  2  0  0  0  0  0  0
   44.9230   34.4360   45.8530 C   0  0  0  0  0  2  0  0  0  0  0  0
   46.2590   33.8420   45.4140 C   0  0  0  0  0  2  0  0  0  0  0  0
  1  7  1  0  0  0  0
  2  1  1  0  0  0  0
  2 17  1  0  0  0  0
  3  2  2  0  0  0  0
  4  5  2  0  0  0  0
  4  3  1  0  0  0  0
  5  6  1  0  0  0  0
  6  1  2  0  0  0  0
  8  5  1  0  0  0  0
  9 10  1  0  0  0  0
  9 12  1  0  0  0  0
  9  3  1  0  0  0  0
 10 14  1  0  0  0  0
 10 13  1  0  0  0  0
 11  9  1  0  0  0  0
 11 10  1  0  0  0  0
 15 11  1  0  0  0  0
 16 11  1  0  0  0  0
 17 22  1  0  0  0  0
 18 19  1  0  0  0  0
 18 17  1  0  0  0  0
 19 20  1  0  0  0  0
 20 21  1  0  0  0  0
 22 21  1  0  0  0  0
M  END
>  <minimizedAffinity>
-4.6985116

>  <minimizedRMSD>
4.28194427

$$$$
