
 OpenBabel03252509213D

 22 24  0  0  0  0  0  0  0  0999 V2000
   37.1150   29.0990   42.1160 C   0  0  0  0  0  0  0  0  0  0  0  0
   36.8680   28.0790   41.1780 C   0  0  0  0  0  0  0  0  0  0  0  0
   37.2630   26.8150   41.5780 C   0  0  0  0  0  0  0  0  0  0  0  0
   37.8480   26.6310   42.8150 N   0  0  0  0  0  0  0  0  0  0  0  0
   38.0620   27.6370   43.6790 C   0  0  0  0  0  0  0  0  0  0  0  0
   37.6840   28.8860   43.3090 N   0  0  0  0  0  0  0  0  0  0  0  0
   36.8670   30.1230   41.9540 H   0  0  0  0  0  0  0  0  0  0  0  0
   38.5260   27.2630   44.5760 H   0  0  0  0  0  0  0  0  0  0  0  0
   36.9650   25.6380   40.6800 C   0  0  0  0  0  0  0  0  0  0  0  0
   38.1320   24.6380   40.7090 C   0  0  0  0  0  0  0  0  0  0  0  0
   36.7140   24.3560   41.2940 C   0  0  0  0  0  0  0  0  0  0  0  0
   36.8210   25.8770   39.5950 H   0  0  0  0  0  0  0  0  0  0  0  0
   38.8910   24.7200   41.4970 H   0  0  0  0  0  0  0  0  0  0  0  0
   38.3590   24.0160   39.8490 H   0  0  0  0  0  0  0  0  0  0  0  0
   36.6060   24.3300   42.3880 H   0  0  0  0  0  0  0  0  0  0  0  0
   36.1110   23.5700   40.7960 H   0  0  0  0  0  0  0  0  0  0  0  0
   36.2520   28.3790   39.9040 C   0  0  0  0  0  3  0  0  0  0  0  0
   35.0340   29.2600   40.1040 C   0  0  0  0  0  2  0  0  0  0  0  0
   34.1020   28.9490   38.9520 C   0  0  0  0  0  2  0  0  0  0  0  0
   34.8840   29.1050   37.6750 C   0  0  0  0  0  2  0  0  0  0  0  0
   36.2140   29.7910   37.8580 C   0  0  0  0  0  2  0  0  0  0  0  0
   37.0890   29.0590   38.8730 C   0  0  0  0  0  2  0  0  0  0  0  0
  1  6  1  0  0  0  0
  2  3  1  0  0  0  0
  2  1  2  0  0  0  0
  3  4  2  0  0  0  0
  4  5  1  0  0  0  0
  5  8  1  0  0  0  0
  6  5  2  0  0  0  0
  7  1  1  0  0  0  0
  9 10  1  0  0  0  0
  9 11  1  0  0  0  0
  9  3  1  0  0  0  0
 10 11  1  0  0  0  0
 10 13  1  0  0  0  0
 11 15  1  0  0  0  0
 12  9  1  0  0  0  0
 14 10  1  0  0  0  0
 16 11  1  0  0  0  0
 17 18  1  0  0  0  0
 17  2  1  0  0  0  0
 19 18  1  0  0  0  0
 20 21  1  0  0  0  0
 20 19  1  0  0  0  0
 21 22  1  0  0  0  0
 22 17  1  0  0  0  0
M  END
>  <minimizedAffinity>
-4.61356497

$$$$

 OpenBabel03252509213D

 22 24  0  0  0  0  0  0  0  0999 V2000
   40.4600   30.7270   41.9090 C   0  0  0  0  0  0  0  0  0  0  0  0
   39.0970   30.8360   41.5730 C   0  0  0  0  0  0  0  0  0  0  0  0
   38.7640   31.9760   40.8650 C   0  0  0  0  0  0  0  0  0  0  0  0
   39.7380   32.8990   40.5390 N   0  0  0  0  0  0  0  0  0  0  0  0
   41.0290   32.7510   40.8800 C   0  0  0  0  0  0  0  0  0  0  0  0
   41.3800   31.6410   41.5770 N   0  0  0  0  0  0  0  0  0  0  0  0
   40.8710   29.9070   42.4530 H   0  0  0  0  0  0  0  0  0  0  0  0
   41.6050   33.5870   40.5230 H   0  0  0  0  0  0  0  0  0  0  0  0
   37.3430   32.1470   40.3810 C   0  0  0  0  0  0  0  0  0  0  0  0
   37.2470   33.3470   39.4270 C   0  0  0  0  0  0  0  0  0  0  0  0
   37.0520   31.8600   38.9970 C   0  0  0  0  0  0  0  0  0  0  0  0
   36.5800   32.3520   41.1760 H   0  0  0  0  0  0  0  0  0  0  0  0
   38.1660   33.7770   39.0090 H   0  0  0  0  0  0  0  0  0  0  0  0
   36.3330   33.9270   39.3450 H   0  0  0  0  0  0  0  0  0  0  0  0
   37.8460   31.3910   38.3980 H   0  0  0  0  0  0  0  0  0  0  0  0
   36.0410   31.5640   38.6540 H   0  0  0  0  0  0  0  0  0  0  0  0
   38.1550   29.8120   41.9670 C   0  0  0  0  0  3  0  0  0  0  0  0
   38.1900   28.6590   40.9830 C   0  0  0  0  0  2  0  0  0  0  0  0
   36.8070   28.0410   41.0160 C   0  0  0  0  0  2  0  0  0  0  0  0
   36.4780   27.7330   42.4530 C   0  0  0  0  0  2  0  0  0  0  0  0
   37.6620   27.8260   43.3810 C   0  0  0  0  0  2  0  0  0  0  0  0
   38.3160   29.2050   43.3200 C   0  0  0  0  0  2  0  0  0  0  0  0
  1  7  1  0  0  0  0
  2  1  2  0  0  0  0
  2 17  1  0  0  0  0
  3  2  1  0  0  0  0
  4  3  2  0  0  0  0
  4  5  1  0  0  0  0
  5  6  2  0  0  0  0
  6  1  1  0  0  0  0
  8  5  1  0  0  0  0
  9  3  1  0  0  0  0
  9 12  1  0  0  0  0
 10  9  1  0  0  0  0
 11 10  1  0  0  0  0
 11  9  1  0  0  0  0
 13 10  1  0  0  0  0
 14 10  1  0  0  0  0
 15 11  1  0  0  0  0
 16 11  1  0  0  0  0
 17 22  1  0  0  0  0
 18 19  1  0  0  0  0
 18 17  1  0  0  0  0
 19 20  1  0  0  0  0
 20 21  1  0  0  0  0
 22 21  1  0  0  0  0
M  END
>  <minimizedAffinity>
-4.57246923

$$$$

 OpenBabel03252509213D

 22 24  0  0  0  0  0  0  0  0999 V2000
   37.3190   32.9960   39.6350 C   0  0  0  0  0  0  0  0  0  0  0  0
   37.7940   31.7370   40.0500 C   0  0  0  0  0  0  0  0  0  0  0  0
   38.9610   31.7740   40.7920 C   0  0  0  0  0  0  0  0  0  0  0  0
   39.5660   32.9830   41.0730 N   0  0  0  0  0  0  0  0  0  0  0  0
   39.0740   34.1610   40.6550 C   0  0  0  0  0  0  0  0  0  0  0  0
   37.9310   34.1510   39.9250 N   0  0  0  0  0  0  0  0  0  0  0  0
   36.4330   33.1320   39.0570 H   0  0  0  0  0  0  0  0  0  0  0  0
   39.7060   34.9660   40.9900 H   0  0  0  0  0  0  0  0  0  0  0  0
   39.5080   30.4850   41.3580 C   0  0  0  0  0  0  0  0  0  0  0  0
   40.4300   30.7770   42.5520 C   0  0  0  0  0  0  0  0  0  0  0  0
   39.0490   30.0600   42.6590 C   0  0  0  0  0  0  0  0  0  0  0  0
   40.1330   29.8720   40.6590 H   0  0  0  0  0  0  0  0  0  0  0  0
   40.4110   31.7720   43.0150 H   0  0  0  0  0  0  0  0  0  0  0  0
   41.2600   30.1210   42.7950 H   0  0  0  0  0  0  0  0  0  0  0  0
   38.2150   30.6170   43.1090 H   0  0  0  0  0  0  0  0  0  0  0  0
   39.0570   28.9970   42.9710 H   0  0  0  0  0  0  0  0  0  0  0  0
   37.0850   30.5260   39.6980 C   0  0  0  0  0  3  0  0  0  0  0  0
   35.8490   30.3710   40.5620 C   0  0  0  0  0  2  0  0  0  0  0  0
   35.5950   28.8820   40.6620 C   0  0  0  0  0  2  0  0  0  0  0  0
   35.5520   28.3300   39.2610 C   0  0  0  0  0  2  0  0  0  0  0  0
   35.4640   29.3910   38.1930 C   0  0  0  0  0  2  0  0  0  0  0  0
   36.6240   30.3790   38.2870 C   0  0  0  0  0  2  0  0  0  0  0  0
  1  6  2  0  0  0  0
  1  2  1  0  0  0  0
  2  3  2  0  0  0  0
  3  4  1  0  0  0  0
  3  9  1  0  0  0  0
  5  8  1  0  0  0  0
  5  4  2  0  0  0  0
  6  5  1  0  0  0  0
  7  1  1  0  0  0  0
  9 10  1  0  0  0  0
  9 11  1  0  0  0  0
 10 11  1  0  0  0  0
 10 14  1  0  0  0  0
 10 13  1  0  0  0  0
 11 16  1  0  0  0  0
 11 15  1  0  0  0  0
 12  9  1  0  0  0  0
 17  2  1  0  0  0  0
 17 18  1  0  0  0  0
 18 19  1  0  0  0  0
 20 19  1  0  0  0  0
 21 22  1  0  0  0  0
 21 20  1  0  0  0  0
 22 17  1  0  0  0  0
M  END
>  <minimizedAffinity>
-4.56279135

$$$$

 OpenBabel03252509213D

 22 24  0  0  0  0  0  0  0  0999 V2000
   39.0120   27.3980   42.3980 C   0  0  0  0  0  0  0  0  0  0  0  0
   37.7530   27.4320   41.7680 C   0  0  0  0  0  0  0  0  0  0  0  0
   37.1830   28.6880   41.6790 C   0  0  0  0  0  0  0  0  0  0  0  0
   37.8480   29.7880   42.1850 N   0  0  0  0  0  0  0  0  0  0  0  0
   39.0510   29.7070   42.7770 C   0  0  0  0  0  0  0  0  0  0  0  0
   39.6290   28.4850   42.8780 N   0  0  0  0  0  0  0  0  0  0  0  0
   39.5770   26.5050   42.5420 H   0  0  0  0  0  0  0  0  0  0  0  0
   39.3750   30.6840   43.0930 H   0  0  0  0  0  0  0  0  0  0  0  0
   35.8730   28.8460   40.9450 C   0  0  0  0  0  0  0  0  0  0  0  0
   35.6690   30.3120   40.5300 C   0  0  0  0  0  0  0  0  0  0  0  0
   35.9100   29.1370   39.5320 C   0  0  0  0  0  0  0  0  0  0  0  0
   34.9530   28.5850   41.5290 H   0  0  0  0  0  0  0  0  0  0  0  0
   36.5200   31.0030   40.5620 H   0  0  0  0  0  0  0  0  0  0  0  0
   34.6740   30.7360   40.4390 H   0  0  0  0  0  0  0  0  0  0  0  0
   36.8870   29.0840   39.0290 H   0  0  0  0  0  0  0  0  0  0  0  0
   35.0760   28.8750   38.8510 H   0  0  0  0  0  0  0  0  0  0  0  0
   37.1410   26.2180   41.2750 C   0  0  0  0  0  3  0  0  0  0  0  0
   37.6660   25.8890   39.8910 C   0  0  0  0  0  2  0  0  0  0  0  0
   36.5590   25.1260   39.1960 C   0  0  0  0  0  2  0  0  0  0  0  0
   36.1600   23.9810   40.0900 C   0  0  0  0  0  2  0  0  0  0  0  0
   37.1230   23.7320   41.2220 C   0  0  0  0  0  2  0  0  0  0  0  0
   37.3090   24.9770   42.0860 C   0  0  0  0  0  2  0  0  0  0  0  0
  1  7  1  0  0  0  0
  1  6  1  0  0  0  0
  2  1  2  0  0  0  0
  3  2  1  0  0  0  0
  3  4  2  0  0  0  0
  4  5  1  0  0  0  0
  5  6  2  0  0  0  0
  5  8  1  0  0  0  0
  9 12  1  0  0  0  0
  9  3  1  0  0  0  0
 10 13  1  0  0  0  0
 10  9  1  0  0  0  0
 11 10  1  0  0  0  0
 11  9  1  0  0  0  0
 14 10  1  0  0  0  0
 15 11  1  0  0  0  0
 16 11  1  0  0  0  0
 17  2  1  0  0  0  0
 17 22  1  0  0  0  0
 18 17  1  0  0  0  0
 19 18  1  0  0  0  0
 19 20  1  0  0  0  0
 20 21  1  0  0  0  0
 21 22  1  0  0  0  0
M  END
>  <minimizedAffinity>
-4.39784622

$$$$

 OpenBabel03252509213D

 22 24  0  0  0  0  0  0  0  0999 V2000
   39.4220   24.4300   41.9430 C   0  0  0  0  0  0  0  0  0  0  0  0
   38.3860   25.3710   41.7920 C   0  0  0  0  0  0  0  0  0  0  0  0
   38.4600   26.4570   42.6450 C   0  0  0  0  0  0  0  0  0  0  0  0
   39.4960   26.5550   43.5530 N   0  0  0  0  0  0  0  0  0  0  0  0
   40.4650   25.6310   43.6600 C   0  0  0  0  0  0  0  0  0  0  0  0
   40.4130   24.5570   42.8340 N   0  0  0  0  0  0  0  0  0  0  0  0
   39.5030   23.5410   41.3590 H   0  0  0  0  0  0  0  0  0  0  0  0
   41.1630   25.9140   44.4290 H   0  0  0  0  0  0  0  0  0  0  0  0
   37.4440   27.5660   42.5060 C   0  0  0  0  0  0  0  0  0  0  0  0
   36.3750   27.4500   43.6040 C   0  0  0  0  0  0  0  0  0  0  0  0
   37.4220   28.6030   43.5100 C   0  0  0  0  0  0  0  0  0  0  0  0
   36.8660   27.5800   41.5460 H   0  0  0  0  0  0  0  0  0  0  0  0
   36.5600   26.7990   44.4680 H   0  0  0  0  0  0  0  0  0  0  0  0
   35.3600   27.7950   43.4380 H   0  0  0  0  0  0  0  0  0  0  0  0
   38.2400   28.6150   44.2450 H   0  0  0  0  0  0  0  0  0  0  0  0
   37.0330   29.6200   43.3010 H   0  0  0  0  0  0  0  0  0  0  0  0
   37.3420   25.1710   40.8100 C   0  0  0  0  0  3  0  0  0  0  0  0
   37.9240   25.2070   39.4110 C   0  0  0  0  0  2  0  0  0  0  0  0
   36.8100   25.6980   38.5100 C   0  0  0  0  0  2  0  0  0  0  0  0
   35.6070   24.8240   38.7520 C   0  0  0  0  0  2  0  0  0  0  0  0
   35.9110   23.5790   39.5450 C   0  0  0  0  0  2  0  0  0  0  0  0
   36.5450   23.9130   40.8940 C   0  0  0  0  0  2  0  0  0  0  0  0
  1  6  1  0  0  0  0
  2  1  2  0  0  0  0
  2  3  1  0  0  0  0
  3  4  2  0  0  0  0
  4  5  1  0  0  0  0
  5  8  1  0  0  0  0
  6  5  2  0  0  0  0
  7  1  1  0  0  0  0
  9  3  1  0  0  0  0
  9 11  1  0  0  0  0
  9 10  1  0  0  0  0
 10 13  1  0  0  0  0
 11 10  1  0  0  0  0
 11 15  1  0  0  0  0
 12  9  1  0  0  0  0
 14 10  1  0  0  0  0
 16 11  1  0  0  0  0
 17 22  1  0  0  0  0
 17  2  1  0  0  0  0
 18 17  1  0  0  0  0
 19 20  1  0  0  0  0
 19 18  1  0  0  0  0
 20 21  1  0  0  0  0
 21 22  1  0  0  0  0
M  END
>  <minimizedAffinity>
-4.39389133

$$$$

 OpenBabel03252509213D

 22 24  0  0  0  0  0  0  0  0999 V2000
   38.6640   31.1550   40.9530 C   0  0  0  0  0  0  0  0  0  0  0  0
   38.1320   29.8540   41.0210 C   0  0  0  0  0  0  0  0  0  0  0  0
   38.6760   29.0560   42.0110 C   0  0  0  0  0  0  0  0  0  0  0  0
   39.6610   29.5550   42.8400 N   0  0  0  0  0  0  0  0  0  0  0  0
   40.1370   30.8070   42.7380 C   0  0  0  0  0  0  0  0  0  0  0  0
   39.6200   31.6080   41.7740 N   0  0  0  0  0  0  0  0  0  0  0  0
   38.3480   31.8870   40.2450 H   0  0  0  0  0  0  0  0  0  0  0  0
   40.8950   30.9770   43.4830 H   0  0  0  0  0  0  0  0  0  0  0  0
   38.1140   27.6700   42.2230 C   0  0  0  0  0  0  0  0  0  0  0  0
   38.3260   27.2280   43.6800 C   0  0  0  0  0  0  0  0  0  0  0  0
   36.9350   27.5280   43.0430 C   0  0  0  0  0  0  0  0  0  0  0  0
   38.5790   26.8570   41.6080 H   0  0  0  0  0  0  0  0  0  0  0  0
   38.6010   27.9750   44.4340 H   0  0  0  0  0  0  0  0  0  0  0  0
   38.4500   26.1800   43.9360 H   0  0  0  0  0  0  0  0  0  0  0  0
   36.4170   28.4480   43.3510 H   0  0  0  0  0  0  0  0  0  0  0  0
   36.2370   26.6740   42.9320 H   0  0  0  0  0  0  0  0  0  0  0  0
   37.1010   29.4270   40.0990 C   0  0  0  0  0  3  0  0  0  0  0  0
   35.8020   30.1520   40.3930 C   0  0  0  0  0  2  0  0  0  0  0  0
   34.6960   29.2190   39.9480 C   0  0  0  0  0  2  0  0  0  0  0  0
   34.9770   28.8230   38.5220 C   0  0  0  0  0  2  0  0  0  0  0  0
   36.0450   29.6560   37.8600 C   0  0  0  0  0  2  0  0  0  0  0  0
   37.3560   29.6110   38.6410 C   0  0  0  0  0  2  0  0  0  0  0  0
  1  2  2  0  0  0  0
  1  6  1  0  0  0  0
  2  3  1  0  0  0  0
  3  9  1  0  0  0  0
  3  4  2  0  0  0  0
  5  4  1  0  0  0  0
  5  8  1  0  0  0  0
  6  5  2  0  0  0  0
  7  1  1  0  0  0  0
  9 11  1  0  0  0  0
  9 10  1  0  0  0  0
 10 14  1  0  0  0  0
 10 13  1  0  0  0  0
 11 15  1  0  0  0  0
 11 10  1  0  0  0  0
 12  9  1  0  0  0  0
 16 11  1  0  0  0  0
 17 18  1  0  0  0  0
 17  2  1  0  0  0  0
 19 18  1  0  0  0  0
 20 19  1  0  0  0  0
 21 20  1  0  0  0  0
 21 22  1  0  0  0  0
 22 17  1  0  0  0  0
M  END
>  <minimizedAffinity>
-4.34103823

$$$$

 OpenBabel03252509213D

 22 24  0  0  0  0  0  0  0  0999 V2000
   37.4800   28.5850   38.7330 C   0  0  0  0  0  0  0  0  0  0  0  0
   37.4540   29.5890   39.7190 C   0  0  0  0  0  0  0  0  0  0  0  0
   37.3380   30.8780   39.2310 C   0  0  0  0  0  0  0  0  0  0  0  0
   37.2570   31.0990   37.8700 N   0  0  0  0  0  0  0  0  0  0  0  0
   37.2850   30.1060   36.9650 C   0  0  0  0  0  0  0  0  0  0  0  0
   37.3990   28.8330   37.4200 N   0  0  0  0  0  0  0  0  0  0  0  0
   37.5650   27.5440   38.9520 H   0  0  0  0  0  0  0  0  0  0  0  0
   37.2070   30.5090   35.9700 H   0  0  0  0  0  0  0  0  0  0  0  0
   37.2140   32.0220   40.2090 C   0  0  0  0  0  0  0  0  0  0  0  0
   38.5650   32.7380   40.3640 C   0  0  0  0  0  0  0  0  0  0  0  0
   37.3030   33.3700   39.7000 C   0  0  0  0  0  0  0  0  0  0  0  0
   36.9190   31.7410   41.2530 H   0  0  0  0  0  0  0  0  0  0  0  0
   39.3610   32.5490   39.6330 H   0  0  0  0  0  0  0  0  0  0  0  0
   38.8370   33.2290   41.2930 H   0  0  0  0  0  0  0  0  0  0  0  0
   37.3090   33.5010   38.6080 H   0  0  0  0  0  0  0  0  0  0  0  0
   36.8380   34.2310   40.2210 H   0  0  0  0  0  0  0  0  0  0  0  0
   37.5500   29.2510   41.1220 C   0  0  0  0  0  3  0  0  0  0  0  0
   37.0380   27.8440   41.3600 C   0  0  0  0  0  2  0  0  0  0  0  0
   36.5130   27.8260   42.7800 C   0  0  0  0  0  2  0  0  0  0  0  0
   37.6060   28.3410   43.6790 C   0  0  0  0  0  2  0  0  0  0  0  0
   38.9520   28.4340   43.0060 C   0  0  0  0  0  2  0  0  0  0  0  0
   38.8970   29.3140   41.7600 C   0  0  0  0  0  2  0  0  0  0  0  0
  1  7  1  0  0  0  0
  1  2  1  0  0  0  0
  2 17  1  0  0  0  0
  3  2  2  0  0  0  0
  3  9  1  0  0  0  0
  4  3  1  0  0  0  0
  5  6  1  0  0  0  0
  5  4  2  0  0  0  0
  6  1  2  0  0  0  0
  8  5  1  0  0  0  0
  9 10  1  0  0  0  0
  9 12  1  0  0  0  0
 10 14  1  0  0  0  0
 11  9  1  0  0  0  0
 11 16  1  0  0  0  0
 11 10  1  0  0  0  0
 13 10  1  0  0  0  0
 15 11  1  0  0  0  0
 17 18  1  0  0  0  0
 17 22  1  0  0  0  0
 18 19  1  0  0  0  0
 19 20  1  0  0  0  0
 21 20  1  0  0  0  0
 22 21  1  0  0  0  0
M  END
>  <minimizedAffinity>
-4.33152008

$$$$

 OpenBabel03252509213D

 22 24  0  0  0  0  0  0  0  0999 V2000
   37.3510   27.8370   38.8300 C   0  0  0  0  0  0  0  0  0  0  0  0
   37.1860   28.5380   40.0390 C   0  0  0  0  0  0  0  0  0  0  0  0
   36.9890   27.7390   41.1500 C   0  0  0  0  0  0  0  0  0  0  0  0
   36.9680   26.3640   41.0200 N   0  0  0  0  0  0  0  0  0  0  0  0
   37.1320   25.7380   39.8430 C   0  0  0  0  0  0  0  0  0  0  0  0
   37.3260   26.5010   38.7380 N   0  0  0  0  0  0  0  0  0  0  0  0
   37.5120   28.3110   37.8880 H   0  0  0  0  0  0  0  0  0  0  0  0
   37.0790   24.6720   39.9790 H   0  0  0  0  0  0  0  0  0  0  0  0
   36.8860   28.3890   42.5090 C   0  0  0  0  0  0  0  0  0  0  0  0
   36.4700   27.3530   43.5650 C   0  0  0  0  0  0  0  0  0  0  0  0
   37.8670   28.0430   43.5090 C   0  0  0  0  0  0  0  0  0  0  0  0
   36.1280   29.2100   42.6010 H   0  0  0  0  0  0  0  0  0  0  0  0
   36.5310   26.2850   43.3230 H   0  0  0  0  0  0  0  0  0  0  0  0
   35.8970   27.6420   44.4400 H   0  0  0  0  0  0  0  0  0  0  0  0
   38.7270   27.4370   43.1880 H   0  0  0  0  0  0  0  0  0  0  0  0
   38.1260   28.7240   44.3450 H   0  0  0  0  0  0  0  0  0  0  0  0
   37.2210   29.9840   40.0660 C   0  0  0  0  0  3  0  0  0  0  0  0
   38.6530   30.4740   40.1460 C   0  0  0  0  0  2  0  0  0  0  0  0
   38.5980   31.8090   40.8580 C   0  0  0  0  0  2  0  0  0  0  0  0
   37.5960   32.6710   40.1350 C   0  0  0  0  0  2  0  0  0  0  0  0
   37.1760   32.1210   38.7960 C   0  0  0  0  0  2  0  0  0  0  0  0
   36.5980   30.7140   38.9230 C   0  0  0  0  0  2  0  0  0  0  0  0
  1  2  1  0  0  0  0
  2 17  1  0  0  0  0
  2  3  2  0  0  0  0
  3  9  1  0  0  0  0
  4  3  1  0  0  0  0
  5  8  1  0  0  0  0
  5  4  2  0  0  0  0
  6  1  2  0  0  0  0
  6  5  1  0  0  0  0
  7  1  1  0  0  0  0
  9 12  1  0  0  0  0
  9 11  1  0  0  0  0
  9 10  1  0  0  0  0
 10 14  1  0  0  0  0
 11 10  1  0  0  0  0
 11 16  1  0  0  0  0
 13 10  1  0  0  0  0
 15 11  1  0  0  0  0
 17 18  1  0  0  0  0
 18 19  1  0  0  0  0
 20 19  1  0  0  0  0
 21 22  1  0  0  0  0
 21 20  1  0  0  0  0
 22 17  1  0  0  0  0
M  END
>  <minimizedAffinity>
-4.31258249

$$$$

 OpenBabel03252509213D

 22 24  0  0  0  0  0  0  0  0999 V2000
   38.5640   30.4780   39.8830 C   0  0  0  0  0  0  0  0  0  0  0  0
   37.3610   29.7560   39.9940 C   0  0  0  0  0  0  0  0  0  0  0  0
   36.5010   29.8930   38.9200 C   0  0  0  0  0  0  0  0  0  0  0  0
   36.8520   30.6900   37.8480 N   0  0  0  0  0  0  0  0  0  0  0  0
   38.0140   31.3600   37.7860 C   0  0  0  0  0  0  0  0  0  0  0  0
   38.8740   31.2430   38.8280 N   0  0  0  0  0  0  0  0  0  0  0  0
   39.3270   30.4750   40.6280 H   0  0  0  0  0  0  0  0  0  0  0  0
   38.0740   31.9130   36.8640 H   0  0  0  0  0  0  0  0  0  0  0  0
   35.2210   29.0910   38.9020 C   0  0  0  0  0  0  0  0  0  0  0  0
   34.6250   29.0730   37.4860 C   0  0  0  0  0  0  0  0  0  0  0  0
   35.2170   27.8250   38.2090 C   0  0  0  0  0  0  0  0  0  0  0  0
   34.3960   29.4760   39.5540 H   0  0  0  0  0  0  0  0  0  0  0  0
   35.2450   29.3880   36.6370 H   0  0  0  0  0  0  0  0  0  0  0  0
   33.5530   28.9950   37.3290 H   0  0  0  0  0  0  0  0  0  0  0  0
   36.1830   27.4370   37.8550 H   0  0  0  0  0  0  0  0  0  0  0  0
   34.5100   27.0110   38.4680 H   0  0  0  0  0  0  0  0  0  0  0  0
   37.0880   28.9510   41.1650 C   0  0  0  0  0  3  0  0  0  0  0  0
   37.7990   27.6160   41.0620 C   0  0  0  0  0  2  0  0  0  0  0  0
   36.9620   26.6360   41.8570 C   0  0  0  0  0  2  0  0  0  0  0  0
   36.7540   27.2210   43.2290 C   0  0  0  0  0  2  0  0  0  0  0  0
   37.6400   28.4030   43.5270 C   0  0  0  0  0  2  0  0  0  0  0  0
   37.4580   29.5150   42.4950 C   0  0  0  0  0  2  0  0  0  0  0  0
  1  2  1  0  0  0  0
  1  7  1  0  0  0  0
  2 17  1  0  0  0  0
  3  2  2  0  0  0  0
  4  3  1  0  0  0  0
  5  4  2  0  0  0  0
  5  6  1  0  0  0  0
  6  1  2  0  0  0  0
  8  5  1  0  0  0  0
  9  3  1  0  0  0  0
  9 12  1  0  0  0  0
 10 11  1  0  0  0  0
 10  9  1  0  0  0  0
 11 16  1  0  0  0  0
 11  9  1  0  0  0  0
 13 10  1  0  0  0  0
 14 10  1  0  0  0  0
 15 11  1  0  0  0  0
 17 22  1  0  0  0  0
 18 17  1  0  0  0  0
 18 19  1  0  0  0  0
 19 20  1  0  0  0  0
 20 21  1  0  0  0  0
 22 21  1  0  0  0  0
M  END
>  <minimizedAffinity>
-4.31045294

$$$$
