
 OpenBabel03242519343D

 33 35  0  0  0  0  0  0  0  0999 V2000
   42.7070   34.4610   40.3410 C   0  0  0  0  0  0  0  0  0  0  0  0
   42.2530   35.7300   40.9700 C   0  0  0  0  0  0  0  0  0  0  0  0
   40.7870   35.7550   41.2560 C   0  0  0  0  0  0  0  0  0  0  0  0
   39.9460   35.4560   40.0330 C   0  0  0  0  0  0  0  0  0  0  0  0
   40.4660   34.3050   39.2160 C   0  0  0  0  0  0  0  0  0  0  0  0
   41.5770   33.5620   39.9100 C   0  0  0  0  0  0  0  0  0  0  0  0
   43.3040   34.7150   39.4440 H   0  0  0  0  0  0  0  0  0  0  0  0
   42.5410   36.6160   40.3860 H   0  0  0  0  0  0  0  0  0  0  0  0
   42.7650   35.8150   41.9640 H   0  0  0  0  0  0  0  0  0  0  0  0
   40.4720   35.1880   42.1520 H   0  0  0  0  0  0  0  0  0  0  0  0
   40.5520   36.8260   41.5260 H   0  0  0  0  0  0  0  0  0  0  0  0
   39.8240   36.3880   39.4320 H   0  0  0  0  0  0  0  0  0  0  0  0
   38.9020   35.2340   40.4030 H   0  0  0  0  0  0  0  0  0  0  0  0
   39.6920   33.5550   38.9660 H   0  0  0  0  0  0  0  0  0  0  0  0
   40.8910   34.7670   38.2790 H   0  0  0  0  0  0  0  0  0  0  0  0
   41.9720   32.8220   39.1560 H   0  0  0  0  0  0  0  0  0  0  0  0
   41.1450   32.9510   40.7180 H   0  0  0  0  0  0  0  0  0  0  0  0
   43.5690   33.6610   41.2500 C   0  0  0  0  0  0  0  0  0  0  0  0
   44.8410   34.1850   41.5220 C   0  0  0  0  0  0  0  0  0  0  0  0
   45.7110   33.5040   42.3620 C   0  0  0  0  0  0  0  0  0  0  0  0
   45.2630   32.3290   42.8880 N   0  0  0  0  0  0  0  0  0  0  0  0
   44.0160   31.8350   42.6090 C   0  0  0  0  0  0  0  0  0  0  0  0
   43.1680   32.4910   41.7960 N   0  0  0  0  0  0  0  0  0  0  0  0
   43.6810   30.5900   43.2330 N   0  0  0  0  0  0  0  0  0  0  0  0
   45.1440   35.1020   41.0880 H   0  0  0  0  0  0  0  0  0  0  0  0
   43.9850   29.8100   42.6010 H   0  0  0  0  0  0  0  0  0  0  0  0
   43.2170   30.3600   44.1440 H   0  0  0  0  0  0  0  0  0  0  0  0
   47.0460   34.0260   42.6650 C   0  0  0  0  0  0  0  0  0  0  0  0
   48.1320   33.0730   42.1770 C   0  0  0  0  0  0  0  0  0  0  0  0
   49.4110   33.5840   42.8410 C   0  0  0  0  0  0  0  0  0  0  0  0
   49.7920   34.8860   42.1930 C   0  0  0  0  0  0  0  0  0  0  0  0
   48.6500   35.5480   41.4750 C   0  0  0  0  0  0  0  0  0  0  0  0
   47.3300   35.4020   42.1750 C   0  0  0  0  0  0  0  0  0  0  0  0
  1  2  1  0  0  0  0
  1 18  1  0  0  0  0
  2  3  1  0  0  0  0
  2  9  1  0  0  0  0
  3 11  1  0  0  0  0
  3 10  1  0  0  0  0
  4 13  1  0  0  0  0
  4  3  1  0  0  0  0
  5  6  1  0  0  0  0
  5  4  1  0  0  0  0
  6  1  1  0  0  0  0
  6 17  1  0  0  0  0
  7  1  1  0  0  0  0
  8  2  1  0  0  0  0
 12  4  1  0  0  0  0
 14  5  1  0  0  0  0
 15  5  1  0  0  0  0
 16  6  1  0  0  0  0
 18 19  2  0  0  0  0
 18 23  1  0  0  0  0
 19 20  1  0  0  0  0
 20 28  1  0  0  0  0
 20 21  2  0  0  0  0
 22 21  1  0  0  0  0
 22 24  1  0  0  0  0
 23 22  2  0  0  0  0
 24 27  1  0  0  0  0
 25 19  1  0  0  0  0
 26 24  1  0  0  0  0
 29 28  1  0  0  0  0
 29 30  1  0  0  0  0
 31 30  1  0  0  0  0
 32 33  1  0  0  0  0
 32 31  1  0  0  0  0
 33 28  1  0  0  0  0
M  END
>  <minimizedAffinity>
-5.59675026

>  <minimizedRMSD>
5.16128492

$$$$
