
 OpenBabel03252508553D

 40 43  0  0  1  0  0  0  0  0999 V2000
   39.8500   30.4920   40.6830 C   0  0  0  0  0  0  0  0  0  0  0  0
   40.7150   31.3400   41.1080 O   0  0  0  0  0  0  0  0  0  0  0  0
   38.9780   31.4020   39.9610 N   0  0  0  0  0  0  0  0  0  0  0  0
   39.6210   32.1180   38.8810 C   0  0  0  0  0  0  0  0  0  0  0  0
   39.8990   33.5220   39.4640 C   0  0  0  0  0  0  0  0  0  0  0  0
   38.7170   33.8520   40.3730 C   0  0  0  0  0  0  0  0  0  0  0  0
   37.4300   33.1580   39.9090 C   0  0  0  0  0  0  0  0  0  0  0  0
   37.5810   31.6750   40.1900 C   0  0  1  0  0  0  0  0  0  0  0  0
   38.9510   32.3550   38.0310 H   0  0  0  0  0  0  0  0  0  0  0  0
   40.5570   31.6510   38.5440 H   0  0  0  0  0  0  0  0  0  0  0  0
   40.0140   34.2660   38.6510 H   0  0  0  0  0  0  0  0  0  0  0  0
   40.7880   33.4480   40.0880 H   0  0  0  0  0  0  0  0  0  0  0  0
   38.9230   33.5510   41.4080 H   0  0  0  0  0  0  0  0  0  0  0  0
   38.5470   34.9300   40.3290 H   0  0  0  0  0  0  0  0  0  0  0  0
   36.6360   33.6300   40.5280 H   0  0  0  0  0  0  0  0  0  0  0  0
   37.2700   33.3680   38.8400 H   0  0  0  0  0  0  0  0  0  0  0  0
   37.4130   31.5530   41.2830 H   0  0  0  0  0  0  0  0  0  0  0  0
   36.6050   30.8300   39.4740 C   0  0  1  0  0  3  0  0  0  0  0  0
   37.0890   29.9600   38.3810 C   0  0  0  0  0  2  0  0  0  0  0  0
   35.8880   29.5210   37.5810 C   0  0  0  0  0  2  0  0  0  0  0  0
   34.6780   29.1780   38.3460 C   0  0  0  0  0  3  0  0  0  0  0  0
   34.7170   29.1990   39.8160 C   0  0  0  0  0  3  0  0  0  0  0  0
   35.9110   29.8760   40.4300 C   0  0  0  0  0  2  0  0  0  0  0  0
   39.8490   29.1510   40.9030 O   0  0  0  0  0  0  0  0  0  0  0  0
   40.6860   28.4400   41.7270 C   0  0  0  0  0  0  0  0  0  0  0  0
   40.0980   27.8110   42.8440 C   0  0  0  0  0  0  0  0  0  0  0  0
   40.9720   27.0890   43.6740 C   0  0  0  0  0  0  0  0  0  0  0  0
   42.3040   27.0410   43.3570 N   0  0  0  0  0  0  0  0  0  0  0  0
   42.7920   27.6620   42.2800 C   0  0  0  0  0  0  0  0  0  0  0  0
   41.9840   28.3590   41.4690 N   0  0  0  0  0  0  0  0  0  0  0  0
   40.5200   26.6160   44.5170 H   0  0  0  0  0  0  0  0  0  0  0  0
   43.8500   27.6070   42.0540 H   0  0  0  0  0  0  0  0  0  0  0  0
   38.6820   27.9260   43.0870 C   0  0  0  0  0  0  0  0  0  0  0  0
   37.7920   26.9020   42.7620 C   0  0  0  0  0  0  0  0  0  0  0  0
   36.5680   27.4120   43.1500 C   0  0  0  0  0  0  0  0  0  0  0  0
   36.7130   28.6540   43.6720 N   0  0  0  0  0  0  0  0  0  0  0  0
   37.9960   28.9330   43.6190 N   0  0  0  0  0  0  0  0  0  0  0  0
   37.9460   25.9350   42.3190 H   0  0  0  0  0  0  0  0  0  0  0  0
   35.6100   26.9110   43.0610 H   0  0  0  0  0  0  0  0  0  0  0  0
   36.0060   29.3090   44.0540 H   0  0  0  0  0  0  0  0  0  0  0  0
  1 24  1  0  0  0  0
  1  2  2  0  0  0  0
  3  8  1  0  0  0  0
  3  1  1  0  0  0  0
  4  5  1  0  0  0  0
  4  3  1  0  0  0  0
  5 12  1  0  0  0  0
  5  6  1  0  0  0  0
  6 13  1  0  0  0  0
  7  8  1  0  0  0  0
  7  6  1  0  0  0  0
  7 15  1  0  0  0  0
  8 17  1  1  0  0  0
  9  4  1  0  0  0  0
 10  4  1  0  0  0  0
 11  5  1  0  0  0  0
 14  6  1  0  0  0  0
 16  7  1  0  0  0  0
 18 19  1  6  0  0  0
 18  8  1  0  0  0  0
 18 23  1  0  0  0  0
 20 21  1  0  0  0  0
 20 19  1  0  0  0  0
 21 22  2  0  0  0  0
 22 23  1  0  0  0  0
 24 25  1  0  0  0  0
 25 26  1  0  0  0  0
 26 33  1  0  0  0  0
 26 27  2  0  0  0  0
 27 31  1  0  0  0  0
 28 27  1  0  0  0  0
 29 28  2  0  0  0  0
 30 25  2  0  0  0  0
 30 29  1  0  0  0  0
 32 29  1  0  0  0  0
 33 37  2  0  0  0  0
 34 33  1  0  0  0  0
 34 35  2  0  0  0  0
 35 36  1  0  0  0  0
 36 40  1  0  0  0  0
 37 36  1  0  0  0  0
 38 34  1  0  0  0  0
 39 35  1  0  0  0  0
M  END
>  <minimizedAffinity>
-6.45083332

$$$$

 OpenBabel03252508553D

 40 43  0  0  1  0  0  0  0  0999 V2000
   38.0640   29.5650   38.2020 C   0  0  0  0  0  0  0  0  0  0  0  0
   37.6360   29.8270   37.0200 O   0  0  0  0  0  0  0  0  0  0  0  0
   36.8960   28.8740   38.7170 N   0  0  0  0  0  0  0  0  0  0  0  0
   36.5360   27.6790   37.9880 C   0  0  0  0  0  0  0  0  0  0  0  0
   35.3560   28.1170   37.0920 C   0  0  0  0  0  0  0  0  0  0  0  0
   34.5450   29.1210   37.9100 C   0  0  0  0  0  0  0  0  0  0  0  0
   34.6610   28.8550   39.4160 C   0  0  0  0  0  0  0  0  0  0  0  0
   36.0670   29.2320   39.8420 C   0  0  1  0  0  0  0  0  0  0  0  0
   36.0670   26.8900   38.6100 H   0  0  0  0  0  0  0  0  0  0  0  0
   37.3550   27.2790   37.3730 H   0  0  0  0  0  0  0  0  0  0  0  0
   34.7460   27.2410   36.7930 H   0  0  0  0  0  0  0  0  0  0  0  0
   35.7720   28.6440   36.2360 H   0  0  0  0  0  0  0  0  0  0  0  0
   34.8770   30.1480   37.7090 H   0  0  0  0  0  0  0  0  0  0  0  0
   33.4950   29.0120   37.6330 H   0  0  0  0  0  0  0  0  0  0  0  0
   33.8880   29.5180   39.8630 H   0  0  0  0  0  0  0  0  0  0  0  0
   34.4320   27.7960   39.6160 H   0  0  0  0  0  0  0  0  0  0  0  0
   36.0810   30.3430   39.9000 H   0  0  0  0  0  0  0  0  0  0  0  0
   36.4550   28.6940   41.1610 C   0  0  1  0  0  3  0  0  0  0  0  0
   36.9360   27.2980   41.2420 C   0  0  0  0  0  2  0  0  0  0  0  0
   36.8880   26.8830   42.6920 C   0  0  0  0  0  2  0  0  0  0  0  0
   37.3080   27.8910   43.6790 C   0  0  0  0  0  3  0  0  0  0  0  0
   37.8190   29.1910   43.2190 C   0  0  0  0  0  3  0  0  0  0  0  0
   37.5800   29.5120   41.7690 C   0  0  0  0  0  2  0  0  0  0  0  0
   39.2800   29.8880   38.7160 O   0  0  0  0  0  0  0  0  0  0  0  0
   40.2740   30.6190   38.1140 C   0  0  0  0  0  0  0  0  0  0  0  0
   40.3000   32.0030   38.3800 C   0  0  0  0  0  0  0  0  0  0  0  0
   41.3250   32.7320   37.7530 C   0  0  0  0  0  0  0  0  0  0  0  0
   42.2120   32.0710   36.9450 N   0  0  0  0  0  0  0  0  0  0  0  0
   42.1280   30.7550   36.7380 C   0  0  0  0  0  0  0  0  0  0  0  0
   41.1610   30.0320   37.3200 N   0  0  0  0  0  0  0  0  0  0  0  0
   41.3380   33.7780   37.9600 H   0  0  0  0  0  0  0  0  0  0  0  0
   42.8440   30.2600   36.0930 H   0  0  0  0  0  0  0  0  0  0  0  0
   39.3150   32.5990   39.2480 C   0  0  0  0  0  0  0  0  0  0  0  0
   39.6330   33.0390   40.5330 C   0  0  0  0  0  0  0  0  0  0  0  0
   38.4320   33.5290   41.0060 C   0  0  0  0  0  0  0  0  0  0  0  0
   37.4600   33.3930   40.0710 N   0  0  0  0  0  0  0  0  0  0  0  0
   38.0250   32.8300   39.0270 N   0  0  0  0  0  0  0  0  0  0  0  0
   40.5570   33.0310   41.0830 H   0  0  0  0  0  0  0  0  0  0  0  0
   38.2600   33.9660   41.9840 H   0  0  0  0  0  0  0  0  0  0  0  0
   36.4580   33.6540   40.1020 H   0  0  0  0  0  0  0  0  0  0  0  0
  1 24  1  0  0  0  0
  1  3  1  0  0  0  0
  2  1  2  0  0  0  0
  3  8  1  0  0  0  0
  4  9  1  0  0  0  0
  4  3  1  0  0  0  0
  5  6  1  0  0  0  0
  5  4  1  0  0  0  0
  6  7  1  0  0  0  0
  7 16  1  0  0  0  0
  7  8  1  0  0  0  0
  7 15  1  0  0  0  0
  8 17  1  1  0  0  0
  8 18  1  0  0  0  0
 10  4  1  0  0  0  0
 11  5  1  0  0  0  0
 12  5  1  0  0  0  0
 13  6  1  0  0  0  0
 14  6  1  0  0  0  0
 18 19  1  6  0  0  0
 18 23  1  0  0  0  0
 19 20  1  0  0  0  0
 20 21  1  0  0  0  0
 22 21  2  0  0  0  0
 23 22  1  0  0  0  0
 25 26  1  0  0  0  0
 25 24  1  0  0  0  0
 26 33  1  0  0  0  0
 27 31  1  0  0  0  0
 27 26  2  0  0  0  0
 28 27  1  0  0  0  0
 29 28  2  0  0  0  0
 29 30  1  0  0  0  0
 30 25  2  0  0  0  0
 32 29  1  0  0  0  0
 33 34  1  0  0  0  0
 34 35  2  0  0  0  0
 34 38  1  0  0  0  0
 35 39  1  0  0  0  0
 36 40  1  0  0  0  0
 36 35  1  0  0  0  0
 37 33  2  0  0  0  0
 37 36  1  0  0  0  0
M  END
>  <minimizedAffinity>
-6.09370279

$$$$

 OpenBabel03252508553D

 40 43  0  0  1  0  0  0  0  0999 V2000
   35.8130   26.6860   38.6020 C   0  0  0  0  0  0  0  0  0  0  0  0
   35.5470   25.7110   37.8110 O   0  0  0  0  0  0  0  0  0  0  0  0
   36.8540   26.0570   39.3950 N   0  0  0  0  0  0  0  0  0  0  0  0
   38.0110   25.6360   38.6370 C   0  0  0  0  0  0  0  0  0  0  0  0
   37.8190   24.1130   38.4580 C   0  0  0  0  0  0  0  0  0  0  0  0
   37.1780   23.6060   39.7480 C   0  0  0  0  0  0  0  0  0  0  0  0
   37.5700   24.4650   40.9560 C   0  0  0  0  0  0  0  0  0  0  0  0
   36.8690   25.8030   40.8140 C   0  0  1  0  0  0  0  0  0  0  0  0
   38.9640   25.6770   39.2020 H   0  0  0  0  0  0  0  0  0  0  0  0
   38.0970   26.1290   37.6590 H   0  0  0  0  0  0  0  0  0  0  0  0
   38.7890   23.6170   38.2570 H   0  0  0  0  0  0  0  0  0  0  0  0
   37.1030   23.9660   37.6510 H   0  0  0  0  0  0  0  0  0  0  0  0
   36.0830   23.5980   39.6650 H   0  0  0  0  0  0  0  0  0  0  0  0
   37.5410   22.5920   39.9300 H   0  0  0  0  0  0  0  0  0  0  0  0
   37.2010   23.8830   41.8280 H   0  0  0  0  0  0  0  0  0  0  0  0
   38.6660   24.5670   40.9880 H   0  0  0  0  0  0  0  0  0  0  0  0
   35.8120   25.6280   41.1120 H   0  0  0  0  0  0  0  0  0  0  0  0
   37.4250   26.8620   41.6800 C   0  0  1  0  0  3  0  0  0  0  0  0
   36.7800   27.1210   42.9840 C   0  0  0  0  0  2  0  0  0  0  0  0
   37.2690   28.4610   43.4770 C   0  0  0  0  0  3  0  0  0  0  0  0
   38.6940   28.7610   43.2610 C   0  0  0  0  0  3  0  0  0  0  0  0
   39.5700   27.7390   42.6670 C   0  0  0  0  0  2  0  0  0  0  0  0
   38.8730   26.5670   42.0330 C   0  0  0  0  0  2  0  0  0  0  0  0
   35.2260   27.9120   38.6060 O   0  0  0  0  0  0  0  0  0  0  0  0
   35.7480   29.0860   39.0900 C   0  0  0  0  0  0  0  0  0  0  0  0
   36.5570   29.8350   38.2110 C   0  0  0  0  0  0  0  0  0  0  0  0
   37.0820   31.0320   38.7270 C   0  0  0  0  0  0  0  0  0  0  0  0
   36.7830   31.3900   40.0150 N   0  0  0  0  0  0  0  0  0  0  0  0
   36.0070   30.6300   40.7920 C   0  0  0  0  0  0  0  0  0  0  0  0
   35.4920   29.4820   40.3300 N   0  0  0  0  0  0  0  0  0  0  0  0
   37.6930   31.5930   38.0560 H   0  0  0  0  0  0  0  0  0  0  0  0
   35.7870   30.9380   41.8080 H   0  0  0  0  0  0  0  0  0  0  0  0
   36.8100   29.3660   36.8710 C   0  0  0  0  0  0  0  0  0  0  0  0
   35.9370   29.6380   35.8180 C   0  0  0  0  0  0  0  0  0  0  0  0
   36.5410   29.0210   34.7390 C   0  0  0  0  0  0  0  0  0  0  0  0
   37.6960   28.4220   35.1190 N   0  0  0  0  0  0  0  0  0  0  0  0
   37.8280   28.6480   36.4060 N   0  0  0  0  0  0  0  0  0  0  0  0
   35.0100   30.1820   35.7790 H   0  0  0  0  0  0  0  0  0  0  0  0
   36.1670   29.0030   33.7220 H   0  0  0  0  0  0  0  0  0  0  0  0
   38.3840   27.8800   34.5660 H   0  0  0  0  0  0  0  0  0  0  0  0
  1 24  1  0  0  0  0
  1  3  1  0  0  0  0
  2  1  2  0  0  0  0
  3  8  1  0  0  0  0
  4  9  1  0  0  0  0
  4  3  1  0  0  0  0
  5  4  1  0  0  0  0
  5  6  1  0  0  0  0
  6 14  1  0  0  0  0
  6  7  1  0  0  0  0
  7 16  1  0  0  0  0
  7 15  1  0  0  0  0
  8  7  1  0  0  0  0
  8 17  1  1  0  0  0
  8 18  1  0  0  0  0
 10  4  1  0  0  0  0
 11  5  1  0  0  0  0
 12  5  1  0  0  0  0
 13  6  1  0  0  0  0
 18 23  1  1  0  0  0
 18 19  1  0  0  0  0
 19 20  1  0  0  0  0
 21 20  2  0  0  0  0
 22 21  1  0  0  0  0
 23 22  1  0  0  0  0
 24 25  1  0  0  0  0
 25 30  1  0  0  0  0
 26 27  1  0  0  0  0
 26 25  2  0  0  0  0
 27 28  2  0  0  0  0
 28 29  1  0  0  0  0
 29 32  1  0  0  0  0
 30 29  2  0  0  0  0
 31 27  1  0  0  0  0
 33 26  1  0  0  0  0
 34 33  1  0  0  0  0
 35 36  1  0  0  0  0
 35 34  2  0  0  0  0
 36 37  1  0  0  0  0
 37 33  2  0  0  0  0
 38 34  1  0  0  0  0
 39 35  1  0  0  0  0
 40 36  1  0  0  0  0
M  END
>  <minimizedAffinity>
-6.03160906

$$$$

 OpenBabel03252508553D

 40 43  0  0  1  0  0  0  0  0999 V2000
   36.0130   27.3450   38.6190 C   0  0  0  0  0  0  0  0  0  0  0  0
   35.6210   26.6120   37.6410 O   0  0  0  0  0  0  0  0  0  0  0  0
   36.0460   28.6280   37.9400 N   0  0  0  0  0  0  0  0  0  0  0  0
   34.7720   29.0580   37.4090 C   0  0  0  0  0  0  0  0  0  0  0  0
   34.8560   28.7370   35.9000 C   0  0  0  0  0  0  0  0  0  0  0  0
   36.3010   29.0050   35.4840 C   0  0  0  0  0  0  0  0  0  0  0  0
   36.9530   30.0900   36.3510 C   0  0  0  0  0  0  0  0  0  0  0  0
   37.1740   29.5020   37.7310 C   0  0  1  0  0  0  0  0  0  0  0  0
   34.6320   30.1580   37.3980 H   0  0  0  0  0  0  0  0  0  0  0  0
   33.9130   28.5440   37.8630 H   0  0  0  0  0  0  0  0  0  0  0  0
   34.1400   29.3590   35.3270 H   0  0  0  0  0  0  0  0  0  0  0  0
   34.6680   27.6710   35.7810 H   0  0  0  0  0  0  0  0  0  0  0  0
   36.9050   28.0910   35.5550 H   0  0  0  0  0  0  0  0  0  0  0  0
   36.2950   29.3640   34.4530 H   0  0  0  0  0  0  0  0  0  0  0  0
   37.9070   30.3130   35.8250 H   0  0  0  0  0  0  0  0  0  0  0  0
   36.3000   30.9770   36.3720 H   0  0  0  0  0  0  0  0  0  0  0  0
   38.0670   28.8460   37.6450 H   0  0  0  0  0  0  0  0  0  0  0  0
   37.4410   30.5140   38.7730 C   0  0  1  0  0  3  0  0  0  0  0  0
   38.7370   30.4730   39.4840 C   0  0  0  0  0  2  0  0  0  0  0  0
   38.6060   31.3260   40.7220 C   0  0  0  0  0  3  0  0  0  0  0  0
   37.8580   32.5850   40.5760 C   0  0  0  0  0  3  0  0  0  0  0  0
   37.3580   32.9850   39.2520 C   0  0  0  0  0  2  0  0  0  0  0  0
   37.3780   31.9160   38.1940 C   0  0  0  0  0  2  0  0  0  0  0  0
   36.2870   26.9330   39.8850 O   0  0  0  0  0  0  0  0  0  0  0  0
   36.7490   25.7030   40.2810 C   0  0  0  0  0  0  0  0  0  0  0  0
   37.4780   25.6520   41.4860 C   0  0  0  0  0  0  0  0  0  0  0  0
   37.9420   24.3830   41.8730 C   0  0  0  0  0  0  0  0  0  0  0  0
   37.6640   23.3030   41.0780 N   0  0  0  0  0  0  0  0  0  0  0  0
   36.9650   23.4250   39.9470 C   0  0  0  0  0  0  0  0  0  0  0  0
   36.5100   24.6210   39.5500 N   0  0  0  0  0  0  0  0  0  0  0  0
   38.4920   24.3530   42.7860 H   0  0  0  0  0  0  0  0  0  0  0  0
   36.7610   22.5520   39.3380 H   0  0  0  0  0  0  0  0  0  0  0  0
   37.7150   26.8530   42.2480 C   0  0  0  0  0  0  0  0  0  0  0  0
   36.8020   27.3190   43.1940 C   0  0  0  0  0  0  0  0  0  0  0  0
   37.4030   28.4640   43.6780 C   0  0  0  0  0  0  0  0  0  0  0  0
   38.5950   28.6710   43.0650 N   0  0  0  0  0  0  0  0  0  0  0  0
   38.7510   27.6850   42.2120 N   0  0  0  0  0  0  0  0  0  0  0  0
   35.8500   26.9370   43.5180 H   0  0  0  0  0  0  0  0  0  0  0  0
   37.0020   29.1250   44.4390 H   0  0  0  0  0  0  0  0  0  0  0  0
   39.2920   29.4280   43.1910 H   0  0  0  0  0  0  0  0  0  0  0  0
  1 24  1  0  0  0  0
  2  1  2  0  0  0  0
  3  1  1  0  0  0  0
  4 10  1  0  0  0  0
  4  3  1  0  0  0  0
  5  4  1  0  0  0  0
  6 13  1  0  0  0  0
  6  5  1  0  0  0  0
  6  7  1  0  0  0  0
  7 16  1  0  0  0  0
  7  8  1  0  0  0  0
  8 17  1  6  0  0  0
  8  3  1  0  0  0  0
  8 18  1  0  0  0  0
  9  4  1  0  0  0  0
 11  5  1  0  0  0  0
 12  5  1  0  0  0  0
 14  6  1  0  0  0  0
 15  7  1  0  0  0  0
 18 23  1  6  0  0  0
 18 19  1  0  0  0  0
 19 20  1  0  0  0  0
 21 20  2  0  0  0  0
 22 21  1  0  0  0  0
 23 22  1  0  0  0  0
 24 25  1  0  0  0  0
 25 26  1  0  0  0  0
 26 27  2  0  0  0  0
 26 33  1  0  0  0  0
 27 31  1  0  0  0  0
 28 27  1  0  0  0  0
 29 28  2  0  0  0  0
 30 29  1  0  0  0  0
 30 25  2  0  0  0  0
 32 29  1  0  0  0  0
 33 34  1  0  0  0  0
 34 38  1  0  0  0  0
 34 35  2  0  0  0  0
 35 39  1  0  0  0  0
 36 40  1  0  0  0  0
 36 35  1  0  0  0  0
 37 33  2  0  0  0  0
 37 36  1  0  0  0  0
M  END
>  <minimizedAffinity>
-5.92994308

$$$$

 OpenBabel03252508553D

 40 43  0  0  1  0  0  0  0  0999 V2000
   39.5080   29.4790   41.9260 C   0  0  0  0  0  0  0  0  0  0  0  0
   39.8740   28.9420   43.0330 O   0  0  0  0  0  0  0  0  0  0  0  0
   38.2560   28.7690   41.7340 N   0  0  0  0  0  0  0  0  0  0  0  0
   37.2860   28.9700   42.7870 C   0  0  0  0  0  0  0  0  0  0  0  0
   37.3860   27.6920   43.6510 C   0  0  0  0  0  0  0  0  0  0  0  0
   37.6490   26.5400   42.6830 C   0  0  0  0  0  0  0  0  0  0  0  0
   37.0490   26.8100   41.2980 C   0  0  0  0  0  0  0  0  0  0  0  0
   37.8740   27.9030   40.6460 C   0  0  1  0  0  0  0  0  0  0  0  0
   36.2310   28.9300   42.4480 H   0  0  0  0  0  0  0  0  0  0  0  0
   37.4820   29.8620   43.3990 H   0  0  0  0  0  0  0  0  0  0  0  0
   36.4550   27.5390   44.2320 H   0  0  0  0  0  0  0  0  0  0  0  0
   38.2610   27.7970   44.2900 H   0  0  0  0  0  0  0  0  0  0  0  0
   38.7260   26.3620   42.5700 H   0  0  0  0  0  0  0  0  0  0  0  0
   37.1670   25.6460   43.0850 H   0  0  0  0  0  0  0  0  0  0  0  0
   37.1440   25.8350   40.7730 H   0  0  0  0  0  0  0  0  0  0  0  0
   35.9900   27.0940   41.4100 H   0  0  0  0  0  0  0  0  0  0  0  0
   38.8080   27.4120   40.2940 H   0  0  0  0  0  0  0  0  0  0  0  0
   37.2160   28.5340   39.4850 C   0  0  1  0  0  3  0  0  0  0  0  0
   37.8550   28.4130   38.1570 C   0  0  0  0  0  2  0  0  0  0  0  0
   37.2220   29.4390   37.2500 C   0  0  0  0  0  2  0  0  0  0  0  0
   35.7670   29.6230   37.3800 C   0  0  0  0  0  3  0  0  0  0  0  0
   35.0050   28.7660   38.3000 C   0  0  0  0  0  3  0  0  0  0  0  0
   35.8220   27.9680   39.2800 C   0  0  0  0  0  2  0  0  0  0  0  0
   40.1770   30.4300   41.2230 O   0  0  0  0  0  0  0  0  0  0  0  0
   40.5800   30.3710   39.9130 C   0  0  0  0  0  0  0  0  0  0  0  0
   40.0120   31.3110   39.0280 C   0  0  0  0  0  0  0  0  0  0  0  0
   40.4370   31.2330   37.6910 C   0  0  0  0  0  0  0  0  0  0  0  0
   41.3520   30.2770   37.3380 N   0  0  0  0  0  0  0  0  0  0  0  0
   41.8500   29.4180   38.2320 C   0  0  0  0  0  0  0  0  0  0  0  0
   41.4640   29.4660   39.5140 N   0  0  0  0  0  0  0  0  0  0  0  0
   40.0030   31.9470   37.0280 H   0  0  0  0  0  0  0  0  0  0  0  0
   42.5720   28.6710   37.9230 H   0  0  0  0  0  0  0  0  0  0  0  0
   39.0540   32.2780   39.5040 C   0  0  0  0  0  0  0  0  0  0  0  0
   39.4180   33.5900   39.8070 C   0  0  0  0  0  0  0  0  0  0  0  0
   38.2290   34.1610   40.2170 C   0  0  0  0  0  0  0  0  0  0  0  0
   37.2220   33.2550   40.1650 N   0  0  0  0  0  0  0  0  0  0  0  0
   37.7520   32.1340   39.7320 N   0  0  0  0  0  0  0  0  0  0  0  0
   40.3640   34.0990   39.7580 H   0  0  0  0  0  0  0  0  0  0  0  0
   38.0910   35.1870   40.5420 H   0  0  0  0  0  0  0  0  0  0  0  0
   36.2180   33.3540   40.4010 H   0  0  0  0  0  0  0  0  0  0  0  0
  1  2  2  0  0  0  0
  3  1  1  0  0  0  0
  3  4  1  0  0  0  0
  4 10  1  0  0  0  0
  4  5  1  0  0  0  0
  5 11  1  0  0  0  0
  5 12  1  0  0  0  0
  6 14  1  0  0  0  0
  6  5  1  0  0  0  0
  7 16  1  0  0  0  0
  7  6  1  0  0  0  0
  8 17  1  6  0  0  0
  8  7  1  0  0  0  0
  8  3  1  0  0  0  0
  9  4  1  0  0  0  0
 13  6  1  0  0  0  0
 15  7  1  0  0  0  0
 18 19  1  6  0  0  0
 18  8  1  0  0  0  0
 20 21  1  0  0  0  0
 20 19  1  0  0  0  0
 21 22  2  0  0  0  0
 22 23  1  0  0  0  0
 23 18  1  0  0  0  0
 24  1  1  0  0  0  0
 25 24  1  0  0  0  0
 26 33  1  0  0  0  0
 26 25  2  0  0  0  0
 27 26  1  0  0  0  0
 28 27  2  0  0  0  0
 28 29  1  0  0  0  0
 29 30  2  0  0  0  0
 30 25  1  0  0  0  0
 31 27  1  0  0  0  0
 32 29  1  0  0  0  0
 33 37  2  0  0  0  0
 33 34  1  0  0  0  0
 34 35  2  0  0  0  0
 35 39  1  0  0  0  0
 36 35  1  0  0  0  0
 36 40  1  0  0  0  0
 37 36  1  0  0  0  0
 38 34  1  0  0  0  0
M  END
>  <minimizedAffinity>
-5.84860134

$$$$

 OpenBabel03252508553D

 40 43  0  0  1  0  0  0  0  0999 V2000
   39.7740   30.6980   40.9350 C   0  0  0  0  0  0  0  0  0  0  0  0
   40.5830   31.5970   41.3650 O   0  0  0  0  0  0  0  0  0  0  0  0
   38.9320   31.5350   40.0980 N   0  0  0  0  0  0  0  0  0  0  0  0
   39.6310   32.2030   39.0230 C   0  0  0  0  0  0  0  0  0  0  0  0
   39.8300   33.6470   39.5330 C   0  0  0  0  0  0  0  0  0  0  0  0
   38.5770   33.9960   40.3350 C   0  0  0  0  0  0  0  0  0  0  0  0
   37.3450   33.2360   39.8270 C   0  0  0  0  0  0  0  0  0  0  0  0
   37.5160   31.7780   40.2120 C   0  0  1  0  0  0  0  0  0  0  0  0
   39.0180   32.3670   38.1140 H   0  0  0  0  0  0  0  0  0  0  0  0
   40.6020   31.7450   38.7810 H   0  0  0  0  0  0  0  0  0  0  0  0
   39.9830   34.3440   38.6850 H   0  0  0  0  0  0  0  0  0  0  0  0
   40.6740   33.6390   40.2210 H   0  0  0  0  0  0  0  0  0  0  0  0
   38.7170   33.7650   41.3990 H   0  0  0  0  0  0  0  0  0  0  0  0
   38.3830   35.0630   40.2110 H   0  0  0  0  0  0  0  0  0  0  0  0
   36.4970   33.7190   40.3580 H   0  0  0  0  0  0  0  0  0  0  0  0
   37.2570   33.3750   38.7380 H   0  0  0  0  0  0  0  0  0  0  0  0
   37.2730   31.7170   41.2950 H   0  0  0  0  0  0  0  0  0  0  0  0
   36.6160   30.8610   39.4830 C   0  0  1  0  0  3  0  0  0  0  0  0
   37.2040   29.9170   38.5100 C   0  0  0  0  0  2  0  0  0  0  0  0
   36.0830   29.3930   37.6470 C   0  0  0  0  0  2  0  0  0  0  0  0
   34.8140   29.0900   38.3290 C   0  0  0  0  0  3  0  0  0  0  0  0
   34.7240   29.2270   39.7910 C   0  0  0  0  0  3  0  0  0  0  0  0
   35.8520   29.9730   40.4500 C   0  0  0  0  0  2  0  0  0  0  0  0
   39.7930   29.3730   41.2390 O   0  0  0  0  0  0  0  0  0  0  0  0
   38.8560   28.6670   41.9510 C   0  0  0  0  0  0  0  0  0  0  0  0
   38.5890   27.3500   41.5240 C   0  0  0  0  0  0  0  0  0  0  0  0
   37.6270   26.6450   42.2670 C   0  0  0  0  0  0  0  0  0  0  0  0
   37.0240   27.2620   43.3310 N   0  0  0  0  0  0  0  0  0  0  0  0
   37.3280   28.5150   43.6800 C   0  0  0  0  0  0  0  0  0  0  0  0
   38.2400   29.2140   42.9910 N   0  0  0  0  0  0  0  0  0  0  0  0
   37.4310   25.6490   41.9380 H   0  0  0  0  0  0  0  0  0  0  0  0
   36.8340   28.9770   44.5260 H   0  0  0  0  0  0  0  0  0  0  0  0
   39.2820   26.7950   40.3880 C   0  0  0  0  0  0  0  0  0  0  0  0
   40.4320   26.0190   40.5310 C   0  0  0  0  0  0  0  0  0  0  0  0
   40.7630   25.7000   39.2290 C   0  0  0  0  0  0  0  0  0  0  0  0
   39.8740   26.2470   38.3640 N   0  0  0  0  0  0  0  0  0  0  0  0
   38.9970   26.8990   39.0930 N   0  0  0  0  0  0  0  0  0  0  0  0
   40.9790   25.7060   41.4020 H   0  0  0  0  0  0  0  0  0  0  0  0
   41.6090   25.1000   38.9130 H   0  0  0  0  0  0  0  0  0  0  0  0
   39.8310   26.2040   37.3290 H   0  0  0  0  0  0  0  0  0  0  0  0
  1 24  1  0  0  0  0
  1  2  2  0  0  0  0
  3  8  1  0  0  0  0
  3  1  1  0  0  0  0
  4  5  1  0  0  0  0
  4  3  1  0  0  0  0
  5 12  1  0  0  0  0
  5  6  1  0  0  0  0
  6 13  1  0  0  0  0
  7  8  1  0  0  0  0
  7  6  1  0  0  0  0
  7 15  1  0  0  0  0
  8 17  1  1  0  0  0
  9  4  1  0  0  0  0
 10  4  1  0  0  0  0
 11  5  1  0  0  0  0
 14  6  1  0  0  0  0
 16  7  1  0  0  0  0
 18 19  1  6  0  0  0
 18  8  1  0  0  0  0
 18 23  1  0  0  0  0
 20 21  1  0  0  0  0
 20 19  1  0  0  0  0
 21 22  2  0  0  0  0
 22 23  1  0  0  0  0
 24 25  1  0  0  0  0
 25 30  1  0  0  0  0
 26 25  2  0  0  0  0
 26 27  1  0  0  0  0
 27 28  2  0  0  0  0
 28 29  1  0  0  0  0
 29 32  1  0  0  0  0
 30 29  2  0  0  0  0
 31 27  1  0  0  0  0
 33 34  1  0  0  0  0
 33 26  1  0  0  0  0
 34 38  1  0  0  0  0
 35 34  2  0  0  0  0
 36 37  1  0  0  0  0
 36 35  1  0  0  0  0
 37 33  2  0  0  0  0
 39 35  1  0  0  0  0
 40 36  1  0  0  0  0
M  END
>  <minimizedAffinity>
-5.81813765

$$$$

 OpenBabel03252508553D

 40 43  0  0  1  0  0  0  0  0999 V2000
   39.5830   29.3670   40.3750 C   0  0  0  0  0  0  0  0  0  0  0  0
   40.3160   29.1810   41.4120 O   0  0  0  0  0  0  0  0  0  0  0  0
   38.2860   29.0770   40.9600 N   0  0  0  0  0  0  0  0  0  0  0  0
   37.9150   29.9440   42.0560 C   0  0  0  0  0  0  0  0  0  0  0  0
   38.2000   29.1060   43.3220 C   0  0  0  0  0  0  0  0  0  0  0  0
   37.8440   27.6630   42.9710 C   0  0  0  0  0  0  0  0  0  0  0  0
   36.7430   27.5890   41.9050 C   0  0  0  0  0  0  0  0  0  0  0  0
   37.3470   28.0460   40.5910 C   0  0  1  0  0  0  0  0  0  0  0  0
   36.8250   30.1240   42.1450 H   0  0  0  0  0  0  0  0  0  0  0  0
   38.4850   30.8840   42.0830 H   0  0  0  0  0  0  0  0  0  0  0  0
   37.6060   29.4790   44.1800 H   0  0  0  0  0  0  0  0  0  0  0  0
   39.2710   29.1490   43.5090 H   0  0  0  0  0  0  0  0  0  0  0  0
   38.7250   27.1210   42.6020 H   0  0  0  0  0  0  0  0  0  0  0  0
   37.4650   27.1790   43.8730 H   0  0  0  0  0  0  0  0  0  0  0  0
   36.4580   26.5150   41.8920 H   0  0  0  0  0  0  0  0  0  0  0  0
   35.8940   28.2170   42.2180 H   0  0  0  0  0  0  0  0  0  0  0  0
   37.9520   27.1910   40.2180 H   0  0  0  0  0  0  0  0  0  0  0  0
   36.3440   28.3890   39.5620 C   0  0  1  0  0  3  0  0  0  0  0  0
   35.1040   29.0750   39.9830 C   0  0  0  0  0  2  0  0  0  0  0  0
   34.1110   28.9570   38.8530 C   0  0  0  0  0  3  0  0  0  0  0  0
   34.6440   29.1170   37.4900 C   0  0  0  0  0  3  0  0  0  0  0  0
   36.0620   29.4580   37.2990 C   0  0  0  0  0  2  0  0  0  0  0  0
   36.9410   29.3090   38.5110 C   0  0  0  0  0  2  0  0  0  0  0  0
   40.0050   29.7310   39.1360 O   0  0  0  0  0  0  0  0  0  0  0  0
   40.7100   28.9710   38.2370 C   0  0  0  0  0  0  0  0  0  0  0  0
   41.5090   29.6620   37.3030 C   0  0  0  0  0  0  0  0  0  0  0  0
   42.2210   28.8640   36.3920 C   0  0  0  0  0  0  0  0  0  0  0  0
   42.1000   27.5020   36.4640 N   0  0  0  0  0  0  0  0  0  0  0  0
   41.3240   26.9130   37.3780 C   0  0  0  0  0  0  0  0  0  0  0  0
   40.6310   27.6460   38.2600 N   0  0  0  0  0  0  0  0  0  0  0  0
   42.8230   29.3950   35.6890 H   0  0  0  0  0  0  0  0  0  0  0  0
   41.2480   25.8330   37.4110 H   0  0  0  0  0  0  0  0  0  0  0  0
   41.5640   31.1030   37.3140 C   0  0  0  0  0  0  0  0  0  0  0  0
   42.7720   31.7940   37.4060 C   0  0  0  0  0  0  0  0  0  0  0  0
   42.3800   33.1190   37.3830 C   0  0  0  0  0  0  0  0  0  0  0  0
   41.0320   33.2160   37.2840 N   0  0  0  0  0  0  0  0  0  0  0  0
   40.5720   31.9860   37.2440 N   0  0  0  0  0  0  0  0  0  0  0  0
   43.7880   31.4510   37.4800 H   0  0  0  0  0  0  0  0  0  0  0  0
   43.0370   33.9800   37.4360 H   0  0  0  0  0  0  0  0  0  0  0  0
   40.4210   34.0510   37.2420 H   0  0  0  0  0  0  0  0  0  0  0  0
  1  3  1  0  0  0  0
  1  2  2  0  0  0  0
  3  4  1  0  0  0  0
  4 10  1  0  0  0  0
  4  9  1  0  0  0  0
  4  5  1  0  0  0  0
  5 12  1  0  0  0  0
  5 11  1  0  0  0  0
  6  5  1  0  0  0  0
  6 14  1  0  0  0  0
  7 16  1  0  0  0  0
  7  6  1  0  0  0  0
  8 17  1  6  0  0  0
  8  3  1  0  0  0  0
  8  7  1  0  0  0  0
 13  6  1  0  0  0  0
 15  7  1  0  0  0  0
 18 23  1  6  0  0  0
 18 19  1  0  0  0  0
 18  8  1  0  0  0  0
 20 19  1  0  0  0  0
 21 20  2  0  0  0  0
 22 21  1  0  0  0  0
 22 23  1  0  0  0  0
 24  1  1  0  0  0  0
 25 30  1  0  0  0  0
 25 24  1  0  0  0  0
 26 33  1  0  0  0  0
 26 25  2  0  0  0  0
 27 28  2  0  0  0  0
 27 26  1  0  0  0  0
 28 29  1  0  0  0  0
 29 32  1  0  0  0  0
 29 30  2  0  0  0  0
 31 27  1  0  0  0  0
 33 34  1  0  0  0  0
 34 38  1  0  0  0  0
 35 34  2  0  0  0  0
 35 39  1  0  0  0  0
 36 35  1  0  0  0  0
 37 36  1  0  0  0  0
 37 33  2  0  0  0  0
 40 36  1  0  0  0  0
M  END
>  <minimizedAffinity>
-5.7196641

$$$$

 OpenBabel03252508553D

 40 43  0  0  1  0  0  0  0  0999 V2000
   36.4870   29.4440   40.6280 C   0  0  0  0  0  0  0  0  0  0  0  0
   35.4050   28.8400   40.9640 O   0  0  0  0  0  0  0  0  0  0  0  0
   37.4110   28.7610   41.5160 N   0  0  0  0  0  0  0  0  0  0  0  0
   37.4940   27.3320   41.3120 C   0  0  0  0  0  0  0  0  0  0  0  0
   36.6290   26.7320   42.4430 C   0  0  0  0  0  0  0  0  0  0  0  0
   36.8420   27.6230   43.6650 C   0  0  0  0  0  0  0  0  0  0  0  0
   38.2270   28.2810   43.6580 C   0  0  0  0  0  0  0  0  0  0  0  0
   38.2330   29.3250   42.5580 C   0  0  1  0  0  0  0  0  0  0  0  0
   38.4900   26.8980   41.5350 H   0  0  0  0  0  0  0  0  0  0  0  0
   37.1200   27.0080   40.3310 H   0  0  0  0  0  0  0  0  0  0  0  0
   36.9210   25.6820   42.6430 H   0  0  0  0  0  0  0  0  0  0  0  0
   35.5870   26.8230   42.1420 H   0  0  0  0  0  0  0  0  0  0  0  0
   36.0800   28.4120   43.7120 H   0  0  0  0  0  0  0  0  0  0  0  0
   36.7770   26.9950   44.5560 H   0  0  0  0  0  0  0  0  0  0  0  0
   38.3140   28.7300   44.6710 H   0  0  0  0  0  0  0  0  0  0  0  0
   38.9950   27.5060   43.5050 H   0  0  0  0  0  0  0  0  0  0  0  0
   37.6730   30.1980   42.9610 H   0  0  0  0  0  0  0  0  0  0  0  0
   39.5850   29.7800   42.1750 C   0  0  1  0  0  3  0  0  0  0  0  0
   40.0800   31.0640   42.7150 C   0  0  0  0  0  2  0  0  0  0  0  0
   41.2740   31.4760   41.8900 C   0  0  0  0  0  2  0  0  0  0  0  0
   42.2060   30.4050   41.5020 C   0  0  0  0  0  3  0  0  0  0  0  0
   41.9840   29.0350   41.9900 C   0  0  0  0  0  3  0  0  0  0  0  0
   40.6360   28.7680   42.6000 C   0  0  0  0  0  2  0  0  0  0  0  0
   36.6160   30.4230   39.6940 O   0  0  0  0  0  0  0  0  0  0  0  0
   37.5430   31.4340   39.6680 C   0  0  0  0  0  0  0  0  0  0  0  0
   38.6570   31.2570   38.8210 C   0  0  0  0  0  0  0  0  0  0  0  0
   39.5940   32.3040   38.8090 C   0  0  0  0  0  0  0  0  0  0  0  0
   39.3750   33.4030   39.5970 N   0  0  0  0  0  0  0  0  0  0  0  0
   38.2950   33.5030   40.3760 C   0  0  0  0  0  0  0  0  0  0  0  0
   37.3830   32.5220   40.4100 N   0  0  0  0  0  0  0  0  0  0  0  0
   40.4340   32.1620   38.1660 H   0  0  0  0  0  0  0  0  0  0  0  0
   38.1480   34.3850   40.9900 H   0  0  0  0  0  0  0  0  0  0  0  0
   38.7910   30.0580   38.0310 C   0  0  0  0  0  0  0  0  0  0  0  0
   39.6540   29.0260   38.3970 C   0  0  0  0  0  0  0  0  0  0  0  0
   39.4780   28.0950   37.3920 C   0  0  0  0  0  0  0  0  0  0  0  0
   38.5730   28.5380   36.4860 N   0  0  0  0  0  0  0  0  0  0  0  0
   38.1790   29.7210   36.9000 N   0  0  0  0  0  0  0  0  0  0  0  0
   40.3190   28.9130   39.2340 H   0  0  0  0  0  0  0  0  0  0  0  0
   39.9810   27.1380   37.3120 H   0  0  0  0  0  0  0  0  0  0  0  0
   38.2150   28.0920   35.6210 H   0  0  0  0  0  0  0  0  0  0  0  0
  1  2  2  0  0  0  0
  1  3  1  0  0  0  0
  3  8  1  0  0  0  0
  4  3  1  0  0  0  0
  4  9  1  0  0  0  0
  4  5  1  0  0  0  0
  5 11  1  0  0  0  0
  5  6  1  0  0  0  0
  6 13  1  0  0  0  0
  6 14  1  0  0  0  0
  7  6  1  0  0  0  0
  7 15  1  0  0  0  0
  8 17  1  1  0  0  0
  8  7  1  0  0  0  0
 10  4  1  0  0  0  0
 12  5  1  0  0  0  0
 16  7  1  0  0  0  0
 18  8  1  0  0  0  0
 18 23  1  1  0  0  0
 18 19  1  0  0  0  0
 20 19  1  0  0  0  0
 21 20  1  0  0  0  0
 21 22  2  0  0  0  0
 22 23  1  0  0  0  0
 24  1  1  0  0  0  0
 25 24  1  0  0  0  0
 25 30  1  0  0  0  0
 26 25  2  0  0  0  0
 27 26  1  0  0  0  0
 27 28  2  0  0  0  0
 28 29  1  0  0  0  0
 29 30  2  0  0  0  0
 29 32  1  0  0  0  0
 31 27  1  0  0  0  0
 33 34  1  0  0  0  0
 33 26  1  0  0  0  0
 34 38  1  0  0  0  0
 35 34  2  0  0  0  0
 36 37  1  0  0  0  0
 36 35  1  0  0  0  0
 37 33  2  0  0  0  0
 39 35  1  0  0  0  0
 40 36  1  0  0  0  0
M  END
>  <minimizedAffinity>
-5.67832756

$$$$

 OpenBabel03252508553D

 40 43  0  0  1  0  0  0  0  0999 V2000
   36.1110   27.8700   39.5620 C   0  0  0  0  0  0  0  0  0  0  0  0
   35.7510   26.9600   38.7300 O   0  0  0  0  0  0  0  0  0  0  0  0
   36.3180   28.9610   38.6260 N   0  0  0  0  0  0  0  0  0  0  0  0
   35.1400   29.3390   37.8770 C   0  0  0  0  0  0  0  0  0  0  0  0
   35.3380   28.6790   36.4940 C   0  0  0  0  0  0  0  0  0  0  0  0
   36.8330   28.7550   36.1910 C   0  0  0  0  0  0  0  0  0  0  0  0
   37.4910   29.9650   36.8650 C   0  0  0  0  0  0  0  0  0  0  0  0
   37.5310   29.6930   38.3570 C   0  0  1  0  0  0  0  0  0  0  0  0
   35.0970   30.4140   37.6100 H   0  0  0  0  0  0  0  0  0  0  0  0
   34.2020   28.9950   38.3340 H   0  0  0  0  0  0  0  0  0  0  0  0
   34.7340   29.1990   35.7230 H   0  0  0  0  0  0  0  0  0  0  0  0
   35.0700   27.6280   36.5910 H   0  0  0  0  0  0  0  0  0  0  0  0
   37.3470   27.8440   36.5260 H   0  0  0  0  0  0  0  0  0  0  0  0
   36.9530   28.8700   35.1120 H   0  0  0  0  0  0  0  0  0  0  0  0
   38.5060   30.0020   36.4120 H   0  0  0  0  0  0  0  0  0  0  0  0
   36.9180   30.8730   36.6200 H   0  0  0  0  0  0  0  0  0  0  0  0
   38.3690   28.9790   38.5150 H   0  0  0  0  0  0  0  0  0  0  0  0
   37.7860   30.8950   39.1750 C   0  0  1  0  0  3  0  0  0  0  0  0
   39.1760   31.1960   39.5780 C   0  0  0  0  0  2  0  0  0  0  0  0
   39.1180   32.2100   40.6950 C   0  0  0  0  0  3  0  0  0  0  0  0
   38.1170   33.2800   40.5610 C   0  0  0  0  0  3  0  0  0  0  0  0
   37.2970   33.3600   39.3420 C   0  0  0  0  0  2  0  0  0  0  0  0
   37.3270   32.1490   38.4510 C   0  0  0  0  0  2  0  0  0  0  0  0
   36.2300   27.7390   40.9090 O   0  0  0  0  0  0  0  0  0  0  0  0
   37.3490   27.9540   41.6740 C   0  0  0  0  0  0  0  0  0  0  0  0
   38.2290   26.8650   41.8380 C   0  0  0  0  0  0  0  0  0  0  0  0
   39.3680   27.1070   42.6250 C   0  0  0  0  0  0  0  0  0  0  0  0
   39.5500   28.3510   43.1680 N   0  0  0  0  0  0  0  0  0  0  0  0
   38.6730   29.3390   42.9690 C   0  0  0  0  0  0  0  0  0  0  0  0
   37.5770   29.1390   42.2250 N   0  0  0  0  0  0  0  0  0  0  0  0
   40.0290   26.2780   42.7440 H   0  0  0  0  0  0  0  0  0  0  0  0
   38.8430   30.3130   43.4120 H   0  0  0  0  0  0  0  0  0  0  0  0
   37.9420   25.5940   41.2210 C   0  0  0  0  0  0  0  0  0  0  0  0
   37.1250   24.6440   41.8340 C   0  0  0  0  0  0  0  0  0  0  0  0
   37.1160   23.6020   40.9260 C   0  0  0  0  0  0  0  0  0  0  0  0
   37.8740   23.9060   39.8450 N   0  0  0  0  0  0  0  0  0  0  0  0
   38.3560   25.1100   40.0540 N   0  0  0  0  0  0  0  0  0  0  0  0
   36.6020   24.6500   42.7730 H   0  0  0  0  0  0  0  0  0  0  0  0
   36.5860   22.6620   41.0380 H   0  0  0  0  0  0  0  0  0  0  0  0
   38.0780   23.3540   38.9910 H   0  0  0  0  0  0  0  0  0  0  0  0
  1 24  1  0  0  0  0
  2  1  2  0  0  0  0
  3  1  1  0  0  0  0
  4 10  1  0  0  0  0
  4  3  1  0  0  0  0
  5 12  1  0  0  0  0
  5  4  1  0  0  0  0
  6  5  1  0  0  0  0
  6 13  1  0  0  0  0
  6  7  1  0  0  0  0
  7  8  1  0  0  0  0
  8 17  1  1  0  0  0
  8  3  1  0  0  0  0
  8 18  1  0  0  0  0
  9  4  1  0  0  0  0
 11  5  1  0  0  0  0
 14  6  1  0  0  0  0
 15  7  1  0  0  0  0
 16  7  1  0  0  0  0
 18 23  1  6  0  0  0
 18 19  1  0  0  0  0
 19 20  1  0  0  0  0
 21 20  2  0  0  0  0
 22 21  1  0  0  0  0
 23 22  1  0  0  0  0
 24 25  1  0  0  0  0
 25 26  2  0  0  0  0
 25 30  1  0  0  0  0
 26 27  1  0  0  0  0
 27 31  1  0  0  0  0
 27 28  2  0  0  0  0
 29 28  1  0  0  0  0
 29 32  1  0  0  0  0
 30 29  2  0  0  0  0
 33 34  1  0  0  0  0
 33 26  1  0  0  0  0
 34 38  1  0  0  0  0
 35 39  1  0  0  0  0
 35 34  2  0  0  0  0
 36 37  1  0  0  0  0
 36 35  1  0  0  0  0
 37 33  2  0  0  0  0
 40 36  1  0  0  0  0
M  END
>  <minimizedAffinity>
-5.6731987

$$$$
