
 OpenBabel03252503133D

 31 34  0  0  0  0  0  0  0  0999 V2000
   45.4270   36.1870   43.3560 C   0  0  0  0  0  0  0  0  0  0  0  0
   46.0790   34.9730   43.0690 C   0  0  0  0  0  0  0  0  0  0  0  0
   45.9080   33.9920   44.0240 C   0  0  0  0  0  0  0  0  0  0  0  0
   45.1740   34.1770   45.1480 N   0  0  0  0  0  0  0  0  0  0  0  0
   44.5660   35.3720   45.3730 C   0  0  0  0  0  0  0  0  0  0  0  0
   44.6960   36.3750   44.4720 N   0  0  0  0  0  0  0  0  0  0  0  0
   45.5100   37.0170   42.6510 H   0  0  0  0  0  0  0  0  0  0  0  0
   43.9930   35.4690   46.2850 H   0  0  0  0  0  0  0  0  0  0  0  0
   46.5240   32.7460   43.8280 C   0  0  0  0  0  0  0  0  0  0  0  0
   47.7780   32.2480   44.0250 C   0  0  0  0  0  0  0  0  0  0  0  0
   48.1190   30.9930   43.7540 C   0  0  0  0  0  0  0  0  0  0  0  0
   47.1310   30.2000   43.2530 C   0  0  0  0  0  0  0  0  0  0  0  0
   45.6690   31.3210   43.1800 S   0  0  0  0  0  0  0  0  0  0  0  0
   48.4980   32.9860   44.4370 H   0  0  0  0  0  0  0  0  0  0  0  0
   49.0950   30.5490   43.8910 H   0  0  0  0  0  0  0  0  0  0  0  0
   47.1470   29.1350   42.9470 H   0  0  0  0  0  0  0  0  0  0  0  0
   46.8310   34.8300   41.8850 C   0  0  0  0  0  0  0  0  0  0  0  0
   48.0280   35.2610   41.9360 O   0  0  0  0  0  0  0  0  0  0  0  0
   46.2130   34.2030   40.6710 C   0  0  0  0  0  0  0  0  0  0  0  0
   44.8790   33.9900   40.4450 C   0  0  0  0  0  0  0  0  0  0  0  0
   44.7870   33.4080   39.2400 N   0  0  0  0  0  0  0  0  0  0  0  0
   46.0370   33.2690   38.7380 C   0  0  0  0  0  0  0  0  0  0  0  0
   46.9280   33.7630   39.6290 N   0  0  0  0  0  0  0  0  0  0  0  0
   44.0630   34.2460   41.1190 H   0  0  0  0  0  0  0  0  0  0  0  0
   43.8690   33.1460   38.8400 H   0  0  0  0  0  0  0  0  0  0  0  0
   46.3630   32.6630   37.4110 C   0  0  0  0  0  3  0  0  0  0  0  0
   47.3080   31.5090   37.5060 C   0  0  0  0  0  2  0  0  0  0  0  0
   47.2990   30.7970   36.1660 C   0  0  0  0  0  2  0  0  0  0  0  0
   46.0050   30.0970   35.8810 C   0  0  0  0  0  2  0  0  0  0  0  0
   44.9400   30.7190   36.7870 C   0  0  0  0  0  2  0  0  0  0  0  0
   45.1170   32.2280   36.6830 C   0  0  0  0  0  2  0  0  0  0  0  0
  1  6  1  0  0  0  0
  2  1  2  0  0  0  0
  2  3  1  0  0  0  0
  3  4  2  0  0  0  0
  4  5  1  0  0  0  0
  5  8  1  0  0  0  0
  6  5  2  0  0  0  0
  7  1  1  0  0  0  0
  9  3  1  0  0  0  0
  9 10  2  0  0  0  0
 10 14  1  0  0  0  0
 11 15  1  0  0  0  0
 11 10  1  0  0  0  0
 12 11  2  0  0  0  0
 13 12  1  0  0  0  0
 13  9  1  0  0  0  0
 16 12  1  0  0  0  0
 17 18  2  0  0  0  0
 17  2  1  0  0  0  0
 19 17  1  0  0  0  0
 20 19  2  0  0  0  0
 20 24  1  0  0  0  0
 21 20  1  0  0  0  0
 22 21  1  0  0  0  0
 22 23  2  0  0  0  0
 23 19  1  0  0  0  0
 25 21  1  0  0  0  0
 26 27  1  0  0  0  0
 26 22  1  0  0  0  0
 28 27  1  0  0  0  0
 29 28  1  0  0  0  0
 29 30  1  0  0  0  0
 31 30  1  0  0  0  0
 31 26  1  0  0  0  0
M  END
>  <minimizedAffinity>
-4.72407198

>  <minimizedRMSD>
0.765161455

$$$$
