
 OpenBabel03252504453D

 18 19  0  0  0  0  0  0  0  0999 V2000
   45.2510   34.7640   45.0520 C   0  0  0  0  0  0  0  0  0  0  0  0
   44.6820   35.6370   44.1210 C   0  0  0  0  0  0  0  0  0  0  0  0
   45.3140   35.7460   42.8730 C   0  0  0  0  0  0  0  0  0  0  0  0
   46.4230   35.0090   42.6430 N   0  0  0  0  0  0  0  0  0  0  0  0
   46.9480   34.1690   43.5780 C   0  0  0  0  0  0  0  0  0  0  0  0
   46.3580   34.0480   44.7840 N   0  0  0  0  0  0  0  0  0  0  0  0
   43.7930   36.2240   44.3130 H   0  0  0  0  0  0  0  0  0  0  0  0
   44.9150   36.4120   42.1050 H   0  0  0  0  0  0  0  0  0  0  0  0
   48.1530   33.4150   43.2310 C   0  0  0  0  0  3  0  0  0  0  0  0
   47.9280   32.2710   42.3060 C   0  0  0  0  0  2  0  0  0  0  0  0
   48.8300   32.2920   41.0950 C   0  0  0  0  0  2  0  0  0  0  0  0
   50.2710   32.5850   41.4020 C   0  0  0  0  0  2  0  0  0  0  0  0
   50.4650   33.7140   42.3900 C   0  0  0  0  0  2  0  0  0  0  0  0
   49.1550   34.4190   42.6540 C   0  0  0  0  0  2  0  0  0  0  0  0
   44.5660   34.6540   46.3900 C   0  0  0  0  0  0  0  0  0  0  0  0
   43.4720   34.6010   46.2560 H   0  0  0  0  0  0  0  0  0  0  0  0
   44.9150   33.7860   46.9530 H   0  0  0  0  0  0  0  0  0  0  0  0
   44.7980   35.5970   46.9410 H   0  0  0  0  0  0  0  0  0  0  0  0
  1 15  1  0  0  0  0
  2  7  1  0  0  0  0
  2  1  2  0  0  0  0
  3  2  1  0  0  0  0
  4  3  2  0  0  0  0
  4  5  1  0  0  0  0
  5  6  2  0  0  0  0
  6  1  1  0  0  0  0
  8  3  1  0  0  0  0
  9  5  1  0  0  0  0
 10  9  1  0  0  0  0
 11 12  1  0  0  0  0
 11 10  1  0  0  0  0
 12 13  1  0  0  0  0
 13 14  1  0  0  0  0
 14  9  1  0  0  0  0
 15 18  1  0  0  0  0
 15 17  1  0  0  0  0
 16 15  1  0  0  0  0
M  END
>  <minimizedAffinity>
-4.03471994

>  <minimizedRMSD>
5.70086956

$$$$
