
 OpenBabel03252505463D

 25 27  0  0  1  0  0  0  0  0999 V2000
   46.5480   33.0900   43.6940 C   0  0  0  0  0  0  0  0  0  0  0  0
   45.6230   32.4370   42.8350 C   0  0  0  0  0  0  0  0  0  0  0  0
   45.0030   31.2470   43.2180 C   0  0  0  0  0  0  0  0  0  0  0  0
   45.3420   30.7650   44.4510 N   0  0  0  0  0  0  0  0  0  0  0  0
   46.2380   31.4200   45.2490 C   0  0  0  0  0  0  0  0  0  0  0  0
   46.8170   32.5490   44.8720 N   0  0  0  0  0  0  0  0  0  0  0  0
   45.4120   32.8750   41.8920 H   0  0  0  0  0  0  0  0  0  0  0  0
   44.3110   30.7550   42.5790 H   0  0  0  0  0  0  0  0  0  0  0  0
   47.1800   34.3380   43.2380 C   0  0  1  0  0  0  0  0  0  0  0  0
   48.1420   34.0870   42.0330 C   0  0  1  0  0  0  0  0  0  0  0  0
   46.9230   34.9630   41.9800 C   0  0  0  0  0  0  0  0  0  0  0  0
   47.6680   34.9050   44.0790 H   0  0  0  0  0  0  0  0  0  0  0  0
   48.1520   33.1040   41.5720 H   0  0  0  0  0  0  0  0  0  0  0  0
   47.0430   36.0550   41.8420 H   0  0  0  0  0  0  0  0  0  0  0  0
   46.1300   34.5550   41.3090 H   0  0  0  0  0  0  0  0  0  0  0  0
   49.4520   34.8310   42.1360 C   0  0  0  0  0  0  0  0  0  0  0  0
   50.5320   34.0420   41.8030 F   0  0  0  0  0  0  0  0  0  0  0  0
   49.4210   35.8950   41.2220 F   0  0  0  0  0  0  0  0  0  0  0  0
   49.6000   35.3990   43.3810 F   0  0  0  0  0  0  0  0  0  0  0  0
   46.5860   30.8670   46.5870 C   0  0  0  0  0  3  0  0  0  0  0  0
   45.4110   30.3610   47.3560 C   0  0  0  0  0  2  0  0  0  0  0  0
   44.8130   31.4080   48.2800 C   0  0  0  0  0  2  0  0  0  0  0  0
   45.7990   31.8860   49.3270 C   0  0  0  0  0  2  0  0  0  0  0  0
   47.2230   31.5870   48.8940 C   0  0  0  0  0  2  0  0  0  0  0  0
   47.3040   31.9230   47.4300 C   0  0  0  0  0  2  0  0  0  0  0  0
  1  6  1  0  0  0  0
  2  3  1  0  0  0  0
  2  1  2  0  0  0  0
  3  4  2  0  0  0  0
  4  5  1  0  0  0  0
  5 20  1  0  0  0  0
  6  5  2  0  0  0  0
  7  2  1  0  0  0  0
  8  3  1  0  0  0  0
  9  1  1  0  0  0  0
  9 12  1  1  0  0  0
 10 13  1  6  0  0  0
 10 16  1  0  0  0  0
 10  9  1  0  0  0  0
 11 10  1  0  0  0  0
 11  9  1  0  0  0  0
 14 11  1  0  0  0  0
 15 11  1  0  0  0  0
 16 19  1  0  0  0  0
 17 16  1  0  0  0  0
 18 16  1  0  0  0  0
 20 21  1  0  0  0  0
 20 25  1  0  0  0  0
 21 22  1  0  0  0  0
 22 23  1  0  0  0  0
 24 23  1  0  0  0  0
 25 24  1  0  0  0  0
M  END
>  <minimizedAffinity>
-5.19269657

>  <minimizedRMSD>
3.43658876

$$$$
