
 OpenBabel03252503133D

 31 34  0  0  0  0  0  0  0  0999 V2000
   45.4730   36.2330   43.2790 C   0  0  0  0  0  0  0  0  0  0  0  0
   46.1200   35.0130   43.0070 C   0  0  0  0  0  0  0  0  0  0  0  0
   45.9220   34.0340   43.9590 C   0  0  0  0  0  0  0  0  0  0  0  0
   45.1680   34.2270   45.0680 N   0  0  0  0  0  0  0  0  0  0  0  0
   44.5660   35.4270   45.2790 C   0  0  0  0  0  0  0  0  0  0  0  0
   44.7220   36.4280   44.3810 N   0  0  0  0  0  0  0  0  0  0  0  0
   45.5770   37.0610   42.5760 H   0  0  0  0  0  0  0  0  0  0  0  0
   43.9750   35.5290   46.1800 H   0  0  0  0  0  0  0  0  0  0  0  0
   46.5310   32.7830   43.7760 C   0  0  0  0  0  0  0  0  0  0  0  0
   47.7860   32.2840   43.9660 C   0  0  0  0  0  0  0  0  0  0  0  0
   48.1200   31.0240   43.7120 C   0  0  0  0  0  0  0  0  0  0  0  0
   47.1230   30.2260   43.2360 C   0  0  0  0  0  0  0  0  0  0  0  0
   45.6630   31.3500   43.1620 S   0  0  0  0  0  0  0  0  0  0  0  0
   48.5140   33.0270   44.3560 H   0  0  0  0  0  0  0  0  0  0  0  0
   49.0960   30.5780   43.8440 H   0  0  0  0  0  0  0  0  0  0  0  0
   47.1310   29.1560   42.9480 H   0  0  0  0  0  0  0  0  0  0  0  0
   46.8940   34.8630   41.8380 C   0  0  0  0  0  0  0  0  0  0  0  0
   48.0810   35.3220   41.8990 O   0  0  0  0  0  0  0  0  0  0  0  0
   46.3110   34.1970   40.6280 C   0  0  0  0  0  0  0  0  0  0  0  0
   44.9830   33.9860   40.3660 C   0  0  0  0  0  0  0  0  0  0  0  0
   44.9240   33.3610   39.1810 N   0  0  0  0  0  0  0  0  0  0  0  0
   46.1890   33.1930   38.7260 C   0  0  0  0  0  0  0  0  0  0  0  0
   47.0550   33.7120   39.6270 N   0  0  0  0  0  0  0  0  0  0  0  0
   44.1480   34.2730   41.0030 H   0  0  0  0  0  0  0  0  0  0  0  0
   44.0180   33.0910   38.7610 H   0  0  0  0  0  0  0  0  0  0  0  0
   46.5520   32.5360   37.4330 C   0  0  0  0  0  3  0  0  0  0  0  0
   46.8430   31.0770   37.5750 C   0  0  0  0  0  2  0  0  0  0  0  0
   46.8740   30.4780   36.1810 C   0  0  0  0  0  2  0  0  0  0  0  0
   45.5300   30.4480   35.5220 C   0  0  0  0  0  2  0  0  0  0  0  0
   44.6440   31.4660   36.2470 C   0  0  0  0  0  2  0  0  0  0  0  0
   45.4790   32.7330   36.3940 C   0  0  0  0  0  2  0  0  0  0  0  0
  1  6  1  0  0  0  0
  2  1  2  0  0  0  0
  2  3  1  0  0  0  0
  3  4  2  0  0  0  0
  4  5  1  0  0  0  0
  5  8  1  0  0  0  0
  6  5  2  0  0  0  0
  7  1  1  0  0  0  0
  9  3  1  0  0  0  0
  9 10  2  0  0  0  0
 10 14  1  0  0  0  0
 11 15  1  0  0  0  0
 11 10  1  0  0  0  0
 12 11  2  0  0  0  0
 13 12  1  0  0  0  0
 13  9  1  0  0  0  0
 16 12  1  0  0  0  0
 17 18  2  0  0  0  0
 17  2  1  0  0  0  0
 19 17  1  0  0  0  0
 20 19  2  0  0  0  0
 20 24  1  0  0  0  0
 21 20  1  0  0  0  0
 22 21  1  0  0  0  0
 22 23  2  0  0  0  0
 23 19  1  0  0  0  0
 25 21  1  0  0  0  0
 26 27  1  0  0  0  0
 26 22  1  0  0  0  0
 28 27  1  0  0  0  0
 29 28  1  0  0  0  0
 29 30  1  0  0  0  0
 30 31  1  0  0  0  0
 31 26  1  0  0  0  0
M  END
>  <minimizedAffinity>
-4.82665682

>  <minimizedRMSD>
0.772113144

$$$$
