REMARK  Name = 
REMARK  3 active torsions:
REMARK  status: ('A' for Active; 'I' for Inactive)
REMARK    1  A    between atoms: C_2  and  C_14
REMARK    2  A    between atoms: C_9  and  C_16
REMARK    3  A    between atoms: C_19  and  C_30
REMARK                            x       y       z     vdW  Elec       q    Type
REMARK                         _______ _______ _______ _____ _____    ______ ____
ROOT
ATOM      1  C   UNL     1      47.266  31.392  45.150  0.00  0.00    +0.000 A 
ATOM      2  C   UNL     1      46.875  32.718  45.142  0.00  0.00    +0.000 A 
ATOM      3  C   UNL     1      46.238  33.330  46.208  0.00  0.00    +0.000 A 
ATOM      4  C   UNL     1      45.968  32.595  47.357  0.00  0.00    +0.000 A 
ATOM      5  N   UNL     1      45.381  32.847  48.561  0.00  0.00    +0.000 N 
ATOM      6  C   UNL     1      45.411  31.706  49.290  0.00  0.00    +0.000 A 
ATOM      7  N   UNL     1      46.015  30.763  48.532  0.00  0.00    +0.000 NA
ATOM      8  C   UNL     1      46.363  31.282  47.351  0.00  0.00    +0.000 A 
ATOM      9  C   UNL     1      46.993  30.656  46.309  0.00  0.00    +0.000 A 
ATOM     10  H   UNL     1      47.757  30.947  44.309  0.00  0.00    +0.000 HD
ATOM     11  H   UNL     1      45.940  34.360  46.189  0.00  0.00    +0.000 HD
ATOM     12  H   UNL     1      44.990  33.798  48.813  0.00  0.00    +0.000 HD
ATOM     13  H   UNL     1      45.006  31.635  50.291  0.00  0.00    +0.000 HD
ENDROOT
BRANCH   2  18
ATOM     14  C   UNL     1      46.484  35.182  42.429  0.00  0.00    +0.000 A 
ATOM     15  C   UNL     1      47.649  35.019  41.698  0.00  0.00    +0.000 A 
ATOM     16  C   UNL     1      48.576  34.064  42.130  0.00  0.00    +0.000 A 
ATOM     17  N   UNL     1      48.285  33.338  43.254  0.00  0.00    +0.000 NA
ATOM     18  C   UNL     1      47.147  33.518  43.942  0.00  0.00    +0.000 A 
ATOM     19  N   UNL     1      46.241  34.435  43.540  0.00  0.00    +0.000 NA
ATOM     20  H   UNL     1      45.730  35.919  42.128  0.00  0.00    +0.000 HD
ATOM     21  H   UNL     1      47.847  35.603  40.823  0.00  0.00    +0.000 HD
ATOM     22  H   UNL     1      49.507  33.896  41.592  0.00  0.00    +0.000 HD
ENDBRANCH   2  18
BRANCH   9  23
ATOM     23  C   UNL     1      47.378  29.237  46.397  0.00  0.00    +0.000 A 
ATOM     24  C   UNL     1      48.681  28.799  46.613  0.00  0.00    +0.000 A 
ATOM     25  C   UNL     1      48.546  27.397  46.617  0.00  0.00    +0.000 A 
ATOM     26  C   UNL     1      47.213  27.088  46.410  0.00  0.00    +0.000 A 
ATOM     27  O   UNL     1      46.562  28.232  46.285  0.00  0.00    +0.000 OA
ATOM     28  H   UNL     1      49.588  29.378  46.748  0.00  0.00    +0.000 HD
ATOM     29  H   UNL     1      49.348  26.688  46.759  0.00  0.00    +0.000 HD
BRANCH  26  30
ATOM     30  C   UNL     1      46.571  25.736  46.332  0.00  0.00    +0.000 C 
ATOM     31  C   UNL     1      46.399  25.124  47.691  0.00  0.00    +0.000 C 
ATOM     32  C   UNL     1      47.501  24.150  48.036  0.00  0.00    +0.000 C 
ATOM     33  C   UNL     1      47.509  22.984  47.078  0.00  0.00    +0.000 C 
ATOM     34  C   UNL     1      47.083  23.407  45.703  0.00  0.00    +0.000 C 
ATOM     35  C   UNL     1      47.351  24.857  45.397  0.00  0.00    +0.000 C 
ENDBRANCH  26  30
ENDBRANCH   9  23
TORSDOF 3
