
 OpenBabel03252506563D

 35 39  0  0  0  0  0  0  0  0999 V2000
   46.2380   31.3140   45.0490 C   0  0  0  0  0  0  0  0  0  0  0  0
   46.4060   32.6680   45.2670 C   0  0  0  0  0  0  0  0  0  0  0  0
   46.2330   33.2670   46.5030 C   0  0  0  0  0  0  0  0  0  0  0  0
   45.8730   32.4880   47.5970 C   0  0  0  0  0  0  0  0  0  0  0  0
   45.6250   32.7150   48.9170 N   0  0  0  0  0  0  0  0  0  0  0  0
   45.3130   31.5310   49.4960 C   0  0  0  0  0  0  0  0  0  0  0  0
   45.3720   30.5860   48.5300 N   0  0  0  0  0  0  0  0  0  0  0  0
   45.7120   31.1460   47.3650 C   0  0  0  0  0  0  0  0  0  0  0  0
   45.8770   30.5320   46.1530 C   0  0  0  0  0  0  0  0  0  0  0  0
   46.3790   30.8800   44.0800 H   0  0  0  0  0  0  0  0  0  0  0  0
   46.3670   34.3200   46.6590 H   0  0  0  0  0  0  0  0  0  0  0  0
   45.6840   33.6800   49.3470 H   0  0  0  0  0  0  0  0  0  0  0  0
   45.0700   31.4330   50.5460 H   0  0  0  0  0  0  0  0  0  0  0  0
   46.2690   35.2560   42.6460 C   0  0  0  0  0  0  0  0  0  0  0  0
   47.4880   35.1060   42.0040 C   0  0  0  0  0  0  0  0  0  0  0  0
   48.3640   34.1170   42.4660 C   0  0  0  0  0  0  0  0  0  0  0  0
   47.9730   33.3470   43.5290 N   0  0  0  0  0  0  0  0  0  0  0  0
   46.7850   33.5160   44.1300 C   0  0  0  0  0  0  0  0  0  0  0  0
   45.9270   34.4650   43.6990 N   0  0  0  0  0  0  0  0  0  0  0  0
   45.5520   36.0180   42.3190 H   0  0  0  0  0  0  0  0  0  0  0  0
   47.7640   35.7250   41.1760 H   0  0  0  0  0  0  0  0  0  0  0  0
   49.3330   33.9580   41.9980 H   0  0  0  0  0  0  0  0  0  0  0  0
   45.6790   29.0800   46.0030 C   0  0  0  0  0  0  0  0  0  0  0  0
   46.7190   28.1660   45.8640 C   0  0  0  0  0  0  0  0  0  0  0  0
   46.0440   26.9350   45.7560 C   0  0  0  0  0  0  0  0  0  0  0  0
   44.6830   27.1760   45.8360 C   0  0  0  0  0  0  0  0  0  0  0  0
   44.5260   28.4800   45.9830 O   0  0  0  0  0  0  0  0  0  0  0  0
   47.7890   28.3400   45.8420 H   0  0  0  0  0  0  0  0  0  0  0  0
   46.5120   25.9690   45.6350 H   0  0  0  0  0  0  0  0  0  0  0  0
   43.5570   26.1900   45.7720 C   0  0  0  0  0  3  0  0  0  0  0  0
   42.5260   26.5890   44.7560 C   0  0  0  0  0  2  0  0  0  0  0  0
   41.3470   27.3030   45.3730 C   0  0  0  0  0  2  0  0  0  0  0  0
   40.6170   26.4060   46.3420 C   0  0  0  0  0  2  0  0  0  0  0  0
   41.5650   25.4730   47.0370 C   0  0  0  0  0  2  0  0  0  0  0  0
   42.9730   25.9960   47.1420 C   0  0  0  0  0  2  0  0  0  0  0  0
  1  2  2  0  0  0  0
  1  9  1  0  0  0  0
  2  3  1  0  0  0  0
  3 11  1  0  0  0  0
  3  4  2  0  0  0  0
  4  5  1  0  0  0  0
  5 12  1  0  0  0  0
  5  6  1  0  0  0  0
  6 13  1  0  0  0  0
  7  6  2  0  0  0  0
  8  4  1  0  0  0  0
  8  7  1  0  0  0  0
  9  8  2  0  0  0  0
 10  1  1  0  0  0  0
 14 19  1  0  0  0  0
 15 16  1  0  0  0  0
 15 14  2  0  0  0  0
 16 17  2  0  0  0  0
 17 18  1  0  0  0  0
 18  2  1  0  0  0  0
 19 18  2  0  0  0  0
 20 14  1  0  0  0  0
 21 15  1  0  0  0  0
 22 16  1  0  0  0  0
 23  9  1  0  0  0  0
 24 23  2  0  0  0  0
 25 26  2  0  0  0  0
 25 24  1  0  0  0  0
 26 27  1  0  0  0  0
 27 23  1  0  0  0  0
 28 24  1  0  0  0  0
 29 25  1  0  0  0  0
 30 26  1  0  0  0  0
 30 35  1  0  0  0  0
 31 32  1  0  0  0  0
 31 30  1  0  0  0  0
 32 33  1  0  0  0  0
 33 34  1  0  0  0  0
 34 35  1  0  0  0  0
M  END
>  <minimizedAffinity>
-6.4167285

>  <minimizedRMSD>
2.06662941

$$$$
