
 OpenBabel03242522123D

 17 18  0  0  0  0  0  0  0  0999 V2000
   44.7790   35.0860   45.3680 C   0  0  0  0  0  0  0  0  0  0  0  0
   45.1690   35.4740   44.0860 C   0  0  0  0  0  0  0  0  0  0  0  0
   46.1510   34.7270   43.4530 C   0  0  0  0  0  0  0  0  0  0  0  0
   46.6640   33.6710   44.1190 N   0  0  0  0  0  0  0  0  0  0  0  0
   46.2780   33.3110   45.3510 C   0  0  0  0  0  0  0  0  0  0  0  0
   45.3270   34.0310   45.9710 N   0  0  0  0  0  0  0  0  0  0  0  0
   44.0230   35.6050   45.9430 H   0  0  0  0  0  0  0  0  0  0  0  0
   46.7750   32.4340   45.7770 H   0  0  0  0  0  0  0  0  0  0  0  0
   46.5570   35.1610   42.0760 C   0  0  0  0  0  0  0  0  0  0  0  0
   46.0220   34.2050   41.0780 C   0  0  0  0  0  0  0  0  0  0  0  0
   46.9010   33.8090   39.9470 C   0  0  0  0  0  0  0  0  0  0  0  0
   48.3480   33.6170   40.3040 C   0  0  0  0  0  0  0  0  0  0  0  0
   48.6390   33.9780   41.7420 C   0  0  0  0  0  0  0  0  0  0  0  0
   48.0540   35.3430   41.9520 C   0  0  0  0  0  0  0  0  0  0  0  0
   44.5220   36.6160   43.5310 N   0  0  0  0  0  0  0  0  0  0  0  0
   44.8590   37.5770   43.7570 H   0  0  0  0  0  0  0  0  0  0  0  0
   43.6980   36.5960   42.8860 H   0  0  0  0  0  0  0  0  0  0  0  0
  1  7  1  0  0  0  0
  1  6  1  0  0  0  0
  2  1  2  0  0  0  0
  3  2  1  0  0  0  0
  3  4  2  0  0  0  0
  4  5  1  0  0  0  0
  5  8  1  0  0  0  0
  5  6  2  0  0  0  0
  9  3  1  0  0  0  0
 10  9  1  0  0  0  0
 11 12  1  0  0  0  0
 11 10  1  0  0  0  0
 12 13  1  0  0  0  0
 13 14  1  0  0  0  0
 14  9  1  0  0  0  0
 15 16  1  0  0  0  0
 15  2  1  0  0  0  0
 17 15  1  0  0  0  0
M  END
>  <minimizedAffinity>
-4.72906494

>  <minimizedRMSD>
2.81034207

$$$$
