
 OpenBabel03242513383D

 31 34  0  0  0  0  0  0  0  0999 V2000
   46.5800   30.7370   45.4530 C   0  0  0  0  0  0  0  0  0  0  0  0
   46.6960   32.1000   45.3660 C   0  0  0  0  0  0  0  0  0  0  0  0
   46.3950   32.8340   46.4870 C   0  0  0  0  0  0  0  0  0  0  0  0
   45.9870   32.2750   47.6820 C   0  0  0  0  0  0  0  0  0  0  0  0
   45.6300   32.6820   48.9140 N   0  0  0  0  0  0  0  0  0  0  0  0
   45.3200   31.6250   49.6900 C   0  0  0  0  0  0  0  0  0  0  0  0
   45.4880   30.5340   48.9240 N   0  0  0  0  0  0  0  0  0  0  0  0
   45.8960   30.9060   47.6900 C   0  0  0  0  0  0  0  0  0  0  0  0
   46.1760   30.0840   46.6160 C   0  0  0  0  0  0  0  0  0  0  0  0
   46.8220   30.1740   44.5670 H   0  0  0  0  0  0  0  0  0  0  0  0
   46.4770   33.9110   46.4480 H   0  0  0  0  0  0  0  0  0  0  0  0
   45.6120   33.6980   49.1860 H   0  0  0  0  0  0  0  0  0  0  0  0
   44.9990   31.6230   50.7220 H   0  0  0  0  0  0  0  0  0  0  0  0
   47.1390   34.5660   42.7040 C   0  0  0  0  0  0  0  0  0  0  0  0
   47.9430   33.8850   41.7800 C   0  0  0  0  0  0  0  0  0  0  0  0
   48.3090   32.5890   42.1060 C   0  0  0  0  0  0  0  0  0  0  0  0
   47.8970   32.0210   43.2740 N   0  0  0  0  0  0  0  0  0  0  0  0
   47.1230   32.7270   44.1270 C   0  0  0  0  0  0  0  0  0  0  0  0
   46.7440   33.9820   43.8540 N   0  0  0  0  0  0  0  0  0  0  0  0
   46.8040   35.5690   42.5460 H   0  0  0  0  0  0  0  0  0  0  0  0
   48.9210   32.0960   41.3830 H   0  0  0  0  0  0  0  0  0  0  0  0
   48.3260   34.6100   40.5440 C   0  0  0  0  0  0  0  0  0  0  0  0
   48.7400   35.8620   40.9510 F   0  0  0  0  0  0  0  0  0  0  0  0
   47.2240   34.7100   39.7430 F   0  0  0  0  0  0  0  0  0  0  0  0
   49.3270   33.8810   39.9210 F   0  0  0  0  0  0  0  0  0  0  0  0
   46.0470   28.6150   46.7380 C   0  0  0  0  0  0  0  0  0  0  0  0
   44.7100   28.1840   47.2790 C   0  0  0  0  0  0  0  0  0  0  0  0
   44.8670   26.9410   48.1640 C   0  0  0  0  0  0  0  0  0  0  0  0
   45.7900   26.0090   47.4110 C   0  0  0  0  0  0  0  0  0  0  0  0
   47.1980   26.5580   47.5800 C   0  0  0  0  0  0  0  0  0  0  0  0
   47.2060   28.0710   47.4900 C   0  0  0  0  0  0  0  0  0  0  0  0
  1  9  1  0  0  0  0
  2  1  2  0  0  0  0
  2  3  1  0  0  0  0
  3  4  2  0  0  0  0
  4  8  1  0  0  0  0
  4  5  1  0  0  0  0
  5 12  1  0  0  0  0
  5  6  1  0  0  0  0
  6 13  1  0  0  0  0
  7  6  2  0  0  0  0
  8  7  1  0  0  0  0
  9 26  1  0  0  0  0
  9  8  2  0  0  0  0
 10  1  1  0  0  0  0
 11  3  1  0  0  0  0
 14 19  1  0  0  0  0
 15 16  1  0  0  0  0
 15 14  2  0  0  0  0
 16 17  2  0  0  0  0
 17 18  1  0  0  0  0
 18  2  1  0  0  0  0
 19 18  2  0  0  0  0
 20 14  1  0  0  0  0
 21 16  1  0  0  0  0
 22 23  1  0  0  0  0
 22 15  1  0  0  0  0
 24 22  1  0  0  0  0
 25 22  1  0  0  0  0
 26 27  1  0  0  0  0
 26 31  1  0  0  0  0
 27 28  1  0  0  0  0
 29 30  1  0  0  0  0
 29 28  1  0  0  0  0
 31 30  1  0  0  0  0
M  END
>  <minimizedAffinity>
-5.87808371

>  <minimizedRMSD>
1.60103059

$$$$
