
 OpenBabel03252507193D

 41 44  0  0  1  0  0  0  0  0999 V2000
   46.8020   32.7330   43.7700 C   0  0  0  0  0  0  0  0  0  0  0  0
   48.0710   32.8040   43.9560 O   0  0  0  0  0  0  0  0  0  0  0  0
   46.1890   31.6590   43.0270 N   0  0  0  0  0  0  0  0  0  0  0  0
   44.9990   30.8680   43.3300 C   0  0  0  0  0  0  0  0  0  0  0  0
   44.0620   30.8790   42.1310 C   0  0  0  0  0  0  0  0  0  0  0  0
   44.7280   30.2070   40.9700 C   0  0  0  0  0  0  0  0  0  0  0  0
   46.1960   30.0530   41.2290 C   0  0  0  0  0  0  0  0  0  0  0  0
   46.8600   31.2720   41.8180 C   0  0  1  0  0  0  0  0  0  0  0  0
   44.4140   31.3570   44.1450 H   0  0  0  0  0  0  0  0  0  0  0  0
   45.2250   29.8360   43.5940 H   0  0  0  0  0  0  0  0  0  0  0  0
   43.6180   31.8600   41.9270 H   0  0  0  0  0  0  0  0  0  0  0  0
   43.1750   30.2600   42.4840 H   0  0  0  0  0  0  0  0  0  0  0  0
   44.4460   30.6490   40.0180 H   0  0  0  0  0  0  0  0  0  0  0  0
   44.3290   29.1500   40.9250 H   0  0  0  0  0  0  0  0  0  0  0  0
   46.4100   29.1600   41.8570 H   0  0  0  0  0  0  0  0  0  0  0  0
   46.6930   29.8650   40.2530 H   0  0  0  0  0  0  0  0  0  0  0  0
   47.8570   30.9020   42.1530 H   0  0  0  0  0  0  0  0  0  0  0  0
   45.5340   34.7690   43.4720 C   0  0  0  0  0  0  0  0  0  0  0  0
   45.9770   33.7540   44.3210 C   0  0  0  0  0  0  0  0  0  0  0  0
   45.6040   33.7740   45.6450 C   0  0  0  0  0  0  0  0  0  0  0  0
   44.8160   34.7810   46.0770 N   0  0  0  0  0  0  0  0  0  0  0  0
   44.3800   35.7720   45.2560 C   0  0  0  0  0  0  0  0  0  0  0  0
   44.7500   35.7490   43.9570 N   0  0  0  0  0  0  0  0  0  0  0  0
   45.7300   34.9140   42.4520 H   0  0  0  0  0  0  0  0  0  0  0  0
   43.7550   36.5190   45.7240 H   0  0  0  0  0  0  0  0  0  0  0  0
   46.0760   32.7170   46.5190 C   0  0  0  0  0  0  0  0  0  0  0  0
   45.3760   31.5530   46.6330 C   0  0  0  0  0  0  0  0  0  0  0  0
   45.8440   30.5680   47.4670 C   0  0  0  0  0  0  0  0  0  0  0  0
   47.0080   30.6970   48.2110 C   0  0  0  0  0  0  0  0  0  0  0  0
   47.6770   31.8920   48.0600 C   0  0  0  0  0  0  0  0  0  0  0  0
   47.1950   32.8330   47.2380 N   0  0  0  0  0  0  0  0  0  0  0  0
   44.4590   31.2960   46.1350 H   0  0  0  0  0  0  0  0  0  0  0  0
   45.3270   29.6060   47.6040 H   0  0  0  0  0  0  0  0  0  0  0  0
   47.4200   29.9640   48.8750 H   0  0  0  0  0  0  0  0  0  0  0  0
   48.5980   32.1070   48.5900 H   0  0  0  0  0  0  0  0  0  0  0  0
   47.1350   32.3220   40.8150 C   0  0  0  0  0  0  0  0  0  0  0  0
   47.0100   32.0190   39.3800 C   0  0  0  0  0  0  0  0  0  0  0  0
   46.8110   33.3800   38.6900 C   0  0  0  0  0  0  0  0  0  0  0  0
   48.0750   34.2050   38.9420 C   0  0  0  0  0  0  0  0  0  0  0  0
   48.3810   34.3500   40.4070 C   0  0  0  0  0  0  0  0  0  0  0  0
   48.4940   32.9660   41.0230 C   0  0  0  0  0  0  0  0  0  0  0  0
  1  2  2  0  0  0  0
  1 19  1  0  0  0  0
  3  4  1  0  0  0  0
  3  1  1  0  0  0  0
  4 10  1  0  0  0  0
  4  9  1  0  0  0  0
  5 12  1  0  0  0  0
  5  4  1  0  0  0  0
  6  7  1  0  0  0  0
  6  5  1  0  0  0  0
  7  8  1  0  0  0  0
  7 15  1  0  0  0  0
  8 17  1  1  0  0  0
  8  3  1  0  0  0  0
 11  5  1  0  0  0  0
 13  6  1  0  0  0  0
 14  6  1  0  0  0  0
 16  7  1  0  0  0  0
 18 23  2  0  0  0  0
 18 19  1  0  0  0  0
 19 20  2  0  0  0  0
 20 21  1  0  0  0  0
 20 26  1  0  0  0  0
 22 25  1  0  0  0  0
 22 21  2  0  0  0  0
 23 22  1  0  0  0  0
 24 18  1  0  0  0  0
 26 27  2  0  0  0  0
 26 31  1  0  0  0  0
 27 28  1  0  0  0  0
 28 33  1  0  0  0  0
 28 29  2  0  0  0  0
 29 34  1  0  0  0  0
 30 29  1  0  0  0  0
 30 35  1  0  0  0  0
 31 30  2  0  0  0  0
 32 27  1  0  0  0  0
 36 41  1  0  0  0  0
 36  8  1  0  0  0  0
 37 36  1  0  0  0  0
 38 39  1  0  0  0  0
 38 37  1  0  0  0  0
 39 40  1  0  0  0  0
 40 41  1  0  0  0  0
M  END
>  <minimizedAffinity>
-5.20994377

>  <minimizedRMSD>
2.5951941

$$$$
