
     RDKit          3D

 39 41  0  0  0  0  0  0  0  0999 V2000
   46.6102   34.4236   41.4442 C   0  0  0  0  0  0  0  0  0  0  0  0
   47.8982   34.9210   41.2470 C   0  0  0  0  0  0  0  0  0  0  0  0
   48.5170   34.6408   40.0381 C   0  0  0  0  0  0  0  0  0  0  0  0
   47.8740   33.9053   39.0896 C   0  0  0  0  0  0  0  0  0  0  0  0
   46.6176   33.4125   39.2630 C   0  0  0  0  0  0  0  0  0  0  0  0
   46.0116   33.7031   40.4829 C   0  0  0  0  0  0  0  0  0  0  0  0
   44.6933   36.0594   44.2714 C   0  0  0  0  0  0  0  0  0  0  0  0
   45.2378   35.8665   42.9833 C   0  0  0  0  0  0  0  0  0  0  0  0
   45.9928   34.7375   42.7373 C   0  0  0  0  0  0  0  0  0  0  0  0
   46.1713   33.8646   43.7625 N   0  0  0  0  0  0  0  0  0  0  0  0
   45.6445   34.0593   44.9955 C   0  0  0  0  0  0  0  0  0  0  0  0
   44.9094   35.1498   45.2499 N   0  0  0  0  0  0  0  0  0  0  0  0
   48.5511   35.7216   42.3032 C   0  0  0  0  0  0  0  0  0  0  0  0
   49.4948   34.9728   39.8098 H   0  0  0  0  0  0  0  0  0  0  0  0
   48.3317   33.6670   38.1279 H   0  0  0  0  0  0  0  0  0  0  0  0
   46.0364   32.8344   38.5892 H   0  0  0  0  0  0  0  0  0  0  0  0
   45.0032   33.3496   40.7099 H   0  0  0  0  0  0  0  0  0  0  0  0
   44.1078   36.9523   44.4362 H   0  0  0  0  0  0  0  0  0  0  0  0
   45.1107   36.5392   42.1616 H   0  0  0  0  0  0  0  0  0  0  0  0
   45.8176   33.3331   45.7768 H   0  0  0  0  0  0  0  0  0  0  0  0
   47.7996   36.4843   42.6292 H   0  0  0  0  0  0  0  0  0  0  0  0
   48.6322   35.0327   43.1924 H   0  0  0  0  0  0  0  0  0  0  0  0
   49.8585   36.3234   41.9732 C   0  0  0  0  0  0  0  0  0  0  0  0
   49.6236   37.8285   41.7486 C   0  0  0  0  0  0  0  0  0  0  0  0
   50.6499   38.4374   40.8470 C   0  0  0  0  0  0  0  0  0  0  0  0
   50.2464   38.0548   39.4251 C   0  0  0  0  0  0  0  0  0  0  0  0
   49.7043   36.6662   39.4908 C   0  0  0  0  0  0  0  0  0  0  0  0
   50.2851   35.8163   40.5952 C   0  0  0  0  0  0  0  0  0  0  0  0
   50.6296   36.2535   42.7316 H   0  0  0  0  0  0  0  0  0  0  0  0
   49.6037   38.3928   42.6912 H   0  0  0  0  0  0  0  0  0  0  0  0
   48.6120   37.9733   41.2806 H   0  0  0  0  0  0  0  0  0  0  0  0
   51.6498   38.0437   41.0917 H   0  0  0  0  0  0  0  0  0  0  0  0
   50.6031   39.5313   40.9710 H   0  0  0  0  0  0  0  0  0  0  0  0
   49.4008   38.7555   39.1653 H   0  0  0  0  0  0  0  0  0  0  0  0
   51.0791   38.2013   38.7110 H   0  0  0  0  0  0  0  0  0  0  0  0
   48.6129   36.6213   39.4909 H   0  0  0  0  0  0  0  0  0  0  0  0
   50.0436   36.1632   38.5376 H   0  0  0  0  0  0  0  0  0  0  0  0
   51.3883   35.7517   40.4886 H   0  0  0  0  0  0  0  0  0  0  0  0
   49.8170   34.8147   40.4670 H   0  0  0  0  0  0  0  0  0  0  0  0
  1  9  1  0
  2  1  1  0
  2 13  1  0
  3  2  2  0
  4  5  2  0
  4  3  1  0
  5  6  1  0
  6  1  2  0
  7 12  2  0
  8  7  1  0
  9  8  2  0
  9 10  1  0
 10 11  2  0
 11 12  1  0
  3 14  1  0
  4 15  1  0
  5 16  1  0
  6 17  1  0
  7 18  1  0
  8 19  1  0
 11 20  1  0
 13 21  1  0
 13 22  1  0
 23 24  1  0
 24 25  1  0
 25 26  1  0
 26 27  1  0
 27 28  1  0
 28 23  1  0
 23 29  1  0
 24 30  1  0
 24 31  1  0
 25 32  1  0
 25 33  1  0
 26 34  1  0
 26 35  1  0
 27 36  1  0
 27 37  1  0
 28 38  1  0
 28 39  1  0
 13 23  1  0
M  ISO  8  14  14  15  14  16  14  17  14  18  14  19  14  20  14  21   8
M  ISO  1  22   8
M  END
>  <DihAtoms>  (1) 
1,12,22,23

>  <DihDeg>  (1) 
-179.7459807846438

$$$$
