
 OpenBabel03252500473D

 23 25  0  0  0  0  0  0  0  0999 V2000
   44.7320   35.1670   44.5130 C   0  0  0  0  0  0  0  0  0  0  0  0
   44.7880   34.4770   43.2840 C   0  0  0  0  0  0  0  0  0  0  0  0
   45.2690   33.1750   43.2820 C   0  0  0  0  0  0  0  0  0  0  0  0
   45.6690   32.6190   44.4700 N   0  0  0  0  0  0  0  0  0  0  0  0
   45.5960   33.3190   45.6210 C   0  0  0  0  0  0  0  0  0  0  0  0
   45.1380   34.5780   45.6690 N   0  0  0  0  0  0  0  0  0  0  0  0
   44.3650   36.1810   44.5650 H   0  0  0  0  0  0  0  0  0  0  0  0
   45.3330   32.6090   42.3820 H   0  0  0  0  0  0  0  0  0  0  0  0
   46.0280   32.7020   46.8730 C   0  0  0  0  0  0  0  0  0  0  0  0
   47.2970   32.2200   47.0430 C   0  0  0  0  0  0  0  0  0  0  0  0
   47.7510   31.6320   48.2000 C   0  0  0  0  0  0  0  0  0  0  0  0
   46.8530   31.5440   49.2120 N   0  0  0  0  0  0  0  0  0  0  0  0
   45.5990   32.0160   49.0540 C   0  0  0  0  0  0  0  0  0  0  0  0
   45.1410   32.6010   47.9110 N   0  0  0  0  0  0  0  0  0  0  0  0
   47.9500   32.3320   46.1830 H   0  0  0  0  0  0  0  0  0  0  0  0
   48.7640   31.2680   48.2790 H   0  0  0  0  0  0  0  0  0  0  0  0
   44.9230   31.9180   49.9000 H   0  0  0  0  0  0  0  0  0  0  0  0
   44.3350   35.1450   42.0200 C   0  0  0  0  0  0  0  0  0  0  0  0
   44.8730   34.4690   40.8190 C   0  0  0  0  0  0  0  0  0  0  0  0
   43.7840   33.7570   40.0870 C   0  0  0  0  0  0  0  0  0  0  0  0
   42.8560   34.8820   39.6050 C   0  0  0  0  0  0  0  0  0  0  0  0
   42.1510   35.4950   40.7830 C   0  0  0  0  0  0  0  0  0  0  0  0
   42.8590   35.3500   42.0820 C   0  0  0  0  0  0  0  0  0  0  0  0
  1  7  1  0  0  0  0
  1  6  1  0  0  0  0
  2  1  2  0  0  0  0
  3  2  1  0  0  0  0
  3  4  2  0  0  0  0
  4  5  1  0  0  0  0
  5  6  2  0  0  0  0
  5  9  1  0  0  0  0
  8  3  1  0  0  0  0
  9 10  2  0  0  0  0
  9 14  1  0  0  0  0
 10 11  1  0  0  0  0
 11 16  1  0  0  0  0
 11 12  2  0  0  0  0
 13 12  1  0  0  0  0
 13 17  1  0  0  0  0
 14 13  2  0  0  0  0
 15 10  1  0  0  0  0
 18 23  1  0  0  0  0
 18  2  1  0  0  0  0
 19 18  1  0  0  0  0
 20 19  1  0  0  0  0
 21 20  1  0  0  0  0
 21 22  1  0  0  0  0
 22 23  1  0  0  0  0
M  END
>  <minimizedAffinity>
-5.22794533

>  <minimizedRMSD>
1.54009855

$$$$
