
 OpenBabel03242519223D

 31 33  0  0  0  0  0  0  0  0999 V2000
   46.4250   33.8130   43.1780 C   0  0  0  0  0  0  0  0  0  0  0  0
   45.7280   34.8430   42.3910 C   0  0  0  0  0  0  0  0  0  0  0  0
   45.3720   36.0680   43.1820 C   0  0  0  0  0  0  0  0  0  0  0  0
   44.5440   35.7340   44.4120 C   0  0  0  0  0  0  0  0  0  0  0  0
   45.0340   34.5230   45.1530 C   0  0  0  0  0  0  0  0  0  0  0  0
   46.3940   34.0720   44.6800 C   0  0  0  0  0  0  0  0  0  0  0  0
   45.9600   32.7890   43.0590 H   0  0  0  0  0  0  0  0  0  0  0  0
   44.7380   34.4120   42.0570 H   0  0  0  0  0  0  0  0  0  0  0  0
   46.2120   35.1550   41.4630 H   0  0  0  0  0  0  0  0  0  0  0  0
   44.7040   36.6800   42.5250 H   0  0  0  0  0  0  0  0  0  0  0  0
   46.1970   36.6950   43.5050 H   0  0  0  0  0  0  0  0  0  0  0  0
   44.5810   36.6190   45.0780 H   0  0  0  0  0  0  0  0  0  0  0  0
   43.4850   35.5810   44.0710 H   0  0  0  0  0  0  0  0  0  0  0  0
   44.3410   33.6710   44.9120 H   0  0  0  0  0  0  0  0  0  0  0  0
   45.0800   34.6450   46.2340 H   0  0  0  0  0  0  0  0  0  0  0  0
   46.6980   33.1870   45.2380 H   0  0  0  0  0  0  0  0  0  0  0  0
   47.1000   34.8890   44.9050 H   0  0  0  0  0  0  0  0  0  0  0  0
   47.8440   33.6510   42.8070 C   0  0  0  0  0  0  0  0  0  0  0  0
   48.6100   34.8410   42.7610 C   0  0  0  0  0  0  0  0  0  0  0  0
   49.9650   34.7710   42.4310 C   0  0  0  0  0  0  0  0  0  0  0  0
   50.4730   33.5150   42.1670 N   0  0  0  0  0  0  0  0  0  0  0  0
   49.7130   32.3970   42.2200 C   0  0  0  0  0  0  0  0  0  0  0  0
   48.4190   32.4690   42.5360 N   0  0  0  0  0  0  0  0  0  0  0  0
   48.2980   35.8350   42.9480 H   0  0  0  0  0  0  0  0  0  0  0  0
   50.6190   35.6200   42.3720 H   0  0  0  0  0  0  0  0  0  0  0  0
   50.3090   31.0670   41.9270 C   0  0  0  0  0  0  0  0  0  0  0  0
   51.0080   31.0300   40.5900 C   0  0  0  0  0  0  0  0  0  0  0  0
   51.3340   29.5870   40.2850 C   0  0  0  0  0  0  0  0  0  0  0  0
   52.0440   28.8680   41.3790 C   0  0  0  0  0  0  0  0  0  0  0  0
   51.5460   29.1520   42.7580 C   0  0  0  0  0  0  0  0  0  0  0  0
   51.3560   30.6580   42.9570 C   0  0  0  0  0  0  0  0  0  0  0  0
  1  6  1  0  0  0  0
  2  1  1  0  0  0  0
  2  3  1  0  0  0  0
  3 11  1  0  0  0  0
  3  4  1  0  0  0  0
  4 12  1  0  0  0  0
  4  5  1  0  0  0  0
  5 15  1  0  0  0  0
  6 17  1  0  0  0  0
  6  5  1  0  0  0  0
  6 16  1  0  0  0  0
  7  1  1  0  0  0  0
  8  2  1  0  0  0  0
  9  2  1  0  0  0  0
 10  3  1  0  0  0  0
 13  4  1  0  0  0  0
 14  5  1  0  0  0  0
 18  1  1  0  0  0  0
 19 18  1  0  0  0  0
 19 24  1  0  0  0  0
 20 19  2  0  0  0  0
 21 22  2  0  0  0  0
 21 20  1  0  0  0  0
 22 23  1  0  0  0  0
 23 18  2  0  0  0  0
 25 20  1  0  0  0  0
 26 22  1  0  0  0  0
 26 31  1  0  0  0  0
 27 26  1  0  0  0  0
 28 27  1  0  0  0  0
 28 29  1  0  0  0  0
 29 30  1  0  0  0  0
 30 31  1  0  0  0  0
M  END
>  <minimizedAffinity>
-4.39996243

>  <minimizedRMSD>
2.49181819

$$$$
