
 OpenBabel03252508443D

 36 38  0  0  0  0  0  0  0  0999 V2000
   42.1500   34.2170   40.2560 C   0  0  0  0  0  0  0  0  0  0  0  0
   42.2150   35.2020   41.2220 C   0  0  0  0  0  0  0  0  0  0  0  0
   41.1480   36.0750   41.3690 C   0  0  0  0  0  0  0  0  0  0  0  0
   40.0570   35.9450   40.5580 C   0  0  0  0  0  0  0  0  0  0  0  0
   39.9500   34.9860   39.5900 C   0  0  0  0  0  0  0  0  0  0  0  0
   41.0510   34.1400   39.4890 C   0  0  0  0  0  0  0  0  0  0  0  0
   41.2280   36.8360   42.1360 H   0  0  0  0  0  0  0  0  0  0  0  0
   39.2620   36.6540   40.7230 H   0  0  0  0  0  0  0  0  0  0  0  0
   39.0860   34.8810   38.9450 H   0  0  0  0  0  0  0  0  0  0  0  0
   41.0290   33.3530   38.7360 H   0  0  0  0  0  0  0  0  0  0  0  0
   44.5840   31.3790   40.7060 C   0  0  0  0  0  0  0  0  0  0  0  0
   43.4310   32.1640   40.8880 C   0  0  0  0  0  0  0  0  0  0  0  0
   43.2940   33.3340   40.1490 C   0  0  0  0  0  0  0  0  0  0  0  0
   44.2890   33.6400   39.2950 N   0  0  0  0  0  0  0  0  0  0  0  0
   45.3910   32.8850   39.1250 C   0  0  0  0  0  0  0  0  0  0  0  0
   45.5330   31.7450   39.8390 N   0  0  0  0  0  0  0  0  0  0  0  0
   44.7140   30.4650   41.2690 H   0  0  0  0  0  0  0  0  0  0  0  0
   42.6610   31.8840   41.5770 H   0  0  0  0  0  0  0  0  0  0  0  0
   46.1800   33.1520   38.4310 H   0  0  0  0  0  0  0  0  0  0  0  0
   43.4200   35.3200   42.0950 C   0  0  0  0  0  0  0  0  0  0  0  0
   44.0870   36.0540   41.5890 H   0  0  0  0  0  0  0  0  0  0  0  0
   43.9840   34.3660   42.0930 H   0  0  0  0  0  0  0  0  0  0  0  0
   43.1630   35.8280   43.4010 N   0  0  0  0  0  0  0  0  0  0  0  0
   42.6950   35.0420   43.9370 H   0  0  0  0  0  0  0  0  0  0  0  0
   44.5930   36.2370   44.2610 S   0  0  0  0  0  0  0  0  0  0  0  0
   45.7940   35.6680   43.5800 O   0  0  0  0  0  0  0  0  0  0  0  0
   46.1150   34.7430   43.7920 H   0  0  0  0  0  0  0  0  0  0  0  0
   44.5430   35.7940   45.6720 O   0  0  0  0  0  0  0  0  0  0  0  0
   43.8570   35.2220   46.1100 H   0  0  0  0  0  0  0  0  0  0  0  0
   44.6930   37.9220   44.2170 O   0  0  0  0  0  0  0  0  0  0  0  0
   45.7760   38.4230   44.8740 C   0  0  0  0  0  3  0  0  0  0  0  0
   46.7000   39.0090   43.8220 C   0  0  0  0  0  2  0  0  0  0  0  0
   45.8910   39.9790   43.0020 C   0  0  0  0  0  2  0  0  0  0  0  0
   44.6340   40.4550   43.6490 C   0  0  0  0  0  2  0  0  0  0  0  0
   44.6860   40.6250   45.1270 C   0  0  0  0  0  2  0  0  0  0  0  0
   45.4820   39.5550   45.8340 C   0  0  0  0  0  2  0  0  0  0  0  0
  1  2  1  0  0  0  0
  2  3  2  0  0  0  0
  2 20  1  0  0  0  0
  3  7  1  0  0  0  0
  4  8  1  0  0  0  0
  4  3  1  0  0  0  0
  5  4  2  0  0  0  0
  6  5  1  0  0  0  0
  6  1  2  0  0  0  0
  9  5  1  0  0  0  0
 10  6  1  0  0  0  0
 11 12  1  0  0  0  0
 11 17  1  0  0  0  0
 12 18  1  0  0  0  0
 13  1  1  0  0  0  0
 13 12  2  0  0  0  0
 14 13  1  0  0  0  0
 15 14  2  0  0  0  0
 15 16  1  0  0  0  0
 16 11  2  0  0  0  0
 19 15  1  0  0  0  0
 20 23  1  0  0  0  0
 21 20  1  0  0  0  0
 22 20  1  0  0  0  0
 23 24  1  0  0  0  0
 23 25  1  0  0  0  0
 25 28  1  0  0  0  0
 26 27  1  0  0  0  0
 26 25  1  0  0  0  0
 28 29  1  0  0  0  0
 30 25  1  0  0  0  0
 30 31  1  0  0  0  0
 31 36  1  0  0  0  0
 32 31  1  0  0  0  0
 33 34  1  0  0  0  0
 33 32  1  0  0  0  0
 34 35  1  0  0  0  0
 35 36  1  0  0  0  0
M  END
>  <minimizedAffinity>
-0.211706936

>  <minimizedRMSD>
0.7526564

$$$$
