
     RDKit          3D

 35 37  0  0  0  0  0  0  0  0999 V2000
   45.6178   33.9511   45.4426 C   0  0  0  0  0  0  0  0  0  0  0  0
   44.7037   34.9865   45.6959 C   0  0  0  0  0  0  0  0  0  0  0  0
   44.5231   35.9487   44.6809 C   0  0  0  0  0  0  0  0  0  0  0  0
   45.2420   35.8212   43.5165 N   0  0  0  0  0  0  0  0  0  0  0  0
   46.1011   34.8029   43.3422 C   0  0  0  0  0  0  0  0  0  0  0  0
   46.2950   33.8774   44.2806 N   0  0  0  0  0  0  0  0  0  0  0  0
   46.8377   34.7256   42.0744 C   0  0  0  0  0  0  0  0  0  0  0  0
   48.0127   35.4096   41.9005 C   0  0  0  0  0  0  0  0  0  0  0  0
   48.7740   35.4000   40.7511 C   0  0  0  0  0  0  0  0  0  0  0  0
   48.2483   34.6147   39.7315 C   0  0  0  0  0  0  0  0  0  0  0  0
   47.0620   33.9118   39.8788 C   0  0  0  0  0  0  0  0  0  0  0  0
   46.3616   33.9716   41.0529 N   0  0  0  0  0  0  0  0  0  0  0  0
   44.1829   35.0164   46.6270 H   0  0  0  0  0  0  0  0  0  0  0  0
   43.8354   36.7469   44.8442 H   0  0  0  0  0  0  0  0  0  0  0  0
   48.4121   36.0266   42.7218 H   0  0  0  0  0  0  0  0  0  0  0  0
   49.6992   35.9529   40.6470 H   0  0  0  0  0  0  0  0  0  0  0  0
   48.7615   34.5344   38.7877 H   0  0  0  0  0  0  0  0  0  0  0  0
   46.6628   33.3010   39.0714 H   0  0  0  0  0  0  0  0  0  0  0  0
   45.8790   32.8882   46.4485 C   0  0  0  0  0  0  0  0  0  0  0  0
   47.3167   32.7659   46.8390 C   0  0  0  0  0  0  0  0  0  0  0  0
   47.3732   31.7324   47.9560 C   0  0  0  0  0  0  0  0  0  0  0  0
   46.7446   30.4242   47.5879 C   0  0  0  0  0  0  0  0  0  0  0  0
   45.3753   30.5814   46.9765 C   0  0  0  0  0  0  0  0  0  0  0  0
   45.4970   31.5436   45.8150 C   0  0  0  0  0  0  0  0  0  0  0  0
   45.2796   33.0310   47.3683 H   0  0  0  0  0  0  0  0  0  0  0  0
   47.7551   33.6934   47.2460 H   0  0  0  0  0  0  0  0  0  0  0  0
   47.8764   32.4066   45.9362 H   0  0  0  0  0  0  0  0  0  0  0  0
   48.4189   31.5372   48.2612 H   0  0  0  0  0  0  0  0  0  0  0  0
   46.7781   32.1682   48.7983 H   0  0  0  0  0  0  0  0  0  0  0  0
   46.5835   29.8692   48.5394 H   0  0  0  0  0  0  0  0  0  0  0  0
   47.3564   29.8531   46.8592 H   0  0  0  0  0  0  0  0  0  0  0  0
   45.0396   29.6121   46.5901 H   0  0  0  0  0  0  0  0  0  0  0  0
   44.6612   31.0412   47.6918 H   0  0  0  0  0  0  0  0  0  0  0  0
   44.5450   31.7045   45.2887 H   0  0  0  0  0  0  0  0  0  0  0  0
   46.3471   31.2888   45.1321 H   0  0  0  0  0  0  0  0  0  0  0  0
  1  2  2  0
  3  2  1  0
  4  3  2  0
  5  4  1  0
  5  6  2  0
  6  1  1  0
  7  5  1  0
  8  7  2  0
  9  8  1  0
 10 11  1  0
 10  9  2  0
 11 12  2  0
 12  7  1  0
  2 13  1  0
  3 14  1  0
  8 15  1  0
  9 16  1  0
 10 17  1  0
 11 18  1  0
 19 20  1  0
 20 21  1  0
 21 22  1  0
 22 23  1  0
 23 24  1  0
 24 19  1  0
 19 25  1  0
 20 26  1  0
 20 27  1  0
 21 28  1  0
 21 29  1  0
 22 30  1  0
 22 31  1  0
 23 32  1  0
 23 33  1  0
 24 34  1  0
 24 35  1  0
  1 19  1  0
M  ISO  6  13  14  14  14  15  14  16  14  17  14  18  14
M  END
>  <DihAtoms>  (1) 
1,0,18,19

>  <DihDeg>  (1) 
-123.32049774831327

$$$$
