
 OpenBabel03252508333D

 29 31  0  0  1  0  0  0  0  0999 V2000
   45.0600   34.3670   42.3930 N   0  0  0  0  0  0  0  0  0  0  0  0
   46.0240   33.6980   41.6320 C   0  0  1  0  0  0  0  0  0  0  0  0
   45.6460   33.3660   40.2140 C   0  0  0  0  0  0  0  0  0  0  0  0
   44.3170   33.4520   39.8190 N   0  0  0  0  0  0  0  0  0  0  0  0
   43.4770   34.3170   40.5110 C   0  0  0  0  0  0  0  0  0  0  0  0
   44.1280   35.1040   41.5830 C   0  0  0  0  0  0  0  0  0  0  0  0
   46.3150   32.7470   42.1300 H   0  0  0  0  0  0  0  0  0  0  0  0
   46.0280   32.3090   40.0130 H   0  0  0  0  0  0  0  0  0  0  0  0
   46.2560   33.9690   39.5130 H   0  0  0  0  0  0  0  0  0  0  0  0
   44.2630   33.4680   38.7810 H   0  0  0  0  0  0  0  0  0  0  0  0
   42.5960   33.7560   40.9360 H   0  0  0  0  0  0  0  0  0  0  0  0
   43.0120   35.0570   39.7990 H   0  0  0  0  0  0  0  0  0  0  0  0
   44.5320   36.0910   41.2280 H   0  0  0  0  0  0  0  0  0  0  0  0
   43.2850   35.4280   42.2720 H   0  0  0  0  0  0  0  0  0  0  0  0
   44.5160   35.4010   44.4810 C   0  0  0  0  0  0  0  0  0  0  0  0
   45.0490   34.3050   43.8140 C   0  0  0  0  0  0  0  0  0  0  0  0
   45.5370   33.2460   44.5510 C   0  0  0  0  0  0  0  0  0  0  0  0
   45.5020   33.2700   45.9100 N   0  0  0  0  0  0  0  0  0  0  0  0
   44.9710   34.3640   46.5470 C   0  0  0  0  0  0  0  0  0  0  0  0
   44.4900   35.4050   45.8310 N   0  0  0  0  0  0  0  0  0  0  0  0
   44.0940   36.3180   44.1050 H   0  0  0  0  0  0  0  0  0  0  0  0
   45.9450   32.3800   44.0900 H   0  0  0  0  0  0  0  0  0  0  0  0
   44.9490   34.3690   47.6380 H   0  0  0  0  0  0  0  0  0  0  0  0
   47.3520   34.4680   41.5210 C   0  0  0  0  0  3  0  0  0  0  0  0
   48.4380   33.9540   42.3900 C   0  0  0  0  0  2  0  0  0  0  0  0
   49.4600   35.0720   42.5360 C   0  0  0  0  0  2  0  0  0  0  0  0
   49.2840   36.1400   41.5050 C   0  0  0  0  0  2  0  0  0  0  0  0
   49.0200   35.6120   40.1300 C   0  0  0  0  0  2  0  0  0  0  0  0
   47.8420   34.6570   40.1320 C   0  0  0  0  0  2  0  0  0  0  0  0
  1 16  1  0  0  0  0
  2  7  1  1  0  0  0
  2  1  1  0  0  0  0
  3  2  1  0  0  0  0
  4  3  1  0  0  0  0
  4  5  1  0  0  0  0
  5 11  1  0  0  0  0
  5  6  1  0  0  0  0
  6 14  1  0  0  0  0
  6  1  1  0  0  0  0
  8  3  1  0  0  0  0
  9  3  1  0  0  0  0
 10  4  1  0  0  0  0
 12  5  1  0  0  0  0
 13  6  1  0  0  0  0
 15 20  1  0  0  0  0
 16 15  2  0  0  0  0
 16 17  1  0  0  0  0
 17 18  2  0  0  0  0
 18 19  1  0  0  0  0
 19 23  1  0  0  0  0
 20 19  2  0  0  0  0
 21 15  1  0  0  0  0
 22 17  1  0  0  0  0
 24  2  1  0  0  0  0
 24 25  1  0  0  0  0
 25 26  1  0  0  0  0
 27 26  1  0  0  0  0
 28 29  1  0  0  0  0
 28 27  1  0  0  0  0
 29 24  1  0  0  0  0
M  END
>  <minimizedAffinity>
-5.09357214

>  <minimizedRMSD>
1.70031834

$$$$
