
     RDKit          3D

 26 27  0  0  0  0  0  0  0  0999 V2000
   44.6402   35.9923   44.3770 C   0  0  0  0  0  0  0  0  0  0  0  0
   45.4333   35.6399   43.2703 C   0  0  0  0  0  0  0  0  0  0  0  0
   46.2235   34.4923   43.3729 C   0  0  0  0  0  0  0  0  0  0  0  0
   46.1826   33.7818   44.5328 N   0  0  0  0  0  0  0  0  0  0  0  0
   45.4096   34.1444   45.5823 C   0  0  0  0  0  0  0  0  0  0  0  0
   44.6347   35.2533   45.5066 N   0  0  0  0  0  0  0  0  0  0  0  0
   44.0151   36.8886   44.3134 H   0  0  0  0  0  0  0  0  0  0  0  0
   45.4456   36.2149   42.3749 H   0  0  0  0  0  0  0  0  0  0  0  0
   46.8653   34.1424   42.5755 H   0  0  0  0  0  0  0  0  0  0  0  0
   45.4225   33.3105   46.8175 C   0  0  0  0  0  0  0  0  0  0  0  0
   46.8418   33.1364   47.2054 C   0  0  0  0  0  0  0  0  0  0  0  0
   47.4083   31.7757   46.9070 C   0  0  0  0  0  0  0  0  0  0  0  0
   46.5264   30.7856   47.6210 C   0  0  0  0  0  0  0  0  0  0  0  0
   45.1241   30.8056   47.1357 C   0  0  0  0  0  0  0  0  0  0  0  0
   44.6274   32.0836   46.5745 C   0  0  0  0  0  0  0  0  0  0  0  0
   44.9442   33.9566   47.6024 H   0  0  0  0  0  0  0  0  0  0  0  0
   47.5208   33.8762   46.7299 H   0  0  0  0  0  0  0  0  0  0  0  0
   46.9961   33.3089   48.3064 H   0  0  0  0  0  0  0  0  0  0  0  0
   47.3901   31.5513   45.8459 H   0  0  0  0  0  0  0  0  0  0  0  0
   48.3919   31.7374   47.4081 H   0  0  0  0  0  0  0  0  0  0  0  0
   46.5449   30.9460   48.7290 H   0  0  0  0  0  0  0  0  0  0  0  0
   46.9858   29.7848   47.4818 H   0  0  0  0  0  0  0  0  0  0  0  0
   45.0166   29.9624   46.3982 H   0  0  0  0  0  0  0  0  0  0  0  0
   44.4745   30.4457   47.9890 H   0  0  0  0  0  0  0  0  0  0  0  0
   44.4397   31.9425   45.4873 H   0  0  0  0  0  0  0  0  0  0  0  0
   43.5942   32.2609   46.9809 H   0  0  0  0  0  0  0  0  0  0  0  0
  1  6  2  0
  2  3  2  0
  2  1  1  0
  3  4  1  0
  4  5  2  0
  6  5  1  0
  1  7  1  0
  2  8  1  0
  3  9  1  0
 10 11  1  0
 11 12  1  0
 12 13  1  0
 13 14  1  0
 14 15  1  0
 15 10  1  0
 10 16  1  0
 11 17  1  0
 11 18  1  0
 12 19  1  0
 12 20  1  0
 13 21  1  0
 13 22  1  0
 14 23  1  0
 14 24  1  0
 15 25  1  0
 15 26  1  0
  5 10  1  0
M  ISO  3   7  14   8  14   9  14
M  END
>  <DihAtoms>  (1) 
3,4,9,10

>  <DihDeg>  (1) 
-113.31559232805266

$$$$
