
     RDKit          3D

 29 30  0  0  0  0  0  0  0  0999 V2000
   44.5600   36.0103   44.4959 C   0  0  0  0  0  0  0  0  0  0  0  0
   45.3058   35.9229   43.2947 C   0  0  0  0  0  0  0  0  0  0  0  0
   46.1939   34.8585   43.1708 C   0  0  0  0  0  0  0  0  0  0  0  0
   46.3108   33.9588   44.1881 N   0  0  0  0  0  0  0  0  0  0  0  0
   45.5691   34.0859   45.3280 C   0  0  0  0  0  0  0  0  0  0  0  0
   44.7024   35.1043   45.4764 N   0  0  0  0  0  0  0  0  0  0  0  0
   46.9601   34.7743   41.9291 C   0  0  0  0  0  0  0  0  0  0  0  0
   43.8673   36.8277   44.6099 H   0  0  0  0  0  0  0  0  0  0  0  0
   45.1559   36.6696   42.5439 H   0  0  0  0  0  0  0  0  0  0  0  0
   45.6607   33.3798   46.1265 H   0  0  0  0  0  0  0  0  0  0  0  0
   47.2149   33.7053   41.7702 H   0  0  0  0  0  0  0  0  0  0  0  0
   46.4079   35.1105   41.0431 H   0  0  0  0  0  0  0  0  0  0  0  0
   48.2732   35.5063   41.9812 C   0  0  0  0  0  0  0  0  0  0  0  0
   48.1610   36.9986   41.8966 C   0  0  0  0  0  0  0  0  0  0  0  0
   49.5635   37.4972   41.5415 C   0  0  0  0  0  0  0  0  0  0  0  0
   50.4567   37.1514   42.7021 C   0  0  0  0  0  0  0  0  0  0  0  0
   50.4939   35.6568   42.9208 C   0  0  0  0  0  0  0  0  0  0  0  0
   49.0699   35.1784   43.2289 C   0  0  0  0  0  0  0  0  0  0  0  0
   48.9047   35.1887   41.1272 H   0  0  0  0  0  0  0  0  0  0  0  0
   47.9071   37.4804   42.8640 H   0  0  0  0  0  0  0  0  0  0  0  0
   47.4683   37.3400   41.1034 H   0  0  0  0  0  0  0  0  0  0  0  0
   49.8915   36.8747   40.6708 H   0  0  0  0  0  0  0  0  0  0  0  0
   49.5729   38.5758   41.3548 H   0  0  0  0  0  0  0  0  0  0  0  0
   51.5164   37.4602   42.4918 H   0  0  0  0  0  0  0  0  0  0  0  0
   50.0626   37.6685   43.5947 H   0  0  0  0  0  0  0  0  0  0  0  0
   50.7509   35.1516   41.9685 H   0  0  0  0  0  0  0  0  0  0  0  0
   51.1848   35.3892   43.7219 H   0  0  0  0  0  0  0  0  0  0  0  0
   49.0683   34.0810   43.3530 H   0  0  0  0  0  0  0  0  0  0  0  0
   48.6762   35.6953   44.1339 H   0  0  0  0  0  0  0  0  0  0  0  0
  1  6  2  0
  2  1  1  0
  3  2  2  0
  3  4  1  0
  4  5  2  0
  5  6  1  0
  7  3  1  0
  1  8  1  0
  2  9  1  0
  5 10  1  0
  7 11  1  0
  7 12  1  0
 13 14  1  0
 14 15  1  0
 15 16  1  0
 16 17  1  0
 17 18  1  0
 18 13  1  0
 13 19  1  0
 14 20  1  0
 14 21  1  0
 15 22  1  0
 15 23  1  0
 16 24  1  0
 16 25  1  0
 17 26  1  0
 17 27  1  0
 18 28  1  0
 18 29  1  0
  7 13  1  0
M  ISO  5   8  14   9  14  10  14  11   8  12   8
M  END
>  <DihAtoms>  (1) 
2,6,12,13

>  <DihDeg>  (1) 
-59.99933838426612

$$$$
