
 OpenBabel03252508223D

 31 33  0  0  0  0  0  0  0  0999 V2000
   38.9510   31.6970   40.6250 C   0  0  0  0  0  0  0  0  0  0  0  0
   39.4480   32.9520   40.8690 C   0  0  0  0  0  0  0  0  0  0  0  0
   38.8360   34.1040   40.4480 C   0  0  0  0  0  0  0  0  0  0  0  0
   37.6470   33.9860   39.7360 C   0  0  0  0  0  0  0  0  0  0  0  0
   37.1240   32.7170   39.4760 C   0  0  0  0  0  0  0  0  0  0  0  0
   37.7600   31.5580   39.9110 C   0  0  0  0  0  0  0  0  0  0  0  0
   40.3740   32.9300   41.4280 H   0  0  0  0  0  0  0  0  0  0  0  0
   39.2990   35.0530   40.6850 H   0  0  0  0  0  0  0  0  0  0  0  0
   37.1540   34.8900   39.3990 H   0  0  0  0  0  0  0  0  0  0  0  0
   36.1970   32.7320   38.9170 H   0  0  0  0  0  0  0  0  0  0  0  0
   37.0990   30.2880   39.5670 C   0  0  0  0  0  3  0  0  0  0  0  0
   36.8730   30.0970   38.1040 C   0  0  0  0  0  2  0  0  0  0  0  0
   35.4990   29.4810   37.8210 C   0  0  0  0  0  2  0  0  0  0  0  0
   35.3000   28.2510   38.6920 C   0  0  0  0  0  2  0  0  0  0  0  0
   35.4460   28.6160   40.1450 C   0  0  0  0  0  2  0  0  0  0  0  0
   35.7880   30.1030   40.3040 C   0  0  0  0  0  2  0  0  0  0  0  0
   39.5690   30.4320   41.0690 C   0  0  0  0  0  0  0  0  0  0  0  0
   39.1990   29.5340   40.5250 H   0  0  0  0  0  0  0  0  0  0  0  0
   40.6600   30.4130   40.9920 H   0  0  0  0  0  0  0  0  0  0  0  0
   39.2410   30.1620   42.5430 C   0  0  0  0  0  0  0  0  0  0  0  0
   38.6690   30.9810   43.0050 H   0  0  0  0  0  0  0  0  0  0  0  0
   40.1850   30.0460   43.0950 H   0  0  0  0  0  0  0  0  0  0  0  0
   36.7780   27.4830   43.5020 C   0  0  0  0  0  0  0  0  0  0  0  0
   37.4430   28.7240   43.5100 C   0  0  0  0  0  0  0  0  0  0  0  0
   38.4790   28.8880   42.6060 C   0  0  0  0  0  0  0  0  0  0  0  0
   38.7760   27.8370   41.7790 N   0  0  0  0  0  0  0  0  0  0  0  0
   38.1240   26.6800   41.8010 C   0  0  0  0  0  0  0  0  0  0  0  0
   37.1160   26.4840   42.6610 N   0  0  0  0  0  0  0  0  0  0  0  0
   35.9550   27.3150   44.2000 H   0  0  0  0  0  0  0  0  0  0  0  0
   37.1500   29.5090   44.1950 H   0  0  0  0  0  0  0  0  0  0  0  0
   38.4290   25.9060   41.1090 H   0  0  0  0  0  0  0  0  0  0  0  0
  1  2  1  0  0  0  0
  1 17  1  0  0  0  0
  2  7  1  0  0  0  0
  3  8  1  0  0  0  0
  3  2  2  0  0  0  0
  4  3  1  0  0  0  0
  5  4  2  0  0  0  0
  5  6  1  0  0  0  0
  6  1  2  0  0  0  0
  9  4  1  0  0  0  0
 10  5  1  0  0  0  0
 11  6  1  0  0  0  0
 11 16  1  0  0  0  0
 12 11  1  0  0  0  0
 13 12  1  0  0  0  0
 13 14  1  0  0  0  0
 14 15  1  0  0  0  0
 15 16  1  0  0  0  0
 17 20  1  0  0  0  0
 18 17  1  0  0  0  0
 19 17  1  0  0  0  0
 20 25  1  0  0  0  0
 20 21  1  0  0  0  0
 20 22  1  0  0  0  0
 23 24  1  0  0  0  0
 23 29  1  0  0  0  0
 24 30  1  0  0  0  0
 25 24  2  0  0  0  0
 26 27  2  0  0  0  0
 26 25  1  0  0  0  0
 27 28  1  0  0  0  0
 28 23  2  0  0  0  0
 31 27  1  0  0  0  0
M  END
>  <minimizedAffinity>
-5.53355932

$$$$

 OpenBabel03252508223D

 31 33  0  0  0  0  0  0  0  0999 V2000
   36.9520   29.0320   38.4650 C   0  0  0  0  0  0  0  0  0  0  0  0
   36.1160   29.2320   37.3960 C   0  0  0  0  0  0  0  0  0  0  0  0
   34.7490   29.1960   37.4860 C   0  0  0  0  0  0  0  0  0  0  0  0
   34.1860   28.9440   38.7320 C   0  0  0  0  0  0  0  0  0  0  0  0
   35.0190   28.7370   39.8350 C   0  0  0  0  0  0  0  0  0  0  0  0
   36.4060   28.7770   39.7230 C   0  0  0  0  0  0  0  0  0  0  0  0
   36.6560   29.4190   36.4770 H   0  0  0  0  0  0  0  0  0  0  0  0
   34.1660   29.3650   36.5900 H   0  0  0  0  0  0  0  0  0  0  0  0
   33.1060   28.9140   38.8160 H   0  0  0  0  0  0  0  0  0  0  0  0
   34.4860   28.5500   40.7570 H   0  0  0  0  0  0  0  0  0  0  0  0
   37.1620   28.5410   40.9650 C   0  0  0  0  0  3  0  0  0  0  0  0
   36.7390   27.3200   41.7120 C   0  0  0  0  0  2  0  0  0  0  0  0
   36.7000   27.5690   43.2240 C   0  0  0  0  0  2  0  0  0  0  0  0
   38.0070   28.2040   43.6720 C   0  0  0  0  0  2  0  0  0  0  0  0
   38.2470   29.4830   42.9140 C   0  0  0  0  0  2  0  0  0  0  0  0
   37.1270   29.7350   41.8960 C   0  0  0  0  0  2  0  0  0  0  0  0
   38.4270   29.0740   38.4160 C   0  0  0  0  0  0  0  0  0  0  0  0
   38.9130   29.0020   39.4150 H   0  0  0  0  0  0  0  0  0  0  0  0
   38.8780   28.2960   37.7950 H   0  0  0  0  0  0  0  0  0  0  0  0
   38.9080   30.4120   37.8410 C   0  0  0  0  0  0  0  0  0  0  0  0
   38.3170   30.7350   36.9710 H   0  0  0  0  0  0  0  0  0  0  0  0
   39.9550   30.2990   37.5220 H   0  0  0  0  0  0  0  0  0  0  0  0
   37.8510   33.3000   40.0090 C   0  0  0  0  0  0  0  0  0  0  0  0
   37.8410   32.3840   38.9410 C   0  0  0  0  0  0  0  0  0  0  0  0
   38.8360   31.4200   38.9290 C   0  0  0  0  0  0  0  0  0  0  0  0
   39.7470   31.4330   39.9520 N   0  0  0  0  0  0  0  0  0  0  0  0
   39.7240   32.3160   40.9440 C   0  0  0  0  0  0  0  0  0  0  0  0
   38.7760   33.2620   40.9900 N   0  0  0  0  0  0  0  0  0  0  0  0
   37.0820   34.0750   40.0540 H   0  0  0  0  0  0  0  0  0  0  0  0
   37.0850   32.4370   38.1670 H   0  0  0  0  0  0  0  0  0  0  0  0
   40.4860   32.2480   41.7090 H   0  0  0  0  0  0  0  0  0  0  0  0
  1  6  1  0  0  0  0
  2  3  1  0  0  0  0
  2  1  2  0  0  0  0
  3  4  2  0  0  0  0
  4  9  1  0  0  0  0
  4  5  1  0  0  0  0
  5 10  1  0  0  0  0
  6  5  2  0  0  0  0
  6 11  1  0  0  0  0
  7  2  1  0  0  0  0
  8  3  1  0  0  0  0
 11 12  1  0  0  0  0
 11 16  1  0  0  0  0
 12 13  1  0  0  0  0
 13 14  1  0  0  0  0
 15 14  1  0  0  0  0
 16 15  1  0  0  0  0
 17  1  1  0  0  0  0
 17 18  1  0  0  0  0
 19 17  1  0  0  0  0
 20 17  1  0  0  0  0
 20 25  1  0  0  0  0
 21 20  1  0  0  0  0
 22 20  1  0  0  0  0
 23 29  1  0  0  0  0
 23 28  1  0  0  0  0
 24 23  2  0  0  0  0
 25 24  1  0  0  0  0
 25 26  2  0  0  0  0
 26 27  1  0  0  0  0
 27 28  2  0  0  0  0
 27 31  1  0  0  0  0
 30 24  1  0  0  0  0
M  END
>  <minimizedAffinity>
-5.32141781

$$$$

 OpenBabel03252508223D

 31 33  0  0  0  0  0  0  0  0999 V2000
   36.4730   25.8700   39.1260 C   0  0  0  0  0  0  0  0  0  0  0  0
   35.7270   24.9930   38.3810 C   0  0  0  0  0  0  0  0  0  0  0  0
   35.3550   23.7500   38.8220 C   0  0  0  0  0  0  0  0  0  0  0  0
   35.7580   23.3640   40.0950 C   0  0  0  0  0  0  0  0  0  0  0  0
   36.5200   24.2430   40.8720 C   0  0  0  0  0  0  0  0  0  0  0  0
   36.8890   25.5010   40.4050 C   0  0  0  0  0  0  0  0  0  0  0  0
   35.4670   25.3910   37.4090 H   0  0  0  0  0  0  0  0  0  0  0  0
   34.7650   23.1210   38.1670 H   0  0  0  0  0  0  0  0  0  0  0  0
   35.4700   22.3840   40.4560 H   0  0  0  0  0  0  0  0  0  0  0  0
   36.7830   23.8510   41.8450 H   0  0  0  0  0  0  0  0  0  0  0  0
   37.6910   26.3230   41.3270 C   0  0  0  0  0  3  0  0  0  0  0  0
   39.0340   25.7510   41.6390 C   0  0  0  0  0  2  0  0  0  0  0  0
   39.3890   25.9210   43.1200 C   0  0  0  0  0  2  0  0  0  0  0  0
   39.1670   27.3650   43.5380 C   0  0  0  0  0  2  0  0  0  0  0  0
   37.7420   27.7690   43.2680 C   0  0  0  0  0  2  0  0  0  0  0  0
   36.9600   26.6180   42.6200 C   0  0  0  0  0  2  0  0  0  0  0  0
   36.8860   27.2210   38.6950 C   0  0  0  0  0  0  0  0  0  0  0  0
   37.6070   27.7130   39.3860 H   0  0  0  0  0  0  0  0  0  0  0  0
   37.3350   27.2580   37.7000 H   0  0  0  0  0  0  0  0  0  0  0  0
   35.6760   28.1640   38.6540 C   0  0  0  0  0  0  0  0  0  0  0  0
   34.7940   27.7410   39.1570 H   0  0  0  0  0  0  0  0  0  0  0  0
   35.4160   28.3510   37.6020 H   0  0  0  0  0  0  0  0  0  0  0  0
   36.3030   30.8980   41.1630 C   0  0  0  0  0  0  0  0  0  0  0  0
   35.8900   29.6550   40.6450 C   0  0  0  0  0  0  0  0  0  0  0  0
   36.0830   29.4420   39.2900 C   0  0  0  0  0  0  0  0  0  0  0  0
   36.6570   30.4510   38.5630 N   0  0  0  0  0  0  0  0  0  0  0  0
   37.0350   31.6120   39.0870 C   0  0  0  0  0  0  0  0  0  0  0  0
   36.8650   31.8540   40.3940 N   0  0  0  0  0  0  0  0  0  0  0  0
   36.1680   31.1030   42.2270 H   0  0  0  0  0  0  0  0  0  0  0  0
   35.4430   28.9060   41.2850 H   0  0  0  0  0  0  0  0  0  0  0  0
   37.4800   32.3490   38.4340 H   0  0  0  0  0  0  0  0  0  0  0  0
  1  6  1  0  0  0  0
  2  3  1  0  0  0  0
  2  1  2  0  0  0  0
  3  4  2  0  0  0  0
  4  9  1  0  0  0  0
  4  5  1  0  0  0  0
  5 10  1  0  0  0  0
  6  5  2  0  0  0  0
  6 11  1  0  0  0  0
  7  2  1  0  0  0  0
  8  3  1  0  0  0  0
 11 12  1  0  0  0  0
 11 16  1  0  0  0  0
 12 13  1  0  0  0  0
 13 14  1  0  0  0  0
 15 14  1  0  0  0  0
 16 15  1  0  0  0  0
 17  1  1  0  0  0  0
 17 18  1  0  0  0  0
 19 17  1  0  0  0  0
 20 17  1  0  0  0  0
 20 21  1  0  0  0  0
 20 25  1  0  0  0  0
 22 20  1  0  0  0  0
 23 29  1  0  0  0  0
 24 23  1  0  0  0  0
 24 30  1  0  0  0  0
 25 24  2  0  0  0  0
 26 27  2  0  0  0  0
 26 25  1  0  0  0  0
 27 28  1  0  0  0  0
 28 23  2  0  0  0  0
 31 27  1  0  0  0  0
M  END
>  <minimizedAffinity>
-5.31846523

$$$$

 OpenBabel03252508223D

 31 33  0  0  0  0  0  0  0  0999 V2000
   38.1670   26.8090   42.8520 C   0  0  0  0  0  0  0  0  0  0  0  0
   39.2430   26.9970   43.6800 C   0  0  0  0  0  0  0  0  0  0  0  0
   40.3600   26.2030   43.6630 C   0  0  0  0  0  0  0  0  0  0  0  0
   40.3960   25.1510   42.7550 C   0  0  0  0  0  0  0  0  0  0  0  0
   39.3080   24.9400   41.9020 C   0  0  0  0  0  0  0  0  0  0  0  0
   38.1820   25.7580   41.9340 C   0  0  0  0  0  0  0  0  0  0  0  0
   39.1130   27.8410   44.3450 H   0  0  0  0  0  0  0  0  0  0  0  0
   41.1640   26.4230   44.3530 H   0  0  0  0  0  0  0  0  0  0  0  0
   41.2730   24.5150   42.7320 H   0  0  0  0  0  0  0  0  0  0  0  0
   39.4330   24.0990   41.2340 H   0  0  0  0  0  0  0  0  0  0  0  0
   37.1110   25.4220   40.9810 C   0  0  0  0  0  3  0  0  0  0  0  0
   36.6180   24.0180   41.0910 C   0  0  0  0  0  2  0  0  0  0  0  0
   36.3690   23.3980   39.7120 C   0  0  0  0  0  2  0  0  0  0  0  0
   35.5190   24.3390   38.8730 C   0  0  0  0  0  2  0  0  0  0  0  0
   36.1930   25.6800   38.7560 C   0  0  0  0  0  2  0  0  0  0  0  0
   37.5080   25.7030   39.5470 C   0  0  0  0  0  2  0  0  0  0  0  0
   36.9510   27.6470   42.8270 C   0  0  0  0  0  0  0  0  0  0  0  0
   36.1510   27.2610   42.1560 H   0  0  0  0  0  0  0  0  0  0  0  0
   36.4880   27.7970   43.8060 H   0  0  0  0  0  0  0  0  0  0  0  0
   37.2740   29.0460   42.2890 C   0  0  0  0  0  0  0  0  0  0  0  0
   38.3540   29.2580   42.2830 H   0  0  0  0  0  0  0  0  0  0  0  0
   36.7810   29.7900   42.9320 H   0  0  0  0  0  0  0  0  0  0  0  0
   34.9110   29.0790   39.3600 C   0  0  0  0  0  0  0  0  0  0  0  0
   35.3560   28.9760   40.6920 C   0  0  0  0  0  0  0  0  0  0  0  0
   36.7120   29.1400   40.9170 C   0  0  0  0  0  0  0  0  0  0  0  0
   37.5120   29.3890   39.8330 N   0  0  0  0  0  0  0  0  0  0  0  0
   37.0560   29.4790   38.5890 C   0  0  0  0  0  0  0  0  0  0  0  0
   35.7500   29.3270   38.3320 N   0  0  0  0  0  0  0  0  0  0  0  0
   33.8480   28.9550   39.1410 H   0  0  0  0  0  0  0  0  0  0  0  0
   34.6610   28.7770   41.4970 H   0  0  0  0  0  0  0  0  0  0  0  0
   37.7640   29.6790   37.7960 H   0  0  0  0  0  0  0  0  0  0  0  0
  1  2  1  0  0  0  0
  2  7  1  0  0  0  0
  3  2  2  0  0  0  0
  3  8  1  0  0  0  0
  4  3  1  0  0  0  0
  5  6  1  0  0  0  0
  5  4  2  0  0  0  0
  6  1  2  0  0  0  0
  9  4  1  0  0  0  0
 10  5  1  0  0  0  0
 11 12  1  0  0  0  0
 11  6  1  0  0  0  0
 13 12  1  0  0  0  0
 14 13  1  0  0  0  0
 15 14  1  0  0  0  0
 15 16  1  0  0  0  0
 16 11  1  0  0  0  0
 17  1  1  0  0  0  0
 17 19  1  0  0  0  0
 18 17  1  0  0  0  0
 20 17  1  0  0  0  0
 20 22  1  0  0  0  0
 21 20  1  0  0  0  0
 23 24  1  0  0  0  0
 24 25  2  0  0  0  0
 24 30  1  0  0  0  0
 25 20  1  0  0  0  0
 26 25  1  0  0  0  0
 27 26  2  0  0  0  0
 28 27  1  0  0  0  0
 28 23  2  0  0  0  0
 29 23  1  0  0  0  0
 31 27  1  0  0  0  0
M  END
>  <minimizedAffinity>
-5.27438927

$$$$

 OpenBabel03252508223D

 31 33  0  0  0  0  0  0  0  0999 V2000
   36.8980   26.4000   41.9340 C   0  0  0  0  0  0  0  0  0  0  0  0
   36.9450   25.0560   42.1980 C   0  0  0  0  0  0  0  0  0  0  0  0
   36.8950   24.0910   41.2260 C   0  0  0  0  0  0  0  0  0  0  0  0
   36.7920   24.5060   39.9030 C   0  0  0  0  0  0  0  0  0  0  0  0
   36.7430   25.8720   39.6120 C   0  0  0  0  0  0  0  0  0  0  0  0
   36.7940   26.8370   40.6130 C   0  0  0  0  0  0  0  0  0  0  0  0
   37.0240   24.8430   43.2560 H   0  0  0  0  0  0  0  0  0  0  0  0
   36.9370   23.0510   41.5240 H   0  0  0  0  0  0  0  0  0  0  0  0
   36.7520   23.7520   39.1250 H   0  0  0  0  0  0  0  0  0  0  0  0
   36.6630   26.0910   38.5550 H   0  0  0  0  0  0  0  0  0  0  0  0
   36.7330   28.2390   40.1650 C   0  0  0  0  0  3  0  0  0  0  0  0
   35.4830   28.5860   39.4260 C   0  0  0  0  0  2  0  0  0  0  0  0
   35.7730   29.4910   38.2230 C   0  0  0  0  0  2  0  0  0  0  0  0
   36.6360   30.6630   38.6610 C   0  0  0  0  0  2  0  0  0  0  0  0
   37.9100   30.1630   39.2870 C   0  0  0  0  0  2  0  0  0  0  0  0
   37.9340   28.6290   39.3290 C   0  0  0  0  0  2  0  0  0  0  0  0
   36.9620   27.4730   42.9470 C   0  0  0  0  0  0  0  0  0  0  0  0
   36.8510   28.4980   42.5270 H   0  0  0  0  0  0  0  0  0  0  0  0
   36.2180   27.3830   43.7440 H   0  0  0  0  0  0  0  0  0  0  0  0
   38.3310   27.4780   43.6400 C   0  0  0  0  0  0  0  0  0  0  0  0
   38.8130   26.4890   43.6280 H   0  0  0  0  0  0  0  0  0  0  0  0
   38.1910   27.7800   44.6880 H   0  0  0  0  0  0  0  0  0  0  0  0
   41.0320   29.1190   41.5970 C   0  0  0  0  0  0  0  0  0  0  0  0
   40.2850   28.0970   42.2140 C   0  0  0  0  0  0  0  0  0  0  0  0
   39.1780   28.4840   42.9510 C   0  0  0  0  0  0  0  0  0  0  0  0
   38.8970   29.8230   43.0220 N   0  0  0  0  0  0  0  0  0  0  0  0
   39.6270   30.7590   42.4250 C   0  0  0  0  0  0  0  0  0  0  0  0
   40.7040   30.4230   41.7030 N   0  0  0  0  0  0  0  0  0  0  0  0
   41.9120   28.8530   41.0070 H   0  0  0  0  0  0  0  0  0  0  0  0
   40.5710   27.0580   42.1110 H   0  0  0  0  0  0  0  0  0  0  0  0
   39.3270   31.7920   42.5370 H   0  0  0  0  0  0  0  0  0  0  0  0
  1  2  1  0  0  0  0
  1 17  1  0  0  0  0
  2  7  1  0  0  0  0
  3  8  1  0  0  0  0
  3  2  2  0  0  0  0
  4  3  1  0  0  0  0
  5  4  2  0  0  0  0
  5  6  1  0  0  0  0
  6  1  2  0  0  0  0
  9  4  1  0  0  0  0
 10  5  1  0  0  0  0
 11  6  1  0  0  0  0
 12 11  1  0  0  0  0
 13 14  1  0  0  0  0
 13 12  1  0  0  0  0
 14 15  1  0  0  0  0
 15 16  1  0  0  0  0
 16 11  1  0  0  0  0
 17 20  1  0  0  0  0
 17 19  1  0  0  0  0
 18 17  1  0  0  0  0
 20 22  1  0  0  0  0
 21 20  1  0  0  0  0
 23 28  2  0  0  0  0
 23 24  1  0  0  0  0
 24 25  2  0  0  0  0
 25 26  1  0  0  0  0
 25 20  1  0  0  0  0
 27 31  1  0  0  0  0
 27 26  2  0  0  0  0
 28 27  1  0  0  0  0
 29 23  1  0  0  0  0
 30 24  1  0  0  0  0
M  END
>  <minimizedAffinity>
-5.22996616

$$$$

 OpenBabel03252508223D

 31 33  0  0  0  0  0  0  0  0999 V2000
   36.2980   28.1220   41.3250 C   0  0  0  0  0  0  0  0  0  0  0  0
   35.7140   29.2880   40.9020 C   0  0  0  0  0  0  0  0  0  0  0  0
   35.4400   29.5650   39.5880 C   0  0  0  0  0  0  0  0  0  0  0  0
   35.7750   28.6070   38.6380 C   0  0  0  0  0  0  0  0  0  0  0  0
   36.3720   27.4110   39.0470 C   0  0  0  0  0  0  0  0  0  0  0  0
   36.6430   27.1480   40.3870 C   0  0  0  0  0  0  0  0  0  0  0  0
   35.4950   29.9620   41.7200 H   0  0  0  0  0  0  0  0  0  0  0  0
   34.9770   30.5120   39.3430 H   0  0  0  0  0  0  0  0  0  0  0  0
   35.5620   28.8140   37.5960 H   0  0  0  0  0  0  0  0  0  0  0  0
   36.5930   26.7320   38.2350 H   0  0  0  0  0  0  0  0  0  0  0  0
   37.2750   25.8490   40.6770 C   0  0  0  0  0  3  0  0  0  0  0  0
   38.7070   25.7640   40.2640 C   0  0  0  0  0  2  0  0  0  0  0  0
   39.0330   24.4060   39.6360 C   0  0  0  0  0  2  0  0  0  0  0  0
   38.5330   23.2900   40.5400 C   0  0  0  0  0  2  0  0  0  0  0  0
   37.0540   23.4410   40.7780 C   0  0  0  0  0  2  0  0  0  0  0  0
   36.5100   24.6900   40.0730 C   0  0  0  0  0  2  0  0  0  0  0  0
   36.6000   27.7770   42.7290 C   0  0  0  0  0  0  0  0  0  0  0  0
   35.7230   27.8550   43.4100 H   0  0  0  0  0  0  0  0  0  0  0  0
   37.0110   26.7730   42.8670 H   0  0  0  0  0  0  0  0  0  0  0  0
   37.6370   28.7470   43.3090 C   0  0  0  0  0  0  0  0  0  0  0  0
   37.4290   29.0090   44.3570 H   0  0  0  0  0  0  0  0  0  0  0  0
   37.6210   29.6720   42.7140 H   0  0  0  0  0  0  0  0  0  0  0  0
   41.2440   28.0790   42.4730 C   0  0  0  0  0  0  0  0  0  0  0  0
   40.0160   28.7620   42.5500 C   0  0  0  0  0  0  0  0  0  0  0  0
   38.9710   28.1070   43.1820 C   0  0  0  0  0  0  0  0  0  0  0  0
   39.2120   26.8540   43.6790 N   0  0  0  0  0  0  0  0  0  0  0  0
   40.3870   26.2420   43.5870 C   0  0  0  0  0  0  0  0  0  0  0  0
   41.4210   26.8430   42.9840 N   0  0  0  0  0  0  0  0  0  0  0  0
   42.0930   28.5620   41.9820 H   0  0  0  0  0  0  0  0  0  0  0  0
   39.9020   29.7530   42.1320 H   0  0  0  0  0  0  0  0  0  0  0  0
   40.4840   25.2510   44.0110 H   0  0  0  0  0  0  0  0  0  0  0  0
  1 17  1  0  0  0  0
  2  1  1  0  0  0  0
  2  7  1  0  0  0  0
  3  2  2  0  0  0  0
  4  5  2  0  0  0  0
  4  3  1  0  0  0  0
  5  6  1  0  0  0  0
  6 11  1  0  0  0  0
  6  1  2  0  0  0  0
  8  3  1  0  0  0  0
  9  4  1  0  0  0  0
 10  5  1  0  0  0  0
 12 11  1  0  0  0  0
 13 12  1  0  0  0  0
 13 14  1  0  0  0  0
 14 15  1  0  0  0  0
 16 11  1  0  0  0  0
 16 15  1  0  0  0  0
 17 19  1  0  0  0  0
 17 20  1  0  0  0  0
 17 18  1  0  0  0  0
 20 21  1  0  0  0  0
 22 20  1  0  0  0  0
 23 24  2  0  0  0  0
 23 28  1  0  0  0  0
 24 25  1  0  0  0  0
 25 20  1  0  0  0  0
 25 26  2  0  0  0  0
 27 26  1  0  0  0  0
 27 31  1  0  0  0  0
 28 27  2  0  0  0  0
 29 23  1  0  0  0  0
 30 24  1  0  0  0  0
M  END
>  <minimizedAffinity>
-5.10997343

$$$$

 OpenBabel03252508223D

 31 33  0  0  0  0  0  0  0  0999 V2000
   36.0910   29.4520   39.4360 C   0  0  0  0  0  0  0  0  0  0  0  0
   35.4060   29.3670   38.2520 C   0  0  0  0  0  0  0  0  0  0  0  0
   35.1970   28.1920   37.5800 C   0  0  0  0  0  0  0  0  0  0  0  0
   35.7100   27.0250   38.1360 C   0  0  0  0  0  0  0  0  0  0  0  0
   36.4110   27.0890   39.3430 C   0  0  0  0  0  0  0  0  0  0  0  0
   36.6140   28.2930   40.0110 C   0  0  0  0  0  0  0  0  0  0  0  0
   35.0510   30.3300   37.9080 H   0  0  0  0  0  0  0  0  0  0  0  0
   34.6450   28.2160   36.6490 H   0  0  0  0  0  0  0  0  0  0  0  0
   35.5500   26.0880   37.6150 H   0  0  0  0  0  0  0  0  0  0  0  0
   36.7690   26.1290   39.6930 H   0  0  0  0  0  0  0  0  0  0  0  0
   37.3710   28.2150   41.2720 C   0  0  0  0  0  3  0  0  0  0  0  0
   38.6650   27.4790   41.1600 C   0  0  0  0  0  2  0  0  0  0  0  0
   38.9090   26.5800   42.3760 C   0  0  0  0  0  2  0  0  0  0  0  0
   38.7060   27.3790   43.6530 C   0  0  0  0  0  2  0  0  0  0  0  0
   37.3210   27.9700   43.6800 C   0  0  0  0  0  2  0  0  0  0  0  0
   36.5520   27.6200   42.3980 C   0  0  0  0  0  2  0  0  0  0  0  0
   36.3290   30.6940   40.1990 C   0  0  0  0  0  0  0  0  0  0  0  0
   35.4000   31.1710   40.5850 H   0  0  0  0  0  0  0  0  0  0  0  0
   36.9950   30.5740   41.0570 H   0  0  0  0  0  0  0  0  0  0  0  0
   36.9740   31.7590   39.3040 C   0  0  0  0  0  0  0  0  0  0  0  0
   36.4080   32.7030   39.2960 H   0  0  0  0  0  0  0  0  0  0  0  0
   37.0120   31.3730   38.2740 H   0  0  0  0  0  0  0  0  0  0  0  0
   40.0710   31.8110   41.4400 C   0  0  0  0  0  0  0  0  0  0  0  0
   38.7400   31.5590   41.0570 C   0  0  0  0  0  0  0  0  0  0  0  0
   38.3580   31.9790   39.7940 C   0  0  0  0  0  0  0  0  0  0  0  0
   39.2990   32.6040   39.0190 N   0  0  0  0  0  0  0  0  0  0  0  0
   40.5480   32.8240   39.4150 C   0  0  0  0  0  0  0  0  0  0  0  0
   40.9540   32.4320   40.6300 N   0  0  0  0  0  0  0  0  0  0  0  0
   40.4110   31.4950   42.4290 H   0  0  0  0  0  0  0  0  0  0  0  0
   38.0530   31.0590   41.7270 H   0  0  0  0  0  0  0  0  0  0  0  0
   41.2220   33.3250   38.7330 H   0  0  0  0  0  0  0  0  0  0  0  0
  1  6  1  0  0  0  0
  1 17  1  0  0  0  0
  2  1  2  0  0  0  0
  3  4  2  0  0  0  0
  3  2  1  0  0  0  0
  4  5  1  0  0  0  0
  5 10  1  0  0  0  0
  5  6  2  0  0  0  0
  6 11  1  0  0  0  0
  7  2  1  0  0  0  0
  8  3  1  0  0  0  0
  9  4  1  0  0  0  0
 11 16  1  0  0  0  0
 12 11  1  0  0  0  0
 12 13  1  0  0  0  0
 13 14  1  0  0  0  0
 14 15  1  0  0  0  0
 16 15  1  0  0  0  0
 17 18  1  0  0  0  0
 17 19  1  0  0  0  0
 20 25  1  0  0  0  0
 20 17  1  0  0  0  0
 21 20  1  0  0  0  0
 22 20  1  0  0  0  0
 23 29  1  0  0  0  0
 24 23  1  0  0  0  0
 24 30  1  0  0  0  0
 25 24  2  0  0  0  0
 26 27  2  0  0  0  0
 26 25  1  0  0  0  0
 27 28  1  0  0  0  0
 28 23  2  0  0  0  0
 31 27  1  0  0  0  0
M  END
>  <minimizedAffinity>
-5.08911419

$$$$

 OpenBabel03252508223D

 31 33  0  0  0  0  0  0  0  0999 V2000
   37.6770   29.6080   42.0020 C   0  0  0  0  0  0  0  0  0  0  0  0
   38.0880   29.1160   43.2140 C   0  0  0  0  0  0  0  0  0  0  0  0
   37.7520   27.8720   43.6800 C   0  0  0  0  0  0  0  0  0  0  0  0
   36.9520   27.0700   42.8730 C   0  0  0  0  0  0  0  0  0  0  0  0
   36.5220   27.5520   41.6340 C   0  0  0  0  0  0  0  0  0  0  0  0
   36.8730   28.8200   41.1790 C   0  0  0  0  0  0  0  0  0  0  0  0
   38.7040   29.8180   43.7600 H   0  0  0  0  0  0  0  0  0  0  0  0
   38.1200   27.5630   44.6500 H   0  0  0  0  0  0  0  0  0  0  0  0
   36.6800   26.0830   43.2290 H   0  0  0  0  0  0  0  0  0  0  0  0
   35.9050   26.8550   41.0830 H   0  0  0  0  0  0  0  0  0  0  0  0
   36.3500   29.2000   39.8560 C   0  0  0  0  0  3  0  0  0  0  0  0
   34.8600   29.2590   39.7840 C   0  0  0  0  0  2  0  0  0  0  0  0
   34.3350   28.6710   38.4710 C   0  0  0  0  0  2  0  0  0  0  0  0
   35.0820   29.2860   37.2990 C   0  0  0  0  0  2  0  0  0  0  0  0
   36.5620   29.0530   37.4480 C   0  0  0  0  0  2  0  0  0  0  0  0
   36.8690   28.3030   38.7520 C   0  0  0  0  0  2  0  0  0  0  0  0
   38.0250   30.9360   41.4570 C   0  0  0  0  0  0  0  0  0  0  0  0
   37.7250   31.0790   40.3940 H   0  0  0  0  0  0  0  0  0  0  0  0
   37.6020   31.7760   42.0140 H   0  0  0  0  0  0  0  0  0  0  0  0
   39.5450   31.1400   41.4670 C   0  0  0  0  0  0  0  0  0  0  0  0
   40.0930   30.2170   41.7110 H   0  0  0  0  0  0  0  0  0  0  0  0
   39.7910   31.8970   42.2260 H   0  0  0  0  0  0  0  0  0  0  0  0
   40.0370   31.4950   37.7530 C   0  0  0  0  0  0  0  0  0  0  0  0
   39.6220   30.9410   38.9790 C   0  0  0  0  0  0  0  0  0  0  0  0
   39.9390   31.6470   40.1280 C   0  0  0  0  0  0  0  0  0  0  0  0
   40.6260   32.8230   39.9840 N   0  0  0  0  0  0  0  0  0  0  0  0
   41.0000   33.3150   38.8080 C   0  0  0  0  0  0  0  0  0  0  0  0
   40.7120   32.6610   37.6750 N   0  0  0  0  0  0  0  0  0  0  0  0
   39.8070   30.9680   36.8240 H   0  0  0  0  0  0  0  0  0  0  0  0
   39.0810   30.0040   39.0130 H   0  0  0  0  0  0  0  0  0  0  0  0
   41.5400   34.2520   38.7920 H   0  0  0  0  0  0  0  0  0  0  0  0
  1  2  1  0  0  0  0
  2  3  2  0  0  0  0
  2  7  1  0  0  0  0
  3  8  1  0  0  0  0
  4  9  1  0  0  0  0
  4  3  1  0  0  0  0
  5  4  2  0  0  0  0
  6  5  1  0  0  0  0
  6  1  2  0  0  0  0
 10  5  1  0  0  0  0
 11  6  1  0  0  0  0
 12 11  1  0  0  0  0
 13 12  1  0  0  0  0
 14 15  1  0  0  0  0
 14 13  1  0  0  0  0
 15 16  1  0  0  0  0
 16 11  1  0  0  0  0
 17 20  1  0  0  0  0
 17  1  1  0  0  0  0
 17 19  1  0  0  0  0
 18 17  1  0  0  0  0
 20 21  1  0  0  0  0
 20 22  1  0  0  0  0
 23 24  1  0  0  0  0
 24 30  1  0  0  0  0
 24 25  2  0  0  0  0
 25 20  1  0  0  0  0
 26 25  1  0  0  0  0
 27 26  2  0  0  0  0
 28 23  2  0  0  0  0
 28 27  1  0  0  0  0
 29 23  1  0  0  0  0
 31 27  1  0  0  0  0
M  END
>  <minimizedAffinity>
-5.06634998

$$$$

 OpenBabel03252508223D

 31 33  0  0  0  0  0  0  0  0999 V2000
   37.1700   26.2220   40.1550 C   0  0  0  0  0  0  0  0  0  0  0  0
   36.5080   25.0260   40.0560 C   0  0  0  0  0  0  0  0  0  0  0  0
   36.5790   24.0390   41.0050 C   0  0  0  0  0  0  0  0  0  0  0  0
   37.3660   24.2720   42.1270 C   0  0  0  0  0  0  0  0  0  0  0  0
   38.0500   25.4850   42.2480 C   0  0  0  0  0  0  0  0  0  0  0  0
   37.9660   26.4750   41.2720 C   0  0  0  0  0  0  0  0  0  0  0  0
   35.9260   24.9480   39.1470 H   0  0  0  0  0  0  0  0  0  0  0  0
   36.0230   23.1240   40.8450 H   0  0  0  0  0  0  0  0  0  0  0  0
   37.4300   23.5010   42.8850 H   0  0  0  0  0  0  0  0  0  0  0  0
   38.6340   25.5700   43.1550 H   0  0  0  0  0  0  0  0  0  0  0  0
   38.7390   27.7020   41.5280 C   0  0  0  0  0  3  0  0  0  0  0  0
   40.2180   27.5030   41.5210 C   0  0  0  0  0  2  0  0  0  0  0  0
   40.9000   28.2980   42.6380 C   0  0  0  0  0  2  0  0  0  0  0  0
   40.4220   29.7410   42.6040 C   0  0  0  0  0  2  0  0  0  0  0  0
   38.9230   29.7940   42.7330 C   0  0  0  0  0  2  0  0  0  0  0  0
   38.3310   28.3810   42.8190 C   0  0  0  0  0  2  0  0  0  0  0  0
   37.1120   27.3150   39.1640 C   0  0  0  0  0  0  0  0  0  0  0  0
   37.9640   28.0300   39.2310 H   0  0  0  0  0  0  0  0  0  0  0  0
   37.0720   26.9790   38.1250 H   0  0  0  0  0  0  0  0  0  0  0  0
   35.8600   28.1740   39.3840 C   0  0  0  0  0  0  0  0  0  0  0  0
   35.3240   27.9100   40.3080 H   0  0  0  0  0  0  0  0  0  0  0  0
   35.1790   28.0220   38.5350 H   0  0  0  0  0  0  0  0  0  0  0  0
   37.2210   31.5460   38.4120 C   0  0  0  0  0  0  0  0  0  0  0  0
   36.8390   30.1960   38.2930 C   0  0  0  0  0  0  0  0  0  0  0  0
   36.2910   29.5950   39.4140 C   0  0  0  0  0  0  0  0  0  0  0  0
   36.1640   30.3560   40.5460 N   0  0  0  0  0  0  0  0  0  0  0  0
   36.5360   31.6290   40.6210 C   0  0  0  0  0  0  0  0  0  0  0  0
   37.0690   32.2440   39.5570 N   0  0  0  0  0  0  0  0  0  0  0  0
   37.6570   32.0550   37.5500 H   0  0  0  0  0  0  0  0  0  0  0  0
   36.9710   29.6600   37.3620 H   0  0  0  0  0  0  0  0  0  0  0  0
   36.3970   32.1500   41.5580 H   0  0  0  0  0  0  0  0  0  0  0  0
  1  6  1  0  0  0  0
  2  1  2  0  0  0  0
  2  3  1  0  0  0  0
  3  4  2  0  0  0  0
  4  5  1  0  0  0  0
  4  9  1  0  0  0  0
  5 10  1  0  0  0  0
  6 11  1  0  0  0  0
  6  5  2  0  0  0  0
  7  2  1  0  0  0  0
  8  3  1  0  0  0  0
 11 16  1  0  0  0  0
 12 11  1  0  0  0  0
 12 13  1  0  0  0  0
 14 13  1  0  0  0  0
 14 15  1  0  0  0  0
 15 16  1  0  0  0  0
 17 18  1  0  0  0  0
 17 20  1  0  0  0  0
 17  1  1  0  0  0  0
 19 17  1  0  0  0  0
 20 25  1  0  0  0  0
 20 21  1  0  0  0  0
 22 20  1  0  0  0  0
 23 28  1  0  0  0  0
 24 23  2  0  0  0  0
 24 25  1  0  0  0  0
 25 26  2  0  0  0  0
 26 27  1  0  0  0  0
 27 31  1  0  0  0  0
 28 27  2  0  0  0  0
 29 23  1  0  0  0  0
 30 24  1  0  0  0  0
M  END
>  <minimizedAffinity>
-5.02483416

$$$$
