
     RDKit          3D

 35 37  0  0  0  0  0  0  0  0999 V2000
   44.6299   35.4562   45.1299 C   0  0  0  0  0  0  0  0  0  0  0  0
   45.0982   35.7144   43.8040 C   0  0  0  0  0  0  0  0  0  0  0  0
   46.0413   34.8270   43.3608 C   0  0  0  0  0  0  0  0  0  0  0  0
   46.4881   33.7810   44.1472 N   0  0  0  0  0  0  0  0  0  0  0  0
   46.0134   33.5885   45.3827 C   0  0  0  0  0  0  0  0  0  0  0  0
   45.0718   34.4375   45.8795 N   0  0  0  0  0  0  0  0  0  0  0  0
   46.5413   34.9751   41.9327 C   0  0  1  0  0  0  0  0  0  0  0  0
   48.0611   35.2777   41.9339 C   0  0  0  0  0  0  0  0  0  0  0  0
   47.3889   33.9720   41.3986 C   0  0  2  0  0  0  0  0  0  0  0  0
   44.6489   36.8116   43.0187 N   0  0  0  0  0  0  0  0  0  0  0  0
   43.8830   36.1289   45.5259 H   0  0  0  0  0  0  0  0  0  0  0  0
   46.4717   32.7289   45.8497 H   0  0  0  0  0  0  0  0  0  0  0  0
   45.9496   35.6966   41.3447 H   0  0  0  0  0  0  0  0  0  0  0  0
   48.6217   35.2228   42.8636 H   0  0  0  0  0  0  0  0  0  0  0  0
   48.3491   36.0108   41.1845 H   0  0  0  0  0  0  0  0  0  0  0  0
   47.6282   33.0927   42.0678 H   0  0  0  0  0  0  0  0  0  0  0  0
   45.1136   37.7349   42.8454 H   0  0  0  0  0  0  0  0  0  0  0  0
   43.7092   36.5328   42.6087 H   0  0  0  0  0  0  0  0  0  0  0  0
   47.5409   33.6839   39.9358 C   0  0  0  0  0  0  0  0  0  0  0  0
   48.9662   33.8671   39.4588 C   0  0  0  0  0  0  0  0  0  0  0  0
   49.0946   33.7666   37.9750 C   0  0  0  0  0  0  0  0  0  0  0  0
   47.9685   33.0022   37.3333 C   0  0  0  0  0  0  0  0  0  0  0  0
   47.5868   31.8544   38.2366 C   0  0  0  0  0  0  0  0  0  0  0  0
   47.1089   32.2918   39.5979 C   0  0  0  0  0  0  0  0  0  0  0  0
   46.8866   34.3977   39.3965 H   0  0  0  0  0  0  0  0  0  0  0  0
   49.6113   33.0881   39.9153 H   0  0  0  0  0  0  0  0  0  0  0  0
   49.2458   34.9059   39.7941 H   0  0  0  0  0  0  0  0  0  0  0  0
   50.0449   33.2656   37.7100 H   0  0  0  0  0  0  0  0  0  0  0  0
   49.0483   34.8050   37.5504 H   0  0  0  0  0  0  0  0  0  0  0  0
   47.1189   33.6236   37.0426 H   0  0  0  0  0  0  0  0  0  0  0  0
   48.3551   32.5458   36.4035 H   0  0  0  0  0  0  0  0  0  0  0  0
   48.4765   31.2091   38.3887 H   0  0  0  0  0  0  0  0  0  0  0  0
   46.8366   31.2237   37.7032 H   0  0  0  0  0  0  0  0  0  0  0  0
   45.9951   32.2272   39.5866 H   0  0  0  0  0  0  0  0  0  0  0  0
   47.5031   31.5938   40.3902 H   0  0  0  0  0  0  0  0  0  0  0  0
  1  6  2  0
  2  1  1  0
  3  2  2  0
  3  4  1  0
  4  5  2  0
  5  6  1  0
  7  3  1  0
  8  7  1  0
  9  8  1  0
  9  7  1  0
 10  2  1  0
  1 11  1  0
  5 12  1  0
  7 13  1  6
  8 14  1  0
  8 15  1  0
  9 16  1  1
 10 17  1  0
 10 18  1  0
 19 20  1  0
 20 21  1  0
 21 22  1  0
 22 23  1  0
 23 24  1  0
 24 19  1  0
 19 25  1  0
 20 26  1  0
 20 27  1  0
 21 28  1  0
 21 29  1  0
 22 30  1  0
 22 31  1  0
 23 32  1  0
 23 33  1  0
 24 34  1  0
 24 35  1  0
  9 19  1  0
M  ISO  6  11  14  12  14  13  13  14  13  15  13  16  13
M  END
>  <DihAtoms>  (1) 
7,8,18,19

>  <DihDeg>  (1) 
-13.602938366458762

$$$$
