
     RDKit          3D

 41 43  0  0  0  0  0  0  0  0999 V2000
   46.6007   34.8029   42.1042 C   0  0  0  0  0  0  0  0  0  0  0  0
   47.9319   35.2171   42.0564 C   0  0  0  0  0  0  0  0  0  0  0  0
   48.7078   35.0297   40.9016 C   0  0  0  0  0  0  0  0  0  0  0  0
   48.1664   34.4332   39.7964 C   0  0  0  0  0  0  0  0  0  0  0  0
   46.8631   34.0320   39.8557 C   0  0  0  0  0  0  0  0  0  0  0  0
   46.0798   34.2063   40.9827 C   0  0  0  0  0  0  0  0  0  0  0  0
   44.4195   36.2225   44.7880 C   0  0  0  0  0  0  0  0  0  0  0  0
   45.0782   36.1357   43.5361 C   0  0  0  0  0  0  0  0  0  0  0  0
   45.8839   35.0307   43.3250 C   0  0  0  0  0  0  0  0  0  0  0  0
   46.0120   34.0946   44.3078 N   0  0  0  0  0  0  0  0  0  0  0  0
   45.3570   34.2317   45.4938 C   0  0  0  0  0  0  0  0  0  0  0  0
   44.5639   35.2939   45.7249 N   0  0  0  0  0  0  0  0  0  0  0  0
   45.5329   33.2698   46.5285 N   0  0  0  0  0  0  0  0  0  0  0  0
   44.6725   33.7523   41.0254 C   0  0  0  0  0  0  0  0  0  0  0  0
   44.4621   32.8965   39.9447 F   0  0  0  0  0  0  0  0  0  0  0  0
   43.8385   34.8459   40.9335 F   0  0  0  0  0  0  0  0  0  0  0  0
   44.3218   33.0972   42.1783 F   0  0  0  0  0  0  0  0  0  0  0  0
   48.3781   35.6918   42.9234 H   0  0  0  0  0  0  0  0  0  0  0  0
   49.7405   35.3639   40.8981 H   0  0  0  0  0  0  0  0  0  0  0  0
   48.7115   34.2612   38.8785 H   0  0  0  0  0  0  0  0  0  0  0  0
   46.3755   33.5529   39.0133 H   0  0  0  0  0  0  0  0  0  0  0  0
   43.7693   37.0303   45.0667 H   0  0  0  0  0  0  0  0  0  0  0  0
   46.4882   33.5110   46.9023 H   0  0  0  0  0  0  0  0  0  0  0  0
   44.8681   32.5299   46.8174 H   0  0  0  0  0  0  0  0  0  0  0  0
   44.9183   37.2617   42.5770 C   0  0  0  0  0  0  0  0  0  0  0  0
   46.2657   37.9987   42.4122 C   0  0  0  0  0  0  0  0  0  0  0  0
   46.1471   39.3474   43.1342 C   0  0  0  0  0  0  0  0  0  0  0  0
   45.2781   40.1987   42.2316 C   0  0  0  0  0  0  0  0  0  0  0  0
   44.0059   39.4087   41.9775 C   0  0  0  0  0  0  0  0  0  0  0  0
   43.8720   38.2570   42.9521 C   0  0  0  0  0  0  0  0  0  0  0  0
   44.7051   36.8960   41.5594 H   0  0  0  0  0  0  0  0  0  0  0  0
   47.0103   37.4279   42.9652 H   0  0  0  0  0  0  0  0  0  0  0  0
   46.5052   38.2018   41.3713 H   0  0  0  0  0  0  0  0  0  0  0  0
   45.7868   39.2570   44.1589 H   0  0  0  0  0  0  0  0  0  0  0  0
   47.1811   39.7731   43.2189 H   0  0  0  0  0  0  0  0  0  0  0  0
   45.1070   41.2117   42.5987 H   0  0  0  0  0  0  0  0  0  0  0  0
   45.8762   40.3254   41.2859 H   0  0  0  0  0  0  0  0  0  0  0  0
   43.1647   40.1009   41.9648 H   0  0  0  0  0  0  0  0  0  0  0  0
   44.1147   38.9459   40.9704 H   0  0  0  0  0  0  0  0  0  0  0  0
   42.8833   37.8173   42.7678 H   0  0  0  0  0  0  0  0  0  0  0  0
   43.8703   38.5858   43.9996 H   0  0  0  0  0  0  0  0  0  0  0  0
  1  9  1  0
  2  1  2  0
  3  2  1  0
  4  5  1  0
  4  3  2  0
  5  6  2  0
  6 14  1  0
  6  1  1  0
  7 12  2  0
  8  7  1  0
  9  8  2  0
  9 10  1  0
 10 11  2  0
 11 12  1  0
 11 13  1  0
 14 17  1  0
 15 14  1  0
 16 14  1  0
  2 18  1  0
  3 19  1  0
  4 20  1  0
  5 21  1  0
  7 22  1  0
 13 23  1  0
 13 24  1  0
 25 26  1  0
 26 27  1  0
 27 28  1  0
 28 29  1  0
 29 30  1  0
 30 25  1  0
 25 31  1  0
 26 32  1  0
 26 33  1  0
 27 34  1  0
 27 35  1  0
 28 36  1  0
 28 37  1  0
 29 38  1  0
 29 39  1  0
 30 40  1  0
 30 41  1  0
  8 25  1  0
M  ISO  5  18  14  19  14  20  14  21  14  22  14
M  END
>  <DihAtoms>  (1) 
6,7,24,25

>  <DihDeg>  (1) 
82.04164206952409

$$$$
