
     RDKit          3D

 26 27  0  0  0  0  0  0  0  0999 V2000
   44.6402   35.9923   44.3770 C   0  0  0  0  0  0  0  0  0  0  0  0
   45.4333   35.6399   43.2703 C   0  0  0  0  0  0  0  0  0  0  0  0
   46.2235   34.4923   43.3729 C   0  0  0  0  0  0  0  0  0  0  0  0
   46.1826   33.7818   44.5328 N   0  0  0  0  0  0  0  0  0  0  0  0
   45.4096   34.1444   45.5823 C   0  0  0  0  0  0  0  0  0  0  0  0
   44.6347   35.2533   45.5066 N   0  0  0  0  0  0  0  0  0  0  0  0
   44.0151   36.8886   44.3134 H   0  0  0  0  0  0  0  0  0  0  0  0
   45.4456   36.2149   42.3749 H   0  0  0  0  0  0  0  0  0  0  0  0
   46.8653   34.1424   42.5755 H   0  0  0  0  0  0  0  0  0  0  0  0
   45.4225   33.3105   46.8175 C   0  0  0  0  0  0  0  0  0  0  0  0
   44.3738   33.8512   47.7137 C   0  0  0  0  0  0  0  0  0  0  0  0
   44.8964   34.6515   48.8747 C   0  0  0  0  0  0  0  0  0  0  0  0
   45.8346   33.7433   49.6250 C   0  0  0  0  0  0  0  0  0  0  0  0
   47.0001   33.3168   48.8115 C   0  0  0  0  0  0  0  0  0  0  0  0
   46.8069   33.2569   47.3438 C   0  0  0  0  0  0  0  0  0  0  0  0
   45.0758   32.2964   46.4802 H   0  0  0  0  0  0  0  0  0  0  0  0
   43.6364   34.4950   47.1882 H   0  0  0  0  0  0  0  0  0  0  0  0
   43.7401   33.0322   48.1536 H   0  0  0  0  0  0  0  0  0  0  0  0
   45.4494   35.5261   48.5497 H   0  0  0  0  0  0  0  0  0  0  0  0
   44.0317   34.8267   49.5392 H   0  0  0  0  0  0  0  0  0  0  0  0
   45.3013   32.8424   50.0224 H   0  0  0  0  0  0  0  0  0  0  0  0
   46.1580   34.2926   50.5337 H   0  0  0  0  0  0  0  0  0  0  0  0
   47.8600   33.9887   49.0867 H   0  0  0  0  0  0  0  0  0  0  0  0
   47.3462   32.3230   49.2264 H   0  0  0  0  0  0  0  0  0  0  0  0
   47.4404   34.0400   46.8720 H   0  0  0  0  0  0  0  0  0  0  0  0
   47.2762   32.3051   46.9722 H   0  0  0  0  0  0  0  0  0  0  0  0
  1  6  2  0
  2  3  2  0
  2  1  1  0
  3  4  1  0
  4  5  2  0
  6  5  1  0
  1  7  1  0
  2  8  1  0
  3  9  1  0
 10 11  1  0
 11 12  1  0
 12 13  1  0
 13 14  1  0
 14 15  1  0
 15 10  1  0
 10 16  1  0
 11 17  1  0
 11 18  1  0
 12 19  1  0
 12 20  1  0
 13 21  1  0
 13 22  1  0
 14 23  1  0
 14 24  1  0
 15 25  1  0
 15 26  1  0
  5 10  1  0
M  ISO  3   7  14   8  14   9  14
M  END
>  <DihAtoms>  (1) 
3,4,9,10

>  <DihDeg>  (1) 
-113.31559232805266

$$$$
