
 OpenBabel03252506263D

 42 46  0  0  0  0  0  0  0  0999 V2000
   46.2060   30.1860   48.3130 C   0  0  0  0  0  0  0  0  0  0  0  0
   45.5550   31.0740   48.4440 H   0  0  0  0  0  0  0  0  0  0  0  0
   46.4240   29.8490   49.3690 H   0  0  0  0  0  0  0  0  0  0  0  0
   45.6420   27.7080   47.8230 C   0  0  0  0  0  0  0  0  0  0  0  0
   45.4720   29.0770   47.6930 C   0  0  0  0  0  0  0  0  0  0  0  0
   44.4490   29.5020   46.8460 C   0  0  0  0  0  0  0  0  0  0  0  0
   43.6430   28.6190   46.1670 C   0  0  0  0  0  0  0  0  0  0  0  0
   42.6160   28.7350   45.3200 N   0  0  0  0  0  0  0  0  0  0  0  0
   42.1670   27.5190   44.9410 C   0  0  0  0  0  0  0  0  0  0  0  0
   42.9240   26.5380   45.5600 C   0  0  0  0  0  0  0  0  0  0  0  0
   43.8260   27.2640   46.3090 C   0  0  0  0  0  0  0  0  0  0  0  0
   44.8360   26.8440   47.1460 C   0  0  0  0  0  0  0  0  0  0  0  0
   46.4530   27.4620   48.4960 H   0  0  0  0  0  0  0  0  0  0  0  0
   44.2100   30.5400   46.6550 H   0  0  0  0  0  0  0  0  0  0  0  0
   42.2090   29.6530   44.9900 H   0  0  0  0  0  0  0  0  0  0  0  0
   41.3370   27.3140   44.2540 H   0  0  0  0  0  0  0  0  0  0  0  0
   42.8590   25.4580   45.4980 H   0  0  0  0  0  0  0  0  0  0  0  0
   45.0610   25.4060   47.3200 C   0  0  0  0  0  3  0  0  0  0  0  0
   45.9690   24.7440   46.3550 C   0  0  0  0  0  2  0  0  0  0  0  0
   47.1780   24.0800   46.9480 C   0  0  0  0  0  2  0  0  0  0  0  0
   46.8550   23.0780   48.0080 C   0  0  0  0  0  2  0  0  0  0  0  0
   45.7620   23.5870   48.8890 C   0  0  0  0  0  2  0  0  0  0  0  0
   45.6390   25.1030   48.7100 C   0  0  0  0  0  2  0  0  0  0  0  0
   47.4930   30.5630   47.6950 C   0  0  0  0  0  0  0  0  0  0  0  0
   48.1420   29.7020   47.5410 H   0  0  0  0  0  0  0  0  0  0  0  0
   48.0220   31.2420   48.4140 H   0  0  0  0  0  0  0  0  0  0  0  0
   46.5920   32.8610   45.1190 C   0  0  0  0  0  0  0  0  0  0  0  0
   47.2270   31.8250   44.3890 C   0  0  0  0  0  0  0  0  0  0  0  0
   47.6310   30.8610   45.2530 C   0  0  0  0  0  0  0  0  0  0  0  0
   47.2620   31.2810   46.4670 N   0  0  0  0  0  0  0  0  0  0  0  0
   46.6460   32.4650   46.3880 N   0  0  0  0  0  0  0  0  0  0  0  0
   47.3730   31.7970   43.3170 H   0  0  0  0  0  0  0  0  0  0  0  0
   48.1460   29.9520   44.9640 H   0  0  0  0  0  0  0  0  0  0  0  0
   44.5330   35.8220   44.6360 C   0  0  0  0  0  0  0  0  0  0  0  0
   44.9420   36.3030   43.3950 C   0  0  0  0  0  0  0  0  0  0  0  0
   45.9340   35.5990   42.7230 C   0  0  0  0  0  0  0  0  0  0  0  0
   46.4490   34.4870   43.3100 N   0  0  0  0  0  0  0  0  0  0  0  0
   46.0430   34.0430   44.5000 C   0  0  0  0  0  0  0  0  0  0  0  0
   45.0780   34.7190   45.1630 N   0  0  0  0  0  0  0  0  0  0  0  0
   43.7670   36.3170   45.2150 H   0  0  0  0  0  0  0  0  0  0  0  0
   44.4970   37.1800   42.9940 H   0  0  0  0  0  0  0  0  0  0  0  0
   46.2850   35.9380   41.7490 H   0  0  0  0  0  0  0  0  0  0  0  0
  1  2  1  0  0  0  0
  1  3  1  0  0  0  0
  4 13  1  0  0  0  0
  5  4  1  0  0  0  0
  5  1  1  0  0  0  0
  6  5  2  0  0  0  0
  7 11  2  0  0  0  0
  7  6  1  0  0  0  0
  8  7  1  0  0  0  0
  9  8  1  0  0  0  0
  9 10  2  0  0  0  0
 10 11  1  0  0  0  0
 11 12  1  0  0  0  0
 12 18  1  0  0  0  0
 12  4  2  0  0  0  0
 14  6  1  0  0  0  0
 15  8  1  0  0  0  0
 16  9  1  0  0  0  0
 17 10  1  0  0  0  0
 18 23  1  0  0  0  0
 19 20  1  0  0  0  0
 19 18  1  0  0  0  0
 20 21  1  0  0  0  0
 21 22  1  0  0  0  0
 23 22  1  0  0  0  0
 24  1  1  0  0  0  0
 24 26  1  0  0  0  0
 25 24  1  0  0  0  0
 27 31  2  0  0  0  0
 28 27  1  0  0  0  0
 28 29  2  0  0  0  0
 29 30  1  0  0  0  0
 30 24  1  0  0  0  0
 31 30  1  0  0  0  0
 32 28  1  0  0  0  0
 33 29  1  0  0  0  0
 34 39  1  0  0  0  0
 34 40  1  0  0  0  0
 35 34  2  0  0  0  0
 36 37  2  0  0  0  0
 36 35  1  0  0  0  0
 37 38  1  0  0  0  0
 38 27  1  0  0  0  0
 38 39  2  0  0  0  0
 41 35  1  0  0  0  0
 42 36  1  0  0  0  0
M  END
>  <minimizedAffinity>
-5.43232012

>  <minimizedRMSD>
0.629485607

$$$$
