
     RDKit          3D

 40 42  0  0  0  0  0  0  0  0999 V2000
   44.7181   35.1735   44.1943 C   0  0  0  0  0  0  0  0  0  0  0  0
   44.7717   34.1298   43.2772 C   0  0  0  0  0  0  0  0  0  0  0  0
   45.2322   32.8976   43.6934 C   0  0  0  0  0  0  0  0  0  0  0  0
   45.6296   32.7016   44.9785 N   0  0  0  0  0  0  0  0  0  0  0  0
   45.5676   33.7469   45.8655 C   0  0  0  0  0  0  0  0  0  0  0  0
   45.1165   34.9571   45.4647 N   0  0  0  0  0  0  0  0  0  0  0  0
   44.3507   34.4243   41.9509 N   0  0  0  0  0  0  0  0  0  0  0  0
   44.6627   33.5881   40.8743 C   0  0  1  0  0  0  0  0  0  0  0  0
   43.7504   33.6647   39.6800 C   0  0  0  0  0  0  0  0  0  0  0  0
   42.5188   34.2981   39.7963 N   0  0  0  0  0  0  0  0  0  0  0  0
   42.3712   35.2802   40.7690 C   0  0  0  0  0  0  0  0  0  0  0  0
   43.5895   35.5780   41.5541 C   0  0  0  0  0  0  0  0  0  0  0  0
   44.4021   36.1962   44.0790 H   0  0  0  0  0  0  0  0  0  0  0  0
   45.2837   32.0646   43.0338 H   0  0  0  0  0  0  0  0  0  0  0  0
   45.8898   33.5735   46.8927 H   0  0  0  0  0  0  0  0  0  0  0  0
   44.6881   32.5273   41.2064 H   0  0  0  0  0  0  0  0  0  0  0  0
   43.5862   32.5918   39.3247 H   0  0  0  0  0  0  0  0  0  0  0  0
   44.2906   34.1124   38.8227 H   0  0  0  0  0  0  0  0  0  0  0  0
   42.1464   34.5089   38.8490 H   0  0  0  0  0  0  0  0  0  0  0  0
   41.5245   35.0179   41.4681 H   0  0  0  0  0  0  0  0  0  0  0  0
   42.0419   36.2491   40.2952 H   0  0  0  0  0  0  0  0  0  0  0  0
   44.2203   36.3927   41.1053 H   0  0  0  0  0  0  0  0  0  0  0  0
   43.2190   36.0671   42.5097 H   0  0  0  0  0  0  0  0  0  0  0  0
   46.0763   33.8241   40.3108 C   0  0  0  0  0  0  0  0  0  0  0  0
   46.4125   32.9989   39.1263 C   0  0  0  0  0  0  0  0  0  0  0  0
   47.9312   32.9770   39.0140 C   0  0  0  0  0  0  0  0  0  0  0  0
   48.5759   34.0505   39.8310 C   0  0  0  0  0  0  0  0  0  0  0  0
   47.8872   35.3757   39.7340 C   0  0  0  0  0  0  0  0  0  0  0  0
   46.4137   35.2487   40.0663 C   0  0  0  0  0  0  0  0  0  0  0  0
   46.8301   33.4886   41.0962 H   0  0  0  0  0  0  0  0  0  0  0  0
   46.1103   31.9584   39.2753 H   0  0  0  0  0  0  0  0  0  0  0  0
   46.0307   33.3957   38.1651 H   0  0  0  0  0  0  0  0  0  0  0  0
   48.2503   33.0848   37.9647 H   0  0  0  0  0  0  0  0  0  0  0  0
   48.3522   32.0157   39.3788 H   0  0  0  0  0  0  0  0  0  0  0  0
   49.5918   34.2218   39.3592 H   0  0  0  0  0  0  0  0  0  0  0  0
   48.8260   33.7608   40.8721 H   0  0  0  0  0  0  0  0  0  0  0  0
   48.0609   35.8259   38.7117 H   0  0  0  0  0  0  0  0  0  0  0  0
   48.3750   36.1110   40.4162 H   0  0  0  0  0  0  0  0  0  0  0  0
   45.8936   35.6785   39.1659 H   0  0  0  0  0  0  0  0  0  0  0  0
   46.2243   35.8375   40.9917 H   0  0  0  0  0  0  0  0  0  0  0  0
  1  6  2  0
  2  3  2  0
  2  1  1  0
  3  4  1  0
  4  5  2  0
  6  5  1  0
  7  2  1  0
  8  7  1  0
  9 10  1  0
  9  8  1  0
 10 11  1  0
 11 12  1  0
 12  7  1  0
  1 13  1  0
  3 14  1  0
  5 15  1  0
  8 16  1  1
  9 17  1  0
  9 18  1  0
 10 19  1  0
 11 20  1  0
 11 21  1  0
 12 22  1  0
 12 23  1  0
 24 25  1  0
 25 26  1  0
 26 27  1  0
 27 28  1  0
 28 29  1  0
 29 24  1  0
 24 30  1  0
 25 31  1  0
 25 32  1  0
 26 33  1  0
 26 34  1  0
 27 35  1  0
 27 36  1  0
 28 37  1  0
 28 38  1  0
 29 39  1  0
 29 40  1  0
  8 24  1  0
M  ISO  8  13  14  14  14  15  14  16  13  17  13  18  13  19   5  20  13
M  ISO  3  21  13  22  13  23  13
M  END
>  <DihAtoms>  (1) 
6,7,23,24

>  <DihDeg>  (1) 
-57.14692037978614

$$$$
