
 OpenBabel03242520523D

 19 20  0  0  0  0  0  0  0  0999 V2000
   37.7130   28.6690   43.6020 C   0  0  0  0  0  0  0  0  0  0  0  0
   37.9700   27.3060   43.3820 C   0  0  0  0  0  0  0  0  0  0  0  0
   38.0590   26.8360   42.0820 C   0  0  0  0  0  0  0  0  0  0  0  0
   37.8910   27.7310   41.0800 N   0  0  0  0  0  0  0  0  0  0  0  0
   37.6460   29.0330   41.2970 C   0  0  0  0  0  0  0  0  0  0  0  0
   37.5590   29.4900   42.5680 N   0  0  0  0  0  0  0  0  0  0  0  0
   37.6480   29.0130   44.6200 H   0  0  0  0  0  0  0  0  0  0  0  0
   38.1060   26.5760   44.1700 H   0  0  0  0  0  0  0  0  0  0  0  0
   37.4700   29.9700   40.1750 C   0  0  0  0  0  3  0  0  0  0  0  0
   36.8780   31.2810   40.6570 C   0  0  0  0  0  2  0  0  0  0  0  0
   37.0780   32.2710   39.5270 C   0  0  0  0  0  2  0  0  0  0  0  0
   37.4030   31.6470   38.2130 C   0  0  0  0  0  2  0  0  0  0  0  0
   36.7010   30.3680   37.9160 C   0  0  0  0  0  2  0  0  0  0  0  0
   36.5340   29.4530   39.1100 C   0  0  0  0  0  2  0  0  0  0  0  0
   38.3040   25.5350   41.7000 O   0  0  0  0  0  0  0  0  0  0  0  0
   37.1630   24.6730   41.5630 C   0  0  0  0  0  0  0  0  0  0  0  0
   36.4680   24.9890   40.4200 F   0  0  0  0  0  0  0  0  0  0  0  0
   37.6350   23.3560   41.4850 F   0  0  0  0  0  0  0  0  0  0  0  0
   36.3580   24.7630   42.7100 F   0  0  0  0  0  0  0  0  0  0  0  0
  1  7  1  0  0  0  0
  2  1  1  0  0  0  0
  2  8  1  0  0  0  0
  3  2  2  0  0  0  0
  4  5  2  0  0  0  0
  4  3  1  0  0  0  0
  5  6  1  0  0  0  0
  6  1  2  0  0  0  0
  9 10  1  0  0  0  0
  9  5  1  0  0  0  0
 11 10  1  0  0  0  0
 12 11  1  0  0  0  0
 13 12  1  0  0  0  0
 13 14  1  0  0  0  0
 14  9  1  0  0  0  0
 15  3  1  0  0  0  0
 16 15  1  0  0  0  0
 16 19  1  0  0  0  0
 17 16  1  0  0  0  0
 18 16  1  0  0  0  0
M  END
>  <minimizedAffinity>
-5.02240515

$$$$

 OpenBabel03242520523D

 19 20  0  0  0  0  0  0  0  0999 V2000
   37.8030   28.1200   43.6700 C   0  0  0  0  0  0  0  0  0  0  0  0
   38.0260   29.3400   43.0100 C   0  0  0  0  0  0  0  0  0  0  0  0
   37.8530   29.4080   41.6380 C   0  0  0  0  0  0  0  0  0  0  0  0
   37.4720   28.2760   40.9980 N   0  0  0  0  0  0  0  0  0  0  0  0
   37.2610   27.1130   41.6340 C   0  0  0  0  0  0  0  0  0  0  0  0
   37.4310   27.0500   42.9760 N   0  0  0  0  0  0  0  0  0  0  0  0
   37.9440   28.0900   44.7370 H   0  0  0  0  0  0  0  0  0  0  0  0
   38.3310   30.2540   43.5040 H   0  0  0  0  0  0  0  0  0  0  0  0
   36.8480   25.9080   40.8970 C   0  0  0  0  0  3  0  0  0  0  0  0
   37.8400   24.7810   41.1100 C   0  0  0  0  0  2  0  0  0  0  0  0
   37.1520   23.5200   40.6280 C   0  0  0  0  0  2  0  0  0  0  0  0
   35.9540   23.7620   39.7740 C   0  0  0  0  0  2  0  0  0  0  0  0
   36.0520   24.9160   38.8390 C   0  0  0  0  0  2  0  0  0  0  0  0
   36.7710   26.1210   39.4050 C   0  0  0  0  0  2  0  0  0  0  0  0
   38.0300   30.5220   40.8470 O   0  0  0  0  0  0  0  0  0  0  0  0
   36.8570   31.2900   40.5350 C   0  0  0  0  0  0  0  0  0  0  0  0
   37.1760   32.6240   40.4510 F   0  0  0  0  0  0  0  0  0  0  0  0
   36.3700   30.8370   39.3020 F   0  0  0  0  0  0  0  0  0  0  0  0
   35.8600   31.0460   41.4950 F   0  0  0  0  0  0  0  0  0  0  0  0
  1  7  1  0  0  0  0
  2  8  1  0  0  0  0
  2  1  1  0  0  0  0
  3  2  2  0  0  0  0
  4  5  2  0  0  0  0
  4  3  1  0  0  0  0
  5  6  1  0  0  0  0
  6  1  2  0  0  0  0
  9 10  1  0  0  0  0
  9  5  1  0  0  0  0
 11 10  1  0  0  0  0
 12 11  1  0  0  0  0
 13 14  1  0  0  0  0
 13 12  1  0  0  0  0
 14  9  1  0  0  0  0
 15  3  1  0  0  0  0
 16 15  1  0  0  0  0
 16 19  1  0  0  0  0
 17 16  1  0  0  0  0
 18 16  1  0  0  0  0
M  END
>  <minimizedAffinity>
-4.72714949

$$$$

 OpenBabel03242520523D

 19 20  0  0  0  0  0  0  0  0999 V2000
   37.1890   29.4380   37.2160 C   0  0  0  0  0  0  0  0  0  0  0  0
   37.6960   30.7120   37.5230 C   0  0  0  0  0  0  0  0  0  0  0  0
   38.0990   30.9850   38.8200 C   0  0  0  0  0  0  0  0  0  0  0  0
   37.9800   29.9930   39.7350 N   0  0  0  0  0  0  0  0  0  0  0  0
   37.4950   28.7770   39.4350 C   0  0  0  0  0  0  0  0  0  0  0  0
   37.1020   28.5140   38.1670 N   0  0  0  0  0  0  0  0  0  0  0  0
   36.8820   29.2490   36.2020 H   0  0  0  0  0  0  0  0  0  0  0  0
   37.7980   31.5180   36.8070 H   0  0  0  0  0  0  0  0  0  0  0  0
   37.3840   27.7290   40.4620 C   0  0  0  0  0  3  0  0  0  0  0  0
   36.7030   26.4950   39.9010 C   0  0  0  0  0  2  0  0  0  0  0  0
   36.9650   25.3830   40.8960 C   0  0  0  0  0  2  0  0  0  0  0  0
   37.4270   25.8520   42.2340 C   0  0  0  0  0  2  0  0  0  0  0  0
   36.8010   27.1090   42.7270 C   0  0  0  0  0  2  0  0  0  0  0  0
   36.5640   28.1520   41.6570 C   0  0  0  0  0  2  0  0  0  0  0  0
   38.6150   32.1760   39.2810 O   0  0  0  0  0  0  0  0  0  0  0  0
   37.6990   33.0720   39.9310 C   0  0  0  0  0  0  0  0  0  0  0  0
   38.3930   34.0290   40.6320 F   0  0  0  0  0  0  0  0  0  0  0  0
   36.9230   33.6800   38.9340 F   0  0  0  0  0  0  0  0  0  0  0  0
   36.8260   32.3440   40.7570 F   0  0  0  0  0  0  0  0  0  0  0  0
  1  2  2  0  0  0  0
  1  6  1  0  0  0  0
  2  3  1  0  0  0  0
  3 15  1  0  0  0  0
  3  4  2  0  0  0  0
  5  4  1  0  0  0  0
  5  9  1  0  0  0  0
  6  5  2  0  0  0  0
  7  1  1  0  0  0  0
  8  2  1  0  0  0  0
  9 14  1  0  0  0  0
 10  9  1  0  0  0  0
 10 11  1  0  0  0  0
 11 12  1  0  0  0  0
 12 13  1  0  0  0  0
 14 13  1  0  0  0  0
 15 16  1  0  0  0  0
 16 17  1  0  0  0  0
 16 19  1  0  0  0  0
 18 16  1  0  0  0  0
M  END
>  <minimizedAffinity>
-4.65680408

$$$$

 OpenBabel03242520523D

 19 20  0  0  0  0  0  0  0  0999 V2000
   35.4570   29.7140   40.6200 C   0  0  0  0  0  0  0  0  0  0  0  0
   35.9680   28.4490   40.9560 C   0  0  0  0  0  0  0  0  0  0  0  0
   37.3360   28.2910   41.1050 C   0  0  0  0  0  0  0  0  0  0  0  0
   38.1170   29.3820   40.9160 N   0  0  0  0  0  0  0  0  0  0  0  0
   37.6220   30.5880   40.5940 C   0  0  0  0  0  0  0  0  0  0  0  0
   36.2850   30.7390   40.4490 N   0  0  0  0  0  0  0  0  0  0  0  0
   34.3910   29.8130   40.5090 H   0  0  0  0  0  0  0  0  0  0  0  0
   35.3610   27.5660   41.1110 H   0  0  0  0  0  0  0  0  0  0  0  0
   38.5090   31.7450   40.3980 C   0  0  0  0  0  3  0  0  0  0  0  0
   37.7030   33.0020   40.1300 C   0  0  0  0  0  2  0  0  0  0  0  0
   38.6630   34.1610   40.3060 C   0  0  0  0  0  2  0  0  0  0  0  0
   40.1030   33.7740   40.2930 C   0  0  0  0  0  2  0  0  0  0  0  0
   40.4700   32.6900   39.3400 C   0  0  0  0  0  2  0  0  0  0  0  0
   39.4410   31.5870   39.2200 C   0  0  0  0  0  2  0  0  0  0  0  0
   37.9920   27.1250   41.4310 O   0  0  0  0  0  0  0  0  0  0  0  0
   37.8420   26.6500   42.7790 C   0  0  0  0  0  0  0  0  0  0  0  0
   36.6210   26.0360   42.9280 F   0  0  0  0  0  0  0  0  0  0  0  0
   38.8710   25.7300   43.0200 F   0  0  0  0  0  0  0  0  0  0  0  0
   38.0100   27.7140   43.6800 F   0  0  0  0  0  0  0  0  0  0  0  0
  1  2  1  0  0  0  0
  2  3  2  0  0  0  0
  2  8  1  0  0  0  0
  3 15  1  0  0  0  0
  4  3  1  0  0  0  0
  5  4  2  0  0  0  0
  6  5  1  0  0  0  0
  6  1  2  0  0  0  0
  7  1  1  0  0  0  0
  9  5  1  0  0  0  0
 10 11  1  0  0  0  0
 10  9  1  0  0  0  0
 12 11  1  0  0  0  0
 13 12  1  0  0  0  0
 14 13  1  0  0  0  0
 14  9  1  0  0  0  0
 15 16  1  0  0  0  0
 16 17  1  0  0  0  0
 16 18  1  0  0  0  0
 16 19  1  0  0  0  0
M  END
>  <minimizedAffinity>
-4.57272243

$$$$

 OpenBabel03242520523D

 19 20  0  0  0  0  0  0  0  0999 V2000
   38.7690   28.8490   43.2080 C   0  0  0  0  0  0  0  0  0  0  0  0
   38.7400   30.0250   42.4400 C   0  0  0  0  0  0  0  0  0  0  0  0
   38.3160   29.9620   41.1230 C   0  0  0  0  0  0  0  0  0  0  0  0
   37.9480   28.7510   40.6410 N   0  0  0  0  0  0  0  0  0  0  0  0
   37.9780   27.6310   41.3800 C   0  0  0  0  0  0  0  0  0  0  0  0
   38.3920   27.6950   42.6670 N   0  0  0  0  0  0  0  0  0  0  0  0
   39.1010   28.9220   44.2300 H   0  0  0  0  0  0  0  0  0  0  0  0
   39.0300   31.0010   42.8070 H   0  0  0  0  0  0  0  0  0  0  0  0
   37.5680   26.3360   40.8140 C   0  0  0  0  0  3  0  0  0  0  0  0
   36.4880   26.5240   39.7650 C   0  0  0  0  0  2  0  0  0  0  0  0
   36.4060   25.2150   39.0080 C   0  0  0  0  0  2  0  0  0  0  0  0
   37.0590   24.0640   39.6960 C   0  0  0  0  0  2  0  0  0  0  0  0
   36.9150   24.0350   41.1770 C   0  0  0  0  0  2  0  0  0  0  0  0
   36.9930   25.3920   41.8420 C   0  0  0  0  0  2  0  0  0  0  0  0
   38.2300   31.0180   40.2420 O   0  0  0  0  0  0  0  0  0  0  0  0
   36.9320   31.6050   40.0580 C   0  0  0  0  0  0  0  0  0  0  0  0
   37.0510   32.9630   39.8800 F   0  0  0  0  0  0  0  0  0  0  0  0
   36.3620   31.0230   38.9190 F   0  0  0  0  0  0  0  0  0  0  0  0
   36.1070   31.2880   41.1500 F   0  0  0  0  0  0  0  0  0  0  0  0
  1  7  1  0  0  0  0
  2  8  1  0  0  0  0
  2  1  2  0  0  0  0
  3  2  1  0  0  0  0
  4  3  2  0  0  0  0
  4  5  1  0  0  0  0
  5  6  2  0  0  0  0
  6  1  1  0  0  0  0
  9  5  1  0  0  0  0
  9 14  1  0  0  0  0
 10  9  1  0  0  0  0
 11 12  1  0  0  0  0
 11 10  1  0  0  0  0
 12 13  1  0  0  0  0
 13 14  1  0  0  0  0
 15  3  1  0  0  0  0
 16 15  1  0  0  0  0
 16 19  1  0  0  0  0
 17 16  1  0  0  0  0
 18 16  1  0  0  0  0
M  END
>  <minimizedAffinity>
-4.56965685

$$$$

 OpenBabel03242520523D

 19 20  0  0  0  0  0  0  0  0999 V2000
   39.6300   28.1110   39.4430 C   0  0  0  0  0  0  0  0  0  0  0  0
   38.6450   27.3890   40.1370 C   0  0  0  0  0  0  0  0  0  0  0  0
   37.6490   28.0780   40.8100 C   0  0  0  0  0  0  0  0  0  0  0  0
   37.6810   29.4310   40.7590 N   0  0  0  0  0  0  0  0  0  0  0  0
   38.6250   30.1160   40.0930 C   0  0  0  0  0  0  0  0  0  0  0  0
   39.5970   29.4390   39.4380 N   0  0  0  0  0  0  0  0  0  0  0  0
   40.3940   27.5550   38.9280 H   0  0  0  0  0  0  0  0  0  0  0  0
   38.6030   26.3080   40.1890 H   0  0  0  0  0  0  0  0  0  0  0  0
   38.6200   31.5870   40.0660 C   0  0  0  0  0  3  0  0  0  0  0  0
   37.4690   32.1060   39.2250 C   0  0  0  0  0  2  0  0  0  0  0  0
   37.3380   33.5790   39.5560 C   0  0  0  0  0  2  0  0  0  0  0  0
   38.5240   34.1610   40.2470 C   0  0  0  0  0  2  0  0  0  0  0  0
   39.8480   33.6540   39.7910 C   0  0  0  0  0  2  0  0  0  0  0  0
   39.8740   32.1760   39.4680 C   0  0  0  0  0  2  0  0  0  0  0  0
   36.6170   27.5220   41.5330 O   0  0  0  0  0  0  0  0  0  0  0  0
   36.9300   27.0500   42.8530 C   0  0  0  0  0  0  0  0  0  0  0  0
   38.0610   27.6760   43.3220 F   0  0  0  0  0  0  0  0  0  0  0  0
   35.8400   27.3510   43.6800 F   0  0  0  0  0  0  0  0  0  0  0  0
   37.0720   25.6520   42.8370 F   0  0  0  0  0  0  0  0  0  0  0  0
  1  2  1  0  0  0  0
  2  8  1  0  0  0  0
  2  3  2  0  0  0  0
  3 15  1  0  0  0  0
  4  3  1  0  0  0  0
  5  4  2  0  0  0  0
  6  1  2  0  0  0  0
  6  5  1  0  0  0  0
  7  1  1  0  0  0  0
  9  5  1  0  0  0  0
 10 11  1  0  0  0  0
 10  9  1  0  0  0  0
 11 12  1  0  0  0  0
 13 12  1  0  0  0  0
 14 13  1  0  0  0  0
 14  9  1  0  0  0  0
 15 16  1  0  0  0  0
 16 17  1  0  0  0  0
 16 18  1  0  0  0  0
 19 16  1  0  0  0  0
M  END
>  <minimizedAffinity>
-4.56088305

$$$$

 OpenBabel03242520523D

 19 20  0  0  0  0  0  0  0  0999 V2000
   37.1910   31.1600   41.0520 C   0  0  0  0  0  0  0  0  0  0  0  0
   36.4620   31.0330   39.8580 C   0  0  0  0  0  0  0  0  0  0  0  0
   36.2730   29.7750   39.3120 C   0  0  0  0  0  0  0  0  0  0  0  0
   36.8090   28.7190   39.9700 N   0  0  0  0  0  0  0  0  0  0  0  0
   37.5050   28.8470   41.1120 C   0  0  0  0  0  0  0  0  0  0  0  0
   37.6890   30.0780   41.6430 N   0  0  0  0  0  0  0  0  0  0  0  0
   37.3260   32.1480   41.4590 H   0  0  0  0  0  0  0  0  0  0  0  0
   36.0260   31.8640   39.3180 H   0  0  0  0  0  0  0  0  0  0  0  0
   38.0710   27.6710   41.7920 C   0  0  0  0  0  3  0  0  0  0  0  0
   37.0640   26.5370   41.8330 C   0  0  0  0  0  2  0  0  0  0  0  0
   37.8470   25.2950   42.2090 C   0  0  0  0  0  2  0  0  0  0  0  0
   39.1940   25.5690   42.7850 C   0  0  0  0  0  2  0  0  0  0  0  0
   39.2840   26.7580   43.6760 C   0  0  0  0  0  2  0  0  0  0  0  0
   38.4550   27.9420   43.2270 C   0  0  0  0  0  2  0  0  0  0  0  0
   35.5860   29.4820   38.1540 O   0  0  0  0  0  0  0  0  0  0  0  0
   34.2940   28.8710   38.3030 C   0  0  0  0  0  0  0  0  0  0  0  0
   33.7670   29.1780   39.5340 F   0  0  0  0  0  0  0  0  0  0  0  0
   33.4690   29.3780   37.2900 F   0  0  0  0  0  0  0  0  0  0  0  0
   34.3990   27.4850   38.1050 F   0  0  0  0  0  0  0  0  0  0  0  0
  1  7  1  0  0  0  0
  1  6  1  0  0  0  0
  2  1  2  0  0  0  0
  3  2  1  0  0  0  0
  3  4  2  0  0  0  0
  4  5  1  0  0  0  0
  5  6  2  0  0  0  0
  5  9  1  0  0  0  0
  8  2  1  0  0  0  0
  9 10  1  0  0  0  0
  9 14  1  0  0  0  0
 10 11  1  0  0  0  0
 11 12  1  0  0  0  0
 12 13  1  0  0  0  0
 14 13  1  0  0  0  0
 15 16  1  0  0  0  0
 15  3  1  0  0  0  0
 16 17  1  0  0  0  0
 18 16  1  0  0  0  0
 19 16  1  0  0  0  0
M  END
>  <minimizedAffinity>
-4.54066324

$$$$

 OpenBabel03242520523D

 19 20  0  0  0  0  0  0  0  0999 V2000
   40.3910   28.4680   42.9110 C   0  0  0  0  0  0  0  0  0  0  0  0
   39.5370   27.3780   43.1490 C   0  0  0  0  0  0  0  0  0  0  0  0
   38.2390   27.4200   42.6700 C   0  0  0  0  0  0  0  0  0  0  0  0
   37.8580   28.5260   41.9870 N   0  0  0  0  0  0  0  0  0  0  0  0
   38.6790   29.5650   41.7630 C   0  0  0  0  0  0  0  0  0  0  0  0
   39.9480   29.5220   42.2330 N   0  0  0  0  0  0  0  0  0  0  0  0
   41.3960   28.4150   43.2930 H   0  0  0  0  0  0  0  0  0  0  0  0
   39.8230   26.4860   43.6920 H   0  0  0  0  0  0  0  0  0  0  0  0
   38.2220   30.7480   41.0170 C   0  0  0  0  0  3  0  0  0  0  0  0
   38.0250   30.4150   39.5500 C   0  0  0  0  0  2  0  0  0  0  0  0
   37.2260   31.5610   38.9640 C   0  0  0  0  0  2  0  0  0  0  0  0
   37.2010   32.7890   39.8090 C   0  0  0  0  0  2  0  0  0  0  0  0
   38.4680   33.1040   40.5240 C   0  0  0  0  0  2  0  0  0  0  0  0
   39.2040   31.8940   41.0580 C   0  0  0  0  0  2  0  0  0  0  0  0
   37.2830   26.4390   42.8170 O   0  0  0  0  0  0  0  0  0  0  0  0
   37.4860   25.2200   42.0850 C   0  0  0  0  0  0  0  0  0  0  0  0
   37.9550   25.5000   40.8240 F   0  0  0  0  0  0  0  0  0  0  0  0
   38.4300   24.4580   42.7870 F   0  0  0  0  0  0  0  0  0  0  0  0
   36.2910   24.4810   42.0510 F   0  0  0  0  0  0  0  0  0  0  0  0
  1  2  1  0  0  0  0
  1  7  1  0  0  0  0
  2  8  1  0  0  0  0
  3 15  1  0  0  0  0
  3  2  2  0  0  0  0
  4  3  1  0  0  0  0
  5  4  2  0  0  0  0
  5  6  1  0  0  0  0
  6  1  2  0  0  0  0
  9 14  1  0  0  0  0
  9  5  1  0  0  0  0
 10  9  1  0  0  0  0
 11 10  1  0  0  0  0
 11 12  1  0  0  0  0
 12 13  1  0  0  0  0
 13 14  1  0  0  0  0
 16 18  1  0  0  0  0
 16 15  1  0  0  0  0
 17 16  1  0  0  0  0
 19 16  1  0  0  0  0
M  END
>  <minimizedAffinity>
-4.4829855

$$$$

 OpenBabel03242520523D

 19 20  0  0  0  0  0  0  0  0999 V2000
   38.8860   28.8070   37.8020 C   0  0  0  0  0  0  0  0  0  0  0  0
   38.1910   30.0110   37.5940 C   0  0  0  0  0  0  0  0  0  0  0  0
   37.5900   30.6390   38.6720 C   0  0  0  0  0  0  0  0  0  0  0  0
   37.7070   30.0490   39.8860 N   0  0  0  0  0  0  0  0  0  0  0  0
   38.3720   28.8980   40.0780 C   0  0  0  0  0  0  0  0  0  0  0  0
   38.9580   28.2860   39.0230 N   0  0  0  0  0  0  0  0  0  0  0  0
   39.3450   28.3360   36.9500 H   0  0  0  0  0  0  0  0  0  0  0  0
   38.0870   30.4970   36.6330 H   0  0  0  0  0  0  0  0  0  0  0  0
   38.4720   28.2930   41.4160 C   0  0  0  0  0  3  0  0  0  0  0  0
   37.6140   29.0480   42.4130 C   0  0  0  0  0  2  0  0  0  0  0  0
   37.5010   28.1530   43.6310 C   0  0  0  0  0  2  0  0  0  0  0  0
   38.5060   27.0520   43.6800 C   0  0  0  0  0  2  0  0  0  0  0  0
   39.8650   27.3990   43.1800 C   0  0  0  0  0  2  0  0  0  0  0  0
   39.8750   28.3100   41.9730 C   0  0  0  0  0  2  0  0  0  0  0  0
   36.8770   31.8170   38.6360 O   0  0  0  0  0  0  0  0  0  0  0  0
   37.3810   32.9050   39.4290 C   0  0  0  0  0  0  0  0  0  0  0  0
   37.1730   32.6500   40.7630 F   0  0  0  0  0  0  0  0  0  0  0  0
   38.7540   33.0150   39.1720 F   0  0  0  0  0  0  0  0  0  0  0  0
   36.7790   34.1070   39.0220 F   0  0  0  0  0  0  0  0  0  0  0  0
  1  6  1  0  0  0  0
  2  1  2  0  0  0  0
  2  3  1  0  0  0  0
  3  4  2  0  0  0  0
  4  5  1  0  0  0  0
  5  9  1  0  0  0  0
  6  5  2  0  0  0  0
  7  1  1  0  0  0  0
  8  2  1  0  0  0  0
  9 14  1  0  0  0  0
  9 10  1  0  0  0  0
 10 11  1  0  0  0  0
 11 12  1  0  0  0  0
 13 12  1  0  0  0  0
 14 13  1  0  0  0  0
 15  3  1  0  0  0  0
 15 16  1  0  0  0  0
 16 17  1  0  0  0  0
 18 16  1  0  0  0  0
 19 16  1  0  0  0  0
M  END
>  <minimizedAffinity>
-4.45350361

$$$$
