
     RDKit          3D

 46 50  0  0  0  0  0  0  0  0999 V2000
   47.2662   31.3923   45.1499 C   0  0  0  0  0  0  0  0  0  0  0  0
   46.8747   32.7175   45.1416 C   0  0  0  0  0  0  0  0  0  0  0  0
   46.2384   33.3297   46.2081 C   0  0  0  0  0  0  0  0  0  0  0  0
   45.9685   32.5950   47.3573 C   0  0  0  0  0  0  0  0  0  0  0  0
   45.3809   32.8475   48.5614 N   0  0  0  0  0  0  0  0  0  0  0  0
   45.4113   31.7060   49.2899 C   0  0  0  0  0  0  0  0  0  0  0  0
   46.0146   30.7631   48.5325 N   0  0  0  0  0  0  0  0  0  0  0  0
   46.3626   31.2820   47.3511 C   0  0  0  0  0  0  0  0  0  0  0  0
   46.9926   30.6556   46.3092 C   0  0  0  0  0  0  0  0  0  0  0  0
   46.4839   35.1821   42.4293 C   0  0  0  0  0  0  0  0  0  0  0  0
   47.6490   35.0193   41.6979 C   0  0  0  0  0  0  0  0  0  0  0  0
   48.5756   34.0638   42.1301 C   0  0  0  0  0  0  0  0  0  0  0  0
   48.2846   33.3376   43.2538 N   0  0  0  0  0  0  0  0  0  0  0  0
   47.1466   33.5182   43.9416 C   0  0  0  0  0  0  0  0  0  0  0  0
   46.2414   34.4348   43.5402 N   0  0  0  0  0  0  0  0  0  0  0  0
   47.3781   29.2374   46.3968 C   0  0  0  0  0  0  0  0  0  0  0  0
   48.6813   28.7985   46.6133 C   0  0  0  0  0  0  0  0  0  0  0  0
   48.5463   27.3968   46.6174 C   0  0  0  0  0  0  0  0  0  0  0  0
   47.2126   27.0883   46.4097 C   0  0  0  0  0  0  0  0  0  0  0  0
   46.5617   28.2316   46.2847 O   0  0  0  0  0  0  0  0  0  0  0  0
   47.7566   30.9468   44.3095 H   0  0  0  0  0  0  0  0  0  0  0  0
   45.9395   34.3597   46.1891 H   0  0  0  0  0  0  0  0  0  0  0  0
   44.9904   33.7985   48.8131 H   0  0  0  0  0  0  0  0  0  0  0  0
   45.0063   31.6353   50.2914 H   0  0  0  0  0  0  0  0  0  0  0  0
   45.7296   35.9186   42.1283 H   0  0  0  0  0  0  0  0  0  0  0  0
   47.8471   35.6035   40.8226 H   0  0  0  0  0  0  0  0  0  0  0  0
   49.5070   33.8956   41.5921 H   0  0  0  0  0  0  0  0  0  0  0  0
   49.5880   29.3781   46.7477 H   0  0  0  0  0  0  0  0  0  0  0  0
   49.3481   26.6877   46.7586 H   0  0  0  0  0  0  0  0  0  0  0  0
   46.5708   25.7356   46.3318 C   0  0  0  0  0  0  0  0  0  0  0  0
   45.4900   25.5747   47.3604 C   0  0  0  0  0  0  0  0  0  0  0  0
   45.9645   24.8467   48.5954 C   0  0  0  0  0  0  0  0  0  0  0  0
   46.4010   23.4420   48.2601 C   0  0  0  0  0  0  0  0  0  0  0  0
   47.0084   23.3746   46.8899 C   0  0  0  0  0  0  0  0  0  0  0  0
   47.6228   24.6684   46.4267 C   0  0  0  0  0  0  0  0  0  0  0  0
   46.0987   25.6557   45.3124 H   0  0  0  0  0  0  0  0  0  0  0  0
   45.0956   26.5708   47.7097 H   0  0  0  0  0  0  0  0  0  0  0  0
   44.5786   25.0577   46.9501 H   0  0  0  0  0  0  0  0  0  0  0  0
   45.1336   24.8409   49.3237 H   0  0  0  0  0  0  0  0  0  0  0  0
   46.8483   25.4293   48.9854 H   0  0  0  0  0  0  0  0  0  0  0  0
   45.4978   22.7750   48.3418 H   0  0  0  0  0  0  0  0  0  0  0  0
   47.1538   23.1398   49.0461 H   0  0  0  0  0  0  0  0  0  0  0  0
   47.7995   22.5911   46.8381 H   0  0  0  0  0  0  0  0  0  0  0  0
   46.2499   23.0800   46.1094 H   0  0  0  0  0  0  0  0  0  0  0  0
   48.4712   24.9396   47.0811 H   0  0  0  0  0  0  0  0  0  0  0  0
   48.0189   24.4755   45.4072 H   0  0  0  0  0  0  0  0  0  0  0  0
  1  9  2  0
  2  1  1  0
  2  3  2  0
  3  4  1  0
  4  5  1  0
  5  6  1  0
  7  6  2  0
  8  4  2  0
  8  7  1  0
  9 16  1  0
  9  8  1  0
 10 15  2  0
 11 12  2  0
 11 10  1  0
 12 13  1  0
 13 14  2  0
 14  2  1  0
 15 14  1  0
 16 17  2  0
 17 18  1  0
 19 18  2  0
 20 16  1  0
 20 19  1  0
  1 21  1  0
  3 22  1  0
  5 23  1  0
  6 24  1  0
 10 25  1  0
 11 26  1  0
 12 27  1  0
 17 28  1  0
 18 29  1  0
 30 31  1  0
 31 32  1  0
 32 33  1  0
 33 34  1  0
 34 35  1  0
 35 30  1  0
 30 36  1  0
 31 37  1  0
 31 38  1  0
 32 39  1  0
 32 40  1  0
 33 41  1  0
 33 42  1  0
 34 43  1  0
 34 44  1  0
 35 45  1  0
 35 46  1  0
 19 30  1  0
M  ISO  8  21  14  22  14  23   9  24  14  25  14  26  14  27  14  28  14
M  ISO  1  29  14
M  END
>  <DihAtoms>  (1) 
17,18,29,30

>  <DihDeg>  (1) 
-118.05174158361375

$$$$
