
 OpenBabel03242523533D

 42 45  0  0  1  0  0  0  0  0999 V2000
   42.8090   34.3000   39.0150 C   0  0  1  0  0  0  0  0  0  0  0  0
   43.0340   35.1720   40.2440 C   0  0  1  0  0  0  0  0  0  0  0  0
   41.7890   35.6510   40.6820 O   0  0  0  0  0  0  0  0  0  0  0  0
   40.9190   35.9300   39.6250 C   0  0  0  0  0  0  0  0  0  0  0  0
   40.4580   34.6690   38.9250 C   0  0  2  0  0  0  0  0  0  0  0  0
   41.5270   33.5710   39.2520 C   0  0  1  0  0  0  0  0  0  0  0  0
   43.6740   33.6120   38.8670 H   0  0  0  0  0  0  0  0  0  0  0  0
   43.7430   35.9950   40.0720 H   0  0  0  0  0  0  0  0  0  0  0  0
   41.2950   36.7090   38.9390 H   0  0  0  0  0  0  0  0  0  0  0  0
   40.0190   36.3650   40.1030 H   0  0  0  0  0  0  0  0  0  0  0  0
   39.4600   34.3180   39.2570 H   0  0  0  0  0  0  0  0  0  0  0  0
   41.2800   33.5060   40.3620 H   0  0  0  0  0  0  0  0  0  0  0  0
   42.7240   35.0830   37.8550 O   0  0  0  0  0  0  0  0  0  0  0  0
   43.6490   35.3270   37.6140 H   0  0  0  0  0  0  0  0  0  0  0  0
   40.5300   34.8460   37.5500 O   0  0  0  0  0  0  0  0  0  0  0  0
   40.6190   34.0220   37.0320 H   0  0  0  0  0  0  0  0  0  0  0  0
   43.4340   34.2870   41.2560 O   0  0  0  0  0  0  0  0  0  0  0  0
   44.5890   34.3560   41.9260 C   0  0  0  0  0  0  0  0  0  0  0  0
   45.8100   34.4970   41.2500 C   0  0  0  0  0  0  0  0  0  0  0  0
   46.9780   34.5640   41.9870 C   0  0  0  0  0  0  0  0  0  0  0  0
   46.9080   34.4900   43.3680 N   0  0  0  0  0  0  0  0  0  0  0  0
   45.7140   34.3540   43.9870 C   0  0  0  0  0  0  0  0  0  0  0  0
   44.5640   34.2870   43.2680 N   0  0  0  0  0  0  0  0  0  0  0  0
   45.8730   34.5550   40.1710 H   0  0  0  0  0  0  0  0  0  0  0  0
   45.6960   34.3000   45.0490 H   0  0  0  0  0  0  0  0  0  0  0  0
   48.3170   34.6980   41.3380 C   0  0  0  0  0  0  0  0  0  0  0  0
   49.0480   36.0260   41.5330 C   0  0  0  0  0  0  0  0  0  0  0  0
   49.5210   34.6720   42.1050 C   0  0  0  0  0  0  0  0  0  0  0  0
   48.3040   34.3130   40.2810 H   0  0  0  0  0  0  0  0  0  0  0  0
   48.5400   36.7160   42.2040 H   0  0  0  0  0  0  0  0  0  0  0  0
   49.6350   36.3790   40.6710 H   0  0  0  0  0  0  0  0  0  0  0  0
   50.4590   34.2430   41.7130 H   0  0  0  0  0  0  0  0  0  0  0  0
   49.4600   34.6310   43.2250 H   0  0  0  0  0  0  0  0  0  0  0  0
   41.2750   32.5090   38.4640 O   0  0  0  0  0  0  0  0  0  0  0  0
   40.3080   31.5730   38.5710 C   0  0  0  0  0  0  0  0  0  0  0  0
   39.6470   31.1510   37.5180 O   0  0  0  0  0  0  0  0  0  0  0  0
   39.5710   30.6830   39.5320 C   0  0  0  0  0  3  0  0  0  0  0  0
   38.4990   31.5600   40.1690 C   0  0  0  0  0  2  0  0  0  0  0  0
   37.6010   30.7730   41.0640 C   0  0  0  0  0  2  0  0  0  0  0  0
   38.3050   29.6710   41.7790 C   0  0  0  0  0  2  0  0  0  0  0  0
   39.7430   30.1120   41.9850 C   0  0  0  0  0  2  0  0  0  0  0  0
   40.3840   30.0930   40.6190 C   0  0  0  0  0  2  0  0  0  0  0  0
  1  7  1  6  0  0  0
  1  6  1  0  0  0  0
  1  2  1  0  0  0  0
  2  8  1  6  0  0  0
  2  3  1  0  0  0  0
  2 17  1  0  0  0  0
  4 10  1  0  0  0  0
  4  3  1  0  0  0  0
  5  6  1  0  0  0  0
  5 11  1  1  0  0  0
  5  4  1  0  0  0  0
  6 12  1  1  0  0  0
  9  4  1  0  0  0  0
 13  1  1  0  0  0  0
 14 13  1  0  0  0  0
 15  5  1  0  0  0  0
 16 15  1  0  0  0  0
 17 18  1  0  0  0  0
 18 23  1  0  0  0  0
 19 18  2  0  0  0  0
 19 20  1  0  0  0  0
 20 21  2  0  0  0  0
 21 22  1  0  0  0  0
 22 25  1  0  0  0  0
 23 22  2  0  0  0  0
 24 19  1  0  0  0  0
 26 27  1  0  0  0  0
 26 20  1  0  0  0  0
 26 28  1  0  0  0  0
 27 28  1  0  0  0  0
 27 30  1  0  0  0  0
 28 33  1  0  0  0  0
 29 26  1  0  0  0  0
 31 27  1  0  0  0  0
 32 28  1  0  0  0  0
 34 35  1  0  0  0  0
 34  6  1  0  0  0  0
 35 37  1  0  0  0  0
 36 35  2  0  0  0  0
 37 38  1  0  0  0  0
 37 42  1  0  0  0  0
 38 39  1  0  0  0  0
 39 40  1  0  0  0  0
 40 41  1  0  0  0  0
 42 41  1  0  0  0  0
M  END
>  <minimizedAffinity>
-6.38473558

>  <minimizedRMSD>
2.0415163

$$$$
