
 OpenBabel03242523533D

 42 45  0  0  1  0  0  0  0  0999 V2000
   42.8170   34.5410   38.7420 C   0  0  1  0  0  0  0  0  0  0  0  0
   42.9490   35.1870   40.1160 C   0  0  1  0  0  0  0  0  0  0  0  0
   41.6610   35.3990   40.6320 O   0  0  0  0  0  0  0  0  0  0  0  0
   40.7370   35.7510   39.6430 C   0  0  0  0  0  0  0  0  0  0  0  0
   40.4360   34.5940   38.7130 C   0  0  2  0  0  0  0  0  0  0  0  0
   41.6520   33.6110   38.8300 C   0  0  1  0  0  0  0  0  0  0  0  0
   43.7640   34.0190   38.4690 H   0  0  0  0  0  0  0  0  0  0  0  0
   43.5360   36.1170   40.1070 H   0  0  0  0  0  0  0  0  0  0  0  0
   40.9890   36.6900   39.1200 H   0  0  0  0  0  0  0  0  0  0  0  0
   39.7980   35.9590   40.1920 H   0  0  0  0  0  0  0  0  0  0  0  0
   39.5030   34.0530   38.9680 H   0  0  0  0  0  0  0  0  0  0  0  0
   41.4400   33.3040   39.9060 H   0  0  0  0  0  0  0  0  0  0  0  0
   42.6020   35.5100   37.7520 O   0  0  0  0  0  0  0  0  0  0  0  0
   43.4790   35.9200   37.5660 H   0  0  0  0  0  0  0  0  0  0  0  0
   40.4540   35.0360   37.3980 O   0  0  0  0  0  0  0  0  0  0  0  0
   40.6420   34.3460   36.7320 H   0  0  0  0  0  0  0  0  0  0  0  0
   43.4870   34.1900   40.9420 O   0  0  0  0  0  0  0  0  0  0  0  0
   44.5920   34.3190   41.6850 C   0  0  0  0  0  0  0  0  0  0  0  0
   45.8550   34.4330   41.0890 C   0  0  0  0  0  0  0  0  0  0  0  0
   46.9680   34.5670   41.9000 C   0  0  0  0  0  0  0  0  0  0  0  0
   46.8000   34.5830   43.2750 N   0  0  0  0  0  0  0  0  0  0  0  0
   45.5670   34.4710   43.8150 C   0  0  0  0  0  0  0  0  0  0  0  0
   44.4710   34.3400   43.0240 N   0  0  0  0  0  0  0  0  0  0  0  0
   45.9950   34.4210   40.0160 H   0  0  0  0  0  0  0  0  0  0  0  0
   45.4730   34.4870   44.8750 H   0  0  0  0  0  0  0  0  0  0  0  0
   48.3480   34.6760   41.3400 C   0  0  0  0  0  0  0  0  0  0  0  0
   49.0600   36.0170   41.5170 C   0  0  0  0  0  0  0  0  0  0  0  0
   49.4950   34.6960   42.1880 C   0  0  0  0  0  0  0  0  0  0  0  0
   48.4090   34.2390   40.3040 H   0  0  0  0  0  0  0  0  0  0  0  0
   48.5040   36.7360   42.1170 H   0  0  0  0  0  0  0  0  0  0  0  0
   49.7040   36.3310   40.6820 H   0  0  0  0  0  0  0  0  0  0  0  0
   50.4610   34.2550   41.8840 H   0  0  0  0  0  0  0  0  0  0  0  0
   49.3580   34.7110   43.3020 H   0  0  0  0  0  0  0  0  0  0  0  0
   41.5290   32.6930   37.8530 O   0  0  0  0  0  0  0  0  0  0  0  0
   40.9000   31.4990   37.8730 C   0  0  0  0  0  0  0  0  0  0  0  0
   39.6420   31.3840   37.5140 O   0  0  0  0  0  0  0  0  0  0  0  0
   41.0650   30.0360   38.1760 C   0  0  0  0  0  3  0  0  0  0  0  0
   42.3080   29.9340   39.0530 C   0  0  0  0  0  2  0  0  0  0  0  0
   42.5290   28.5410   39.5390 C   0  0  0  0  0  2  0  0  0  0  0  0
   42.1250   27.5040   38.5470 C   0  0  0  0  0  2  0  0  0  0  0  0
   42.3250   28.0970   37.1640 C   0  0  0  0  0  2  0  0  0  0  0  0
   41.2580   29.1530   37.0050 C   0  0  0  0  0  2  0  0  0  0  0  0
  1  7  1  6  0  0  0
  1  6  1  0  0  0  0
  1  2  1  0  0  0  0
  2  8  1  6  0  0  0
  2  3  1  0  0  0  0
  2 17  1  0  0  0  0
  4 10  1  0  0  0  0
  4  3  1  0  0  0  0
  5  6  1  0  0  0  0
  5 11  1  1  0  0  0
  5  4  1  0  0  0  0
  6 12  1  1  0  0  0
  9  4  1  0  0  0  0
 13  1  1  0  0  0  0
 14 13  1  0  0  0  0
 15  5  1  0  0  0  0
 16 15  1  0  0  0  0
 17 18  1  0  0  0  0
 18 23  1  0  0  0  0
 19 18  2  0  0  0  0
 19 20  1  0  0  0  0
 20 21  2  0  0  0  0
 21 22  1  0  0  0  0
 22 25  1  0  0  0  0
 23 22  2  0  0  0  0
 24 19  1  0  0  0  0
 26 27  1  0  0  0  0
 26 20  1  0  0  0  0
 26 28  1  0  0  0  0
 27 30  1  0  0  0  0
 27 28  1  0  0  0  0
 28 33  1  0  0  0  0
 29 26  1  0  0  0  0
 31 27  1  0  0  0  0
 32 28  1  0  0  0  0
 34 35  1  0  0  0  0
 34  6  1  0  0  0  0
 35 37  1  0  0  0  0
 36 35  2  0  0  0  0
 37 38  1  0  0  0  0
 38 39  1  0  0  0  0
 40 39  1  0  0  0  0
 41 40  1  0  0  0  0
 42 41  1  0  0  0  0
 42 37  1  0  0  0  0
M  END
>  <minimizedAffinity>
-5.63659382

>  <minimizedRMSD>
0.114040084

$$$$
