
 OpenBabel03242523533D

 42 45  0  0  1  0  0  0  0  0999 V2000
   42.8130   34.5340   38.7340 C   0  0  1  0  0  0  0  0  0  0  0  0
   42.9540   35.1910   40.1020 C   0  0  1  0  0  0  0  0  0  0  0  0
   41.6700   35.4110   40.6230 O   0  0  0  0  0  0  0  0  0  0  0  0
   40.7420   35.7590   39.6360 C   0  0  0  0  0  0  0  0  0  0  0  0
   40.4320   34.5960   38.7170 C   0  0  2  0  0  0  0  0  0  0  0  0
   41.6440   33.6090   38.8360 C   0  0  1  0  0  0  0  0  0  0  0  0
   43.7570   34.0060   38.4600 H   0  0  0  0  0  0  0  0  0  0  0  0
   43.5450   36.1180   40.0830 H   0  0  0  0  0  0  0  0  0  0  0  0
   40.9950   36.6930   39.1040 H   0  0  0  0  0  0  0  0  0  0  0  0
   39.8070   35.9760   40.1880 H   0  0  0  0  0  0  0  0  0  0  0  0
   39.4980   34.0610   38.9810 H   0  0  0  0  0  0  0  0  0  0  0  0
   41.4370   33.3120   39.9160 H   0  0  0  0  0  0  0  0  0  0  0  0
   42.5960   35.4960   37.7380 O   0  0  0  0  0  0  0  0  0  0  0  0
   43.4740   35.9010   37.5440 H   0  0  0  0  0  0  0  0  0  0  0  0
   40.4450   35.0280   37.3980 O   0  0  0  0  0  0  0  0  0  0  0  0
   40.6270   34.3310   36.7370 H   0  0  0  0  0  0  0  0  0  0  0  0
   43.4930   34.1980   40.9330 O   0  0  0  0  0  0  0  0  0  0  0  0
   44.5940   34.3330   41.6800 C   0  0  0  0  0  0  0  0  0  0  0  0
   45.8610   34.4360   41.0880 C   0  0  0  0  0  0  0  0  0  0  0  0
   46.9710   34.5760   41.9020 C   0  0  0  0  0  0  0  0  0  0  0  0
   46.7970   34.6100   43.2750 N   0  0  0  0  0  0  0  0  0  0  0  0
   45.5610   34.5080   43.8120 C   0  0  0  0  0  0  0  0  0  0  0  0
   44.4690   34.3710   43.0180 N   0  0  0  0  0  0  0  0  0  0  0  0
   46.0050   34.4100   40.0160 H   0  0  0  0  0  0  0  0  0  0  0  0
   45.4630   34.5380   44.8710 H   0  0  0  0  0  0  0  0  0  0  0  0
   48.3530   34.6740   41.3460 C   0  0  0  0  0  0  0  0  0  0  0  0
   49.0680   36.0150   41.5090 C   0  0  0  0  0  0  0  0  0  0  0  0
   49.4970   34.7020   42.1990 C   0  0  0  0  0  0  0  0  0  0  0  0
   48.4180   34.2230   40.3170 H   0  0  0  0  0  0  0  0  0  0  0  0
   48.5120   36.7440   42.0960 H   0  0  0  0  0  0  0  0  0  0  0  0
   49.7170   36.3160   40.6720 H   0  0  0  0  0  0  0  0  0  0  0  0
   50.4630   34.2540   41.9050 H   0  0  0  0  0  0  0  0  0  0  0  0
   49.3550   34.7320   43.3120 H   0  0  0  0  0  0  0  0  0  0  0  0
   41.5130   32.6850   37.8660 O   0  0  0  0  0  0  0  0  0  0  0  0
   40.8500   31.5090   37.8890 C   0  0  0  0  0  0  0  0  0  0  0  0
   39.6060   31.4190   37.4770 O   0  0  0  0  0  0  0  0  0  0  0  0
   40.9600   30.0500   38.2350 C   0  0  0  0  0  3  0  0  0  0  0  0
   41.4490   29.3600   36.9650 C   0  0  0  0  0  2  0  0  0  0  0  0
   41.7260   27.9130   37.1940 C   0  0  0  0  0  2  0  0  0  0  0  0
   40.7940   27.2860   38.1740 C   0  0  0  0  0  2  0  0  0  0  0  0
   39.4690   28.0210   38.0730 C   0  0  0  0  0  2  0  0  0  0  0  0
   39.7070   29.3910   38.6600 C   0  0  0  0  0  2  0  0  0  0  0  0
  1  7  1  6  0  0  0
  1  6  1  0  0  0  0
  1  2  1  0  0  0  0
  2  8  1  6  0  0  0
  2  3  1  0  0  0  0
  2 17  1  0  0  0  0
  4 10  1  0  0  0  0
  4  3  1  0  0  0  0
  5  6  1  0  0  0  0
  5 11  1  1  0  0  0
  5  4  1  0  0  0  0
  6 12  1  1  0  0  0
  9  4  1  0  0  0  0
 13  1  1  0  0  0  0
 14 13  1  0  0  0  0
 15  5  1  0  0  0  0
 16 15  1  0  0  0  0
 17 18  1  0  0  0  0
 18 23  1  0  0  0  0
 19 18  2  0  0  0  0
 19 20  1  0  0  0  0
 20 21  2  0  0  0  0
 21 22  1  0  0  0  0
 22 25  1  0  0  0  0
 23 22  2  0  0  0  0
 24 19  1  0  0  0  0
 26 27  1  0  0  0  0
 26 20  1  0  0  0  0
 26 28  1  0  0  0  0
 27 30  1  0  0  0  0
 27 28  1  0  0  0  0
 28 33  1  0  0  0  0
 29 26  1  0  0  0  0
 31 27  1  0  0  0  0
 32 28  1  0  0  0  0
 34 35  1  0  0  0  0
 34  6  1  0  0  0  0
 35 37  1  0  0  0  0
 36 35  2  0  0  0  0
 37 42  1  0  0  0  0
 38 39  1  0  0  0  0
 38 37  1  0  0  0  0
 39 40  1  0  0  0  0
 41 40  1  0  0  0  0
 41 42  1  0  0  0  0
M  END
>  <minimizedAffinity>
-5.74175072

>  <minimizedRMSD>
0.136454955

$$$$
