
 OpenBabel03242523533D

 42 45  0  0  1  0  0  0  0  0999 V2000
   42.8040   34.4950   38.7350 C   0  0  1  0  0  0  0  0  0  0  0  0
   42.9730   35.1720   40.0890 C   0  0  1  0  0  0  0  0  0  0  0  0
   41.6990   35.4330   40.6170 O   0  0  0  0  0  0  0  0  0  0  0  0
   40.7710   35.7850   39.6320 C   0  0  0  0  0  0  0  0  0  0  0  0
   40.4250   34.6130   38.7380 C   0  0  2  0  0  0  0  0  0  0  0  0
   41.6150   33.5990   38.8630 C   0  0  1  0  0  0  0  0  0  0  0  0
   43.7330   33.9400   38.4630 H   0  0  0  0  0  0  0  0  0  0  0  0
   43.5850   36.0850   40.0480 H   0  0  0  0  0  0  0  0  0  0  0  0
   41.0410   36.7020   39.0810 H   0  0  0  0  0  0  0  0  0  0  0  0
   39.8460   36.0330   40.1880 H   0  0  0  0  0  0  0  0  0  0  0  0
   39.4820   34.1050   39.0190 H   0  0  0  0  0  0  0  0  0  0  0  0
   41.4110   33.3270   39.9500 H   0  0  0  0  0  0  0  0  0  0  0  0
   42.6010   35.4430   37.7230 O   0  0  0  0  0  0  0  0  0  0  0  0
   43.4870   35.8240   37.5140 H   0  0  0  0  0  0  0  0  0  0  0  0
   40.4360   35.0200   37.4110 O   0  0  0  0  0  0  0  0  0  0  0  0
   40.5960   34.3070   36.7610 H   0  0  0  0  0  0  0  0  0  0  0  0
   43.4960   34.1820   40.9340 O   0  0  0  0  0  0  0  0  0  0  0  0
   44.5980   34.3110   41.6820 C   0  0  0  0  0  0  0  0  0  0  0  0
   45.8630   34.4270   41.0900 C   0  0  0  0  0  0  0  0  0  0  0  0
   46.9730   34.5590   41.9050 C   0  0  0  0  0  0  0  0  0  0  0  0
   46.8000   34.5740   43.2790 N   0  0  0  0  0  0  0  0  0  0  0  0
   45.5650   34.4600   43.8150 C   0  0  0  0  0  0  0  0  0  0  0  0
   44.4720   34.3300   43.0200 N   0  0  0  0  0  0  0  0  0  0  0  0
   46.0070   34.4160   40.0170 H   0  0  0  0  0  0  0  0  0  0  0  0
   45.4680   34.4750   44.8750 H   0  0  0  0  0  0  0  0  0  0  0  0
   48.3550   34.6700   41.3500 C   0  0  0  0  0  0  0  0  0  0  0  0
   49.0600   36.0160   41.5190 C   0  0  0  0  0  0  0  0  0  0  0  0
   49.4990   34.7040   42.2030 C   0  0  0  0  0  0  0  0  0  0  0  0
   48.4230   34.2240   40.3190 H   0  0  0  0  0  0  0  0  0  0  0  0
   48.4980   36.7380   42.1090 H   0  0  0  0  0  0  0  0  0  0  0  0
   49.7060   36.3250   40.6830 H   0  0  0  0  0  0  0  0  0  0  0  0
   50.4670   34.2640   41.9070 H   0  0  0  0  0  0  0  0  0  0  0  0
   49.3560   34.7280   43.3160 H   0  0  0  0  0  0  0  0  0  0  0  0
   41.4530   32.6610   37.9120 O   0  0  0  0  0  0  0  0  0  0  0  0
   40.6550   31.5720   37.9110 C   0  0  0  0  0  0  0  0  0  0  0  0
   39.4280   31.6260   37.4450 O   0  0  0  0  0  0  0  0  0  0  0  0
   40.5760   30.1140   38.2680 C   0  0  0  0  0  3  0  0  0  0  0  0
   40.2050   29.3920   36.9760 C   0  0  0  0  0  2  0  0  0  0  0  0
   40.2120   27.9110   37.1500 C   0  0  0  0  0  2  0  0  0  0  0  0
   39.7610   27.4780   38.5030 C   0  0  0  0  0  2  0  0  0  0  0  0
   38.7700   28.5130   39.0040 C   0  0  0  0  0  2  0  0  0  0  0  0
   39.5770   29.7550   39.2970 C   0  0  0  0  0  2  0  0  0  0  0  0
  1  7  1  6  0  0  0
  1  6  1  0  0  0  0
  1  2  1  0  0  0  0
  2  8  1  6  0  0  0
  2  3  1  0  0  0  0
  2 17  1  0  0  0  0
  4 10  1  0  0  0  0
  4  3  1  0  0  0  0
  5  6  1  0  0  0  0
  5 11  1  1  0  0  0
  5  4  1  0  0  0  0
  6 12  1  1  0  0  0
  9  4  1  0  0  0  0
 13  1  1  0  0  0  0
 14 13  1  0  0  0  0
 15  5  1  0  0  0  0
 16 15  1  0  0  0  0
 17 18  1  0  0  0  0
 18 23  1  0  0  0  0
 19 18  2  0  0  0  0
 19 20  1  0  0  0  0
 20 21  2  0  0  0  0
 21 22  1  0  0  0  0
 22 25  1  0  0  0  0
 23 22  2  0  0  0  0
 24 19  1  0  0  0  0
 26 27  1  0  0  0  0
 26 20  1  0  0  0  0
 26 28  1  0  0  0  0
 27 30  1  0  0  0  0
 27 28  1  0  0  0  0
 28 33  1  0  0  0  0
 29 26  1  0  0  0  0
 31 27  1  0  0  0  0
 32 28  1  0  0  0  0
 34  6  1  0  0  0  0
 35 34  1  0  0  0  0
 35 37  1  0  0  0  0
 36 35  2  0  0  0  0
 37 42  1  0  0  0  0
 38 39  1  0  0  0  0
 38 37  1  0  0  0  0
 39 40  1  0  0  0  0
 40 41  1  0  0  0  0
 41 42  1  0  0  0  0
M  END
>  <minimizedAffinity>
-5.82970333

>  <minimizedRMSD>
0.499147773

$$$$
