
 OpenBabel03242514323D

 23 24  0  0  0  0  0  0  0  0999 V2000
   49.5500   35.3180   42.6600 O   0  0  0  0  0  0  0  0  0  0  0  0
   48.9600   34.2690   41.7750 P   0  0  1  0  0  0  0  0  0  0  0  0
   50.1910   33.1970   41.3790 O   0  0  0  0  0  0  0  0  0  0  0  0
   49.9290   32.6050   40.6150 H   0  0  0  0  0  0  0  0  0  0  0  0
   47.6760   33.4540   42.5630 O   0  0  0  0  0  0  0  0  0  0  0  0
   46.1260   35.2620   42.6100 C   0  0  0  0  0  0  0  0  0  0  0  0
   46.6850   34.1640   43.2430 C   0  0  0  0  0  0  0  0  0  0  0  0
   46.2280   33.8300   44.5190 C   0  0  0  0  0  0  0  0  0  0  0  0
   45.2550   34.6020   45.0740 N   0  0  0  0  0  0  0  0  0  0  0  0
   44.7380   35.6540   44.4350 C   0  0  0  0  0  0  0  0  0  0  0  0
   45.1670   35.9800   43.2170 N   0  0  0  0  0  0  0  0  0  0  0  0
   46.4020   35.6080   41.6270 H   0  0  0  0  0  0  0  0  0  0  0  0
   46.6800   32.9660   44.9970 H   0  0  0  0  0  0  0  0  0  0  0  0
   43.9730   36.1570   45.0210 H   0  0  0  0  0  0  0  0  0  0  0  0
   48.4020   35.0070   40.3850 O   0  0  0  0  0  0  0  0  0  0  0  0
   48.0270   34.3780   39.2460 C   0  0  0  0  0  0  0  0  0  0  0  0
   46.9520   33.6920   39.4180 O   0  0  0  0  0  0  0  0  0  0  0  0
   48.0000   33.9040   37.8350 C   0  0  0  0  0  3  0  0  0  0  0  0
   49.1140   32.8750   37.6500 C   0  0  0  0  0  2  0  0  0  0  0  0
   48.9990   32.4490   36.1960 C   0  0  0  0  0  2  0  0  0  0  0  0
   47.7540   31.5910   36.1060 C   0  0  0  0  0  2  0  0  0  0  0  0
   46.5870   32.5720   36.2420 C   0  0  0  0  0  2  0  0  0  0  0  0
   46.6580   33.3200   37.5260 C   0  0  0  0  0  2  0  0  0  0  0  0
  2  5  1  0  0  0  0
  2  1  2  1  0  0  0
  3  2  1  0  0  0  0
  4  3  1  0  0  0  0
  5  7  1  0  0  0  0
  6 11  2  0  0  0  0
  6  7  1  0  0  0  0
  7  8  2  0  0  0  0
  8 13  1  0  0  0  0
  8  9  1  0  0  0  0
 10 14  1  0  0  0  0
 10  9  2  0  0  0  0
 11 10  1  0  0  0  0
 12  6  1  0  0  0  0
 15  2  1  0  0  0  0
 16 17  2  0  0  0  0
 16 15  1  0  0  0  0
 18 16  1  0  0  0  0
 19 18  1  0  0  0  0
 20 19  1  0  0  0  0
 21 20  1  0  0  0  0
 21 22  1  0  0  0  0
 22 23  1  0  0  0  0
 23 18  1  0  0  0  0
M  END
>  <minimizedAffinity>
-4.58755159

>  <minimizedRMSD>
0.130930245

$$$$
