REMARK  Name = 
REMARK  6 active torsions:
REMARK  status: ('A' for Active; 'I' for Inactive)
REMARK    1  A    between atoms: C_2  and  O_7
REMARK    2  A    between atoms: O_7  and  P_9
REMARK    3  A    between atoms: P_9  and  O_10
REMARK    4  A    between atoms: P_9  and  O_11
REMARK    5  A    between atoms: O_11  and  C_12
REMARK    6  A    between atoms: C_12  and  C_18
REMARK                            x       y       z     vdW  Elec       q    Type
REMARK                         _______ _______ _______ _____ _____    ______ ____
ROOT
ATOM      1  O   UNL     1      49.555  35.361  42.784  0.00  0.00    +0.000 OA
ATOM      2  P   UNL     1      48.975  34.304  41.902  0.00  0.00    +0.000 P 
ENDROOT
BRANCH   2   3
ATOM      3  O   UNL     1      50.217  33.244  41.507  0.00  0.00    +0.000 OA
ATOM      4  H   UNL     1      49.961  32.648  40.744  0.00  0.00    +0.000 HD
ENDBRANCH   2   3
BRANCH   2   5
ATOM      5  O   UNL     1      47.701  33.477  42.693  0.00  0.00    +0.000 OA
BRANCH   5   7
ATOM      6  C   UNL     1      46.129  35.266  42.698  0.00  0.00    +0.000 A 
ATOM      7  C   UNL     1      46.688  34.178  43.349  0.00  0.00    +0.000 A 
ATOM      8  C   UNL     1      46.209  33.845  44.617  0.00  0.00    +0.000 A 
ATOM      9  N   UNL     1      45.215  34.609  45.147  0.00  0.00    +0.000 NA
ATOM     10  C   UNL     1      44.699  35.651  44.492  0.00  0.00    +0.000 A 
ATOM     11  N   UNL     1      45.150  35.976  43.282  0.00  0.00    +0.000 NA
ATOM     12  H   UNL     1      46.421  35.611  41.719  0.00  0.00    +0.000 HD
ATOM     13  H   UNL     1      46.661  32.989  45.108  0.00  0.00    +0.000 HD
ATOM     14  H   UNL     1      43.917  36.148  45.060  0.00  0.00    +0.000 HD
ENDBRANCH   5   7
ENDBRANCH   2   5
BRANCH   2  15
ATOM     15  O   UNL     1      48.408  35.033  40.511  0.00  0.00    +0.000 OA
BRANCH  15  16
ATOM     16  C   UNL     1      48.060  34.399  39.365  0.00  0.00    +0.000 C 
ATOM     17  O   UNL     1      46.960  33.746  39.503  0.00  0.00    +0.000 OA
BRANCH  16  18
ATOM     18  C   UNL     1      48.076  33.906  37.961  0.00  0.00    +0.000 C 
ATOM     19  C   UNL     1      48.776  34.948  37.090  0.00  0.00    +0.000 C 
ATOM     20  C   UNL     1      48.749  34.353  35.692  0.00  0.00    +0.000 C 
ATOM     21  C   UNL     1      49.752  33.217  35.698  0.00  0.00    +0.000 C 
ATOM     22  C   UNL     1      49.090  32.112  36.525  0.00  0.00    +0.000 C 
ATOM     23  C   UNL     1      48.772  32.584  37.899  0.00  0.00    +0.000 C 
ENDBRANCH  16  18
ENDBRANCH  15  16
ENDBRANCH   2  15
TORSDOF 6
