
 OpenBabel03242514323D

 23 24  0  0  0  0  0  0  0  0999 V2000
   49.5320   35.5420   42.6490 O   0  0  0  0  0  0  0  0  0  0  0  0
   49.0630   34.3120   41.9440 P   0  0  1  0  0  0  0  0  0  0  0  0
   50.4060   33.3310   41.7010 O   0  0  0  0  0  0  0  0  0  0  0  0
   50.2140   32.6040   41.0400 H   0  0  0  0  0  0  0  0  0  0  0  0
   47.8740   33.4930   42.8640 O   0  0  0  0  0  0  0  0  0  0  0  0
   46.2610   35.2380   42.7010 C   0  0  0  0  0  0  0  0  0  0  0  0
   46.7970   34.1840   43.4230 C   0  0  0  0  0  0  0  0  0  0  0  0
   46.2330   33.8720   44.6610 C   0  0  0  0  0  0  0  0  0  0  0  0
   45.1840   34.6230   45.0940 N   0  0  0  0  0  0  0  0  0  0  0  0
   44.6920   35.6320   44.3730 C   0  0  0  0  0  0  0  0  0  0  0  0
   45.2240   35.9370   43.1910 N   0  0  0  0  0  0  0  0  0  0  0  0
   46.6160   35.5640   41.7370 H   0  0  0  0  0  0  0  0  0  0  0  0
   46.6690   33.0420   45.2090 H   0  0  0  0  0  0  0  0  0  0  0  0
   43.8570   36.1230   44.8670 H   0  0  0  0  0  0  0  0  0  0  0  0
   48.4340   34.7610   40.4640 O   0  0  0  0  0  0  0  0  0  0  0  0
   48.1180   33.9250   39.4460 C   0  0  0  0  0  0  0  0  0  0  0  0
   46.8460   33.7570   39.3510 O   0  0  0  0  0  0  0  0  0  0  0  0
   48.2390   33.0050   38.2820 C   0  0  0  0  0  3  0  0  0  0  0  0
   46.9060   32.2870   38.0920 C   0  0  0  0  0  2  0  0  0  0  0  0
   47.1270   31.3880   36.8870 C   0  0  0  0  0  2  0  0  0  0  0  0
   47.1700   32.3040   35.6810 C   0  0  0  0  0  2  0  0  0  0  0  0
   48.5130   33.0310   35.7850 C   0  0  0  0  0  2  0  0  0  0  0  0
   48.6200   33.7840   37.0630 C   0  0  0  0  0  2  0  0  0  0  0  0
  2  1  2  1  0  0  0
  2  5  1  0  0  0  0
  3  2  1  0  0  0  0
  4  3  1  0  0  0  0
  5  7  1  0  0  0  0
  6 11  2  0  0  0  0
  6  7  1  0  0  0  0
  7  8  2  0  0  0  0
  8  9  1  0  0  0  0
  8 13  1  0  0  0  0
 10 14  1  0  0  0  0
 10  9  2  0  0  0  0
 11 10  1  0  0  0  0
 12  6  1  0  0  0  0
 15  2  1  0  0  0  0
 16 15  1  0  0  0  0
 17 16  2  0  0  0  0
 18 16  1  0  0  0  0
 19 18  1  0  0  0  0
 20 19  1  0  0  0  0
 21 22  1  0  0  0  0
 21 20  1  0  0  0  0
 22 23  1  0  0  0  0
 23 18  1  0  0  0  0
M  END
>  <minimizedAffinity>
-4.49871492

>  <minimizedRMSD>
0.793173075

$$$$
