
 OpenBabel03252506523D

 29 32  0  0  0  0  0  0  0  0999 V2000
   47.2060   31.3850   45.1580 C   0  0  0  0  0  0  0  0  0  0  0  0
   46.8550   32.7180   45.1420 C   0  0  0  0  0  0  0  0  0  0  0  0
   46.2500   33.3240   46.2210 C   0  0  0  0  0  0  0  0  0  0  0  0
   45.9690   32.5990   47.3780 C   0  0  0  0  0  0  0  0  0  0  0  0
   45.4050   32.8550   48.5850 N   0  0  0  0  0  0  0  0  0  0  0  0
   45.4090   31.7160   49.3200 C   0  0  0  0  0  0  0  0  0  0  0  0
   45.9780   30.7670   48.5540 N   0  0  0  0  0  0  0  0  0  0  0  0
   46.3360   31.2750   47.3490 C   0  0  0  0  0  0  0  0  0  0  0  0
   46.9440   30.6230   46.2920 C   0  0  0  0  0  0  0  0  0  0  0  0
   47.6770   30.9410   44.2970 H   0  0  0  0  0  0  0  0  0  0  0  0
   45.9720   34.3670   46.2200 H   0  0  0  0  0  0  0  0  0  0  0  0
   45.0440   33.8210   48.8360 H   0  0  0  0  0  0  0  0  0  0  0  0
   44.9950   31.7520   50.3050 H   0  0  0  0  0  0  0  0  0  0  0  0
   46.4840   35.1910   42.4520 C   0  0  0  0  0  0  0  0  0  0  0  0
   47.6800   35.0110   41.7190 C   0  0  0  0  0  0  0  0  0  0  0  0
   48.5950   34.0470   42.1550 C   0  0  0  0  0  0  0  0  0  0  0  0
   48.2630   33.3410   43.2730 N   0  0  0  0  0  0  0  0  0  0  0  0
   47.1240   33.5270   43.9540 C   0  0  0  0  0  0  0  0  0  0  0  0
   46.2200   34.4490   43.5580 N   0  0  0  0  0  0  0  0  0  0  0  0
   45.7790   35.9490   42.0980 H   0  0  0  0  0  0  0  0  0  0  0  0
   47.8890   35.6040   40.8370 H   0  0  0  0  0  0  0  0  0  0  0  0
   49.5130   33.8590   41.6530 H   0  0  0  0  0  0  0  0  0  0  0  0
   47.2770   29.2190   46.3960 C   0  0  0  0  0  0  0  0  0  0  0  0
   48.5180   28.7740   46.7480 C   0  0  0  0  0  0  0  0  0  0  0  0
   48.8350   27.4370   46.8470 C   0  0  0  0  0  0  0  0  0  0  0  0
   49.8300   27.1010   47.1290 H   0  0  0  0  0  0  0  0  0  0  0  0
   47.8580   26.5260   46.5780 N   0  0  0  0  0  0  0  0  0  0  0  0
   46.6380   27.0000   46.2310 C   0  0  0  0  0  0  0  0  0  0  0  0
   46.3500   28.2900   46.1410 N   0  0  0  0  0  0  0  0  0  0  0  0
  1  9  1  0  0  0  0
  2  1  2  0  0  0  0
  2  3  1  0  0  0  0
  3  4  2  0  0  0  0
  4  5  1  0  0  0  0
  5 12  1  0  0  0  0
  5  6  1  0  0  0  0
  6 13  1  0  0  0  0
  7  6  2  0  0  0  0
  8  4  1  0  0  0  0
  8  7  1  0  0  0  0
  9 23  1  0  0  0  0
  9  8  2  0  0  0  0
 10  1  1  0  0  0  0
 11  3  1  0  0  0  0
 14 19  1  0  0  0  0
 15 16  1  0  0  0  0
 15 14  2  0  0  0  0
 16 17  2  0  0  0  0
 17 18  1  0  0  0  0
 18  2  1  0  0  0  0
 19 18  2  0  0  0  0
 20 14  1  0  0  0  0
 21 15  1  0  0  0  0
 22 16  1  0  0  0  0
 23 24  1  0  0  0  0
 24 25  2  0  0  0  0
 25 26  1  0  0  0  0
 27 25  1  0  0  0  0
 28 27  2  0  0  0  0
 29 28  1  0  0  0  0
 29 23  2  0  0  0  0
M  END
>  <minimizedAffinity>
-5.25907087

>  <minimizedRMSD>
0.676543355

$$$$
