REMARK  Name = 
REMARK  10 active torsions:
REMARK  status: ('A' for Active; 'I' for Inactive)
REMARK    1  A    between atoms: C_1  and  O_12
REMARK    2  A    between atoms: C_2  and  C_3
REMARK    3  A    between atoms: C_3  and  O_4
REMARK    4  A    between atoms: O_4  and  P_6
REMARK    5  A    between atoms: P_6  and  O_7
REMARK    6  A    between atoms: P_6  and  O_8
REMARK    7  A    between atoms: O_8  and  C_9
REMARK    8  A    between atoms: O_12  and  C_13
REMARK    9  A    between atoms: C_13  and  C_15
REMARK   10  A    between atoms: C_18  and  C_34
REMARK                            x       y       z     vdW  Elec       q    Type
REMARK                         _______ _______ _______ _____ _____    ______ ____
ROOT
ATOM      1  C   UNL     1      43.872  35.238  41.206  0.00  0.00    +0.000 C 
ATOM      2  C   UNL     1      43.947  35.582  42.489  0.00  0.00    +0.000 C 
ENDROOT
BRANCH   2   3
ATOM      3  C   UNL     1      45.227  35.541  43.310  0.00  0.00    +0.000 C 
ATOM      4  H   UNL     1      45.482  36.545  43.705  0.00  0.00    +0.000 HD
ATOM      5  H   UNL     1      46.020  35.230  42.613  0.00  0.00    +0.000 HD
BRANCH   3   6
ATOM      6  O   UNL     1      45.001  34.655  44.348  0.00  0.00    +0.000 OA
BRANCH   6   8
ATOM      7  O   UNL     1      45.699  32.502  42.950  0.00  0.00    +0.000 OA
ATOM      8  P   UNL     1      46.000  33.303  44.196  0.00  0.00    +0.000 P 
BRANCH   8   9
ATOM      9  O   UNL     1      47.632  33.789  44.095  0.00  0.00    +0.000 OA
ATOM     10  H   UNL     1      47.748  34.527  43.444  0.00  0.00    +0.000 HD
ENDBRANCH   8   9
BRANCH   8  11
ATOM     11  O   UNL     1      45.861  32.324  45.562  0.00  0.00    +0.000 OA
BRANCH  11  12
ATOM     12  C   UNL     1      46.205  32.989  46.724  0.00  0.00    +0.000 C 
ATOM     13  C   UNL     1      47.059  32.297  47.736  0.00  0.00    +0.000 C 
ATOM     14  C   UNL     1      45.567  32.454  47.985  0.00  0.00    +0.000 C 
ATOM     15  H   UNL     1      46.357  34.082  46.639  0.00  0.00    +0.000 HD
ATOM     16  H   UNL     1      47.442  31.278  47.506  0.00  0.00    +0.000 HD
ATOM     17  H   UNL     1      47.672  32.941  48.397  0.00  0.00    +0.000 HD
ATOM     18  H   UNL     1      44.981  31.518  47.941  0.00  0.00    +0.000 HD
ATOM     19  H   UNL     1      45.220  33.190  48.740  0.00  0.00    +0.000 HD
ENDBRANCH  11  12
ENDBRANCH   8  11
ENDBRANCH   6   8
ENDBRANCH   3   6
ENDBRANCH   2   3
BRANCH   1  20
ATOM     20  O   UNL     1      42.626  35.332  40.614  0.00  0.00    +0.000 OA
BRANCH  20  21
ATOM     21  C   UNL     1      41.446  35.638  41.202  0.00  0.00    +0.000 C 
ATOM     22  H   UNL     1      41.402  35.684  42.315  0.00  0.00    +0.000 HD
ATOM     23  H   UNL     1      41.127  36.676  40.890  0.00  0.00    +0.000 HD
BRANCH  21  25
ATOM     24  C   UNL     1      40.290  33.537  41.580  0.00  0.00    +0.000 A 
ATOM     25  C   UNL     1      40.319  34.723  40.838  0.00  0.00    +0.000 A 
ATOM     26  C   UNL     1      39.360  34.945  39.916  0.00  0.00    +0.000 A 
ATOM     27  N   UNL     1      38.435  33.992  39.781  0.00  0.00    +0.000 NA
ATOM     28  C   UNL     1      38.384  32.858  40.473  0.00  0.00    +0.000 A 
ATOM     29  N   UNL     1      39.359  32.590  41.437  0.00  0.00    +0.000 NA
ATOM     30  H   UNL     1      41.029  33.298  42.333  0.00  0.00    +0.000 HD
ATOM     31  H   UNL     1      39.415  35.861  39.367  0.00  0.00    +0.000 HD
BRANCH  28  32
ATOM     32  C   UNL     1      37.344  31.849  40.283  0.00  0.00    +0.000 A 
ATOM     33  C   UNL     1      36.558  31.546  41.377  0.00  0.00    +0.000 A 
ATOM     34  C   UNL     1      35.571  30.576  41.164  0.00  0.00    +0.000 A 
ATOM     35  H   UNL     1      34.960  30.346  42.029  0.00  0.00    +0.000 HD
ATOM     36  N   UNL     1      35.392  29.974  39.976  0.00  0.00    +0.000 NA
ATOM     37  C   UNL     1      36.183  30.301  38.939  0.00  0.00    +0.000 A 
ATOM     38  N   UNL     1      37.160  31.242  39.097  0.00  0.00    +0.000 NA
ENDBRANCH  28  32
ENDBRANCH  21  25
ENDBRANCH  20  21
ENDBRANCH   1  20
TORSDOF 10
