
 OpenBabel03252504333D

 38 40  0  0  0  0  0  0  0  0999 V2000
   44.0580   35.3380   41.3200 C   0  0  0  0  0  3  0  0  0  0  0  0
   44.0440   35.6100   42.6220 C   0  0  0  0  0  3  0  0  0  0  0  0
   45.2670   35.5340   43.5230 C   0  0  0  0  0  0  0  0  0  0  0  0
   45.4830   36.5170   43.9890 H   0  0  0  0  0  0  0  0  0  0  0  0
   46.1080   35.2700   42.8640 H   0  0  0  0  0  0  0  0  0  0  0  0
   44.9850   34.5900   44.4930 O   0  0  0  0  0  0  0  0  0  0  0  0
   45.6130   32.4300   43.0720 O   0  0  0  0  0  0  0  0  0  0  0  0
   45.9720   33.2340   44.3010 P   0  0  1  0  0  0  0  0  0  0  0  0
   47.5990   33.7150   44.1240 O   0  0  0  0  0  0  0  0  0  0  0  0
   47.6880   34.4510   43.4660 H   0  0  0  0  0  0  0  0  0  0  0  0
   45.8920   32.2600   45.6750 O   0  0  0  0  0  0  0  0  0  0  0  0
   46.2010   32.9530   46.8300 C   0  0  0  0  0  0  0  0  0  0  0  0
   47.0750   32.3090   47.8570 C   0  0  0  0  0  0  0  0  0  0  0  0
   45.5770   32.4090   48.0940 C   0  0  0  0  0  0  0  0  0  0  0  0
   46.3100   34.0500   46.7320 H   0  0  0  0  0  0  0  0  0  0  0  0
   47.5010   31.3030   47.6420 H   0  0  0  0  0  0  0  0  0  0  0  0
   47.6570   32.9850   48.5130 H   0  0  0  0  0  0  0  0  0  0  0  0
   45.0290   31.4490   48.0580 H   0  0  0  0  0  0  0  0  0  0  0  0
   45.1950   33.1400   48.8370 H   0  0  0  0  0  0  0  0  0  0  0  0
   42.8530   35.4540   40.6520 O   0  0  0  0  0  0  0  0  0  0  0  0
   41.6220   35.6450   41.1830 C   0  0  0  0  0  0  0  0  0  0  0  0
   41.5340   35.7860   42.2850 H   0  0  0  0  0  0  0  0  0  0  0  0
   41.1760   36.5960   40.7670 H   0  0  0  0  0  0  0  0  0  0  0  0
   41.0770   33.2810   41.2760 C   0  0  0  0  0  0  0  0  0  0  0  0
   40.6440   34.5530   40.8840 C   0  0  0  0  0  0  0  0  0  0  0  0
   39.4270   34.6870   40.3170 C   0  0  0  0  0  0  0  0  0  0  0  0
   38.7140   33.5680   40.1720 N   0  0  0  0  0  0  0  0  0  0  0  0
   39.1010   32.3490   40.5370 C   0  0  0  0  0  0  0  0  0  0  0  0
   40.3540   32.1680   41.1270 N   0  0  0  0  0  0  0  0  0  0  0  0
   42.0400   33.1060   41.7350 H   0  0  0  0  0  0  0  0  0  0  0  0
   39.1310   35.6730   40.0280 H   0  0  0  0  0  0  0  0  0  0  0  0
   38.2750   31.1580   40.3540 C   0  0  0  0  0  0  0  0  0  0  0  0
   38.4010   30.4860   39.1560 C   0  0  0  0  0  3  0  0  0  0  0  0
   37.5970   29.3480   39.0100 C   0  0  0  0  0  0  0  0  0  0  0  0
   37.7040   28.8280   38.0660 H   0  0  0  0  0  0  0  0  0  0  0  0
   36.7540   28.9300   39.9700 N   0  0  0  0  0  0  0  0  0  0  0  0
   36.6650   29.6170   41.1220 C   0  0  0  0  0  3  0  0  0  0  0  0
   37.4290   30.7340   41.3110 N   0  0  0  0  0  0  0  0  0  0  0  0
  1  2  2  0  0  0  0
  2  3  1  0  0  0  0
  3  4  1  0  0  0  0
  3  6  1  0  0  0  0
  5  3  1  0  0  0  0
  8  7  2  6  0  0  0
  8  6  1  0  0  0  0
  8 11  1  0  0  0  0
  9  8  1  0  0  0  0
 10  9  1  0  0  0  0
 11 12  1  0  0  0  0
 12 13  1  0  0  0  0
 12 14  1  0  0  0  0
 13 14  1  0  0  0  0
 13 17  1  0  0  0  0
 14 19  1  0  0  0  0
 15 12  1  0  0  0  0
 16 13  1  0  0  0  0
 18 14  1  0  0  0  0
 20 21  1  0  0  0  0
 20  1  1  0  0  0  0
 21 22  1  0  0  0  0
 23 21  1  0  0  0  0
 24 30  1  0  0  0  0
 25 21  1  0  0  0  0
 25 24  2  0  0  0  0
 26 25  1  0  0  0  0
 27 26  2  0  0  0  0
 27 28  1  0  0  0  0
 28 29  2  0  0  0  0
 29 24  1  0  0  0  0
 31 26  1  0  0  0  0
 32 28  1  0  0  0  0
 32 38  1  0  0  0  0
 33 32  2  0  0  0  0
 34 33  1  0  0  0  0
 34 36  2  0  0  0  0
 35 34  1  0  0  0  0
 36 37  1  0  0  0  0
 37 38  2  0  0  0  0
M  END
>  <minimizedAffinity>
-5.02612305

>  <minimizedRMSD>
0.811379552

$$$$
