
 OpenBabel03252507273D

 25 27  0  0  0  0  0  0  0  0999 V2000
   37.4780   30.5000   40.8330 C   0  0  0  0  0  0  0  0  0  0  0  0
   36.1320   30.4050   40.4730 C   0  0  0  0  0  0  0  0  0  0  0  0
   35.4720   29.1730   40.6920 C   0  0  0  0  0  0  0  0  0  0  0  0
   36.1930   28.1430   41.2470 N   0  0  0  0  0  0  0  0  0  0  0  0
   37.4980   28.2990   41.5750 C   0  0  0  0  0  0  0  0  0  0  0  0
   38.1300   29.4490   41.3740 N   0  0  0  0  0  0  0  0  0  0  0  0
   35.5730   31.2240   40.0360 H   0  0  0  0  0  0  0  0  0  0  0  0
   34.4320   29.0270   40.4390 H   0  0  0  0  0  0  0  0  0  0  0  0
   38.2070   27.1620   42.1600 C   0  0  0  0  0  0  0  0  0  0  0  0
   39.2210   27.3540   43.0640 C   0  0  0  0  0  0  0  0  0  0  0  0
   39.9580   26.3700   43.6800 C   0  0  0  0  0  0  0  0  0  0  0  0
   39.5810   25.0890   43.2990 C   0  0  0  0  0  0  0  0  0  0  0  0
   38.5590   24.8530   42.3870 C   0  0  0  0  0  0  0  0  0  0  0  0
   37.8810   25.9070   41.8260 N   0  0  0  0  0  0  0  0  0  0  0  0
   39.4560   28.4000   43.3100 H   0  0  0  0  0  0  0  0  0  0  0  0
   40.7490   26.5760   44.3860 H   0  0  0  0  0  0  0  0  0  0  0  0
   40.1000   24.2320   43.7260 H   0  0  0  0  0  0  0  0  0  0  0  0
   38.2650   23.8550   42.0910 H   0  0  0  0  0  0  0  0  0  0  0  0
   38.1400   31.7660   40.6030 C   0  0  0  0  0  0  0  0  0  0  0  0
   37.4600   32.8560   40.1040 C   0  0  0  0  0  3  0  0  0  0  0  0
   38.1730   34.0190   39.9170 C   0  0  0  0  0  0  0  0  0  0  0  0
   37.6660   34.9040   39.5220 H   0  0  0  0  0  0  0  0  0  0  0  0
   39.4990   34.1610   40.1930 N   0  0  0  0  0  0  0  0  0  0  0  0
   40.1070   33.0520   40.6810 C   0  0  0  0  0  3  0  0  0  0  0  0
   39.4300   31.9210   40.8660 N   0  0  0  0  0  0  0  0  0  0  0  0
  1  6  1  0  0  0  0
  2  3  1  0  0  0  0
  2  1  2  0  0  0  0
  3  4  2  0  0  0  0
  4  5  1  0  0  0  0
  5  9  1  0  0  0  0
  6  5  2  0  0  0  0
  7  2  1  0  0  0  0
  8  3  1  0  0  0  0
  9 10  1  0  0  0  0
 10 15  1  0  0  0  0
 10 11  2  0  0  0  0
 11 16  1  0  0  0  0
 12 11  1  0  0  0  0
 12 17  1  0  0  0  0
 13 12  2  0  0  0  0
 14  9  2  0  0  0  0
 14 13  1  0  0  0  0
 18 13  1  0  0  0  0
 19  1  1  0  0  0  0
 19 25  1  0  0  0  0
 20 19  2  0  0  0  0
 21 20  1  0  0  0  0
 21 23  2  0  0  0  0
 22 21  1  0  0  0  0
 23 24  1  0  0  0  0
 24 25  2  0  0  0  0
M  END
>  <minimizedAffinity>
-5.16910887

$$$$

 OpenBabel03252507273D

 25 27  0  0  0  0  0  0  0  0999 V2000
   37.5290   28.1700   41.6260 C   0  0  0  0  0  0  0  0  0  0  0  0
   36.1970   27.9030   41.2970 C   0  0  0  0  0  0  0  0  0  0  0  0
   35.4340   28.9470   40.7250 C   0  0  0  0  0  0  0  0  0  0  0  0
   36.0450   30.1610   40.5260 N   0  0  0  0  0  0  0  0  0  0  0  0
   37.3420   30.3570   40.8670 C   0  0  0  0  0  0  0  0  0  0  0  0
   38.0700   29.3870   41.4050 N   0  0  0  0  0  0  0  0  0  0  0  0
   35.7260   26.9410   41.4580 H   0  0  0  0  0  0  0  0  0  0  0  0
   34.3980   28.8130   40.4450 H   0  0  0  0  0  0  0  0  0  0  0  0
   37.9300   31.6740   40.6290 C   0  0  0  0  0  0  0  0  0  0  0  0
   37.2390   32.6410   39.9420 C   0  0  0  0  0  0  0  0  0  0  0  0
   37.6830   33.9090   39.6560 C   0  0  0  0  0  0  0  0  0  0  0  0
   38.9600   34.1610   40.1410 C   0  0  0  0  0  0  0  0  0  0  0  0
   39.6920   33.2090   40.8400 C   0  0  0  0  0  0  0  0  0  0  0  0
   39.1570   31.9670   41.0750 N   0  0  0  0  0  0  0  0  0  0  0  0
   36.2340   32.3580   39.5920 H   0  0  0  0  0  0  0  0  0  0  0  0
   37.0970   34.6340   39.1090 H   0  0  0  0  0  0  0  0  0  0  0  0
   39.4120   35.1370   39.9700 H   0  0  0  0  0  0  0  0  0  0  0  0
   40.6870   33.4050   41.2180 H   0  0  0  0  0  0  0  0  0  0  0  0
   38.2970   27.0930   42.2100 C   0  0  0  0  0  0  0  0  0  0  0  0
   39.2470   27.3270   43.1820 C   0  0  0  0  0  3  0  0  0  0  0  0
   39.9280   26.2390   43.6790 C   0  0  0  0  0  0  0  0  0  0  0  0
   40.6900   26.3870   44.4510 H   0  0  0  0  0  0  0  0  0  0  0  0
   39.7250   24.9540   43.2770 N   0  0  0  0  0  0  0  0  0  0  0  0
   38.7780   24.7940   42.3210 C   0  0  0  0  0  3  0  0  0  0  0  0
   38.1120   25.8360   41.8300 N   0  0  0  0  0  0  0  0  0  0  0  0
  1 19  1  0  0  0  0
  2  7  1  0  0  0  0
  2  1  2  0  0  0  0
  3  2  1  0  0  0  0
  4  3  2  0  0  0  0
  4  5  1  0  0  0  0
  5  6  2  0  0  0  0
  6  1  1  0  0  0  0
  8  3  1  0  0  0  0
  9  5  1  0  0  0  0
  9 14  1  0  0  0  0
 10  9  2  0  0  0  0
 11 10  1  0  0  0  0
 11 12  2  0  0  0  0
 12 13  1  0  0  0  0
 13 14  2  0  0  0  0
 13 18  1  0  0  0  0
 15 10  1  0  0  0  0
 16 11  1  0  0  0  0
 17 12  1  0  0  0  0
 19 20  1  0  0  0  0
 20 21  2  0  0  0  0
 21 22  1  0  0  0  0
 23 21  1  0  0  0  0
 24 23  2  0  0  0  0
 25 19  2  0  0  0  0
 25 24  1  0  0  0  0
M  END
>  <minimizedAffinity>
-5.12923193

$$$$

 OpenBabel03252507273D

 25 27  0  0  0  0  0  0  0  0999 V2000
   37.1720   27.1850   41.4940 C   0  0  0  0  0  0  0  0  0  0  0  0
   37.2570   27.0000   42.8770 C   0  0  0  0  0  0  0  0  0  0  0  0
   37.5540   28.1260   43.6800 C   0  0  0  0  0  0  0  0  0  0  0  0
   37.7410   29.3350   43.0540 N   0  0  0  0  0  0  0  0  0  0  0  0
   37.6450   29.4490   41.7070 C   0  0  0  0  0  0  0  0  0  0  0  0
   37.3680   28.4010   40.9410 N   0  0  0  0  0  0  0  0  0  0  0  0
   37.1070   26.0420   43.3600 H   0  0  0  0  0  0  0  0  0  0  0  0
   37.6350   28.0580   44.7550 H   0  0  0  0  0  0  0  0  0  0  0  0
   37.8570   30.7650   41.1060 C   0  0  0  0  0  0  0  0  0  0  0  0
   36.9450   31.2930   40.2280 C   0  0  0  0  0  0  0  0  0  0  0  0
   37.0320   32.5130   39.6000 C   0  0  0  0  0  0  0  0  0  0  0  0
   38.1810   33.2170   39.9380 C   0  0  0  0  0  0  0  0  0  0  0  0
   39.1290   32.7160   40.8210 C   0  0  0  0  0  0  0  0  0  0  0  0
   38.9490   31.4830   41.3980 N   0  0  0  0  0  0  0  0  0  0  0  0
   36.0630   30.6690   40.0160 H   0  0  0  0  0  0  0  0  0  0  0  0
   36.2840   32.8830   38.9160 H   0  0  0  0  0  0  0  0  0  0  0  0
   38.3530   34.1970   39.4960 H   0  0  0  0  0  0  0  0  0  0  0  0
   40.0240   33.2640   41.0840 H   0  0  0  0  0  0  0  0  0  0  0  0
   36.8670   26.0240   40.6870 C   0  0  0  0  0  0  0  0  0  0  0  0
   36.9090   24.7490   41.2090 C   0  0  0  0  0  3  0  0  0  0  0  0
   36.6030   23.7060   40.3640 C   0  0  0  0  0  0  0  0  0  0  0  0
   36.6260   22.6810   40.7440 H   0  0  0  0  0  0  0  0  0  0  0  0
   36.2630   23.8520   39.0530 N   0  0  0  0  0  0  0  0  0  0  0  0
   36.2410   25.1310   38.6040 C   0  0  0  0  0  3  0  0  0  0  0  0
   36.5350   26.1490   39.4090 N   0  0  0  0  0  0  0  0  0  0  0  0
  1  2  1  0  0  0  0
  2  7  1  0  0  0  0
  2  3  2  0  0  0  0
  3  8  1  0  0  0  0
  4  3  1  0  0  0  0
  5  4  2  0  0  0  0
  6  1  2  0  0  0  0
  6  5  1  0  0  0  0
  9 14  1  0  0  0  0
  9  5  1  0  0  0  0
 10  9  2  0  0  0  0
 11 12  2  0  0  0  0
 11 10  1  0  0  0  0
 12 13  1  0  0  0  0
 13 18  1  0  0  0  0
 13 14  2  0  0  0  0
 15 10  1  0  0  0  0
 16 11  1  0  0  0  0
 17 12  1  0  0  0  0
 19 20  1  0  0  0  0
 19  1  1  0  0  0  0
 21 22  1  0  0  0  0
 21 20  2  0  0  0  0
 23 21  1  0  0  0  0
 24 23  2  0  0  0  0
 24 25  1  0  0  0  0
 25 19  2  0  0  0  0
M  END
>  <minimizedAffinity>
-4.96625376

$$$$

 OpenBabel03252507273D

 25 27  0  0  0  0  0  0  0  0999 V2000
   37.8360   29.4630   41.7240 C   0  0  0  0  0  0  0  0  0  0  0  0
   38.1260   29.2860   43.0790 C   0  0  0  0  0  0  0  0  0  0  0  0
   37.9850   27.9890   43.6240 C   0  0  0  0  0  0  0  0  0  0  0  0
   37.5710   26.9790   42.7900 N   0  0  0  0  0  0  0  0  0  0  0  0
   37.3040   27.2150   41.4820 C   0  0  0  0  0  0  0  0  0  0  0  0
   37.4320   28.4270   40.9570 N   0  0  0  0  0  0  0  0  0  0  0  0
   38.4520   30.0910   43.7280 H   0  0  0  0  0  0  0  0  0  0  0  0
   38.1920   27.7780   44.6640 H   0  0  0  0  0  0  0  0  0  0  0  0
   36.8670   26.0940   40.6510 C   0  0  0  0  0  0  0  0  0  0  0  0
   36.8840   24.8100   41.1330 C   0  0  0  0  0  0  0  0  0  0  0  0
   36.5010   23.6800   40.4520 C   0  0  0  0  0  0  0  0  0  0  0  0
   36.0670   23.9460   39.1590 C   0  0  0  0  0  0  0  0  0  0  0  0
   36.0350   25.2320   38.6330 C   0  0  0  0  0  0  0  0  0  0  0  0
   36.4410   26.2970   39.3980 N   0  0  0  0  0  0  0  0  0  0  0  0
   37.2420   24.6880   42.1670 H   0  0  0  0  0  0  0  0  0  0  0  0
   36.5340   22.6890   40.8790 H   0  0  0  0  0  0  0  0  0  0  0  0
   35.7400   23.1210   38.5270 H   0  0  0  0  0  0  0  0  0  0  0  0
   35.6970   25.4390   37.6270 H   0  0  0  0  0  0  0  0  0  0  0  0
   37.9850   30.7950   41.1810 C   0  0  0  0  0  0  0  0  0  0  0  0
   36.9980   31.3780   40.4140 C   0  0  0  0  0  3  0  0  0  0  0  0
   37.2290   32.6490   39.9410 C   0  0  0  0  0  0  0  0  0  0  0  0
   36.4680   33.1430   39.3290 H   0  0  0  0  0  0  0  0  0  0  0  0
   38.3630   33.3660   40.1800 N   0  0  0  0  0  0  0  0  0  0  0  0
   39.2920   32.7350   40.9400 C   0  0  0  0  0  3  0  0  0  0  0  0
   39.0820   31.5060   41.4040 N   0  0  0  0  0  0  0  0  0  0  0  0
  1  2  1  0  0  0  0
  2  3  2  0  0  0  0
  2  7  1  0  0  0  0
  3  8  1  0  0  0  0
  4  3  1  0  0  0  0
  5  4  2  0  0  0  0
  6  5  1  0  0  0  0
  6  1  2  0  0  0  0
  9 10  1  0  0  0  0
  9  5  1  0  0  0  0
 10 15  1  0  0  0  0
 11 16  1  0  0  0  0
 11 10  2  0  0  0  0
 12 11  1  0  0  0  0
 13 12  2  0  0  0  0
 13 14  1  0  0  0  0
 14  9  2  0  0  0  0
 17 12  1  0  0  0  0
 18 13  1  0  0  0  0
 19 25  1  0  0  0  0
 19  1  1  0  0  0  0
 20 19  2  0  0  0  0
 21 23  2  0  0  0  0
 21 20  1  0  0  0  0
 22 21  1  0  0  0  0
 23 24  1  0  0  0  0
 24 25  2  0  0  0  0
M  END
>  <minimizedAffinity>
-4.92645121

$$$$

 OpenBabel03252507273D

 25 27  0  0  0  0  0  0  0  0999 V2000
   38.8680   31.3910   38.8760 C   0  0  0  0  0  0  0  0  0  0  0  0
   37.8000   31.3540   37.9760 C   0  0  0  0  0  0  0  0  0  0  0  0
   36.7210   30.4840   38.2620 C   0  0  0  0  0  0  0  0  0  0  0  0
   36.7870   29.7280   39.4070 N   0  0  0  0  0  0  0  0  0  0  0  0
   37.8520   29.8100   40.2400 C   0  0  0  0  0  0  0  0  0  0  0  0
   38.8710   30.6210   39.9840 N   0  0  0  0  0  0  0  0  0  0  0  0
   37.7590   31.9550   37.0750 H   0  0  0  0  0  0  0  0  0  0  0  0
   35.8620   30.4030   37.6110 H   0  0  0  0  0  0  0  0  0  0  0  0
   37.8580   28.9760   41.4420 C   0  0  0  0  0  0  0  0  0  0  0  0
   36.7060   28.3830   41.8930 C   0  0  0  0  0  0  0  0  0  0  0  0
   36.5850   27.5830   43.0040 C   0  0  0  0  0  0  0  0  0  0  0  0
   37.7860   27.4050   43.6800 C   0  0  0  0  0  0  0  0  0  0  0  0
   38.9730   27.9890   43.2550 C   0  0  0  0  0  0  0  0  0  0  0  0
   38.9890   28.7740   42.1290 N   0  0  0  0  0  0  0  0  0  0  0  0
   35.8000   28.5760   41.2990 H   0  0  0  0  0  0  0  0  0  0  0  0
   35.6510   27.1390   43.3170 H   0  0  0  0  0  0  0  0  0  0  0  0
   37.8050   26.7880   44.5770 H   0  0  0  0  0  0  0  0  0  0  0  0
   39.9080   27.8500   43.7810 H   0  0  0  0  0  0  0  0  0  0  0  0
   39.9630   32.2850   38.5700 C   0  0  0  0  0  0  0  0  0  0  0  0
   40.7220   32.1340   37.4280 C   0  0  0  0  0  3  0  0  0  0  0  0
   41.7430   33.0330   37.2210 C   0  0  0  0  0  0  0  0  0  0  0  0
   42.3660   32.9440   36.3260 H   0  0  0  0  0  0  0  0  0  0  0  0
   42.0510   34.0560   38.0660 N   0  0  0  0  0  0  0  0  0  0  0  0
   41.2670   34.1470   39.1680 C   0  0  0  0  0  3  0  0  0  0  0  0
   40.2760   33.2860   39.3810 N   0  0  0  0  0  0  0  0  0  0  0  0
  1  6  1  0  0  0  0
  2  3  1  0  0  0  0
  2  1  2  0  0  0  0
  3  4  2  0  0  0  0
  4  5  1  0  0  0  0
  5  9  1  0  0  0  0
  6  5  2  0  0  0  0
  7  2  1  0  0  0  0
  8  3  1  0  0  0  0
  9 10  2  0  0  0  0
  9 14  1  0  0  0  0
 10 11  1  0  0  0  0
 11 16  1  0  0  0  0
 11 12  2  0  0  0  0
 12 17  1  0  0  0  0
 13 12  1  0  0  0  0
 13 18  1  0  0  0  0
 14 13  2  0  0  0  0
 15 10  1  0  0  0  0
 19  1  1  0  0  0  0
 19 25  1  0  0  0  0
 20 19  2  0  0  0  0
 21 20  1  0  0  0  0
 21 23  2  0  0  0  0
 22 21  1  0  0  0  0
 23 24  1  0  0  0  0
 24 25  2  0  0  0  0
M  END
>  <minimizedAffinity>
-4.82356167

$$$$

 OpenBabel03252507273D

 25 27  0  0  0  0  0  0  0  0999 V2000
   37.7650   26.9350   41.6120 C   0  0  0  0  0  0  0  0  0  0  0  0
   37.6190   27.0930   42.9930 C   0  0  0  0  0  0  0  0  0  0  0  0
   37.4050   28.3990   43.4930 C   0  0  0  0  0  0  0  0  0  0  0  0
   37.3530   29.4350   42.5930 N   0  0  0  0  0  0  0  0  0  0  0  0
   37.5030   29.2170   41.2640 C   0  0  0  0  0  0  0  0  0  0  0  0
   37.7050   27.9970   40.7800 N   0  0  0  0  0  0  0  0  0  0  0  0
   37.6610   26.2680   43.6940 H   0  0  0  0  0  0  0  0  0  0  0  0
   37.2830   28.5950   44.5480 H   0  0  0  0  0  0  0  0  0  0  0  0
   37.4380   30.3650   40.3610 C   0  0  0  0  0  0  0  0  0  0  0  0
   37.3720   30.1900   39.0020 C   0  0  0  0  0  0  0  0  0  0  0  0
   37.3080   31.1840   38.0560 C   0  0  0  0  0  0  0  0  0  0  0  0
   37.3160   32.4600   38.6060 C   0  0  0  0  0  0  0  0  0  0  0  0
   37.3830   32.6790   39.9760 C   0  0  0  0  0  0  0  0  0  0  0  0
   37.4440   31.6150   40.8410 N   0  0  0  0  0  0  0  0  0  0  0  0
   37.3700   29.1470   38.6500 H   0  0  0  0  0  0  0  0  0  0  0  0
   37.2560   30.9920   36.9940 H   0  0  0  0  0  0  0  0  0  0  0  0
   37.2700   33.3250   37.9460 H   0  0  0  0  0  0  0  0  0  0  0  0
   37.3900   33.6730   40.4050 H   0  0  0  0  0  0  0  0  0  0  0  0
   37.9840   25.5950   41.1160 C   0  0  0  0  0  0  0  0  0  0  0  0
   37.1950   24.5370   41.5180 C   0  0  0  0  0  3  0  0  0  0  0  0
   37.4780   23.2980   40.9920 C   0  0  0  0  0  0  0  0  0  0  0  0
   36.8740   22.4360   41.2890 H   0  0  0  0  0  0  0  0  0  0  0  0
   38.4810   23.0490   40.1040 N   0  0  0  0  0  0  0  0  0  0  0  0
   39.2170   24.1310   39.7510 C   0  0  0  0  0  3  0  0  0  0  0  0
   38.9550   25.3350   40.2510 N   0  0  0  0  0  0  0  0  0  0  0  0
  1  2  1  0  0  0  0
  2  3  2  0  0  0  0
  2  7  1  0  0  0  0
  3  8  1  0  0  0  0
  4  3  1  0  0  0  0
  5  4  2  0  0  0  0
  6  5  1  0  0  0  0
  6  1  2  0  0  0  0
  9 14  1  0  0  0  0
  9  5  1  0  0  0  0
 10  9  2  0  0  0  0
 11 12  2  0  0  0  0
 11 10  1  0  0  0  0
 12 13  1  0  0  0  0
 13 18  1  0  0  0  0
 13 14  2  0  0  0  0
 15 10  1  0  0  0  0
 16 11  1  0  0  0  0
 17 12  1  0  0  0  0
 19 20  1  0  0  0  0
 19  1  1  0  0  0  0
 21 22  1  0  0  0  0
 21 20  2  0  0  0  0
 23 21  1  0  0  0  0
 24 23  2  0  0  0  0
 24 25  1  0  0  0  0
 25 19  2  0  0  0  0
M  END
>  <minimizedAffinity>
-4.81648016

$$$$

 OpenBabel03252507273D

 25 27  0  0  0  0  0  0  0  0999 V2000
   37.3590   30.4950   39.2600 C   0  0  0  0  0  0  0  0  0  0  0  0
   36.6200   30.5750   38.0770 C   0  0  0  0  0  0  0  0  0  0  0  0
   35.9300   29.4180   37.6460 C   0  0  0  0  0  0  0  0  0  0  0  0
   36.0260   28.2840   38.4150 N   0  0  0  0  0  0  0  0  0  0  0  0
   36.7600   28.2700   39.5540 C   0  0  0  0  0  0  0  0  0  0  0  0
   37.4130   29.3480   39.9700 N   0  0  0  0  0  0  0  0  0  0  0  0
   36.5510   31.4750   37.4780 H   0  0  0  0  0  0  0  0  0  0  0  0
   35.3390   29.4070   36.7410 H   0  0  0  0  0  0  0  0  0  0  0  0
   36.8200   27.0290   40.3240 C   0  0  0  0  0  0  0  0  0  0  0  0
   37.0350   27.0510   41.6790 C   0  0  0  0  0  0  0  0  0  0  0  0
   37.1120   25.9570   42.5080 C   0  0  0  0  0  0  0  0  0  0  0  0
   36.9480   24.7520   41.8360 C   0  0  0  0  0  0  0  0  0  0  0  0
   36.7300   24.6880   40.4650 C   0  0  0  0  0  0  0  0  0  0  0  0
   36.6690   25.8420   39.7240 N   0  0  0  0  0  0  0  0  0  0  0  0
   37.1550   28.0470   42.1320 H   0  0  0  0  0  0  0  0  0  0  0  0
   37.2840   26.0300   43.5720 H   0  0  0  0  0  0  0  0  0  0  0  0
   36.9920   23.8200   42.3970 H   0  0  0  0  0  0  0  0  0  0  0  0
   36.6020   23.7500   39.9420 H   0  0  0  0  0  0  0  0  0  0  0  0
   38.0590   31.6850   39.6880 C   0  0  0  0  0  0  0  0  0  0  0  0
   37.4520   32.9230   39.6810 C   0  0  0  0  0  3  0  0  0  0  0  0
   38.1970   33.9990   40.1050 C   0  0  0  0  0  0  0  0  0  0  0  0
   37.7480   34.9970   40.1130 H   0  0  0  0  0  0  0  0  0  0  0  0
   39.4890   33.9210   40.5310 N   0  0  0  0  0  0  0  0  0  0  0  0
   40.0250   32.6760   40.5140 C   0  0  0  0  0  3  0  0  0  0  0  0
   39.3160   31.6260   40.1050 N   0  0  0  0  0  0  0  0  0  0  0  0
  1 19  1  0  0  0  0
  1  6  1  0  0  0  0
  2  1  2  0  0  0  0
  3  2  1  0  0  0  0
  3  4  2  0  0  0  0
  4  5  1  0  0  0  0
  5  6  2  0  0  0  0
  5  9  1  0  0  0  0
  7  2  1  0  0  0  0
  8  3  1  0  0  0  0
  9 10  1  0  0  0  0
 10 15  1  0  0  0  0
 10 11  2  0  0  0  0
 11 16  1  0  0  0  0
 12 17  1  0  0  0  0
 12 11  1  0  0  0  0
 13 12  2  0  0  0  0
 14  9  2  0  0  0  0
 14 13  1  0  0  0  0
 18 13  1  0  0  0  0
 19 25  1  0  0  0  0
 20 19  2  0  0  0  0
 20 21  1  0  0  0  0
 21 22  1  0  0  0  0
 21 23  2  0  0  0  0
 24 23  1  0  0  0  0
 25 24  2  0  0  0  0
M  END
>  <minimizedAffinity>
-4.76713657

$$$$

 OpenBabel03252507273D

 25 27  0  0  0  0  0  0  0  0999 V2000
   39.3450   28.2160   42.6430 C   0  0  0  0  0  0  0  0  0  0  0  0
   38.1420   27.5640   42.9270 C   0  0  0  0  0  0  0  0  0  0  0  0
   36.9360   28.2180   42.5840 C   0  0  0  0  0  0  0  0  0  0  0  0
   37.0170   29.4550   41.9910 N   0  0  0  0  0  0  0  0  0  0  0  0
   38.2160   30.0350   41.7420 C   0  0  0  0  0  0  0  0  0  0  0  0
   39.3560   29.4330   42.0590 N   0  0  0  0  0  0  0  0  0  0  0  0
   38.0900   26.5880   43.3950 H   0  0  0  0  0  0  0  0  0  0  0  0
   35.9690   27.7740   42.7740 H   0  0  0  0  0  0  0  0  0  0  0  0
   38.2300   31.3530   41.1090 C   0  0  0  0  0  0  0  0  0  0  0  0
   37.2280   31.7350   40.2540 C   0  0  0  0  0  0  0  0  0  0  0  0
   37.1310   32.9400   39.6010 C   0  0  0  0  0  0  0  0  0  0  0  0
   38.1850   33.7990   39.8860 C   0  0  0  0  0  0  0  0  0  0  0  0
   39.2190   33.4500   40.7460 C   0  0  0  0  0  0  0  0  0  0  0  0
   39.2240   32.2170   41.3500 N   0  0  0  0  0  0  0  0  0  0  0  0
   36.4320   30.9940   40.0830 H   0  0  0  0  0  0  0  0  0  0  0  0
   36.3180   33.1920   38.9360 H   0  0  0  0  0  0  0  0  0  0  0  0
   38.2100   34.7830   39.4210 H   0  0  0  0  0  0  0  0  0  0  0  0
   40.0400   34.1190   40.9680 H   0  0  0  0  0  0  0  0  0  0  0  0
   40.5700   27.5350   43.0000 C   0  0  0  0  0  0  0  0  0  0  0  0
   41.7170   28.2300   43.3200 C   0  0  0  0  0  3  0  0  0  0  0  0
   42.8340   27.4960   43.6470 C   0  0  0  0  0  0  0  0  0  0  0  0
   43.7620   28.0140   43.9060 H   0  0  0  0  0  0  0  0  0  0  0  0
   42.8800   26.1340   43.6750 N   0  0  0  0  0  0  0  0  0  0  0  0
   41.7190   25.5140   43.3510 C   0  0  0  0  0  3  0  0  0  0  0  0
   40.6310   26.2100   43.0330 N   0  0  0  0  0  0  0  0  0  0  0  0
  1  2  1  0  0  0  0
  1 19  1  0  0  0  0
  2  7  1  0  0  0  0
  3  8  1  0  0  0  0
  3  2  2  0  0  0  0
  4  3  1  0  0  0  0
  5  4  2  0  0  0  0
  5  6  1  0  0  0  0
  6  1  2  0  0  0  0
  9 14  1  0  0  0  0
  9  5  1  0  0  0  0
 10  9  2  0  0  0  0
 11 12  2  0  0  0  0
 11 10  1  0  0  0  0
 12 13  1  0  0  0  0
 13 18  1  0  0  0  0
 13 14  2  0  0  0  0
 15 10  1  0  0  0  0
 16 11  1  0  0  0  0
 17 12  1  0  0  0  0
 19 25  2  0  0  0  0
 19 20  1  0  0  0  0
 20 21  2  0  0  0  0
 21 23  1  0  0  0  0
 21 22  1  0  0  0  0
 24 23  2  0  0  0  0
 25 24  1  0  0  0  0
M  END
>  <minimizedAffinity>
-4.71528864

$$$$

 OpenBabel03252507273D

 25 27  0  0  0  0  0  0  0  0999 V2000
   38.3000   30.2210   41.1830 C   0  0  0  0  0  0  0  0  0  0  0  0
   37.1970   31.0380   40.9240 C   0  0  0  0  0  0  0  0  0  0  0  0
   35.9540   30.4130   40.6700 C   0  0  0  0  0  0  0  0  0  0  0  0
   35.9030   29.0410   40.6920 N   0  0  0  0  0  0  0  0  0  0  0  0
   37.0100   28.3030   40.9500 C   0  0  0  0  0  0  0  0  0  0  0  0
   38.1830   28.8750   41.1900 N   0  0  0  0  0  0  0  0  0  0  0  0
   37.2490   32.1200   40.9090 H   0  0  0  0  0  0  0  0  0  0  0  0
   35.0590   30.9820   40.4620 H   0  0  0  0  0  0  0  0  0  0  0  0
   36.8860   26.8460   40.9580 C   0  0  0  0  0  0  0  0  0  0  0  0
   37.0910   26.1280   42.1090 C   0  0  0  0  0  0  0  0  0  0  0  0
   37.0050   24.7630   42.2420 C   0  0  0  0  0  0  0  0  0  0  0  0
   36.6750   24.1210   41.0550 C   0  0  0  0  0  0  0  0  0  0  0  0
   36.4600   24.8120   39.8690 C   0  0  0  0  0  0  0  0  0  0  0  0
   36.5710   26.1800   39.8410 N   0  0  0  0  0  0  0  0  0  0  0  0
   37.3490   26.7150   43.0040 H   0  0  0  0  0  0  0  0  0  0  0  0
   37.1760   24.2450   43.1740 H   0  0  0  0  0  0  0  0  0  0  0  0
   36.5800   23.0360   41.0450 H   0  0  0  0  0  0  0  0  0  0  0  0
   36.2030   24.3120   38.9450 H   0  0  0  0  0  0  0  0  0  0  0  0
   39.5650   30.8730   41.4410 C   0  0  0  0  0  0  0  0  0  0  0  0
   40.3610   30.5110   42.5070 C   0  0  0  0  0  3  0  0  0  0  0  0
   41.5470   31.1890   42.6730 C   0  0  0  0  0  0  0  0  0  0  0  0
   42.2040   30.9290   43.5080 H   0  0  0  0  0  0  0  0  0  0  0  0
   41.9840   32.1880   41.8560 N   0  0  0  0  0  0  0  0  0  0  0  0
   41.1540   32.4940   40.8280 C   0  0  0  0  0  3  0  0  0  0  0  0
   40.0040   31.8470   40.6560 N   0  0  0  0  0  0  0  0  0  0  0  0
  1  6  1  0  0  0  0
  1 19  1  0  0  0  0
  2  1  2  0  0  0  0
  3  4  2  0  0  0  0
  3  2  1  0  0  0  0
  4  5  1  0  0  0  0
  5  9  1  0  0  0  0
  5  6  2  0  0  0  0
  7  2  1  0  0  0  0
  8  3  1  0  0  0  0
  9 10  1  0  0  0  0
 10 11  2  0  0  0  0
 10 15  1  0  0  0  0
 11 16  1  0  0  0  0
 12 11  1  0  0  0  0
 13 12  2  0  0  0  0
 14 13  1  0  0  0  0
 14  9  2  0  0  0  0
 17 12  1  0  0  0  0
 18 13  1  0  0  0  0
 19 20  1  0  0  0  0
 20 21  2  0  0  0  0
 21 22  1  0  0  0  0
 23 21  1  0  0  0  0
 24 23  2  0  0  0  0
 25 24  1  0  0  0  0
 25 19  2  0  0  0  0
M  END
>  <minimizedAffinity>
-4.65330362

$$$$
