
 OpenBabel03242521283D

 33 35  0  0  1  0  0  0  0  0999 V2000
   47.9340   33.3470   42.5740 C   0  0  1  0  0  0  0  0  0  0  0  0
   46.5030   33.7360   42.2790 C   0  0  2  0  0  0  0  0  0  0  0  0
   46.4220   34.6890   41.2850 O   0  0  0  0  0  0  0  0  0  0  0  0
   46.7700   34.0510   40.1050 C   0  0  0  0  0  0  0  0  0  0  0  0
   48.2600   33.8130   40.1200 C   0  0  2  0  0  0  0  0  0  0  0  0
   48.7740   33.1700   41.3570 C   0  0  2  0  0  0  0  0  0  0  0  0
   47.8670   32.3480   43.1000 H   0  0  0  0  0  0  0  0  0  0  0  0
   46.0040   32.8050   41.9320 H   0  0  0  0  0  0  0  0  0  0  0  0
   46.2840   33.0470   40.0210 H   0  0  0  0  0  0  0  0  0  0  0  0
   46.5570   34.6760   39.2040 H   0  0  0  0  0  0  0  0  0  0  0  0
   48.5210   33.2000   39.2300 H   0  0  0  0  0  0  0  0  0  0  0  0
   49.7690   33.6490   41.5800 H   0  0  0  0  0  0  0  0  0  0  0  0
   44.5080   35.9090   44.6600 C   0  0  0  0  0  0  0  0  0  0  0  0
   45.1070   35.4530   43.4750 C   0  0  0  0  0  0  0  0  0  0  0  0
   45.8480   34.2370   43.4970 C   0  0  0  0  0  0  0  0  0  0  0  0
   45.9330   33.5830   44.6760 N   0  0  0  0  0  0  0  0  0  0  0  0
   45.3450   34.0460   45.8050 C   0  0  0  0  0  0  0  0  0  0  0  0
   44.6350   35.2030   45.7970 N   0  0  0  0  0  0  0  0  0  0  0  0
   43.9760   36.8400   44.5080 H   0  0  0  0  0  0  0  0  0  0  0  0
   45.0640   35.9440   42.5130 H   0  0  0  0  0  0  0  0  0  0  0  0
   45.4250   33.5060   46.7410 H   0  0  0  0  0  0  0  0  0  0  0  0
   48.5260   34.1980   43.5160 O   0  0  0  0  0  0  0  0  0  0  0  0
   49.2550   33.7830   44.0010 H   0  0  0  0  0  0  0  0  0  0  0  0
   48.8400   35.0710   39.9180 O   0  0  0  0  0  0  0  0  0  0  0  0
   49.4770   35.0690   39.1620 H   0  0  0  0  0  0  0  0  0  0  0  0
   49.1040   31.8110   41.1510 O   0  0  0  0  0  0  0  0  0  0  0  0
   50.4200   31.3590   41.1080 C   0  0  0  0  0  0  0  0  0  0  0  0
   51.0130   30.5820   42.0820 C   0  0  0  0  0  3  0  0  0  0  0  0
   52.3310   30.1990   41.9220 C   0  0  0  0  0  0  0  0  0  0  0  0
   52.7940   29.5930   42.6810 H   0  0  0  0  0  0  0  0  0  0  0  0
   53.0600   30.5640   40.8360 N   0  0  0  0  0  0  0  0  0  0  0  0
   52.4510   31.3220   39.9060 C   0  0  0  0  0  3  0  0  0  0  0  0
   51.1780   31.7110   40.0280 N   0  0  0  0  0  0  0  0  0  0  0  0
  1  7  1  1  0  0  0
  1 22  1  0  0  0  0
  2  8  1  6  0  0  0
  2  1  1  0  0  0  0
  2 15  1  0  0  0  0
  3  2  1  0  0  0  0
  4  5  1  0  0  0  0
  4  3  1  0  0  0  0
  5 11  1  6  0  0  0
  5  6  1  0  0  0  0
  6 12  1  1  0  0  0
  6  1  1  0  0  0  0
  9  4  1  0  0  0  0
 10  4  1  0  0  0  0
 13 18  1  0  0  0  0
 14 15  1  0  0  0  0
 14 13  2  0  0  0  0
 15 16  2  0  0  0  0
 16 17  1  0  0  0  0
 17 21  1  0  0  0  0
 18 17  2  0  0  0  0
 19 13  1  0  0  0  0
 20 14  1  0  0  0  0
 22 23  1  0  0  0  0
 24  5  1  0  0  0  0
 25 24  1  0  0  0  0
 26  6  1  0  0  0  0
 27 26  1  0  0  0  0
 27 28  1  0  0  0  0
 29 28  2  0  0  0  0
 29 30  1  0  0  0  0
 31 29  1  0  0  0  0
 32 33  1  0  0  0  0
 32 31  2  0  0  0  0
 33 27  2  0  0  0  0
M  END
>  <minimizedAffinity>
-5.36077642

>  <minimizedRMSD>
0.588588655

$$$$
