
 OpenBabel03242521293D

 33 35  0  0  1  0  0  0  0  0999 V2000
   37.3350   29.7700   41.8380 C   0  0  1  0  0  0  0  0  0  0  0  0
   37.8600   28.5950   41.0450 C   0  0  2  0  0  0  0  0  0  0  0  0
   36.8490   27.9210   40.3900 O   0  0  0  0  0  0  0  0  0  0  0  0
   36.4220   28.7570   39.3710 C   0  0  0  0  0  0  0  0  0  0  0  0
   35.6300   29.8840   39.9870 C   0  0  2  0  0  0  0  0  0  0  0  0
   36.3040   30.5700   41.1210 C   0  0  2  0  0  0  0  0  0  0  0  0
   38.2340   30.4340   42.0130 H   0  0  0  0  0  0  0  0  0  0  0  0
   38.5560   29.0260   40.2930 H   0  0  0  0  0  0  0  0  0  0  0  0
   37.2840   29.2250   38.8340 H   0  0  0  0  0  0  0  0  0  0  0  0
   35.7360   28.2400   38.6570 H   0  0  0  0  0  0  0  0  0  0  0  0
   35.3870   30.6140   39.1850 H   0  0  0  0  0  0  0  0  0  0  0  0
   35.5020   30.8120   41.8740 H   0  0  0  0  0  0  0  0  0  0  0  0
   39.0010   25.4110   42.7570 C   0  0  0  0  0  0  0  0  0  0  0  0
   38.3050   26.2670   41.8920 C   0  0  0  0  0  0  0  0  0  0  0  0
   38.5810   27.6640   41.9270 C   0  0  0  0  0  0  0  0  0  0  0  0
   39.5150   28.0900   42.8060 N   0  0  0  0  0  0  0  0  0  0  0  0
   40.1730   27.2410   43.6310 C   0  0  0  0  0  0  0  0  0  0  0  0
   39.9180   25.9080   43.6070 N   0  0  0  0  0  0  0  0  0  0  0  0
   38.7000   24.3790   42.6310 H   0  0  0  0  0  0  0  0  0  0  0  0
   37.5520   25.9690   41.1750 H   0  0  0  0  0  0  0  0  0  0  0  0
   40.9170   27.6030   44.3300 H   0  0  0  0  0  0  0  0  0  0  0  0
   36.9240   29.3940   43.1240 O   0  0  0  0  0  0  0  0  0  0  0  0
   36.9520   30.1230   43.7630 H   0  0  0  0  0  0  0  0  0  0  0  0
   34.4160   29.3120   40.3840 O   0  0  0  0  0  0  0  0  0  0  0  0
   33.6380   29.8010   40.0160 H   0  0  0  0  0  0  0  0  0  0  0  0
   36.8020   31.8410   40.7520 O   0  0  0  0  0  0  0  0  0  0  0  0
   38.0910   32.0240   40.2610 C   0  0  0  0  0  0  0  0  0  0  0  0
   38.4700   31.7890   38.9550 C   0  0  0  0  0  3  0  0  0  0  0  0
   39.7850   32.0100   38.5900 C   0  0  0  0  0  0  0  0  0  0  0  0
   40.0810   31.8270   37.5710 H   0  0  0  0  0  0  0  0  0  0  0  0
   40.7140   32.4490   39.4770 N   0  0  0  0  0  0  0  0  0  0  0  0
   40.3100   32.6680   40.7420 C   0  0  0  0  0  3  0  0  0  0  0  0
   39.0470   32.4650   41.1290 N   0  0  0  0  0  0  0  0  0  0  0  0
  1  7  1  1  0  0  0
  1 22  1  0  0  0  0
  2  8  1  6  0  0  0
  2  1  1  0  0  0  0
  2 15  1  0  0  0  0
  3  2  1  0  0  0  0
  4  5  1  0  0  0  0
  4  3  1  0  0  0  0
  5 11  1  6  0  0  0
  5 24  1  0  0  0  0
  5  6  1  0  0  0  0
  6  1  1  0  0  0  0
  6 12  1  1  0  0  0
  9  4  1  0  0  0  0
 10  4  1  0  0  0  0
 13 18  1  0  0  0  0
 14 15  1  0  0  0  0
 14 13  2  0  0  0  0
 15 16  2  0  0  0  0
 16 17  1  0  0  0  0
 17 21  1  0  0  0  0
 18 17  2  0  0  0  0
 19 13  1  0  0  0  0
 20 14  1  0  0  0  0
 22 23  1  0  0  0  0
 25 24  1  0  0  0  0
 26  6  1  0  0  0  0
 27 26  1  0  0  0  0
 27 33  1  0  0  0  0
 28 27  2  0  0  0  0
 29 28  1  0  0  0  0
 29 31  2  0  0  0  0
 30 29  1  0  0  0  0
 31 32  1  0  0  0  0
 32 33  2  0  0  0  0
M  END
>  <minimizedAffinity>
-5.62327576

$$$$

 OpenBabel03242521293D

 33 35  0  0  1  0  0  0  0  0999 V2000
   38.7820   31.6230   37.6280 C   0  0  1  0  0  0  0  0  0  0  0  0
   39.8050   31.7430   38.7350 C   0  0  2  0  0  0  0  0  0  0  0  0
   39.5410   32.8120   39.5670 O   0  0  0  0  0  0  0  0  0  0  0  0
   38.4090   32.4730   40.2900 C   0  0  0  0  0  0  0  0  0  0  0  0
   37.2180   32.5590   39.3680 C   0  0  2  0  0  0  0  0  0  0  0  0
   37.3780   31.8400   38.0770 C   0  0  2  0  0  0  0  0  0  0  0  0
   38.8700   30.5590   37.2570 H   0  0  0  0  0  0  0  0  0  0  0  0
   39.7270   30.8000   39.3190 H   0  0  0  0  0  0  0  0  0  0  0  0
   38.4560   31.4180   40.6580 H   0  0  0  0  0  0  0  0  0  0  0  0
   38.2120   33.1820   41.1300 H   0  0  0  0  0  0  0  0  0  0  0  0
   36.3290   32.1770   39.9140 H   0  0  0  0  0  0  0  0  0  0  0  0
   36.8830   32.4750   37.2890 H   0  0  0  0  0  0  0  0  0  0  0  0
   43.2920   33.0420   38.0170 C   0  0  0  0  0  0  0  0  0  0  0  0
   42.0160   32.9350   38.5880 C   0  0  0  0  0  0  0  0  0  0  0  0
   41.1560   31.8790   38.1710 C   0  0  0  0  0  0  0  0  0  0  0  0
   41.6290   31.0280   37.2340 N   0  0  0  0  0  0  0  0  0  0  0  0
   42.8660   31.1540   36.6990 C   0  0  0  0  0  0  0  0  0  0  0  0
   43.6950   32.1570   37.0890 N   0  0  0  0  0  0  0  0  0  0  0  0
   43.8430   33.8840   38.4190 H   0  0  0  0  0  0  0  0  0  0  0  0
   41.5990   33.5920   39.3380 H   0  0  0  0  0  0  0  0  0  0  0  0
   43.2270   30.4620   35.9490 H   0  0  0  0  0  0  0  0  0  0  0  0
   39.1170   32.4090   36.5170 O   0  0  0  0  0  0  0  0  0  0  0  0
   38.7340   32.0820   35.6890 H   0  0  0  0  0  0  0  0  0  0  0  0
   37.0010   33.9280   39.1670 O   0  0  0  0  0  0  0  0  0  0  0  0
   36.0710   34.1900   39.3750 H   0  0  0  0  0  0  0  0  0  0  0  0
   36.6350   30.6370   38.0430 O   0  0  0  0  0  0  0  0  0  0  0  0
   36.6030   29.7500   39.1150 C   0  0  0  0  0  0  0  0  0  0  0  0
   35.5640   29.6530   40.0180 C   0  0  0  0  0  3  0  0  0  0  0  0
   35.6510   28.7280   41.0420 C   0  0  0  0  0  0  0  0  0  0  0  0
   34.8410   28.6530   41.7480 H   0  0  0  0  0  0  0  0  0  0  0  0
   36.7270   27.9140   41.1870 N   0  0  0  0  0  0  0  0  0  0  0  0
   37.7220   28.0350   40.2880 C   0  0  0  0  0  3  0  0  0  0  0  0
   37.6710   28.9180   39.2860 N   0  0  0  0  0  0  0  0  0  0  0  0
  1  7  1  6  0  0  0
  1  6  1  0  0  0  0
  1  2  1  0  0  0  0
  2  8  1  1  0  0  0
  2  3  1  0  0  0  0
  3  4  1  0  0  0  0
  4  9  1  0  0  0  0
  4 10  1  0  0  0  0
  5 11  1  1  0  0  0
  5  4  1  0  0  0  0
  6 12  1  6  0  0  0
  6  5  1  0  0  0  0
 13 19  1  0  0  0  0
 13 14  1  0  0  0  0
 14 20  1  0  0  0  0
 15 14  2  0  0  0  0
 15  2  1  0  0  0  0
 16 15  1  0  0  0  0
 17 18  1  0  0  0  0
 17 16  2  0  0  0  0
 18 13  2  0  0  0  0
 21 17  1  0  0  0  0
 22  1  1  0  0  0  0
 23 22  1  0  0  0  0
 24  5  1  0  0  0  0
 24 25  1  0  0  0  0
 26  6  1  0  0  0  0
 26 27  1  0  0  0  0
 27 33  2  0  0  0  0
 27 28  1  0  0  0  0
 28 29  2  0  0  0  0
 29 31  1  0  0  0  0
 29 30  1  0  0  0  0
 32 31  2  0  0  0  0
 33 32  1  0  0  0  0
M  END
>  <minimizedAffinity>
-5.47149134

$$$$

 OpenBabel03242521293D

 33 35  0  0  1  0  0  0  0  0999 V2000
   39.2570   31.7960   38.1630 C   0  0  1  0  0  0  0  0  0  0  0  0
   40.1820   32.3740   39.2090 C   0  0  2  0  0  0  0  0  0  0  0  0
   39.6690   33.5260   39.7710 O   0  0  0  0  0  0  0  0  0  0  0  0
   38.5960   33.1320   40.5550 C   0  0  0  0  0  0  0  0  0  0  0  0
   37.4570   32.7570   39.6400 C   0  0  2  0  0  0  0  0  0  0  0  0
   37.8190   31.8130   38.5510 C   0  0  2  0  0  0  0  0  0  0  0  0
   39.5760   30.7170   38.0490 H   0  0  0  0  0  0  0  0  0  0  0  0
   40.2700   31.5950   39.9960 H   0  0  0  0  0  0  0  0  0  0  0  0
   38.8390   32.2230   41.1570 H   0  0  0  0  0  0  0  0  0  0  0  0
   38.2210   33.9580   41.2080 H   0  0  0  0  0  0  0  0  0  0  0  0
   36.6400   32.3330   40.2620 H   0  0  0  0  0  0  0  0  0  0  0  0
   37.2420   32.1340   37.6390 H   0  0  0  0  0  0  0  0  0  0  0  0
   43.7820   31.9800   38.0910 C   0  0  0  0  0  0  0  0  0  0  0  0
   42.5300   31.6700   38.6430 C   0  0  0  0  0  0  0  0  0  0  0  0
   41.5020   32.6560   38.6260 C   0  0  0  0  0  0  0  0  0  0  0  0
   41.7980   33.8510   38.0700 N   0  0  0  0  0  0  0  0  0  0  0  0
   43.0160   34.1240   37.5440 C   0  0  0  0  0  0  0  0  0  0  0  0
   44.0040   33.1930   37.5530 N   0  0  0  0  0  0  0  0  0  0  0  0
   44.4710   31.1480   38.1660 H   0  0  0  0  0  0  0  0  0  0  0  0
   42.2520   30.7300   39.0970 H   0  0  0  0  0  0  0  0  0  0  0  0
   43.2330   35.0890   37.1020 H   0  0  0  0  0  0  0  0  0  0  0  0
   39.4770   32.3600   36.8990 O   0  0  0  0  0  0  0  0  0  0  0  0
   39.2070   31.7810   36.1690 H   0  0  0  0  0  0  0  0  0  0  0  0
   36.9770   33.9680   39.1270 O   0  0  0  0  0  0  0  0  0  0  0  0
   36.0040   34.0710   39.2710 H   0  0  0  0  0  0  0  0  0  0  0  0
   37.3380   30.5060   38.8000 O   0  0  0  0  0  0  0  0  0  0  0  0
   36.3760   29.9000   37.9980 C   0  0  0  0  0  0  0  0  0  0  0  0
   35.2100   29.3330   38.4700 C   0  0  0  0  0  3  0  0  0  0  0  0
   34.3320   28.7600   37.5680 C   0  0  0  0  0  0  0  0  0  0  0  0
   33.4210   28.3170   37.9360 H   0  0  0  0  0  0  0  0  0  0  0  0
   34.5820   28.7370   36.2350 N   0  0  0  0  0  0  0  0  0  0  0  0
   35.7300   29.2980   35.8090 C   0  0  0  0  0  3  0  0  0  0  0  0
   36.6010   29.8610   36.6520 N   0  0  0  0  0  0  0  0  0  0  0  0
  1  7  1  6  0  0  0
  1  6  1  0  0  0  0
  1  2  1  0  0  0  0
  2  3  1  0  0  0  0
  2  8  1  1  0  0  0
  3  4  1  0  0  0  0
  4  9  1  0  0  0  0
  4 10  1  0  0  0  0
  5 11  1  1  0  0  0
  5  4  1  0  0  0  0
  6 12  1  6  0  0  0
  6 26  1  0  0  0  0
  6  5  1  0  0  0  0
 13 19  1  0  0  0  0
 13 14  1  0  0  0  0
 14 20  1  0  0  0  0
 15 14  2  0  0  0  0
 15  2  1  0  0  0  0
 16 15  1  0  0  0  0
 17 18  1  0  0  0  0
 17 16  2  0  0  0  0
 18 13  2  0  0  0  0
 21 17  1  0  0  0  0
 22  1  1  0  0  0  0
 23 22  1  0  0  0  0
 24 25  1  0  0  0  0
 24  5  1  0  0  0  0
 27 28  1  0  0  0  0
 27 26  1  0  0  0  0
 29 30  1  0  0  0  0
 29 28  2  0  0  0  0
 31 29  1  0  0  0  0
 32 31  2  0  0  0  0
 32 33  1  0  0  0  0
 33 27  2  0  0  0  0
M  END
>  <minimizedAffinity>
-5.32830238

$$$$

 OpenBabel03242521293D

 33 35  0  0  1  0  0  0  0  0999 V2000
   35.9310   29.4750   40.2730 C   0  0  1  0  0  0  0  0  0  0  0  0
   36.6170   29.4410   38.9260 C   0  0  2  0  0  0  0  0  0  0  0  0
   36.9400   30.7060   38.4800 O   0  0  0  0  0  0  0  0  0  0  0  0
   37.9720   31.1530   39.2900 C   0  0  0  0  0  0  0  0  0  0  0  0
   37.3960   31.4910   40.6420 C   0  0  2  0  0  0  0  0  0  0  0  0
   36.5440   30.4290   41.2390 C   0  0  2  0  0  0  0  0  0  0  0  0
   36.0480   28.4300   40.6910 H   0  0  0  0  0  0  0  0  0  0  0  0
   37.5520   28.8600   39.0790 H   0  0  0  0  0  0  0  0  0  0  0  0
   38.7390   30.3560   39.4550 H   0  0  0  0  0  0  0  0  0  0  0  0
   38.4430   32.0880   38.9020 H   0  0  0  0  0  0  0  0  0  0  0  0
   38.2380   31.7370   41.3250 H   0  0  0  0  0  0  0  0  0  0  0  0
   35.6930   30.9510   41.7600 H   0  0  0  0  0  0  0  0  0  0  0  0
   34.7220   28.6870   35.7300 C   0  0  0  0  0  0  0  0  0  0  0  0
   35.5560   29.3460   36.6460 C   0  0  0  0  0  0  0  0  0  0  0  0
   35.7620   28.7720   37.9340 C   0  0  0  0  0  0  0  0  0  0  0  0
   35.1320   27.6070   38.2010 N   0  0  0  0  0  0  0  0  0  0  0  0
   34.3320   26.9920   37.2980 C   0  0  0  0  0  0  0  0  0  0  0  0
   34.1280   27.5290   36.0680 N   0  0  0  0  0  0  0  0  0  0  0  0
   34.6510   29.2250   34.7930 H   0  0  0  0  0  0  0  0  0  0  0  0
   36.0780   30.2770   36.4730 H   0  0  0  0  0  0  0  0  0  0  0  0
   33.8350   26.0590   37.5330 H   0  0  0  0  0  0  0  0  0  0  0  0
   34.5460   29.6490   40.1530 O   0  0  0  0  0  0  0  0  0  0  0  0
   34.0500   29.3010   40.9100 H   0  0  0  0  0  0  0  0  0  0  0  0
   36.6770   32.6770   40.4550 O   0  0  0  0  0  0  0  0  0  0  0  0
   36.9540   33.3830   41.0910 H   0  0  0  0  0  0  0  0  0  0  0  0
   37.2020   29.7470   42.2890 O   0  0  0  0  0  0  0  0  0  0  0  0
   37.5830   28.4120   42.1890 C   0  0  0  0  0  0  0  0  0  0  0  0
   36.8360   27.3500   42.6550 C   0  0  0  0  0  3  0  0  0  0  0  0
   37.3260   26.0660   42.4960 C   0  0  0  0  0  0  0  0  0  0  0  0
   36.7430   25.2370   42.8590 H   0  0  0  0  0  0  0  0  0  0  0  0
   38.5190   25.8210   41.8960 N   0  0  0  0  0  0  0  0  0  0  0  0
   39.2210   26.8810   41.4550 C   0  0  0  0  0  3  0  0  0  0  0  0
   38.7780   28.1340   41.5920 N   0  0  0  0  0  0  0  0  0  0  0  0
  1  7  1  1  0  0  0
  1  6  1  0  0  0  0
  2  8  1  1  0  0  0
  2  1  1  0  0  0  0
  3  2  1  0  0  0  0
  3  4  1  0  0  0  0
  4  9  1  0  0  0  0
  4  5  1  0  0  0  0
  5  6  1  0  0  0  0
  5 11  1  1  0  0  0
  6 12  1  1  0  0  0
  6 26  1  0  0  0  0
 10  4  1  0  0  0  0
 13 18  2  0  0  0  0
 13 14  1  0  0  0  0
 14 15  2  0  0  0  0
 15 16  1  0  0  0  0
 15  2  1  0  0  0  0
 17 21  1  0  0  0  0
 17 16  2  0  0  0  0
 18 17  1  0  0  0  0
 19 13  1  0  0  0  0
 20 14  1  0  0  0  0
 22  1  1  0  0  0  0
 22 23  1  0  0  0  0
 24  5  1  0  0  0  0
 24 25  1  0  0  0  0
 27 26  1  0  0  0  0
 27 28  1  0  0  0  0
 29 28  2  0  0  0  0
 29 30  1  0  0  0  0
 31 29  1  0  0  0  0
 32 33  1  0  0  0  0
 32 31  2  0  0  0  0
 33 27  2  0  0  0  0
M  END
>  <minimizedAffinity>
-5.29334068

$$$$

 OpenBabel03242521293D

 33 35  0  0  1  0  0  0  0  0999 V2000
   37.9830   30.3090   39.8870 C   0  0  1  0  0  0  0  0  0  0  0  0
   38.6110   30.7290   38.5780 C   0  0  2  0  0  0  0  0  0  0  0  0
   38.3370   32.0470   38.2740 O   0  0  0  0  0  0  0  0  0  0  0  0
   39.0640   32.8130   39.1720 C   0  0  0  0  0  0  0  0  0  0  0  0
   38.3990   32.7110   40.5220 C   0  0  2  0  0  0  0  0  0  0  0  0
   38.1090   31.3240   40.9700 C   0  0  2  0  0  0  0  0  0  0  0  0
   38.5530   29.3850   40.2060 H   0  0  0  0  0  0  0  0  0  0  0  0
   39.7070   30.6090   38.7180 H   0  0  0  0  0  0  0  0  0  0  0  0
   40.1050   32.4240   39.2950 H   0  0  0  0  0  0  0  0  0  0  0  0
   39.0680   33.8960   38.9000 H   0  0  0  0  0  0  0  0  0  0  0  0
   39.0440   33.2290   41.2650 H   0  0  0  0  0  0  0  0  0  0  0  0
   37.1150   31.3560   41.4990 H   0  0  0  0  0  0  0  0  0  0  0  0
   38.3560   27.8590   36.1150 C   0  0  0  0  0  0  0  0  0  0  0  0
   38.8230   28.6510   37.1740 C   0  0  0  0  0  0  0  0  0  0  0  0
   38.1420   29.8640   37.4850 C   0  0  0  0  0  0  0  0  0  0  0  0
   37.0690   30.1830   36.7300 N   0  0  0  0  0  0  0  0  0  0  0  0
   36.6400   29.4000   35.7130 C   0  0  0  0  0  0  0  0  0  0  0  0
   37.2790   28.2420   35.4060 N   0  0  0  0  0  0  0  0  0  0  0  0
   38.9590   26.9690   35.9840 H   0  0  0  0  0  0  0  0  0  0  0  0
   39.6750   28.4330   37.8020 H   0  0  0  0  0  0  0  0  0  0  0  0
   35.7770   29.6740   35.1180 H   0  0  0  0  0  0  0  0  0  0  0  0
   36.6650   29.8650   39.7190 O   0  0  0  0  0  0  0  0  0  0  0  0
   36.3760   29.2530   40.4140 H   0  0  0  0  0  0  0  0  0  0  0  0
   37.2270   33.4700   40.4180 O   0  0  0  0  0  0  0  0  0  0  0  0
   37.1620   34.1510   41.1330 H   0  0  0  0  0  0  0  0  0  0  0  0
   39.0020   30.8940   41.9790 O   0  0  0  0  0  0  0  0  0  0  0  0
   38.9380   29.6220   42.5400 C   0  0  0  0  0  0  0  0  0  0  0  0
   40.0240   28.7870   42.7070 C   0  0  0  0  0  3  0  0  0  0  0  0
   39.8290   27.5430   43.2790 C   0  0  0  0  0  0  0  0  0  0  0  0
   40.6760   26.8900   43.4100 H   0  0  0  0  0  0  0  0  0  0  0  0
   38.6040   27.1190   43.6800 N   0  0  0  0  0  0  0  0  0  0  0  0
   37.5680   27.9590   43.5010 C   0  0  0  0  0  3  0  0  0  0  0  0
   37.7190   29.1680   42.9520 N   0  0  0  0  0  0  0  0  0  0  0  0
  1  7  1  1  0  0  0
  1  6  1  0  0  0  0
  2  8  1  1  0  0  0
  2  1  1  0  0  0  0
  3  2  1  0  0  0  0
  3  4  1  0  0  0  0
  4  9  1  0  0  0  0
  4  5  1  0  0  0  0
  5  6  1  0  0  0  0
  5 11  1  1  0  0  0
  6 12  1  1  0  0  0
  6 26  1  0  0  0  0
 10  4  1  0  0  0  0
 13 14  1  0  0  0  0
 14 15  2  0  0  0  0
 14 20  1  0  0  0  0
 15  2  1  0  0  0  0
 16 15  1  0  0  0  0
 17 16  2  0  0  0  0
 18 17  1  0  0  0  0
 18 13  2  0  0  0  0
 19 13  1  0  0  0  0
 21 17  1  0  0  0  0
 22  1  1  0  0  0  0
 22 23  1  0  0  0  0
 24  5  1  0  0  0  0
 24 25  1  0  0  0  0
 26 27  1  0  0  0  0
 27 28  2  0  0  0  0
 27 33  1  0  0  0  0
 28 29  1  0  0  0  0
 29 30  1  0  0  0  0
 29 31  2  0  0  0  0
 32 31  1  0  0  0  0
 33 32  2  0  0  0  0
M  END
>  <minimizedAffinity>
-5.2741065

$$$$

 OpenBabel03242521293D

 33 35  0  0  1  0  0  0  0  0999 V2000
   39.2290   31.1150   40.5020 C   0  0  1  0  0  0  0  0  0  0  0  0
   38.1290   30.0800   40.4610 C   0  0  2  0  0  0  0  0  0  0  0  0
   36.8760   30.6560   40.5160 O   0  0  0  0  0  0  0  0  0  0  0  0
   36.6860   31.2910   39.2990 C   0  0  0  0  0  0  0  0  0  0  0  0
   37.5440   32.5320   39.2780 C   0  0  2  0  0  0  0  0  0  0  0  0
   38.9640   32.3120   39.6560 C   0  0  2  0  0  0  0  0  0  0  0  0
   40.1440   30.5920   40.0910 H   0  0  0  0  0  0  0  0  0  0  0  0
   38.2450   29.5560   39.4870 H   0  0  0  0  0  0  0  0  0  0  0  0
   37.0200   30.6530   38.4450 H   0  0  0  0  0  0  0  0  0  0  0  0
   35.6310   31.6320   39.1580 H   0  0  0  0  0  0  0  0  0  0  0  0
   37.4810   32.9780   38.2610 H   0  0  0  0  0  0  0  0  0  0  0  0
   39.2810   33.2090   40.2580 H   0  0  0  0  0  0  0  0  0  0  0  0
   37.3690   27.9130   43.4760 C   0  0  0  0  0  0  0  0  0  0  0  0
   37.1820   28.8160   42.4200 C   0  0  0  0  0  0  0  0  0  0  0  0
   38.2820   29.1260   41.5690 C   0  0  0  0  0  0  0  0  0  0  0  0
   39.4600   28.5200   41.8350 N   0  0  0  0  0  0  0  0  0  0  0  0
   39.6130   27.6520   42.8620 C   0  0  0  0  0  0  0  0  0  0  0  0
   38.5730   27.3480   43.6800 N   0  0  0  0  0  0  0  0  0  0  0  0
   36.4590   27.7640   44.0440 H   0  0  0  0  0  0  0  0  0  0  0  0
   36.2590   29.3210   42.1730 H   0  0  0  0  0  0  0  0  0  0  0  0
   40.5670   27.1770   43.0590 H   0  0  0  0  0  0  0  0  0  0  0  0
   39.5820   31.4540   41.8150 O   0  0  0  0  0  0  0  0  0  0  0  0
   40.4880   31.7900   41.8930 H   0  0  0  0  0  0  0  0  0  0  0  0
   36.9180   33.4340   40.1460 O   0  0  0  0  0  0  0  0  0  0  0  0
   36.7410   34.3050   39.7110 H   0  0  0  0  0  0  0  0  0  0  0  0
   39.8250   32.3500   38.5340 O   0  0  0  0  0  0  0  0  0  0  0  0
   41.0780   32.9550   38.5750 C   0  0  0  0  0  0  0  0  0  0  0  0
   41.8350   33.2590   37.4610 C   0  0  0  0  0  3  0  0  0  0  0  0
   43.0680   33.8610   37.6350 C   0  0  0  0  0  0  0  0  0  0  0  0
   43.6590   34.0990   36.7670 H   0  0  0  0  0  0  0  0  0  0  0  0
   43.5550   34.1610   38.8660 N   0  0  0  0  0  0  0  0  0  0  0  0
   42.7910   33.8500   39.9290 C   0  0  0  0  0  3  0  0  0  0  0  0
   41.5950   33.2680   39.7980 N   0  0  0  0  0  0  0  0  0  0  0  0
  1  7  1  6  0  0  0
  1 22  1  0  0  0  0
  2  8  1  6  0  0  0
  2  1  1  0  0  0  0
  2  3  1  0  0  0  0
  2 15  1  0  0  0  0
  4  3  1  0  0  0  0
  5 11  1  6  0  0  0
  5  4  1  0  0  0  0
  5  6  1  0  0  0  0
  5 24  1  0  0  0  0
  6 12  1  1  0  0  0
  6  1  1  0  0  0  0
  9  4  1  0  0  0  0
 10  4  1  0  0  0  0
 13 18  1  0  0  0  0
 13 19  1  0  0  0  0
 14 13  2  0  0  0  0
 15 16  2  0  0  0  0
 15 14  1  0  0  0  0
 16 17  1  0  0  0  0
 17 21  1  0  0  0  0
 17 18  2  0  0  0  0
 20 14  1  0  0  0  0
 22 23  1  0  0  0  0
 25 24  1  0  0  0  0
 26 27  1  0  0  0  0
 26  6  1  0  0  0  0
 27 33  1  0  0  0  0
 28 29  1  0  0  0  0
 28 27  2  0  0  0  0
 29 31  2  0  0  0  0
 30 29  1  0  0  0  0
 31 32  1  0  0  0  0
 33 32  2  0  0  0  0
M  END
>  <minimizedAffinity>
-5.24877119

$$$$

 OpenBabel03242521293D

 33 35  0  0  1  0  0  0  0  0999 V2000
   38.1170   29.1580   40.2640 C   0  0  1  0  0  0  0  0  0  0  0  0
   37.1710   27.9820   40.1790 C   0  0  2  0  0  0  0  0  0  0  0  0
   35.9790   28.2310   40.8290 O   0  0  0  0  0  0  0  0  0  0  0  0
   35.3050   29.1680   40.0620 C   0  0  0  0  0  0  0  0  0  0  0  0
   35.9860   30.5020   40.2440 C   0  0  2  0  0  0  0  0  0  0  0  0
   37.4600   30.4780   40.0550 C   0  0  2  0  0  0  0  0  0  0  0  0
   38.8610   29.0010   39.4270 H   0  0  0  0  0  0  0  0  0  0  0  0
   36.9700   27.8370   39.0950 H   0  0  0  0  0  0  0  0  0  0  0  0
   35.3600   28.9240   38.9730 H   0  0  0  0  0  0  0  0  0  0  0  0
   34.2470   29.3040   40.3910 H   0  0  0  0  0  0  0  0  0  0  0  0
   35.5200   31.2260   39.5420 H   0  0  0  0  0  0  0  0  0  0  0  0
   37.8960   31.1800   40.8200 H   0  0  0  0  0  0  0  0  0  0  0  0
   37.7330   24.8290   42.2060 C   0  0  0  0  0  0  0  0  0  0  0  0
   37.0970   25.9620   41.6760 C   0  0  0  0  0  0  0  0  0  0  0  0
   37.7990   26.7780   40.7430 C   0  0  0  0  0  0  0  0  0  0  0  0
   39.0560   26.4070   40.4170 N   0  0  0  0  0  0  0  0  0  0  0  0
   39.6460   25.3080   40.9430 C   0  0  0  0  0  0  0  0  0  0  0  0
   38.9890   24.5210   41.8330 N   0  0  0  0  0  0  0  0  0  0  0  0
   37.0940   24.2970   42.9000 H   0  0  0  0  0  0  0  0  0  0  0  0
   36.0950   26.2940   41.9100 H   0  0  0  0  0  0  0  0  0  0  0  0
   40.6560   25.0270   40.6690 H   0  0  0  0  0  0  0  0  0  0  0  0
   38.8920   29.1240   41.4310 O   0  0  0  0  0  0  0  0  0  0  0  0
   39.7320   29.6010   41.3460 H   0  0  0  0  0  0  0  0  0  0  0  0
   35.6440   30.9230   41.5340 O   0  0  0  0  0  0  0  0  0  0  0  0
   35.2470   31.8290   41.5350 H   0  0  0  0  0  0  0  0  0  0  0  0
   37.8470   31.0560   38.8230 O   0  0  0  0  0  0  0  0  0  0  0  0
   38.9700   31.8690   38.7000 C   0  0  0  0  0  0  0  0  0  0  0  0
   39.3200   32.8590   39.5950 C   0  0  0  0  0  3  0  0  0  0  0  0
   40.4640   33.6000   39.3590 C   0  0  0  0  0  0  0  0  0  0  0  0
   40.7370   34.3740   40.0570 H   0  0  0  0  0  0  0  0  0  0  0  0
   41.2510   33.3840   38.2750 N   0  0  0  0  0  0  0  0  0  0  0  0
   40.8800   32.4100   37.4230 C   0  0  0  0  0  3  0  0  0  0  0  0
   39.7810   31.6750   37.6190 N   0  0  0  0  0  0  0  0  0  0  0  0
  1  7  1  6  0  0  0
  1 22  1  0  0  0  0
  2  8  1  6  0  0  0
  2  1  1  0  0  0  0
  2 15  1  0  0  0  0
  2  3  1  0  0  0  0
  4  5  1  0  0  0  0
  4 10  1  0  0  0  0
  4  3  1  0  0  0  0
  5 11  1  6  0  0  0
  5 24  1  0  0  0  0
  6  5  1  0  0  0  0
  6  1  1  0  0  0  0
  6 12  1  1  0  0  0
  9  4  1  0  0  0  0
 13 19  1  0  0  0  0
 14 20  1  0  0  0  0
 14 13  2  0  0  0  0
 15 14  1  0  0  0  0
 16 15  2  0  0  0  0
 16 17  1  0  0  0  0
 17 18  2  0  0  0  0
 18 13  1  0  0  0  0
 21 17  1  0  0  0  0
 23 22  1  0  0  0  0
 24 25  1  0  0  0  0
 26  6  1  0  0  0  0
 27 26  1  0  0  0  0
 27 28  1  0  0  0  0
 29 28  2  0  0  0  0
 29 30  1  0  0  0  0
 31 29  1  0  0  0  0
 32 33  1  0  0  0  0
 32 31  2  0  0  0  0
 33 27  2  0  0  0  0
M  END
>  <minimizedAffinity>
-5.21032715

$$$$

 OpenBabel03242521293D

 33 35  0  0  1  0  0  0  0  0999 V2000
   37.8190   31.1920   38.8210 C   0  0  1  0  0  0  0  0  0  0  0  0
   38.9290   31.1700   39.8460 C   0  0  2  0  0  0  0  0  0  0  0  0
   38.4520   31.3620   41.1270 O   0  0  0  0  0  0  0  0  0  0  0  0
   37.7610   30.2080   41.4610 C   0  0  0  0  0  0  0  0  0  0  0  0
   36.4610   30.1990   40.6960 C   0  0  2  0  0  0  0  0  0  0  0  0
   36.5970   30.4490   39.2370 C   0  0  2  0  0  0  0  0  0  0  0  0
   38.2480   30.6770   37.9090 H   0  0  0  0  0  0  0  0  0  0  0  0
   39.3840   30.1580   39.7750 H   0  0  0  0  0  0  0  0  0  0  0  0
   38.3220   29.2900   41.1560 H   0  0  0  0  0  0  0  0  0  0  0  0
   37.4920   30.1720   42.5450 H   0  0  0  0  0  0  0  0  0  0  0  0
   35.9620   29.2220   40.8740 H   0  0  0  0  0  0  0  0  0  0  0  0
   35.7160   31.0820   38.9340 H   0  0  0  0  0  0  0  0  0  0  0  0
   41.2440   34.1540   40.1680 C   0  0  0  0  0  0  0  0  0  0  0  0
   40.2940   33.1790   40.5040 C   0  0  0  0  0  0  0  0  0  0  0  0
   39.9330   32.1990   39.5350 C   0  0  0  0  0  0  0  0  0  0  0  0
   40.5380   32.2680   38.3290 N   0  0  0  0  0  0  0  0  0  0  0  0
   41.4520   33.2200   38.0300 C   0  0  0  0  0  0  0  0  0  0  0  0
   41.8050   34.1600   38.9450 N   0  0  0  0  0  0  0  0  0  0  0  0
   41.4290   34.8360   40.9890 H   0  0  0  0  0  0  0  0  0  0  0  0
   39.7870   33.0880   41.4550 H   0  0  0  0  0  0  0  0  0  0  0  0
   41.9250   33.2580   37.0570 H   0  0  0  0  0  0  0  0  0  0  0  0
   37.5330   32.4920   38.3840 O   0  0  0  0  0  0  0  0  0  0  0  0
   37.1360   32.5200   37.5000 H   0  0  0  0  0  0  0  0  0  0  0  0
   35.6610   31.1710   41.3080 O   0  0  0  0  0  0  0  0  0  0  0  0
   34.7820   30.8090   41.5800 H   0  0  0  0  0  0  0  0  0  0  0  0
   36.4290   29.2680   38.4780 O   0  0  0  0  0  0  0  0  0  0  0  0
   35.6250   29.2180   37.3420 C   0  0  0  0  0  0  0  0  0  0  0  0
   36.0890   29.3640   36.0500 C   0  0  0  0  0  3  0  0  0  0  0  0
   35.1860   29.2950   35.0050 C   0  0  0  0  0  0  0  0  0  0  0  0
   35.5480   29.4090   33.9960 H   0  0  0  0  0  0  0  0  0  0  0  0
   33.8610   29.0890   35.2100 N   0  0  0  0  0  0  0  0  0  0  0  0
   33.4440   28.9510   36.4820 C   0  0  0  0  0  3  0  0  0  0  0  0
   34.2880   29.0130   37.5170 N   0  0  0  0  0  0  0  0  0  0  0  0
  1  7  1  6  0  0  0
  1  6  1  0  0  0  0
  1  2  1  0  0  0  0
  2  8  1  6  0  0  0
  2  3  1  0  0  0  0
  3  4  1  0  0  0  0
  4 10  1  0  0  0  0
  5 11  1  1  0  0  0
  5 24  1  0  0  0  0
  5  4  1  0  0  0  0
  6 12  1  6  0  0  0
  6  5  1  0  0  0  0
  9  4  1  0  0  0  0
 13 14  1  0  0  0  0
 13 19  1  0  0  0  0
 14 20  1  0  0  0  0
 15  2  1  0  0  0  0
 15 14  2  0  0  0  0
 16 15  1  0  0  0  0
 17 16  2  0  0  0  0
 17 18  1  0  0  0  0
 18 13  2  0  0  0  0
 21 17  1  0  0  0  0
 22  1  1  0  0  0  0
 23 22  1  0  0  0  0
 24 25  1  0  0  0  0
 26  6  1  0  0  0  0
 27 33  1  0  0  0  0
 27 26  1  0  0  0  0
 28 27  2  0  0  0  0
 29 31  2  0  0  0  0
 29 28  1  0  0  0  0
 30 29  1  0  0  0  0
 31 32  1  0  0  0  0
 32 33  2  0  0  0  0
M  END
>  <minimizedAffinity>
-5.1175704

$$$$

 OpenBabel03242521293D

 33 35  0  0  1  0  0  0  0  0999 V2000
   37.0820   30.5010   40.6150 C   0  0  1  0  0  0  0  0  0  0  0  0
   38.5880   30.4210   40.7120 C   0  0  2  0  0  0  0  0  0  0  0  0
   39.0080   30.1300   41.9940 O   0  0  0  0  0  0  0  0  0  0  0  0
   38.6580   28.8090   42.2270 C   0  0  0  0  0  0  0  0  0  0  0  0
   37.1630   28.7450   42.4190 C   0  0  2  0  0  0  0  0  0  0  0  0
   36.3710   29.4270   41.3630 C   0  0  2  0  0  0  0  0  0  0  0  0
   36.8490   30.3730   39.5150 H   0  0  0  0  0  0  0  0  0  0  0  0
   38.8900   29.5930   40.0340 H   0  0  0  0  0  0  0  0  0  0  0  0
   38.8990   28.1590   41.3500 H   0  0  0  0  0  0  0  0  0  0  0  0
   39.1170   28.4070   43.1630 H   0  0  0  0  0  0  0  0  0  0  0  0
   36.8700   27.6750   42.4900 H   0  0  0  0  0  0  0  0  0  0  0  0
   35.4990   29.9180   41.8800 H   0  0  0  0  0  0  0  0  0  0  0  0
   40.4010   33.0020   38.6090 C   0  0  0  0  0  0  0  0  0  0  0  0
   39.8170   31.7850   38.9910 C   0  0  0  0  0  0  0  0  0  0  0  0
   39.1970   31.6850   40.2700 C   0  0  0  0  0  0  0  0  0  0  0  0
   39.2070   32.7860   41.0510 N   0  0  0  0  0  0  0  0  0  0  0  0
   39.7780   33.9490   40.6580 C   0  0  0  0  0  0  0  0  0  0  0  0
   40.3720   34.0570   39.4420 N   0  0  0  0  0  0  0  0  0  0  0  0
   40.8360   32.9450   37.6190 H   0  0  0  0  0  0  0  0  0  0  0  0
   39.7870   30.8820   38.3980 H   0  0  0  0  0  0  0  0  0  0  0  0
   39.7760   34.8210   41.3000 H   0  0  0  0  0  0  0  0  0  0  0  0
   36.6020   31.7800   40.9270 O   0  0  0  0  0  0  0  0  0  0  0  0
   35.7440   31.9760   40.5210 H   0  0  0  0  0  0  0  0  0  0  0  0
   36.9250   29.3060   43.6800 O   0  0  0  0  0  0  0  0  0  0  0  0
   36.3980   28.7030   44.2600 H   0  0  0  0  0  0  0  0  0  0  0  0
   35.7550   28.5070   40.4830 O   0  0  0  0  0  0  0  0  0  0  0  0
   36.0040   28.5020   39.1140 C   0  0  0  0  0  0  0  0  0  0  0  0
   35.3080   29.2560   38.1910 C   0  0  0  0  0  3  0  0  0  0  0  0
   35.6530   29.1610   36.8550 C   0  0  0  0  0  0  0  0  0  0  0  0
   35.1100   29.7490   36.1330 H   0  0  0  0  0  0  0  0  0  0  0  0
   36.6520   28.3500   36.4250 N   0  0  0  0  0  0  0  0  0  0  0  0
   37.3090   27.6290   37.3530 C   0  0  0  0  0  3  0  0  0  0  0  0
   37.0020   27.6950   38.6520 N   0  0  0  0  0  0  0  0  0  0  0  0
  1  7  1  6  0  0  0
  1  2  1  0  0  0  0
  1 22  1  0  0  0  0
  1  6  1  0  0  0  0
  2  8  1  6  0  0  0
  2  3  1  0  0  0  0
  3  4  1  0  0  0  0
  4  5  1  0  0  0  0
  4 10  1  0  0  0  0
  5 11  1  1  0  0  0
  5 24  1  0  0  0  0
  6 12  1  1  0  0  0
  6  5  1  0  0  0  0
  9  4  1  0  0  0  0
 13 14  2  0  0  0  0
 13 18  1  0  0  0  0
 14 15  1  0  0  0  0
 15  2  1  0  0  0  0
 15 16  2  0  0  0  0
 17 16  1  0  0  0  0
 17 21  1  0  0  0  0
 18 17  2  0  0  0  0
 19 13  1  0  0  0  0
 20 14  1  0  0  0  0
 23 22  1  0  0  0  0
 24 25  1  0  0  0  0
 26  6  1  0  0  0  0
 27 26  1  0  0  0  0
 28 27  2  0  0  0  0
 29 28  1  0  0  0  0
 30 29  1  0  0  0  0
 31 29  2  0  0  0  0
 31 32  1  0  0  0  0
 32 33  2  0  0  0  0
 33 27  1  0  0  0  0
M  END
>  <minimizedAffinity>
-4.97519588

$$$$
