
 OpenBabel03252506323D

 30 32  0  0  1  0  0  0  0  0999 V2000
   39.9760   31.3690   39.1120 C   0  0  0  0  0  0  0  0  0  0  0  0
   39.1500   31.5780   38.0130 C   0  0  0  0  0  0  0  0  0  0  0  0
   37.8480   31.1320   38.0750 C   0  0  0  0  0  0  0  0  0  0  0  0
   37.4620   30.5140   39.2160 N   0  0  0  0  0  0  0  0  0  0  0  0
   38.2730   30.3220   40.2660 C   0  0  0  0  0  0  0  0  0  0  0  0
   39.5410   30.7430   40.2370 N   0  0  0  0  0  0  0  0  0  0  0  0
   37.7300   29.6540   41.4000 N   0  0  0  0  0  0  0  0  0  0  0  0
   38.3780   29.6330   42.7170 C   0  0  0  0  0  0  0  0  0  0  0  0
   38.0710   28.2340   43.1840 C   0  0  0  0  0  0  0  0  0  0  0  0
   37.0490   27.6610   42.2410 C   0  0  0  0  0  0  0  0  0  0  0  0
   36.5170   28.9000   41.5380 C   0  0  2  0  0  0  0  0  0  0  0  0
   41.0280   31.6820   39.1750 H   0  0  0  0  0  0  0  0  0  0  0  0
   37.2160   31.2990   37.2160 H   0  0  0  0  0  0  0  0  0  0  0  0
   39.4520   29.8620   42.6370 H   0  0  0  0  0  0  0  0  0  0  0  0
   37.8550   30.4150   43.3030 H   0  0  0  0  0  0  0  0  0  0  0  0
   37.7190   28.2340   44.2400 H   0  0  0  0  0  0  0  0  0  0  0  0
   38.9970   27.6450   43.1120 H   0  0  0  0  0  0  0  0  0  0  0  0
   37.5420   27.0160   41.4720 H   0  0  0  0  0  0  0  0  0  0  0  0
   36.2720   27.0840   42.7410 H   0  0  0  0  0  0  0  0  0  0  0  0
   35.8480   29.4160   42.2500 H   0  0  0  0  0  0  0  0  0  0  0  0
   35.8450   28.5550   40.2700 C   0  0  0  0  0  0  0  0  0  0  0  0
   36.3250   27.4480   39.5620 C   0  0  0  0  0  3  0  0  0  0  0  0
   35.7820   27.0400   38.3660 C   0  0  0  0  0  0  0  0  0  0  0  0
   36.1920   26.1780   37.8610 H   0  0  0  0  0  0  0  0  0  0  0  0
   34.7360   27.7730   37.8920 N   0  0  0  0  0  0  0  0  0  0  0  0
   34.2530   28.8430   38.5520 C   0  0  0  0  0  3  0  0  0  0  0  0
   34.8190   29.2160   39.7350 N   0  0  0  0  0  0  0  0  0  0  0  0
   39.7300   32.2520   36.8870 N   0  0  0  0  0  0  0  0  0  0  0  0
   40.6810   31.9830   36.6040 H   0  0  0  0  0  0  0  0  0  0  0  0
   39.1910   33.0030   36.3680 H   0  0  0  0  0  0  0  0  0  0  0  0
  1 12  1  0  0  0  0
  1  6  1  0  0  0  0
  2  3  1  0  0  0  0
  2  1  2  0  0  0  0
  3  4  2  0  0  0  0
  4  5  1  0  0  0  0
  5  7  1  0  0  0  0
  6  5  2  0  0  0  0
  7 11  1  0  0  0  0
  7  8  1  0  0  0  0
  8  9  1  0  0  0  0
  8 15  1  0  0  0  0
  9 16  1  0  0  0  0
 10 19  1  0  0  0  0
 10  9  1  0  0  0  0
 11 10  1  0  0  0  0
 11 20  1  1  0  0  0
 13  3  1  0  0  0  0
 14  8  1  0  0  0  0
 17  9  1  0  0  0  0
 18 10  1  0  0  0  0
 21 11  1  0  0  0  0
 22 21  2  0  0  0  0
 23 22  1  0  0  0  0
 24 23  1  0  0  0  0
 25 23  2  0  0  0  0
 25 26  1  0  0  0  0
 26 27  2  0  0  0  0
 27 21  1  0  0  0  0
 28  2  1  0  0  0  0
 29 28  1  0  0  0  0
 30 28  1  0  0  0  0
M  END
>  <minimizedAffinity>
-5.25041914

$$$$

 OpenBabel03252506323D

 30 32  0  0  1  0  0  0  0  0999 V2000
   37.8530   29.7690   42.2550 C   0  0  0  0  0  0  0  0  0  0  0  0
   36.6280   29.5130   41.6490 C   0  0  0  0  0  0  0  0  0  0  0  0
   36.2630   28.2020   41.4330 C   0  0  0  0  0  0  0  0  0  0  0  0
   37.1350   27.2460   41.8300 N   0  0  0  0  0  0  0  0  0  0  0  0
   38.3120   27.5130   42.4130 C   0  0  0  0  0  0  0  0  0  0  0  0
   38.6950   28.7740   42.6380 N   0  0  0  0  0  0  0  0  0  0  0  0
   39.1290   26.4050   42.7780 N   0  0  0  0  0  0  0  0  0  0  0  0
   40.2840   26.5090   43.6780 C   0  0  0  0  0  0  0  0  0  0  0  0
   41.2500   25.5420   43.0460 C   0  0  0  0  0  0  0  0  0  0  0  0
   40.4880   24.7590   42.0120 C   0  0  0  0  0  0  0  0  0  0  0  0
   39.0410   25.0240   42.3980 C   0  0  2  0  0  0  0  0  0  0  0  0
   38.2460   30.7720   42.4770 H   0  0  0  0  0  0  0  0  0  0  0  0
   35.3110   28.0150   40.9610 H   0  0  0  0  0  0  0  0  0  0  0  0
   40.6510   27.5470   43.7380 H   0  0  0  0  0  0  0  0  0  0  0  0
   39.9070   26.1710   44.6640 H   0  0  0  0  0  0  0  0  0  0  0  0
   41.7180   24.8860   43.8140 H   0  0  0  0  0  0  0  0  0  0  0  0
   42.0350   26.1280   42.5460 H   0  0  0  0  0  0  0  0  0  0  0  0
   40.6550   25.1870   40.9930 H   0  0  0  0  0  0  0  0  0  0  0  0
   40.7410   23.7000   41.9970 H   0  0  0  0  0  0  0  0  0  0  0  0
   38.8260   24.4140   43.2930 H   0  0  0  0  0  0  0  0  0  0  0  0
   38.1230   24.7400   41.2780 C   0  0  0  0  0  0  0  0  0  0  0  0
   38.5960   24.9600   39.9790 C   0  0  0  0  0  3  0  0  0  0  0  0
   37.8260   24.7370   38.8620 C   0  0  0  0  0  0  0  0  0  0  0  0
   38.2400   24.9250   37.8830 H   0  0  0  0  0  0  0  0  0  0  0  0
   36.5590   24.2830   39.0770 N   0  0  0  0  0  0  0  0  0  0  0  0
   36.0770   24.0620   40.3150 C   0  0  0  0  0  3  0  0  0  0  0  0
   36.8730   24.2950   41.3980 N   0  0  0  0  0  0  0  0  0  0  0  0
   35.8320   30.6520   41.2930 N   0  0  0  0  0  0  0  0  0  0  0  0
   36.3080   31.4560   40.8650 H   0  0  0  0  0  0  0  0  0  0  0  0
   34.7860   30.6590   41.4680 H   0  0  0  0  0  0  0  0  0  0  0  0
  1 12  1  0  0  0  0
  1  6  1  0  0  0  0
  2  1  2  0  0  0  0
  3  2  1  0  0  0  0
  3  4  2  0  0  0  0
  4  5  1  0  0  0  0
  5  6  2  0  0  0  0
  5  7  1  0  0  0  0
  7  8  1  0  0  0  0
  8 14  1  0  0  0  0
  8 15  1  0  0  0  0
  9  8  1  0  0  0  0
  9 16  1  0  0  0  0
 10 11  1  0  0  0  0
 10  9  1  0  0  0  0
 11  7  1  0  0  0  0
 11 20  1  1  0  0  0
 13  3  1  0  0  0  0
 17  9  1  0  0  0  0
 18 10  1  0  0  0  0
 19 10  1  0  0  0  0
 21 27  1  0  0  0  0
 21 11  1  0  0  0  0
 22 21  2  0  0  0  0
 23 25  2  0  0  0  0
 23 22  1  0  0  0  0
 24 23  1  0  0  0  0
 25 26  1  0  0  0  0
 26 27  2  0  0  0  0
 28 30  1  0  0  0  0
 28  2  1  0  0  0  0
 29 28  1  0  0  0  0
M  END
>  <minimizedAffinity>
-4.90083694

$$$$

 OpenBabel03252506323D

 30 32  0  0  1  0  0  0  0  0999 V2000
   40.5420   25.0130   43.0480 C   0  0  0  0  0  0  0  0  0  0  0  0
   41.7740   25.6390   43.2050 C   0  0  0  0  0  0  0  0  0  0  0  0
   41.8120   27.0160   43.2370 C   0  0  0  0  0  0  0  0  0  0  0  0
   40.6330   27.6680   43.1120 N   0  0  0  0  0  0  0  0  0  0  0  0
   39.4550   27.0460   42.9610 C   0  0  0  0  0  0  0  0  0  0  0  0
   39.3840   25.7120   42.9270 N   0  0  0  0  0  0  0  0  0  0  0  0
   38.2950   27.8630   42.8400 N   0  0  0  0  0  0  0  0  0  0  0  0
   36.9250   27.3520   42.9700 C   0  0  0  0  0  0  0  0  0  0  0  0
   36.1980   28.1600   41.9280 C   0  0  0  0  0  0  0  0  0  0  0  0
   37.1280   29.2550   41.4810 C   0  0  0  0  0  0  0  0  0  0  0  0
   38.1740   29.2700   42.5850 C   0  0  2  0  0  0  0  0  0  0  0  0
   40.3920   23.9240   43.0090 H   0  0  0  0  0  0  0  0  0  0  0  0
   42.7740   27.4910   43.3580 H   0  0  0  0  0  0  0  0  0  0  0  0
   36.8890   26.2620   42.8090 H   0  0  0  0  0  0  0  0  0  0  0  0
   36.6260   27.6030   44.0070 H   0  0  0  0  0  0  0  0  0  0  0  0
   35.2380   28.5580   42.3290 H   0  0  0  0  0  0  0  0  0  0  0  0
   35.9860   27.4980   41.0750 H   0  0  0  0  0  0  0  0  0  0  0  0
   37.6400   28.9710   40.5280 H   0  0  0  0  0  0  0  0  0  0  0  0
   36.6340   30.2160   41.3440 H   0  0  0  0  0  0  0  0  0  0  0  0
   37.7140   29.7600   43.4620 H   0  0  0  0  0  0  0  0  0  0  0  0
   39.4150   29.9360   42.1440 C   0  0  0  0  0  0  0  0  0  0  0  0
   39.7560   29.8410   40.7900 C   0  0  0  0  0  3  0  0  0  0  0  0
   40.8920   30.4150   40.2690 C   0  0  0  0  0  0  0  0  0  0  0  0
   41.1080   30.3100   39.2170 H   0  0  0  0  0  0  0  0  0  0  0  0
   41.6870   31.0930   41.1450 N   0  0  0  0  0  0  0  0  0  0  0  0
   41.3830   31.2010   42.4520 C   0  0  0  0  0  3  0  0  0  0  0  0
   40.2470   30.6180   42.9300 N   0  0  0  0  0  0  0  0  0  0  0  0
   42.9220   24.7860   43.3230 N   0  0  0  0  0  0  0  0  0  0  0  0
   42.9840   23.9750   42.6950 H   0  0  0  0  0  0  0  0  0  0  0  0
   43.6790   24.9920   44.0350 H   0  0  0  0  0  0  0  0  0  0  0  0
  1  2  1  0  0  0  0
  2  3  2  0  0  0  0
  2 28  1  0  0  0  0
  3 13  1  0  0  0  0
  4  3  1  0  0  0  0
  5  4  2  0  0  0  0
  6  5  1  0  0  0  0
  6  1  2  0  0  0  0
  7  5  1  0  0  0  0
  7  8  1  0  0  0  0
  8 15  1  0  0  0  0
  9 16  1  0  0  0  0
  9  8  1  0  0  0  0
 10  9  1  0  0  0  0
 10 11  1  0  0  0  0
 11  7  1  0  0  0  0
 11 20  1  1  0  0  0
 12  1  1  0  0  0  0
 14  8  1  0  0  0  0
 17  9  1  0  0  0  0
 18 10  1  0  0  0  0
 19 10  1  0  0  0  0
 21 11  1  0  0  0  0
 21 27  1  0  0  0  0
 22 21  2  0  0  0  0
 23 22  1  0  0  0  0
 23 25  2  0  0  0  0
 24 23  1  0  0  0  0
 25 26  1  0  0  0  0
 26 27  2  0  0  0  0
 28 30  1  0  0  0  0
 29 28  1  0  0  0  0
M  END
>  <minimizedAffinity>
-4.76571846

$$$$

 OpenBabel03252506323D

 30 32  0  0  1  0  0  0  0  0999 V2000
   36.9510   32.0410   38.8300 C   0  0  0  0  0  0  0  0  0  0  0  0
   37.6610   32.3860   39.9750 C   0  0  0  0  0  0  0  0  0  0  0  0
   38.2620   31.3820   40.7020 C   0  0  0  0  0  0  0  0  0  0  0  0
   38.1160   30.1170   40.2450 N   0  0  0  0  0  0  0  0  0  0  0  0
   37.4270   29.8040   39.1380 C   0  0  0  0  0  0  0  0  0  0  0  0
   36.8330   30.7550   38.4100 N   0  0  0  0  0  0  0  0  0  0  0  0
   37.3560   28.4280   38.7770 N   0  0  0  0  0  0  0  0  0  0  0  0
   36.9080   27.9560   37.4620 C   0  0  0  0  0  0  0  0  0  0  0  0
   36.1390   26.7150   37.8300 C   0  0  0  0  0  0  0  0  0  0  0  0
   36.4350   26.4160   39.2740 C   0  0  0  0  0  0  0  0  0  0  0  0
   37.6760   27.2530   39.5360 C   0  0  2  0  0  0  0  0  0  0  0  0
   36.4340   32.7560   38.1730 H   0  0  0  0  0  0  0  0  0  0  0  0
   38.8100   31.6610   41.5890 H   0  0  0  0  0  0  0  0  0  0  0  0
   36.3130   28.7250   36.9430 H   0  0  0  0  0  0  0  0  0  0  0  0
   37.8420   27.7440   36.9030 H   0  0  0  0  0  0  0  0  0  0  0  0
   36.4060   25.8660   37.1590 H   0  0  0  0  0  0  0  0  0  0  0  0
   35.0680   26.9370   37.7200 H   0  0  0  0  0  0  0  0  0  0  0  0
   35.6150   26.8020   39.9300 H   0  0  0  0  0  0  0  0  0  0  0  0
   36.5800   25.3560   39.4770 H   0  0  0  0  0  0  0  0  0  0  0  0
   38.5260   26.7340   39.0590 H   0  0  0  0  0  0  0  0  0  0  0  0
   37.8810   27.4770   40.9810 C   0  0  0  0  0  0  0  0  0  0  0  0
   36.7460   27.5380   41.7950 C   0  0  0  0  0  3  0  0  0  0  0  0
   36.8160   27.7500   43.1520 C   0  0  0  0  0  0  0  0  0  0  0  0
   35.9080   27.7890   43.7340 H   0  0  0  0  0  0  0  0  0  0  0  0
   38.0640   27.9000   43.6800 N   0  0  0  0  0  0  0  0  0  0  0  0
   39.1750   27.8450   42.9200 C   0  0  0  0  0  3  0  0  0  0  0  0
   39.0630   27.6340   41.5780 N   0  0  0  0  0  0  0  0  0  0  0  0
   37.7110   33.7800   40.3090 N   0  0  0  0  0  0  0  0  0  0  0  0
   36.8460   34.3270   40.2180 H   0  0  0  0  0  0  0  0  0  0  0  0
   38.6140   34.2270   40.6400 H   0  0  0  0  0  0  0  0  0  0  0  0
  1  2  1  0  0  0  0
  2 28  1  0  0  0  0
  2  3  2  0  0  0  0
  3 13  1  0  0  0  0
  4  3  1  0  0  0  0
  5  4  2  0  0  0  0
  6  1  2  0  0  0  0
  6  5  1  0  0  0  0
  7  5  1  0  0  0  0
  7 11  1  0  0  0  0
  8  9  1  0  0  0  0
  8  7  1  0  0  0  0
  9 10  1  0  0  0  0
 10 19  1  0  0  0  0
 10 11  1  0  0  0  0
 10 18  1  0  0  0  0
 11 20  1  6  0  0  0
 11 21  1  0  0  0  0
 12  1  1  0  0  0  0
 14  8  1  0  0  0  0
 15  8  1  0  0  0  0
 16  9  1  0  0  0  0
 17  9  1  0  0  0  0
 21 27  2  0  0  0  0
 21 22  1  0  0  0  0
 22 23  2  0  0  0  0
 23 25  1  0  0  0  0
 23 24  1  0  0  0  0
 26 25  2  0  0  0  0
 27 26  1  0  0  0  0
 28 30  1  0  0  0  0
 29 28  1  0  0  0  0
M  END
>  <minimizedAffinity>
-4.75669813

$$$$

 OpenBabel03252506323D

 30 32  0  0  1  0  0  0  0  0999 V2000
   38.8870   33.1460   39.6580 C   0  0  0  0  0  0  0  0  0  0  0  0
   39.8470   32.8430   40.6180 C   0  0  0  0  0  0  0  0  0  0  0  0
   39.9310   31.5460   41.0760 C   0  0  0  0  0  0  0  0  0  0  0  0
   39.0630   30.6490   40.5530 N   0  0  0  0  0  0  0  0  0  0  0  0
   38.1440   30.9610   39.6270 C   0  0  0  0  0  0  0  0  0  0  0  0
   38.0370   32.2090   39.1620 N   0  0  0  0  0  0  0  0  0  0  0  0
   37.2960   29.9130   39.1690 N   0  0  0  0  0  0  0  0  0  0  0  0
   36.4590   30.0140   37.9670 C   0  0  0  0  0  0  0  0  0  0  0  0
   35.2200   29.2730   38.3960 C   0  0  0  0  0  0  0  0  0  0  0  0
   35.5420   28.5720   39.6870 C   0  0  0  0  0  0  0  0  0  0  0  0
   37.0620   28.6050   39.7100 C   0  0  2  0  0  0  0  0  0  0  0  0
   38.7290   34.1420   39.2200 H   0  0  0  0  0  0  0  0  0  0  0  0
   40.6790   31.3230   41.8210 H   0  0  0  0  0  0  0  0  0  0  0  0
   36.2880   31.0650   37.6860 H   0  0  0  0  0  0  0  0  0  0  0  0
   37.0330   29.4880   37.1770 H   0  0  0  0  0  0  0  0  0  0  0  0
   34.8830   28.5670   37.6040 H   0  0  0  0  0  0  0  0  0  0  0  0
   34.4300   30.0160   38.5780 H   0  0  0  0  0  0  0  0  0  0  0  0
   35.1730   29.1660   40.5600 H   0  0  0  0  0  0  0  0  0  0  0  0
   35.1330   27.5640   39.7480 H   0  0  0  0  0  0  0  0  0  0  0  0
   37.4150   27.8450   38.9910 H   0  0  0  0  0  0  0  0  0  0  0  0
   37.5860   28.3880   41.0730 C   0  0  0  0  0  0  0  0  0  0  0  0
   38.7170   27.5770   41.2120 C   0  0  0  0  0  3  0  0  0  0  0  0
   39.2860   27.2990   42.4330 C   0  0  0  0  0  0  0  0  0  0  0  0
   40.1590   26.6660   42.4830 H   0  0  0  0  0  0  0  0  0  0  0  0
   38.6900   27.8600   43.5230 N   0  0  0  0  0  0  0  0  0  0  0  0
   37.6010   28.6450   43.4190 C   0  0  0  0  0  3  0  0  0  0  0  0
   37.0660   28.8960   42.1900 N   0  0  0  0  0  0  0  0  0  0  0  0
   40.6830   33.9220   41.0590 N   0  0  0  0  0  0  0  0  0  0  0  0
   40.2390   34.8320   41.2370 H   0  0  0  0  0  0  0  0  0  0  0  0
   41.7240   33.7800   41.1940 H   0  0  0  0  0  0  0  0  0  0  0  0
  1  2  1  0  0  0  0
  2 28  1  0  0  0  0
  2  3  2  0  0  0  0
  3 13  1  0  0  0  0
  4  3  1  0  0  0  0
  5  4  2  0  0  0  0
  6  5  1  0  0  0  0
  6  1  2  0  0  0  0
  7  5  1  0  0  0  0
  7 11  1  0  0  0  0
  8  9  1  0  0  0  0
  8  7  1  0  0  0  0
  9 17  1  0  0  0  0
  9 10  1  0  0  0  0
 10 11  1  0  0  0  0
 10 19  1  0  0  0  0
 10 18  1  0  0  0  0
 11 20  1  6  0  0  0
 11 21  1  0  0  0  0
 12  1  1  0  0  0  0
 14  8  1  0  0  0  0
 15  8  1  0  0  0  0
 16  9  1  0  0  0  0
 21 22  2  0  0  0  0
 21 27  1  0  0  0  0
 22 23  1  0  0  0  0
 23 24  1  0  0  0  0
 23 25  2  0  0  0  0
 26 25  1  0  0  0  0
 27 26  2  0  0  0  0
 28 30  1  0  0  0  0
 28 29  1  0  0  0  0
M  END
>  <minimizedAffinity>
-4.67529821

$$$$

 OpenBabel03252506323D

 30 32  0  0  1  0  0  0  0  0999 V2000
   41.1920   31.3120   38.6680 C   0  0  0  0  0  0  0  0  0  0  0  0
   40.0080   31.7120   38.0580 C   0  0  0  0  0  0  0  0  0  0  0  0
   38.8160   31.4240   38.6870 C   0  0  0  0  0  0  0  0  0  0  0  0
   38.8840   30.7660   39.8670 N   0  0  0  0  0  0  0  0  0  0  0  0
   40.0370   30.3890   40.4390 C   0  0  0  0  0  0  0  0  0  0  0  0
   41.2090   30.6530   39.8550 N   0  0  0  0  0  0  0  0  0  0  0  0
   39.9560   29.7000   41.6830 N   0  0  0  0  0  0  0  0  0  0  0  0
   41.1060   29.4900   42.5710 C   0  0  0  0  0  0  0  0  0  0  0  0
   40.8340   28.1060   43.0980 C   0  0  0  0  0  0  0  0  0  0  0  0
   39.4300   27.7420   42.7000 C   0  0  0  0  0  0  0  0  0  0  0  0
   38.8310   29.0910   42.3340 C   0  0  2  0  0  0  0  0  0  0  0  0
   42.1980   31.4880   38.2600 H   0  0  0  0  0  0  0  0  0  0  0  0
   37.9030   31.7380   38.2040 H   0  0  0  0  0  0  0  0  0  0  0  0
   42.0570   29.5920   42.0240 H   0  0  0  0  0  0  0  0  0  0  0  0
   41.0150   30.2800   43.3440 H   0  0  0  0  0  0  0  0  0  0  0  0
   40.9870   28.0610   44.2000 H   0  0  0  0  0  0  0  0  0  0  0  0
   41.5370   27.4160   42.6080 H   0  0  0  0  0  0  0  0  0  0  0  0
   39.4350   27.1080   41.7790 H   0  0  0  0  0  0  0  0  0  0  0  0
   38.8770   27.2250   43.4830 H   0  0  0  0  0  0  0  0  0  0  0  0
   38.6270   29.6240   43.2800 H   0  0  0  0  0  0  0  0  0  0  0  0
   37.6280   28.9380   41.4940 C   0  0  0  0  0  0  0  0  0  0  0  0
   37.5520   27.8100   40.6700 C   0  0  0  0  0  3  0  0  0  0  0  0
   36.4820   27.5680   39.8390 C   0  0  0  0  0  0  0  0  0  0  0  0
   36.4750   26.6820   39.2240 H   0  0  0  0  0  0  0  0  0  0  0  0
   35.4810   28.4930   39.8540 N   0  0  0  0  0  0  0  0  0  0  0  0
   35.5270   29.5870   40.6360 C   0  0  0  0  0  3  0  0  0  0  0  0
   36.6050   29.7910   41.4460 N   0  0  0  0  0  0  0  0  0  0  0  0
   40.1260   32.4010   36.8050 N   0  0  0  0  0  0  0  0  0  0  0  0
   40.8040   32.0420   36.1220 H   0  0  0  0  0  0  0  0  0  0  0  0
   39.5300   33.2520   36.5970 H   0  0  0  0  0  0  0  0  0  0  0  0
  1  6  1  0  0  0  0
  2  1  2  0  0  0  0
  2  3  1  0  0  0  0
  3  4  2  0  0  0  0
  4  5  1  0  0  0  0
  5  7  1  0  0  0  0
  6  5  2  0  0  0  0
  7 11  1  0  0  0  0
  7  8  1  0  0  0  0
  8  9  1  0  0  0  0
  8 15  1  0  0  0  0
  9 16  1  0  0  0  0
 10  9  1  0  0  0  0
 10 19  1  0  0  0  0
 11 10  1  0  0  0  0
 11 20  1  1  0  0  0
 12  1  1  0  0  0  0
 13  3  1  0  0  0  0
 14  8  1  0  0  0  0
 17  9  1  0  0  0  0
 18 10  1  0  0  0  0
 21 11  1  0  0  0  0
 22 21  2  0  0  0  0
 23 25  2  0  0  0  0
 23 22  1  0  0  0  0
 24 23  1  0  0  0  0
 25 26  1  0  0  0  0
 26 27  2  0  0  0  0
 27 21  1  0  0  0  0
 28  2  1  0  0  0  0
 29 28  1  0  0  0  0
 30 28  1  0  0  0  0
M  END
>  <minimizedAffinity>
-4.66012669

$$$$

 OpenBabel03252506323D

 30 32  0  0  1  0  0  0  0  0999 V2000
   41.8990   29.6130   42.9780 C   0  0  0  0  0  0  0  0  0  0  0  0
   41.1030   30.6670   42.5430 C   0  0  0  0  0  0  0  0  0  0  0  0
   39.7790   30.4150   42.2540 C   0  0  0  0  0  0  0  0  0  0  0  0
   39.3440   29.1440   42.4160 N   0  0  0  0  0  0  0  0  0  0  0  0
   40.1270   28.1400   42.8370 C   0  0  0  0  0  0  0  0  0  0  0  0
   41.4140   28.3520   43.1260 N   0  0  0  0  0  0  0  0  0  0  0  0
   39.5320   26.8520   42.9600 N   0  0  0  0  0  0  0  0  0  0  0  0
   40.1560   25.7350   43.6790 C   0  0  0  0  0  0  0  0  0  0  0  0
   39.7720   24.5640   42.8140 C   0  0  0  0  0  0  0  0  0  0  0  0
   38.7390   25.0500   41.8350 C   0  0  0  0  0  0  0  0  0  0  0  0
   38.2810   26.3580   42.4610 C   0  0  2  0  0  0  0  0  0  0  0  0
   42.9640   29.6960   43.2370 H   0  0  0  0  0  0  0  0  0  0  0  0
   39.1710   31.2400   41.9170 H   0  0  0  0  0  0  0  0  0  0  0  0
   41.2420   25.8870   43.7880 H   0  0  0  0  0  0  0  0  0  0  0  0
   39.6630   25.7270   44.6720 H   0  0  0  0  0  0  0  0  0  0  0  0
   39.4030   23.7150   43.4320 H   0  0  0  0  0  0  0  0  0  0  0  0
   40.6690   24.2460   42.2620 H   0  0  0  0  0  0  0  0  0  0  0  0
   39.2130   25.2880   40.8500 H   0  0  0  0  0  0  0  0  0  0  0  0
   37.9270   24.3430   41.6740 H   0  0  0  0  0  0  0  0  0  0  0  0
   37.6260   26.1000   43.3120 H   0  0  0  0  0  0  0  0  0  0  0  0
   37.6140   27.2260   41.4700 C   0  0  0  0  0  0  0  0  0  0  0  0
   36.5020   27.9600   41.8960 C   0  0  0  0  0  3  0  0  0  0  0  0
   35.7980   28.7940   41.0590 C   0  0  0  0  0  0  0  0  0  0  0  0
   34.9470   29.3370   41.4390 H   0  0  0  0  0  0  0  0  0  0  0  0
   36.2400   28.8760   39.7720 N   0  0  0  0  0  0  0  0  0  0  0  0
   37.3070   28.1820   39.3340 C   0  0  0  0  0  3  0  0  0  0  0  0
   37.9780   27.3650   40.1960 N   0  0  0  0  0  0  0  0  0  0  0  0
   41.7340   31.9500   42.4290 N   0  0  0  0  0  0  0  0  0  0  0  0
   42.6750   31.9870   42.0170 H   0  0  0  0  0  0  0  0  0  0  0  0
   41.2420   32.8280   42.7610 H   0  0  0  0  0  0  0  0  0  0  0  0
  1  6  1  0  0  0  0
  1 12  1  0  0  0  0
  2  1  2  0  0  0  0
  3  4  2  0  0  0  0
  3  2  1  0  0  0  0
  4  5  1  0  0  0  0
  5  7  1  0  0  0  0
  5  6  2  0  0  0  0
  7  8  1  0  0  0  0
  8 14  1  0  0  0  0
  8 15  1  0  0  0  0
  9 16  1  0  0  0  0
  9  8  1  0  0  0  0
 10 11  1  0  0  0  0
 10  9  1  0  0  0  0
 11  7  1  0  0  0  0
 11 20  1  1  0  0  0
 13  3  1  0  0  0  0
 17  9  1  0  0  0  0
 18 10  1  0  0  0  0
 19 10  1  0  0  0  0
 21 22  1  0  0  0  0
 21 11  1  0  0  0  0
 23 24  1  0  0  0  0
 23 22  2  0  0  0  0
 25 23  1  0  0  0  0
 26 25  2  0  0  0  0
 26 27  1  0  0  0  0
 27 21  2  0  0  0  0
 28  2  1  0  0  0  0
 28 30  1  0  0  0  0
 29 28  1  0  0  0  0
M  END
>  <minimizedAffinity>
-4.6393981

$$$$

 OpenBabel03252506323D

 30 32  0  0  1  0  0  0  0  0999 V2000
   37.7500   27.4240   41.4400 C   0  0  0  0  0  0  0  0  0  0  0  0
   38.2440   28.2140   42.4710 C   0  0  0  0  0  0  0  0  0  0  0  0
   38.2710   29.5810   42.2960 C   0  0  0  0  0  0  0  0  0  0  0  0
   37.8080   30.0610   41.1190 N   0  0  0  0  0  0  0  0  0  0  0  0
   37.3350   29.2820   40.1350 C   0  0  0  0  0  0  0  0  0  0  0  0
   37.2960   27.9530   40.2740 N   0  0  0  0  0  0  0  0  0  0  0  0
   36.8830   29.9270   38.9490 N   0  0  0  0  0  0  0  0  0  0  0  0
   36.0750   29.2610   37.9210 C   0  0  0  0  0  0  0  0  0  0  0  0
   36.6360   29.8590   36.6580 C   0  0  0  0  0  0  0  0  0  0  0  0
   37.5150   31.0110   37.0600 C   0  0  0  0  0  0  0  0  0  0  0  0
   37.0800   31.2730   38.4930 C   0  0  2  0  0  0  0  0  0  0  0  0
   37.6810   26.3260   41.4680 H   0  0  0  0  0  0  0  0  0  0  0  0
   38.6570   30.1850   43.1030 H   0  0  0  0  0  0  0  0  0  0  0  0
   36.1680   28.1650   37.9880 H   0  0  0  0  0  0  0  0  0  0  0  0
   35.0330   29.5770   38.1300 H   0  0  0  0  0  0  0  0  0  0  0  0
   35.8200   30.1690   35.9660 H   0  0  0  0  0  0  0  0  0  0  0  0
   37.2520   29.0910   36.1670 H   0  0  0  0  0  0  0  0  0  0  0  0
   38.5890   30.6980   37.0790 H   0  0  0  0  0  0  0  0  0  0  0  0
   37.4120   31.8820   36.4140 H   0  0  0  0  0  0  0  0  0  0  0  0
   36.1040   31.7880   38.4480 H   0  0  0  0  0  0  0  0  0  0  0  0
   38.0980   32.0430   39.2340 C   0  0  0  0  0  0  0  0  0  0  0  0
   39.4370   31.8660   38.8700 C   0  0  0  0  0  3  0  0  0  0  0  0
   40.4700   32.5240   39.4960 C   0  0  0  0  0  0  0  0  0  0  0  0
   41.4860   32.3500   39.1760 H   0  0  0  0  0  0  0  0  0  0  0  0
   40.1260   33.3740   40.5050 N   0  0  0  0  0  0  0  0  0  0  0  0
   38.8460   33.5640   40.8770 C   0  0  0  0  0  3  0  0  0  0  0  0
   37.8500   32.8920   40.2310 N   0  0  0  0  0  0  0  0  0  0  0  0
   38.6930   27.5320   43.6510 N   0  0  0  0  0  0  0  0  0  0  0  0
   39.2460   26.6750   43.5290 H   0  0  0  0  0  0  0  0  0  0  0  0
   38.4580   27.9050   44.6150 H   0  0  0  0  0  0  0  0  0  0  0  0
  1 12  1  0  0  0  0
  1  2  1  0  0  0  0
  2 28  1  0  0  0  0
  3  2  2  0  0  0  0
  3 13  1  0  0  0  0
  4  3  1  0  0  0  0
  5  6  1  0  0  0  0
  5  4  2  0  0  0  0
  6  1  2  0  0  0  0
  7  5  1  0  0  0  0
  8 14  1  0  0  0  0
  8 15  1  0  0  0  0
  8  7  1  0  0  0  0
  9 10  1  0  0  0  0
  9  8  1  0  0  0  0
 10 18  1  0  0  0  0
 10 11  1  0  0  0  0
 11 20  1  1  0  0  0
 11  7  1  0  0  0  0
 11 21  1  0  0  0  0
 16  9  1  0  0  0  0
 17  9  1  0  0  0  0
 19 10  1  0  0  0  0
 21 27  1  0  0  0  0
 22 21  2  0  0  0  0
 22 23  1  0  0  0  0
 23 25  2  0  0  0  0
 24 23  1  0  0  0  0
 25 26  1  0  0  0  0
 27 26  2  0  0  0  0
 28 30  1  0  0  0  0
 29 28  1  0  0  0  0
M  END
>  <minimizedAffinity>
-4.60251665

$$$$

 OpenBabel03252506323D

 30 32  0  0  1  0  0  0  0  0999 V2000
   37.2280   26.9530   36.3670 C   0  0  0  0  0  0  0  0  0  0  0  0
   37.5410   28.2750   36.0700 C   0  0  0  0  0  0  0  0  0  0  0  0
   37.9810   29.0900   37.0900 C   0  0  0  0  0  0  0  0  0  0  0  0
   38.0780   28.5390   38.3220 N   0  0  0  0  0  0  0  0  0  0  0  0
   37.7710   27.2610   38.5880 C   0  0  0  0  0  0  0  0  0  0  0  0
   37.3420   26.4440   37.6210 N   0  0  0  0  0  0  0  0  0  0  0  0
   37.9200   26.8190   39.9340 N   0  0  0  0  0  0  0  0  0  0  0  0
   37.9170   25.4050   40.3280 C   0  0  0  0  0  0  0  0  0  0  0  0
   37.1770   25.4560   41.6380 C   0  0  0  0  0  0  0  0  0  0  0  0
   37.0590   26.9030   42.0300 C   0  0  0  0  0  0  0  0  0  0  0  0
   38.0980   27.5700   41.1430 C   0  0  2  0  0  0  0  0  0  0  0  0
   36.8690   26.2140   35.6350 H   0  0  0  0  0  0  0  0  0  0  0  0
   38.2200   30.1140   36.8490 H   0  0  0  0  0  0  0  0  0  0  0  0
   37.4400   24.7760   39.5580 H   0  0  0  0  0  0  0  0  0  0  0  0
   38.9880   25.1390   40.4390 H   0  0  0  0  0  0  0  0  0  0  0  0
   37.6960   24.8480   42.4140 H   0  0  0  0  0  0  0  0  0  0  0  0
   36.1700   25.0450   41.4730 H   0  0  0  0  0  0  0  0  0  0  0  0
   36.0550   27.3060   41.7470 H   0  0  0  0  0  0  0  0  0  0  0  0
   37.2240   27.0800   43.0920 H   0  0  0  0  0  0  0  0  0  0  0  0
   39.0890   27.3400   41.5710 H   0  0  0  0  0  0  0  0  0  0  0  0
   37.8520   29.0210   41.0210 C   0  0  0  0  0  0  0  0  0  0  0  0
   36.5250   29.4610   41.0840 C   0  0  0  0  0  3  0  0  0  0  0  0
   36.1780   30.7870   40.9740 C   0  0  0  0  0  0  0  0  0  0  0  0
   35.1390   31.0730   41.0290 H   0  0  0  0  0  0  0  0  0  0  0  0
   37.2010   31.6710   40.7980 N   0  0  0  0  0  0  0  0  0  0  0  0
   38.4870   31.2760   40.7340 C   0  0  0  0  0  3  0  0  0  0  0  0
   38.7900   29.9510   40.8470 N   0  0  0  0  0  0  0  0  0  0  0  0
   37.3780   28.6880   34.7060 N   0  0  0  0  0  0  0  0  0  0  0  0
   36.5360   28.3740   34.2070 H   0  0  0  0  0  0  0  0  0  0  0  0
   38.1050   29.2960   34.2330 H   0  0  0  0  0  0  0  0  0  0  0  0
  1  6  1  0  0  0  0
  2  1  2  0  0  0  0
  2  3  1  0  0  0  0
  3  4  2  0  0  0  0
  4  5  1  0  0  0  0
  5  7  1  0  0  0  0
  6  5  2  0  0  0  0
  7  8  1  0  0  0  0
  7 11  1  0  0  0  0
  8 15  1  0  0  0  0
  8  9  1  0  0  0  0
  9 10  1  0  0  0  0
  9 16  1  0  0  0  0
 10 19  1  0  0  0  0
 11 20  1  1  0  0  0
 11 10  1  0  0  0  0
 12  1  1  0  0  0  0
 13  3  1  0  0  0  0
 14  8  1  0  0  0  0
 17  9  1  0  0  0  0
 18 10  1  0  0  0  0
 21 22  1  0  0  0  0
 21 11  1  0  0  0  0
 23 24  1  0  0  0  0
 23 22  2  0  0  0  0
 25 23  1  0  0  0  0
 26 25  2  0  0  0  0
 26 27  1  0  0  0  0
 27 21  2  0  0  0  0
 28  2  1  0  0  0  0
 29 28  1  0  0  0  0
 30 28  1  0  0  0  0
M  END
>  <minimizedAffinity>
-4.58456373

$$$$
