
 OpenBabel03252507583D

 25 27  0  0  1  0  0  0  0  0999 V2000
   46.5980   32.3930   45.9960 C   0  0  1  0  0  0  0  0  0  0  0  0
   46.9560   32.6330   47.4220 C   0  0  0  0  0  0  0  0  0  0  0  0
   45.6240   32.0650   47.0860 C   0  0  2  0  0  0  0  0  0  0  0  0
   47.1970   31.6600   45.4510 H   0  0  0  0  0  0  0  0  0  0  0  0
   46.9540   33.6970   47.7590 H   0  0  0  0  0  0  0  0  0  0  0  0
   47.7640   32.0300   47.8330 H   0  0  0  0  0  0  0  0  0  0  0  0
   44.7310   32.6810   47.2310 H   0  0  0  0  0  0  0  0  0  0  0  0
   46.3740   34.7340   43.1830 C   0  0  0  0  0  0  0  0  0  0  0  0
   45.3580   35.6330   43.5770 C   0  0  0  0  0  0  0  0  0  0  0  0
   44.7490   35.4170   44.8250 C   0  0  0  0  0  0  0  0  0  0  0  0
   45.1700   34.3630   45.5740 N   0  0  0  0  0  0  0  0  0  0  0  0
   46.1580   33.5330   45.1290 C   0  0  0  0  0  0  0  0  0  0  0  0
   46.7650   33.6980   43.9550 N   0  0  0  0  0  0  0  0  0  0  0  0
   45.0370   36.4520   42.9850 H   0  0  0  0  0  0  0  0  0  0  0  0
   43.9690   36.0680   45.1810 H   0  0  0  0  0  0  0  0  0  0  0  0
   46.9520   35.0210   41.9050 C   0  0  0  0  0  0  0  0  0  0  0  0
   48.1340   35.4360   41.7070 O   0  0  0  0  0  0  0  0  0  0  0  0
   46.2270   34.8290   41.1110 H   0  0  0  0  0  0  0  0  0  0  0  0
   45.3970   30.5890   47.2420 C   0  0  0  0  0  0  0  0  0  0  0  0
   45.3470   29.7530   46.1340 C   0  0  0  0  0  3  0  0  0  0  0  0
   45.1330   28.4130   46.3780 C   0  0  0  0  0  0  0  0  0  0  0  0
   45.0950   27.7650   45.5080 H   0  0  0  0  0  0  0  0  0  0  0  0
   44.9740   27.8770   47.6000 N   0  0  0  0  0  0  0  0  0  0  0  0
   45.0280   28.7170   48.6510 C   0  0  0  0  0  3  0  0  0  0  0  0
   45.2350   30.0330   48.4580 N   0  0  0  0  0  0  0  0  0  0  0  0
  1  4  1  6  0  0  0
  1  3  1  0  0  0  0
  1  2  1  0  0  0  0
  2  5  1  0  0  0  0
  2  6  1  0  0  0  0
  3  7  1  1  0  0  0
  3 19  1  0  0  0  0
  3  2  1  0  0  0  0
  8  9  2  0  0  0  0
  8 13  1  0  0  0  0
  9 10  1  0  0  0  0
 10 15  1  0  0  0  0
 10 11  2  0  0  0  0
 12 11  1  0  0  0  0
 12  1  1  0  0  0  0
 13 12  2  0  0  0  0
 14  9  1  0  0  0  0
 16  8  1  0  0  0  0
 17 16  2  0  0  0  0
 18 16  1  0  0  0  0
 19 25  1  0  0  0  0
 20 21  1  0  0  0  0
 20 19  2  0  0  0  0
 21 23  2  0  0  0  0
 22 21  1  0  0  0  0
 23 24  1  0  0  0  0
 25 24  2  0  0  0  0
M  END
>  <minimizedAffinity>
-4.36557245

>  <minimizedRMSD>
1.09628439

$$$$
