
     RDKit          3D

 25 27  0  0  0  0  0  0  0  0999 V2000
   44.5992   35.8031   44.7326 C   0  0  0  0  0  0  0  0  0  0  0  0
   45.2754   35.5618   43.5088 C   0  0  0  0  0  0  0  0  0  0  0  0
   46.1195   34.4497   43.4163 C   0  0  0  0  0  0  0  0  0  0  0  0
   46.2429   33.6522   44.5263 N   0  0  0  0  0  0  0  0  0  0  0  0
   45.5770   33.9235   45.6720 C   0  0  0  0  0  0  0  0  0  0  0  0
   44.7553   34.9966   45.7790 N   0  0  0  0  0  0  0  0  0  0  0  0
   45.8685   32.9324   46.7094 C   0  0  0  0  0  0  0  0  0  0  0  0
   45.0994   32.7712   47.8962 C   0  0  0  0  0  0  0  0  0  0  0  0
   45.4823   31.8094   48.7755 C   0  0  0  0  0  0  0  0  0  0  0  0
   46.6179   31.0133   48.4823 C   0  0  0  0  0  0  0  0  0  0  0  0
   47.1736   31.6658   46.8686 S   0  0  0  0  0  0  0  0  0  0  0  0
   43.9685   36.6560   44.7629 H   0  0  0  0  0  0  0  0  0  0  0  0
   45.1837   36.1846   42.6305 H   0  0  0  0  0  0  0  0  0  0  0  0
   46.6713   34.1936   42.5222 H   0  0  0  0  0  0  0  0  0  0  0  0
   44.2405   33.4003   48.0801 H   0  0  0  0  0  0  0  0  0  0  0  0
   44.9947   31.5874   49.6951 H   0  0  0  0  0  0  0  0  0  0  0  0
   47.2511   29.9809   49.1490 C   0  0  0  0  0  0  0  0  0  0  0  0
   47.7715   30.1915   50.4077 C   0  0  0  0  0  0  0  0  0  0  0  0
   48.4017   29.1100   51.0350 C   0  0  0  0  0  0  0  0  0  0  0  0
   48.8126   29.2633   52.0200 H   0  0  0  0  0  0  0  0  0  0  0  0
   48.4763   27.9142   50.3928 N   0  0  0  0  0  0  0  0  0  0  0  0
   47.9574   27.7442   49.1647 C   0  0  0  0  0  0  0  0  0  0  0  0
   47.3397   28.7879   48.5389 N   0  0  0  0  0  0  0  0  0  0  0  0
   47.7159   31.1424   50.9261 H   0  0  0  0  0  0  0  0  0  0  0  0
   48.0620   26.7637   48.7315 H   0  0  0  0  0  0  0  0  0  0  0  0
  1  6  2  0
  2  1  1  0
  3  2  2  0
  3  4  1  0
  4  5  2  0
  5  6  1  0
  5  7  1  0
  7 11  1  0
  7  8  2  0
  8  9  1  0
 10  9  2  0
 11 10  1  0
  1 12  1  0
  2 13  1  0
  3 14  1  0
  8 15  1  0
  9 16  1  0
 17 18  2  0
 18 19  1  0
 19 20  1  0
 19 21  2  0
 21 22  1  0
 22 23  2  0
 23 17  1  0
 18 24  1  0
 22 25  1  0
 10 17  1  0
M  ISO  6  12  14  13  14  14  14  15  14  16  14  20  14
M  END
>  <DihAtoms>  (1) 
8,9,16,17

>  <DihDeg>  (1) 
-179.99909987221852

$$$$
