
 OpenBabel03242518323D

 26 28  0  0  0  0  0  0  0  0999 V2000
   47.3350   33.8910   39.7650 C   0  0  0  0  0  0  0  0  0  0  0  0
   48.3210   34.6600   39.1780 C   0  0  0  0  0  0  0  0  0  0  0  0
   48.3370   34.3660   37.8290 C   0  0  0  0  0  0  0  0  0  0  0  0
   47.3460   33.4160   37.6440 C   0  0  0  0  0  0  0  0  0  0  0  0
   46.7820   33.1670   38.8090 O   0  0  0  0  0  0  0  0  0  0  0  0
   48.9070   35.3320   39.7690 H   0  0  0  0  0  0  0  0  0  0  0  0
   49.0060   34.8140   37.1120 H   0  0  0  0  0  0  0  0  0  0  0  0
   47.0130   32.8170   36.3550 C   0  0  0  0  0  0  0  0  0  0  0  0
   48.0100   32.4260   35.4640 C   0  0  0  0  0  0  0  0  0  0  0  0
   47.5780   31.8710   34.2770 C   0  0  0  0  0  0  0  0  0  0  0  0
   48.4150   31.5860   33.6220 H   0  0  0  0  0  0  0  0  0  0  0  0
   46.2870   31.6930   33.9430 N   0  0  0  0  0  0  0  0  0  0  0  0
   45.3630   32.0950   34.8530 C   0  0  0  0  0  0  0  0  0  0  0  0
   45.6950   32.6470   36.0410 N   0  0  0  0  0  0  0  0  0  0  0  0
   46.8890   33.7860   41.0880 O   0  0  0  0  0  0  0  0  0  0  0  0
   47.2040   34.7870   42.0210 C   0  0  0  0  0  0  0  0  0  0  0  0
   48.1840   35.5280   41.7470 O   0  0  0  0  0  0  0  0  0  0  0  0
   46.3610   34.8420   43.1760 C   0  0  0  0  0  0  0  0  0  0  0  0
   45.4870   35.9040   43.1600 C   0  0  0  0  0  0  0  0  0  0  0  0
   44.6180   36.0300   44.2690 C   0  0  0  0  0  0  0  0  0  0  0  0
   44.7000   35.1120   45.2590 N   0  0  0  0  0  0  0  0  0  0  0  0
   45.5830   34.0950   45.2090 C   0  0  0  0  0  0  0  0  0  0  0  0
   46.4180   33.9590   44.1610 N   0  0  0  0  0  0  0  0  0  0  0  0
   45.3750   36.6680   42.4010 H   0  0  0  0  0  0  0  0  0  0  0  0
   43.9020   36.8400   44.3290 H   0  0  0  0  0  0  0  0  0  0  0  0
   45.6830   33.3340   45.9830 H   0  0  0  0  0  0  0  0  0  0  0  0
  1 15  1  0  0  0  0
  2  1  2  0  0  0  0
  2  6  1  0  0  0  0
  3  2  1  0  0  0  0
  4  3  2  0  0  0  0
  4  5  1  0  0  0  0
  5  1  1  0  0  0  0
  7  3  1  0  0  0  0
  8  4  1  0  0  0  0
  9  8  2  0  0  0  0
 10  9  1  0  0  0  0
 11 10  1  0  0  0  0
 12 10  2  0  0  0  0
 12 13  1  0  0  0  0
 13 14  2  0  0  0  0
 14  8  1  0  0  0  0
 15 16  1  0  0  0  0
 16 18  1  0  0  0  0
 17 16  2  0  0  0  0
 18 23  1  0  0  0  0
 19 18  2  0  0  0  0
 19 20  1  0  0  0  0
 20 25  1  0  0  0  0
 20 21  2  0  0  0  0
 22 21  1  0  0  0  0
 22 26  1  0  0  0  0
 23 22  2  0  0  0  0
 24 19  1  0  0  0  0
M  END
>  <minimizedAffinity>
-5.11107159

>  <minimizedRMSD>
0.83224529

$$$$
