
 OpenBabel03242520173D

 29 31  0  0  0  0  0  0  0  0999 V2000
   43.9440   34.6270   41.3440 C   0  0  0  0  0  0  0  0  0  0  0  0
   42.7930   35.3710   41.0320 C   0  0  0  0  0  0  0  0  0  0  0  0
   42.1910   35.1620   39.7730 C   0  0  0  0  0  0  0  0  0  0  0  0
   42.7690   34.2490   38.9400 N   0  0  0  0  0  0  0  0  0  0  0  0
   43.8940   33.5570   39.3080 C   0  0  0  0  0  0  0  0  0  0  0  0
   44.4740   33.7410   40.4900 N   0  0  0  0  0  0  0  0  0  0  0  0
   42.4080   36.0730   41.7500 H   0  0  0  0  0  0  0  0  0  0  0  0
   44.2390   32.8670   38.5430 H   0  0  0  0  0  0  0  0  0  0  0  0
   44.5650   34.8450   42.6720 C   0  0  0  0  0  0  0  0  0  0  0  0
   46.0560   35.2920   42.5740 C   0  0  0  0  0  0  0  0  0  0  0  0
   44.9640   36.1270   43.1690 C   0  0  0  0  0  0  0  0  0  0  0  0
   44.4230   33.9850   43.3630 H   0  0  0  0  0  0  0  0  0  0  0  0
   46.4410   35.5620   41.5810 H   0  0  0  0  0  0  0  0  0  0  0  0
   46.7500   34.8190   43.2970 H   0  0  0  0  0  0  0  0  0  0  0  0
   44.9830   36.2600   44.2860 H   0  0  0  0  0  0  0  0  0  0  0  0
   44.7750   37.0940   42.6720 H   0  0  0  0  0  0  0  0  0  0  0  0
   40.9900   35.9110   39.3860 C   0  0  0  0  0  0  0  0  0  0  0  0
   40.8130   35.7890   38.3110 H   0  0  0  0  0  0  0  0  0  0  0  0
   41.2230   36.9840   39.5390 H   0  0  0  0  0  0  0  0  0  0  0  0
   39.7780   35.4900   40.2110 C   0  0  0  0  0  0  0  0  0  0  0  0
   39.9460   35.6610   41.2850 H   0  0  0  0  0  0  0  0  0  0  0  0
   38.9720   36.2300   39.9280 H   0  0  0  0  0  0  0  0  0  0  0  0
   39.2500   34.1740   39.8670 C   0  0  0  0  0  0  0  0  0  0  0  0
   38.8960   33.6160   38.6740 C   0  0  0  0  0  0  0  0  0  0  0  0
   38.4000   32.3390   38.5860 C   0  0  0  0  0  0  0  0  0  0  0  0
   38.1360   31.9480   37.6160 H   0  0  0  0  0  0  0  0  0  0  0  0
   38.2510   31.5920   39.6960 N   0  0  0  0  0  0  0  0  0  0  0  0
   38.5990   32.1370   40.8730 C   0  0  0  0  0  0  0  0  0  0  0  0
   39.0840   33.3850   40.9720 N   0  0  0  0  0  0  0  0  0  0  0  0
  1  9  1  0  0  0  0
  2  1  1  0  0  0  0
  2  7  1  0  0  0  0
  3  2  2  0  0  0  0
  4  5  2  0  0  0  0
  4  3  1  0  0  0  0
  5  6  1  0  0  0  0
  6  1  2  0  0  0  0
  8  5  1  0  0  0  0
  9 11  1  0  0  0  0
  9 12  1  0  0  0  0
 10  9  1  0  0  0  0
 10 11  1  0  0  0  0
 10 14  1  0  0  0  0
 11 15  1  0  0  0  0
 13 10  1  0  0  0  0
 16 11  1  0  0  0  0
 17 19  1  0  0  0  0
 17  3  1  0  0  0  0
 17 20  1  0  0  0  0
 18 17  1  0  0  0  0
 20 21  1  0  0  0  0
 22 20  1  0  0  0  0
 23 20  1  0  0  0  0
 23 29  1  0  0  0  0
 24 23  2  0  0  0  0
 25 24  1  0  0  0  0
 25 27  2  0  0  0  0
 26 25  1  0  0  0  0
 27 28  1  0  0  0  0
 28 29  2  0  0  0  0
M  END
>  <minimizedAffinity>
-4.7610755

>  <minimizedRMSD>
2.47895741

$$$$
