
 OpenBabel03252504293D

 25 26  0  0  0  0  0  0  0  0999 V2000
   36.0950   29.7950   39.8700 O   0  0  0  0  0  0  0  0  0  0  0  0
   37.3170   30.1480   39.3580 C   0  0  0  0  0  0  0  0  0  0  0  0
   37.1570   30.2420   38.2230 H   0  0  0  0  0  0  0  0  0  0  0  0
   38.0990   29.3840   39.4780 H   0  0  0  0  0  0  0  0  0  0  0  0
   37.1160   32.5200   39.3220 C   0  0  0  0  0  0  0  0  0  0  0  0
   37.8510   31.4410   39.8290 C   0  0  0  0  0  0  0  0  0  0  0  0
   38.9200   31.7230   40.6330 C   0  0  0  0  0  0  0  0  0  0  0  0
   39.1840   33.0180   40.8730 N   0  0  0  0  0  0  0  0  0  0  0  0
   38.4860   34.0390   40.3900 C   0  0  0  0  0  0  0  0  0  0  0  0
   37.3890   33.8340   39.5690 N   0  0  0  0  0  0  0  0  0  0  0  0
   36.2370   32.4470   38.6670 H   0  0  0  0  0  0  0  0  0  0  0  0
   39.4290   30.8360   40.9810 H   0  0  0  0  0  0  0  0  0  0  0  0
   38.7660   35.0500   40.6320 H   0  0  0  0  0  0  0  0  0  0  0  0
   35.8170   28.8350   40.8250 C   0  0  0  0  0  3  0  0  0  0  0  0
   36.7530   28.5750   41.7540 C   0  0  0  0  0  3  0  0  0  0  0  0
   36.6360   27.5920   42.8970 C   0  0  0  0  0  0  0  0  0  0  0  0
   36.4740   28.1300   43.8500 H   0  0  0  0  0  0  0  0  0  0  0  0
   35.7260   26.9880   42.6870 H   0  0  0  0  0  0  0  0  0  0  0  0
   37.7900   26.6580   42.9340 C   0  0  0  0  0  0  0  0  0  0  0  0
   38.9510   26.9150   43.6650 C   0  0  0  0  0  3  0  0  0  0  0  0
   40.0000   26.0180   43.6720 C   0  0  0  0  0  0  0  0  0  0  0  0
   40.9000   26.2120   44.2360 H   0  0  0  0  0  0  0  0  0  0  0  0
   39.8960   24.8800   42.9600 N   0  0  0  0  0  0  0  0  0  0  0  0
   38.7640   24.6210   42.2420 C   0  0  0  0  0  3  0  0  0  0  0  0
   37.7420   25.4980   42.2370 N   0  0  0  0  0  0  0  0  0  0  0  0
  1 14  1  0  0  0  0
  2  4  1  0  0  0  0
  2  6  1  0  0  0  0
  2  1  1  0  0  0  0
  3  2  1  0  0  0  0
  5 10  2  0  0  0  0
  5  6  1  0  0  0  0
  6  7  2  0  0  0  0
  7  8  1  0  0  0  0
  7 12  1  0  0  0  0
  9 13  1  0  0  0  0
  9  8  2  0  0  0  0
 10  9  1  0  0  0  0
 11  5  1  0  0  0  0
 14 15  2  0  0  0  0
 15 16  1  0  0  0  0
 16 19  1  0  0  0  0
 16 17  1  0  0  0  0
 18 16  1  0  0  0  0
 19 20  1  0  0  0  0
 20 21  2  0  0  0  0
 21 22  1  0  0  0  0
 23 21  1  0  0  0  0
 24 23  2  0  0  0  0
 25 24  1  0  0  0  0
 25 19  2  0  0  0  0
M  END
>  <minimizedAffinity>
-4.35588312

$$$$

 OpenBabel03252504293D

 25 26  0  0  0  0  0  0  0  0999 V2000
   36.7830   29.9280   40.2820 O   0  0  0  0  0  0  0  0  0  0  0  0
   36.5010   31.2120   40.6720 C   0  0  0  0  0  0  0  0  0  0  0  0
   36.2860   31.1470   41.8000 H   0  0  0  0  0  0  0  0  0  0  0  0
   35.5880   31.6330   40.2270 H   0  0  0  0  0  0  0  0  0  0  0  0
   38.8040   31.7030   41.0220 C   0  0  0  0  0  0  0  0  0  0  0  0
   37.5980   32.1830   40.4940 C   0  0  0  0  0  0  0  0  0  0  0  0
   37.6010   33.4300   39.9350 C   0  0  0  0  0  0  0  0  0  0  0  0
   38.7650   34.1010   39.9370 N   0  0  0  0  0  0  0  0  0  0  0  0
   39.9060   33.6450   40.4390 C   0  0  0  0  0  0  0  0  0  0  0  0
   39.9830   32.3900   41.0210 N   0  0  0  0  0  0  0  0  0  0  0  0
   38.9520   30.7250   41.5000 H   0  0  0  0  0  0  0  0  0  0  0  0
   36.6340   33.7210   39.5530 H   0  0  0  0  0  0  0  0  0  0  0  0
   40.7960   34.2500   40.4000 H   0  0  0  0  0  0  0  0  0  0  0  0
   36.4590   28.7510   40.9300 C   0  0  0  0  0  3  0  0  0  0  0  0
   36.9460   28.5520   42.1670 C   0  0  0  0  0  3  0  0  0  0  0  0
   36.6870   27.3560   43.0540 C   0  0  0  0  0  0  0  0  0  0  0  0
   36.8090   27.6340   44.1180 H   0  0  0  0  0  0  0  0  0  0  0  0
   35.6210   27.0820   42.8930 H   0  0  0  0  0  0  0  0  0  0  0  0
   37.5110   26.1880   42.6500 C   0  0  0  0  0  0  0  0  0  0  0  0
   36.9730   25.0560   42.0350 C   0  0  0  0  0  3  0  0  0  0  0  0
   37.7770   23.9930   41.6770 C   0  0  0  0  0  0  0  0  0  0  0  0
   37.3660   23.1150   41.2000 H   0  0  0  0  0  0  0  0  0  0  0  0
   39.0980   24.0540   41.9270 N   0  0  0  0  0  0  0  0  0  0  0  0
   39.6320   25.1570   42.5290 C   0  0  0  0  0  3  0  0  0  0  0  0
   38.8460   26.1930   42.8780 N   0  0  0  0  0  0  0  0  0  0  0  0
  1  2  1  0  0  0  0
  1 14  1  0  0  0  0
  2  3  1  0  0  0  0
  4  2  1  0  0  0  0
  5 11  1  0  0  0  0
  6  2  1  0  0  0  0
  6  5  2  0  0  0  0
  7  8  2  0  0  0  0
  7  6  1  0  0  0  0
  8  9  1  0  0  0  0
  9 10  2  0  0  0  0
 10  5  1  0  0  0  0
 12  7  1  0  0  0  0
 13  9  1  0  0  0  0
 14 15  2  0  0  0  0
 15 16  1  0  0  0  0
 16 17  1  0  0  0  0
 18 16  1  0  0  0  0
 19 25  1  0  0  0  0
 19 16  1  0  0  0  0
 20 19  2  0  0  0  0
 21 23  2  0  0  0  0
 21 20  1  0  0  0  0
 22 21  1  0  0  0  0
 23 24  1  0  0  0  0
 24 25  2  0  0  0  0
M  END
>  <minimizedAffinity>
-4.35083961

$$$$

 OpenBabel03252504293D

 25 26  0  0  0  0  0  0  0  0999 V2000
   39.5820   25.4940   43.6790 O   0  0  0  0  0  0  0  0  0  0  0  0
   39.7400   24.4810   42.7690 C   0  0  0  0  0  0  0  0  0  0  0  0
   39.8580   23.5240   43.3960 H   0  0  0  0  0  0  0  0  0  0  0  0
   40.6580   24.5480   42.1680 H   0  0  0  0  0  0  0  0  0  0  0  0
   39.0260   23.9770   40.5540 C   0  0  0  0  0  0  0  0  0  0  0  0
   38.5990   24.2640   41.8570 C   0  0  0  0  0  0  0  0  0  0  0  0
   37.2540   24.3220   42.0870 C   0  0  0  0  0  0  0  0  0  0  0  0
   36.4420   24.0990   41.0400 N   0  0  0  0  0  0  0  0  0  0  0  0
   36.8480   23.8280   39.8060 C   0  0  0  0  0  0  0  0  0  0  0  0
   38.1970   23.7520   39.4950 N   0  0  0  0  0  0  0  0  0  0  0  0
   40.0710   23.8980   40.2230 H   0  0  0  0  0  0  0  0  0  0  0  0
   37.0120   24.5470   43.1150 H   0  0  0  0  0  0  0  0  0  0  0  0
   36.1290   23.6620   39.0220 H   0  0  0  0  0  0  0  0  0  0  0  0
   39.6280   26.8570   43.4520 C   0  0  0  0  0  3  0  0  0  0  0  0
   38.4690   27.5370   43.4340 C   0  0  0  0  0  3  0  0  0  0  0  0
   38.3020   29.0260   43.2350 C   0  0  0  0  0  0  0  0  0  0  0  0
   38.0690   29.5180   44.1990 H   0  0  0  0  0  0  0  0  0  0  0  0
   39.2920   29.4000   42.8930 H   0  0  0  0  0  0  0  0  0  0  0  0
   37.3190   29.3290   42.1650 C   0  0  0  0  0  0  0  0  0  0  0  0
   36.4130   28.3850   41.6780 C   0  0  0  0  0  3  0  0  0  0  0  0
   35.5150   28.7100   40.6820 C   0  0  0  0  0  0  0  0  0  0  0  0
   34.8120   27.9830   40.3010 H   0  0  0  0  0  0  0  0  0  0  0  0
   35.5180   29.9570   40.1760 N   0  0  0  0  0  0  0  0  0  0  0  0
   36.4000   30.8870   40.6460 C   0  0  0  0  0  3  0  0  0  0  0  0
   37.2750   30.5670   41.6190 N   0  0  0  0  0  0  0  0  0  0  0  0
  2  3  1  0  0  0  0
  2  1  1  0  0  0  0
  4  2  1  0  0  0  0
  5  6  1  0  0  0  0
  6  7  2  0  0  0  0
  6  2  1  0  0  0  0
  7 12  1  0  0  0  0
  8  7  1  0  0  0  0
  9  8  2  0  0  0  0
 10  9  1  0  0  0  0
 10  5  2  0  0  0  0
 11  5  1  0  0  0  0
 13  9  1  0  0  0  0
 14  1  1  0  0  0  0
 15 14  2  0  0  0  0
 16 15  1  0  0  0  0
 16 17  1  0  0  0  0
 18 16  1  0  0  0  0
 19 16  1  0  0  0  0
 20 19  1  0  0  0  0
 21 20  2  0  0  0  0
 22 21  1  0  0  0  0
 23 24  2  0  0  0  0
 23 21  1  0  0  0  0
 24 25  1  0  0  0  0
 25 19  2  0  0  0  0
M  END
>  <minimizedAffinity>
-4.34423304

$$$$

 OpenBabel03252504293D

 25 26  0  0  0  0  0  0  0  0999 V2000
   37.2260   32.4320   39.0030 O   0  0  0  0  0  0  0  0  0  0  0  0
   37.7230   33.3070   39.9340 C   0  0  0  0  0  0  0  0  0  0  0  0
   37.0670   33.1650   40.8680 H   0  0  0  0  0  0  0  0  0  0  0  0
   37.6170   34.3680   39.6650 H   0  0  0  0  0  0  0  0  0  0  0  0
   40.0020   33.9640   39.7270 C   0  0  0  0  0  0  0  0  0  0  0  0
   39.1210   33.0680   40.3450 C   0  0  0  0  0  0  0  0  0  0  0  0
   39.6540   32.1300   41.1830 C   0  0  0  0  0  0  0  0  0  0  0  0
   40.9870   32.1400   41.3490 N   0  0  0  0  0  0  0  0  0  0  0  0
   41.8200   32.9900   40.7610 C   0  0  0  0  0  0  0  0  0  0  0  0
   41.3560   33.9700   39.8990 N   0  0  0  0  0  0  0  0  0  0  0  0
   39.7190   34.7680   39.0320 H   0  0  0  0  0  0  0  0  0  0  0  0
   38.9070   31.4810   41.6170 H   0  0  0  0  0  0  0  0  0  0  0  0
   42.8790   32.9290   40.9490 H   0  0  0  0  0  0  0  0  0  0  0  0
   36.8570   31.1130   39.1870 C   0  0  0  0  0  3  0  0  0  0  0  0
   36.2090   30.7860   40.3180 C   0  0  0  0  0  3  0  0  0  0  0  0
   35.6940   29.4160   40.6960 C   0  0  0  0  0  0  0  0  0  0  0  0
   34.6530   29.4860   41.0670 H   0  0  0  0  0  0  0  0  0  0  0  0
   35.6810   28.8250   39.7540 H   0  0  0  0  0  0  0  0  0  0  0  0
   36.6110   28.7290   41.6400 C   0  0  0  0  0  0  0  0  0  0  0  0
   36.7180   27.3390   41.7170 C   0  0  0  0  0  3  0  0  0  0  0  0
   37.5850   26.7410   42.6100 C   0  0  0  0  0  0  0  0  0  0  0  0
   37.6720   25.6670   42.6730 H   0  0  0  0  0  0  0  0  0  0  0  0
   38.3350   27.5160   43.4150 N   0  0  0  0  0  0  0  0  0  0  0  0
   38.2370   28.8760   43.3470 C   0  0  0  0  0  3  0  0  0  0  0  0
   37.3910   29.4570   42.4750 N   0  0  0  0  0  0  0  0  0  0  0  0
  1 14  1  0  0  0  0
  1  2  1  0  0  0  0
  2  6  1  0  0  0  0
  2  3  1  0  0  0  0
  4  2  1  0  0  0  0
  5 10  2  0  0  0  0
  5  6  1  0  0  0  0
  6  7  2  0  0  0  0
  7  8  1  0  0  0  0
  7 12  1  0  0  0  0
  9 13  1  0  0  0  0
  9  8  2  0  0  0  0
 10  9  1  0  0  0  0
 11  5  1  0  0  0  0
 14 15  2  0  0  0  0
 15 16  1  0  0  0  0
 16 17  1  0  0  0  0
 16 19  1  0  0  0  0
 18 16  1  0  0  0  0
 19 20  2  0  0  0  0
 19 25  1  0  0  0  0
 20 21  1  0  0  0  0
 21 22  1  0  0  0  0
 21 23  2  0  0  0  0
 24 23  1  0  0  0  0
 25 24  2  0  0  0  0
M  END
>  <minimizedAffinity>
-4.32064152

$$$$

 OpenBabel03252504293D

 25 26  0  0  0  0  0  0  0  0999 V2000
   36.3270   28.2810   41.8070 O   0  0  0  0  0  0  0  0  0  0  0  0
   36.9330   28.0540   43.0150 C   0  0  0  0  0  0  0  0  0  0  0  0
   36.0890   27.7270   43.7230 H   0  0  0  0  0  0  0  0  0  0  0  0
   37.3710   28.9500   43.4810 H   0  0  0  0  0  0  0  0  0  0  0  0
   37.5490   25.8880   42.2430 C   0  0  0  0  0  0  0  0  0  0  0  0
   37.9470   26.9810   43.0230 C   0  0  0  0  0  0  0  0  0  0  0  0
   39.1500   26.8980   43.6670 C   0  0  0  0  0  0  0  0  0  0  0  0
   39.8580   25.7680   43.5020 N   0  0  0  0  0  0  0  0  0  0  0  0
   39.4780   24.7320   42.7640 C   0  0  0  0  0  0  0  0  0  0  0  0
   38.2720   24.7430   42.0800 N   0  0  0  0  0  0  0  0  0  0  0  0
   36.6130   25.8140   41.6710 H   0  0  0  0  0  0  0  0  0  0  0  0
   39.3800   27.7810   44.2440 H   0  0  0  0  0  0  0  0  0  0  0  0
   40.1070   23.8620   42.6850 H   0  0  0  0  0  0  0  0  0  0  0  0
   36.3080   29.4500   41.0700 C   0  0  0  0  0  3  0  0  0  0  0  0
   36.7320   29.4040   39.7950 C   0  0  0  0  0  3  0  0  0  0  0  0
   36.7620   30.5530   38.8140 C   0  0  0  0  0  0  0  0  0  0  0  0
   36.9860   30.1830   37.7950 H   0  0  0  0  0  0  0  0  0  0  0  0
   35.7320   30.9720   38.8050 H   0  0  0  0  0  0  0  0  0  0  0  0
   37.6760   31.6320   39.2650 C   0  0  0  0  0  0  0  0  0  0  0  0
   37.2340   32.9170   39.5870 C   0  0  0  0  0  3  0  0  0  0  0  0
   38.1200   33.8900   40.0030 C   0  0  0  0  0  0  0  0  0  0  0  0
   37.7840   34.8850   40.2540 H   0  0  0  0  0  0  0  0  0  0  0  0
   39.4290   33.5900   40.0950 N   0  0  0  0  0  0  0  0  0  0  0  0
   39.8710   32.3370   39.7800 C   0  0  0  0  0  3  0  0  0  0  0  0
   39.0040   31.3890   39.3760 N   0  0  0  0  0  0  0  0  0  0  0  0
  1  2  1  0  0  0  0
  2  6  1  0  0  0  0
  2  4  1  0  0  0  0
  2  3  1  0  0  0  0
  5  6  1  0  0  0  0
  6  7  2  0  0  0  0
  7 12  1  0  0  0  0
  8  7  1  0  0  0  0
  9  8  2  0  0  0  0
 10  5  2  0  0  0  0
 10  9  1  0  0  0  0
 11  5  1  0  0  0  0
 13  9  1  0  0  0  0
 14  1  1  0  0  0  0
 15 14  2  0  0  0  0
 16 19  1  0  0  0  0
 16 15  1  0  0  0  0
 17 16  1  0  0  0  0
 18 16  1  0  0  0  0
 19 25  2  0  0  0  0
 19 20  1  0  0  0  0
 20 21  2  0  0  0  0
 21 23  1  0  0  0  0
 21 22  1  0  0  0  0
 24 23  2  0  0  0  0
 25 24  1  0  0  0  0
M  END
>  <minimizedAffinity>
-4.1976099

$$$$

 OpenBabel03252504293D

 25 26  0  0  0  0  0  0  0  0999 V2000
   35.8720   27.9550   40.3010 O   0  0  0  0  0  0  0  0  0  0  0  0
   35.3070   29.2040   40.2480 C   0  0  0  0  0  0  0  0  0  0  0  0
   35.1250   29.5030   41.3440 H   0  0  0  0  0  0  0  0  0  0  0  0
   34.3170   29.2360   39.7710 H   0  0  0  0  0  0  0  0  0  0  0  0
   36.5370   31.2130   40.5920 C   0  0  0  0  0  0  0  0  0  0  0  0
   36.1500   30.2550   39.6460 C   0  0  0  0  0  0  0  0  0  0  0  0
   36.5690   30.4300   38.3570 C   0  0  0  0  0  0  0  0  0  0  0  0
   37.3210   31.5130   38.0970 N   0  0  0  0  0  0  0  0  0  0  0  0
   37.6850   32.4200   38.9950 C   0  0  0  0  0  0  0  0  0  0  0  0
   37.3010   32.3100   40.3220 N   0  0  0  0  0  0  0  0  0  0  0  0
   36.2770   31.2030   41.6600 H   0  0  0  0  0  0  0  0  0  0  0  0
   36.2280   29.6490   37.6940 H   0  0  0  0  0  0  0  0  0  0  0  0
   38.2910   33.2600   38.7020 H   0  0  0  0  0  0  0  0  0  0  0  0
   36.7400   27.4530   41.2520 C   0  0  0  0  0  3  0  0  0  0  0  0
   36.6970   27.9760   42.4900 C   0  0  0  0  0  3  0  0  0  0  0  0
   37.5330   27.5510   43.6750 C   0  0  0  0  0  0  0  0  0  0  0  0
   37.3390   28.2160   44.5390 H   0  0  0  0  0  0  0  0  0  0  0  0
   37.1810   26.5310   43.9450 H   0  0  0  0  0  0  0  0  0  0  0  0
   38.9710   27.4470   43.3210 C   0  0  0  0  0  0  0  0  0  0  0  0
   39.7370   28.5450   42.9280 C   0  0  0  0  0  3  0  0  0  0  0  0
   41.0720   28.4020   42.6080 C   0  0  0  0  0  0  0  0  0  0  0  0
   41.6700   29.2480   42.3040 H   0  0  0  0  0  0  0  0  0  0  0  0
   41.6370   27.1820   42.6780 N   0  0  0  0  0  0  0  0  0  0  0  0
   40.8950   26.1020   43.0610 C   0  0  0  0  0  3  0  0  0  0  0  0
   39.5930   26.2440   43.3730 N   0  0  0  0  0  0  0  0  0  0  0  0
  1 14  1  0  0  0  0
  2  1  1  0  0  0  0
  2  3  1  0  0  0  0
  4  2  1  0  0  0  0
  5 11  1  0  0  0  0
  6  2  1  0  0  0  0
  6  5  2  0  0  0  0
  7  6  1  0  0  0  0
  8  7  2  0  0  0  0
  8  9  1  0  0  0  0
  9 10  2  0  0  0  0
 10  5  1  0  0  0  0
 12  7  1  0  0  0  0
 13  9  1  0  0  0  0
 14 15  2  0  0  0  0
 15 16  1  0  0  0  0
 16 18  1  0  0  0  0
 16 17  1  0  0  0  0
 19 25  1  0  0  0  0
 19 16  1  0  0  0  0
 20 19  2  0  0  0  0
 21 23  2  0  0  0  0
 21 20  1  0  0  0  0
 22 21  1  0  0  0  0
 23 24  1  0  0  0  0
 24 25  2  0  0  0  0
M  END
>  <minimizedAffinity>
-4.14217329

$$$$

 OpenBabel03252504293D

 25 26  0  0  0  0  0  0  0  0999 V2000
   36.1390   29.8240   39.4680 O   0  0  0  0  0  0  0  0  0  0  0  0
   35.7070   29.4750   40.7210 C   0  0  0  0  0  0  0  0  0  0  0  0
   34.7370   28.8800   40.5540 H   0  0  0  0  0  0  0  0  0  0  0  0
   35.4190   30.3240   41.3570 H   0  0  0  0  0  0  0  0  0  0  0  0
   37.3280   29.3280   42.4590 C   0  0  0  0  0  0  0  0  0  0  0  0
   36.6220   28.6060   41.4880 C   0  0  0  0  0  0  0  0  0  0  0  0
   36.8820   27.2700   41.3770 C   0  0  0  0  0  0  0  0  0  0  0  0
   37.8000   26.7510   42.2100 N   0  0  0  0  0  0  0  0  0  0  0  0
   38.4680   27.4370   43.1290 C   0  0  0  0  0  0  0  0  0  0  0  0
   38.2580   28.7960   43.3030 N   0  0  0  0  0  0  0  0  0  0  0  0
   37.2240   30.4040   42.6620 H   0  0  0  0  0  0  0  0  0  0  0  0
   36.2960   26.7900   40.6070 H   0  0  0  0  0  0  0  0  0  0  0  0
   39.1880   26.9430   43.7580 H   0  0  0  0  0  0  0  0  0  0  0  0
   36.7830   30.9840   39.0820 C   0  0  0  0  0  3  0  0  0  0  0  0
   36.9470   31.9540   39.9980 C   0  0  0  0  0  3  0  0  0  0  0  0
   37.6470   33.2780   39.7920 C   0  0  0  0  0  0  0  0  0  0  0  0
   37.4760   33.6460   38.7620 H   0  0  0  0  0  0  0  0  0  0  0  0
   37.1610   33.9910   40.4930 H   0  0  0  0  0  0  0  0  0  0  0  0
   39.0830   33.2000   40.1610 C   0  0  0  0  0  0  0  0  0  0  0  0
   39.6130   32.1680   40.9370 C   0  0  0  0  0  3  0  0  0  0  0  0
   40.9550   32.1350   41.2550 C   0  0  0  0  0  0  0  0  0  0  0  0
   41.3700   31.3380   41.8550 H   0  0  0  0  0  0  0  0  0  0  0  0
   41.7600   33.1180   40.8100 N   0  0  0  0  0  0  0  0  0  0  0  0
   41.2500   34.1320   40.0510 C   0  0  0  0  0  3  0  0  0  0  0  0
   39.9400   34.1610   39.7410 N   0  0  0  0  0  0  0  0  0  0  0  0
  1  2  1  0  0  0  0
  2  4  1  0  0  0  0
  2  6  1  0  0  0  0
  3  2  1  0  0  0  0
  5 11  1  0  0  0  0
  5 10  1  0  0  0  0
  6  5  2  0  0  0  0
  7  6  1  0  0  0  0
  7  8  2  0  0  0  0
  8  9  1  0  0  0  0
  9 10  2  0  0  0  0
  9 13  1  0  0  0  0
 12  7  1  0  0  0  0
 14  1  1  0  0  0  0
 14 15  2  0  0  0  0
 16 15  1  0  0  0  0
 16 19  1  0  0  0  0
 16 18  1  0  0  0  0
 17 16  1  0  0  0  0
 19 20  1  0  0  0  0
 20 21  2  0  0  0  0
 21 22  1  0  0  0  0
 23 21  1  0  0  0  0
 24 23  2  0  0  0  0
 25 24  1  0  0  0  0
 25 19  2  0  0  0  0
M  END
>  <minimizedAffinity>
-4.13486862

$$$$

 OpenBabel03252504293D

 25 26  0  0  0  0  0  0  0  0999 V2000
   36.5870   30.7370   37.6000 O   0  0  0  0  0  0  0  0  0  0  0  0
   37.7060   31.5170   37.4620 C   0  0  0  0  0  0  0  0  0  0  0  0
   37.3730   32.4170   36.8270 H   0  0  0  0  0  0  0  0  0  0  0  0
   38.5210   31.0480   36.8930 H   0  0  0  0  0  0  0  0  0  0  0  0
   39.4790   31.4450   39.0480 C   0  0  0  0  0  0  0  0  0  0  0  0
   38.2620   32.0550   38.7190 C   0  0  0  0  0  0  0  0  0  0  0  0
   37.7740   33.0010   39.5760 C   0  0  0  0  0  0  0  0  0  0  0  0
   38.5020   33.2710   40.6720 N   0  0  0  0  0  0  0  0  0  0  0  0
   39.6540   32.6910   40.9830 C   0  0  0  0  0  0  0  0  0  0  0  0
   40.2140   31.7230   40.1630 N   0  0  0  0  0  0  0  0  0  0  0  0
   39.9910   30.6720   38.4580 H   0  0  0  0  0  0  0  0  0  0  0  0
   36.8350   33.4210   39.2470 H   0  0  0  0  0  0  0  0  0  0  0  0
   40.1750   32.9660   41.8840 H   0  0  0  0  0  0  0  0  0  0  0  0
   36.3950   29.6680   38.4550 C   0  0  0  0  0  3  0  0  0  0  0  0
   35.7700   29.8940   39.6240 C   0  0  0  0  0  3  0  0  0  0  0  0
   35.4350   28.8650   40.6780 C   0  0  0  0  0  0  0  0  0  0  0  0
   34.4770   29.1200   41.1730 H   0  0  0  0  0  0  0  0  0  0  0  0
   35.2920   27.9060   40.1330 H   0  0  0  0  0  0  0  0  0  0  0  0
   36.5580   28.6720   41.6300 C   0  0  0  0  0  0  0  0  0  0  0  0
   36.7940   27.4640   42.2900 C   0  0  0  0  0  3  0  0  0  0  0  0
   37.8510   27.3290   43.1670 C   0  0  0  0  0  0  0  0  0  0  0  0
   38.0390   26.3970   43.6790 H   0  0  0  0  0  0  0  0  0  0  0  0
   38.6620   28.3810   43.3860 N   0  0  0  0  0  0  0  0  0  0  0  0
   38.4380   29.5660   42.7460 C   0  0  0  0  0  3  0  0  0  0  0  0
   37.4060   29.6960   41.8900 N   0  0  0  0  0  0  0  0  0  0  0  0
  1 14  1  0  0  0  0
  2  1  1  0  0  0  0
  2  6  1  0  0  0  0
  3  2  1  0  0  0  0
  4  2  1  0  0  0  0
  5 10  1  0  0  0  0
  6  5  2  0  0  0  0
  6  7  1  0  0  0  0
  7  8  2  0  0  0  0
  8  9  1  0  0  0  0
  9 13  1  0  0  0  0
 10  9  2  0  0  0  0
 11  5  1  0  0  0  0
 12  7  1  0  0  0  0
 14 15  2  0  0  0  0
 15 16  1  0  0  0  0
 16 17  1  0  0  0  0
 16 19  1  0  0  0  0
 18 16  1  0  0  0  0
 19 25  2  0  0  0  0
 19 20  1  0  0  0  0
 20 21  2  0  0  0  0
 21 23  1  0  0  0  0
 21 22  1  0  0  0  0
 24 23  2  0  0  0  0
 25 24  1  0  0  0  0
M  END
>  <minimizedAffinity>
-4.10317755

$$$$

 OpenBabel03252504293D

 25 26  0  0  0  0  0  0  0  0999 V2000
   39.6700   30.2660   42.5160 O   0  0  0  0  0  0  0  0  0  0  0  0
   39.7150   31.4400   41.8090 C   0  0  0  0  0  0  0  0  0  0  0  0
   40.8260   31.6080   41.5680 H   0  0  0  0  0  0  0  0  0  0  0  0
   39.4040   32.3270   42.3790 H   0  0  0  0  0  0  0  0  0  0  0  0
   37.9630   32.3880   40.5040 C   0  0  0  0  0  0  0  0  0  0  0  0
   38.9880   31.4330   40.5240 C   0  0  0  0  0  0  0  0  0  0  0  0
   39.1500   30.6530   39.4140 C   0  0  0  0  0  0  0  0  0  0  0  0
   38.3100   30.8620   38.3870 N   0  0  0  0  0  0  0  0  0  0  0  0
   37.3390   31.7670   38.3710 C   0  0  0  0  0  0  0  0  0  0  0  0
   37.1130   32.5970   39.4580 N   0  0  0  0  0  0  0  0  0  0  0  0
   37.7160   33.0820   41.3190 H   0  0  0  0  0  0  0  0  0  0  0  0
   39.9600   29.9460   39.5120 H   0  0  0  0  0  0  0  0  0  0  0  0
   36.7070   31.8710   37.5050 H   0  0  0  0  0  0  0  0  0  0  0  0
   38.5560   29.5320   42.8780 C   0  0  0  0  0  3  0  0  0  0  0  0
   38.6260   28.1920   42.7990 C   0  0  0  0  0  3  0  0  0  0  0  0
   37.5400   27.2110   43.1750 C   0  0  0  0  0  0  0  0  0  0  0  0
   37.8310   26.6450   44.0810 H   0  0  0  0  0  0  0  0  0  0  0  0
   36.6490   27.8260   43.4300 H   0  0  0  0  0  0  0  0  0  0  0  0
   37.1670   26.3420   42.0310 C   0  0  0  0  0  0  0  0  0  0  0  0
   36.9550   26.8350   40.7420 C   0  0  0  0  0  3  0  0  0  0  0  0
   36.6100   25.9910   39.7060 C   0  0  0  0  0  0  0  0  0  0  0  0
   36.4450   26.3660   38.7070 H   0  0  0  0  0  0  0  0  0  0  0  0
   36.4770   24.6730   39.9490 N   0  0  0  0  0  0  0  0  0  0  0  0
   36.6820   24.1830   41.2070 C   0  0  0  0  0  3  0  0  0  0  0  0
   37.0190   25.0090   42.2150 N   0  0  0  0  0  0  0  0  0  0  0  0
  1 14  1  0  0  0  0
  2  4  1  0  0  0  0
  2  1  1  0  0  0  0
  3  2  1  0  0  0  0
  5  6  1  0  0  0  0
  5 11  1  0  0  0  0
  6  2  1  0  0  0  0
  7 12  1  0  0  0  0
  7  6  2  0  0  0  0
  8  7  1  0  0  0  0
  9  8  2  0  0  0  0
  9 10  1  0  0  0  0
 10  5  2  0  0  0  0
 13  9  1  0  0  0  0
 15 14  2  0  0  0  0
 15 16  1  0  0  0  0
 16 18  1  0  0  0  0
 16 17  1  0  0  0  0
 19 25  1  0  0  0  0
 19 16  1  0  0  0  0
 20 19  2  0  0  0  0
 21 23  2  0  0  0  0
 21 20  1  0  0  0  0
 22 21  1  0  0  0  0
 23 24  1  0  0  0  0
 24 25  2  0  0  0  0
M  END
>  <minimizedAffinity>
-3.95945096

$$$$
