
 OpenBabel03252505343D

 28 30  0  0  0  0  0  0  0  0999 V2000
   46.5590   34.7600   42.1190 C   0  0  0  0  0  0  0  0  0  0  0  0
   47.8540   35.1820   42.0100 C   0  0  0  0  0  0  0  0  0  0  0  0
   48.6350   35.0100   40.8740 C   0  0  0  0  0  0  0  0  0  0  0  0
   48.0820   34.3750   39.7710 C   0  0  0  0  0  0  0  0  0  0  0  0
   46.7700   33.9460   39.8760 C   0  0  0  0  0  0  0  0  0  0  0  0
   46.0330   34.1350   41.0210 C   0  0  0  0  0  0  0  0  0  0  0  0
   48.3380   35.6860   42.8450 H   0  0  0  0  0  0  0  0  0  0  0  0
   49.6580   35.3590   40.8270 H   0  0  0  0  0  0  0  0  0  0  0  0
   48.6650   34.2260   38.8700 H   0  0  0  0  0  0  0  0  0  0  0  0
   46.3450   33.4460   39.0010 H   0  0  0  0  0  0  0  0  0  0  0  0
   44.4120   36.2340   44.8290 C   0  0  0  0  0  0  0  0  0  0  0  0
   45.0510   36.1120   43.5740 C   0  0  0  0  0  0  0  0  0  0  0  0
   45.8560   34.9980   43.3490 C   0  0  0  0  0  0  0  0  0  0  0  0
   45.9870   34.0870   44.3450 N   0  0  0  0  0  0  0  0  0  0  0  0
   45.3610   34.2370   45.5320 C   0  0  0  0  0  0  0  0  0  0  0  0
   44.5770   35.3050   45.7700 N   0  0  0  0  0  0  0  0  0  0  0  0
   45.5220   33.2620   46.5600 N   0  0  0  0  0  0  0  0  0  0  0  0
   43.7840   37.1140   44.9870 H   0  0  0  0  0  0  0  0  0  0  0  0
   44.9450   36.8370   42.7860 H   0  0  0  0  0  0  0  0  0  0  0  0
   44.8890   33.2460   47.3760 H   0  0  0  0  0  0  0  0  0  0  0  0
   46.2910   32.5490   46.4940 H   0  0  0  0  0  0  0  0  0  0  0  0
   44.6560   33.6600   41.0720 C   0  0  0  0  0  0  0  0  0  0  0  0
   44.1070   32.5050   41.5910 C   0  0  0  0  0  0  0  0  0  0  0  0
   42.7520   32.3090   41.5010 C   0  0  0  0  0  0  0  0  0  0  0  0
   42.3750   31.4020   41.9170 H   0  0  0  0  0  0  0  0  0  0  0  0
   41.9130   33.1930   40.9240 N   0  0  0  0  0  0  0  0  0  0  0  0
   42.4820   34.3160   40.4240 C   0  0  0  0  0  0  0  0  0  0  0  0
   43.8240   34.5720   40.4820 N   0  0  0  0  0  0  0  0  0  0  0  0
  1 13  1  0  0  0  0
  2  1  1  0  0  0  0
  2  7  1  0  0  0  0
  3  2  2  0  0  0  0
  4  5  2  0  0  0  0
  4  3  1  0  0  0  0
  5  6  1  0  0  0  0
  6 22  1  0  0  0  0
  6  1  2  0  0  0  0
  8  3  1  0  0  0  0
  9  4  1  0  0  0  0
 10  5  1  0  0  0  0
 11 18  1  0  0  0  0
 11 16  1  0  0  0  0
 12 11  2  0  0  0  0
 13 12  1  0  0  0  0
 13 14  2  0  0  0  0
 14 15  1  0  0  0  0
 15 16  2  0  0  0  0
 15 17  1  0  0  0  0
 17 20  1  0  0  0  0
 19 12  1  0  0  0  0
 21 17  1  0  0  0  0
 22 23  1  0  0  0  0
 24 23  2  0  0  0  0
 24 25  1  0  0  0  0
 26 24  1  0  0  0  0
 27 28  1  0  0  0  0
 27 26  2  0  0  0  0
 28 22  2  0  0  0  0
M  END
>  <minimizedAffinity>
-6.17800474

>  <minimizedRMSD>
0.375851601

$$$$
