REMARK  Name = 
REMARK  3 active torsions:
REMARK  status: ('A' for Active; 'I' for Inactive)
REMARK    1  A    between atoms: C_1  and  C_11
REMARK    2  A    between atoms: C_5  and  C_7
REMARK    3  A    between atoms: C_13  and  C_20
REMARK                            x       y       z     vdW  Elec       q    Type
REMARK                         _______ _______ _______ _____ _____    ______ ____
ROOT
ATOM      1  C   UNL     1      44.569  35.154  43.882  0.00  0.00    +0.000 C 
ATOM      2  C   UNL     1      44.874  36.601  44.326  0.00  0.00    +0.000 C 
ATOM      3  C   UNL     1      44.974  36.158  42.898  0.00  0.00    +0.000 C 
ATOM      4  H   UNL     1      43.507  34.851  44.029  0.00  0.00    +0.000 HD
ATOM      5  H   UNL     1      44.008  37.209  44.646  0.00  0.00    +0.000 HD
ATOM      6  H   UNL     1      45.790  36.786  44.892  0.00  0.00    +0.000 HD
ATOM      7  H   UNL     1      45.996  36.149  42.470  0.00  0.00    +0.000 HD
ENDROOT
BRANCH   1   8
ATOM      8  C   UNL     1      45.526  34.148  44.415  0.00  0.00    +0.000 A 
ATOM      9  C   UNL     1      46.506  33.607  43.541  0.00  0.00    +0.000 A 
ATOM     10  C   UNL     1      47.403  32.678  44.061  0.00  0.00    +0.000 A 
ATOM     11  N   UNL     1      47.291  32.342  45.374  0.00  0.00    +0.000 NA
ATOM     12  C   UNL     1      46.341  32.883  46.172  0.00  0.00    +0.000 A 
ATOM     13  N   UNL     1      45.458  33.790  45.682  0.00  0.00    +0.000 NA
ATOM     14  H   UNL     1      46.547  33.916  42.496  0.00  0.00    +0.000 HD
ATOM     15  H   UNL     1      48.156  32.242  43.448  0.00  0.00    +0.000 HD
BRANCH  12  16
ATOM     16  C   UNL     1      46.394  32.389  47.588  0.00  0.00    +0.000 C 
ATOM     17  F   UNL     1      45.395  32.929  48.357  0.00  0.00    +0.000 F 
ATOM     18  F   UNL     1      47.623  32.738  48.158  0.00  0.00    +0.000 F 
ATOM     19  F   UNL     1      46.364  31.001  47.574  0.00  0.00    +0.000 F 
ENDBRANCH  12  16
ENDBRANCH   1   8
BRANCH   3  20
ATOM     20  C   UNL     1      43.873  36.572  41.956  0.00  0.00    +0.000 A 
ATOM     21  C   UNL     1      43.406  35.734  40.971  0.00  0.00    +0.000 A 
ATOM     22  C   UNL     1      42.403  36.077  40.094  0.00  0.00    +0.000 A 
ATOM     23  H   UNL     1      42.036  35.417  39.319  0.00  0.00    +0.000 HD
ATOM     24  N   UNL     1      41.859  37.306  40.219  0.00  0.00    +0.000 NA
ATOM     25  C   UNL     1      42.300  38.144  41.175  0.00  0.00    +0.000 A 
ATOM     26  N   UNL     1      43.291  37.801  42.040  0.00  0.00    +0.000 NA
ENDBRANCH   3  20
TORSDOF 3
