
 OpenBabel03242520103D

 27 29  0  0  0  0  0  0  0  0999 V2000
   46.1380   32.6680   47.0740 C   0  0  0  0  0  0  0  0  0  0  0  0
   45.0740   32.3270   47.8430 C   0  0  0  0  0  0  0  0  0  0  0  0
   45.2470   31.5960   48.9930 C   0  0  0  0  0  0  0  0  0  0  0  0
   46.5240   31.2060   49.3680 C   0  0  0  0  0  0  0  0  0  0  0  0
   47.5880   31.5650   48.5720 C   0  0  0  0  0  0  0  0  0  0  0  0
   47.3690   32.2640   47.4830 N   0  0  0  0  0  0  0  0  0  0  0  0
   44.0980   32.6610   47.4980 H   0  0  0  0  0  0  0  0  0  0  0  0
   44.3500   31.3550   49.5660 H   0  0  0  0  0  0  0  0  0  0  0  0
   46.6520   30.6410   50.2600 H   0  0  0  0  0  0  0  0  0  0  0  0
   44.9340   35.0160   44.5480 C   0  0  0  0  0  0  0  0  0  0  0  0
   45.8860   34.8520   43.5190 C   0  0  0  0  0  0  0  0  0  0  0  0
   46.9280   33.9400   43.7030 C   0  0  0  0  0  0  0  0  0  0  0  0
   46.9390   33.2700   44.8840 N   0  0  0  0  0  0  0  0  0  0  0  0
   46.0300   33.4370   45.8490 C   0  0  0  0  0  0  0  0  0  0  0  0
   45.0250   34.3140   45.6790 N   0  0  0  0  0  0  0  0  0  0  0  0
   43.8780   35.9460   44.3520 N   0  0  0  0  0  0  0  0  0  0  0  0
   45.8160   35.4240   42.5930 H   0  0  0  0  0  0  0  0  0  0  0  0
   47.6810   33.7680   42.9630 H   0  0  0  0  0  0  0  0  0  0  0  0
   43.2110   36.0810   43.5760 H   0  0  0  0  0  0  0  0  0  0  0  0
   43.7920   36.6060   45.1740 H   0  0  0  0  0  0  0  0  0  0  0  0
   48.9430   31.1690   48.9420 C   0  0  0  0  0  0  0  0  0  0  0  0
   49.3790   29.8840   48.6900 C   0  0  0  0  0  0  0  0  0  0  0  0
   50.6700   29.4650   49.0290 C   0  0  0  0  0  0  0  0  0  0  0  0
   51.0430   28.4800   48.8490 H   0  0  0  0  0  0  0  0  0  0  0  0
   51.4730   30.3770   49.6170 N   0  0  0  0  0  0  0  0  0  0  0  0
   51.0600   31.6450   49.8730 C   0  0  0  0  0  0  0  0  0  0  0  0
   49.8230   31.9910   49.5300 N   0  0  0  0  0  0  0  0  0  0  0  0
  1  6  2  0  0  0  0
  1  2  1  0  0  0  0
  2  3  2  0  0  0  0
  3  4  1  0  0  0  0
  3  8  1  0  0  0  0
  4  9  1  0  0  0  0
  5 21  1  0  0  0  0
  5  4  2  0  0  0  0
  6  5  1  0  0  0  0
  7  2  1  0  0  0  0
 10 15  1  0  0  0  0
 11 12  1  0  0  0  0
 11 10  2  0  0  0  0
 12 13  2  0  0  0  0
 13 14  1  0  0  0  0
 14  1  1  0  0  0  0
 15 14  2  0  0  0  0
 16 10  1  0  0  0  0
 16 20  1  0  0  0  0
 17 11  1  0  0  0  0
 18 12  1  0  0  0  0
 19 16  1  0  0  0  0
 21 27  1  0  0  0  0
 22 21  2  0  0  0  0
 22 23  1  0  0  0  0
 23 25  2  0  0  0  0
 24 23  1  0  0  0  0
 25 26  1  0  0  0  0
 27 26  2  0  0  0  0
M  END
>  <minimizedAffinity>
-6.13101673

>  <minimizedRMSD>
1.13476574

$$$$
