
 OpenBabel03242518103D

 22 23  0  0  0  0  0  0  0  0999 V2000
   46.5140   33.2210   46.0470 C   0  0  0  0  0  0  0  0  0  0  0  0
   46.5540   32.4850   45.1930 H   0  0  0  0  0  0  0  0  0  0  0  0
   47.3770   33.8800   46.0600 H   0  0  0  0  0  0  0  0  0  0  0  0
   46.3290   32.4300   47.2590 C   0  0  0  0  0  0  0  0  0  0  0  0
   45.1100   32.2390   47.8910 C   0  0  0  0  0  0  0  0  0  0  0  0
   45.1140   31.4270   49.0560 C   0  0  0  0  0  0  0  0  0  0  0  0
   46.3030   30.8920   49.4720 N   0  0  0  0  0  0  0  0  0  0  0  0
   47.4480   31.1170   48.8110 C   0  0  0  0  0  0  0  0  0  0  0  0
   47.4440   31.8820   47.7170 N   0  0  0  0  0  0  0  0  0  0  0  0
   44.2420   32.6960   47.4930 H   0  0  0  0  0  0  0  0  0  0  0  0
   44.1660   31.2650   49.5660 H   0  0  0  0  0  0  0  0  0  0  0  0
   48.3360   30.6460   49.2270 H   0  0  0  0  0  0  0  0  0  0  0  0
   45.3050   34.1220   45.8820 C   0  0  0  0  0  0  0  0  0  0  0  0
   44.3720   33.6120   46.1970 H   0  0  0  0  0  0  0  0  0  0  0  0
   45.3930   35.0440   46.4860 H   0  0  0  0  0  0  0  0  0  0  0  0
   45.1530   34.4030   44.4300 C   0  0  0  0  0  0  0  0  0  0  0  0
   45.5120   33.4920   43.4550 C   0  0  0  0  0  0  0  0  0  0  0  0
   45.3610   33.7750   42.1170 C   0  0  0  0  0  0  0  0  0  0  0  0
   45.6540   33.0330   41.3640 H   0  0  0  0  0  0  0  0  0  0  0  0
   44.8600   34.9510   41.7070 N   0  0  0  0  0  0  0  0  0  0  0  0
   44.5120   35.8360   42.6490 C   0  0  0  0  0  0  0  0  0  0  0  0
   44.6500   35.5780   43.9790 N   0  0  0  0  0  0  0  0  0  0  0  0
  1  3  1  0  0  0  0
  1  4  1  0  0  0  0
  2  1  1  0  0  0  0
  4  9  2  0  0  0  0
  4  5  1  0  0  0  0
  5  6  2  0  0  0  0
  6  7  1  0  0  0  0
  6 11  1  0  0  0  0
  8 12  1  0  0  0  0
  8  7  2  0  0  0  0
  9  8  1  0  0  0  0
 10  5  1  0  0  0  0
 13  1  1  0  0  0  0
 13 14  1  0  0  0  0
 13 15  1  0  0  0  0
 16 13  1  0  0  0  0
 17 16  2  0  0  0  0
 18 17  1  0  0  0  0
 19 18  1  0  0  0  0
 20 18  2  0  0  0  0
 20 21  1  0  0  0  0
 21 22  2  0  0  0  0
 22 16  1  0  0  0  0
M  END
>  <minimizedAffinity>
-4.02280378

>  <minimizedRMSD>
6.41117764

$$$$
