
 OpenBabel03242516453D

 40 44  0  0  1  0  0  0  0  0999 V2000
   45.5760   32.9430   42.3120 C   0  0  0  0  0  0  0  0  0  0  0  0
   44.7580   31.8780   42.4000 N   0  0  0  0  0  0  0  0  0  0  0  0
   43.5080   32.2010   42.0600 C   0  0  0  0  0  0  0  0  0  0  0  0
   43.5330   33.5230   41.7450 N   0  0  0  0  0  0  0  0  0  0  0  0
   44.7620   33.9850   41.8890 N   0  0  0  0  0  0  0  0  0  0  0  0
   42.6180   31.5660   42.0290 H   0  0  0  0  0  0  0  0  0  0  0  0
   40.5080   32.8690   41.6370 O   0  0  0  0  0  0  0  0  0  0  0  0
   41.2710   33.5240   40.8570 C   0  0  0  0  0  0  0  0  0  0  0  0
   42.4190   34.3520   41.3070 C   0  0  2  0  0  0  0  0  0  0  0  0
   42.7850   35.1400   40.0620 C   0  0  0  0  0  0  0  0  0  0  0  0
   42.4730   34.1170   38.9600 C   0  0  0  0  0  0  0  0  0  0  0  0
   41.1960   33.6070   39.4240 N   0  0  0  0  0  0  0  0  0  0  0  0
   42.1380   35.1020   42.0790 H   0  0  0  0  0  0  0  0  0  0  0  0
   43.8620   35.3120   40.0660 H   0  0  0  0  0  0  0  0  0  0  0  0
   42.1750   36.0520   39.9590 H   0  0  0  0  0  0  0  0  0  0  0  0
   43.2450   33.3400   39.0320 H   0  0  0  0  0  0  0  0  0  0  0  0
   42.4100   34.6050   37.9720 H   0  0  0  0  0  0  0  0  0  0  0  0
   40.0930   33.2620   38.6050 C   0  0  0  0  0  0  0  0  0  0  0  0
   39.2050   34.1740   38.1080 C   0  0  0  0  0  0  0  0  0  0  0  0
   38.1260   33.8410   37.3060 C   0  0  0  0  0  0  0  0  0  0  0  0
   37.4300   34.5550   36.9180 H   0  0  0  0  0  0  0  0  0  0  0  0
   37.9550   32.5290   37.0070 N   0  0  0  0  0  0  0  0  0  0  0  0
   38.8390   31.6300   37.5040 C   0  0  0  0  0  0  0  0  0  0  0  0
   39.8760   31.9890   38.2780 N   0  0  0  0  0  0  0  0  0  0  0  0
   47.6750   32.9770   43.8930 C   0  0  1  0  0  0  0  0  0  0  0  0
   47.0130   33.0940   42.5650 C   0  0  2  0  0  0  0  0  0  0  0  0
   47.4690   34.2870   43.2420 C   0  0  0  0  0  0  0  0  0  0  0  0
   48.6780   32.5100   43.8590 H   0  0  0  0  0  0  0  0  0  0  0  0
   47.6160   32.7500   41.6710 H   0  0  0  0  0  0  0  0  0  0  0  0
   48.3880   34.8100   42.8450 H   0  0  0  0  0  0  0  0  0  0  0  0
   46.7560   35.0390   43.6540 H   0  0  0  0  0  0  0  0  0  0  0  0
   46.9620   31.2630   45.5390 C   0  0  0  0  0  0  0  0  0  0  0  0
   46.9250   32.5900   45.1140 C   0  0  0  0  0  0  0  0  0  0  0  0
   46.1970   33.4830   45.8620 C   0  0  0  0  0  0  0  0  0  0  0  0
   45.5590   33.0200   46.9700 N   0  0  0  0  0  0  0  0  0  0  0  0
   45.6070   31.7550   47.3580 C   0  0  0  0  0  0  0  0  0  0  0  0
   46.3160   30.8700   46.6350 N   0  0  0  0  0  0  0  0  0  0  0  0
   47.5150   30.4840   45.0070 H   0  0  0  0  0  0  0  0  0  0  0  0
   46.1440   34.5300   45.5610 H   0  0  0  0  0  0  0  0  0  0  0  0
   45.0270   31.6080   48.2650 H   0  0  0  0  0  0  0  0  0  0  0  0
  1  2  1  0  0  0  0
  1 26  1  0  0  0  0
  3  2  2  0  0  0  0
  4  5  1  0  0  0  0
  4  3  1  0  0  0  0
  5  1  2  0  0  0  0
  6  3  1  0  0  0  0
  8  9  1  0  0  0  0
  8  7  2  0  0  0  0
  9  4  1  0  0  0  0
  9 13  1  1  0  0  0
 10 14  1  0  0  0  0
 10  9  1  0  0  0  0
 11 16  1  0  0  0  0
 11 12  1  0  0  0  0
 11 10  1  0  0  0  0
 12  8  1  0  0  0  0
 15 10  1  0  0  0  0
 17 11  1  0  0  0  0
 18 12  1  0  0  0  0
 19 18  2  0  0  0  0
 20 19  1  0  0  0  0
 21 20  1  0  0  0  0
 22 20  2  0  0  0  0
 22 23  1  0  0  0  0
 23 24  2  0  0  0  0
 24 18  1  0  0  0  0
 25 28  1  6  0  0  0
 25 33  1  0  0  0  0
 26 29  1  6  0  0  0
 26 27  1  0  0  0  0
 26 25  1  0  0  0  0
 27 31  1  0  0  0  0
 27 25  1  0  0  0  0
 30 27  1  0  0  0  0
 32 37  1  0  0  0  0
 33 32  2  0  0  0  0
 33 34  1  0  0  0  0
 34 35  2  0  0  0  0
 35 36  1  0  0  0  0
 36 40  1  0  0  0  0
 37 36  2  0  0  0  0
 38 32  1  0  0  0  0
 39 34  1  0  0  0  0
M  END
>  <minimizedAffinity>
-5.51157999

>  <minimizedRMSD>
1.68876731

$$$$
