
 OpenBabel03252509043D

 46 48  0  0  1  0  0  0  0  0999 V2000
   46.7520   34.5550   43.4660 N   0  0  0  0  0  0  0  0  0  0  0  0
   46.2730   35.6230   42.6690 C   0  0  0  0  0  0  0  0  0  0  0  0
   44.7700   35.8000   42.6630 C   0  0  0  0  0  0  0  0  0  0  0  0
   44.0880   35.4080   43.9520 C   0  0  0  0  0  0  0  0  0  0  0  0
   45.0930   35.0400   45.0180 C   0  0  0  0  0  0  0  0  0  0  0  0
   45.9260   33.8820   44.3440 C   0  0  2  0  0  0  0  0  0  0  0  0
   46.6950   36.5690   43.1130 H   0  0  0  0  0  0  0  0  0  0  0  0
   46.5920   35.6450   41.6220 H   0  0  0  0  0  0  0  0  0  0  0  0
   44.3370   35.2520   41.7840 H   0  0  0  0  0  0  0  0  0  0  0  0
   44.5220   36.8770   42.4900 H   0  0  0  0  0  0  0  0  0  0  0  0
   43.3200   36.1250   44.2830 H   0  0  0  0  0  0  0  0  0  0  0  0
   43.5350   34.4510   43.7340 H   0  0  0  0  0  0  0  0  0  0  0  0
   45.7730   35.8570   45.2780 H   0  0  0  0  0  0  0  0  0  0  0  0
   44.5250   34.6220   45.8710 H   0  0  0  0  0  0  0  0  0  0  0  0
   45.1760   33.1740   43.9380 H   0  0  0  0  0  0  0  0  0  0  0  0
   47.8600   33.8320   42.8760 C   0  0  0  0  0  0  0  0  0  0  0  0
   48.4270   34.5760   42.2780 H   0  0  0  0  0  0  0  0  0  0  0  0
   48.5750   33.4700   43.6570 H   0  0  0  0  0  0  0  0  0  0  0  0
   47.3170   32.7600   42.0080 C   0  0  0  0  0  0  0  0  0  0  0  0
   47.5590   31.7730   42.4070 H   0  0  0  0  0  0  0  0  0  0  0  0
   46.1860   32.7880   41.9850 H   0  0  0  0  0  0  0  0  0  0  0  0
   49.1530   32.0990   38.7850 C   0  0  0  0  0  0  0  0  0  0  0  0
   48.6330   31.9650   40.0890 C   0  0  0  0  0  0  0  0  0  0  0  0
   47.8490   32.9320   40.6330 C   0  0  0  0  0  0  0  0  0  0  0  0
   47.5990   34.0040   39.8770 N   0  0  0  0  0  0  0  0  0  0  0  0
   48.0800   34.1560   38.6340 C   0  0  0  0  0  0  0  0  0  0  0  0
   48.8590   33.2160   38.0710 N   0  0  0  0  0  0  0  0  0  0  0  0
   49.7700   31.3660   38.3260 H   0  0  0  0  0  0  0  0  0  0  0  0
   48.9330   31.0420   40.5500 H   0  0  0  0  0  0  0  0  0  0  0  0
   47.7960   35.0790   38.1350 H   0  0  0  0  0  0  0  0  0  0  0  0
   46.6070   33.3740   45.4260 O   0  0  0  0  0  0  0  0  0  0  0  0
   45.4490   31.1240   44.5710 O   0  0  0  0  0  0  0  0  0  0  0  0
   46.2910   31.7580   45.7030 P   0  0  2  0  0  0  0  0  0  0  0  0
   45.2290   31.6960   47.0620 O   0  0  0  0  0  0  0  0  0  0  0  0
   45.6120   32.3130   47.7440 H   0  0  0  0  0  0  0  0  0  0  0  0
   47.6110   30.8350   46.0620 O   0  0  0  0  0  0  0  0  0  0  0  0
   47.6070   29.6650   45.3490 C   0  0  0  0  0  0  0  0  0  0  0  0
   46.5300   29.5330   45.0100 H   0  0  0  0  0  0  0  0  0  0  0  0
   47.7070   28.8360   46.1130 H   0  0  0  0  0  0  0  0  0  0  0  0
   48.5470   29.5280   44.2490 C   0  0  0  0  0  0  0  0  0  0  0  0
   47.9130   28.9570   43.1400 C   0  0  0  0  0  3  0  0  0  0  0  0
   48.6760   28.8040   41.9760 C   0  0  0  0  0  0  0  0  0  0  0  0
   48.2670   28.3660   41.0530 H   0  0  0  0  0  0  0  0  0  0  0  0
   49.9660   29.1750   41.8870 N   0  0  0  0  0  0  0  0  0  0  0  0
   50.5290   29.7190   42.9810 C   0  0  0  0  0  3  0  0  0  0  0  0
   49.8530   29.8950   44.1310 N   0  0  0  0  0  0  0  0  0  0  0  0
  1  6  1  0  0  0  0
  2  7  1  0  0  0  0
  2  1  1  0  0  0  0
  3  2  1  0  0  0  0
  3  4  1  0  0  0  0
  4 11  1  0  0  0  0
  4  5  1  0  0  0  0
  5 13  1  0  0  0  0
  5 14  1  0  0  0  0
  6 15  1  6  0  0  0
  6  5  1  0  0  0  0
  6 31  1  0  0  0  0
  8  2  1  0  0  0  0
  9  3  1  0  0  0  0
 10  3  1  0  0  0  0
 12  4  1  0  0  0  0
 16  1  1  0  0  0  0
 16 18  1  0  0  0  0
 17 16  1  0  0  0  0
 19 20  1  0  0  0  0
 19 16  1  0  0  0  0
 21 19  1  0  0  0  0
 22 23  1  0  0  0  0
 23 29  1  0  0  0  0
 23 24  2  0  0  0  0
 24 19  1  0  0  0  0
 25 24  1  0  0  0  0
 26 25  2  0  0  0  0
 27 26  1  0  0  0  0
 27 22  2  0  0  0  0
 28 22  1  0  0  0  0
 30 26  1  0  0  0  0
 31 33  1  0  0  0  0
 33 32  2  6  0  0  0
 33 36  1  0  0  0  0
 33 34  1  0  0  0  0
 34 35  1  0  0  0  0
 37 36  1  0  0  0  0
 37 39  1  0  0  0  0
 38 37  1  0  0  0  0
 40 37  1  0  0  0  0
 41 40  2  0  0  0  0
 42 41  1  0  0  0  0
 43 42  1  0  0  0  0
 44 42  2  0  0  0  0
 44 45  1  0  0  0  0
 45 46  2  0  0  0  0
 46 40  1  0  0  0  0
M  END
>  <minimizedAffinity>
-3.81968045

>  <minimizedRMSD>
1.16091585

$$$$
