
 OpenBabel03252505403D

 26 28  0  0  1  0  0  0  0  0999 V2000
   37.9400   31.5190   39.2550 C   0  0  1  0  0  0  0  0  0  0  0  0
   37.6950   32.9460   39.7940 C   0  0  0  0  0  0  0  0  0  0  0  0
   39.0120   32.2450   39.9370 C   0  0  2  0  0  0  0  0  0  0  0  0
   37.8790   31.4390   38.1460 H   0  0  0  0  0  0  0  0  0  0  0  0
   37.5840   33.7440   39.0370 H   0  0  0  0  0  0  0  0  0  0  0  0
   37.0560   33.0640   40.6720 H   0  0  0  0  0  0  0  0  0  0  0  0
   39.3030   31.9810   40.9730 H   0  0  0  0  0  0  0  0  0  0  0  0
   37.1410   30.4720   39.9450 C   0  0  0  0  0  0  0  0  0  0  0  0
   35.8590   30.1400   39.4310 C   0  0  0  0  0  0  0  0  0  0  0  0
   35.1320   29.1470   40.0800 C   0  0  0  0  0  0  0  0  0  0  0  0
   35.6880   28.5510   41.1690 N   0  0  0  0  0  0  0  0  0  0  0  0
   36.9140   28.8980   41.6260 C   0  0  0  0  0  0  0  0  0  0  0  0
   37.6370   29.8650   41.0050 N   0  0  0  0  0  0  0  0  0  0  0  0
   35.4660   30.6530   38.5530 H   0  0  0  0  0  0  0  0  0  0  0  0
   34.1660   28.8610   39.7350 H   0  0  0  0  0  0  0  0  0  0  0  0
   37.3500   28.1150   42.8290 C   0  0  0  0  0  0  0  0  0  0  0  0
   38.0760   27.0040   42.4820 F   0  0  0  0  0  0  0  0  0  0  0  0
   36.2240   27.6970   43.5460 F   0  0  0  0  0  0  0  0  0  0  0  0
   38.0480   28.9620   43.6800 F   0  0  0  0  0  0  0  0  0  0  0  0
   40.1360   32.6720   39.0290 C   0  0  0  0  0  0  0  0  0  0  0  0
   40.4880   31.9450   37.9160 C   0  0  0  0  0  3  0  0  0  0  0  0
   41.5080   32.3040   37.0650 C   0  0  0  0  0  0  0  0  0  0  0  0
   41.7830   31.7310   36.1890 H   0  0  0  0  0  0  0  0  0  0  0  0
   42.1900   33.4320   37.3510 N   0  0  0  0  0  0  0  0  0  0  0  0
   41.8640   34.1610   38.4340 C   0  0  0  0  0  3  0  0  0  0  0  0
   40.8560   33.8030   39.2720 N   0  0  0  0  0  0  0  0  0  0  0  0
  1  4  1  6  0  0  0
  1  2  1  0  0  0  0
  1  3  1  0  0  0  0
  1  8  1  0  0  0  0
  2  3  1  0  0  0  0
  2  6  1  0  0  0  0
  3  7  1  1  0  0  0
  5  2  1  0  0  0  0
  8 13  1  0  0  0  0
  9  8  2  0  0  0  0
  9 10  1  0  0  0  0
 10 11  2  0  0  0  0
 11 12  1  0  0  0  0
 12 16  1  0  0  0  0
 13 12  2  0  0  0  0
 14  9  1  0  0  0  0
 15 10  1  0  0  0  0
 16 18  1  0  0  0  0
 16 19  1  0  0  0  0
 17 16  1  0  0  0  0
 20 26  1  0  0  0  0
 20  3  1  0  0  0  0
 21 20  2  0  0  0  0
 22 24  2  0  0  0  0
 22 21  1  0  0  0  0
 23 22  1  0  0  0  0
 24 25  1  0  0  0  0
 25 26  2  0  0  0  0
M  END
>  <minimizedAffinity>
-5.03692341

$$$$

 OpenBabel03252505403D

 26 28  0  0  1  0  0  0  0  0999 V2000
   39.1820   29.2090   42.3080 C   0  0  1  0  0  0  0  0  0  0  0  0
   38.0130   29.1580   43.3160 C   0  0  0  0  0  0  0  0  0  0  0  0
   38.1360   28.1940   42.1750 C   0  0  2  0  0  0  0  0  0  0  0  0
   40.1770   28.9900   42.7590 H   0  0  0  0  0  0  0  0  0  0  0  0
   38.2620   28.8220   44.3390 H   0  0  0  0  0  0  0  0  0  0  0  0
   37.2560   29.9440   43.2700 H   0  0  0  0  0  0  0  0  0  0  0  0
   37.3610   28.2820   41.3890 H   0  0  0  0  0  0  0  0  0  0  0  0
   39.1960   30.4350   41.4660 C   0  0  0  0  0  0  0  0  0  0  0  0
   40.1610   31.4400   41.7400 C   0  0  0  0  0  0  0  0  0  0  0  0
   40.1690   32.5740   40.9320 C   0  0  0  0  0  0  0  0  0  0  0  0
   39.2550   32.6550   39.9280 N   0  0  0  0  0  0  0  0  0  0  0  0
   38.3520   31.6720   39.7030 C   0  0  0  0  0  0  0  0  0  0  0  0
   38.3290   30.5590   40.4800 N   0  0  0  0  0  0  0  0  0  0  0  0
   40.8700   31.3190   42.5590 H   0  0  0  0  0  0  0  0  0  0  0  0
   40.8710   33.3570   41.0950 H   0  0  0  0  0  0  0  0  0  0  0  0
   37.4410   31.9480   38.5430 C   0  0  0  0  0  0  0  0  0  0  0  0
   38.1080   31.9030   37.3450 F   0  0  0  0  0  0  0  0  0  0  0  0
   36.8790   33.2210   38.6840 F   0  0  0  0  0  0  0  0  0  0  0  0
   36.3770   31.0570   38.5940 F   0  0  0  0  0  0  0  0  0  0  0  0
   38.5980   26.7940   42.4860 C   0  0  0  0  0  0  0  0  0  0  0  0
   37.9330   25.6870   42.0130 C   0  0  0  0  0  3  0  0  0  0  0  0
   38.3250   24.3950   42.2760 C   0  0  0  0  0  0  0  0  0  0  0  0
   37.8020   23.5250   41.9020 H   0  0  0  0  0  0  0  0  0  0  0  0
   39.4220   24.2210   43.0410 N   0  0  0  0  0  0  0  0  0  0  0  0
   40.0900   25.2880   43.5170 C   0  0  0  0  0  3  0  0  0  0  0  0
   39.7000   26.5630   43.2540 N   0  0  0  0  0  0  0  0  0  0  0  0
  1  4  1  1  0  0  0
  1  2  1  0  0  0  0
  2  5  1  0  0  0  0
  3  7  1  6  0  0  0
  3  1  1  0  0  0  0
  3 20  1  0  0  0  0
  3  2  1  0  0  0  0
  6  2  1  0  0  0  0
  8  9  1  0  0  0  0
  8  1  1  0  0  0  0
  9 14  1  0  0  0  0
 10 15  1  0  0  0  0
 10  9  2  0  0  0  0
 11 10  1  0  0  0  0
 12 11  2  0  0  0  0
 12 13  1  0  0  0  0
 13  8  2  0  0  0  0
 16 19  1  0  0  0  0
 16 18  1  0  0  0  0
 16 12  1  0  0  0  0
 17 16  1  0  0  0  0
 20 26  1  0  0  0  0
 21 22  1  0  0  0  0
 21 20  2  0  0  0  0
 22 24  2  0  0  0  0
 23 22  1  0  0  0  0
 24 25  1  0  0  0  0
 26 25  2  0  0  0  0
M  END
>  <minimizedAffinity>
-4.91732883

$$$$

 OpenBabel03252505403D

 26 28  0  0  1  0  0  0  0  0999 V2000
   36.5420   28.9940   39.5910 C   0  0  1  0  0  0  0  0  0  0  0  0
   35.3460   29.6300   40.3320 C   0  0  0  0  0  0  0  0  0  0  0  0
   36.7500   29.7110   40.8490 C   0  0  2  0  0  0  0  0  0  0  0  0
   36.7520   29.4500   38.5970 H   0  0  0  0  0  0  0  0  0  0  0  0
   34.8910   30.5190   39.8560 H   0  0  0  0  0  0  0  0  0  0  0  0
   34.6330   28.9680   40.8280 H   0  0  0  0  0  0  0  0  0  0  0  0
   36.9460   29.1590   41.7890 H   0  0  0  0  0  0  0  0  0  0  0  0
   36.4920   27.5080   39.5350 C   0  0  0  0  0  0  0  0  0  0  0  0
   36.0070   26.8850   38.3550 C   0  0  0  0  0  0  0  0  0  0  0  0
   35.9820   25.4940   38.3150 C   0  0  0  0  0  0  0  0  0  0  0  0
   36.4220   24.8110   39.4060 N   0  0  0  0  0  0  0  0  0  0  0  0
   36.8760   25.4460   40.5110 C   0  0  0  0  0  0  0  0  0  0  0  0
   36.9080   26.8020   40.5680 N   0  0  0  0  0  0  0  0  0  0  0  0
   35.6680   27.4860   37.5110 H   0  0  0  0  0  0  0  0  0  0  0  0
   35.6270   24.9770   37.4540 H   0  0  0  0  0  0  0  0  0  0  0  0
   37.3250   24.5130   41.5970 C   0  0  0  0  0  0  0  0  0  0  0  0
   37.3640   23.2110   41.1700 F   0  0  0  0  0  0  0  0  0  0  0  0
   36.4390   24.5940   42.6770 F   0  0  0  0  0  0  0  0  0  0  0  0
   38.5500   24.9530   42.0800 F   0  0  0  0  0  0  0  0  0  0  0  0
   37.4800   31.0200   40.6940 C   0  0  0  0  0  0  0  0  0  0  0  0
   36.9600   32.0600   39.9600 C   0  0  0  0  0  3  0  0  0  0  0  0
   37.5980   33.2690   39.7980 C   0  0  0  0  0  0  0  0  0  0  0  0
   37.1870   34.0870   39.2200 H   0  0  0  0  0  0  0  0  0  0  0  0
   38.7970   33.4260   40.3950 N   0  0  0  0  0  0  0  0  0  0  0  0
   39.3270   32.4230   41.1180 C   0  0  0  0  0  3  0  0  0  0  0  0
   38.6930   31.2310   41.2780 N   0  0  0  0  0  0  0  0  0  0  0  0
  1  4  1  6  0  0  0
  1  2  1  0  0  0  0
  1  3  1  0  0  0  0
  2  6  1  0  0  0  0
  2  3  1  0  0  0  0
  3  7  1  1  0  0  0
  5  2  1  0  0  0  0
  8  1  1  0  0  0  0
  8 13  1  0  0  0  0
  9  8  2  0  0  0  0
 10  9  1  0  0  0  0
 10 11  2  0  0  0  0
 11 12  1  0  0  0  0
 12 13  2  0  0  0  0
 12 16  1  0  0  0  0
 14  9  1  0  0  0  0
 15 10  1  0  0  0  0
 16 19  1  0  0  0  0
 16 18  1  0  0  0  0
 17 16  1  0  0  0  0
 20  3  1  0  0  0  0
 20 26  1  0  0  0  0
 21 20  2  0  0  0  0
 22 21  1  0  0  0  0
 22 24  2  0  0  0  0
 23 22  1  0  0  0  0
 24 25  1  0  0  0  0
 25 26  2  0  0  0  0
M  END
>  <minimizedAffinity>
-4.85148478

$$$$

 OpenBabel03252505403D

 26 28  0  0  1  0  0  0  0  0999 V2000
   38.3140   29.8750   40.3430 C   0  0  1  0  0  0  0  0  0  0  0  0
   37.1220   30.6600   39.7530 C   0  0  0  0  0  0  0  0  0  0  0  0
   38.1690   31.3060   40.6090 C   0  0  2  0  0  0  0  0  0  0  0  0
   39.0150   29.4740   39.5760 H   0  0  0  0  0  0  0  0  0  0  0  0
   37.1370   30.8270   38.6610 H   0  0  0  0  0  0  0  0  0  0  0  0
   36.1280   30.4830   40.1710 H   0  0  0  0  0  0  0  0  0  0  0  0
   37.8240   31.6640   41.5990 H   0  0  0  0  0  0  0  0  0  0  0  0
   37.9190   28.8480   41.3440 C   0  0  0  0  0  0  0  0  0  0  0  0
   37.7310   29.2460   42.6940 C   0  0  0  0  0  0  0  0  0  0  0  0
   37.3470   28.2740   43.6140 C   0  0  0  0  0  0  0  0  0  0  0  0
   37.1740   27.0010   43.1690 N   0  0  0  0  0  0  0  0  0  0  0  0
   37.3630   26.6650   41.8710 C   0  0  0  0  0  0  0  0  0  0  0  0
   37.7380   27.5990   40.9610 N   0  0  0  0  0  0  0  0  0  0  0  0
   37.8850   30.2840   42.9920 H   0  0  0  0  0  0  0  0  0  0  0  0
   37.1940   28.5200   44.6380 H   0  0  0  0  0  0  0  0  0  0  0  0
   37.1100   25.2140   41.5840 C   0  0  0  0  0  0  0  0  0  0  0  0
   36.3830   25.0390   40.4340 F   0  0  0  0  0  0  0  0  0  0  0  0
   36.3970   24.6460   42.6450 F   0  0  0  0  0  0  0  0  0  0  0  0
   38.3290   24.5500   41.5490 F   0  0  0  0  0  0  0  0  0  0  0  0
   39.2030   32.1640   39.9260 C   0  0  0  0  0  0  0  0  0  0  0  0
   39.6370   33.3500   40.4690 C   0  0  0  0  0  3  0  0  0  0  0  0
   40.5780   34.1580   39.8750 C   0  0  0  0  0  0  0  0  0  0  0  0
   40.9200   35.0920   40.3040 H   0  0  0  0  0  0  0  0  0  0  0  0
   41.0940   33.7520   38.6970 N   0  0  0  0  0  0  0  0  0  0  0  0
   40.6860   32.5950   38.1450 C   0  0  0  0  0  3  0  0  0  0  0  0
   39.7560   31.7980   38.7360 N   0  0  0  0  0  0  0  0  0  0  0  0
  1  4  1  6  0  0  0
  1  3  1  0  0  0  0
  1  8  1  0  0  0  0
  2  6  1  0  0  0  0
  2  1  1  0  0  0  0
  2  3  1  0  0  0  0
  3  7  1  1  0  0  0
  5  2  1  0  0  0  0
  8  9  1  0  0  0  0
  9 14  1  0  0  0  0
  9 10  2  0  0  0  0
 10 15  1  0  0  0  0
 11 10  1  0  0  0  0
 12 11  2  0  0  0  0
 13  8  2  0  0  0  0
 13 12  1  0  0  0  0
 16 12  1  0  0  0  0
 16 18  1  0  0  0  0
 17 16  1  0  0  0  0
 19 16  1  0  0  0  0
 20 21  1  0  0  0  0
 20  3  1  0  0  0  0
 22 23  1  0  0  0  0
 22 21  2  0  0  0  0
 24 22  1  0  0  0  0
 25 24  2  0  0  0  0
 25 26  1  0  0  0  0
 26 20  2  0  0  0  0
M  END
>  <minimizedAffinity>
-4.81051779

$$$$

 OpenBabel03252505403D

 26 28  0  0  1  0  0  0  0  0999 V2000
   36.0710   28.2050   40.2520 C   0  0  1  0  0  0  0  0  0  0  0  0
   35.1860   29.4400   40.5300 C   0  0  0  0  0  0  0  0  0  0  0  0
   36.3110   29.4600   39.5400 C   0  0  2  0  0  0  0  0  0  0  0  0
   35.5230   27.3500   39.7950 H   0  0  0  0  0  0  0  0  0  0  0  0
   34.1440   29.3880   40.1650 H   0  0  0  0  0  0  0  0  0  0  0  0
   35.3070   29.9580   41.4840 H   0  0  0  0  0  0  0  0  0  0  0  0
   37.1720   30.1050   39.8060 H   0  0  0  0  0  0  0  0  0  0  0  0
   36.9040   27.7910   41.4120 C   0  0  0  0  0  0  0  0  0  0  0  0
   37.0350   28.6800   42.5120 C   0  0  0  0  0  0  0  0  0  0  0  0
   37.8060   28.2690   43.5960 C   0  0  0  0  0  0  0  0  0  0  0  0
   38.3900   27.0410   43.5410 N   0  0  0  0  0  0  0  0  0  0  0  0
   38.2380   26.2250   42.4720 C   0  0  0  0  0  0  0  0  0  0  0  0
   37.4900   26.6100   41.4060 N   0  0  0  0  0  0  0  0  0  0  0  0
   36.5420   29.6520   42.4990 H   0  0  0  0  0  0  0  0  0  0  0  0
   37.9370   28.8980   44.4450 H   0  0  0  0  0  0  0  0  0  0  0  0
   38.9520   24.9130   42.6130 C   0  0  0  0  0  0  0  0  0  0  0  0
   39.8150   24.9110   43.6790 F   0  0  0  0  0  0  0  0  0  0  0  0
   39.6900   24.6560   41.4520 F   0  0  0  0  0  0  0  0  0  0  0  0
   38.0060   23.9000   42.6920 F   0  0  0  0  0  0  0  0  0  0  0  0
   35.9580   29.4110   38.0750 C   0  0  0  0  0  0  0  0  0  0  0  0
   36.8430   29.8100   37.1010 C   0  0  0  0  0  3  0  0  0  0  0  0
   36.5560   29.7780   35.7560 C   0  0  0  0  0  0  0  0  0  0  0  0
   37.2530   30.0920   34.9890 H   0  0  0  0  0  0  0  0  0  0  0  0
   35.3370   29.3300   35.3890 N   0  0  0  0  0  0  0  0  0  0  0  0
   34.4540   28.9340   36.3240 C   0  0  0  0  0  3  0  0  0  0  0  0
   34.7420   28.9650   37.6520 N   0  0  0  0  0  0  0  0  0  0  0  0
  1  4  1  6  0  0  0
  1  2  1  0  0  0  0
  1  8  1  0  0  0  0
  2  6  1  0  0  0  0
  3  7  1  1  0  0  0
  3  1  1  0  0  0  0
  3  2  1  0  0  0  0
  5  2  1  0  0  0  0
  8  9  1  0  0  0  0
  9 10  2  0  0  0  0
 10 15  1  0  0  0  0
 11 10  1  0  0  0  0
 12 16  1  0  0  0  0
 12 11  2  0  0  0  0
 13  8  2  0  0  0  0
 13 12  1  0  0  0  0
 14  9  1  0  0  0  0
 16 19  1  0  0  0  0
 16 17  1  0  0  0  0
 18 16  1  0  0  0  0
 20  3  1  0  0  0  0
 21 20  2  0  0  0  0
 22 21  1  0  0  0  0
 23 22  1  0  0  0  0
 24 22  2  0  0  0  0
 24 25  1  0  0  0  0
 25 26  2  0  0  0  0
 26 20  1  0  0  0  0
M  END
>  <minimizedAffinity>
-4.78760242

$$$$

 OpenBabel03252505403D

 26 28  0  0  1  0  0  0  0  0999 V2000
   37.8730   29.7550   39.0810 C   0  0  1  0  0  0  0  0  0  0  0  0
   36.7020   30.6840   38.6970 C   0  0  0  0  0  0  0  0  0  0  0  0
   37.5830   30.9450   39.8810 C   0  0  2  0  0  0  0  0  0  0  0  0
   38.6910   29.7230   38.3260 H   0  0  0  0  0  0  0  0  0  0  0  0
   36.8340   31.2870   37.7800 H   0  0  0  0  0  0  0  0  0  0  0  0
   35.6820   30.3260   38.8600 H   0  0  0  0  0  0  0  0  0  0  0  0
   37.0930   30.8540   40.8710 H   0  0  0  0  0  0  0  0  0  0  0  0
   37.4450   28.3970   39.5120 C   0  0  0  0  0  0  0  0  0  0  0  0
   37.0730   27.4510   38.5210 C   0  0  0  0  0  0  0  0  0  0  0  0
   36.6900   26.1800   38.9410 C   0  0  0  0  0  0  0  0  0  0  0  0
   36.6950   25.9170   40.2760 N   0  0  0  0  0  0  0  0  0  0  0  0
   37.0580   26.8490   41.1870 C   0  0  0  0  0  0  0  0  0  0  0  0
   37.4340   28.0930   40.7950 N   0  0  0  0  0  0  0  0  0  0  0  0
   37.0890   27.7210   37.4640 H   0  0  0  0  0  0  0  0  0  0  0  0
   36.4010   25.4350   38.2390 H   0  0  0  0  0  0  0  0  0  0  0  0
   37.0060   26.3560   42.6030 C   0  0  0  0  0  0  0  0  0  0  0  0
   36.5710   25.0570   42.6780 F   0  0  0  0  0  0  0  0  0  0  0  0
   36.1280   27.1550   43.3440 F   0  0  0  0  0  0  0  0  0  0  0  0
   38.2560   26.5330   43.1800 F   0  0  0  0  0  0  0  0  0  0  0  0
   38.6180   32.0320   39.7600 C   0  0  0  0  0  0  0  0  0  0  0  0
   38.6050   33.1420   40.5710 C   0  0  0  0  0  3  0  0  0  0  0  0
   39.5340   34.1540   40.4890 C   0  0  0  0  0  0  0  0  0  0  0  0
   39.5230   35.0270   41.1290 H   0  0  0  0  0  0  0  0  0  0  0  0
   40.5020   34.0370   39.5580 N   0  0  0  0  0  0  0  0  0  0  0  0
   40.5370   32.9600   38.7520 C   0  0  0  0  0  3  0  0  0  0  0  0
   39.6180   31.9620   38.8360 N   0  0  0  0  0  0  0  0  0  0  0  0
  1  4  1  6  0  0  0
  1  8  1  0  0  0  0
  1  3  1  0  0  0  0
  2  6  1  0  0  0  0
  2  1  1  0  0  0  0
  2  3  1  0  0  0  0
  3  7  1  1  0  0  0
  5  2  1  0  0  0  0
  8 13  1  0  0  0  0
  9 10  1  0  0  0  0
  9  8  2  0  0  0  0
 10 11  2  0  0  0  0
 11 12  1  0  0  0  0
 12 16  1  0  0  0  0
 13 12  2  0  0  0  0
 14  9  1  0  0  0  0
 15 10  1  0  0  0  0
 16 17  1  0  0  0  0
 16 19  1  0  0  0  0
 16 18  1  0  0  0  0
 20  3  1  0  0  0  0
 20 21  1  0  0  0  0
 22 21  2  0  0  0  0
 22 23  1  0  0  0  0
 24 22  1  0  0  0  0
 25 26  1  0  0  0  0
 25 24  2  0  0  0  0
 26 20  2  0  0  0  0
M  END
>  <minimizedAffinity>
-4.77237654

$$$$

 OpenBabel03252505403D

 26 28  0  0  1  0  0  0  0  0999 V2000
   38.0050   27.9280   41.8930 C   0  0  1  0  0  0  0  0  0  0  0  0
   36.6680   27.7650   42.6480 C   0  0  0  0  0  0  0  0  0  0  0  0
   36.8260   27.4040   41.2020 C   0  0  2  0  0  0  0  0  0  0  0  0
   38.8200   27.2710   42.2720 H   0  0  0  0  0  0  0  0  0  0  0  0
   36.6270   26.9620   43.4060 H   0  0  0  0  0  0  0  0  0  0  0  0
   36.1110   28.6670   42.9140 H   0  0  0  0  0  0  0  0  0  0  0  0
   36.2640   28.0360   40.4860 H   0  0  0  0  0  0  0  0  0  0  0  0
   38.4390   29.3420   41.7390 C   0  0  0  0  0  0  0  0  0  0  0  0
   39.4500   29.8440   42.6020 C   0  0  0  0  0  0  0  0  0  0  0  0
   39.8540   31.1660   42.4340 C   0  0  0  0  0  0  0  0  0  0  0  0
   39.2610   31.9000   41.4540 N   0  0  0  0  0  0  0  0  0  0  0  0
   38.3010   31.3810   40.6540 C   0  0  0  0  0  0  0  0  0  0  0  0
   37.8940   30.0950   40.8040 N   0  0  0  0  0  0  0  0  0  0  0  0
   39.8890   29.2070   43.3690 H   0  0  0  0  0  0  0  0  0  0  0  0
   40.6070   31.5900   43.0540 H   0  0  0  0  0  0  0  0  0  0  0  0
   37.7830   32.3500   39.6320 C   0  0  0  0  0  0  0  0  0  0  0  0
   36.6400   31.8940   39.0260 F   0  0  0  0  0  0  0  0  0  0  0  0
   38.7540   32.5470   38.6430 F   0  0  0  0  0  0  0  0  0  0  0  0
   37.6080   33.5850   40.2410 F   0  0  0  0  0  0  0  0  0  0  0  0
   36.9220   25.9420   40.8500 C   0  0  0  0  0  0  0  0  0  0  0  0
   37.4890   25.0250   41.7030 C   0  0  0  0  0  3  0  0  0  0  0  0
   37.5930   23.6840   41.4160 C   0  0  0  0  0  0  0  0  0  0  0  0
   38.0400   22.9620   42.0880 H   0  0  0  0  0  0  0  0  0  0  0  0
   37.1080   23.2610   40.2300 N   0  0  0  0  0  0  0  0  0  0  0  0
   36.5480   24.1390   39.3780 C   0  0  0  0  0  3  0  0  0  0  0  0
   36.4470   25.4640   39.6660 N   0  0  0  0  0  0  0  0  0  0  0  0
  1  4  1  1  0  0  0
  1  2  1  0  0  0  0
  2  6  1  0  0  0  0
  2  5  1  0  0  0  0
  3  7  1  6  0  0  0
  3  1  1  0  0  0  0
  3  2  1  0  0  0  0
  8  1  1  0  0  0  0
  8  9  1  0  0  0  0
  9 14  1  0  0  0  0
 10  9  2  0  0  0  0
 10 15  1  0  0  0  0
 11 10  1  0  0  0  0
 12 13  1  0  0  0  0
 12 11  2  0  0  0  0
 13  8  2  0  0  0  0
 16 19  1  0  0  0  0
 16 12  1  0  0  0  0
 17 16  1  0  0  0  0
 18 16  1  0  0  0  0
 20  3  1  0  0  0  0
 20 21  1  0  0  0  0
 22 21  2  0  0  0  0
 22 23  1  0  0  0  0
 24 22  1  0  0  0  0
 25 26  1  0  0  0  0
 25 24  2  0  0  0  0
 26 20  2  0  0  0  0
M  END
>  <minimizedAffinity>
-4.74821138

$$$$

 OpenBabel03252505403D

 26 28  0  0  1  0  0  0  0  0999 V2000
   35.2200   29.3350   38.5790 C   0  0  1  0  0  0  0  0  0  0  0  0
   36.0520   28.7720   37.4060 C   0  0  0  0  0  0  0  0  0  0  0  0
   34.8770   28.0430   37.9840 C   0  0  2  0  0  0  0  0  0  0  0  0
   34.6720   30.2740   38.3330 H   0  0  0  0  0  0  0  0  0  0  0  0
   35.9450   29.2900   36.4350 H   0  0  0  0  0  0  0  0  0  0  0  0
   37.0600   28.4080   37.6160 H   0  0  0  0  0  0  0  0  0  0  0  0
   35.1130   27.0980   38.5130 H   0  0  0  0  0  0  0  0  0  0  0  0
   35.9740   29.4350   39.8570 C   0  0  0  0  0  0  0  0  0  0  0  0
   36.5830   30.6730   40.1960 C   0  0  0  0  0  0  0  0  0  0  0  0
   37.2720   30.7520   41.4030 C   0  0  0  0  0  0  0  0  0  0  0  0
   37.3230   29.6420   42.1880 N   0  0  0  0  0  0  0  0  0  0  0  0
   36.7280   28.4820   41.8250 C   0  0  0  0  0  0  0  0  0  0  0  0
   36.0520   28.3860   40.6520 N   0  0  0  0  0  0  0  0  0  0  0  0
   36.5070   31.5290   39.5260 H   0  0  0  0  0  0  0  0  0  0  0  0
   37.7460   31.6560   41.7040 H   0  0  0  0  0  0  0  0  0  0  0  0
   36.8910   27.3830   42.8330 C   0  0  0  0  0  0  0  0  0  0  0  0
   38.0780   27.4840   43.5140 F   0  0  0  0  0  0  0  0  0  0  0  0
   36.8640   26.1450   42.1820 F   0  0  0  0  0  0  0  0  0  0  0  0
   35.7900   27.3900   43.6790 F   0  0  0  0  0  0  0  0  0  0  0  0
   33.5900   28.0510   37.2000 C   0  0  0  0  0  0  0  0  0  0  0  0
   32.7500   29.1400   37.1940 C   0  0  0  0  0  3  0  0  0  0  0  0
   31.5690   29.1830   36.4900 C   0  0  0  0  0  0  0  0  0  0  0  0
   30.9080   30.0410   36.4850 H   0  0  0  0  0  0  0  0  0  0  0  0
   31.2300   28.0920   35.7720 N   0  0  0  0  0  0  0  0  0  0  0  0
   32.0360   27.0140   35.7620 C   0  0  0  0  0  3  0  0  0  0  0  0
   33.2030   26.9760   36.4590 N   0  0  0  0  0  0  0  0  0  0  0  0
  1  4  1  6  0  0  0
  1  8  1  0  0  0  0
  2  6  1  0  0  0  0
  2  3  1  0  0  0  0
  2  1  1  0  0  0  0
  3  7  1  1  0  0  0
  3  1  1  0  0  0  0
  5  2  1  0  0  0  0
  8  9  2  0  0  0  0
  8 13  1  0  0  0  0
  9 10  1  0  0  0  0
 10 15  1  0  0  0  0
 10 11  2  0  0  0  0
 12 11  1  0  0  0  0
 12 16  1  0  0  0  0
 13 12  2  0  0  0  0
 14  9  1  0  0  0  0
 16 17  1  0  0  0  0
 16 19  1  0  0  0  0
 18 16  1  0  0  0  0
 20  3  1  0  0  0  0
 21 20  1  0  0  0  0
 22 21  2  0  0  0  0
 23 22  1  0  0  0  0
 24 22  1  0  0  0  0
 25 24  2  0  0  0  0
 25 26  1  0  0  0  0
 26 20  2  0  0  0  0
M  END
>  <minimizedAffinity>
-4.74600172

$$$$

 OpenBabel03252505403D

 26 28  0  0  1  0  0  0  0  0999 V2000
   37.9310   29.4130   40.6730 C   0  0  1  0  0  0  0  0  0  0  0  0
   36.8950   29.8860   39.6300 C   0  0  0  0  0  0  0  0  0  0  0  0
   37.2540   30.7000   40.8360 C   0  0  2  0  0  0  0  0  0  0  0  0
   38.9670   29.3270   40.2720 H   0  0  0  0  0  0  0  0  0  0  0  0
   37.2920   30.1780   38.6410 H   0  0  0  0  0  0  0  0  0  0  0  0
   35.9270   29.3800   39.5980 H   0  0  0  0  0  0  0  0  0  0  0  0
   36.4490   30.8220   41.5880 H   0  0  0  0  0  0  0  0  0  0  0  0
   37.5120   28.2050   41.4310 C   0  0  0  0  0  0  0  0  0  0  0  0
   36.9700   28.3690   42.7330 C   0  0  0  0  0  0  0  0  0  0  0  0
   36.5700   27.2270   43.4220 C   0  0  0  0  0  0  0  0  0  0  0  0
   36.7190   26.0220   42.8100 N   0  0  0  0  0  0  0  0  0  0  0  0
   37.2400   25.9110   41.5660 C   0  0  0  0  0  0  0  0  0  0  0  0
   37.6360   27.0130   40.8800 N   0  0  0  0  0  0  0  0  0  0  0  0
   36.8750   29.3620   43.1720 H   0  0  0  0  0  0  0  0  0  0  0  0
   36.1580   27.2960   44.4020 H   0  0  0  0  0  0  0  0  0  0  0  0
   37.3090   24.4980   41.0680 C   0  0  0  0  0  0  0  0  0  0  0  0
   37.7140   24.4340   39.7590 F   0  0  0  0  0  0  0  0  0  0  0  0
   36.0440   23.9070   41.1640 F   0  0  0  0  0  0  0  0  0  0  0  0
   38.1320   23.7690   41.9160 F   0  0  0  0  0  0  0  0  0  0  0  0
   38.1500   31.8940   40.6350 C   0  0  0  0  0  0  0  0  0  0  0  0
   39.5050   31.8320   40.8600 C   0  0  0  0  0  3  0  0  0  0  0  0
   40.3530   32.9020   40.6870 C   0  0  0  0  0  0  0  0  0  0  0  0
   41.4200   32.8520   40.8630 H   0  0  0  0  0  0  0  0  0  0  0  0
   39.8120   34.0660   40.2750 N   0  0  0  0  0  0  0  0  0  0  0  0
   38.4880   34.1520   40.0490 C   0  0  0  0  0  3  0  0  0  0  0  0
   37.6530   33.0930   40.2200 N   0  0  0  0  0  0  0  0  0  0  0  0
  1  4  1  6  0  0  0
  1  3  1  0  0  0  0
  1  8  1  0  0  0  0
  2  1  1  0  0  0  0
  2  3  1  0  0  0  0
  3  7  1  1  0  0  0
  5  2  1  0  0  0  0
  6  2  1  0  0  0  0
  8  9  1  0  0  0  0
  9 14  1  0  0  0  0
  9 10  2  0  0  0  0
 10 15  1  0  0  0  0
 11 10  1  0  0  0  0
 12 11  2  0  0  0  0
 13  8  2  0  0  0  0
 13 12  1  0  0  0  0
 16 18  1  0  0  0  0
 16 12  1  0  0  0  0
 16 19  1  0  0  0  0
 17 16  1  0  0  0  0
 20  3  1  0  0  0  0
 20 21  1  0  0  0  0
 22 21  2  0  0  0  0
 22 23  1  0  0  0  0
 24 22  1  0  0  0  0
 25 26  1  0  0  0  0
 25 24  2  0  0  0  0
 26 20  2  0  0  0  0
M  END
>  <minimizedAffinity>
-4.68550968

$$$$
