
     RDKit          3D

 27 28  0  0  0  0  0  0  0  0999 V2000
   47.1566   33.9790   42.4619 C   0  0  0  0  0  0  0  0  0  0  0  0
   45.2970   34.2310   45.6982 C   0  0  0  0  0  0  0  0  0  0  0  0
   46.1634   33.7498   44.7048 C   0  0  0  0  0  0  0  0  0  0  0  0
   46.2592   34.4585   43.5175 C   0  0  0  0  0  0  0  0  0  0  0  0
   45.5082   35.5878   43.3717 N   0  0  0  0  0  0  0  0  0  0  0  0
   44.6726   36.0340   44.3552 C   0  0  0  0  0  0  0  0  0  0  0  0
   44.5802   35.3503   45.5005 N   0  0  0  0  0  0  0  0  0  0  0  0
   48.3141   33.4121   43.0043 O   0  0  0  0  0  0  0  0  0  0  0  0
   50.6709   33.1179   41.9097 O   0  0  0  0  0  0  0  0  0  0  0  0
   49.6178   34.1508   42.2365 P   0  0  2  0  0  0  0  0  0  0  0  0
   50.2050   35.3610   43.2470 O   0  0  0  0  0  0  0  0  0  0  0  0
   49.0760   34.7940   40.7797 O   0  0  0  0  0  0  0  0  0  0  0  0
   47.3578   34.7905   41.7396 H   0  0  0  0  0  0  0  0  0  0  0  0
   46.5798   33.2059   41.8742 H   0  0  0  0  0  0  0  0  0  0  0  0
   45.2696   33.6225   46.6114 H   0  0  0  0  0  0  0  0  0  0  0  0
   46.7395   32.8375   44.8816 H   0  0  0  0  0  0  0  0  0  0  0  0
   44.0779   36.9215   44.2493 H   0  0  0  0  0  0  0  0  0  0  0  0
   51.1788   35.3169   43.2881 H   0  0  0  0  0  0  0  0  0  0  0  0
   48.6360   33.9402   39.7789 C   0  0  0  0  0  0  0  0  0  0  0  0
   49.5661   33.0120   39.2999 C   0  0  0  0  0  0  0  0  0  0  0  0
   49.2171   32.1156   38.2979 C   0  0  0  0  0  0  0  0  0  0  0  0
   49.9319   31.3777   37.9066 H   0  0  0  0  0  0  0  0  0  0  0  0
   47.9558   32.1836   37.8169 N   0  0  0  0  0  0  0  0  0  0  0  0
   47.0870   33.0879   38.2996 C   0  0  0  0  0  0  0  0  0  0  0  0
   47.4053   33.9496   39.2553 N   0  0  0  0  0  0  0  0  0  0  0  0
   50.6028   32.8987   39.6409 H   0  0  0  0  0  0  0  0  0  0  0  0
   46.0895   33.0700   37.8512 H   0  0  0  0  0  0  0  0  0  0  0  0
  1  8  1  0
  1  4  1  0
  3  2  2  0
  4  3  1  0
  5  4  2  0
  5  6  1  0
  6  7  2  0
  7  2  1  0
  9 10  2  0
 10  8  1  1
 10 11  1  0
 12 10  1  0
  1 13  1  0
  1 14  1  0
  2 15  1  0
  3 16  1  0
  6 17  1  0
 11 18  1  0
 19 20  2  0
 20 21  1  0
 21 22  1  0
 21 23  2  0
 23 24  1  0
 24 25  2  0
 25 19  1  0
 20 26  1  0
 24 27  1  0
 12 19  1  0
M  ISO  7  13   8  14   8  15  14  16  14  17  14  18   3  22  14
M  END
>  <DihAtoms>  (1) 
9,11,18,19

>  <DihDeg>  (1) 
-179.9999514211731

$$$$
