
 OpenBabel03242518523D

 37 39  0  0  1  0  0  0  0  0999 V2000
   46.4190   31.9620   47.2640 C   0  0  2  0  0  0  0  0  0  0  0  0
   47.6560   32.3510   48.0580 C   0  0  0  0  0  0  0  0  0  0  0  0
   48.3630   31.0590   48.3030 C   0  0  0  0  0  0  0  0  0  0  0  0
   47.9280   29.8530   47.5450 C   0  0  0  0  0  0  0  0  0  0  0  0
   47.8500   30.3220   46.1110 C   0  0  0  0  0  0  0  0  0  0  0  0
   46.7020   31.2310   46.0500 C   0  0  1  0  0  0  0  0  0  0  0  0
   45.9620   31.2710   48.0370 H   0  0  0  0  0  0  0  0  0  0  0  0
   47.3110   32.8150   48.9920 H   0  0  0  0  0  0  0  0  0  0  0  0
   48.2480   33.0990   47.5060 H   0  0  0  0  0  0  0  0  0  0  0  0
   49.4440   31.2220   48.0610 H   0  0  0  0  0  0  0  0  0  0  0  0
   48.3070   30.8060   49.3860 H   0  0  0  0  0  0  0  0  0  0  0  0
   48.7050   29.0950   47.6370 H   0  0  0  0  0  0  0  0  0  0  0  0
   46.9310   29.4670   47.8370 H   0  0  0  0  0  0  0  0  0  0  0  0
   47.8790   29.4410   45.4600 H   0  0  0  0  0  0  0  0  0  0  0  0
   48.8810   30.7750   45.9730 H   0  0  0  0  0  0  0  0  0  0  0  0
   47.1440   31.7570   45.1790 H   0  0  0  0  0  0  0  0  0  0  0  0
   45.6590   30.1880   45.7610 C   0  0  0  0  0  0  0  0  0  0  0  0
   44.9250   29.5170   46.7110 C   0  0  0  0  0  0  0  0  0  0  0  0
   43.9930   28.5500   46.4140 C   0  0  0  0  0  0  0  0  0  0  0  0
   43.4320   28.0380   47.1830 H   0  0  0  0  0  0  0  0  0  0  0  0
   43.7510   28.2110   45.1390 N   0  0  0  0  0  0  0  0  0  0  0  0
   44.4520   28.8510   44.1890 C   0  0  0  0  0  0  0  0  0  0  0  0
   45.3420   29.7770   44.5210 N   0  0  0  0  0  0  0  0  0  0  0  0
   45.4680   33.0580   47.0710 C   0  0  0  0  0  0  0  0  0  0  0  0
   44.5790   33.3330   47.9210 O   0  0  0  0  0  0  0  0  0  0  0  0
   44.7480   35.6040   44.5470 C   0  0  0  0  0  0  0  0  0  0  0  0
   45.6690   35.3490   43.5130 C   0  0  0  0  0  0  0  0  0  0  0  0
   46.5520   34.2810   43.7200 C   0  0  0  0  0  0  0  0  0  0  0  0
   46.4070   33.6320   44.8830 N   0  0  0  0  0  0  0  0  0  0  0  0
   45.5510   33.8680   45.8470 C   0  0  0  0  0  0  0  0  0  0  0  0
   44.6910   34.8950   45.6680 N   0  0  0  0  0  0  0  0  0  0  0  0
   44.0440   36.4130   44.4460 H   0  0  0  0  0  0  0  0  0  0  0  0
   45.7200   35.9100   42.6170 H   0  0  0  0  0  0  0  0  0  0  0  0
   47.5300   34.0160   42.6660 C   0  0  0  0  0  0  0  0  0  0  0  0
   48.8030   33.9730   43.2060 F   0  0  0  0  0  0  0  0  0  0  0  0
   47.5570   35.1880   41.9040 F   0  0  0  0  0  0  0  0  0  0  0  0
   47.2600   32.9230   41.9340 F   0  0  0  0  0  0  0  0  0  0  0  0
  1  7  1  1  0  0  0
  1  2  1  0  0  0  0
  2  3  1  0  0  0  0
  2  8  1  0  0  0  0
  3 11  1  0  0  0  0
  4 12  1  0  0  0  0
  4 13  1  0  0  0  0
  4  3  1  0  0  0  0
  5  4  1  0  0  0  0
  6 16  1  6  0  0  0
  6  5  1  0  0  0  0
  6  1  1  0  0  0  0
  9  2  1  0  0  0  0
 10  3  1  0  0  0  0
 14  5  1  0  0  0  0
 15  5  1  0  0  0  0
 17  6  1  0  0  0  0
 17 18  1  0  0  0  0
 19 18  2  0  0  0  0
 19 20  1  0  0  0  0
 21 19  1  0  0  0  0
 22 23  1  0  0  0  0
 22 21  2  0  0  0  0
 23 17  2  0  0  0  0
 24  1  1  0  0  0  0
 24 25  2  0  0  0  0
 26 31  1  0  0  0  0
 27 28  1  0  0  0  0
 27 26  2  0  0  0  0
 28 29  2  0  0  0  0
 29 30  1  0  0  0  0
 30 24  1  0  0  0  0
 31 30  2  0  0  0  0
 32 26  1  0  0  0  0
 33 27  1  0  0  0  0
 34 35  1  0  0  0  0
 34 28  1  0  0  0  0
 36 34  1  0  0  0  0
 37 34  1  0  0  0  0
M  END
>  <minimizedAffinity>
-5.48336077

>  <minimizedRMSD>
1.87882936

$$$$
