
 OpenBabel03252506313D

 30 32  0  0  1  0  0  0  0  0999 V2000
   44.5850   35.7840   44.6990 C   0  0  0  0  0  0  0  0  0  0  0  0
   44.5460   35.4250   43.3560 C   0  0  0  0  0  0  0  0  0  0  0  0
   44.8850   34.1340   43.0120 C   0  0  0  0  0  0  0  0  0  0  0  0
   45.2350   33.2990   44.0170 N   0  0  0  0  0  0  0  0  0  0  0  0
   45.2660   33.6640   45.3070 C   0  0  0  0  0  0  0  0  0  0  0  0
   44.9420   34.9080   45.6740 N   0  0  0  0  0  0  0  0  0  0  0  0
   45.6560   32.6790   46.2580 N   0  0  0  0  0  0  0  0  0  0  0  0
   45.4550   32.8230   47.7050 C   0  0  0  0  0  0  0  0  0  0  0  0
   46.7090   32.1900   48.2490 C   0  0  0  0  0  0  0  0  0  0  0  0
   47.3910   31.4900   47.1060 C   0  0  0  0  0  0  0  0  0  0  0  0
   46.2850   31.4030   46.0660 C   0  0  2  0  0  0  0  0  0  0  0  0
   44.3350   36.7820   45.0890 H   0  0  0  0  0  0  0  0  0  0  0  0
   44.8520   33.8670   41.9670 H   0  0  0  0  0  0  0  0  0  0  0  0
   45.3180   33.8790   47.9860 H   0  0  0  0  0  0  0  0  0  0  0  0
   44.5380   32.2380   47.9240 H   0  0  0  0  0  0  0  0  0  0  0  0
   46.4740   31.4980   49.0900 H   0  0  0  0  0  0  0  0  0  0  0  0
   47.3600   32.9960   48.6180 H   0  0  0  0  0  0  0  0  0  0  0  0
   48.2080   32.1280   46.6870 H   0  0  0  0  0  0  0  0  0  0  0  0
   47.8040   30.5190   47.3760 H   0  0  0  0  0  0  0  0  0  0  0  0
   45.5950   30.6050   46.3900 H   0  0  0  0  0  0  0  0  0  0  0  0
   46.8330   31.1720   44.7150 C   0  0  0  0  0  0  0  0  0  0  0  0
   46.1490   30.2780   43.8830 C   0  0  0  0  0  3  0  0  0  0  0  0
   46.5720   29.9800   42.6090 C   0  0  0  0  0  0  0  0  0  0  0  0
   46.0070   29.2820   42.0100 H   0  0  0  0  0  0  0  0  0  0  0  0
   47.7060   30.6050   42.1830 N   0  0  0  0  0  0  0  0  0  0  0  0
   48.3840   31.4690   42.9610 C   0  0  0  0  0  3  0  0  0  0  0  0
   47.9320   31.7390   44.2190 N   0  0  0  0  0  0  0  0  0  0  0  0
   44.1510   36.4420   42.4260 N   0  0  0  0  0  0  0  0  0  0  0  0
   44.5330   37.3870   42.5570 H   0  0  0  0  0  0  0  0  0  0  0  0
   43.4860   36.2210   41.6310 H   0  0  0  0  0  0  0  0  0  0  0  0
  1 12  1  0  0  0  0
  1  6  1  0  0  0  0
  2  1  2  0  0  0  0
  3  2  1  0  0  0  0
  3  4  2  0  0  0  0
  4  5  1  0  0  0  0
  5  6  2  0  0  0  0
  5  7  1  0  0  0  0
  7  8  1  0  0  0  0
  8 15  1  0  0  0  0
  8 14  1  0  0  0  0
  8  9  1  0  0  0  0
  9 17  1  0  0  0  0
  9 16  1  0  0  0  0
 10 19  1  0  0  0  0
 10  9  1  0  0  0  0
 11  7  1  0  0  0  0
 11 20  1  1  0  0  0
 11 10  1  0  0  0  0
 13  3  1  0  0  0  0
 18 10  1  0  0  0  0
 21 11  1  0  0  0  0
 22 21  2  0  0  0  0
 23 22  1  0  0  0  0
 24 23  1  0  0  0  0
 25 23  2  0  0  0  0
 25 26  1  0  0  0  0
 26 27  2  0  0  0  0
 27 21  1  0  0  0  0
 28 29  1  0  0  0  0
 28  2  1  0  0  0  0
 30 28  1  0  0  0  0
M  END
>  <minimizedAffinity>
-4.40421915

>  <minimizedRMSD>
1.74280655

$$$$
