
 OpenBabel03252509033D

 46 48  0  0  1  0  0  0  0  0999 V2000
   46.8860   34.3850   43.3530 N   0  0  0  0  0  0  0  0  0  0  0  0
   46.4380   35.5640   42.7070 C   0  0  0  0  0  0  0  0  0  0  0  0
   44.9550   35.8420   42.8300 C   0  0  0  0  0  0  0  0  0  0  0  0
   44.3310   35.3600   44.1180 C   0  0  0  0  0  0  0  0  0  0  0  0
   45.3730   34.8110   45.0640 C   0  0  0  0  0  0  0  0  0  0  0  0
   46.0710   33.6800   44.2150 C   0  0  2  0  0  0  0  0  0  0  0  0
   46.9580   36.4250   43.2150 H   0  0  0  0  0  0  0  0  0  0  0  0
   46.6880   35.6770   41.6480 H   0  0  0  0  0  0  0  0  0  0  0  0
   44.4250   35.4240   41.9330 H   0  0  0  0  0  0  0  0  0  0  0  0
   44.7780   36.9460   42.7880 H   0  0  0  0  0  0  0  0  0  0  0  0
   43.6430   36.0880   44.5760 H   0  0  0  0  0  0  0  0  0  0  0  0
   43.6950   34.4720   43.8430 H   0  0  0  0  0  0  0  0  0  0  0  0
   46.1290   35.5470   45.3560 H   0  0  0  0  0  0  0  0  0  0  0  0
   44.8330   34.3430   45.9080 H   0  0  0  0  0  0  0  0  0  0  0  0
   45.2440   33.0720   43.7940 H   0  0  0  0  0  0  0  0  0  0  0  0
   47.8940   33.6570   42.6110 C   0  0  0  0  0  0  0  0  0  0  0  0
   48.4950   34.4230   42.0770 H   0  0  0  0  0  0  0  0  0  0  0  0
   48.6140   33.1410   43.2970 H   0  0  0  0  0  0  0  0  0  0  0  0
   47.2170   32.7530   41.6520 C   0  0  0  0  0  0  0  0  0  0  0  0
   47.2830   31.7140   41.9800 H   0  0  0  0  0  0  0  0  0  0  0  0
   46.1060   32.9660   41.6050 H   0  0  0  0  0  0  0  0  0  0  0  0
   49.2570   32.1390   38.5450 C   0  0  0  0  0  0  0  0  0  0  0  0
   48.6700   31.9960   39.8190 C   0  0  0  0  0  0  0  0  0  0  0  0
   47.8170   32.9340   40.3070 C   0  0  0  0  0  0  0  0  0  0  0  0
   47.5650   33.9870   39.5250 N   0  0  0  0  0  0  0  0  0  0  0  0
   48.1090   34.1470   38.3090 C   0  0  0  0  0  0  0  0  0  0  0  0
   48.9570   33.2350   37.8020 N   0  0  0  0  0  0  0  0  0  0  0  0
   49.9280   31.4280   38.1300 H   0  0  0  0  0  0  0  0  0  0  0  0
   48.9830   31.0900   40.3080 H   0  0  0  0  0  0  0  0  0  0  0  0
   47.8140   35.0520   37.7840 H   0  0  0  0  0  0  0  0  0  0  0  0
   46.7800   33.0120   45.1850 O   0  0  0  0  0  0  0  0  0  0  0  0
   45.3580   30.9570   44.2440 O   0  0  0  0  0  0  0  0  0  0  0  0
   46.3030   31.4240   45.3750 P   0  0  2  0  0  0  0  0  0  0  0  0
   45.2910   31.3830   46.7720 O   0  0  0  0  0  0  0  0  0  0  0  0
   45.7620   31.9100   47.4740 H   0  0  0  0  0  0  0  0  0  0  0  0
   47.5280   30.3460   45.6200 O   0  0  0  0  0  0  0  0  0  0  0  0
   47.9220   29.7670   44.4420 C   0  0  0  0  0  0  0  0  0  0  0  0
   47.1880   30.1550   43.6650 H   0  0  0  0  0  0  0  0  0  0  0  0
   47.6200   28.6780   44.5140 H   0  0  0  0  0  0  0  0  0  0  0  0
   49.3040   29.9360   44.0220 C   0  0  0  0  0  0  0  0  0  0  0  0
   50.1540   29.1850   44.8430 C   0  0  0  0  0  3  0  0  0  0  0  0
   51.5190   29.2030   44.5360 C   0  0  0  0  0  0  0  0  0  0  0  0
   52.2650   28.6440   45.1210 H   0  0  0  0  0  0  0  0  0  0  0  0
   52.0330   29.9010   43.5060 N   0  0  0  0  0  0  0  0  0  0  0  0
   51.1750   30.6070   42.7490 C   0  0  0  0  0  3  0  0  0  0  0  0
   49.8510   30.6320   42.9880 N   0  0  0  0  0  0  0  0  0  0  0  0
  1  6  1  0  0  0  0
  2  3  1  0  0  0  0
  2  7  1  0  0  0  0
  2  1  1  0  0  0  0
  3  4  1  0  0  0  0
  4 11  1  0  0  0  0
  4  5  1  0  0  0  0
  5 13  1  0  0  0  0
  5 14  1  0  0  0  0
  6 15  1  6  0  0  0
  6  5  1  0  0  0  0
  6 31  1  0  0  0  0
  8  2  1  0  0  0  0
  9  3  1  0  0  0  0
 10  3  1  0  0  0  0
 12  4  1  0  0  0  0
 16 18  1  0  0  0  0
 16  1  1  0  0  0  0
 17 16  1  0  0  0  0
 19 20  1  0  0  0  0
 19 16  1  0  0  0  0
 21 19  1  0  0  0  0
 22 23  1  0  0  0  0
 23 24  2  0  0  0  0
 23 29  1  0  0  0  0
 24 19  1  0  0  0  0
 25 24  1  0  0  0  0
 26 25  2  0  0  0  0
 27 26  1  0  0  0  0
 27 22  2  0  0  0  0
 28 22  1  0  0  0  0
 30 26  1  0  0  0  0
 31 33  1  0  0  0  0
 33 32  2  6  0  0  0
 33 36  1  0  0  0  0
 33 34  1  0  0  0  0
 34 35  1  0  0  0  0
 37 39  1  0  0  0  0
 37 36  1  0  0  0  0
 38 37  1  0  0  0  0
 40 37  1  0  0  0  0
 40 41  1  0  0  0  0
 42 41  2  0  0  0  0
 42 43  1  0  0  0  0
 44 42  1  0  0  0  0
 45 46  1  0  0  0  0
 45 44  2  0  0  0  0
 46 40  2  0  0  0  0
M  END
>  <minimizedAffinity>
-3.96722746

>  <minimizedRMSD>
1.61341166

$$$$
