REMARK  Name = 
REMARK  2 active torsions:
REMARK  status: ('A' for Active; 'I' for Inactive)
REMARK    1  A    between atoms: C_1  and  C_7
REMARK    2  A    between atoms: C_3  and  C_13
REMARK                            x       y       z     vdW  Elec       q    Type
REMARK                         _______ _______ _______ _____ _____    ______ ____
ROOT
ATOM      1  C   UNL     1      47.679  34.957  42.342  0.00  0.00    +0.000 A 
ATOM      2  C   UNL     1      47.922  33.906  43.248  0.00  0.00    +0.000 A 
ATOM      3  C   UNL     1      46.900  33.537  44.124  0.00  0.00    +0.000 A 
ATOM      4  N   UNL     1      45.729  34.200  44.063  0.00  0.00    +0.000 NA
ATOM      5  C   UNL     1      45.507  35.210  43.186  0.00  0.00    +0.000 A 
ATOM      6  N   UNL     1      46.484  35.582  42.331  0.00  0.00    +0.000 NA
ATOM      7  H   UNL     1      48.852  33.356  43.319  0.00  0.00    +0.000 HD
ATOM      8  H   UNL     1      44.571  35.757  43.122  0.00  0.00    +0.000 HD
ENDROOT
BRANCH   3   9
ATOM      9  C   UNL     1      47.103  32.471  45.066  0.00  0.00    +0.000 A 
ATOM     10  C   UNL     1      48.366  32.224  45.561  0.00  0.00    +0.000 A 
ATOM     11  C   UNL     1      48.525  31.179  46.475  0.00  0.00    +0.000 A 
ATOM     12  H   UNL     1      49.497  30.919  46.915  0.00  0.00    +0.000 HD
ATOM     13  N   UNL     1      47.464  30.418  46.871  0.00  0.00    +0.000 NA
ATOM     14  C   UNL     1      46.258  30.699  46.361  0.00  0.00    +0.000 A 
ATOM     15  N   UNL     1      46.082  31.704  45.476  0.00  0.00    +0.000 NA
ENDBRANCH   3   9
BRANCH   1  16
ATOM     16  C   UNL     1      48.792  35.331  41.416  0.00  0.00    +0.000 C 
ATOM     17  F   UNL     1      48.415  35.246  40.105  0.00  0.00    +0.000 F 
ATOM     18  F   UNL     1      49.206  36.616  41.764  0.00  0.00    +0.000 F 
ATOM     19  F   UNL     1      49.896  34.499  41.678  0.00  0.00    +0.000 F 
ENDBRANCH   1  16
TORSDOF 2
