
 OpenBabel03252502043D

 44 48  0  0  0  0  0  0  0  0999 V2000
   47.4910   31.8900   47.7640 C   0  0  0  0  0  0  0  0  0  0  0  0
   46.9390   30.6150   47.8110 C   0  0  0  0  0  0  0  0  0  0  0  0
   45.9020   30.3640   46.9570 C   0  0  0  0  0  0  0  0  0  0  0  0
   45.4690   31.3170   46.1230 N   0  0  0  0  0  0  0  0  0  0  0  0
   45.9930   32.5380   46.0630 C   0  0  0  0  0  0  0  0  0  0  0  0
   47.0130   32.7940   46.9090 N   0  0  0  0  0  0  0  0  0  0  0  0
   45.2670   29.1340   46.9450 N   0  0  0  0  0  0  0  0  0  0  0  0
   44.0180   28.8300   46.2170 C   0  0  0  0  0  0  0  0  0  0  0  0
   43.8630   27.3320   46.3000 C   0  0  0  0  0  0  0  0  0  0  0  0
   44.5750   26.9870   47.5800 C   0  0  0  0  0  0  0  0  0  0  0  0
   45.7060   27.9560   47.6350 C   0  0  0  0  0  0  0  0  0  0  0  0
   48.3160   32.1090   48.4430 H   0  0  0  0  0  0  0  0  0  0  0  0
   43.1680   29.3850   46.6390 H   0  0  0  0  0  0  0  0  0  0  0  0
   44.2420   29.0720   45.1570 H   0  0  0  0  0  0  0  0  0  0  0  0
   42.7650   27.1340   46.3850 H   0  0  0  0  0  0  0  0  0  0  0  0
   44.2630   26.8070   45.4140 H   0  0  0  0  0  0  0  0  0  0  0  0
   44.8950   25.9270   47.6150 H   0  0  0  0  0  0  0  0  0  0  0  0
   43.8220   27.1010   48.3860 H   0  0  0  0  0  0  0  0  0  0  0  0
   45.7840   28.0940   48.7580 H   0  0  0  0  0  0  0  0  0  0  0  0
   46.6090   27.5070   47.1930 H   0  0  0  0  0  0  0  0  0  0  0  0
   45.6900   33.6980   45.2210 C   0  0  0  0  0  0  0  0  0  0  0  0
   44.9150   34.7360   45.6510 N   0  0  0  0  0  0  0  0  0  0  0  0
   44.6230   35.8160   44.9400 C   0  0  0  0  0  0  0  0  0  0  0  0
   45.1160   35.9400   43.6830 N   0  0  0  0  0  0  0  0  0  0  0  0
   45.8980   34.9750   43.1480 C   0  0  0  0  0  0  0  0  0  0  0  0
   46.3670   35.1140   41.8750 C   0  0  0  0  0  0  0  0  0  0  0  0
   47.1420   34.1360   41.3140 C   0  0  0  0  0  0  0  0  0  0  0  0
   47.4250   33.0130   42.0830 C   0  0  0  0  0  0  0  0  0  0  0  0
   46.9160   32.9380   43.3680 C   0  0  0  0  0  0  0  0  0  0  0  0
   46.1470   33.8940   43.9490 C   0  0  0  0  0  0  0  0  0  0  0  0
   44.0010   36.5820   45.3690 H   0  0  0  0  0  0  0  0  0  0  0  0
   46.0980   36.0200   41.3510 H   0  0  0  0  0  0  0  0  0  0  0  0
   47.4590   34.3460   40.3020 H   0  0  0  0  0  0  0  0  0  0  0  0
   48.0400   32.3380   41.5060 H   0  0  0  0  0  0  0  0  0  0  0  0
   47.3590   31.6280   43.8430 C   0  0  0  0  0  0  0  0  0  0  0  0
   46.4970   30.6220   43.3420 C   0  0  0  0  0  0  0  0  0  0  0  0
   46.6080   29.2440   43.5640 C   0  0  0  0  0  0  0  0  0  0  0  0
   45.9300   28.5090   43.1650 H   0  0  0  0  0  0  0  0  0  0  0  0
   47.6610   28.8620   44.3460 N   0  0  0  0  0  0  0  0  0  0  0  0
   48.4800   29.8440   44.8180 C   0  0  0  0  0  0  0  0  0  0  0  0
   48.3530   31.1430   44.5930 N   0  0  0  0  0  0  0  0  0  0  0  0
   47.5060   29.6620   48.6430 N   0  0  0  0  0  0  0  0  0  0  0  0
   48.1470   28.8680   48.4350 H   0  0  0  0  0  0  0  0  0  0  0  0
   47.1900   29.8340   49.6290 H   0  0  0  0  0  0  0  0  0  0  0  0
  1  2  1  0  0  0  0
  1 12  1  0  0  0  0
  2 42  1  0  0  0  0
  3  2  2  0  0  0  0
  4  3  1  0  0  0  0
  5  4  2  0  0  0  0
  5  6  1  0  0  0  0
  6  1  2  0  0  0  0
  7  3  1  0  0  0  0
  7 11  1  0  0  0  0
  8  9  1  0  0  0  0
  8 13  1  0  0  0  0
  8  7  1  0  0  0  0
  9 15  1  0  0  0  0
  9 10  1  0  0  0  0
 10 17  1  0  0  0  0
 10 11  1  0  0  0  0
 10 18  1  0  0  0  0
 11 19  1  0  0  0  0
 14  8  1  0  0  0  0
 16  9  1  0  0  0  0
 20 11  1  0  0  0  0
 21 22  1  0  0  0  0
 21  5  1  0  0  0  0
 23 31  1  0  0  0  0
 23 22  2  0  0  0  0
 24 23  1  0  0  0  0
 25 24  2  0  0  0  0
 25 30  1  0  0  0  0
 26 25  1  0  0  0  0
 27 26  2  0  0  0  0
 27 28  1  0  0  0  0
 28 29  2  0  0  0  0
 29 35  1  0  0  0  0
 29 30  1  0  0  0  0
 30 21  2  0  0  0  0
 32 26  1  0  0  0  0
 33 27  1  0  0  0  0
 34 28  1  0  0  0  0
 35 41  1  0  0  0  0
 36 37  1  0  0  0  0
 36 35  2  0  0  0  0
 37 39  2  0  0  0  0
 38 37  1  0  0  0  0
 39 40  1  0  0  0  0
 41 40  2  0  0  0  0
 42 44  1  0  0  0  0
 43 42  1  0  0  0  0
M  END
>  <minimizedAffinity>
-6.11540556

>  <minimizedRMSD>
0.921702206

$$$$
