
 OpenBabel03242513503D

 29 31  0  0  1  0  0  0  0  0999 V2000
   37.3610   29.7530   41.9400 C   0  0  2  0  0  0  0  0  0  0  0  0
   38.1470   29.3190   43.1420 C   0  0  0  0  0  0  0  0  0  0  0  0
   37.2760   28.1830   43.6560 C   0  0  0  0  0  0  0  0  0  0  0  0
   36.6470   27.5840   42.4160 C   0  0  0  0  0  0  0  0  0  0  0  0
   37.1530   28.4160   41.2510 C   0  0  1  0  0  0  0  0  0  0  0  0
   36.3930   30.1630   42.3170 H   0  0  0  0  0  0  0  0  0  0  0  0
   38.2160   30.1470   43.8670 H   0  0  0  0  0  0  0  0  0  0  0  0
   39.1440   28.9200   42.8570 H   0  0  0  0  0  0  0  0  0  0  0  0
   37.9610   27.4270   44.1360 H   0  0  0  0  0  0  0  0  0  0  0  0
   36.5310   28.5710   44.3620 H   0  0  0  0  0  0  0  0  0  0  0  0
   36.9710   26.5380   42.2580 H   0  0  0  0  0  0  0  0  0  0  0  0
   35.5260   27.6640   42.4470 H   0  0  0  0  0  0  0  0  0  0  0  0
   38.1610   28.0900   40.9250 H   0  0  0  0  0  0  0  0  0  0  0  0
   39.8390   31.6230   39.8130 C   0  0  0  0  0  0  0  0  0  0  0  0
   39.3360   30.5920   40.6310 C   0  0  0  0  0  0  0  0  0  0  0  0
   38.0220   30.7490   41.0870 C   0  0  0  0  0  0  0  0  0  0  0  0
   37.2910   31.8670   40.7330 N   0  0  0  0  0  0  0  0  0  0  0  0
   37.8390   32.8200   39.9420 C   0  0  0  0  0  0  0  0  0  0  0  0
   39.1010   32.7010   39.4850 N   0  0  0  0  0  0  0  0  0  0  0  0
   40.8560   31.4200   39.5080 H   0  0  0  0  0  0  0  0  0  0  0  0
   39.8980   29.7220   40.9100 H   0  0  0  0  0  0  0  0  0  0  0  0
   37.2980   33.7000   39.6490 H   0  0  0  0  0  0  0  0  0  0  0  0
   36.1420   28.4010   40.2050 C   0  0  0  0  0  0  0  0  0  0  0  0
   34.9600   29.1410   40.1420 C   0  0  0  0  0  3  0  0  0  0  0  0
   34.0860   29.0240   39.0800 C   0  0  0  0  0  0  0  0  0  0  0  0
   33.1820   29.6140   39.0690 H   0  0  0  0  0  0  0  0  0  0  0  0
   34.3700   28.1720   38.0660 N   0  0  0  0  0  0  0  0  0  0  0  0
   35.5210   27.4480   38.1200 C   0  0  0  0  0  3  0  0  0  0  0  0
   36.3610   27.5750   39.1630 N   0  0  0  0  0  0  0  0  0  0  0  0
  1  6  1  1  0  0  0
  1  2  1  0  0  0  0
  2  3  1  0  0  0  0
  2  7  1  0  0  0  0
  3  9  1  0  0  0  0
  3 10  1  0  0  0  0
  4 12  1  0  0  0  0
  4  3  1  0  0  0  0
  5 13  1  6  0  0  0
  5  1  1  0  0  0  0
  5  4  1  0  0  0  0
  8  2  1  0  0  0  0
 11  4  1  0  0  0  0
 14 15  1  0  0  0  0
 15 21  1  0  0  0  0
 15 16  2  0  0  0  0
 16  1  1  0  0  0  0
 17 16  1  0  0  0  0
 18 17  2  0  0  0  0
 19 14  2  0  0  0  0
 19 18  1  0  0  0  0
 20 14  1  0  0  0  0
 22 18  1  0  0  0  0
 23  5  1  0  0  0  0
 24 23  1  0  0  0  0
 25 24  2  0  0  0  0
 26 25  1  0  0  0  0
 27 28  2  0  0  0  0
 27 25  1  0  0  0  0
 28 29  1  0  0  0  0
 29 23  2  0  0  0  0
M  END
>  <minimizedAffinity>
-4.73982954

$$$$

 OpenBabel03242513503D

 29 31  0  0  1  0  0  0  0  0999 V2000
   37.5620   28.9200   41.2850 C   0  0  2  0  0  0  0  0  0  0  0  0
   36.2110   28.3950   41.6730 C   0  0  0  0  0  0  0  0  0  0  0  0
   36.5760   27.5390   42.8780 C   0  0  0  0  0  0  0  0  0  0  0  0
   37.7620   28.2380   43.5070 C   0  0  0  0  0  0  0  0  0  0  0  0
   38.0490   29.4410   42.6250 C   0  0  1  0  0  0  0  0  0  0  0  0
   38.1670   28.0420   40.9530 H   0  0  0  0  0  0  0  0  0  0  0  0
   35.7900   27.7920   40.8520 H   0  0  0  0  0  0  0  0  0  0  0  0
   35.5300   29.2110   41.9940 H   0  0  0  0  0  0  0  0  0  0  0  0
   35.6990   27.5690   43.5860 H   0  0  0  0  0  0  0  0  0  0  0  0
   36.8100   26.5170   42.5550 H   0  0  0  0  0  0  0  0  0  0  0  0
   37.5270   28.6060   44.5240 H   0  0  0  0  0  0  0  0  0  0  0  0
   38.6710   27.5780   43.5110 H   0  0  0  0  0  0  0  0  0  0  0  0
   37.3870   30.2950   42.8710 H   0  0  0  0  0  0  0  0  0  0  0  0
   36.9940   32.0660   39.3000 C   0  0  0  0  0  0  0  0  0  0  0  0
   36.9120   31.1770   40.3900 C   0  0  0  0  0  0  0  0  0  0  0  0
   37.5540   29.9440   40.2320 C   0  0  0  0  0  0  0  0  0  0  0  0
   38.2220   29.6520   39.0580 N   0  0  0  0  0  0  0  0  0  0  0  0
   38.2600   30.5550   38.0500 C   0  0  0  0  0  0  0  0  0  0  0  0
   37.6530   31.7520   38.1680 N   0  0  0  0  0  0  0  0  0  0  0  0
   36.4720   32.9890   39.5070 H   0  0  0  0  0  0  0  0  0  0  0  0
   36.3950   31.3970   41.3030 H   0  0  0  0  0  0  0  0  0  0  0  0
   38.7700   30.3590   37.1260 H   0  0  0  0  0  0  0  0  0  0  0  0
   39.4720   29.7340   42.7030 C   0  0  0  0  0  0  0  0  0  0  0  0
   40.0950   30.9840   42.6890 C   0  0  0  0  0  3  0  0  0  0  0  0
   41.4660   31.1120   42.7700 C   0  0  0  0  0  0  0  0  0  0  0  0
   41.9090   32.0960   42.7560 H   0  0  0  0  0  0  0  0  0  0  0  0
   42.2420   30.0060   42.8670 N   0  0  0  0  0  0  0  0  0  0  0  0
   41.6420   28.7840   42.8820 C   0  0  0  0  0  3  0  0  0  0  0  0
   40.3040   28.6770   42.8010 N   0  0  0  0  0  0  0  0  0  0  0  0
  1  6  1  6  0  0  0
  1  2  1  0  0  0  0
  1  5  1  0  0  0  0
  2  8  1  0  0  0  0
  2  3  1  0  0  0  0
  3  4  1  0  0  0  0
  3  9  1  0  0  0  0
  4 12  1  0  0  0  0
  4 11  1  0  0  0  0
  5 23  1  0  0  0  0
  5 13  1  1  0  0  0
  5  4  1  0  0  0  0
  7  2  1  0  0  0  0
 10  3  1  0  0  0  0
 14 20  1  0  0  0  0
 14 15  1  0  0  0  0
 15 21  1  0  0  0  0
 16 15  2  0  0  0  0
 16  1  1  0  0  0  0
 17 16  1  0  0  0  0
 18 19  1  0  0  0  0
 18 17  2  0  0  0  0
 19 14  2  0  0  0  0
 22 18  1  0  0  0  0
 23 29  1  0  0  0  0
 24 23  2  0  0  0  0
 24 25  1  0  0  0  0
 25 27  2  0  0  0  0
 26 25  1  0  0  0  0
 27 28  1  0  0  0  0
 29 28  2  0  0  0  0
M  END
>  <minimizedAffinity>
-4.71803093

$$$$

 OpenBabel03242513503D

 29 31  0  0  1  0  0  0  0  0999 V2000
   37.0770   28.2510   41.4660 C   0  0  2  0  0  0  0  0  0  0  0  0
   36.5800   27.5440   42.6920 C   0  0  0  0  0  0  0  0  0  0  0  0
   37.6890   27.8750   43.6800 C   0  0  0  0  0  0  0  0  0  0  0  0
   38.1860   29.2420   43.2610 C   0  0  0  0  0  0  0  0  0  0  0  0
   37.3690   29.6250   42.0400 C   0  0  1  0  0  0  0  0  0  0  0  0
   38.0190   27.7370   41.1570 H   0  0  0  0  0  0  0  0  0  0  0  0
   36.5070   26.4610   42.5020 H   0  0  0  0  0  0  0  0  0  0  0  0
   35.6230   27.9770   43.0550 H   0  0  0  0  0  0  0  0  0  0  0  0
   37.2190   27.9390   44.7020 H   0  0  0  0  0  0  0  0  0  0  0  0
   38.4730   27.1090   43.6330 H   0  0  0  0  0  0  0  0  0  0  0  0
   38.0050   30.0000   44.0470 H   0  0  0  0  0  0  0  0  0  0  0  0
   39.2700   29.2110   42.9670 H   0  0  0  0  0  0  0  0  0  0  0  0
   36.3830   30.0450   42.3230 H   0  0  0  0  0  0  0  0  0  0  0  0
   34.2060   29.0490   39.1670 C   0  0  0  0  0  0  0  0  0  0  0  0
   35.0170   29.1200   40.3180 C   0  0  0  0  0  0  0  0  0  0  0  0
   36.1360   28.2810   40.3380 C   0  0  0  0  0  0  0  0  0  0  0  0
   36.3990   27.4440   39.2700 N   0  0  0  0  0  0  0  0  0  0  0  0
   35.5760   27.4280   38.1950 C   0  0  0  0  0  0  0  0  0  0  0  0
   34.4890   28.2230   38.1420 N   0  0  0  0  0  0  0  0  0  0  0  0
   33.3680   29.7280   39.2360 H   0  0  0  0  0  0  0  0  0  0  0  0
   34.8180   29.7660   41.1500 H   0  0  0  0  0  0  0  0  0  0  0  0
   35.7520   26.7910   37.3500 H   0  0  0  0  0  0  0  0  0  0  0  0
   38.1810   30.4940   41.2020 C   0  0  0  0  0  0  0  0  0  0  0  0
   39.4870   30.2830   40.7550 C   0  0  0  0  0  3  0  0  0  0  0  0
   40.1390   31.2010   39.9580 C   0  0  0  0  0  0  0  0  0  0  0  0
   41.1490   31.0010   39.6340 H   0  0  0  0  0  0  0  0  0  0  0  0
   39.5080   32.3430   39.5920 N   0  0  0  0  0  0  0  0  0  0  0  0
   38.2350   32.5550   40.0230 C   0  0  0  0  0  3  0  0  0  0  0  0
   37.6140   31.6490   40.7990 N   0  0  0  0  0  0  0  0  0  0  0  0
  1  6  1  6  0  0  0
  1  5  1  0  0  0  0
  1  2  1  0  0  0  0
  2  8  1  0  0  0  0
  2  3  1  0  0  0  0
  3  9  1  0  0  0  0
  4  3  1  0  0  0  0
  4 11  1  0  0  0  0
  5 13  1  1  0  0  0
  5  4  1  0  0  0  0
  7  2  1  0  0  0  0
 10  3  1  0  0  0  0
 12  4  1  0  0  0  0
 14 20  1  0  0  0  0
 14 15  1  0  0  0  0
 15 16  2  0  0  0  0
 15 21  1  0  0  0  0
 16  1  1  0  0  0  0
 17 16  1  0  0  0  0
 18 17  2  0  0  0  0
 19 18  1  0  0  0  0
 19 14  2  0  0  0  0
 22 18  1  0  0  0  0
 23  5  1  0  0  0  0
 24 23  2  0  0  0  0
 25 24  1  0  0  0  0
 26 25  1  0  0  0  0
 27 25  2  0  0  0  0
 27 28  1  0  0  0  0
 28 29  2  0  0  0  0
 29 23  1  0  0  0  0
M  END
>  <minimizedAffinity>
-4.68560839

$$$$

 OpenBabel03242513503D

 29 31  0  0  1  0  0  0  0  0999 V2000
   37.1480   29.9260   39.0060 C   0  0  2  0  0  0  0  0  0  0  0  0
   36.2230   30.0760   37.8340 C   0  0  0  0  0  0  0  0  0  0  0  0
   35.5290   28.7220   37.8450 C   0  0  0  0  0  0  0  0  0  0  0  0
   35.4810   28.3220   39.3040 C   0  0  0  0  0  0  0  0  0  0  0  0
   36.1730   29.4400   40.0640 C   0  0  1  0  0  0  0  0  0  0  0  0
   37.8800   29.1260   38.7400 H   0  0  0  0  0  0  0  0  0  0  0  0
   36.8060   30.2340   36.9110 H   0  0  0  0  0  0  0  0  0  0  0  0
   35.4730   30.8760   38.0040 H   0  0  0  0  0  0  0  0  0  0  0  0
   34.4820   28.8810   37.4600 H   0  0  0  0  0  0  0  0  0  0  0  0
   36.0910   28.0080   37.2300 H   0  0  0  0  0  0  0  0  0  0  0  0
   34.4390   28.2490   39.6730 H   0  0  0  0  0  0  0  0  0  0  0  0
   36.0460   27.3680   39.4860 H   0  0  0  0  0  0  0  0  0  0  0  0
   35.4880   30.2910   40.2510 H   0  0  0  0  0  0  0  0  0  0  0  0
   38.0250   33.4490   39.9970 C   0  0  0  0  0  0  0  0  0  0  0  0
   37.2100   32.3620   39.6200 C   0  0  0  0  0  0  0  0  0  0  0  0
   37.8650   31.1460   39.3960 C   0  0  0  0  0  0  0  0  0  0  0  0
   39.2360   31.0560   39.5460 N   0  0  0  0  0  0  0  0  0  0  0  0
   39.9580   32.1420   39.9110 C   0  0  0  0  0  0  0  0  0  0  0  0
   39.3590   33.3280   40.1350 N   0  0  0  0  0  0  0  0  0  0  0  0
   37.4390   34.3440   40.1490 H   0  0  0  0  0  0  0  0  0  0  0  0
   36.1470   32.4260   39.5020 H   0  0  0  0  0  0  0  0  0  0  0  0
   41.0230   32.1050   40.0360 H   0  0  0  0  0  0  0  0  0  0  0  0
   36.7780   28.8730   41.2590 C   0  0  0  0  0  0  0  0  0  0  0  0
   37.3600   29.5500   42.3320 C   0  0  0  0  0  3  0  0  0  0  0  0
   37.8990   28.8760   43.4090 C   0  0  0  0  0  0  0  0  0  0  0  0
   38.3410   29.4360   44.2190 H   0  0  0  0  0  0  0  0  0  0  0  0
   37.8700   27.5220   43.4390 N   0  0  0  0  0  0  0  0  0  0  0  0
   37.3030   26.8550   42.3970 C   0  0  0  0  0  3  0  0  0  0  0  0
   36.7820   27.5280   41.3560 N   0  0  0  0  0  0  0  0  0  0  0  0
  1  6  1  6  0  0  0
  1 16  1  0  0  0  0
  1  5  1  0  0  0  0
  2  3  1  0  0  0  0
  2  8  1  0  0  0  0
  2  1  1  0  0  0  0
  3  4  1  0  0  0  0
  4 12  1  0  0  0  0
  4 11  1  0  0  0  0
  4  5  1  0  0  0  0
  5 13  1  1  0  0  0
  5 23  1  0  0  0  0
  7  2  1  0  0  0  0
  9  3  1  0  0  0  0
 10  3  1  0  0  0  0
 14 19  1  0  0  0  0
 14 20  1  0  0  0  0
 15 14  2  0  0  0  0
 16 17  2  0  0  0  0
 16 15  1  0  0  0  0
 17 18  1  0  0  0  0
 18 22  1  0  0  0  0
 18 19  2  0  0  0  0
 21 15  1  0  0  0  0
 23 29  2  0  0  0  0
 23 24  1  0  0  0  0
 24 25  2  0  0  0  0
 25 27  1  0  0  0  0
 25 26  1  0  0  0  0
 28 27  2  0  0  0  0
 29 28  1  0  0  0  0
M  END
>  <minimizedAffinity>
-4.65225601

$$$$

 OpenBabel03242513503D

 29 31  0  0  1  0  0  0  0  0999 V2000
   36.2310   29.1200   40.1610 C   0  0  2  0  0  0  0  0  0  0  0  0
   35.4800   28.1940   39.2510 C   0  0  0  0  0  0  0  0  0  0  0  0
   35.1390   29.1360   38.1050 C   0  0  0  0  0  0  0  0  0  0  0  0
   36.2910   30.1160   38.0530 C   0  0  0  0  0  0  0  0  0  0  0  0
   37.2250   29.7200   39.1830 C   0  0  1  0  0  0  0  0  0  0  0  0
   35.5010   29.8890   40.5120 H   0  0  0  0  0  0  0  0  0  0  0  0
   34.5770   27.8160   39.7570 H   0  0  0  0  0  0  0  0  0  0  0  0
   36.1290   27.3750   38.8740 H   0  0  0  0  0  0  0  0  0  0  0  0
   35.1210   28.5200   37.1610 H   0  0  0  0  0  0  0  0  0  0  0  0
   34.1760   29.6250   38.2970 H   0  0  0  0  0  0  0  0  0  0  0  0
   36.8500   30.0380   37.1010 H   0  0  0  0  0  0  0  0  0  0  0  0
   35.9410   31.1680   38.2350 H   0  0  0  0  0  0  0  0  0  0  0  0
   37.8920   28.8860   38.8880 H   0  0  0  0  0  0  0  0  0  0  0  0
   37.8240   26.6430   42.5020 C   0  0  0  0  0  0  0  0  0  0  0  0
   37.2090   27.1210   41.3280 C   0  0  0  0  0  0  0  0  0  0  0  0
   36.8690   28.4790   41.3170 C   0  0  0  0  0  0  0  0  0  0  0  0
   37.1380   29.2730   42.4150 N   0  0  0  0  0  0  0  0  0  0  0  0
   37.7330   28.7450   43.5110 C   0  0  0  0  0  0  0  0  0  0  0  0
   38.0740   27.4430   43.5560 N   0  0  0  0  0  0  0  0  0  0  0  0
   38.0520   25.5890   42.4240 H   0  0  0  0  0  0  0  0  0  0  0  0
   36.9970   26.5100   40.4730 H   0  0  0  0  0  0  0  0  0  0  0  0
   37.9560   29.3350   44.3810 H   0  0  0  0  0  0  0  0  0  0  0  0
   37.9140   30.9150   39.6450 C   0  0  0  0  0  0  0  0  0  0  0  0
   37.3700   32.1730   39.9130 C   0  0  0  0  0  3  0  0  0  0  0  0
   38.1510   33.2230   40.3490 C   0  0  0  0  0  0  0  0  0  0  0  0
   37.6920   34.1800   40.5450 H   0  0  0  0  0  0  0  0  0  0  0  0
   39.4820   33.0450   40.5260 N   0  0  0  0  0  0  0  0  0  0  0  0
   40.0200   31.8220   40.2670 C   0  0  0  0  0  3  0  0  0  0  0  0
   39.2440   30.8090   39.8430 N   0  0  0  0  0  0  0  0  0  0  0  0
  1  6  1  1  0  0  0
  1 16  1  0  0  0  0
  2  7  1  0  0  0  0
  2  1  1  0  0  0  0
  3 10  1  0  0  0  0
  3  2  1  0  0  0  0
  4  3  1  0  0  0  0
  4 12  1  0  0  0  0
  4  5  1  0  0  0  0
  5 13  1  6  0  0  0
  5 23  1  0  0  0  0
  5  1  1  0  0  0  0
  8  2  1  0  0  0  0
  9  3  1  0  0  0  0
 11  4  1  0  0  0  0
 14 19  1  0  0  0  0
 15 14  2  0  0  0  0
 16 15  1  0  0  0  0
 16 17  2  0  0  0  0
 17 18  1  0  0  0  0
 18 19  2  0  0  0  0
 18 22  1  0  0  0  0
 20 14  1  0  0  0  0
 21 15  1  0  0  0  0
 23 29  2  0  0  0  0
 23 24  1  0  0  0  0
 24 25  2  0  0  0  0
 25 27  1  0  0  0  0
 25 26  1  0  0  0  0
 28 27  2  0  0  0  0
 29 28  1  0  0  0  0
M  END
>  <minimizedAffinity>
-4.63630533

$$$$

 OpenBabel03242513503D

 29 31  0  0  1  0  0  0  0  0999 V2000
   37.0720   28.4590   41.1960 C   0  0  2  0  0  0  0  0  0  0  0  0
   36.7500   27.6240   42.3990 C   0  0  0  0  0  0  0  0  0  0  0  0
   37.8840   28.0230   43.3330 C   0  0  0  0  0  0  0  0  0  0  0  0
   38.1880   29.4640   42.9800 C   0  0  0  0  0  0  0  0  0  0  0  0
   37.2450   29.8210   41.8440 C   0  0  1  0  0  0  0  0  0  0  0  0
   38.0420   28.0820   40.7910 H   0  0  0  0  0  0  0  0  0  0  0  0
   36.7890   26.5530   42.1390 H   0  0  0  0  0  0  0  0  0  0  0  0
   35.7790   27.9150   42.8530 H   0  0  0  0  0  0  0  0  0  0  0  0
   37.4850   27.9670   44.3860 H   0  0  0  0  0  0  0  0  0  0  0  0
   38.7450   27.3610   43.1820 H   0  0  0  0  0  0  0  0  0  0  0  0
   37.9780   30.1440   43.8280 H   0  0  0  0  0  0  0  0  0  0  0  0
   39.2440   29.5810   42.6140 H   0  0  0  0  0  0  0  0  0  0  0  0
   36.2410   30.1010   42.2200 H   0  0  0  0  0  0  0  0  0  0  0  0
   33.9740   29.0590   39.1460 C   0  0  0  0  0  0  0  0  0  0  0  0
   34.8530   29.1560   40.2430 C   0  0  0  0  0  0  0  0  0  0  0  0
   36.0550   28.4460   40.1370 C   0  0  0  0  0  0  0  0  0  0  0  0
   36.3270   27.7030   39.0040 N   0  0  0  0  0  0  0  0  0  0  0  0
   35.4350   27.6550   37.9870 C   0  0  0  0  0  0  0  0  0  0  0  0
   34.2680   28.3260   38.0550 N   0  0  0  0  0  0  0  0  0  0  0  0
   33.0750   29.6350   39.3120 H   0  0  0  0  0  0  0  0  0  0  0  0
   34.6470   29.7300   41.1240 H   0  0  0  0  0  0  0  0  0  0  0  0
   35.6170   27.0880   37.0930 H   0  0  0  0  0  0  0  0  0  0  0  0
   37.8890   30.8310   41.0180 C   0  0  0  0  0  0  0  0  0  0  0  0
   37.3040   31.9410   40.4060 C   0  0  0  0  0  3  0  0  0  0  0  0
   38.0430   32.8220   39.6440 C   0  0  0  0  0  0  0  0  0  0  0  0
   37.5540   33.6690   39.1870 H   0  0  0  0  0  0  0  0  0  0  0  0
   39.3720   32.6180   39.4760 N   0  0  0  0  0  0  0  0  0  0  0  0
   39.9490   31.5380   40.0710 C   0  0  0  0  0  3  0  0  0  0  0  0
   39.2130   30.6890   40.8100 N   0  0  0  0  0  0  0  0  0  0  0  0
  1  6  1  6  0  0  0
  1  5  1  0  0  0  0
  1  2  1  0  0  0  0
  2  8  1  0  0  0  0
  2  3  1  0  0  0  0
  3  9  1  0  0  0  0
  4  3  1  0  0  0  0
  4 11  1  0  0  0  0
  5 13  1  1  0  0  0
  5  4  1  0  0  0  0
  7  2  1  0  0  0  0
 10  3  1  0  0  0  0
 12  4  1  0  0  0  0
 14 20  1  0  0  0  0
 14 15  1  0  0  0  0
 15 21  1  0  0  0  0
 16 15  2  0  0  0  0
 16  1  1  0  0  0  0
 17 16  1  0  0  0  0
 18 19  1  0  0  0  0
 18 17  2  0  0  0  0
 19 14  2  0  0  0  0
 22 18  1  0  0  0  0
 23  5  1  0  0  0  0
 24 23  2  0  0  0  0
 25 24  1  0  0  0  0
 26 25  1  0  0  0  0
 27 25  2  0  0  0  0
 27 28  1  0  0  0  0
 28 29  2  0  0  0  0
 29 23  1  0  0  0  0
M  END
>  <minimizedAffinity>
-4.62327242

$$$$

 OpenBabel03242513503D

 29 31  0  0  1  0  0  0  0  0999 V2000
   37.3830   29.9910   39.2810 C   0  0  2  0  0  0  0  0  0  0  0  0
   36.4970   30.5110   38.1880 C   0  0  0  0  0  0  0  0  0  0  0  0
   35.5030   29.3650   38.0600 C   0  0  0  0  0  0  0  0  0  0  0  0
   35.3920   28.7900   39.4550 C   0  0  0  0  0  0  0  0  0  0  0  0
   36.3430   29.6020   40.3170 C   0  0  1  0  0  0  0  0  0  0  0  0
   37.9010   29.0880   38.8760 H   0  0  0  0  0  0  0  0  0  0  0  0
   37.0810   30.6550   37.2640 H   0  0  0  0  0  0  0  0  0  0  0  0
   35.9600   31.4310   38.4990 H   0  0  0  0  0  0  0  0  0  0  0  0
   34.5150   29.8130   37.7540 H   0  0  0  0  0  0  0  0  0  0  0  0
   35.8690   28.6330   37.3290 H   0  0  0  0  0  0  0  0  0  0  0  0
   34.3700   28.9090   39.8660 H   0  0  0  0  0  0  0  0  0  0  0  0
   35.7190   27.7160   39.4820 H   0  0  0  0  0  0  0  0  0  0  0  0
   35.8830   30.5540   40.6470 H   0  0  0  0  0  0  0  0  0  0  0  0
   40.5900   31.7100   40.2430 C   0  0  0  0  0  0  0  0  0  0  0  0
   39.7530   30.7000   39.7280 C   0  0  0  0  0  0  0  0  0  0  0  0
   38.3770   30.9460   39.7870 C   0  0  0  0  0  0  0  0  0  0  0  0
   37.9040   32.1270   40.3280 N   0  0  0  0  0  0  0  0  0  0  0  0
   38.7660   33.0550   40.8060 C   0  0  0  0  0  0  0  0  0  0  0  0
   40.0980   32.8500   40.7650 N   0  0  0  0  0  0  0  0  0  0  0  0
   41.6320   31.4370   40.1580 H   0  0  0  0  0  0  0  0  0  0  0  0
   40.1140   29.7820   39.3080 H   0  0  0  0  0  0  0  0  0  0  0  0
   38.4310   33.9810   41.2320 H   0  0  0  0  0  0  0  0  0  0  0  0
   36.8210   28.7510   41.3950 C   0  0  0  0  0  0  0  0  0  0  0  0
   36.8980   27.3570   41.4220 C   0  0  0  0  0  3  0  0  0  0  0  0
   37.3770   26.6770   42.5230 C   0  0  0  0  0  0  0  0  0  0  0  0
   37.4190   25.5990   42.5040 H   0  0  0  0  0  0  0  0  0  0  0  0
   37.7870   27.3670   43.6140 N   0  0  0  0  0  0  0  0  0  0  0  0
   37.7170   28.7260   43.5950 C   0  0  0  0  0  3  0  0  0  0  0  0
   37.2470   29.3720   42.5140 N   0  0  0  0  0  0  0  0  0  0  0  0
  1  6  1  6  0  0  0
  1 16  1  0  0  0  0
  1  5  1  0  0  0  0
  2  8  1  0  0  0  0
  2  1  1  0  0  0  0
  3  2  1  0  0  0  0
  3  4  1  0  0  0  0
  4 12  1  0  0  0  0
  4 11  1  0  0  0  0
  4  5  1  0  0  0  0
  5 13  1  1  0  0  0
  5 23  1  0  0  0  0
  7  2  1  0  0  0  0
  9  3  1  0  0  0  0
 10  3  1  0  0  0  0
 14 19  1  0  0  0  0
 15 16  1  0  0  0  0
 15 14  2  0  0  0  0
 16 17  2  0  0  0  0
 17 18  1  0  0  0  0
 18 22  1  0  0  0  0
 19 18  2  0  0  0  0
 20 14  1  0  0  0  0
 21 15  1  0  0  0  0
 23 24  2  0  0  0  0
 23 29  1  0  0  0  0
 24 25  1  0  0  0  0
 25 27  2  0  0  0  0
 26 25  1  0  0  0  0
 28 27  1  0  0  0  0
 29 28  2  0  0  0  0
M  END
>  <minimizedAffinity>
-4.59429693

$$$$

 OpenBabel03242513503D

 29 31  0  0  1  0  0  0  0  0999 V2000
   37.0550   29.8740   41.5520 C   0  0  2  0  0  0  0  0  0  0  0  0
   37.7000   29.2850   42.7720 C   0  0  0  0  0  0  0  0  0  0  0  0
   36.9440   27.9690   42.8860 C   0  0  0  0  0  0  0  0  0  0  0  0
   36.6170   27.5850   41.4590 C   0  0  0  0  0  0  0  0  0  0  0  0
   37.1670   28.7040   40.5910 C   0  0  1  0  0  0  0  0  0  0  0  0
   35.9880   30.0750   41.8150 H   0  0  0  0  0  0  0  0  0  0  0  0
   37.5250   29.9370   43.6440 H   0  0  0  0  0  0  0  0  0  0  0  0
   38.7780   29.0780   42.6060 H   0  0  0  0  0  0  0  0  0  0  0  0
   37.6540   27.2140   43.3290 H   0  0  0  0  0  0  0  0  0  0  0  0
   36.0470   28.1050   43.5030 H   0  0  0  0  0  0  0  0  0  0  0  0
   37.1200   26.6440   41.1640 H   0  0  0  0  0  0  0  0  0  0  0  0
   35.5070   27.5230   41.2960 H   0  0  0  0  0  0  0  0  0  0  0  0
   38.2510   28.5780   40.4010 H   0  0  0  0  0  0  0  0  0  0  0  0
   37.6980   33.1890   39.8920 C   0  0  0  0  0  0  0  0  0  0  0  0
   36.9720   32.0540   40.3050 C   0  0  0  0  0  0  0  0  0  0  0  0
   37.6810   31.1020   41.0460 C   0  0  0  0  0  0  0  0  0  0  0  0
   39.0170   31.2990   41.3360 N   0  0  0  0  0  0  0  0  0  0  0  0
   39.6530   32.4150   40.9060 C   0  0  0  0  0  0  0  0  0  0  0  0
   39.0010   33.3520   40.1910 N   0  0  0  0  0  0  0  0  0  0  0  0
   37.0760   33.8690   39.3280 H   0  0  0  0  0  0  0  0  0  0  0  0
   35.9350   31.8950   40.0830 H   0  0  0  0  0  0  0  0  0  0  0  0
   40.6900   32.5980   41.1150 H   0  0  0  0  0  0  0  0  0  0  0  0
   36.3460   28.7970   39.3930 C   0  0  0  0  0  0  0  0  0  0  0  0
   34.9530   28.8150   39.3040 C   0  0  0  0  0  3  0  0  0  0  0  0
   34.3050   28.9080   38.0900 C   0  0  0  0  0  0  0  0  0  0  0  0
   33.2260   28.9180   38.0630 H   0  0  0  0  0  0  0  0  0  0  0  0
   35.0260   28.9840   36.9460 N   0  0  0  0  0  0  0  0  0  0  0  0
   36.3840   28.9690   37.0250 C   0  0  0  0  0  3  0  0  0  0  0  0
   37.0000   28.8780   38.2170 N   0  0  0  0  0  0  0  0  0  0  0  0
  1  6  1  1  0  0  0
  1  2  1  0  0  0  0
  2  3  1  0  0  0  0
  2  7  1  0  0  0  0
  3  9  1  0  0  0  0
  3 10  1  0  0  0  0
  4  3  1  0  0  0  0
  5 13  1  6  0  0  0
  5  4  1  0  0  0  0
  5  1  1  0  0  0  0
  8  2  1  0  0  0  0
 11  4  1  0  0  0  0
 12  4  1  0  0  0  0
 14 19  2  0  0  0  0
 14 15  1  0  0  0  0
 15 16  2  0  0  0  0
 16 17  1  0  0  0  0
 16  1  1  0  0  0  0
 18 22  1  0  0  0  0
 18 17  2  0  0  0  0
 19 18  1  0  0  0  0
 20 14  1  0  0  0  0
 21 15  1  0  0  0  0
 23  5  1  0  0  0  0
 24 23  1  0  0  0  0
 25 24  2  0  0  0  0
 26 25  1  0  0  0  0
 27 28  2  0  0  0  0
 27 25  1  0  0  0  0
 28 29  1  0  0  0  0
 29 23  2  0  0  0  0
M  END
>  <minimizedAffinity>
-4.53491545

$$$$

 OpenBabel03242513503D

 29 31  0  0  1  0  0  0  0  0999 V2000
   38.4010   28.9920   42.7990 C   0  0  2  0  0  0  0  0  0  0  0  0
   38.1640   27.7250   43.5660 C   0  0  0  0  0  0  0  0  0  0  0  0
   36.6860   27.4960   43.2840 C   0  0  0  0  0  0  0  0  0  0  0  0
   36.4630   28.0600   41.8970 C   0  0  0  0  0  0  0  0  0  0  0  0
   37.8050   28.6160   41.4540 C   0  0  1  0  0  0  0  0  0  0  0  0
   37.7960   29.7890   43.2960 H   0  0  0  0  0  0  0  0  0  0  0  0
   38.3580   27.8900   44.6380 H   0  0  0  0  0  0  0  0  0  0  0  0
   38.7530   26.8790   43.1520 H   0  0  0  0  0  0  0  0  0  0  0  0
   36.5170   26.3810   43.2720 H   0  0  0  0  0  0  0  0  0  0  0  0
   36.0770   27.9970   44.0470 H   0  0  0  0  0  0  0  0  0  0  0  0
   36.1630   27.2720   41.1800 H   0  0  0  0  0  0  0  0  0  0  0  0
   35.7190   28.9020   41.9130 H   0  0  0  0  0  0  0  0  0  0  0  0
   38.4620   27.8200   41.0500 H   0  0  0  0  0  0  0  0  0  0  0  0
   41.5720   31.0170   42.7220 C   0  0  0  0  0  0  0  0  0  0  0  0
   40.1900   30.7580   42.8130 C   0  0  0  0  0  0  0  0  0  0  0  0
   39.8040   29.4160   42.7130 C   0  0  0  0  0  0  0  0  0  0  0  0
   40.7560   28.4300   42.5340 N   0  0  0  0  0  0  0  0  0  0  0  0
   42.0680   28.7520   42.4540 C   0  0  0  0  0  0  0  0  0  0  0  0
   42.4750   30.0330   42.5470 N   0  0  0  0  0  0  0  0  0  0  0  0
   41.7790   32.0740   42.8090 H   0  0  0  0  0  0  0  0  0  0  0  0
   39.4470   31.5180   42.9520 H   0  0  0  0  0  0  0  0  0  0  0  0
   42.8320   28.0100   42.3160 H   0  0  0  0  0  0  0  0  0  0  0  0
   37.5620   29.7240   40.5440 C   0  0  0  0  0  0  0  0  0  0  0  0
   36.9320   30.9400   40.8190 C   0  0  0  0  0  3  0  0  0  0  0  0
   36.7690   31.9080   39.8490 C   0  0  0  0  0  0  0  0  0  0  0  0
   36.2760   32.8340   40.1010 H   0  0  0  0  0  0  0  0  0  0  0  0
   37.2280   31.6880   38.5940 N   0  0  0  0  0  0  0  0  0  0  0  0
   37.8440   30.5050   38.3190 C   0  0  0  0  0  3  0  0  0  0  0  0
   37.9940   29.5730   39.2760 N   0  0  0  0  0  0  0  0  0  0  0  0
  1  6  1  1  0  0  0
  1  2  1  0  0  0  0
  2  7  1  0  0  0  0
  3  2  1  0  0  0  0
  3 10  1  0  0  0  0
  4 12  1  0  0  0  0
  4  3  1  0  0  0  0
  5 13  1  6  0  0  0
  5  4  1  0  0  0  0
  5  1  1  0  0  0  0
  8  2  1  0  0  0  0
  9  3  1  0  0  0  0
 11  4  1  0  0  0  0
 14 20  1  0  0  0  0
 14 15  1  0  0  0  0
 15 21  1  0  0  0  0
 16  1  1  0  0  0  0
 16 15  2  0  0  0  0
 17 16  1  0  0  0  0
 18 17  2  0  0  0  0
 18 19  1  0  0  0  0
 19 14  2  0  0  0  0
 22 18  1  0  0  0  0
 23 24  1  0  0  0  0
 23  5  1  0  0  0  0
 25 26  1  0  0  0  0
 25 24  2  0  0  0  0
 27 25  1  0  0  0  0
 28 27  2  0  0  0  0
 28 29  1  0  0  0  0
 29 23  2  0  0  0  0
M  END
>  <minimizedAffinity>
-4.5153141

$$$$
