
 OpenBabel03242516053D

 34 37  0  0  0  0  0  0  0  0999 V2000
   45.4480   32.9820   41.1580 Cl  0  0  0  0  0  0  0  0  0  0  0  0
   46.8070   34.0700   41.0940 C   0  0  0  0  0  0  0  0  0  0  0  0
   47.1350   34.8790   42.1280 C   0  0  0  0  0  0  0  0  0  0  0  0
   48.2290   35.6950   41.9620 C   0  0  0  0  0  0  0  0  0  0  0  0
   48.9580   35.7100   40.8300 C   0  0  0  0  0  0  0  0  0  0  0  0
   48.6370   34.8950   39.7740 C   0  0  0  0  0  0  0  0  0  0  0  0
   47.5310   34.0600   39.9240 C   0  0  0  0  0  0  0  0  0  0  0  0
   48.5120   36.3530   42.7760 H   0  0  0  0  0  0  0  0  0  0  0  0
   49.8100   36.3730   40.7530 H   0  0  0  0  0  0  0  0  0  0  0  0
   49.2440   34.9360   38.8900 H   0  0  0  0  0  0  0  0  0  0  0  0
   44.5080   35.6440   44.7580 C   0  0  0  0  0  0  0  0  0  0  0  0
   45.2830   35.7140   43.5920 C   0  0  0  0  0  0  0  0  0  0  0  0
   46.3170   34.8280   43.3290 C   0  0  0  0  0  0  0  0  0  0  0  0
   46.5160   33.8850   44.2960 N   0  0  0  0  0  0  0  0  0  0  0  0
   45.7690   33.8280   45.4070 C   0  0  0  0  0  0  0  0  0  0  0  0
   44.7830   34.6950   45.6290 N   0  0  0  0  0  0  0  0  0  0  0  0
   43.7040   36.3620   44.9240 H   0  0  0  0  0  0  0  0  0  0  0  0
   45.0730   36.4870   42.8630 H   0  0  0  0  0  0  0  0  0  0  0  0
   46.0940   33.0080   46.0390 H   0  0  0  0  0  0  0  0  0  0  0  0
   47.1640   33.1710   38.7960 C   0  0  0  0  0  0  0  0  0  0  0  0
   47.6940   31.8860   38.6370 C   0  0  0  0  0  0  0  0  0  0  0  0
   46.9100   31.2770   37.1230 S   0  0  0  0  0  0  0  0  0  0  0  0
   45.9430   32.9240   36.9230 C   0  0  0  0  0  0  0  0  0  0  0  0
   46.3300   33.4500   37.8280 N   0  0  0  0  0  0  0  0  0  0  0  0
   45.0380   33.2220   35.8710 N   0  0  0  0  0  0  0  0  0  0  0  0
   45.2730   33.8130   35.0700 H   0  0  0  0  0  0  0  0  0  0  0  0
   44.1140   32.7660   36.0200 H   0  0  0  0  0  0  0  0  0  0  0  0
   48.6470   31.1450   39.4490 C   0  0  0  0  0  0  0  0  0  0  0  0
   48.4250   30.2090   40.4370 C   0  0  0  0  0  0  0  0  0  0  0  0
   49.5270   29.6420   41.0700 C   0  0  0  0  0  0  0  0  0  0  0  0
   49.2830   28.9100   41.8390 H   0  0  0  0  0  0  0  0  0  0  0  0
   50.7800   29.9990   40.7260 N   0  0  0  0  0  0  0  0  0  0  0  0
   50.9850   30.9100   39.7650 C   0  0  0  0  0  0  0  0  0  0  0  0
   49.9370   31.4690   39.1410 N   0  0  0  0  0  0  0  0  0  0  0  0
  2  1  1  0  0  0  0
  2  3  1  0  0  0  0
  3 13  1  0  0  0  0
  4  3  2  0  0  0  0
  4  8  1  0  0  0  0
  5  4  1  0  0  0  0
  6  7  1  0  0  0  0
  6  5  2  0  0  0  0
  7  2  2  0  0  0  0
  9  5  1  0  0  0  0
 10  6  1  0  0  0  0
 11 17  1  0  0  0  0
 11 16  1  0  0  0  0
 12 11  2  0  0  0  0
 13 12  1  0  0  0  0
 13 14  2  0  0  0  0
 14 15  1  0  0  0  0
 15 16  2  0  0  0  0
 15 19  1  0  0  0  0
 18 12  1  0  0  0  0
 20  7  1  0  0  0  0
 21 20  2  0  0  0  0
 21 28  1  0  0  0  0
 22 21  1  0  0  0  0
 23 22  1  0  0  0  0
 23 24  2  0  0  0  0
 24 20  1  0  0  0  0
 25 27  1  0  0  0  0
 25 23  1  0  0  0  0
 26 25  1  0  0  0  0
 28 29  1  0  0  0  0
 29 30  2  0  0  0  0
 30 31  1  0  0  0  0
 32 30  1  0  0  0  0
 33 32  2  0  0  0  0
 34 28  2  0  0  0  0
 34 33  1  0  0  0  0
M  END
>  <minimizedAffinity>
-6.04117346

>  <minimizedRMSD>
1.29480505

$$$$
