
     RDKit          3D

 37 40  0  0  0  0  0  0  0  0999 V2000
   46.5737   31.7099   46.0508 S   0  0  0  0  0  0  0  0  0  0  0  0
   47.6196   31.0701   47.3381 C   0  0  0  0  0  0  0  0  0  0  0  0
   47.9546   31.9224   48.3635 C   0  0  0  0  0  0  0  0  0  0  0  0
   48.7600   31.4425   49.3684 C   0  0  0  0  0  0  0  0  0  0  0  0
   49.2390   30.1446   49.3813 C   0  0  0  0  0  0  0  0  0  0  0  0
   50.0224   29.6982   50.3734 N   0  0  0  0  0  0  0  0  0  0  0  0
   50.4929   28.4400   50.3983 C   0  0  0  0  0  0  0  0  0  0  0  0
   50.1597   27.5831   49.3726 C   0  0  0  0  0  0  0  0  0  0  0  0
   49.3495   28.0233   48.3342 C   0  0  0  0  0  0  0  0  0  0  0  0
   48.8615   29.3368   48.3136 C   0  0  0  0  0  0  0  0  0  0  0  0
   48.0551   29.7719   47.2813 C   0  0  0  0  0  0  0  0  0  0  0  0
   45.6082   33.1152   46.6382 C   0  0  0  0  0  0  0  0  0  0  0  0
   44.5861   35.9871   44.5032 C   0  0  0  0  0  0  0  0  0  0  0  0
   45.3418   35.7392   43.3370 C   0  0  0  0  0  0  0  0  0  0  0  0
   46.1688   34.6138   43.3127 C   0  0  0  0  0  0  0  0  0  0  0  0
   46.2382   33.7773   44.3984 N   0  0  0  0  0  0  0  0  0  0  0  0
   45.4783   34.0662   45.5130 C   0  0  0  0  0  0  0  0  0  0  0  0
   44.6846   35.1513   45.5289 N   0  0  0  0  0  0  0  0  0  0  0  0
   47.6721   32.9386   48.4987 H   0  0  0  0  0  0  0  0  0  0  0  0
   49.0781   32.0512   50.2261 H   0  0  0  0  0  0  0  0  0  0  0  0
   51.1280   28.1094   51.2208 H   0  0  0  0  0  0  0  0  0  0  0  0
   50.5171   26.5652   49.3552 H   0  0  0  0  0  0  0  0  0  0  0  0
   49.0577   27.3929   47.5050 H   0  0  0  0  0  0  0  0  0  0  0  0
   47.7849   29.1069   46.4670 H   0  0  0  0  0  0  0  0  0  0  0  0
   44.5809   32.7440   46.8458 H   0  0  0  0  0  0  0  0  0  0  0  0
   46.0417   33.6245   47.5181 H   0  0  0  0  0  0  0  0  0  0  0  0
   43.9436   36.8556   44.5308 H   0  0  0  0  0  0  0  0  0  0  0  0
   45.2616   36.4203   42.5007 H   0  0  0  0  0  0  0  0  0  0  0  0
   46.9546   34.3455   42.1154 C   0  0  0  0  0  0  0  0  0  0  0  0
   47.6429   35.3664   41.4944 C   0  0  0  0  0  0  0  0  0  0  0  0
   48.3429   34.9665   40.3731 C   0  0  0  0  0  0  0  0  0  0  0  0
   48.9123   35.7286   39.8312 H   0  0  0  0  0  0  0  0  0  0  0  0
   48.3737   33.6915   39.8956 N   0  0  0  0  0  0  0  0  0  0  0  0
   47.6669   32.7371   40.5652 C   0  0  0  0  0  0  0  0  0  0  0  0
   46.9712   33.0800   41.6612 N   0  0  0  0  0  0  0  0  0  0  0  0
   47.6413   36.3774   41.8409 H   0  0  0  0  0  0  0  0  0  0  0  0
   47.7494   31.7605   40.1167 H   0  0  0  0  0  0  0  0  0  0  0  0
  1 12  1  0
  1  2  1  0
  2  3  2  0
  3  4  1  0
  4  5  2  0
  5  6  1  0
  6  7  2  0
  8  7  1  0
  9  8  2  0
 10  9  1  0
 10  5  1  0
 11  2  1  0
 11 10  2  0
 13 18  2  0
 14 13  1  0
 15 14  2  0
 15 16  1  0
 16 17  2  0
 17 18  1  0
 17 12  1  0
  3 19  1  0
  4 20  1  0
  7 21  1  0
  8 22  1  0
  9 23  1  0
 11 24  1  0
 12 25  1  0
 12 26  1  0
 13 27  1  0
 14 28  1  0
 29 30  2  0
 30 31  1  0
 31 32  1  0
 31 33  2  0
 33 34  1  0
 34 35  2  0
 35 29  1  0
 30 36  1  0
 34 37  1  0
 15 29  1  0
M  ISO  8  19  14  20  14  21  14  22  14  23  14  24  14  25   8  26   8
M  ISO  3  27  14  28  14  32  14
M  END
>  <DihAtoms>  (1) 
13,14,28,29

>  <DihDeg>  (1) 
179.9991830664793

$$$$
