
 OpenBabel03252504113D

 23 24  0  0  0  0  0  0  0  0999 V2000
   47.0250   34.3060   43.0150 C   0  0  0  0  0  0  0  0  0  0  0  0
   45.8140   34.6630   43.6180 C   0  0  0  0  0  0  0  0  0  0  0  0
   45.2790   33.7970   44.5820 C   0  0  0  0  0  0  0  0  0  0  0  0
   45.9580   32.6600   44.8820 N   0  0  0  0  0  0  0  0  0  0  0  0
   47.1200   32.3540   44.2780 C   0  0  0  0  0  0  0  0  0  0  0  0
   47.6480   33.1630   43.3580 N   0  0  0  0  0  0  0  0  0  0  0  0
   44.3460   34.0870   45.0360 H   0  0  0  0  0  0  0  0  0  0  0  0
   47.8060   31.1140   44.6430 C   0  0  0  0  0  0  0  0  0  0  0  0
   47.5600   30.5220   45.8660 C   0  0  0  0  0  0  0  0  0  0  0  0
   48.2550   29.3590   46.1180 C   0  0  0  0  0  0  0  0  0  0  0  0
   48.0770   28.8720   47.0780 H   0  0  0  0  0  0  0  0  0  0  0  0
   49.1300   28.8030   45.2440 N   0  0  0  0  0  0  0  0  0  0  0  0
   49.3490   29.4060   44.0560 C   0  0  0  0  0  0  0  0  0  0  0  0
   48.6800   30.5400   43.7970 N   0  0  0  0  0  0  0  0  0  0  0  0
   45.1520   35.9300   43.2180 C   0  0  0  0  0  0  0  0  0  0  0  0
   46.0940   36.9330   43.0820 F   0  0  0  0  0  0  0  0  0  0  0  0
   44.5970   35.7420   41.9590 F   0  0  0  0  0  0  0  0  0  0  0  0
   44.1990   36.3680   44.0720 F   0  0  0  0  0  0  0  0  0  0  0  0
   47.5340   35.1390   42.0910 O   0  0  0  0  0  0  0  0  0  0  0  0
   48.8520   35.1890   41.6130 C   0  0  0  0  0  0  0  0  0  0  0  0
   49.6790   35.4220   42.7280 F   0  0  0  0  0  0  0  0  0  0  0  0
   49.1640   34.0170   40.9680 F   0  0  0  0  0  0  0  0  0  0  0  0
   49.0340   36.2930   40.8080 F   0  0  0  0  0  0  0  0  0  0  0  0
  1  6  2  0  0  0  0
  1  2  1  0  0  0  0
  2  3  2  0  0  0  0
  3  4  1  0  0  0  0
  3  7  1  0  0  0  0
  5  8  1  0  0  0  0
  5  4  2  0  0  0  0
  6  5  1  0  0  0  0
  8  9  1  0  0  0  0
  9 10  2  0  0  0  0
 10 11  1  0  0  0  0
 12 10  1  0  0  0  0
 13 12  2  0  0  0  0
 14 13  1  0  0  0  0
 14  8  2  0  0  0  0
 15  2  1  0  0  0  0
 15 18  1  0  0  0  0
 16 15  1  0  0  0  0
 17 15  1  0  0  0  0
 19  1  1  0  0  0  0
 20 19  1  0  0  0  0
 20 21  1  0  0  0  0
 22 20  1  0  0  0  0
 23 20  1  0  0  0  0
M  END
>  <minimizedAffinity>
-4.95338774

>  <minimizedRMSD>
0.692302346

$$$$
