
 OpenBabel03252502103D

 46 50  0  0  0  0  0  0  0  0999 V2000
   37.7370   27.1710   36.5970 C   0  0  0  0  0  0  0  0  0  0  0  0
   36.5920   27.7400   36.0290 C   0  0  0  0  0  0  0  0  0  0  0  0
   35.5690   28.0420   36.8800 C   0  0  0  0  0  0  0  0  0  0  0  0
   35.6860   27.8010   38.1820 N   0  0  0  0  0  0  0  0  0  0  0  0
   36.7540   27.2690   38.7410 C   0  0  0  0  0  0  0  0  0  0  0  0
   37.7830   26.9560   37.9230 N   0  0  0  0  0  0  0  0  0  0  0  0
   34.4080   28.5840   36.3800 N   0  0  0  0  0  0  0  0  0  0  0  0
   33.1630   28.7770   37.1790 C   0  0  0  0  0  0  0  0  0  0  0  0
   32.2710   29.6530   36.3430 C   0  0  0  0  0  0  0  0  0  0  0  0
   32.7120   29.3750   34.9580 C   0  0  0  0  0  0  0  0  0  0  0  0
   34.1590   29.0470   35.0460 C   0  0  0  0  0  0  0  0  0  0  0  0
   38.5820   26.9090   35.9570 H   0  0  0  0  0  0  0  0  0  0  0  0
   32.7670   27.7520   37.2890 H   0  0  0  0  0  0  0  0  0  0  0  0
   33.3900   29.1660   38.1810 H   0  0  0  0  0  0  0  0  0  0  0  0
   31.2270   29.2470   36.4710 H   0  0  0  0  0  0  0  0  0  0  0  0
   32.3020   30.7110   36.6390 H   0  0  0  0  0  0  0  0  0  0  0  0
   32.0860   28.6330   34.4200 H   0  0  0  0  0  0  0  0  0  0  0  0
   32.6100   30.3260   34.3650 H   0  0  0  0  0  0  0  0  0  0  0  0
   34.7950   29.9280   34.7660 H   0  0  0  0  0  0  0  0  0  0  0  0
   34.2950   28.2130   34.3250 H   0  0  0  0  0  0  0  0  0  0  0  0
   37.0930   26.9540   40.1510 C   0  0  0  0  0  0  0  0  0  0  0  0
   36.9080   25.7490   40.7110 N   0  0  0  0  0  0  0  0  0  0  0  0
   37.2080   25.4330   41.9640 C   0  0  0  0  0  0  0  0  0  0  0  0
   37.7460   26.3670   42.7800 N   0  0  0  0  0  0  0  0  0  0  0  0
   37.9820   27.6130   42.3430 C   0  0  0  0  0  0  0  0  0  0  0  0
   38.5260   28.5660   43.1830 C   0  0  0  0  0  0  0  0  0  0  0  0
   38.7590   29.8310   42.7440 C   0  0  0  0  0  0  0  0  0  0  0  0
   38.4370   30.1410   41.4350 C   0  0  0  0  0  0  0  0  0  0  0  0
   37.8970   29.1560   40.6320 C   0  0  0  0  0  0  0  0  0  0  0  0
   37.6430   27.8710   41.0270 C   0  0  0  0  0  0  0  0  0  0  0  0
   37.0400   24.4450   42.3700 H   0  0  0  0  0  0  0  0  0  0  0  0
   38.7460   28.2330   44.1890 H   0  0  0  0  0  0  0  0  0  0  0  0
   39.1800   30.4830   43.4710 H   0  0  0  0  0  0  0  0  0  0  0  0
   38.6840   31.4960   40.9590 C   0  0  0  0  0  0  0  0  0  0  0  0
   39.9090   32.0790   40.9110 C   0  0  0  0  0  3  0  0  0  0  0  0
   40.0990   33.3800   40.4470 C   0  0  0  0  0  0  0  0  0  0  0  0
   41.1000   33.7980   40.4290 H   0  0  0  0  0  0  0  0  0  0  0  0
   39.0550   34.1160   40.0250 N   0  0  0  0  0  0  0  0  0  0  0  0
   37.8350   33.5320   40.0760 C   0  0  0  0  0  3  0  0  0  0  0  0
   37.6760   32.2740   40.5260 N   0  0  0  0  0  0  0  0  0  0  0  0
   37.6310   29.6350   39.3170 N   0  0  0  0  0  0  0  0  0  0  0  0
   38.1650   29.6430   38.4240 H   0  0  0  0  0  0  0  0  0  0  0  0
   36.6750   30.0420   39.4170 H   0  0  0  0  0  0  0  0  0  0  0  0
   36.6020   27.9750   34.6770 N   0  0  0  0  0  0  0  0  0  0  0  0
   36.7930   28.8240   34.1030 H   0  0  0  0  0  0  0  0  0  0  0  0
   36.3550   27.0170   34.2870 H   0  0  0  0  0  0  0  0  0  0  0  0
  1  6  1  0  0  0  0
  2  1  2  0  0  0  0
  2  3  1  0  0  0  0
  3  4  2  0  0  0  0
  4  5  1  0  0  0  0
  5 21  1  0  0  0  0
  6  5  2  0  0  0  0
  7  3  1  0  0  0  0
  7  8  1  0  0  0  0
  8 13  1  0  0  0  0
  8 14  1  0  0  0  0
  9 15  1  0  0  0  0
  9 16  1  0  0  0  0
  9  8  1  0  0  0  0
 10 11  1  0  0  0  0
 10  9  1  0  0  0  0
 11  7  1  0  0  0  0
 12  1  1  0  0  0  0
 17 10  1  0  0  0  0
 18 10  1  0  0  0  0
 19 11  1  0  0  0  0
 20 11  1  0  0  0  0
 21 22  2  0  0  0  0
 21 30  1  0  0  0  0
 22 23  1  0  0  0  0
 23 31  1  0  0  0  0
 23 24  2  0  0  0  0
 25 24  1  0  0  0  0
 25 26  1  0  0  0  0
 26 32  1  0  0  0  0
 27 26  2  0  0  0  0
 27 33  1  0  0  0  0
 28 27  1  0  0  0  0
 29 30  1  0  0  0  0
 29 28  2  0  0  0  0
 30 25  2  0  0  0  0
 34 28  1  0  0  0  0
 35 34  1  0  0  0  0
 36 35  2  0  0  0  0
 37 36  1  0  0  0  0
 38 39  2  0  0  0  0
 38 36  1  0  0  0  0
 39 40  1  0  0  0  0
 40 34  2  0  0  0  0
 41 43  1  0  0  0  0
 41 29  1  0  0  0  0
 42 41  1  0  0  0  0
 44  2  1  0  0  0  0
 45 44  1  0  0  0  0
 46 44  1  0  0  0  0
M  END
>  <minimizedAffinity>
-6.52961159

$$$$

 OpenBabel03252502103D

 46 50  0  0  0  0  0  0  0  0999 V2000
   36.6910   31.6660   40.6740 C   0  0  0  0  0  0  0  0  0  0  0  0
   37.8590   32.3030   40.2410 C   0  0  0  0  0  0  0  0  0  0  0  0
   38.5240   31.7250   39.1990 C   0  0  0  0  0  0  0  0  0  0  0  0
   38.0570   30.6140   38.6390 N   0  0  0  0  0  0  0  0  0  0  0  0
   36.9590   29.9970   39.0260 C   0  0  0  0  0  0  0  0  0  0  0  0
   36.2790   30.5440   40.0580 N   0  0  0  0  0  0  0  0  0  0  0  0
   39.6900   32.2910   38.7420 N   0  0  0  0  0  0  0  0  0  0  0  0
   40.5960   31.6510   37.7450 C   0  0  0  0  0  0  0  0  0  0  0  0
   41.5620   32.7230   37.3210 C   0  0  0  0  0  0  0  0  0  0  0  0
   41.6030   33.6340   38.4860 C   0  0  0  0  0  0  0  0  0  0  0  0
   40.2590   33.5530   39.1170 C   0  0  0  0  0  0  0  0  0  0  0  0
   36.1240   32.0880   41.5060 H   0  0  0  0  0  0  0  0  0  0  0  0
   41.0850   30.8450   38.3220 H   0  0  0  0  0  0  0  0  0  0  0  0
   40.0250   31.1890   36.9270 H   0  0  0  0  0  0  0  0  0  0  0  0
   42.5670   32.2190   37.2290 H   0  0  0  0  0  0  0  0  0  0  0  0
   41.2920   33.1960   36.3670 H   0  0  0  0  0  0  0  0  0  0  0  0
   42.4620   33.4640   39.1680 H   0  0  0  0  0  0  0  0  0  0  0  0
   41.7400   34.6820   38.1010 H   0  0  0  0  0  0  0  0  0  0  0  0
   39.6170   34.4240   38.8210 H   0  0  0  0  0  0  0  0  0  0  0  0
   40.4690   33.5650   40.2080 H   0  0  0  0  0  0  0  0  0  0  0  0
   36.2610   28.7880   38.5230 C   0  0  0  0  0  0  0  0  0  0  0  0
   35.3040   28.8150   37.5840 N   0  0  0  0  0  0  0  0  0  0  0  0
   34.6680   27.7520   37.1080 C   0  0  0  0  0  0  0  0  0  0  0  0
   34.9740   26.5220   37.5770 N   0  0  0  0  0  0  0  0  0  0  0  0
   35.9150   26.3570   38.5190 C   0  0  0  0  0  0  0  0  0  0  0  0
   36.2210   25.0970   38.9990 C   0  0  0  0  0  0  0  0  0  0  0  0
   37.1690   24.9280   39.9590 C   0  0  0  0  0  0  0  0  0  0  0  0
   37.8190   26.0490   40.4430 C   0  0  0  0  0  0  0  0  0  0  0  0
   37.4810   27.2860   39.9330 C   0  0  0  0  0  0  0  0  0  0  0  0
   36.5360   27.5080   38.9690 C   0  0  0  0  0  0  0  0  0  0  0  0
   33.9010   27.8260   36.3490 H   0  0  0  0  0  0  0  0  0  0  0  0
   35.6620   24.2810   38.5610 H   0  0  0  0  0  0  0  0  0  0  0  0
   37.3250   23.9190   40.2550 H   0  0  0  0  0  0  0  0  0  0  0  0
   38.8350   25.8740   41.4730 C   0  0  0  0  0  0  0  0  0  0  0  0
   39.9720   25.1510   41.3100 C   0  0  0  0  0  3  0  0  0  0  0  0
   40.9200   25.0110   42.3240 C   0  0  0  0  0  0  0  0  0  0  0  0
   41.8120   24.4220   42.1410 H   0  0  0  0  0  0  0  0  0  0  0  0
   40.7330   25.5960   43.5210 N   0  0  0  0  0  0  0  0  0  0  0  0
   39.5970   26.3140   43.6790 C   0  0  0  0  0  3  0  0  0  0  0  0
   38.6980   26.4370   42.6860 N   0  0  0  0  0  0  0  0  0  0  0  0
   38.2460   28.3300   40.5300 N   0  0  0  0  0  0  0  0  0  0  0  0
   39.1350   28.8110   40.2850 H   0  0  0  0  0  0  0  0  0  0  0  0
   37.6860   28.5570   41.3800 H   0  0  0  0  0  0  0  0  0  0  0  0
   38.2210   33.4640   40.8750 N   0  0  0  0  0  0  0  0  0  0  0  0
   38.0910   34.4730   40.6440 H   0  0  0  0  0  0  0  0  0  0  0  0
   38.7100   33.0960   41.7440 H   0  0  0  0  0  0  0  0  0  0  0  0
  1 12  1  0  0  0  0
  2  1  1  0  0  0  0
  2 44  1  0  0  0  0
  3  2  2  0  0  0  0
  4  5  2  0  0  0  0
  4  3  1  0  0  0  0
  5  6  1  0  0  0  0
  6  1  2  0  0  0  0
  7 11  1  0  0  0  0
  7  3  1  0  0  0  0
  8 13  1  0  0  0  0
  8  7  1  0  0  0  0
  9  8  1  0  0  0  0
  9 10  1  0  0  0  0
 10 11  1  0  0  0  0
 10 17  1  0  0  0  0
 11 20  1  0  0  0  0
 14  8  1  0  0  0  0
 15  9  1  0  0  0  0
 16  9  1  0  0  0  0
 18 10  1  0  0  0  0
 19 11  1  0  0  0  0
 21 30  1  0  0  0  0
 21  5  1  0  0  0  0
 22 21  2  0  0  0  0
 23 24  2  0  0  0  0
 23 22  1  0  0  0  0
 24 25  1  0  0  0  0
 25 30  2  0  0  0  0
 25 26  1  0  0  0  0
 26 27  2  0  0  0  0
 27 33  1  0  0  0  0
 27 28  1  0  0  0  0
 28 34  1  0  0  0  0
 29 28  2  0  0  0  0
 29 41  1  0  0  0  0
 30 29  1  0  0  0  0
 31 23  1  0  0  0  0
 32 26  1  0  0  0  0
 34 40  1  0  0  0  0
 35 34  2  0  0  0  0
 35 36  1  0  0  0  0
 36 38  2  0  0  0  0
 37 36  1  0  0  0  0
 38 39  1  0  0  0  0
 40 39  2  0  0  0  0
 41 43  1  0  0  0  0
 42 41  1  0  0  0  0
 44 46  1  0  0  0  0
 45 44  1  0  0  0  0
M  END
>  <minimizedAffinity>
-6.3841815

$$$$

 OpenBabel03252502103D

 46 50  0  0  0  0  0  0  0  0999 V2000
   36.2210   30.6940   41.1380 C   0  0  0  0  0  0  0  0  0  0  0  0
   37.2310   31.4500   40.5330 C   0  0  0  0  0  0  0  0  0  0  0  0
   38.3260   30.7690   40.0880 C   0  0  0  0  0  0  0  0  0  0  0  0
   38.4000   29.4500   40.2320 N   0  0  0  0  0  0  0  0  0  0  0  0
   37.4630   28.7150   40.7950 C   0  0  0  0  0  0  0  0  0  0  0  0
   36.3660   29.3610   41.2490 N   0  0  0  0  0  0  0  0  0  0  0  0
   39.3620   31.4580   39.5030 N   0  0  0  0  0  0  0  0  0  0  0  0
   40.6790   30.8520   39.1540 C   0  0  0  0  0  0  0  0  0  0  0  0
   41.3770   31.8600   38.2840 C   0  0  0  0  0  0  0  0  0  0  0  0
   40.7860   33.1500   38.7050 C   0  0  0  0  0  0  0  0  0  0  0  0
   39.3950   32.8430   39.1320 C   0  0  0  0  0  0  0  0  0  0  0  0
   35.3260   31.1930   41.5130 H   0  0  0  0  0  0  0  0  0  0  0  0
   41.1710   30.7250   40.1340 H   0  0  0  0  0  0  0  0  0  0  0  0
   40.5520   29.8570   38.7030 H   0  0  0  0  0  0  0  0  0  0  0  0
   42.4600   31.8470   38.5990 H   0  0  0  0  0  0  0  0  0  0  0  0
   41.2960   31.6370   37.2110 H   0  0  0  0  0  0  0  0  0  0  0  0
   41.3970   33.7140   39.4390 H   0  0  0  0  0  0  0  0  0  0  0  0
   40.7290   33.8160   37.7990 H   0  0  0  0  0  0  0  0  0  0  0  0
   38.6570   33.0950   38.3260 H   0  0  0  0  0  0  0  0  0  0  0  0
   39.2390   33.4790   40.0290 H   0  0  0  0  0  0  0  0  0  0  0  0
   37.3370   27.2530   41.0200 C   0  0  0  0  0  0  0  0  0  0  0  0
   37.7780   26.6280   42.1220 N   0  0  0  0  0  0  0  0  0  0  0  0
   37.6740   25.3260   42.3570 C   0  0  0  0  0  0  0  0  0  0  0  0
   37.0830   24.5250   41.4420 N   0  0  0  0  0  0  0  0  0  0  0  0
   36.5980   25.0260   40.2960 C   0  0  0  0  0  0  0  0  0  0  0  0
   36.0000   24.2020   39.3610 C   0  0  0  0  0  0  0  0  0  0  0  0
   35.5150   24.7070   38.1960 C   0  0  0  0  0  0  0  0  0  0  0  0
   35.6360   26.0660   37.9690 C   0  0  0  0  0  0  0  0  0  0  0  0
   36.2390   26.8500   38.9320 C   0  0  0  0  0  0  0  0  0  0  0  0
   36.7430   26.3910   40.1180 C   0  0  0  0  0  0  0  0  0  0  0  0
   38.0460   24.8680   43.2630 H   0  0  0  0  0  0  0  0  0  0  0  0
   35.9510   23.1540   39.6250 H   0  0  0  0  0  0  0  0  0  0  0  0
   35.0760   23.9870   37.5490 H   0  0  0  0  0  0  0  0  0  0  0  0
   35.1190   26.6120   36.7210 C   0  0  0  0  0  0  0  0  0  0  0  0
   33.8000   26.7070   36.4160 C   0  0  0  0  0  3  0  0  0  0  0  0
   33.3490   27.2380   35.2080 C   0  0  0  0  0  0  0  0  0  0  0  0
   32.2820   27.2910   35.0140 H   0  0  0  0  0  0  0  0  0  0  0  0
   34.2220   27.6810   34.2860 N   0  0  0  0  0  0  0  0  0  0  0  0
   35.5370   27.5840   34.5940 C   0  0  0  0  0  3  0  0  0  0  0  0
   35.9490   27.0690   35.7660 N   0  0  0  0  0  0  0  0  0  0  0  0
   36.2760   28.2210   38.5480 N   0  0  0  0  0  0  0  0  0  0  0  0
   35.6540   29.0390   38.7090 H   0  0  0  0  0  0  0  0  0  0  0  0
   37.1570   28.2730   37.9910 H   0  0  0  0  0  0  0  0  0  0  0  0
   37.0250   32.8010   40.4090 N   0  0  0  0  0  0  0  0  0  0  0  0
   36.6900   33.4020   39.6270 H   0  0  0  0  0  0  0  0  0  0  0  0
   37.3000   33.1530   41.3740 H   0  0  0  0  0  0  0  0  0  0  0  0
  1  6  1  0  0  0  0
  1 12  1  0  0  0  0
  2  1  2  0  0  0  0
  3  4  2  0  0  0  0
  3  2  1  0  0  0  0
  4  5  1  0  0  0  0
  5 21  1  0  0  0  0
  5  6  2  0  0  0  0
  7  3  1  0  0  0  0
  8  7  1  0  0  0  0
  8 13  1  0  0  0  0
  9 15  1  0  0  0  0
  9 10  1  0  0  0  0
  9  8  1  0  0  0  0
 10 11  1  0  0  0  0
 10 17  1  0  0  0  0
 11  7  1  0  0  0  0
 11 20  1  0  0  0  0
 14  8  1  0  0  0  0
 16  9  1  0  0  0  0
 18 10  1  0  0  0  0
 19 11  1  0  0  0  0
 21 22  1  0  0  0  0
 22 23  2  0  0  0  0
 23 31  1  0  0  0  0
 24 23  1  0  0  0  0
 25 24  2  0  0  0  0
 26 32  1  0  0  0  0
 26 25  1  0  0  0  0
 27 26  2  0  0  0  0
 28 27  1  0  0  0  0
 28 29  2  0  0  0  0
 29 30  1  0  0  0  0
 30 25  1  0  0  0  0
 30 21  2  0  0  0  0
 33 27  1  0  0  0  0
 34 28  1  0  0  0  0
 35 34  1  0  0  0  0
 36 35  2  0  0  0  0
 37 36  1  0  0  0  0
 38 39  2  0  0  0  0
 38 36  1  0  0  0  0
 39 40  1  0  0  0  0
 40 34  2  0  0  0  0
 41 42  1  0  0  0  0
 41 29  1  0  0  0  0
 43 41  1  0  0  0  0
 44  2  1  0  0  0  0
 44 46  1  0  0  0  0
 45 44  1  0  0  0  0
M  END
>  <minimizedAffinity>
-6.25466061

$$$$

 OpenBabel03252502103D

 46 50  0  0  0  0  0  0  0  0999 V2000
   38.0780   28.6430   36.1790 C   0  0  0  0  0  0  0  0  0  0  0  0
   36.7450   28.3910   35.8400 C   0  0  0  0  0  0  0  0  0  0  0  0
   35.7910   28.9200   36.6600 C   0  0  0  0  0  0  0  0  0  0  0  0
   36.1420   29.6410   37.7200 N   0  0  0  0  0  0  0  0  0  0  0  0
   37.3900   29.8950   38.0590 C   0  0  0  0  0  0  0  0  0  0  0  0
   38.3580   29.3810   37.2680 N   0  0  0  0  0  0  0  0  0  0  0  0
   34.4620   28.6900   36.3920 N   0  0  0  0  0  0  0  0  0  0  0  0
   33.3470   29.0540   37.3140 C   0  0  0  0  0  0  0  0  0  0  0  0
   32.0850   28.9020   36.5110 C   0  0  0  0  0  0  0  0  0  0  0  0
   32.4430   27.8940   35.4880 C   0  0  0  0  0  0  0  0  0  0  0  0
   33.8960   28.0730   35.2280 C   0  0  0  0  0  0  0  0  0  0  0  0
   38.8780   28.2390   35.5560 H   0  0  0  0  0  0  0  0  0  0  0  0
   33.4280   28.3040   38.1210 H   0  0  0  0  0  0  0  0  0  0  0  0
   33.5030   30.0490   37.7530 H   0  0  0  0  0  0  0  0  0  0  0  0
   31.3250   28.4460   37.2070 H   0  0  0  0  0  0  0  0  0  0  0  0
   31.7070   29.8550   36.1150 H   0  0  0  0  0  0  0  0  0  0  0  0
   32.1260   26.8600   35.7360 H   0  0  0  0  0  0  0  0  0  0  0  0
   31.8900   28.1500   34.5420 H   0  0  0  0  0  0  0  0  0  0  0  0
   34.0730   28.6650   34.2920 H   0  0  0  0  0  0  0  0  0  0  0  0
   34.2840   27.0370   35.1220 H   0  0  0  0  0  0  0  0  0  0  0  0
   37.9850   30.6890   39.1630 C   0  0  0  0  0  0  0  0  0  0  0  0
   38.2000   32.0110   39.0980 N   0  0  0  0  0  0  0  0  0  0  0  0
   38.7220   32.7510   40.0690 C   0  0  0  0  0  0  0  0  0  0  0  0
   39.0800   32.1690   41.2350 N   0  0  0  0  0  0  0  0  0  0  0  0
   38.9160   30.8520   41.4290 C   0  0  0  0  0  0  0  0  0  0  0  0
   39.2880   30.2610   42.6220 C   0  0  0  0  0  0  0  0  0  0  0  0
   39.1300   28.9250   42.8170 C   0  0  0  0  0  0  0  0  0  0  0  0
   38.5870   28.1720   41.7920 C   0  0  0  0  0  0  0  0  0  0  0  0
   38.2280   28.8050   40.6190 C   0  0  0  0  0  0  0  0  0  0  0  0
   38.3680   30.1440   40.3740 C   0  0  0  0  0  0  0  0  0  0  0  0
   38.8770   33.8160   39.9680 H   0  0  0  0  0  0  0  0  0  0  0  0
   39.7040   30.9280   43.3650 H   0  0  0  0  0  0  0  0  0  0  0  0
   39.4480   28.5750   43.7690 H   0  0  0  0  0  0  0  0  0  0  0  0
   38.4160   26.7390   41.9960 C   0  0  0  0  0  0  0  0  0  0  0  0
   39.4350   25.8710   42.2210 C   0  0  0  0  0  3  0  0  0  0  0  0
   39.2240   24.5050   42.4110 C   0  0  0  0  0  0  0  0  0  0  0  0
   40.0750   23.8550   42.5880 H   0  0  0  0  0  0  0  0  0  0  0  0
   37.9810   23.9930   42.3760 N   0  0  0  0  0  0  0  0  0  0  0  0
   36.9680   24.8620   42.1510 C   0  0  0  0  0  3  0  0  0  0  0  0
   37.1950   26.1750   41.9720 N   0  0  0  0  0  0  0  0  0  0  0  0
   37.6790   27.8930   39.6730 N   0  0  0  0  0  0  0  0  0  0  0  0
   36.7150   27.5790   39.4400 H   0  0  0  0  0  0  0  0  0  0  0  0
   38.5310   27.5350   39.1890 H   0  0  0  0  0  0  0  0  0  0  0  0
   36.5050   27.6640   34.7010 N   0  0  0  0  0  0  0  0  0  0  0  0
   36.2610   27.9300   33.7240 H   0  0  0  0  0  0  0  0  0  0  0  0
   36.6360   26.6670   35.0480 H   0  0  0  0  0  0  0  0  0  0  0  0
  1  6  1  0  0  0  0
  2  1  2  0  0  0  0
  2  3  1  0  0  0  0
  3  4  2  0  0  0  0
  4  5  1  0  0  0  0
  5 21  1  0  0  0  0
  6  5  2  0  0  0  0
  7  3  1  0  0  0  0
  7  8  1  0  0  0  0
  8 14  1  0  0  0  0
  8 13  1  0  0  0  0
  9 15  1  0  0  0  0
  9  8  1  0  0  0  0
 10 17  1  0  0  0  0
 10  9  1  0  0  0  0
 11 10  1  0  0  0  0
 11  7  1  0  0  0  0
 12  1  1  0  0  0  0
 16  9  1  0  0  0  0
 18 10  1  0  0  0  0
 19 11  1  0  0  0  0
 20 11  1  0  0  0  0
 21 30  1  0  0  0  0
 22 21  2  0  0  0  0
 22 23  1  0  0  0  0
 23 24  2  0  0  0  0
 24 25  1  0  0  0  0
 25 26  1  0  0  0  0
 26 27  2  0  0  0  0
 26 32  1  0  0  0  0
 27 33  1  0  0  0  0
 28 34  1  0  0  0  0
 28 27  1  0  0  0  0
 29 28  2  0  0  0  0
 30 29  1  0  0  0  0
 30 25  2  0  0  0  0
 31 23  1  0  0  0  0
 34 35  1  0  0  0  0
 35 36  2  0  0  0  0
 36 37  1  0  0  0  0
 38 36  1  0  0  0  0
 39 38  2  0  0  0  0
 40 34  2  0  0  0  0
 40 39  1  0  0  0  0
 41 29  1  0  0  0  0
 42 41  1  0  0  0  0
 43 41  1  0  0  0  0
 44 46  1  0  0  0  0
 44  2  1  0  0  0  0
 45 44  1  0  0  0  0
M  END
>  <minimizedAffinity>
-6.14702034

$$$$

 OpenBabel03252502103D

 46 50  0  0  0  0  0  0  0  0999 V2000
   37.8970   31.3800   38.5720 C   0  0  0  0  0  0  0  0  0  0  0  0
   39.1750   31.5050   38.0170 C   0  0  0  0  0  0  0  0  0  0  0  0
   40.1810   30.8150   38.6270 C   0  0  0  0  0  0  0  0  0  0  0  0
   39.9280   30.0630   39.6930 N   0  0  0  0  0  0  0  0  0  0  0  0
   38.7340   29.9260   40.2330 C   0  0  0  0  0  0  0  0  0  0  0  0
   37.7170   30.6000   39.6530 N   0  0  0  0  0  0  0  0  0  0  0  0
   41.4630   30.9140   38.1410 N   0  0  0  0  0  0  0  0  0  0  0  0
   42.6650   30.3620   38.8320 C   0  0  0  0  0  0  0  0  0  0  0  0
   43.7820   30.4300   37.8280 C   0  0  0  0  0  0  0  0  0  0  0  0
   43.3820   31.5430   36.9380 C   0  0  0  0  0  0  0  0  0  0  0  0
   41.8960   31.5470   36.9300 C   0  0  0  0  0  0  0  0  0  0  0  0
   37.0590   31.9150   38.1210 H   0  0  0  0  0  0  0  0  0  0  0  0
   42.8150   31.0560   39.6790 H   0  0  0  0  0  0  0  0  0  0  0  0
   42.4650   29.3620   39.2390 H   0  0  0  0  0  0  0  0  0  0  0  0
   44.7000   30.7470   38.4020 H   0  0  0  0  0  0  0  0  0  0  0  0
   43.9690   29.4720   37.3220 H   0  0  0  0  0  0  0  0  0  0  0  0
   43.8620   32.5150   37.1800 H   0  0  0  0  0  0  0  0  0  0  0  0
   43.7320   31.2970   35.8970 H   0  0  0  0  0  0  0  0  0  0  0  0
   41.4930   31.0480   36.0100 H   0  0  0  0  0  0  0  0  0  0  0  0
   41.6260   32.6250   36.9480 H   0  0  0  0  0  0  0  0  0  0  0  0
   38.2420   29.1250   41.3810 C   0  0  0  0  0  0  0  0  0  0  0  0
   38.1430   29.5980   42.6330 N   0  0  0  0  0  0  0  0  0  0  0  0
   37.6990   28.9120   43.6780 C   0  0  0  0  0  0  0  0  0  0  0  0
   37.3030   27.6290   43.5180 N   0  0  0  0  0  0  0  0  0  0  0  0
   37.3510   27.0360   42.3160 C   0  0  0  0  0  0  0  0  0  0  0  0
   36.9500   25.7230   42.1590 C   0  0  0  0  0  0  0  0  0  0  0  0
   37.0040   25.1180   40.9430 C   0  0  0  0  0  0  0  0  0  0  0  0
   37.4730   25.8500   39.8670 C   0  0  0  0  0  0  0  0  0  0  0  0
   37.8610   27.1590   40.0710 C   0  0  0  0  0  0  0  0  0  0  0  0
   37.8250   27.8110   41.2730 C   0  0  0  0  0  0  0  0  0  0  0  0
   37.6390   29.3380   44.6700 H   0  0  0  0  0  0  0  0  0  0  0  0
   36.5990   25.2300   43.0560 H   0  0  0  0  0  0  0  0  0  0  0  0
   36.6720   24.1080   40.9340 H   0  0  0  0  0  0  0  0  0  0  0  0
   37.5340   25.2060   38.5610 C   0  0  0  0  0  0  0  0  0  0  0  0
   36.4470   24.8710   37.8210 C   0  0  0  0  0  3  0  0  0  0  0  0
   36.5530   24.2550   36.5740 C   0  0  0  0  0  0  0  0  0  0  0  0
   35.6510   24.0090   36.0230 H   0  0  0  0  0  0  0  0  0  0  0  0
   37.7590   23.9670   36.0530 N   0  0  0  0  0  0  0  0  0  0  0  0
   38.8410   24.3010   36.7940 C   0  0  0  0  0  3  0  0  0  0  0  0
   38.7140   24.8960   37.9940 N   0  0  0  0  0  0  0  0  0  0  0  0
   38.3070   27.7710   38.8640 N   0  0  0  0  0  0  0  0  0  0  0  0
   37.8500   28.3430   38.1260 H   0  0  0  0  0  0  0  0  0  0  0  0
   39.3160   27.5030   38.8390 H   0  0  0  0  0  0  0  0  0  0  0  0
   39.3050   32.2820   36.8930 N   0  0  0  0  0  0  0  0  0  0  0  0
   39.3460   32.0620   35.8750 H   0  0  0  0  0  0  0  0  0  0  0  0
   39.3590   33.2590   37.3090 H   0  0  0  0  0  0  0  0  0  0  0  0
  1  6  1  0  0  0  0
  2  1  2  0  0  0  0
  2  3  1  0  0  0  0
  3  4  2  0  0  0  0
  4  5  1  0  0  0  0
  5 21  1  0  0  0  0
  6  5  2  0  0  0  0
  7  3  1  0  0  0  0
  7  8  1  0  0  0  0
  8 14  1  0  0  0  0
  8 13  1  0  0  0  0
  9 15  1  0  0  0  0
  9  8  1  0  0  0  0
 10 17  1  0  0  0  0
 10  9  1  0  0  0  0
 11 10  1  0  0  0  0
 11 20  1  0  0  0  0
 11  7  1  0  0  0  0
 12  1  1  0  0  0  0
 16  9  1  0  0  0  0
 18 10  1  0  0  0  0
 19 11  1  0  0  0  0
 21 22  1  0  0  0  0
 22 23  2  0  0  0  0
 23 31  1  0  0  0  0
 24 23  1  0  0  0  0
 25 24  2  0  0  0  0
 26 25  1  0  0  0  0
 26 32  1  0  0  0  0
 27 26  2  0  0  0  0
 28 29  2  0  0  0  0
 28 27  1  0  0  0  0
 29 30  1  0  0  0  0
 30 21  2  0  0  0  0
 30 25  1  0  0  0  0
 33 27  1  0  0  0  0
 34 28  1  0  0  0  0
 35 34  2  0  0  0  0
 36 35  1  0  0  0  0
 37 36  1  0  0  0  0
 38 36  2  0  0  0  0
 38 39  1  0  0  0  0
 39 40  2  0  0  0  0
 40 34  1  0  0  0  0
 41 29  1  0  0  0  0
 42 41  1  0  0  0  0
 43 41  1  0  0  0  0
 44 46  1  0  0  0  0
 44  2  1  0  0  0  0
 45 44  1  0  0  0  0
M  END
>  <minimizedAffinity>
-6.06263113

$$$$

 OpenBabel03252502103D

 46 50  0  0  0  0  0  0  0  0999 V2000
   38.3490   29.0020   36.6490 C   0  0  0  0  0  0  0  0  0  0  0  0
   37.0900   29.0630   36.0440 C   0  0  0  0  0  0  0  0  0  0  0  0
   36.0100   29.1190   36.8770 C   0  0  0  0  0  0  0  0  0  0  0  0
   36.1790   29.1190   38.1950 N   0  0  0  0  0  0  0  0  0  0  0  0
   37.3530   29.0660   38.7880 C   0  0  0  0  0  0  0  0  0  0  0  0
   38.4430   29.0070   37.9900 N   0  0  0  0  0  0  0  0  0  0  0  0
   34.7430   29.1580   36.3430 N   0  0  0  0  0  0  0  0  0  0  0  0
   33.4930   29.0300   37.1460 C   0  0  0  0  0  0  0  0  0  0  0  0
   32.3720   29.4230   36.2240 C   0  0  0  0  0  0  0  0  0  0  0  0
   32.9050   29.1170   34.8780 C   0  0  0  0  0  0  0  0  0  0  0  0
   34.3760   29.3140   34.9660 C   0  0  0  0  0  0  0  0  0  0  0  0
   39.2450   28.9540   36.0250 H   0  0  0  0  0  0  0  0  0  0  0  0
   33.4670   27.9580   37.4110 H   0  0  0  0  0  0  0  0  0  0  0  0
   33.5570   29.6120   38.0760 H   0  0  0  0  0  0  0  0  0  0  0  0
   31.5250   28.7100   36.4410 H   0  0  0  0  0  0  0  0  0  0  0  0
   32.0360   30.4600   36.3690 H   0  0  0  0  0  0  0  0  0  0  0  0
   32.5780   28.1380   34.4700 H   0  0  0  0  0  0  0  0  0  0  0  0
   32.4970   29.8830   34.1620 H   0  0  0  0  0  0  0  0  0  0  0  0
   34.6790   30.3090   34.5450 H   0  0  0  0  0  0  0  0  0  0  0  0
   34.7990   28.4820   34.3640 H   0  0  0  0  0  0  0  0  0  0  0  0
   37.7540   29.0880   40.2170 C   0  0  0  0  0  0  0  0  0  0  0  0
   38.0660   30.2080   40.8870 N   0  0  0  0  0  0  0  0  0  0  0  0
   38.4190   30.2630   42.1650 C   0  0  0  0  0  0  0  0  0  0  0  0
   38.4850   29.1240   42.8910 N   0  0  0  0  0  0  0  0  0  0  0  0
   38.1970   27.9360   42.3400 C   0  0  0  0  0  0  0  0  0  0  0  0
   38.2710   26.7740   43.0860 C   0  0  0  0  0  0  0  0  0  0  0  0
   37.9870   25.5680   42.5270 C   0  0  0  0  0  0  0  0  0  0  0  0
   37.6230   25.5320   41.1930 C   0  0  0  0  0  0  0  0  0  0  0  0
   37.5610   26.7180   40.4880 C   0  0  0  0  0  0  0  0  0  0  0  0
   37.8380   27.9550   41.0040 C   0  0  0  0  0  0  0  0  0  0  0  0
   38.6620   31.1920   42.6610 H   0  0  0  0  0  0  0  0  0  0  0  0
   38.5640   26.8990   44.1200 H   0  0  0  0  0  0  0  0  0  0  0  0
   38.0750   24.7400   43.1880 H   0  0  0  0  0  0  0  0  0  0  0  0
   37.3190   24.2420   40.5880 C   0  0  0  0  0  0  0  0  0  0  0  0
   38.2040   23.2180   40.4850 C   0  0  0  0  0  3  0  0  0  0  0  0
   37.8690   21.9980   39.8980 C   0  0  0  0  0  0  0  0  0  0  0  0
   38.6140   21.2120   39.8410 H   0  0  0  0  0  0  0  0  0  0  0  0
   36.6350   21.7920   39.4050 N   0  0  0  0  0  0  0  0  0  0  0  0
   35.7560   22.8150   39.5090 C   0  0  0  0  0  3  0  0  0  0  0  0
   36.1010   23.9830   40.0800 N   0  0  0  0  0  0  0  0  0  0  0  0
   37.1650   26.5080   39.1360 N   0  0  0  0  0  0  0  0  0  0  0  0
   36.2530   26.5180   38.6360 H   0  0  0  0  0  0  0  0  0  0  0  0
   38.0740   26.3070   38.6660 H   0  0  0  0  0  0  0  0  0  0  0  0
   37.0440   29.0920   34.6730 N   0  0  0  0  0  0  0  0  0  0  0  0
   36.9460   29.8640   33.9800 H   0  0  0  0  0  0  0  0  0  0  0  0
   37.1430   28.0620   34.4290 H   0  0  0  0  0  0  0  0  0  0  0  0
  1  6  1  0  0  0  0
  2  1  2  0  0  0  0
  2  3  1  0  0  0  0
  3  4  2  0  0  0  0
  4  5  1  0  0  0  0
  5 21  1  0  0  0  0
  6  5  2  0  0  0  0
  7  3  1  0  0  0  0
  7  8  1  0  0  0  0
  8 13  1  0  0  0  0
  8 14  1  0  0  0  0
  9 16  1  0  0  0  0
  9 15  1  0  0  0  0
  9  8  1  0  0  0  0
 10 11  1  0  0  0  0
 10  9  1  0  0  0  0
 11  7  1  0  0  0  0
 12  1  1  0  0  0  0
 17 10  1  0  0  0  0
 18 10  1  0  0  0  0
 19 11  1  0  0  0  0
 20 11  1  0  0  0  0
 21 22  2  0  0  0  0
 21 30  1  0  0  0  0
 22 23  1  0  0  0  0
 23 31  1  0  0  0  0
 23 24  2  0  0  0  0
 25 24  1  0  0  0  0
 25 26  1  0  0  0  0
 26 32  1  0  0  0  0
 27 26  2  0  0  0  0
 27 33  1  0  0  0  0
 28 27  1  0  0  0  0
 29 30  1  0  0  0  0
 29 28  2  0  0  0  0
 30 25  2  0  0  0  0
 34 28  1  0  0  0  0
 35 34  1  0  0  0  0
 36 35  2  0  0  0  0
 37 36  1  0  0  0  0
 38 39  2  0  0  0  0
 38 36  1  0  0  0  0
 39 40  1  0  0  0  0
 40 34  2  0  0  0  0
 41 29  1  0  0  0  0
 42 41  1  0  0  0  0
 43 41  1  0  0  0  0
 44  2  1  0  0  0  0
 45 44  1  0  0  0  0
 46 44  1  0  0  0  0
M  END
>  <minimizedAffinity>
-6.02010822

$$$$

 OpenBabel03252502103D

 46 50  0  0  0  0  0  0  0  0999 V2000
   38.2910   30.7210   38.1690 C   0  0  0  0  0  0  0  0  0  0  0  0
   39.3700   31.5820   37.9410 C   0  0  0  0  0  0  0  0  0  0  0  0
   40.2890   31.6950   38.9430 C   0  0  0  0  0  0  0  0  0  0  0  0
   40.1430   31.0040   40.0680 N   0  0  0  0  0  0  0  0  0  0  0  0
   39.1390   30.1850   40.3060 C   0  0  0  0  0  0  0  0  0  0  0  0
   38.2090   30.0540   39.3340 N   0  0  0  0  0  0  0  0  0  0  0  0
   41.3610   32.5410   38.7870 N   0  0  0  0  0  0  0  0  0  0  0  0
   42.3190   32.8880   39.8770 C   0  0  0  0  0  0  0  0  0  0  0  0
   43.4720   33.5810   39.2050 C   0  0  0  0  0  0  0  0  0  0  0  0
   42.8650   34.1610   37.9860 C   0  0  0  0  0  0  0  0  0  0  0  0
   41.7600   33.2440   37.6020 C   0  0  0  0  0  0  0  0  0  0  0  0
   37.5270   30.5990   37.3990 H   0  0  0  0  0  0  0  0  0  0  0  0
   41.7350   33.5680   40.5240 H   0  0  0  0  0  0  0  0  0  0  0  0
   42.5880   32.0010   40.4670 H   0  0  0  0  0  0  0  0  0  0  0  0
   43.7690   34.4270   39.8900 H   0  0  0  0  0  0  0  0  0  0  0  0
   44.3320   32.9200   39.0300 H   0  0  0  0  0  0  0  0  0  0  0  0
   42.5870   35.2310   38.0800 H   0  0  0  0  0  0  0  0  0  0  0  0
   43.6380   34.1310   37.1680 H   0  0  0  0  0  0  0  0  0  0  0  0
   42.0710   32.5550   36.7730 H   0  0  0  0  0  0  0  0  0  0  0  0
   40.9450   33.9220   37.2710 H   0  0  0  0  0  0  0  0  0  0  0  0
   38.8120   29.3110   41.4610 C   0  0  0  0  0  0  0  0  0  0  0  0
   37.9970   29.6730   42.4630 N   0  0  0  0  0  0  0  0  0  0  0  0
   37.6780   28.9130   43.5030 C   0  0  0  0  0  0  0  0  0  0  0  0
   38.1920   27.6670   43.6050 N   0  0  0  0  0  0  0  0  0  0  0  0
   39.0220   27.1830   42.6680 C   0  0  0  0  0  0  0  0  0  0  0  0
   39.5490   25.9100   42.7800 C   0  0  0  0  0  0  0  0  0  0  0  0
   40.3950   25.4210   41.8360 C   0  0  0  0  0  0  0  0  0  0  0  0
   40.7170   26.2300   40.7610 C   0  0  0  0  0  0  0  0  0  0  0  0
   40.1650   27.4930   40.6900 C   0  0  0  0  0  0  0  0  0  0  0  0
   39.3100   28.0310   41.6130 C   0  0  0  0  0  0  0  0  0  0  0  0
   37.0150   29.2510   44.2880 H   0  0  0  0  0  0  0  0  0  0  0  0
   39.2420   25.3520   43.6540 H   0  0  0  0  0  0  0  0  0  0  0  0
   40.7410   24.4330   42.0190 H   0  0  0  0  0  0  0  0  0  0  0  0
   41.6240   25.7110   39.7460 C   0  0  0  0  0  0  0  0  0  0  0  0
   42.9220   25.3830   39.9750 C   0  0  0  0  0  3  0  0  0  0  0  0
   43.7560   24.8880   38.9730 C   0  0  0  0  0  0  0  0  0  0  0  0
   44.7850   24.6410   39.2100 H   0  0  0  0  0  0  0  0  0  0  0  0
   43.2940   24.7180   37.7210 N   0  0  0  0  0  0  0  0  0  0  0  0
   42.0010   25.0470   37.4960 C   0  0  0  0  0  3  0  0  0  0  0  0
   41.2150   25.5210   38.4790 N   0  0  0  0  0  0  0  0  0  0  0  0
   40.5890   28.1900   39.5220 N   0  0  0  0  0  0  0  0  0  0  0  0
   40.2040   28.3020   38.5620 H   0  0  0  0  0  0  0  0  0  0  0  0
   41.4830   28.6260   39.8360 H   0  0  0  0  0  0  0  0  0  0  0  0
   39.4310   32.2140   36.7250 N   0  0  0  0  0  0  0  0  0  0  0  0
   39.9510   32.0150   35.8430 H   0  0  0  0  0  0  0  0  0  0  0  0
   38.7710   33.0340   36.8710 H   0  0  0  0  0  0  0  0  0  0  0  0
  1  6  1  0  0  0  0
  2  1  2  0  0  0  0
  2  3  1  0  0  0  0
  3  4  2  0  0  0  0
  4  5  1  0  0  0  0
  5 21  1  0  0  0  0
  6  5  2  0  0  0  0
  7  3  1  0  0  0  0
  7  8  1  0  0  0  0
  8 14  1  0  0  0  0
  8 13  1  0  0  0  0
  9  8  1  0  0  0  0
  9 15  1  0  0  0  0
 10 17  1  0  0  0  0
 10  9  1  0  0  0  0
 11 10  1  0  0  0  0
 11  7  1  0  0  0  0
 12  1  1  0  0  0  0
 16  9  1  0  0  0  0
 18 10  1  0  0  0  0
 19 11  1  0  0  0  0
 20 11  1  0  0  0  0
 21 30  2  0  0  0  0
 21 22  1  0  0  0  0
 22 23  2  0  0  0  0
 23 24  1  0  0  0  0
 23 31  1  0  0  0  0
 25 26  1  0  0  0  0
 25 24  2  0  0  0  0
 26 32  1  0  0  0  0
 27 33  1  0  0  0  0
 27 26  2  0  0  0  0
 28 27  1  0  0  0  0
 29 28  2  0  0  0  0
 29 30  1  0  0  0  0
 30 25  1  0  0  0  0
 34 35  1  0  0  0  0
 34 28  1  0  0  0  0
 36 37  1  0  0  0  0
 36 35  2  0  0  0  0
 38 36  1  0  0  0  0
 39 38  2  0  0  0  0
 39 40  1  0  0  0  0
 40 34  2  0  0  0  0
 41 43  1  0  0  0  0
 41 29  1  0  0  0  0
 42 41  1  0  0  0  0
 44 46  1  0  0  0  0
 44  2  1  0  0  0  0
 45 44  1  0  0  0  0
M  END
>  <minimizedAffinity>
-5.89422369

$$$$

 OpenBabel03252502103D

 46 50  0  0  0  0  0  0  0  0999 V2000
   34.6020   29.3560   39.7200 C   0  0  0  0  0  0  0  0  0  0  0  0
   34.5770   28.9100   38.3950 C   0  0  0  0  0  0  0  0  0  0  0  0
   35.5990   29.3200   37.5890 C   0  0  0  0  0  0  0  0  0  0  0  0
   36.5590   30.1020   38.0690 N   0  0  0  0  0  0  0  0  0  0  0  0
   36.6070   30.5330   39.3130 C   0  0  0  0  0  0  0  0  0  0  0  0
   35.6070   30.1450   40.1360 N   0  0  0  0  0  0  0  0  0  0  0  0
   35.6200   28.9330   36.2700 N   0  0  0  0  0  0  0  0  0  0  0  0
   36.5720   29.4690   35.2550 C   0  0  0  0  0  0  0  0  0  0  0  0
   36.4420   28.5720   34.0550 C   0  0  0  0  0  0  0  0  0  0  0  0
   35.0640   28.0440   34.1660 C   0  0  0  0  0  0  0  0  0  0  0  0
   34.7640   27.9840   35.6200 C   0  0  0  0  0  0  0  0  0  0  0  0
   33.8050   29.0560   40.4040 H   0  0  0  0  0  0  0  0  0  0  0  0
   36.1960   30.4900   35.0630 H   0  0  0  0  0  0  0  0  0  0  0  0
   37.5880   29.5500   35.6670 H   0  0  0  0  0  0  0  0  0  0  0  0
   36.4910   29.2480   33.1530 H   0  0  0  0  0  0  0  0  0  0  0  0
   37.2310   27.8100   33.9960 H   0  0  0  0  0  0  0  0  0  0  0  0
   34.3170   28.5830   33.5460 H   0  0  0  0  0  0  0  0  0  0  0  0
   35.0650   26.9900   33.7700 H   0  0  0  0  0  0  0  0  0  0  0  0
   34.8880   26.9420   36.0190 H   0  0  0  0  0  0  0  0  0  0  0  0
   33.7060   28.3140   35.6940 H   0  0  0  0  0  0  0  0  0  0  0  0
   37.5900   31.3700   40.0460 C   0  0  0  0  0  0  0  0  0  0  0  0
   37.6110   32.7110   39.9960 N   0  0  0  0  0  0  0  0  0  0  0  0
   38.4700   33.4870   40.6440 C   0  0  0  0  0  0  0  0  0  0  0  0
   39.4180   32.9280   41.4300 N   0  0  0  0  0  0  0  0  0  0  0  0
   39.5050   31.5970   41.5660 C   0  0  0  0  0  0  0  0  0  0  0  0
   40.4790   31.0300   42.3670 C   0  0  0  0  0  0  0  0  0  0  0  0
   40.5730   29.6800   42.5000 C   0  0  0  0  0  0  0  0  0  0  0  0
   39.6700   28.8890   41.8140 C   0  0  0  0  0  0  0  0  0  0  0  0
   38.7130   29.4990   41.0280 C   0  0  0  0  0  0  0  0  0  0  0  0
   38.5780   30.8500   40.8600 C   0  0  0  0  0  0  0  0  0  0  0  0
   38.4470   34.5660   40.5720 H   0  0  0  0  0  0  0  0  0  0  0  0
   41.1400   31.7270   42.8640 H   0  0  0  0  0  0  0  0  0  0  0  0
   41.3570   29.3510   43.1390 H   0  0  0  0  0  0  0  0  0  0  0  0
   39.7680   27.4410   41.9520 C   0  0  0  0  0  0  0  0  0  0  0  0
   39.5810   26.7700   43.1170 C   0  0  0  0  0  3  0  0  0  0  0  0
   39.6830   25.3820   43.2040 C   0  0  0  0  0  0  0  0  0  0  0  0
   39.5250   24.8950   44.1600 H   0  0  0  0  0  0  0  0  0  0  0  0
   39.9770   24.6480   42.1160 N   0  0  0  0  0  0  0  0  0  0  0  0
   40.1640   25.3210   40.9570 C   0  0  0  0  0  3  0  0  0  0  0  0
   40.0580   26.6600   40.8970 N   0  0  0  0  0  0  0  0  0  0  0  0
   37.8610   28.5460   40.3990 N   0  0  0  0  0  0  0  0  0  0  0  0
   36.9460   28.1160   40.6440 H   0  0  0  0  0  0  0  0  0  0  0  0
   38.3890   28.3140   39.5300 H   0  0  0  0  0  0  0  0  0  0  0  0
   33.5520   28.0760   38.0240 N   0  0  0  0  0  0  0  0  0  0  0  0
   33.4740   27.0410   37.9280 H   0  0  0  0  0  0  0  0  0  0  0  0
   32.7660   28.7670   37.8360 H   0  0  0  0  0  0  0  0  0  0  0  0
  1  6  1  0  0  0  0
  1 12  1  0  0  0  0
  2  1  2  0  0  0  0
  3  4  2  0  0  0  0
  3  2  1  0  0  0  0
  4  5  1  0  0  0  0
  5 21  1  0  0  0  0
  5  6  2  0  0  0  0
  7  3  1  0  0  0  0
  8 14  1  0  0  0  0
  8  7  1  0  0  0  0
  9 10  1  0  0  0  0
  9  8  1  0  0  0  0
 10 11  1  0  0  0  0
 11 20  1  0  0  0  0
 11 19  1  0  0  0  0
 11  7  1  0  0  0  0
 13  8  1  0  0  0  0
 15  9  1  0  0  0  0
 16  9  1  0  0  0  0
 17 10  1  0  0  0  0
 18 10  1  0  0  0  0
 21 30  1  0  0  0  0
 22 21  2  0  0  0  0
 22 23  1  0  0  0  0
 23 24  2  0  0  0  0
 24 25  1  0  0  0  0
 25 26  1  0  0  0  0
 26 27  2  0  0  0  0
 26 32  1  0  0  0  0
 27 33  1  0  0  0  0
 28 34  1  0  0  0  0
 28 27  1  0  0  0  0
 29 28  2  0  0  0  0
 30 29  1  0  0  0  0
 30 25  2  0  0  0  0
 31 23  1  0  0  0  0
 34 35  1  0  0  0  0
 35 36  2  0  0  0  0
 36 37  1  0  0  0  0
 38 36  1  0  0  0  0
 39 38  2  0  0  0  0
 40 39  1  0  0  0  0
 40 34  2  0  0  0  0
 41 42  1  0  0  0  0
 41 29  1  0  0  0  0
 43 41  1  0  0  0  0
 44  2  1  0  0  0  0
 45 44  1  0  0  0  0
 46 44  1  0  0  0  0
M  END
>  <minimizedAffinity>
-5.84626579

$$$$

 OpenBabel03252502103D

 46 50  0  0  0  0  0  0  0  0999 V2000
   37.2120   26.2300   42.5470 C   0  0  0  0  0  0  0  0  0  0  0  0
   37.6750   25.1670   41.7650 C   0  0  0  0  0  0  0  0  0  0  0  0
   38.5630   25.4730   40.7750 C   0  0  0  0  0  0  0  0  0  0  0  0
   38.9530   26.7290   40.5890 N   0  0  0  0  0  0  0  0  0  0  0  0
   38.5340   27.7470   41.3120 C   0  0  0  0  0  0  0  0  0  0  0  0
   37.6520   27.4770   42.3000 N   0  0  0  0  0  0  0  0  0  0  0  0
   39.0390   24.4740   39.9590 N   0  0  0  0  0  0  0  0  0  0  0  0
   39.8570   24.7130   38.7340 C   0  0  0  0  0  0  0  0  0  0  0  0
   40.3980   23.3680   38.3340 C   0  0  0  0  0  0  0  0  0  0  0  0
   39.4040   22.4180   38.8800 C   0  0  0  0  0  0  0  0  0  0  0  0
   38.8500   23.0600   40.1010 C   0  0  0  0  0  0  0  0  0  0  0  0
   36.4980   26.0370   43.3510 H   0  0  0  0  0  0  0  0  0  0  0  0
   39.1240   25.1070   38.0080 H   0  0  0  0  0  0  0  0  0  0  0  0
   40.6170   25.4880   38.9090 H   0  0  0  0  0  0  0  0  0  0  0  0
   40.3430   23.3320   37.2080 H   0  0  0  0  0  0  0  0  0  0  0  0
   41.4340   23.2030   38.6640 H   0  0  0  0  0  0  0  0  0  0  0  0
   38.6530   22.0690   38.1410 H   0  0  0  0  0  0  0  0  0  0  0  0
   39.9530   21.4880   39.1980 H   0  0  0  0  0  0  0  0  0  0  0  0
   39.3270   22.6490   41.0290 H   0  0  0  0  0  0  0  0  0  0  0  0
   37.7670   22.8170   40.0690 H   0  0  0  0  0  0  0  0  0  0  0  0
   38.8640   29.1940   41.2900 C   0  0  0  0  0  0  0  0  0  0  0  0
   39.6390   29.7960   42.2050 N   0  0  0  0  0  0  0  0  0  0  0  0
   39.9600   31.0840   42.2090 C   0  0  0  0  0  0  0  0  0  0  0  0
   39.4920   31.8940   41.2320 N   0  0  0  0  0  0  0  0  0  0  0  0
   38.7070   31.4160   40.2560 C   0  0  0  0  0  0  0  0  0  0  0  0
   38.2270   32.2490   39.2630 C   0  0  0  0  0  0  0  0  0  0  0  0
   37.4240   31.7680   38.2760 C   0  0  0  0  0  0  0  0  0  0  0  0
   37.0990   30.4240   38.2920 C   0  0  0  0  0  0  0  0  0  0  0  0
   37.6040   29.6290   39.3030 C   0  0  0  0  0  0  0  0  0  0  0  0
   38.4130   30.0650   40.3160 C   0  0  0  0  0  0  0  0  0  0  0  0
   40.5890   31.5240   42.9700 H   0  0  0  0  0  0  0  0  0  0  0  0
   38.5330   33.2850   39.3320 H   0  0  0  0  0  0  0  0  0  0  0  0
   37.1120   32.4930   37.5650 H   0  0  0  0  0  0  0  0  0  0  0  0
   36.2390   29.9030   37.2380 C   0  0  0  0  0  0  0  0  0  0  0  0
   36.5680   29.8830   35.9210 C   0  0  0  0  0  3  0  0  0  0  0  0
   35.7130   29.3730   34.9450 C   0  0  0  0  0  0  0  0  0  0  0  0
   36.0260   29.3810   33.9060 H   0  0  0  0  0  0  0  0  0  0  0  0
   34.5090   28.8770   35.2810 N   0  0  0  0  0  0  0  0  0  0  0  0
   34.1830   28.9000   36.5950 C   0  0  0  0  0  3  0  0  0  0  0  0
   35.0260   29.3950   37.5190 N   0  0  0  0  0  0  0  0  0  0  0  0
   37.1830   28.2750   39.1690 N   0  0  0  0  0  0  0  0  0  0  0  0
   37.5870   27.4290   38.7180 H   0  0  0  0  0  0  0  0  0  0  0  0
   36.2640   28.2770   39.6640 H   0  0  0  0  0  0  0  0  0  0  0  0
   37.2280   23.9080   42.0760 N   0  0  0  0  0  0  0  0  0  0  0  0
   37.6340   23.1230   42.6290 H   0  0  0  0  0  0  0  0  0  0  0  0
   36.2810   23.8870   41.5930 H   0  0  0  0  0  0  0  0  0  0  0  0
  1 12  1  0  0  0  0
  2 44  1  0  0  0  0
  2  1  2  0  0  0  0
  3  2  1  0  0  0  0
  4  3  2  0  0  0  0
  4  5  1  0  0  0  0
  5  6  2  0  0  0  0
  6  1  1  0  0  0  0
  7 11  1  0  0  0  0
  7  3  1  0  0  0  0
  8 14  1  0  0  0  0
  8  7  1  0  0  0  0
  9 16  1  0  0  0  0
  9  8  1  0  0  0  0
  9 10  1  0  0  0  0
 10 18  1  0  0  0  0
 10 11  1  0  0  0  0
 11 19  1  0  0  0  0
 13  8  1  0  0  0  0
 15  9  1  0  0  0  0
 17 10  1  0  0  0  0
 20 11  1  0  0  0  0
 21  5  1  0  0  0  0
 21 22  1  0  0  0  0
 22 23  2  0  0  0  0
 23 31  1  0  0  0  0
 24 23  1  0  0  0  0
 25 30  1  0  0  0  0
 25 24  2  0  0  0  0
 26 32  1  0  0  0  0
 26 25  1  0  0  0  0
 27 28  1  0  0  0  0
 27 26  2  0  0  0  0
 28 29  2  0  0  0  0
 29 30  1  0  0  0  0
 30 21  2  0  0  0  0
 33 27  1  0  0  0  0
 34 40  1  0  0  0  0
 34 28  1  0  0  0  0
 35 34  2  0  0  0  0
 36 38  2  0  0  0  0
 36 35  1  0  0  0  0
 37 36  1  0  0  0  0
 38 39  1  0  0  0  0
 39 40  2  0  0  0  0
 41 29  1  0  0  0  0
 41 43  1  0  0  0  0
 42 41  1  0  0  0  0
 44 45  1  0  0  0  0
 46 44  1  0  0  0  0
M  END
>  <minimizedAffinity>
-5.7638917

$$$$
