
 OpenBabel03252507223D

 45 48  0  0  1  0  0  0  0  0999 V2000
   47.1210   33.1400   43.1720 C   0  0  0  0  0  0  0  0  0  0  0  0
   48.3250   33.1760   43.5570 O   0  0  0  0  0  0  0  0  0  0  0  0
   46.6300   32.2160   42.2150 N   0  0  0  0  0  0  0  0  0  0  0  0
   45.3900   31.4210   42.2120 C   0  0  0  0  0  0  0  0  0  0  0  0
   44.6510   31.6430   40.8980 C   0  0  0  0  0  0  0  0  0  0  0  0
   45.4590   31.1260   39.7560 C   0  0  0  0  0  0  0  0  0  0  0  0
   46.8830   30.8700   40.2110 C   0  0  0  0  0  0  0  0  0  0  0  0
   47.4260   31.9680   41.0500 C   0  0  2  0  0  0  0  0  0  0  0  0
   44.7370   31.8090   43.0260 H   0  0  0  0  0  0  0  0  0  0  0  0
   45.6170   30.3450   42.2890 H   0  0  0  0  0  0  0  0  0  0  0  0
   44.4680   32.7290   40.7890 H   0  0  0  0  0  0  0  0  0  0  0  0
   43.6720   31.1410   41.0140 H   0  0  0  0  0  0  0  0  0  0  0  0
   45.4210   31.7400   38.8380 H   0  0  0  0  0  0  0  0  0  0  0  0
   45.0470   30.1310   39.4790 H   0  0  0  0  0  0  0  0  0  0  0  0
   47.4900   30.8420   39.2610 H   0  0  0  0  0  0  0  0  0  0  0  0
   46.9990   29.8920   40.6860 H   0  0  0  0  0  0  0  0  0  0  0  0
   47.3380   32.9120   40.4270 H   0  0  0  0  0  0  0  0  0  0  0  0
   45.8240   35.1990   42.9530 C   0  0  0  0  0  0  0  0  0  0  0  0
   46.2110   34.0980   43.7500 C   0  0  0  0  0  0  0  0  0  0  0  0
   45.7180   33.9590   45.0400 C   0  0  0  0  0  0  0  0  0  0  0  0
   44.8670   34.9120   45.4880 N   0  0  0  0  0  0  0  0  0  0  0  0
   44.4820   35.9790   44.7370 C   0  0  0  0  0  0  0  0  0  0  0  0
   44.9710   36.1010   43.4810 N   0  0  0  0  0  0  0  0  0  0  0  0
   46.2310   35.2680   41.9550 H   0  0  0  0  0  0  0  0  0  0  0  0
   43.7990   36.7070   45.1530 H   0  0  0  0  0  0  0  0  0  0  0  0
   46.1400   32.8260   45.8240 C   0  0  0  0  0  0  0  0  0  0  0  0
   45.6570   31.5880   45.5710 C   0  0  0  0  0  0  0  0  0  0  0  0
   46.0840   30.5240   46.3410 C   0  0  0  0  0  0  0  0  0  0  0  0
   47.0010   30.6660   47.3770 C   0  0  0  0  0  0  0  0  0  0  0  0
   47.4650   31.9510   47.5950 C   0  0  0  0  0  0  0  0  0  0  0  0
   47.0330   32.9630   46.8330 N   0  0  0  0  0  0  0  0  0  0  0  0
   44.9430   31.3340   44.8040 H   0  0  0  0  0  0  0  0  0  0  0  0
   45.7260   29.5170   46.1740 H   0  0  0  0  0  0  0  0  0  0  0  0
   47.3390   29.8360   47.9830 H   0  0  0  0  0  0  0  0  0  0  0  0
   48.1810   32.1300   48.3870 H   0  0  0  0  0  0  0  0  0  0  0  0
   48.8830   31.7890   41.3000 C   0  0  0  0  0  0  0  0  0  0  0  0
   49.3750   32.4310   42.0210 H   0  0  0  0  0  0  0  0  0  0  0  0
   49.0480   30.7630   41.6900 H   0  0  0  0  0  0  0  0  0  0  0  0
   49.6620   31.8070   39.9900 C   0  0  0  0  0  0  0  0  0  0  0  0
   50.9260   31.2510   39.8940 C   0  0  0  0  0  3  0  0  0  0  0  0
   51.6110   31.2930   38.6870 C   0  0  0  0  0  0  0  0  0  0  0  0
   52.6110   30.8560   38.6070 H   0  0  0  0  0  0  0  0  0  0  0  0
   51.0380   31.8750   37.6180 N   0  0  0  0  0  0  0  0  0  0  0  0
   49.8080   32.4030   37.7500 C   0  0  0  0  0  3  0  0  0  0  0  0
   49.1120   32.3830   38.9020 N   0  0  0  0  0  0  0  0  0  0  0  0
  1  2  2  0  0  0  0
  1 19  1  0  0  0  0
  3  1  1  0  0  0  0
  4  3  1  0  0  0  0
  4 10  1  0  0  0  0
  4  9  1  0  0  0  0
  5 12  1  0  0  0  0
  5  4  1  0  0  0  0
  6  7  1  0  0  0  0
  6  5  1  0  0  0  0
  7 16  1  0  0  0  0
  7  8  1  0  0  0  0
  8 17  1  6  0  0  0
  8 36  1  0  0  0  0
  8  3  1  0  0  0  0
 11  5  1  0  0  0  0
 13  6  1  0  0  0  0
 14  6  1  0  0  0  0
 15  7  1  0  0  0  0
 18 23  2  0  0  0  0
 18 19  1  0  0  0  0
 19 20  2  0  0  0  0
 20 21  1  0  0  0  0
 20 26  1  0  0  0  0
 22 25  1  0  0  0  0
 22 21  2  0  0  0  0
 23 22  1  0  0  0  0
 24 18  1  0  0  0  0
 26 31  1  0  0  0  0
 27 26  2  0  0  0  0
 27 28  1  0  0  0  0
 28 29  2  0  0  0  0
 29 30  1  0  0  0  0
 29 34  1  0  0  0  0
 30 35  1  0  0  0  0
 31 30  2  0  0  0  0
 32 27  1  0  0  0  0
 33 28  1  0  0  0  0
 36 38  1  0  0  0  0
 36 37  1  0  0  0  0
 39 36  1  0  0  0  0
 40 39  1  0  0  0  0
 41 40  2  0  0  0  0
 42 41  1  0  0  0  0
 43 44  2  0  0  0  0
 43 41  1  0  0  0  0
 44 45  1  0  0  0  0
 45 39  2  0  0  0  0
M  END
>  <minimizedAffinity>
-5.09240246

>  <minimizedRMSD>
1.21901858

$$$$
