
 OpenBabel03252503503D

 19 20  0  0  0  0  0  0  0  0999 V2000
   47.5970   34.9660   42.3190 C   0  0  0  0  0  0  0  0  0  0  0  0
   47.8080   33.9760   43.2980 C   0  0  0  0  0  0  0  0  0  0  0  0
   46.7530   33.6570   44.1550 C   0  0  0  0  0  0  0  0  0  0  0  0
   45.5830   34.3080   44.0060 N   0  0  0  0  0  0  0  0  0  0  0  0
   45.3930   35.2590   43.0580 C   0  0  0  0  0  0  0  0  0  0  0  0
   46.4020   35.5820   42.2210 N   0  0  0  0  0  0  0  0  0  0  0  0
   48.7360   33.4370   43.4410 H   0  0  0  0  0  0  0  0  0  0  0  0
   44.4580   35.7950   42.9230 H   0  0  0  0  0  0  0  0  0  0  0  0
   46.9220   32.6540   45.1700 C   0  0  0  0  0  0  0  0  0  0  0  0
   46.6060   32.9440   46.4800 C   0  0  0  0  0  3  0  0  0  0  0  0
   46.7830   31.9440   47.4410 C   0  0  0  0  0  0  0  0  0  0  0  0
   46.5560   32.0960   48.5040 H   0  0  0  0  0  0  0  0  0  0  0  0
   47.2540   30.7100   47.0970 N   0  0  0  0  0  0  0  0  0  0  0  0
   47.5450   30.4790   45.8100 C   0  0  0  0  0  3  0  0  0  0  0  0
   47.3820   31.4310   44.8670 N   0  0  0  0  0  0  0  0  0  0  0  0
   48.7450   35.2870   41.4150 C   0  0  0  0  0  0  0  0  0  0  0  0
   48.3960   35.2000   40.0970 F   0  0  0  0  0  0  0  0  0  0  0  0
   49.1980   36.5600   41.7580 F   0  0  0  0  0  0  0  0  0  0  0  0
   49.8110   34.4180   41.7140 F   0  0  0  0  0  0  0  0  0  0  0  0
  1  2  1  0  0  0  0
  2  7  1  0  0  0  0
  2  3  2  0  0  0  0
  3  9  1  0  0  0  0
  4  3  1  0  0  0  0
  5  4  2  0  0  0  0
  6  1  2  0  0  0  0
  6  5  1  0  0  0  0
  8  5  1  0  0  0  0
  9 10  1  0  0  0  0
 10 11  2  0  0  0  0
 11 12  1  0  0  0  0
 13 11  1  0  0  0  0
 14 13  2  0  0  0  0
 15  9  2  0  0  0  0
 15 14  1  0  0  0  0
 16 19  1  0  0  0  0
 16 18  1  0  0  0  0
 16  1  1  0  0  0  0
 17 16  1  0  0  0  0
M  END
>  <minimizedAffinity>
-4.97881889

>  <minimizedRMSD>
0.684928119

$$$$
