
 OpenBabel03252504243D

 19 20  0  0  0  0  0  0  0  0999 V2000
   44.0640   35.7070   41.7710 C   0  0  0  0  0  0  0  0  0  0  0  0
   43.8500   36.7650   41.9150 H   0  0  0  0  0  0  0  0  0  0  0  0
   44.8380   35.5020   41.0090 H   0  0  0  0  0  0  0  0  0  0  0  0
   44.3260   35.8580   44.1940 C   0  0  0  0  0  0  0  0  0  0  0  0
   44.5060   35.0860   43.0310 C   0  0  0  0  0  0  0  0  0  0  0  0
   45.0750   33.8330   43.1870 C   0  0  0  0  0  0  0  0  0  0  0  0
   45.4290   33.4100   44.4290 N   0  0  0  0  0  0  0  0  0  0  0  0
   45.2360   34.1870   45.5130 C   0  0  0  0  0  0  0  0  0  0  0  0
   44.6830   35.4230   45.4150 N   0  0  0  0  0  0  0  0  0  0  0  0
   43.8910   36.8500   44.1800 H   0  0  0  0  0  0  0  0  0  0  0  0
   45.1960   33.2750   42.2860 H   0  0  0  0  0  0  0  0  0  0  0  0
   45.5220   33.8400   46.5030 H   0  0  0  0  0  0  0  0  0  0  0  0
   42.7990   35.0460   41.3140 C   0  0  0  0  0  0  0  0  0  0  0  0
   42.8550   34.0910   40.3070 C   0  0  0  0  0  0  0  0  0  0  0  0
   41.6550   33.5100   39.9210 C   0  0  0  0  0  0  0  0  0  0  0  0
   41.7130   32.7660   39.1330 H   0  0  0  0  0  0  0  0  0  0  0  0
   40.4960   33.8610   40.4990 N   0  0  0  0  0  0  0  0  0  0  0  0
   40.4550   34.7920   41.4760 C   0  0  0  0  0  0  0  0  0  0  0  0
   41.5980   35.3530   41.8530 N   0  0  0  0  0  0  0  0  0  0  0  0
  1  2  1  0  0  0  0
  1  5  1  0  0  0  0
  3  1  1  0  0  0  0
  4  9  1  0  0  0  0
  5  6  1  0  0  0  0
  5  4  2  0  0  0  0
  6  7  2  0  0  0  0
  7  8  1  0  0  0  0
  8 12  1  0  0  0  0
  9  8  2  0  0  0  0
 10  4  1  0  0  0  0
 11  6  1  0  0  0  0
 13  1  1  0  0  0  0
 13 19  1  0  0  0  0
 14 13  2  0  0  0  0
 15 14  1  0  0  0  0
 15 17  2  0  0  0  0
 16 15  1  0  0  0  0
 17 18  1  0  0  0  0
 18 19  2  0  0  0  0
M  END
>  <minimizedAffinity>
-4.00635052

>  <minimizedRMSD>
0.628585577

$$$$
