
 OpenBabel03252507013D

 35 37  0  0  0  0  0  0  0  0999 V2000
   37.3270   26.6570   41.7180 N   0  0  0  0  0  0  0  0  0  0  0  0
   38.2460   25.6610   42.1070 C   0  0  0  0  0  0  0  0  0  0  0  0
   37.3430   24.4220   42.1720 C   0  0  0  0  0  0  0  0  0  0  0  0
   36.5940   24.1300   40.9290 C   0  0  0  0  0  0  0  0  0  0  0  0
   36.5210   25.1950   39.9110 C   0  0  0  0  0  0  0  0  0  0  0  0
   36.9040   26.5680   40.3280 C   0  0  0  0  0  0  0  0  0  0  0  0
   39.0070   25.4590   41.3600 H   0  0  0  0  0  0  0  0  0  0  0  0
   38.7390   25.7140   43.0660 H   0  0  0  0  0  0  0  0  0  0  0  0
   38.0420   23.5920   42.4100 H   0  0  0  0  0  0  0  0  0  0  0  0
   36.7170   24.5570   43.0840 H   0  0  0  0  0  0  0  0  0  0  0  0
   35.5430   23.9020   41.2250 H   0  0  0  0  0  0  0  0  0  0  0  0
   36.9570   23.2300   40.3830 H   0  0  0  0  0  0  0  0  0  0  0  0
   36.2050   25.0330   38.9210 H   0  0  0  0  0  0  0  0  0  0  0  0
   36.7540   27.6280   39.3600 C   0  0  0  0  0  0  0  0  0  0  0  0
   35.5860   28.1050   38.8230 C   0  0  0  0  0  3  0  0  0  0  0  0
   35.5350   29.0930   37.8840 C   0  0  0  0  0  0  0  0  0  0  0  0
   34.5400   29.3550   37.5620 H   0  0  0  0  0  0  0  0  0  0  0  0
   36.6850   29.6280   37.4620 N   0  0  0  0  0  0  0  0  0  0  0  0
   37.8480   29.1550   37.9960 C   0  0  0  0  0  3  0  0  0  0  0  0
   37.8790   28.1820   38.9200 N   0  0  0  0  0  0  0  0  0  0  0  0
   36.6440   27.5190   42.5170 C   0  0  0  0  0  0  0  0  0  0  0  0
   36.1680   27.0500   43.4550 H   0  0  0  0  0  0  0  0  0  0  0  0
   35.7980   28.1010   42.1160 H   0  0  0  0  0  0  0  0  0  0  0  0
   37.5920   28.5310   43.1180 C   0  0  0  0  0  0  0  0  0  0  0  0
   38.5090   28.1680   43.5370 H   0  0  0  0  0  0  0  0  0  0  0  0
   37.0390   28.9540   44.0130 H   0  0  0  0  0  0  0  0  0  0  0  0
   37.6630   29.6820   42.2090 C   0  0  0  0  0  0  0  0  0  0  0  0
   38.8560   30.2770   41.8850 C   0  0  0  0  0  0  0  0  0  0  0  0
   38.8830   31.3710   41.0130 C   0  0  0  0  0  0  0  0  0  0  0  0
   37.6810   31.7890   40.5260 N   0  0  0  0  0  0  0  0  0  0  0  0
   36.5410   31.1850   40.8640 C   0  0  0  0  0  0  0  0  0  0  0  0
   36.5470   30.1520   41.6910 N   0  0  0  0  0  0  0  0  0  0  0  0
   39.7630   29.8920   42.3080 H   0  0  0  0  0  0  0  0  0  0  0  0
   39.8300   31.8210   40.7740 H   0  0  0  0  0  0  0  0  0  0  0  0
   35.6050   31.5430   40.4600 H   0  0  0  0  0  0  0  0  0  0  0  0
  1  2  1  0  0  0  0
  1 21  1  0  0  0  0
  2  3  1  0  0  0  0
  2  8  1  0  0  0  0
  3  9  1  0  0  0  0
  3 10  1  0  0  0  0
  4 11  1  0  0  0  0
  4  3  1  0  0  0  0
  5  6  2  0  0  0  0
  5  4  1  0  0  0  0
  6  1  1  0  0  0  0
  7  2  1  0  0  0  0
 12  4  1  0  0  0  0
 13  5  1  0  0  0  0
 14  6  1  0  0  0  0
 15 14  2  0  0  0  0
 16 15  1  0  0  0  0
 17 16  1  0  0  0  0
 18 16  2  0  0  0  0
 18 19  1  0  0  0  0
 19 20  2  0  0  0  0
 20 14  1  0  0  0  0
 21 24  1  0  0  0  0
 21 22  1  0  0  0  0
 23 21  1  0  0  0  0
 24 25  1  0  0  0  0
 24 26  1  0  0  0  0
 27 24  1  0  0  0  0
 28 27  1  0  0  0  0
 28 33  1  0  0  0  0
 29 28  2  0  0  0  0
 30 31  2  0  0  0  0
 30 29  1  0  0  0  0
 31 32  1  0  0  0  0
 32 27  2  0  0  0  0
 34 29  1  0  0  0  0
 35 31  1  0  0  0  0
M  END
>  <minimizedAffinity>
-4.85795307

$$$$

 OpenBabel03252507013D

 35 37  0  0  0  0  0  0  0  0999 V2000
   37.2460   31.2410   40.2330 N   0  0  0  0  0  0  0  0  0  0  0  0
   37.1160   32.0210   39.0660 C   0  0  0  0  0  0  0  0  0  0  0  0
   37.3270   33.4360   39.6210 C   0  0  0  0  0  0  0  0  0  0  0  0
   38.5910   33.6320   40.3660 C   0  0  0  0  0  0  0  0  0  0  0  0
   39.3300   32.4260   40.7830 C   0  0  0  0  0  0  0  0  0  0  0  0
   38.6100   31.1280   40.7270 C   0  0  0  0  0  0  0  0  0  0  0  0
   37.9030   31.8460   38.3380 H   0  0  0  0  0  0  0  0  0  0  0  0
   36.1800   32.0540   38.5290 H   0  0  0  0  0  0  0  0  0  0  0  0
   37.3030   34.0850   38.7190 H   0  0  0  0  0  0  0  0  0  0  0  0
   36.3980   33.6750   40.1880 H   0  0  0  0  0  0  0  0  0  0  0  0
   38.3380   34.1880   41.3000 H   0  0  0  0  0  0  0  0  0  0  0  0
   39.3390   34.2610   39.8330 H   0  0  0  0  0  0  0  0  0  0  0  0
   40.3240   32.4420   41.1250 H   0  0  0  0  0  0  0  0  0  0  0  0
   39.3000   29.9580   41.2130 C   0  0  0  0  0  0  0  0  0  0  0  0
   39.6750   29.6900   42.5040 C   0  0  0  0  0  3  0  0  0  0  0  0
   40.3570   28.5680   42.8750 C   0  0  0  0  0  0  0  0  0  0  0  0
   40.5790   28.5050   43.9280 H   0  0  0  0  0  0  0  0  0  0  0  0
   40.6790   27.6790   41.9300 N   0  0  0  0  0  0  0  0  0  0  0  0
   40.3050   27.9440   40.6450 C   0  0  0  0  0  3  0  0  0  0  0  0
   39.6340   29.0530   40.2990 N   0  0  0  0  0  0  0  0  0  0  0  0
   36.2550   30.7880   41.0460 C   0  0  0  0  0  0  0  0  0  0  0  0
   35.4190   31.5460   41.2750 H   0  0  0  0  0  0  0  0  0  0  0  0
   36.4890   30.4160   42.0580 H   0  0  0  0  0  0  0  0  0  0  0  0
   35.4930   29.6750   40.3640 C   0  0  0  0  0  0  0  0  0  0  0  0
   35.2280   29.8090   39.3340 H   0  0  0  0  0  0  0  0  0  0  0  0
   34.4910   29.6400   40.8950 H   0  0  0  0  0  0  0  0  0  0  0  0
   36.1080   28.3990   40.7520 C   0  0  0  0  0  0  0  0  0  0  0  0
   36.4100   27.4310   39.8290 C   0  0  0  0  0  0  0  0  0  0  0  0
   36.9980   26.2280   40.2370 C   0  0  0  0  0  0  0  0  0  0  0  0
   37.2390   26.0930   41.5720 N   0  0  0  0  0  0  0  0  0  0  0  0
   36.9320   27.0580   42.4390 C   0  0  0  0  0  0  0  0  0  0  0  0
   36.3760   28.1840   42.0230 N   0  0  0  0  0  0  0  0  0  0  0  0
   36.1900   27.6090   38.7950 H   0  0  0  0  0  0  0  0  0  0  0  0
   37.2260   25.4830   39.4960 H   0  0  0  0  0  0  0  0  0  0  0  0
   37.1370   26.9170   43.4910 H   0  0  0  0  0  0  0  0  0  0  0  0
  1  6  1  0  0  0  0
  1 21  1  0  0  0  0
  2  3  1  0  0  0  0
  2  1  1  0  0  0  0
  3 10  1  0  0  0  0
  3  4  1  0  0  0  0
  4  5  1  0  0  0  0
  4 11  1  0  0  0  0
  5 13  1  0  0  0  0
  6  5  2  0  0  0  0
  6 14  1  0  0  0  0
  7  2  1  0  0  0  0
  8  2  1  0  0  0  0
  9  3  1  0  0  0  0
 12  4  1  0  0  0  0
 14 15  1  0  0  0  0
 15 16  2  0  0  0  0
 16 17  1  0  0  0  0
 18 16  1  0  0  0  0
 19 18  2  0  0  0  0
 20 19  1  0  0  0  0
 20 14  2  0  0  0  0
 21 22  1  0  0  0  0
 21 23  1  0  0  0  0
 24 27  1  0  0  0  0
 24 26  1  0  0  0  0
 24 21  1  0  0  0  0
 25 24  1  0  0  0  0
 27 32  1  0  0  0  0
 28 29  1  0  0  0  0
 28 27  2  0  0  0  0
 29 30  2  0  0  0  0
 30 31  1  0  0  0  0
 31 35  1  0  0  0  0
 32 31  2  0  0  0  0
 33 28  1  0  0  0  0
 34 29  1  0  0  0  0
M  END
>  <minimizedAffinity>
-4.8408165

$$$$

 OpenBabel03252507013D

 35 37  0  0  0  0  0  0  0  0999 V2000
   37.1570   28.5990   41.2050 N   0  0  0  0  0  0  0  0  0  0  0  0
   36.4600   27.9180   42.2240 C   0  0  0  0  0  0  0  0  0  0  0  0
   37.6080   27.2100   42.9570 C   0  0  0  0  0  0  0  0  0  0  0  0
   38.6920   28.1010   43.4280 C   0  0  0  0  0  0  0  0  0  0  0  0
   38.7370   29.4690   42.8780 C   0  0  0  0  0  0  0  0  0  0  0  0
   37.9210   29.7480   41.6690 C   0  0  0  0  0  0  0  0  0  0  0  0
   35.9880   28.5810   42.9430 H   0  0  0  0  0  0  0  0  0  0  0  0
   35.7480   27.1440   41.9800 H   0  0  0  0  0  0  0  0  0  0  0  0
   37.1120   26.7120   43.8170 H   0  0  0  0  0  0  0  0  0  0  0  0
   37.9310   26.3860   42.2790 H   0  0  0  0  0  0  0  0  0  0  0  0
   39.6590   27.6160   43.1530 H   0  0  0  0  0  0  0  0  0  0  0  0
   38.7230   28.2310   44.5330 H   0  0  0  0  0  0  0  0  0  0  0  0
   39.3210   30.2410   43.2870 H   0  0  0  0  0  0  0  0  0  0  0  0
   38.0270   31.0590   41.0770 C   0  0  0  0  0  0  0  0  0  0  0  0
   37.0910   31.7030   40.3090 C   0  0  0  0  0  3  0  0  0  0  0  0
   37.2850   32.9360   39.7580 C   0  0  0  0  0  0  0  0  0  0  0  0
   36.4540   33.3050   39.1800 H   0  0  0  0  0  0  0  0  0  0  0  0
   38.4500   33.5540   39.9770 N   0  0  0  0  0  0  0  0  0  0  0  0
   39.3810   32.9150   40.7430 C   0  0  0  0  0  3  0  0  0  0  0  0
   39.1730   31.7010   41.2770 N   0  0  0  0  0  0  0  0  0  0  0  0
   37.3720   28.1890   39.9260 C   0  0  0  0  0  0  0  0  0  0  0  0
   37.7240   27.0990   39.8100 H   0  0  0  0  0  0  0  0  0  0  0  0
   38.0990   28.7170   39.2870 H   0  0  0  0  0  0  0  0  0  0  0  0
   36.0720   28.1850   39.1580 C   0  0  0  0  0  0  0  0  0  0  0  0
   35.2420   28.7180   39.5780 H   0  0  0  0  0  0  0  0  0  0  0  0
   35.7290   27.1040   39.1700 H   0  0  0  0  0  0  0  0  0  0  0  0
   36.3810   28.4090   37.7400 C   0  0  0  0  0  0  0  0  0  0  0  0
   35.5360   29.1090   36.9160 C   0  0  0  0  0  0  0  0  0  0  0  0
   35.8670   29.3030   35.5700 C   0  0  0  0  0  0  0  0  0  0  0  0
   37.0480   28.7660   35.1520 N   0  0  0  0  0  0  0  0  0  0  0  0
   37.8430   28.0920   35.9830 C   0  0  0  0  0  0  0  0  0  0  0  0
   37.5030   27.9240   37.2510 N   0  0  0  0  0  0  0  0  0  0  0  0
   34.6230   29.5020   37.3180 H   0  0  0  0  0  0  0  0  0  0  0  0
   35.1900   29.8550   34.9430 H   0  0  0  0  0  0  0  0  0  0  0  0
   38.7730   27.6780   35.6170 H   0  0  0  0  0  0  0  0  0  0  0  0
  1  6  1  0  0  0  0
  1  2  1  0  0  0  0
  2  7  1  0  0  0  0
  2  3  1  0  0  0  0
  3  4  1  0  0  0  0
  3  9  1  0  0  0  0
  4 12  1  0  0  0  0
  5 13  1  0  0  0  0
  5  4  1  0  0  0  0
  6  5  2  0  0  0  0
  8  2  1  0  0  0  0
 10  3  1  0  0  0  0
 11  4  1  0  0  0  0
 14 20  1  0  0  0  0
 14  6  1  0  0  0  0
 15 14  2  0  0  0  0
 16 18  2  0  0  0  0
 16 15  1  0  0  0  0
 17 16  1  0  0  0  0
 18 19  1  0  0  0  0
 19 20  2  0  0  0  0
 21  1  1  0  0  0  0
 22 21  1  0  0  0  0
 23 21  1  0  0  0  0
 24 26  1  0  0  0  0
 24 25  1  0  0  0  0
 24 21  1  0  0  0  0
 27 24  1  0  0  0  0
 28 33  1  0  0  0  0
 28 27  2  0  0  0  0
 29 28  1  0  0  0  0
 30 29  2  0  0  0  0
 30 31  1  0  0  0  0
 31 32  2  0  0  0  0
 32 27  1  0  0  0  0
 34 29  1  0  0  0  0
 35 31  1  0  0  0  0
M  END
>  <minimizedAffinity>
-4.7302742

$$$$

 OpenBabel03252507013D

 35 37  0  0  0  0  0  0  0  0999 V2000
   37.1850   27.3340   41.6500 N   0  0  0  0  0  0  0  0  0  0  0  0
   36.7280   26.4420   42.6420 C   0  0  0  0  0  0  0  0  0  0  0  0
   37.3320   25.1160   42.1590 C   0  0  0  0  0  0  0  0  0  0  0  0
   38.7990   25.1330   41.9620 C   0  0  0  0  0  0  0  0  0  0  0  0
   39.4650   26.4480   41.9150 C   0  0  0  0  0  0  0  0  0  0  0  0
   38.6040   27.6460   41.7360 C   0  0  0  0  0  0  0  0  0  0  0  0
   37.1430   26.6380   43.6250 H   0  0  0  0  0  0  0  0  0  0  0  0
   35.6720   26.2530   42.7670 H   0  0  0  0  0  0  0  0  0  0  0  0
   37.0550   24.3900   42.9530 H   0  0  0  0  0  0  0  0  0  0  0  0
   36.7350   24.8250   41.2650 H   0  0  0  0  0  0  0  0  0  0  0  0
   39.0040   24.6390   40.9820 H   0  0  0  0  0  0  0  0  0  0  0  0
   39.3650   24.5480   42.7210 H   0  0  0  0  0  0  0  0  0  0  0  0
   40.5050   26.5770   41.9900 H   0  0  0  0  0  0  0  0  0  0  0  0
   39.2560   28.9260   41.6050 C   0  0  0  0  0  0  0  0  0  0  0  0
   39.3880   29.8940   42.5670 C   0  0  0  0  0  3  0  0  0  0  0  0
   39.9940   31.0970   42.3500 C   0  0  0  0  0  0  0  0  0  0  0  0
   40.0160   31.7490   43.2080 H   0  0  0  0  0  0  0  0  0  0  0  0
   40.4880   31.3490   41.1340 N   0  0  0  0  0  0  0  0  0  0  0  0
   40.3580   30.3860   40.1760 C   0  0  0  0  0  3  0  0  0  0  0  0
   39.7590   29.2080   40.4080 N   0  0  0  0  0  0  0  0  0  0  0  0
   36.5290   27.7430   40.5320 C   0  0  0  0  0  0  0  0  0  0  0  0
   35.7400   27.0090   40.1260 H   0  0  0  0  0  0  0  0  0  0  0  0
   37.0890   27.9840   39.6130 H   0  0  0  0  0  0  0  0  0  0  0  0
   35.6940   28.9650   40.8380 C   0  0  0  0  0  0  0  0  0  0  0  0
   35.3790   29.1130   41.8520 H   0  0  0  0  0  0  0  0  0  0  0  0
   34.7220   28.8020   40.2780 H   0  0  0  0  0  0  0  0  0  0  0  0
   36.2860   30.1090   40.1320 C   0  0  0  0  0  0  0  0  0  0  0  0
   36.5740   30.0630   38.7920 C   0  0  0  0  0  0  0  0  0  0  0  0
   37.1350   31.1750   38.1550 C   0  0  0  0  0  0  0  0  0  0  0  0
   37.3680   32.2690   38.9350 N   0  0  0  0  0  0  0  0  0  0  0  0
   37.0730   32.2750   40.2350 C   0  0  0  0  0  0  0  0  0  0  0  0
   36.5430   31.2080   40.8100 N   0  0  0  0  0  0  0  0  0  0  0  0
   36.3630   29.1660   38.2440 H   0  0  0  0  0  0  0  0  0  0  0  0
   37.3530   31.1160   37.1040 H   0  0  0  0  0  0  0  0  0  0  0  0
   37.2710   33.1600   40.8240 H   0  0  0  0  0  0  0  0  0  0  0  0
  1  6  1  0  0  0  0
  1  2  1  0  0  0  0
  2  8  1  0  0  0  0
  2  7  1  0  0  0  0
  3  2  1  0  0  0  0
  3  9  1  0  0  0  0
  4  3  1  0  0  0  0
  4 12  1  0  0  0  0
  5  4  1  0  0  0  0
  5 13  1  0  0  0  0
  6  5  2  0  0  0  0
 10  3  1  0  0  0  0
 11  4  1  0  0  0  0
 14  6  1  0  0  0  0
 14 15  1  0  0  0  0
 16 15  2  0  0  0  0
 16 17  1  0  0  0  0
 18 16  1  0  0  0  0
 19 20  1  0  0  0  0
 19 18  2  0  0  0  0
 20 14  2  0  0  0  0
 21 24  1  0  0  0  0
 21  1  1  0  0  0  0
 22 21  1  0  0  0  0
 23 21  1  0  0  0  0
 24 25  1  0  0  0  0
 26 24  1  0  0  0  0
 27 32  1  0  0  0  0
 27 24  1  0  0  0  0
 28 27  2  0  0  0  0
 29 28  1  0  0  0  0
 29 30  2  0  0  0  0
 30 31  1  0  0  0  0
 31 32  2  0  0  0  0
 31 35  1  0  0  0  0
 33 28  1  0  0  0  0
 34 29  1  0  0  0  0
M  END
>  <minimizedAffinity>
-4.61878633

$$$$

 OpenBabel03252507013D

 35 37  0  0  0  0  0  0  0  0999 V2000
   39.7020   32.7460   40.2050 N   0  0  0  0  0  0  0  0  0  0  0  0
   40.5160   33.2820   39.1860 C   0  0  0  0  0  0  0  0  0  0  0  0
   41.5410   34.0790   40.0040 C   0  0  0  0  0  0  0  0  0  0  0  0
   42.2620   33.2970   41.0340 C   0  0  0  0  0  0  0  0  0  0  0  0
   41.7120   31.9780   41.3960 C   0  0  0  0  0  0  0  0  0  0  0  0
   40.3250   31.6710   40.9630 C   0  0  0  0  0  0  0  0  0  0  0  0
   41.0700   32.5290   38.6330 H   0  0  0  0  0  0  0  0  0  0  0  0
   40.1110   33.9780   38.4670 H   0  0  0  0  0  0  0  0  0  0  0  0
   42.2510   34.4660   39.2420 H   0  0  0  0  0  0  0  0  0  0  0  0
   40.9920   34.9720   40.3820 H   0  0  0  0  0  0  0  0  0  0  0  0
   42.2630   33.9080   41.9680 H   0  0  0  0  0  0  0  0  0  0  0  0
   43.3330   33.1100   40.7940 H   0  0  0  0  0  0  0  0  0  0  0  0
   42.2430   31.2580   41.9480 H   0  0  0  0  0  0  0  0  0  0  0  0
   39.7520   30.4170   41.3870 C   0  0  0  0  0  0  0  0  0  0  0  0
   39.3200   30.0820   42.6440 C   0  0  0  0  0  3  0  0  0  0  0  0
   38.8200   28.8550   42.9690 C   0  0  0  0  0  0  0  0  0  0  0  0
   38.5240   28.7500   44.0000 H   0  0  0  0  0  0  0  0  0  0  0  0
   38.7440   27.9260   42.0110 N   0  0  0  0  0  0  0  0  0  0  0  0
   39.1720   28.2580   40.7590 C   0  0  0  0  0  3  0  0  0  0  0  0
   39.6620   29.4710   40.4580 N   0  0  0  0  0  0  0  0  0  0  0  0
   38.5350   33.2490   40.6880 C   0  0  0  0  0  0  0  0  0  0  0  0
   38.5560   34.3670   40.9630 H   0  0  0  0  0  0  0  0  0  0  0  0
   38.0730   32.8160   41.5910 H   0  0  0  0  0  0  0  0  0  0  0  0
   37.4690   33.2060   39.6190 C   0  0  0  0  0  0  0  0  0  0  0  0
   37.6760   33.6950   38.6870 H   0  0  0  0  0  0  0  0  0  0  0  0
   36.6040   33.8030   40.0460 H   0  0  0  0  0  0  0  0  0  0  0  0
   36.9270   31.8420   39.5700 C   0  0  0  0  0  0  0  0  0  0  0  0
   36.3620   31.2470   40.6690 C   0  0  0  0  0  0  0  0  0  0  0  0
   35.8560   29.9460   40.5820 C   0  0  0  0  0  0  0  0  0  0  0  0
   35.9600   29.3330   39.3690 N   0  0  0  0  0  0  0  0  0  0  0  0
   36.5160   29.9450   38.3230 C   0  0  0  0  0  0  0  0  0  0  0  0
   36.9870   31.1760   38.4360 N   0  0  0  0  0  0  0  0  0  0  0  0
   36.3160   31.7920   41.5910 H   0  0  0  0  0  0  0  0  0  0  0  0
   35.4170   29.4990   41.4570 H   0  0  0  0  0  0  0  0  0  0  0  0
   36.5830   29.4290   37.3740 H   0  0  0  0  0  0  0  0  0  0  0  0
  1 21  1  0  0  0  0
  1  6  1  0  0  0  0
  2  3  1  0  0  0  0
  2  1  1  0  0  0  0
  3 10  1  0  0  0  0
  3  4  1  0  0  0  0
  4  5  1  0  0  0  0
  4 11  1  0  0  0  0
  5 13  1  0  0  0  0
  6 14  1  0  0  0  0
  6  5  2  0  0  0  0
  7  2  1  0  0  0  0
  8  2  1  0  0  0  0
  9  3  1  0  0  0  0
 12  4  1  0  0  0  0
 14 15  1  0  0  0  0
 15 16  2  0  0  0  0
 16 17  1  0  0  0  0
 18 16  1  0  0  0  0
 19 18  2  0  0  0  0
 20 19  1  0  0  0  0
 20 14  2  0  0  0  0
 21 22  1  0  0  0  0
 21 23  1  0  0  0  0
 24 26  1  0  0  0  0
 24 21  1  0  0  0  0
 25 24  1  0  0  0  0
 27 24  1  0  0  0  0
 27 28  1  0  0  0  0
 28 33  1  0  0  0  0
 29 28  2  0  0  0  0
 29 34  1  0  0  0  0
 30 29  1  0  0  0  0
 31 32  1  0  0  0  0
 31 30  2  0  0  0  0
 32 27  2  0  0  0  0
 35 31  1  0  0  0  0
M  END
>  <minimizedAffinity>
-4.5753479

$$$$

 OpenBabel03252507013D

 35 37  0  0  0  0  0  0  0  0999 V2000
   37.8850   29.6690   41.6960 N   0  0  0  0  0  0  0  0  0  0  0  0
   37.5130   29.0720   42.9180 C   0  0  0  0  0  0  0  0  0  0  0  0
   38.5560   27.9530   43.0400 C   0  0  0  0  0  0  0  0  0  0  0  0
   39.9650   28.4020   42.9660 C   0  0  0  0  0  0  0  0  0  0  0  0
   40.2210   29.7650   42.4630 C   0  0  0  0  0  0  0  0  0  0  0  0
   39.1070   30.4560   41.7630 C   0  0  0  0  0  0  0  0  0  0  0  0
   37.6470   29.7240   43.7760 H   0  0  0  0  0  0  0  0  0  0  0  0
   36.5530   28.5900   43.0240 H   0  0  0  0  0  0  0  0  0  0  0  0
   38.3450   27.4950   44.0300 H   0  0  0  0  0  0  0  0  0  0  0  0
   38.2610   27.1880   42.2860 H   0  0  0  0  0  0  0  0  0  0  0  0
   40.4970   27.7040   42.2770 H   0  0  0  0  0  0  0  0  0  0  0  0
   40.5100   28.3440   43.9360 H   0  0  0  0  0  0  0  0  0  0  0  0
   41.1430   30.2580   42.5630 H   0  0  0  0  0  0  0  0  0  0  0  0
   39.3770   31.7540   41.1950 C   0  0  0  0  0  0  0  0  0  0  0  0
   38.4630   32.7120   40.8370 C   0  0  0  0  0  3  0  0  0  0  0  0
   38.8020   33.9060   40.2730 C   0  0  0  0  0  0  0  0  0  0  0  0
   37.9670   34.5500   40.0480 H   0  0  0  0  0  0  0  0  0  0  0  0
   40.0960   34.1610   40.0550 N   0  0  0  0  0  0  0  0  0  0  0  0
   41.0070   33.2100   40.4120 C   0  0  0  0  0  3  0  0  0  0  0  0
   40.6540   32.0400   40.9660 N   0  0  0  0  0  0  0  0  0  0  0  0
   37.3780   29.4190   40.4590 C   0  0  0  0  0  0  0  0  0  0  0  0
   37.6430   28.3900   40.0160 H   0  0  0  0  0  0  0  0  0  0  0  0
   37.6190   30.0840   39.6130 H   0  0  0  0  0  0  0  0  0  0  0  0
   35.8700   29.3580   40.5190 C   0  0  0  0  0  0  0  0  0  0  0  0
   35.3420   30.2650   40.7340 H   0  0  0  0  0  0  0  0  0  0  0  0
   35.6400   28.6980   41.4130 H   0  0  0  0  0  0  0  0  0  0  0  0
   35.4020   28.5450   39.3890 C   0  0  0  0  0  0  0  0  0  0  0  0
   34.3260   28.9170   38.6250 C   0  0  0  0  0  0  0  0  0  0  0  0
   33.9120   28.1160   37.5550 C   0  0  0  0  0  0  0  0  0  0  0  0
   34.6300   26.9790   37.3340 N   0  0  0  0  0  0  0  0  0  0  0  0
   35.6720   26.6510   38.0990 C   0  0  0  0  0  0  0  0  0  0  0  0
   36.0400   27.4280   39.1040 N   0  0  0  0  0  0  0  0  0  0  0  0
   33.8090   29.8260   38.8600 H   0  0  0  0  0  0  0  0  0  0  0  0
   33.0650   28.4280   36.9700 H   0  0  0  0  0  0  0  0  0  0  0  0
   36.2200   25.7410   37.8950 H   0  0  0  0  0  0  0  0  0  0  0  0
  1  6  1  0  0  0  0
  1  2  1  0  0  0  0
  2  8  1  0  0  0  0
  2  3  1  0  0  0  0
  2  7  1  0  0  0  0
  3  9  1  0  0  0  0
  4  3  1  0  0  0  0
  4 12  1  0  0  0  0
  5 13  1  0  0  0  0
  5  4  1  0  0  0  0
  6  5  2  0  0  0  0
 10  3  1  0  0  0  0
 11  4  1  0  0  0  0
 14  6  1  0  0  0  0
 15 14  2  0  0  0  0
 16 15  1  0  0  0  0
 17 16  1  0  0  0  0
 18 16  2  0  0  0  0
 18 19  1  0  0  0  0
 19 20  2  0  0  0  0
 20 14  1  0  0  0  0
 21 24  1  0  0  0  0
 21  1  1  0  0  0  0
 22 21  1  0  0  0  0
 23 21  1  0  0  0  0
 24 25  1  0  0  0  0
 24 26  1  0  0  0  0
 27 24  1  0  0  0  0
 28 33  1  0  0  0  0
 28 27  2  0  0  0  0
 29 28  1  0  0  0  0
 30 29  2  0  0  0  0
 30 31  1  0  0  0  0
 31 32  2  0  0  0  0
 32 27  1  0  0  0  0
 34 29  1  0  0  0  0
 35 31  1  0  0  0  0
M  END
>  <minimizedAffinity>
-4.56710386

$$$$

 OpenBabel03252507013D

 35 37  0  0  0  0  0  0  0  0999 V2000
   37.9940   29.2710   39.6110 N   0  0  0  0  0  0  0  0  0  0  0  0
   36.9990   28.5810   38.8900 C   0  0  0  0  0  0  0  0  0  0  0  0
   35.9410   28.3500   39.9780 C   0  0  0  0  0  0  0  0  0  0  0  0
   35.4770   29.5750   40.6680 C   0  0  0  0  0  0  0  0  0  0  0  0
   36.2820   30.7990   40.4970 C   0  0  0  0  0  0  0  0  0  0  0  0
   37.6490   30.6470   39.9370 C   0  0  0  0  0  0  0  0  0  0  0  0
   36.5300   29.1810   38.1160 H   0  0  0  0  0  0  0  0  0  0  0  0
   37.2010   27.6080   38.4680 H   0  0  0  0  0  0  0  0  0  0  0  0
   35.1000   27.8660   39.4370 H   0  0  0  0  0  0  0  0  0  0  0  0
   36.3630   27.5610   40.6420 H   0  0  0  0  0  0  0  0  0  0  0  0
   35.4670   29.3520   41.7610 H   0  0  0  0  0  0  0  0  0  0  0  0
   34.4360   29.8730   40.4100 H   0  0  0  0  0  0  0  0  0  0  0  0
   35.9430   31.7590   40.7600 H   0  0  0  0  0  0  0  0  0  0  0  0
   38.4710   31.8290   39.8470 C   0  0  0  0  0  0  0  0  0  0  0  0
   39.5950   32.0050   39.0810 C   0  0  0  0  0  3  0  0  0  0  0  0
   40.3360   33.1490   39.0790 C   0  0  0  0  0  0  0  0  0  0  0  0
   41.1910   33.1290   38.4220 H   0  0  0  0  0  0  0  0  0  0  0  0
   39.9490   34.1580   39.8660 N   0  0  0  0  0  0  0  0  0  0  0  0
   38.8310   33.9860   40.6270 C   0  0  0  0  0  3  0  0  0  0  0  0
   38.1130   32.8520   40.6170 N   0  0  0  0  0  0  0  0  0  0  0  0
   39.1000   28.7530   40.2090 C   0  0  0  0  0  0  0  0  0  0  0  0
   40.0470   29.4040   40.1430 H   0  0  0  0  0  0  0  0  0  0  0  0
   39.4940   27.7710   39.8990 H   0  0  0  0  0  0  0  0  0  0  0  0
   38.8870   28.6580   41.7020 C   0  0  0  0  0  0  0  0  0  0  0  0
   38.0200   29.1360   42.1140 H   0  0  0  0  0  0  0  0  0  0  0  0
   39.7500   29.2360   42.1570 H   0  0  0  0  0  0  0  0  0  0  0  0
   39.1670   27.2770   42.1150 C   0  0  0  0  0  0  0  0  0  0  0  0
   39.7520   26.9870   43.3210 C   0  0  0  0  0  0  0  0  0  0  0  0
   40.0010   25.6570   43.6800 C   0  0  0  0  0  0  0  0  0  0  0  0
   39.6350   24.7050   42.7760 N   0  0  0  0  0  0  0  0  0  0  0  0
   39.0680   25.0280   41.6130 C   0  0  0  0  0  0  0  0  0  0  0  0
   38.8450   26.2940   41.3010 N   0  0  0  0  0  0  0  0  0  0  0  0
   40.0130   27.7900   43.9810 H   0  0  0  0  0  0  0  0  0  0  0  0
   40.4610   25.4530   44.6300 H   0  0  0  0  0  0  0  0  0  0  0  0
   38.7910   24.2470   40.9180 H   0  0  0  0  0  0  0  0  0  0  0  0
  1  6  1  0  0  0  0
  1 21  1  0  0  0  0
  2  1  1  0  0  0  0
  2  3  1  0  0  0  0
  3 10  1  0  0  0  0
  3  4  1  0  0  0  0
  4 11  1  0  0  0  0
  5  4  1  0  0  0  0
  5 13  1  0  0  0  0
  6  5  2  0  0  0  0
  7  2  1  0  0  0  0
  8  2  1  0  0  0  0
  9  3  1  0  0  0  0
 12  4  1  0  0  0  0
 14  6  1  0  0  0  0
 14 20  1  0  0  0  0
 15 14  2  0  0  0  0
 16 15  1  0  0  0  0
 16 18  2  0  0  0  0
 17 16  1  0  0  0  0
 18 19  1  0  0  0  0
 20 19  2  0  0  0  0
 21 24  1  0  0  0  0
 22 21  1  0  0  0  0
 23 21  1  0  0  0  0
 24 25  1  0  0  0  0
 24 27  1  0  0  0  0
 24 26  1  0  0  0  0
 27 28  1  0  0  0  0
 28 29  2  0  0  0  0
 28 33  1  0  0  0  0
 29 34  1  0  0  0  0
 30 29  1  0  0  0  0
 31 30  2  0  0  0  0
 32 31  1  0  0  0  0
 32 27  2  0  0  0  0
 35 31  1  0  0  0  0
M  END
>  <minimizedAffinity>
-4.55707741

$$$$

 OpenBabel03252507013D

 35 37  0  0  0  0  0  0  0  0999 V2000
   38.1250   29.3880   41.4130 N   0  0  0  0  0  0  0  0  0  0  0  0
   36.8050   29.4520   41.9040 C   0  0  0  0  0  0  0  0  0  0  0  0
   36.4810   27.9640   42.0960 C   0  0  0  0  0  0  0  0  0  0  0  0
   37.4330   27.2230   42.9550 C   0  0  0  0  0  0  0  0  0  0  0  0
   38.7260   27.8660   43.2490 C   0  0  0  0  0  0  0  0  0  0  0  0
   39.1180   29.0310   42.4150 C   0  0  0  0  0  0  0  0  0  0  0  0
   36.7280   29.9200   42.8800 H   0  0  0  0  0  0  0  0  0  0  0  0
   36.0090   29.8470   41.2910 H   0  0  0  0  0  0  0  0  0  0  0  0
   35.4670   27.9660   42.5500 H   0  0  0  0  0  0  0  0  0  0  0  0
   36.3480   27.5530   41.0690 H   0  0  0  0  0  0  0  0  0  0  0  0
   37.6660   26.2640   42.4340 H   0  0  0  0  0  0  0  0  0  0  0  0
   37.0180   26.9360   43.9470 H   0  0  0  0  0  0  0  0  0  0  0  0
   39.3810   27.5370   44.0030 H   0  0  0  0  0  0  0  0  0  0  0  0
   40.4190   29.6110   42.6430 C   0  0  0  0  0  0  0  0  0  0  0  0
   40.7550   30.9400   42.6110 C   0  0  0  0  0  3  0  0  0  0  0  0
   42.0220   31.4040   42.8070 C   0  0  0  0  0  0  0  0  0  0  0  0
   42.1220   32.4760   42.7490 H   0  0  0  0  0  0  0  0  0  0  0  0
   42.9940   30.5170   43.0430 N   0  0  0  0  0  0  0  0  0  0  0  0
   42.6620   29.1940   43.0760 C   0  0  0  0  0  3  0  0  0  0  0  0
   41.4080   28.7560   42.8820 N   0  0  0  0  0  0  0  0  0  0  0  0
   38.5330   29.4010   40.1160 C   0  0  0  0  0  0  0  0  0  0  0  0
   38.3050   28.4440   39.5180 H   0  0  0  0  0  0  0  0  0  0  0  0
   39.5950   29.5610   39.8670 H   0  0  0  0  0  0  0  0  0  0  0  0
   37.7650   30.4470   39.3410 C   0  0  0  0  0  0  0  0  0  0  0  0
   36.6950   30.4220   39.3940 H   0  0  0  0  0  0  0  0  0  0  0  0
   37.9830   30.2200   38.2510 H   0  0  0  0  0  0  0  0  0  0  0  0
   38.4300   31.7410   39.5410 C   0  0  0  0  0  0  0  0  0  0  0  0
   37.7570   32.8340   40.0230 C   0  0  0  0  0  0  0  0  0  0  0  0
   38.4260   34.0500   40.2010 C   0  0  0  0  0  0  0  0  0  0  0  0
   39.7490   34.0680   39.8740 N   0  0  0  0  0  0  0  0  0  0  0  0
   40.3690   32.9830   39.4100 C   0  0  0  0  0  0  0  0  0  0  0  0
   39.7100   31.8480   39.2510 N   0  0  0  0  0  0  0  0  0  0  0  0
   36.7150   32.7430   40.2580 H   0  0  0  0  0  0  0  0  0  0  0  0
   37.8780   34.8940   40.5790 H   0  0  0  0  0  0  0  0  0  0  0  0
   41.4210   33.0330   39.1600 H   0  0  0  0  0  0  0  0  0  0  0  0
  1  2  1  0  0  0  0
  1  6  1  0  0  0  0
  2  3  1  0  0  0  0
  2  7  1  0  0  0  0
  3  9  1  0  0  0  0
  3  4  1  0  0  0  0
  4  5  1  0  0  0  0
  4 12  1  0  0  0  0
  5 13  1  0  0  0  0
  6 14  1  0  0  0  0
  6  5  2  0  0  0  0
  8  2  1  0  0  0  0
 10  3  1  0  0  0  0
 11  4  1  0  0  0  0
 14 20  1  0  0  0  0
 15 14  2  0  0  0  0
 15 16  1  0  0  0  0
 16 18  2  0  0  0  0
 17 16  1  0  0  0  0
 18 19  1  0  0  0  0
 20 19  2  0  0  0  0
 21  1  1  0  0  0  0
 22 21  1  0  0  0  0
 23 21  1  0  0  0  0
 24 25  1  0  0  0  0
 24 27  1  0  0  0  0
 24 21  1  0  0  0  0
 26 24  1  0  0  0  0
 27 28  1  0  0  0  0
 28 29  2  0  0  0  0
 28 33  1  0  0  0  0
 29 34  1  0  0  0  0
 30 29  1  0  0  0  0
 31 30  2  0  0  0  0
 32 31  1  0  0  0  0
 32 27  2  0  0  0  0
 35 31  1  0  0  0  0
M  END
>  <minimizedAffinity>
-4.55459118

$$$$

 OpenBabel03252507013D

 35 37  0  0  0  0  0  0  0  0999 V2000
   39.2020   31.2120   40.7920 N   0  0  0  0  0  0  0  0  0  0  0  0
   40.3200   31.5280   39.9940 C   0  0  0  0  0  0  0  0  0  0  0  0
   41.2200   32.2510   41.0050 C   0  0  0  0  0  0  0  0  0  0  0  0
   41.5250   31.4800   42.2320 C   0  0  0  0  0  0  0  0  0  0  0  0
   40.7000   30.2910   42.5120 C   0  0  0  0  0  0  0  0  0  0  0  0
   39.4350   30.1400   41.7480 C   0  0  0  0  0  0  0  0  0  0  0  0
   40.8680   30.6560   39.6510 H   0  0  0  0  0  0  0  0  0  0  0  0
   40.2240   32.2010   39.1550 H   0  0  0  0  0  0  0  0  0  0  0  0
   42.1510   32.4600   40.4350 H   0  0  0  0  0  0  0  0  0  0  0  0
   40.7430   33.2440   41.1730 H   0  0  0  0  0  0  0  0  0  0  0  0
   41.3890   32.1720   43.0970 H   0  0  0  0  0  0  0  0  0  0  0  0
   42.5780   31.1240   42.2930 H   0  0  0  0  0  0  0  0  0  0  0  0
   40.9540   29.5610   43.2250 H   0  0  0  0  0  0  0  0  0  0  0  0
   38.5820   29.0240   42.0780 C   0  0  0  0  0  0  0  0  0  0  0  0
   38.2640   27.9560   41.2790 C   0  0  0  0  0  3  0  0  0  0  0  0
   37.4190   26.9550   41.6590 C   0  0  0  0  0  0  0  0  0  0  0  0
   37.2710   26.1870   40.9160 H   0  0  0  0  0  0  0  0  0  0  0  0
   36.8700   27.0130   42.8760 N   0  0  0  0  0  0  0  0  0  0  0  0
   37.1870   28.0740   43.6720 C   0  0  0  0  0  3  0  0  0  0  0  0
   38.0210   29.0510   43.2820 N   0  0  0  0  0  0  0  0  0  0  0  0
   38.0460   31.9160   40.9220 C   0  0  0  0  0  0  0  0  0  0  0  0
   38.1710   33.0160   41.2400 H   0  0  0  0  0  0  0  0  0  0  0  0
   37.2640   31.5790   41.6230 H   0  0  0  0  0  0  0  0  0  0  0  0
   37.3670   32.0520   39.5800 C   0  0  0  0  0  0  0  0  0  0  0  0
   37.9510   32.4180   38.7590 H   0  0  0  0  0  0  0  0  0  0  0  0
   36.5830   32.8580   39.7290 H   0  0  0  0  0  0  0  0  0  0  0  0
   36.5540   30.8490   39.3570 C   0  0  0  0  0  0  0  0  0  0  0  0
   36.5970   30.1530   38.1760 C   0  0  0  0  0  0  0  0  0  0  0  0
   35.8090   29.0100   38.0040 C   0  0  0  0  0  0  0  0  0  0  0  0
   35.0230   28.6500   39.0570 N   0  0  0  0  0  0  0  0  0  0  0  0
   35.0090   29.3520   40.1910 C   0  0  0  0  0  0  0  0  0  0  0  0
   35.7650   30.4290   40.3240 N   0  0  0  0  0  0  0  0  0  0  0  0
   37.2410   30.4980   37.3910 H   0  0  0  0  0  0  0  0  0  0  0  0
   35.8590   28.4810   37.0690 H   0  0  0  0  0  0  0  0  0  0  0  0
   34.3720   29.0370   41.0070 H   0  0  0  0  0  0  0  0  0  0  0  0
  1 21  1  0  0  0  0
  1  6  1  0  0  0  0
  2  1  1  0  0  0  0
  2  3  1  0  0  0  0
  3 10  1  0  0  0  0
  3  4  1  0  0  0  0
  4 12  1  0  0  0  0
  4  5  1  0  0  0  0
  4 11  1  0  0  0  0
  5 13  1  0  0  0  0
  6 14  1  0  0  0  0
  6  5  2  0  0  0  0
  7  2  1  0  0  0  0
  8  2  1  0  0  0  0
  9  3  1  0  0  0  0
 14 20  1  0  0  0  0
 15 16  1  0  0  0  0
 15 14  2  0  0  0  0
 16 18  2  0  0  0  0
 17 16  1  0  0  0  0
 18 19  1  0  0  0  0
 20 19  2  0  0  0  0
 21 22  1  0  0  0  0
 21 23  1  0  0  0  0
 24 26  1  0  0  0  0
 24 21  1  0  0  0  0
 25 24  1  0  0  0  0
 27 24  1  0  0  0  0
 27 32  1  0  0  0  0
 28 27  2  0  0  0  0
 29 28  1  0  0  0  0
 29 30  2  0  0  0  0
 30 31  1  0  0  0  0
 31 32  2  0  0  0  0
 31 35  1  0  0  0  0
 33 28  1  0  0  0  0
 34 29  1  0  0  0  0
M  END
>  <minimizedAffinity>
-4.53759432

$$$$
