
 OpenBabel03252509163D

 23 25  0  0  0  0  0  0  0  0999 V2000
   45.9660   33.0880   46.2310 C   0  0  0  0  0  0  0  0  0  0  0  0
   45.4860   32.9190   47.5600 C   0  0  0  0  0  0  0  0  0  0  0  0
   46.1520   32.0560   48.3720 C   0  0  0  0  0  0  0  0  0  0  0  0
   47.2850   31.3670   47.8700 C   0  0  0  0  0  0  0  0  0  0  0  0
   47.4130   31.9770   46.1520 S   0  0  0  0  0  0  0  0  0  0  0  0
   44.6180   33.4650   47.9010 H   0  0  0  0  0  0  0  0  0  0  0  0
   45.8970   31.8400   49.3810 H   0  0  0  0  0  0  0  0  0  0  0  0
   44.2880   35.8850   44.4640 C   0  0  0  0  0  0  0  0  0  0  0  0
   44.2910   35.3630   43.1440 C   0  0  0  0  0  0  0  0  0  0  0  0
   44.8570   34.1030   42.9210 C   0  0  0  0  0  0  0  0  0  0  0  0
   45.3790   33.4410   44.0050 N   0  0  0  0  0  0  0  0  0  0  0  0
   45.3530   33.9800   45.2450 C   0  0  0  0  0  0  0  0  0  0  0  0
   44.8090   35.2010   45.4780 N   0  0  0  0  0  0  0  0  0  0  0  0
   43.8510   36.8430   44.5910 H   0  0  0  0  0  0  0  0  0  0  0  0
   43.8820   35.8770   42.2850 H   0  0  0  0  0  0  0  0  0  0  0  0
   44.8990   33.6320   41.9490 H   0  0  0  0  0  0  0  0  0  0  0  0
   48.1570   30.4480   48.4220 C   0  0  0  0  0  0  0  0  0  0  0  0
   48.8440   30.7570   49.5760 C   0  0  0  0  0  3  0  0  0  0  0  0
   49.7140   29.7890   50.0900 C   0  0  0  0  0  0  0  0  0  0  0  0
   50.2560   30.0200   50.9920 H   0  0  0  0  0  0  0  0  0  0  0  0
   49.8480   28.5990   49.4450 N   0  0  0  0  0  0  0  0  0  0  0  0
   49.1620   28.3310   48.3200 C   0  0  0  0  0  3  0  0  0  0  0  0
   48.3090   29.2650   47.8060 N   0  0  0  0  0  0  0  0  0  0  0  0
  1  2  2  0  0  0  0
  2  6  1  0  0  0  0
  2  3  1  0  0  0  0
  3  7  1  0  0  0  0
  4  3  2  0  0  0  0
  4 17  1  0  0  0  0
  5  1  1  0  0  0  0
  5  4  1  0  0  0  0
  8 14  1  0  0  0  0
  8 13  1  0  0  0  0
  9  8  2  0  0  0  0
 10  9  1  0  0  0  0
 10 11  2  0  0  0  0
 11 12  1  0  0  0  0
 12 13  2  0  0  0  0
 12  1  1  0  0  0  0
 15  9  1  0  0  0  0
 16 10  1  0  0  0  0
 17 18  1  0  0  0  0
 18 19  2  0  0  0  0
 19 20  1  0  0  0  0
 21 19  1  0  0  0  0
 22 21  2  0  0  0  0
 23 22  1  0  0  0  0
 23 17  2  0  0  0  0
M  END
>  <minimizedAffinity>
-4.4797039

>  <minimizedRMSD>
1.14407206

$$$$
