REMARK  Name = 
REMARK  3 active torsions:
REMARK  status: ('A' for Active; 'I' for Inactive)
REMARK    1  A    between atoms: C_1  and  C_5
REMARK    2  A    between atoms: C_3  and  N_10
REMARK    3  A    between atoms: C_15  and  C_32
REMARK                            x       y       z     vdW  Elec       q    Type
REMARK                         _______ _______ _______ _____ _____    ______ ____
ROOT
ATOM      1  N   UNL     1      49.314  33.202  41.488  0.00  0.00    +0.000 NA
ATOM      2  C   UNL     1      50.664  33.119  42.050  0.00  0.00    +0.000 C 
ATOM      3  C   UNL     1      51.325  31.813  41.743  0.00  0.00    +0.000 C 
ATOM      4  C   UNL     1      50.615  30.735  42.526  0.00  0.00    +0.000 C 
ATOM      5  C   UNL     1      49.128  30.979  42.575  0.00  0.00    +0.000 C 
ATOM      6  C   UNL     1      48.740  31.879  41.420  0.00  0.00    +0.000 C 
ATOM      7  H   UNL     1      51.240  33.913  41.498  0.00  0.00    +0.000 HD
ATOM      8  H   UNL     1      50.711  33.360  43.114  0.00  0.00    +0.000 HD
ATOM      9  H   UNL     1      52.366  31.889  42.118  0.00  0.00    +0.000 HD
ATOM     10  H   UNL     1      51.351  31.613  40.671  0.00  0.00    +0.000 HD
ATOM     11  H   UNL     1      51.048  30.768  43.566  0.00  0.00    +0.000 HD
ATOM     12  H   UNL     1      50.899  29.746  42.138  0.00  0.00    +0.000 HD
ATOM     13  H   UNL     1      48.890  31.515  43.503  0.00  0.00    +0.000 HD
ATOM     14  H   UNL     1      48.595  30.035  42.423  0.00  0.00    +0.000 HD
ATOM     15  H   UNL     1      47.630  32.038  41.564  0.00  0.00    +0.000 HD
ENDROOT
BRANCH   1  18
ATOM     16  C   UNL     1      47.188  34.561  42.010  0.00  0.00    +0.000 C 
ATOM     17  C   UNL     1      48.329  35.455  41.751  0.00  0.00    +0.000 C 
ATOM     18  C   UNL     1      48.582  34.103  42.310  0.00  0.00    +0.000 C 
ATOM     19  H   UNL     1      46.705  34.119  41.123  0.00  0.00    +0.000 HD
ATOM     20  H   UNL     1      48.596  35.688  40.702  0.00  0.00    +0.000 HD
ATOM     21  H   UNL     1      48.446  36.314  42.447  0.00  0.00    +0.000 HD
ATOM     22  H   UNL     1      48.810  33.998  43.396  0.00  0.00    +0.000 HD
BRANCH  16  24
ATOM     23  C   UNL     1      45.480  36.020  43.144  0.00  0.00    +0.000 A 
ATOM     24  C   UNL     1      46.274  34.853  43.154  0.00  0.00    +0.000 A 
ATOM     25  C   UNL     1      46.177  33.984  44.254  0.00  0.00    +0.000 A 
ATOM     26  N   UNL     1      45.320  34.315  45.257  0.00  0.00    +0.000 NA
ATOM     27  C   UNL     1      44.568  35.450  45.216  0.00  0.00    +0.000 A 
ATOM     28  N   UNL     1      44.643  36.311  44.158  0.00  0.00    +0.000 NA
ATOM     29  H   UNL     1      45.605  36.640  42.270  0.00  0.00    +0.000 HD
ATOM     30  H   UNL     1      46.776  33.090  44.278  0.00  0.00    +0.000 HD
ATOM     31  H   UNL     1      43.910  35.628  46.068  0.00  0.00    +0.000 HD
ENDBRANCH  16  24
ENDBRANCH   1  18
BRANCH   6  32
ATOM     32  C   UNL     1      48.881  31.221  40.113  0.00  0.00    +0.000 A 
ATOM     33  C   UNL     1      48.318  29.939  40.066  0.00  0.00    +0.000 A 
ATOM     34  C   UNL     1      48.413  29.250  38.852  0.00  0.00    +0.000 A 
ATOM     35  H   UNL     1      47.989  28.253  38.774  0.00  0.00    +0.000 HD
ATOM     36  N   UNL     1      49.010  29.744  37.739  0.00  0.00    +0.000 NA
ATOM     37  C   UNL     1      49.526  30.982  37.865  0.00  0.00    +0.000 A 
ATOM     38  N   UNL     1      49.478  31.713  38.994  0.00  0.00    +0.000 NA
ENDBRANCH   6  32
TORSDOF 3
