
 OpenBabel03252506373D

 42 45  0  0  1  0  0  0  0  0999 V2000
   44.5230   35.4640   45.1470 C   0  0  0  0  0  0  0  0  0  0  0  0
   45.1880   35.4700   43.9080 C   0  0  0  0  0  0  0  0  0  0  0  0
   46.1250   34.5280   43.6560 C   0  0  0  0  0  0  0  0  0  0  0  0
   46.3680   33.6190   44.6350 N   0  0  0  0  0  0  0  0  0  0  0  0
   45.7370   33.6200   45.7990 C   0  0  0  0  0  0  0  0  0  0  0  0
   44.8120   34.5360   46.0700 N   0  0  0  0  0  0  0  0  0  0  0  0
   46.0740   32.6110   46.7670 N   0  0  0  0  0  0  0  0  0  0  0  0
   45.3260   32.3500   47.9440 C   0  0  0  0  0  0  0  0  0  0  0  0
   46.3950   32.0160   48.9690 C   0  0  0  0  0  0  0  0  0  0  0  0
   47.6880   31.9440   48.2150 C   0  0  0  0  0  0  0  0  0  0  0  0
   47.2140   31.7240   46.7780 C   0  0  1  0  0  0  0  0  0  0  0  0
   43.7770   36.2330   45.3160 H   0  0  0  0  0  0  0  0  0  0  0  0
   46.6550   34.5040   42.7150 H   0  0  0  0  0  0  0  0  0  0  0  0
   44.5060   31.7140   48.0210 H   0  0  0  0  0  0  0  0  0  0  0  0
   44.9520   33.3640   48.3010 H   0  0  0  0  0  0  0  0  0  0  0  0
   46.4060   32.6560   49.8500 H   0  0  0  0  0  0  0  0  0  0  0  0
   46.1640   30.9830   49.3620 H   0  0  0  0  0  0  0  0  0  0  0  0
   48.2810   31.1010   48.5750 H   0  0  0  0  0  0  0  0  0  0  0  0
   48.1690   32.9400   48.3190 H   0  0  0  0  0  0  0  0  0  0  0  0
   48.0020   32.0880   46.0990 H   0  0  0  0  0  0  0  0  0  0  0  0
   44.8300   36.4940   42.9620 N   0  0  0  0  0  0  0  0  0  0  0  0
   45.1910   36.3840   41.9850 H   0  0  0  0  0  0  0  0  0  0  0  0
   44.2460   37.2920   43.2490 H   0  0  0  0  0  0  0  0  0  0  0  0
   46.7410   30.0250   46.5800 S   0  0  0  0  0  0  0  0  0  0  0  0
   45.5260   30.4780   43.5040 O   0  0  0  0  0  0  0  0  0  0  0  0
   44.9600   29.9340   44.4670 C   0  0  0  0  0  0  0  0  0  0  0  0
   45.1530   29.7120   45.9250 C   0  0  1  0  0  0  0  0  0  0  0  0
   44.6480   28.3000   46.0800 C   0  0  0  0  0  0  0  0  0  0  0  0
   43.2850   28.4880   45.4110 C   0  0  0  0  0  0  0  0  0  0  0  0
   43.7040   29.2630   44.2420 N   0  0  0  0  0  0  0  0  0  0  0  0
   44.2860   30.2930   46.3320 H   0  0  0  0  0  0  0  0  0  0  0  0
   45.2150   27.5970   45.4340 H   0  0  0  0  0  0  0  0  0  0  0  0
   44.5690   27.9740   47.1210 H   0  0  0  0  0  0  0  0  0  0  0  0
   42.5780   29.0230   46.0380 H   0  0  0  0  0  0  0  0  0  0  0  0
   42.9250   27.5060   45.0490 H   0  0  0  0  0  0  0  0  0  0  0  0
   42.8770   29.2780   43.0640 C   0  0  0  0  0  0  0  0  0  0  0  0
   41.9370   30.1970   42.7080 C   0  0  0  0  0  3  0  0  0  0  0  0
   41.2740   29.9770   41.5130 C   0  0  0  0  0  0  0  0  0  0  0  0
   40.5210   30.7290   41.2440 H   0  0  0  0  0  0  0  0  0  0  0  0
   41.5220   28.9180   40.7230 N   0  0  0  0  0  0  0  0  0  0  0  0
   42.4560   28.0190   41.0930 C   0  0  0  0  0  3  0  0  0  0  0  0
   43.1090   28.2130   42.2440 N   0  0  0  0  0  0  0  0  0  0  0  0
  1 12  1  0  0  0  0
  1  6  1  0  0  0  0
  2  1  2  0  0  0  0
  3  2  1  0  0  0  0
  3  4  2  0  0  0  0
  4  5  1  0  0  0  0
  5  6  2  0  0  0  0
  5  7  1  0  0  0  0
  7 11  1  0  0  0  0
  7  8  1  0  0  0  0
  8 14  1  0  0  0  0
  8 15  1  0  0  0  0
  8  9  1  0  0  0  0
  9 17  1  0  0  0  0
  9 16  1  0  0  0  0
 10 19  1  0  0  0  0
 10 18  1  0  0  0  0
 10  9  1  0  0  0  0
 11 20  1  6  0  0  0
 11 10  1  0  0  0  0
 13  3  1  0  0  0  0
 21 23  1  0  0  0  0
 21  2  1  0  0  0  0
 22 21  1  0  0  0  0
 24 11  1  0  0  0  0
 25 26  2  0  0  0  0
 26 27  1  0  0  0  0
 27 28  1  0  0  0  0
 27 31  1  1  0  0  0
 27 24  1  0  0  0  0
 28 33  1  0  0  0  0
 29 34  1  0  0  0  0
 29 28  1  0  0  0  0
 30 26  1  0  0  0  0
 30 29  1  0  0  0  0
 32 28  1  0  0  0  0
 35 29  1  0  0  0  0
 36 30  1  0  0  0  0
 37 36  1  0  0  0  0
 38 37  2  0  0  0  0
 39 38  1  0  0  0  0
 40 41  2  0  0  0  0
 40 38  1  0  0  0  0
 41 42  1  0  0  0  0
 42 36  2  0  0  0  0
M  END
>  <minimizedAffinity>
-5.27653933

>  <minimizedRMSD>
0.553432822

$$$$
