
 OpenBabel03252506373D

 42 45  0  0  1  0  0  0  0  0999 V2000
   44.5050   35.5250   45.1350 C   0  0  0  0  0  0  0  0  0  0  0  0
   45.1650   35.5140   43.8940 C   0  0  0  0  0  0  0  0  0  0  0  0
   46.0900   34.5600   43.6460 C   0  0  0  0  0  0  0  0  0  0  0  0
   46.3260   33.6550   44.6300 N   0  0  0  0  0  0  0  0  0  0  0  0
   45.7000   33.6720   45.7960 C   0  0  0  0  0  0  0  0  0  0  0  0
   44.7860   34.6010   46.0640 N   0  0  0  0  0  0  0  0  0  0  0  0
   46.0290   32.6670   46.7710 N   0  0  0  0  0  0  0  0  0  0  0  0
   45.2820   32.4230   47.9530 C   0  0  0  0  0  0  0  0  0  0  0  0
   46.3500   32.0840   48.9760 C   0  0  0  0  0  0  0  0  0  0  0  0
   47.6400   31.9910   48.2180 C   0  0  0  0  0  0  0  0  0  0  0  0
   47.1580   31.7670   46.7850 C   0  0  1  0  0  0  0  0  0  0  0  0
   43.7690   36.3040   45.3010 H   0  0  0  0  0  0  0  0  0  0  0  0
   46.6170   34.5230   42.7020 H   0  0  0  0  0  0  0  0  0  0  0  0
   44.4550   31.7970   48.0370 H   0  0  0  0  0  0  0  0  0  0  0  0
   44.9210   33.4440   48.3030 H   0  0  0  0  0  0  0  0  0  0  0  0
   46.3720   32.7300   49.8520 H   0  0  0  0  0  0  0  0  0  0  0  0
   46.1090   31.0570   49.3780 H   0  0  0  0  0  0  0  0  0  0  0  0
   48.2240   31.1440   48.5820 H   0  0  0  0  0  0  0  0  0  0  0  0
   48.1330   32.9830   48.3130 H   0  0  0  0  0  0  0  0  0  0  0  0
   47.9480   32.1160   46.0990 H   0  0  0  0  0  0  0  0  0  0  0  0
   44.8160   36.5350   42.9420 N   0  0  0  0  0  0  0  0  0  0  0  0
   45.1720   36.4140   41.9640 H   0  0  0  0  0  0  0  0  0  0  0  0
   44.2420   37.3420   43.2250 H   0  0  0  0  0  0  0  0  0  0  0  0
   46.6650   30.0710   46.6000 S   0  0  0  0  0  0  0  0  0  0  0  0
   45.7200   30.5530   43.4340 O   0  0  0  0  0  0  0  0  0  0  0  0
   45.0720   30.0030   44.3410 C   0  0  0  0  0  0  0  0  0  0  0  0
   45.1390   29.7680   45.8080 C   0  0  1  0  0  0  0  0  0  0  0  0
   44.6190   28.3570   45.9060 C   0  0  0  0  0  0  0  0  0  0  0  0
   43.3190   28.5540   45.1240 C   0  0  0  0  0  0  0  0  0  0  0  0
   43.8400   29.3380   44.0020 N   0  0  0  0  0  0  0  0  0  0  0  0
   44.2410   30.3490   46.1440 H   0  0  0  0  0  0  0  0  0  0  0  0
   45.2380   27.6580   45.3060 H   0  0  0  0  0  0  0  0  0  0  0  0
   44.4500   28.0220   46.9340 H   0  0  0  0  0  0  0  0  0  0  0  0
   42.5610   29.0850   45.6920 H   0  0  0  0  0  0  0  0  0  0  0  0
   42.9900   27.5760   44.7240 H   0  0  0  0  0  0  0  0  0  0  0  0
   43.1170   29.3640   42.7570 C   0  0  0  0  0  0  0  0  0  0  0  0
   42.2870   30.3360   42.2890 C   0  0  0  0  0  3  0  0  0  0  0  0
   41.7110   30.1170   41.0500 C   0  0  0  0  0  0  0  0  0  0  0  0
   41.0440   30.9120   40.6890 H   0  0  0  0  0  0  0  0  0  0  0  0
   41.9390   29.0100   40.3220 N   0  0  0  0  0  0  0  0  0  0  0  0
   42.7640   28.0580   40.8050 C   0  0  0  0  0  3  0  0  0  0  0  0
   43.3320   28.2510   42.0010 N   0  0  0  0  0  0  0  0  0  0  0  0
  1 12  1  0  0  0  0
  1  6  1  0  0  0  0
  2  1  2  0  0  0  0
  3  2  1  0  0  0  0
  3  4  2  0  0  0  0
  4  5  1  0  0  0  0
  5  6  2  0  0  0  0
  5  7  1  0  0  0  0
  7 11  1  0  0  0  0
  7  8  1  0  0  0  0
  8 14  1  0  0  0  0
  8 15  1  0  0  0  0
  8  9  1  0  0  0  0
  9 17  1  0  0  0  0
  9 16  1  0  0  0  0
 10 19  1  0  0  0  0
 10 18  1  0  0  0  0
 10  9  1  0  0  0  0
 11 20  1  6  0  0  0
 11 10  1  0  0  0  0
 13  3  1  0  0  0  0
 21 23  1  0  0  0  0
 21  2  1  0  0  0  0
 22 21  1  0  0  0  0
 24 11  1  0  0  0  0
 25 26  2  0  0  0  0
 26 27  1  0  0  0  0
 27 28  1  0  0  0  0
 27 31  1  1  0  0  0
 27 24  1  0  0  0  0
 28 33  1  0  0  0  0
 29 34  1  0  0  0  0
 29 28  1  0  0  0  0
 30 26  1  0  0  0  0
 30 29  1  0  0  0  0
 32 28  1  0  0  0  0
 35 29  1  0  0  0  0
 36 30  1  0  0  0  0
 37 36  1  0  0  0  0
 38 37  2  0  0  0  0
 39 38  1  0  0  0  0
 40 41  2  0  0  0  0
 40 38  1  0  0  0  0
 41 42  1  0  0  0  0
 42 36  2  0  0  0  0
M  END
>  <minimizedAffinity>
-5.21713257

>  <minimizedRMSD>
0.444009006

$$$$
