
 OpenBabel03252506423D

 38 41  0  0  1  0  0  0  0  0999 V2000
   49.4170   33.3290   41.4870 N   0  0  1  0  0  0  0  0  0  0  0  0
   50.7050   33.1520   42.1610 C   0  0  0  0  0  0  0  0  0  0  0  0
   51.3440   31.8420   41.8270 C   0  0  0  0  0  0  0  0  0  0  0  0
   50.5250   30.7470   42.4680 C   0  0  0  0  0  0  0  0  0  0  0  0
   49.0500   31.0510   42.3990 C   0  0  0  0  0  0  0  0  0  0  0  0
   48.8040   32.0390   41.2780 C   0  0  2  0  0  0  0  0  0  0  0  0
   51.3590   33.9550   41.7190 H   0  0  0  0  0  0  0  0  0  0  0  0
   50.6630   33.3220   43.2390 H   0  0  0  0  0  0  0  0  0  0  0  0
   52.3480   31.8490   42.2980 H   0  0  0  0  0  0  0  0  0  0  0  0
   51.4610   31.7100   40.7500 H   0  0  0  0  0  0  0  0  0  0  0  0
   50.8610   30.6940   43.5420 H   0  0  0  0  0  0  0  0  0  0  0  0
   50.8070   29.7740   42.0400 H   0  0  0  0  0  0  0  0  0  0  0  0
   48.7470   31.5350   43.3360 H   0  0  0  0  0  0  0  0  0  0  0  0
   48.4990   30.1420   42.1360 H   0  0  0  0  0  0  0  0  0  0  0  0
   47.6920   32.2360   41.3320 H   0  0  0  0  0  0  0  0  0  0  0  0
   47.2300   34.5910   41.9990 C   0  0  1  0  0  0  0  0  0  0  0  0
   48.3260   35.5350   41.7220 C   0  0  0  0  0  0  0  0  0  0  0  0
   48.6460   34.2060   42.2990 C   0  0  2  0  0  0  0  0  0  0  0  0
   46.7660   34.1140   41.1210 H   0  0  0  0  0  0  0  0  0  0  0  0
   48.5770   35.7660   40.6680 H   0  0  0  0  0  0  0  0  0  0  0  0
   48.4040   36.4090   42.4050 H   0  0  0  0  0  0  0  0  0  0  0  0
   48.8830   34.1280   43.3860 H   0  0  0  0  0  0  0  0  0  0  0  0
   45.5200   36.0270   43.1590 C   0  0  0  0  0  0  0  0  0  0  0  0
   46.3080   34.8560   43.1430 C   0  0  0  0  0  0  0  0  0  0  0  0
   46.1960   33.9560   44.2170 C   0  0  0  0  0  0  0  0  0  0  0  0
   45.3320   34.2630   45.2220 N   0  0  0  0  0  0  0  0  0  0  0  0
   44.5870   35.4030   45.2060 C   0  0  0  0  0  0  0  0  0  0  0  0
   44.6760   36.2940   44.1740 N   0  0  0  0  0  0  0  0  0  0  0  0
   45.6560   36.6710   42.3050 H   0  0  0  0  0  0  0  0  0  0  0  0
   46.7910   33.0590   44.2210 H   0  0  0  0  0  0  0  0  0  0  0  0
   43.9220   35.5610   46.0570 H   0  0  0  0  0  0  0  0  0  0  0  0
   49.0410   31.4610   39.9470 C   0  0  0  0  0  0  0  0  0  0  0  0
   48.4910   30.1840   39.7840 C   0  0  0  0  0  3  0  0  0  0  0  0
   48.6770   29.5680   38.5400 C   0  0  0  0  0  0  0  0  0  0  0  0
   48.2660   28.5780   38.3730 H   0  0  0  0  0  0  0  0  0  0  0  0
   49.3470   30.1310   37.5040 N   0  0  0  0  0  0  0  0  0  0  0  0
   49.8440   31.3600   37.7400 C   0  0  0  0  0  3  0  0  0  0  0  0
   49.7110   32.0210   38.9050 N   0  0  0  0  0  0  0  0  0  0  0  0
  1  2  1  1  0  0  0
  1 18  1  0  0  0  0
  2  8  1  0  0  0  0
  3  2  1  0  0  0  0
  3  9  1  0  0  0  0
  3  4  1  0  0  0  0
  4 11  1  0  0  0  0
  5  4  1  0  0  0  0
  5 13  1  0  0  0  0
  6 15  1  1  0  0  0
  6  1  1  0  0  0  0
  6  5  1  0  0  0  0
  7  2  1  0  0  0  0
 10  3  1  0  0  0  0
 12  4  1  0  0  0  0
 14  5  1  0  0  0  0
 16 19  1  6  0  0  0
 16 18  1  0  0  0  0
 16 24  1  0  0  0  0
 17 16  1  0  0  0  0
 17 18  1  0  0  0  0
 17 21  1  0  0  0  0
 18 22  1  1  0  0  0
 20 17  1  0  0  0  0
 23 28  1  0  0  0  0
 24 23  2  0  0  0  0
 24 25  1  0  0  0  0
 25 30  1  0  0  0  0
 25 26  2  0  0  0  0
 27 26  1  0  0  0  0
 27 31  1  0  0  0  0
 28 27  2  0  0  0  0
 29 23  1  0  0  0  0
 32  6  1  0  0  0  0
 33 32  1  0  0  0  0
 34 33  2  0  0  0  0
 35 34  1  0  0  0  0
 36 37  2  0  0  0  0
 36 34  1  0  0  0  0
 37 38  1  0  0  0  0
 38 32  2  0  0  0  0
M  END
>  <minimizedAffinity>
-4.81823778

>  <minimizedRMSD>
0.377505273

$$$$
