REMARK  Name = 
REMARK  6 active torsions:
REMARK  status: ('A' for Active; 'I' for Inactive)
REMARK    1  A    between atoms: C_1  and  C_4
REMARK    2  A    between atoms: C_1  and  O_8
REMARK    3  A    between atoms: O_8  and  P_10
REMARK    4  A    between atoms: P_10  and  O_11
REMARK    5  A    between atoms: P_10  and  O_12
REMARK    6  A    between atoms: O_12  and  C_19
REMARK                            x       y       z     vdW  Elec       q    Type
REMARK                         _______ _______ _______ _____ _____    ______ ____
ROOT
ATOM      1  O   UNL     1      48.314  33.412  43.004  0.00  0.00    +0.000 OA
ENDROOT
BRANCH   1   2
ATOM      2  C   UNL     1      47.157  33.979  42.462  0.00  0.00    +0.000 C 
ATOM      3  H   UNL     1      47.358  34.791  41.740  0.00  0.00    +0.000 HD
ATOM      4  H   UNL     1      46.580  33.206  41.874  0.00  0.00    +0.000 HD
BRANCH   2   7
ATOM      5  C   UNL     1      45.297  34.231  45.698  0.00  0.00    +0.000 A 
ATOM      6  C   UNL     1      46.163  33.750  44.705  0.00  0.00    +0.000 A 
ATOM      7  C   UNL     1      46.259  34.459  43.517  0.00  0.00    +0.000 A 
ATOM      8  N   UNL     1      45.508  35.588  43.372  0.00  0.00    +0.000 NA
ATOM      9  C   UNL     1      44.673  36.034  44.355  0.00  0.00    +0.000 A 
ATOM     10  N   UNL     1      44.580  35.350  45.501  0.00  0.00    +0.000 NA
ATOM     11  H   UNL     1      45.270  33.623  46.611  0.00  0.00    +0.000 HD
ATOM     12  H   UNL     1      46.739  32.837  44.882  0.00  0.00    +0.000 HD
ATOM     13  H   UNL     1      44.078  36.922  44.249  0.00  0.00    +0.000 HD
ENDBRANCH   2   7
ENDBRANCH   1   2
BRANCH   1  15
ATOM     14  O   UNL     1      50.671  33.118  41.910  0.00  0.00    +0.000 OA
ATOM     15  P   UNL     1      49.618  34.151  42.236  0.00  0.00    +0.000 P 
BRANCH  15  16
ATOM     16  O   UNL     1      50.205  35.361  43.247  0.00  0.00    +0.000 OA
ATOM     17  H   UNL     1      51.179  35.317  43.288  0.00  0.00    +0.000 HD
ENDBRANCH  15  16
BRANCH  15  18
ATOM     18  O   UNL     1      49.076  34.794  40.780  0.00  0.00    +0.000 OA
BRANCH  18  19
ATOM     19  C   UNL     1      48.636  33.940  39.779  0.00  0.00    +0.000 A 
ATOM     20  C   UNL     1      47.785  32.904  40.175  0.00  0.00    +0.000 A 
ATOM     21  C   UNL     1      47.293  31.998  39.244  0.00  0.00    +0.000 A 
ATOM     22  H   UNL     1      46.623  31.176  39.533  0.00  0.00    +0.000 HD
ATOM     23  N   UNL     1      47.671  32.166  37.957  0.00  0.00    +0.000 NA
ATOM     24  C   UNL     1      48.491  33.173  37.610  0.00  0.00    +0.000 A 
ATOM     25  N   UNL     1      48.968  34.044  38.487  0.00  0.00    +0.000 NA
ENDBRANCH  18  19
ENDBRANCH  15  18
ENDBRANCH   1  15
TORSDOF 6
