
 OpenBabel03252507223D

 45 48  0  0  1  0  0  0  0  0999 V2000
   46.8070   32.5720   43.7580 C   0  0  0  0  0  0  0  0  0  0  0  0
   48.0510   32.6220   43.9790 O   0  0  0  0  0  0  0  0  0  0  0  0
   46.1750   31.5190   43.0510 N   0  0  0  0  0  0  0  0  0  0  0  0
   44.9290   30.7920   43.3430 C   0  0  0  0  0  0  0  0  0  0  0  0
   44.0300   30.8130   42.1120 C   0  0  0  0  0  0  0  0  0  0  0  0
   44.6710   30.0690   40.9910 C   0  0  0  0  0  0  0  0  0  0  0  0
   46.1370   29.8330   41.3040 C   0  0  0  0  0  0  0  0  0  0  0  0
   46.8080   31.0350   41.8600 C   0  0  2  0  0  0  0  0  0  0  0  0
   44.3950   31.3450   44.1500 H   0  0  0  0  0  0  0  0  0  0  0  0
   45.1390   29.7360   43.5830 H   0  0  0  0  0  0  0  0  0  0  0  0
   43.8580   31.8710   41.8350 H   0  0  0  0  0  0  0  0  0  0  0  0
   43.0640   30.3830   42.4370 H   0  0  0  0  0  0  0  0  0  0  0  0
   44.5290   30.5140   39.9900 H   0  0  0  0  0  0  0  0  0  0  0  0
   44.2050   29.0600   40.9500 H   0  0  0  0  0  0  0  0  0  0  0  0
   46.6140   29.6120   40.3080 H   0  0  0  0  0  0  0  0  0  0  0  0
   46.2910   28.9490   41.9290 H   0  0  0  0  0  0  0  0  0  0  0  0
   46.6610   31.8590   41.0930 H   0  0  0  0  0  0  0  0  0  0  0  0
   45.5900   34.6520   43.3480 C   0  0  0  0  0  0  0  0  0  0  0  0
   46.0000   33.6560   44.2640 C   0  0  0  0  0  0  0  0  0  0  0  0
   45.6260   33.7350   45.5980 C   0  0  0  0  0  0  0  0  0  0  0  0
   44.8660   34.7920   45.9710 N   0  0  0  0  0  0  0  0  0  0  0  0
   44.4620   35.7600   45.1050 C   0  0  0  0  0  0  0  0  0  0  0  0
   44.8340   35.6700   43.8070 N   0  0  0  0  0  0  0  0  0  0  0  0
   45.9040   34.5520   42.3200 H   0  0  0  0  0  0  0  0  0  0  0  0
   43.8550   36.5800   45.4660 H   0  0  0  0  0  0  0  0  0  0  0  0
   46.0680   32.7050   46.5030 C   0  0  0  0  0  0  0  0  0  0  0  0
   45.3650   31.5580   46.6460 C   0  0  0  0  0  0  0  0  0  0  0  0
   45.8170   30.5900   47.5210 C   0  0  0  0  0  0  0  0  0  0  0  0
   46.9790   30.7390   48.2710 C   0  0  0  0  0  0  0  0  0  0  0  0
   47.6620   31.9290   48.0880 C   0  0  0  0  0  0  0  0  0  0  0  0
   47.1990   32.8490   47.2340 N   0  0  0  0  0  0  0  0  0  0  0  0
   44.4490   31.3110   46.1320 H   0  0  0  0  0  0  0  0  0  0  0  0
   45.2880   29.6580   47.6670 H   0  0  0  0  0  0  0  0  0  0  0  0
   47.3390   29.9840   48.9570 H   0  0  0  0  0  0  0  0  0  0  0  0
   48.5750   32.1070   48.6430 H   0  0  0  0  0  0  0  0  0  0  0  0
   48.2810   30.8380   41.9560 C   0  0  0  0  0  0  0  0  0  0  0  0
   48.8170   31.2810   42.7860 H   0  0  0  0  0  0  0  0  0  0  0  0
   48.4830   29.7510   42.0490 H   0  0  0  0  0  0  0  0  0  0  0  0
   48.9630   31.2220   40.6470 C   0  0  0  0  0  0  0  0  0  0  0  0
   50.1430   30.6210   40.2450 C   0  0  0  0  0  3  0  0  0  0  0  0
   50.7420   31.0010   39.0520 C   0  0  0  0  0  0  0  0  0  0  0  0
   51.6760   30.5290   38.7300 H   0  0  0  0  0  0  0  0  0  0  0  0
   50.1680   31.9540   38.2940 N   0  0  0  0  0  0  0  0  0  0  0  0
   49.0210   32.5140   38.7180 C   0  0  0  0  0  3  0  0  0  0  0  0
   48.4100   32.1720   39.8680 N   0  0  0  0  0  0  0  0  0  0  0  0
  1  2  2  0  0  0  0
  1 19  1  0  0  0  0
  3  4  1  0  0  0  0
  3  1  1  0  0  0  0
  4 10  1  0  0  0  0
  4  9  1  0  0  0  0
  5 12  1  0  0  0  0
  5  4  1  0  0  0  0
  6  7  1  0  0  0  0
  6  5  1  0  0  0  0
  7  8  1  0  0  0  0
  7 16  1  0  0  0  0
  8 17  1  6  0  0  0
  8 36  1  0  0  0  0
  8  3  1  0  0  0  0
 11  5  1  0  0  0  0
 13  6  1  0  0  0  0
 14  6  1  0  0  0  0
 15  7  1  0  0  0  0
 18 23  2  0  0  0  0
 18 19  1  0  0  0  0
 19 20  2  0  0  0  0
 20 21  1  0  0  0  0
 20 26  1  0  0  0  0
 22 25  1  0  0  0  0
 22 21  2  0  0  0  0
 23 22  1  0  0  0  0
 24 18  1  0  0  0  0
 26 27  2  0  0  0  0
 26 31  1  0  0  0  0
 27 28  1  0  0  0  0
 28 33  1  0  0  0  0
 28 29  2  0  0  0  0
 29 34  1  0  0  0  0
 30 29  1  0  0  0  0
 30 35  1  0  0  0  0
 31 30  2  0  0  0  0
 32 27  1  0  0  0  0
 36 38  1  0  0  0  0
 36 37  1  0  0  0  0
 39 36  1  0  0  0  0
 40 39  1  0  0  0  0
 41 40  2  0  0  0  0
 42 41  1  0  0  0  0
 43 44  2  0  0  0  0
 43 41  1  0  0  0  0
 44 45  1  0  0  0  0
 45 39  2  0  0  0  0
M  END
>  <minimizedAffinity>
-4.59703445

>  <minimizedRMSD>
2.23194718

$$$$
