
 OpenBabel03252509033D

 46 48  0  0  1  0  0  0  0  0999 V2000
   46.7350   34.3900   43.3840 N   0  0  0  0  0  0  0  0  0  0  0  0
   46.4650   34.8610   42.0750 C   0  0  0  0  0  0  0  0  0  0  0  0
   45.0100   34.8160   41.6620 C   0  0  0  0  0  0  0  0  0  0  0  0
   44.0300   35.0190   42.7920 C   0  0  0  0  0  0  0  0  0  0  0  0
   44.7400   35.3530   44.0840 C   0  0  0  0  0  0  0  0  0  0  0  0
   45.7200   34.1320   44.2820 C   0  0  2  0  0  0  0  0  0  0  0  0
   46.7590   35.9490   42.0580 H   0  0  0  0  0  0  0  0  0  0  0  0
   47.0340   34.4090   41.2560 H   0  0  0  0  0  0  0  0  0  0  0  0
   44.8110   33.8580   41.1110 H   0  0  0  0  0  0  0  0  0  0  0  0
   44.8080   35.6290   40.9200 H   0  0  0  0  0  0  0  0  0  0  0  0
   43.2010   35.7010   42.5430 H   0  0  0  0  0  0  0  0  0  0  0  0
   43.5530   34.0160   42.9760 H   0  0  0  0  0  0  0  0  0  0  0  0
   45.3310   36.2720   44.0330 H   0  0  0  0  0  0  0  0  0  0  0  0
   43.9800   35.3350   44.8870 H   0  0  0  0  0  0  0  0  0  0  0  0
   45.0970   33.2260   44.1420 H   0  0  0  0  0  0  0  0  0  0  0  0
   47.9580   33.6210   43.4910 C   0  0  0  0  0  0  0  0  0  0  0  0
   48.7440   34.2250   42.9900 H   0  0  0  0  0  0  0  0  0  0  0  0
   48.2890   33.5250   44.5560 H   0  0  0  0  0  0  0  0  0  0  0  0
   47.7650   32.3260   42.7970 C   0  0  0  0  0  0  0  0  0  0  0  0
   47.6740   31.5080   43.5140 H   0  0  0  0  0  0  0  0  0  0  0  0
   46.7890   32.3120   42.2230 H   0  0  0  0  0  0  0  0  0  0  0  0
   51.2630   32.1470   41.4090 C   0  0  0  0  0  0  0  0  0  0  0  0
   50.1670   32.3490   42.2730 C   0  0  0  0  0  0  0  0  0  0  0  0
   48.8960   32.1010   41.8620 C   0  0  0  0  0  0  0  0  0  0  0  0
   48.7400   31.6610   40.6120 N   0  0  0  0  0  0  0  0  0  0  0  0
   49.7640   31.4590   39.7690 C   0  0  0  0  0  0  0  0  0  0  0  0
   51.0320   31.6960   40.1480 N   0  0  0  0  0  0  0  0  0  0  0  0
   52.2700   32.3280   41.6930 H   0  0  0  0  0  0  0  0  0  0  0  0
   50.4760   32.7040   43.2400 H   0  0  0  0  0  0  0  0  0  0  0  0
   49.4890   31.0980   38.7820 H   0  0  0  0  0  0  0  0  0  0  0  0
   46.1120   34.3100   45.5880 O   0  0  0  0  0  0  0  0  0  0  0  0
   45.7350   31.6660   45.6210 O   0  0  0  0  0  0  0  0  0  0  0  0
   46.0670   32.9040   46.4870 P   0  0  2  0  0  0  0  0  0  0  0  0
   44.6950   33.0340   47.5260 O   0  0  0  0  0  0  0  0  0  0  0  0
   44.7300   33.9460   47.9230 H   0  0  0  0  0  0  0  0  0  0  0  0
   47.3870   32.6360   47.4400 O   0  0  0  0  0  0  0  0  0  0  0  0
   47.1700   31.5980   48.3080 C   0  0  0  0  0  0  0  0  0  0  0  0
   46.2810   31.0370   47.8760 H   0  0  0  0  0  0  0  0  0  0  0  0
   46.7160   32.0600   49.2370 H   0  0  0  0  0  0  0  0  0  0  0  0
   48.2820   30.7120   48.6110 C   0  0  0  0  0  0  0  0  0  0  0  0
   49.1750   31.3400   49.4870 C   0  0  0  0  0  3  0  0  0  0  0  0
   50.2800   30.5950   49.9160 C   0  0  0  0  0  0  0  0  0  0  0  0
   51.0360   31.0000   50.6050 H   0  0  0  0  0  0  0  0  0  0  0  0
   50.5100   29.3290   49.5240 N   0  0  0  0  0  0  0  0  0  0  0  0
   49.6230   28.7720   48.6810 C   0  0  0  0  0  3  0  0  0  0  0  0
   48.5400   29.4310   48.2310 N   0  0  0  0  0  0  0  0  0  0  0  0
  1 16  1  0  0  0  0
  1  6  1  0  0  0  0
  2  1  1  0  0  0  0
  3  2  1  0  0  0  0
  3  4  1  0  0  0  0
  4 12  1  0  0  0  0
  4  5  1  0  0  0  0
  5  6  1  0  0  0  0
  5 14  1  0  0  0  0
  6 15  1  6  0  0  0
  6 31  1  0  0  0  0
  7  2  1  0  0  0  0
  8  2  1  0  0  0  0
  9  3  1  0  0  0  0
 10  3  1  0  0  0  0
 11  4  1  0  0  0  0
 13  5  1  0  0  0  0
 16 18  1  0  0  0  0
 17 16  1  0  0  0  0
 19 16  1  0  0  0  0
 19 20  1  0  0  0  0
 21 19  1  0  0  0  0
 22 28  1  0  0  0  0
 22 23  1  0  0  0  0
 23 29  1  0  0  0  0
 24 23  2  0  0  0  0
 24 19  1  0  0  0  0
 25 24  1  0  0  0  0
 26 27  1  0  0  0  0
 26 25  2  0  0  0  0
 27 22  2  0  0  0  0
 30 26  1  0  0  0  0
 31 33  1  0  0  0  0
 33 32  2  6  0  0  0
 33 36  1  0  0  0  0
 33 34  1  0  0  0  0
 34 35  1  0  0  0  0
 36 37  1  0  0  0  0
 37 40  1  0  0  0  0
 37 39  1  0  0  0  0
 38 37  1  0  0  0  0
 40 41  1  0  0  0  0
 41 42  2  0  0  0  0
 42 43  1  0  0  0  0
 44 42  1  0  0  0  0
 45 44  2  0  0  0  0
 46 40  2  0  0  0  0
 46 45  1  0  0  0  0
M  END
>  <minimizedAffinity>
-4.96111345

>  <minimizedRMSD>
4.06099987

$$$$
