
 OpenBabel03242523503D

 41 44  0  0  1  0  0  0  0  0999 V2000
   42.8380   34.2680   38.9940 C   0  0  1  0  0  0  0  0  0  0  0  0
   43.0480   35.1400   40.2310 C   0  0  1  0  0  0  0  0  0  0  0  0
   41.8020   35.6430   40.6520 O   0  0  0  0  0  0  0  0  0  0  0  0
   40.9300   35.9040   39.5940 C   0  0  0  0  0  0  0  0  0  0  0  0
   40.4650   34.6110   38.9450 C   0  0  2  0  0  0  0  0  0  0  0  0
   41.5260   33.5420   39.2470 C   0  0  1  0  0  0  0  0  0  0  0  0
   43.6830   33.5270   38.9270 H   0  0  0  0  0  0  0  0  0  0  0  0
   43.7450   35.9500   39.9900 H   0  0  0  0  0  0  0  0  0  0  0  0
   40.0530   36.3870   40.0610 H   0  0  0  0  0  0  0  0  0  0  0  0
   41.3410   36.6230   38.8810 H   0  0  0  0  0  0  0  0  0  0  0  0
   39.4660   34.2980   39.2810 H   0  0  0  0  0  0  0  0  0  0  0  0
   41.4580   33.2710   40.3350 H   0  0  0  0  0  0  0  0  0  0  0  0
   42.7340   35.0560   37.8490 O   0  0  0  0  0  0  0  0  0  0  0  0
   43.4210   34.7090   37.2140 H   0  0  0  0  0  0  0  0  0  0  0  0
   40.5260   34.7890   37.5580 O   0  0  0  0  0  0  0  0  0  0  0  0
   40.2140   33.9390   37.1550 H   0  0  0  0  0  0  0  0  0  0  0  0
   43.4410   34.2790   41.2570 O   0  0  0  0  0  0  0  0  0  0  0  0
   44.5960   34.3510   41.9280 C   0  0  0  0  0  0  0  0  0  0  0  0
   45.8050   34.5080   41.2570 C   0  0  0  0  0  0  0  0  0  0  0  0
   46.9750   34.5810   41.9970 C   0  0  0  0  0  0  0  0  0  0  0  0
   46.9090   34.4980   43.3720 N   0  0  0  0  0  0  0  0  0  0  0  0
   45.7260   34.3460   43.9900 C   0  0  0  0  0  0  0  0  0  0  0  0
   44.5730   34.2730   43.2810 N   0  0  0  0  0  0  0  0  0  0  0  0
   45.8830   34.5770   40.1760 H   0  0  0  0  0  0  0  0  0  0  0  0
   45.6230   34.2740   45.0690 H   0  0  0  0  0  0  0  0  0  0  0  0
   48.3100   34.7290   41.3260 C   0  0  0  0  0  0  0  0  0  0  0  0
   49.0580   36.0270   41.5250 C   0  0  0  0  0  0  0  0  0  0  0  0
   49.5180   34.6840   42.1090 C   0  0  0  0  0  0  0  0  0  0  0  0
   48.2970   34.3110   40.2870 H   0  0  0  0  0  0  0  0  0  0  0  0
   49.6250   36.3760   40.6430 H   0  0  0  0  0  0  0  0  0  0  0  0
   48.5470   36.7440   42.1670 H   0  0  0  0  0  0  0  0  0  0  0  0
   49.4950   34.6990   43.2250 H   0  0  0  0  0  0  0  0  0  0  0  0
   50.4940   34.3140   41.7430 H   0  0  0  0  0  0  0  0  0  0  0  0
   41.3520   32.4340   38.4420 O   0  0  0  0  0  0  0  0  0  0  0  0
   40.3470   31.5130   38.6570 C   0  0  0  0  0  0  0  0  0  0  0  0
   39.7220   31.0550   37.5160 C   0  0  0  0  0  0  0  0  0  0  0  0
   38.6820   30.1190   37.5200 C   0  0  0  0  0  0  0  0  0  0  0  0
   38.1950   29.7620   36.6430 H   0  0  0  0  0  0  0  0  0  0  0  0
   38.2750   29.6430   38.7260 N   0  0  0  0  0  0  0  0  0  0  0  0
   38.8990   30.1040   39.8310 C   0  0  0  0  0  0  0  0  0  0  0  0
   39.9040   31.0050   39.8430 N   0  0  0  0  0  0  0  0  0  0  0  0
  1  7  1  6  0  0  0
  1  6  1  0  0  0  0
  1  2  1  0  0  0  0
  2  8  1  6  0  0  0
  2  3  1  0  0  0  0
  2 17  1  0  0  0  0
  4  9  1  0  0  0  0
  4  3  1  0  0  0  0
  5  6  1  0  0  0  0
  5 11  1  1  0  0  0
  5  4  1  0  0  0  0
  6 12  1  1  0  0  0
 10  4  1  0  0  0  0
 13  1  1  0  0  0  0
 14 13  1  0  0  0  0
 15  5  1  0  0  0  0
 16 15  1  0  0  0  0
 17 18  1  0  0  0  0
 18 23  1  0  0  0  0
 19 18  2  0  0  0  0
 19 20  1  0  0  0  0
 20 21  2  0  0  0  0
 21 22  1  0  0  0  0
 22 25  1  0  0  0  0
 23 22  2  0  0  0  0
 24 19  1  0  0  0  0
 26 27  1  0  0  0  0
 26 20  1  0  0  0  0
 26 28  1  0  0  0  0
 27 28  1  0  0  0  0
 27 31  1  0  0  0  0
 28 32  1  0  0  0  0
 29 26  1  0  0  0  0
 30 27  1  0  0  0  0
 33 28  1  0  0  0  0
 34 35  1  0  0  0  0
 34  6  1  0  0  0  0
 35 41  1  0  0  0  0
 36 37  1  0  0  0  0
 36 35  2  0  0  0  0
 37 39  2  0  0  0  0
 38 37  1  0  0  0  0
 39 40  1  0  0  0  0
 40 41  2  0  0  0  0
M  END
>  <minimizedAffinity>
-6.03964233

>  <minimizedRMSD>
1.40022624

$$$$
