
 OpenBabel03252504543D

 19 20  0  0  0  0  0  0  0  0999 V2000
   37.7180   28.4810   43.6720 C   0  0  0  0  0  0  0  0  0  0  0  0
   36.6310   28.4030   43.8820 H   0  0  0  0  0  0  0  0  0  0  0  0
   38.1600   28.7980   44.6600 H   0  0  0  0  0  0  0  0  0  0  0  0
   39.3840   31.1210   41.6430 C   0  0  0  0  0  0  0  0  0  0  0  0
   39.1700   30.1070   42.6130 C   0  0  0  0  0  0  0  0  0  0  0  0
   37.9140   29.5210   42.6660 C   0  0  0  0  0  0  0  0  0  0  0  0
   36.9490   29.9390   41.7950 N   0  0  0  0  0  0  0  0  0  0  0  0
   37.1980   30.9080   40.8890 C   0  0  0  0  0  0  0  0  0  0  0  0
   38.4040   31.4930   40.8140 N   0  0  0  0  0  0  0  0  0  0  0  0
   40.3790   31.5480   41.6400 H   0  0  0  0  0  0  0  0  0  0  0  0
   39.9640   29.8200   43.2700 H   0  0  0  0  0  0  0  0  0  0  0  0
   36.3570   31.1730   40.2340 H   0  0  0  0  0  0  0  0  0  0  0  0
   38.1880   27.1350   43.2930 C   0  0  0  0  0  0  0  0  0  0  0  0
   37.3820   26.3420   42.4980 C   0  0  0  0  0  3  0  0  0  0  0  0
   37.7440   25.0570   42.0910 C   0  0  0  0  0  0  0  0  0  0  0  0
   37.1550   24.4150   41.4810 H   0  0  0  0  0  0  0  0  0  0  0  0
   38.9320   24.5820   42.4980 N   0  0  0  0  0  0  0  0  0  0  0  0
   39.7160   25.3480   43.2680 C   0  0  0  0  0  3  0  0  0  0  0  0
   39.3860   26.6060   43.6800 N   0  0  0  0  0  0  0  0  0  0  0  0
  1  2  1  0  0  0  0
  1  3  1  0  0  0  0
  4  5  1  0  0  0  0
  5  6  2  0  0  0  0
  5 11  1  0  0  0  0
  6  1  1  0  0  0  0
  7  6  1  0  0  0  0
  8  7  2  0  0  0  0
  9  8  1  0  0  0  0
  9  4  2  0  0  0  0
 10  4  1  0  0  0  0
 12  8  1  0  0  0  0
 13  1  1  0  0  0  0
 13 19  1  0  0  0  0
 14 13  2  0  0  0  0
 15 17  2  0  0  0  0
 15 14  1  0  0  0  0
 16 15  1  0  0  0  0
 17 18  1  0  0  0  0
 18 19  2  0  0  0  0
M  END
>  <minimizedAffinity>
-4.01874685

$$$$

 OpenBabel03252504543D

 19 20  0  0  0  0  0  0  0  0999 V2000
   37.6980   28.3620   43.6780 C   0  0  0  0  0  0  0  0  0  0  0  0
   38.2220   28.6710   44.6070 H   0  0  0  0  0  0  0  0  0  0  0  0
   36.6160   28.2970   43.9900 H   0  0  0  0  0  0  0  0  0  0  0  0
   37.8340   24.9970   42.0910 C   0  0  0  0  0  0  0  0  0  0  0  0
   37.3690   26.2800   42.4830 C   0  0  0  0  0  0  0  0  0  0  0  0
   38.1970   27.0470   43.2880 C   0  0  0  0  0  0  0  0  0  0  0  0
   39.4100   26.5430   43.6640 N   0  0  0  0  0  0  0  0  0  0  0  0
   39.8100   25.3170   43.2670 C   0  0  0  0  0  0  0  0  0  0  0  0
   39.0300   24.5510   42.4880 N   0  0  0  0  0  0  0  0  0  0  0  0
   37.1520   24.4360   41.4630 H   0  0  0  0  0  0  0  0  0  0  0  0
   36.4100   26.6230   42.1580 H   0  0  0  0  0  0  0  0  0  0  0  0
   40.8010   25.0030   43.6220 H   0  0  0  0  0  0  0  0  0  0  0  0
   37.8950   29.4360   42.6870 C   0  0  0  0  0  0  0  0  0  0  0  0
   39.1270   30.0600   42.6100 C   0  0  0  0  0  3  0  0  0  0  0  0
   39.4050   31.0840   41.7040 C   0  0  0  0  0  0  0  0  0  0  0  0
   40.3360   31.5900   41.6110 H   0  0  0  0  0  0  0  0  0  0  0  0
   38.4220   31.4740   40.8760 N   0  0  0  0  0  0  0  0  0  0  0  0
   37.2270   30.8720   40.9490 C   0  0  0  0  0  3  0  0  0  0  0  0
   36.9300   29.8680   41.8240 N   0  0  0  0  0  0  0  0  0  0  0  0
  1  3  1  0  0  0  0
  1  2  1  0  0  0  0
  4  5  2  0  0  0  0
  4  9  1  0  0  0  0
  5  6  1  0  0  0  0
  6  7  2  0  0  0  0
  6  1  1  0  0  0  0
  8 12  1  0  0  0  0
  8  7  1  0  0  0  0
  9  8  2  0  0  0  0
 10  4  1  0  0  0  0
 11  5  1  0  0  0  0
 13  1  1  0  0  0  0
 14 13  1  0  0  0  0
 15 14  2  0  0  0  0
 16 15  1  0  0  0  0
 17 18  2  0  0  0  0
 17 15  1  0  0  0  0
 18 19  1  0  0  0  0
 19 13  2  0  0  0  0
M  END
>  <minimizedAffinity>
-4.0074439

$$$$

 OpenBabel03252504543D

 19 20  0  0  0  0  0  0  0  0999 V2000
   35.6450   29.2000   40.7760 C   0  0  0  0  0  0  0  0  0  0  0  0
   35.1470   28.5700   40.0090 H   0  0  0  0  0  0  0  0  0  0  0  0
   34.7920   29.5670   41.4150 H   0  0  0  0  0  0  0  0  0  0  0  0
   37.1590   31.2440   38.0570 C   0  0  0  0  0  0  0  0  0  0  0  0
   36.5300   30.1700   38.7380 C   0  0  0  0  0  0  0  0  0  0  0  0
   36.2930   30.3180   40.0970 C   0  0  0  0  0  0  0  0  0  0  0  0
   36.6720   31.4760   40.7140 N   0  0  0  0  0  0  0  0  0  0  0  0
   37.2680   32.4720   40.0250 C   0  0  0  0  0  0  0  0  0  0  0  0
   37.5090   32.3570   38.7090 N   0  0  0  0  0  0  0  0  0  0  0  0
   37.3210   31.0810   36.9990 H   0  0  0  0  0  0  0  0  0  0  0  0
   36.2550   29.2850   38.2030 H   0  0  0  0  0  0  0  0  0  0  0  0
   37.5330   33.3620   40.6110 H   0  0  0  0  0  0  0  0  0  0  0  0
   36.5410   28.3200   41.5490 C   0  0  0  0  0  0  0  0  0  0  0  0
   36.8490   27.0690   41.0470 C   0  0  0  0  0  3  0  0  0  0  0  0
   37.6880   26.1710   41.7090 C   0  0  0  0  0  0  0  0  0  0  0  0
   37.9510   25.2010   41.3610 H   0  0  0  0  0  0  0  0  0  0  0  0
   38.2100   26.5510   42.8860 N   0  0  0  0  0  0  0  0  0  0  0  0
   37.9130   27.7620   43.3750 C   0  0  0  0  0  3  0  0  0  0  0  0
   37.0980   28.6590   42.7490 N   0  0  0  0  0  0  0  0  0  0  0  0
  1  3  1  0  0  0  0
  1 13  1  0  0  0  0
  2  1  1  0  0  0  0
  4  9  2  0  0  0  0
  4  5  1  0  0  0  0
  5  6  2  0  0  0  0
  6  7  1  0  0  0  0
  6  1  1  0  0  0  0
  8 12  1  0  0  0  0
  8  7  2  0  0  0  0
  9  8  1  0  0  0  0
 10  4  1  0  0  0  0
 11  5  1  0  0  0  0
 13 19  1  0  0  0  0
 14 13  2  0  0  0  0
 14 15  1  0  0  0  0
 15 17  2  0  0  0  0
 16 15  1  0  0  0  0
 17 18  1  0  0  0  0
 19 18  2  0  0  0  0
M  END
>  <minimizedAffinity>
-3.92423248

$$$$

 OpenBabel03252504543D

 19 20  0  0  0  0  0  0  0  0999 V2000
   36.6100   27.6280   43.0050 C   0  0  0  0  0  0  0  0  0  0  0  0
   36.5870   28.1020   44.0090 H   0  0  0  0  0  0  0  0  0  0  0  0
   35.6250   27.0820   42.9440 H   0  0  0  0  0  0  0  0  0  0  0  0
   38.6140   24.6060   42.1590 C   0  0  0  0  0  0  0  0  0  0  0  0
   37.5460   25.5400   42.2060 C   0  0  0  0  0  0  0  0  0  0  0  0
   37.7220   26.6820   42.9720 C   0  0  0  0  0  0  0  0  0  0  0  0
   38.9000   26.8580   43.6410 N   0  0  0  0  0  0  0  0  0  0  0  0
   39.8880   25.9420   43.5670 C   0  0  0  0  0  0  0  0  0  0  0  0
   39.7460   24.8270   42.8330 N   0  0  0  0  0  0  0  0  0  0  0  0
   38.4280   23.7310   41.5480 H   0  0  0  0  0  0  0  0  0  0  0  0
   36.6450   25.3500   41.6620 H   0  0  0  0  0  0  0  0  0  0  0  0
   40.7960   26.1750   44.1400 H   0  0  0  0  0  0  0  0  0  0  0  0
   36.6710   28.7150   42.0100 C   0  0  0  0  0  0  0  0  0  0  0  0
   35.7600   28.7230   40.9700 C   0  0  0  0  0  3  0  0  0  0  0  0
   35.7410   29.7100   39.9830 C   0  0  0  0  0  0  0  0  0  0  0  0
   35.0600   29.7550   39.1680 H   0  0  0  0  0  0  0  0  0  0  0  0
   36.6570   30.6900   40.0590 N   0  0  0  0  0  0  0  0  0  0  0  0
   37.5420   30.6840   41.0650 C   0  0  0  0  0  3  0  0  0  0  0  0
   37.5800   29.7330   42.0420 N   0  0  0  0  0  0  0  0  0  0  0  0
  1  2  1  0  0  0  0
  3  1  1  0  0  0  0
  4  5  2  0  0  0  0
  4  9  1  0  0  0  0
  5  6  1  0  0  0  0
  6  1  1  0  0  0  0
  6  7  2  0  0  0  0
  8  7  1  0  0  0  0
  8 12  1  0  0  0  0
  9  8  2  0  0  0  0
 10  4  1  0  0  0  0
 11  5  1  0  0  0  0
 13 19  1  0  0  0  0
 13  1  1  0  0  0  0
 14 13  2  0  0  0  0
 15 17  2  0  0  0  0
 15 14  1  0  0  0  0
 16 15  1  0  0  0  0
 17 18  1  0  0  0  0
 18 19  2  0  0  0  0
M  END
>  <minimizedAffinity>
-3.92213726

$$$$

 OpenBabel03252504543D

 19 20  0  0  0  0  0  0  0  0999 V2000
   36.1390   30.4660   40.9360 C   0  0  0  0  0  0  0  0  0  0  0  0
   35.0800   30.1340   40.9490 H   0  0  0  0  0  0  0  0  0  0  0  0
   36.1090   31.4760   41.4370 H   0  0  0  0  0  0  0  0  0  0  0  0
   37.6700   31.9040   37.8610 C   0  0  0  0  0  0  0  0  0  0  0  0
   37.2530   31.7530   39.2090 C   0  0  0  0  0  0  0  0  0  0  0  0
   36.5580   30.6000   39.5430 C   0  0  0  0  0  0  0  0  0  0  0  0
   36.3070   29.6710   38.5730 N   0  0  0  0  0  0  0  0  0  0  0  0
   36.7230   29.8580   37.3030 C   0  0  0  0  0  0  0  0  0  0  0  0
   37.3980   30.9640   36.9510 N   0  0  0  0  0  0  0  0  0  0  0  0
   38.2090   32.8200   37.6500 H   0  0  0  0  0  0  0  0  0  0  0  0
   37.4770   32.5130   39.9270 H   0  0  0  0  0  0  0  0  0  0  0  0
   36.4730   29.0540   36.5980 H   0  0  0  0  0  0  0  0  0  0  0  0
   36.9110   29.5020   41.7410 C   0  0  0  0  0  0  0  0  0  0  0  0
   36.4230   28.2170   41.8970 C   0  0  0  0  0  3  0  0  0  0  0  0
   37.0850   27.2380   42.6400 C   0  0  0  0  0  0  0  0  0  0  0  0
   36.7470   26.2400   42.7860 H   0  0  0  0  0  0  0  0  0  0  0  0
   38.2450   27.5730   43.2260 N   0  0  0  0  0  0  0  0  0  0  0  0
   38.7200   28.8170   43.0780 C   0  0  0  0  0  3  0  0  0  0  0  0
   38.0940   29.7920   42.3560 N   0  0  0  0  0  0  0  0  0  0  0  0
  1  2  1  0  0  0  0
  1  3  1  0  0  0  0
  1 13  1  0  0  0  0
  4  5  1  0  0  0  0
  5  6  2  0  0  0  0
  5 11  1  0  0  0  0
  6  1  1  0  0  0  0
  7  6  1  0  0  0  0
  8  7  2  0  0  0  0
  9  8  1  0  0  0  0
  9  4  2  0  0  0  0
 10  4  1  0  0  0  0
 12  8  1  0  0  0  0
 13 14  2  0  0  0  0
 13 19  1  0  0  0  0
 14 15  1  0  0  0  0
 15 16  1  0  0  0  0
 15 17  2  0  0  0  0
 18 17  1  0  0  0  0
 19 18  2  0  0  0  0
M  END
>  <minimizedAffinity>
-3.87108254

$$$$

 OpenBabel03252504543D

 19 20  0  0  0  0  0  0  0  0999 V2000
   35.4150   29.2200   40.5490 C   0  0  0  0  0  0  0  0  0  0  0  0
   34.8480   29.5890   41.4290 H   0  0  0  0  0  0  0  0  0  0  0  0
   34.6100   28.9280   39.8140 H   0  0  0  0  0  0  0  0  0  0  0  0
   37.3260   26.8650   42.7100 C   0  0  0  0  0  0  0  0  0  0  0  0
   36.5810   27.9970   42.2870 C   0  0  0  0  0  0  0  0  0  0  0  0
   36.1800   28.0460   40.9600 C   0  0  0  0  0  0  0  0  0  0  0  0
   36.5160   27.0170   40.1270 N   0  0  0  0  0  0  0  0  0  0  0  0
   37.2270   25.9600   40.5740 C   0  0  0  0  0  0  0  0  0  0  0  0
   37.6280   25.8850   41.8530 N   0  0  0  0  0  0  0  0  0  0  0  0
   37.6150   26.8730   43.7540 H   0  0  0  0  0  0  0  0  0  0  0  0
   36.3470   28.7740   42.9840 H   0  0  0  0  0  0  0  0  0  0  0  0
   37.4460   25.1850   39.8270 H   0  0  0  0  0  0  0  0  0  0  0  0
   36.2110   30.3490   40.0360 C   0  0  0  0  0  0  0  0  0  0  0  0
   36.5410   30.3820   38.6930 C   0  0  0  0  0  3  0  0  0  0  0  0
   37.2900   31.4100   38.1190 C   0  0  0  0  0  0  0  0  0  0  0  0
   37.5660   31.4740   37.0940 H   0  0  0  0  0  0  0  0  0  0  0  0
   37.7040   32.4060   38.9190 N   0  0  0  0  0  0  0  0  0  0  0  0
   37.3860   32.3780   40.2200 C   0  0  0  0  0  3  0  0  0  0  0  0
   36.6560   31.3860   40.8050 N   0  0  0  0  0  0  0  0  0  0  0  0
  1  6  1  0  0  0  0
  1  2  1  0  0  0  0
  3  1  1  0  0  0  0
  4 10  1  0  0  0  0
  5  4  1  0  0  0  0
  5 11  1  0  0  0  0
  6  5  2  0  0  0  0
  7  8  2  0  0  0  0
  7  6  1  0  0  0  0
  8  9  1  0  0  0  0
  9  4  2  0  0  0  0
 12  8  1  0  0  0  0
 13  1  1  0  0  0  0
 13 19  1  0  0  0  0
 14 13  2  0  0  0  0
 15 14  1  0  0  0  0
 15 17  2  0  0  0  0
 16 15  1  0  0  0  0
 17 18  1  0  0  0  0
 18 19  2  0  0  0  0
M  END
>  <minimizedAffinity>
-3.85281539

$$$$

 OpenBabel03252504543D

 19 20  0  0  0  0  0  0  0  0999 V2000
   36.2910   30.5980   41.0450 C   0  0  0  0  0  0  0  0  0  0  0  0
   36.6510   31.5500   41.4890 H   0  0  0  0  0  0  0  0  0  0  0  0
   35.1760   30.6290   41.2110 H   0  0  0  0  0  0  0  0  0  0  0  0
   38.7240   28.6690   43.1010 C   0  0  0  0  0  0  0  0  0  0  0  0
   38.1250   29.7290   42.3710 C   0  0  0  0  0  0  0  0  0  0  0  0
   36.8880   29.4930   41.7910 C   0  0  0  0  0  0  0  0  0  0  0  0
   36.3050   28.2670   41.9440 N   0  0  0  0  0  0  0  0  0  0  0  0
   36.9130   27.2880   42.6480 C   0  0  0  0  0  0  0  0  0  0  0  0
   38.1110   27.4880   43.2210 N   0  0  0  0  0  0  0  0  0  0  0  0
   39.6890   28.9020   43.5350 H   0  0  0  0  0  0  0  0  0  0  0  0
   38.6270   30.6690   42.2840 H   0  0  0  0  0  0  0  0  0  0  0  0
   36.3640   26.3400   42.7130 H   0  0  0  0  0  0  0  0  0  0  0  0
   36.6100   30.6380   39.6060 C   0  0  0  0  0  0  0  0  0  0  0  0
   37.3250   31.7120   39.1070 C   0  0  0  0  0  3  0  0  0  0  0  0
   37.6720   31.8340   37.7610 C   0  0  0  0  0  0  0  0  0  0  0  0
   38.2190   32.6410   37.3360 H   0  0  0  0  0  0  0  0  0  0  0  0
   37.2860   30.8580   36.9230 N   0  0  0  0  0  0  0  0  0  0  0  0
   36.5940   29.8170   37.4030 C   0  0  0  0  0  3  0  0  0  0  0  0
   36.2430   29.6730   38.7130 N   0  0  0  0  0  0  0  0  0  0  0  0
  1  3  1  0  0  0  0
  1  2  1  0  0  0  0
  1  6  1  0  0  0  0
  4  9  1  0  0  0  0
  4 10  1  0  0  0  0
  5  4  2  0  0  0  0
  6  7  2  0  0  0  0
  6  5  1  0  0  0  0
  7  8  1  0  0  0  0
  8 12  1  0  0  0  0
  8  9  2  0  0  0  0
 11  5  1  0  0  0  0
 13  1  1  0  0  0  0
 14 13  1  0  0  0  0
 15 14  2  0  0  0  0
 16 15  1  0  0  0  0
 17 18  2  0  0  0  0
 17 15  1  0  0  0  0
 18 19  1  0  0  0  0
 19 13  2  0  0  0  0
M  END
>  <minimizedAffinity>
-3.84142685

$$$$

 OpenBabel03252504543D

 19 20  0  0  0  0  0  0  0  0999 V2000
   36.6010   27.6460   42.8320 C   0  0  0  0  0  0  0  0  0  0  0  0
   35.6500   27.0850   42.9410 H   0  0  0  0  0  0  0  0  0  0  0  0
   36.6190   28.3200   43.7360 H   0  0  0  0  0  0  0  0  0  0  0  0
   36.7520   30.5760   40.5390 C   0  0  0  0  0  0  0  0  0  0  0  0
   36.8180   29.7870   41.7180 C   0  0  0  0  0  0  0  0  0  0  0  0
   36.5260   28.4370   41.6060 C   0  0  0  0  0  0  0  0  0  0  0  0
   36.1910   27.9280   40.3840 N   0  0  0  0  0  0  0  0  0  0  0  0
   36.1400   28.7160   39.2900 C   0  0  0  0  0  0  0  0  0  0  0  0
   36.4180   30.0280   39.3670 N   0  0  0  0  0  0  0  0  0  0  0  0
   36.9890   31.6230   40.6770 H   0  0  0  0  0  0  0  0  0  0  0  0
   37.0870   30.2400   42.6490 H   0  0  0  0  0  0  0  0  0  0  0  0
   35.8610   28.2130   38.3540 H   0  0  0  0  0  0  0  0  0  0  0  0
   37.6990   26.6630   42.8880 C   0  0  0  0  0  0  0  0  0  0  0  0
   38.8550   26.9870   43.5730 C   0  0  0  0  0  3  0  0  0  0  0  0
   39.9440   26.1210   43.6790 C   0  0  0  0  0  0  0  0  0  0  0  0
   40.8500   26.3280   44.1950 H   0  0  0  0  0  0  0  0  0  0  0  0
   39.8520   24.9210   43.0820 N   0  0  0  0  0  0  0  0  0  0  0  0
   38.7330   24.6040   42.4160 C   0  0  0  0  0  3  0  0  0  0  0  0
   37.6550   25.4320   42.2990 N   0  0  0  0  0  0  0  0  0  0  0  0
  1 13  1  0  0  0  0
  1  2  1  0  0  0  0
  1  3  1  0  0  0  0
  4 10  1  0  0  0  0
  4  5  1  0  0  0  0
  5 11  1  0  0  0  0
  6  5  2  0  0  0  0
  6  1  1  0  0  0  0
  7  6  1  0  0  0  0
  8  9  1  0  0  0  0
  8  7  2  0  0  0  0
  9  4  2  0  0  0  0
 12  8  1  0  0  0  0
 13 14  1  0  0  0  0
 14 15  2  0  0  0  0
 15 16  1  0  0  0  0
 17 15  1  0  0  0  0
 18 17  2  0  0  0  0
 19 18  1  0  0  0  0
 19 13  2  0  0  0  0
M  END
>  <minimizedAffinity>
-3.73751068

$$$$

 OpenBabel03252504543D

 19 20  0  0  0  0  0  0  0  0999 V2000
   36.6610   30.9110   40.9560 C   0  0  0  0  0  0  0  0  0  0  0  0
   36.1550   31.6190   41.6460 H   0  0  0  0  0  0  0  0  0  0  0  0
   35.8580   30.6430   40.2110 H   0  0  0  0  0  0  0  0  0  0  0  0
   36.6770   27.4300   42.2770 C   0  0  0  0  0  0  0  0  0  0  0  0
   36.3060   28.5870   41.5420 C   0  0  0  0  0  0  0  0  0  0  0  0
   37.0620   29.7350   41.7230 C   0  0  0  0  0  0  0  0  0  0  0  0
   38.1180   29.7050   42.5890 N   0  0  0  0  0  0  0  0  0  0  0  0
   38.4340   28.5820   43.2670 C   0  0  0  0  0  0  0  0  0  0  0  0
   37.7200   27.4550   43.1120 N   0  0  0  0  0  0  0  0  0  0  0  0
   36.0570   26.5600   42.1020 H   0  0  0  0  0  0  0  0  0  0  0  0
   35.4690   28.5520   40.8780 H   0  0  0  0  0  0  0  0  0  0  0  0
   39.2990   28.6600   43.9380 H   0  0  0  0  0  0  0  0  0  0  0  0
   37.7590   31.6480   40.3030 C   0  0  0  0  0  0  0  0  0  0  0  0
   38.2650   31.1740   39.1060 C   0  0  0  0  0  3  0  0  0  0  0  0
   39.3020   31.8040   38.4160 C   0  0  0  0  0  0  0  0  0  0  0  0
   39.7200   31.4750   37.4960 H   0  0  0  0  0  0  0  0  0  0  0  0
   39.8230   32.9200   38.9510 N   0  0  0  0  0  0  0  0  0  0  0  0
   39.3360   33.3820   40.1110 C   0  0  0  0  0  3  0  0  0  0  0  0
   38.3230   32.7850   40.8040 N   0  0  0  0  0  0  0  0  0  0  0  0
  1  2  1  0  0  0  0
  1  6  1  0  0  0  0
  3  1  1  0  0  0  0
  4  9  1  0  0  0  0
  5  6  1  0  0  0  0
  5  4  2  0  0  0  0
  6  7  2  0  0  0  0
  7  8  1  0  0  0  0
  8 12  1  0  0  0  0
  9  8  2  0  0  0  0
 10  4  1  0  0  0  0
 11  5  1  0  0  0  0
 13 19  1  0  0  0  0
 13  1  1  0  0  0  0
 14 13  2  0  0  0  0
 15 17  2  0  0  0  0
 15 14  1  0  0  0  0
 16 15  1  0  0  0  0
 17 18  1  0  0  0  0
 18 19  2  0  0  0  0
M  END
>  <minimizedAffinity>
-3.70927715

$$$$
