
 OpenBabel03252506493D

 27 29  0  0  0  0  0  0  0  0999 V2000
   44.9860   34.6240   41.4060 C   0  0  0  0  0  0  0  0  0  0  0  0
   45.7040   35.1330   42.4890 C   0  0  0  0  0  0  0  0  0  0  0  0
   47.1060   35.1010   42.4280 C   0  0  0  0  0  0  0  0  0  0  0  0
   47.6920   34.5790   41.3250 N   0  0  0  0  0  0  0  0  0  0  0  0
   46.9640   34.0930   40.2930 C   0  0  0  0  0  0  0  0  0  0  0  0
   45.6090   34.1090   40.3200 N   0  0  0  0  0  0  0  0  0  0  0  0
   45.2290   35.5480   43.3660 H   0  0  0  0  0  0  0  0  0  0  0  0
   47.6470   35.5010   43.2780 H   0  0  0  0  0  0  0  0  0  0  0  0
   47.6470   33.5430   39.1290 C   0  0  0  0  0  0  0  0  0  0  0  0
   47.7540   32.1890   38.9550 C   0  0  0  0  0  0  0  0  0  0  0  0
   48.4210   31.7170   37.8200 C   0  0  0  0  0  0  0  0  0  0  0  0
   48.5060   30.6450   37.6830 H   0  0  0  0  0  0  0  0  0  0  0  0
   48.9530   32.5760   36.9070 N   0  0  0  0  0  0  0  0  0  0  0  0
   48.8090   33.8960   37.1440 C   0  0  0  0  0  0  0  0  0  0  0  0
   48.1720   34.4170   38.2280 N   0  0  0  0  0  0  0  0  0  0  0  0
   43.2070   34.7000   41.5600 S   0  0  0  0  0  0  0  0  0  0  0  0
   40.7060   36.0210   40.0650 Cl  0  0  0  0  0  0  0  0  0  0  0  0
   41.2890   34.4580   39.4950 C   0  0  0  0  0  0  0  0  0  0  0  0
   42.3570   33.9710   40.1890 C   0  0  0  0  0  0  0  0  0  0  0  0
   42.8710   32.7320   39.7850 C   0  0  0  0  0  0  0  0  0  0  0  0
   42.2800   32.0670   38.7170 C   0  0  0  0  0  0  0  0  0  0  0  0
   41.2030   32.5650   38.0220 C   0  0  0  0  0  0  0  0  0  0  0  0
   40.7090   33.8000   38.4420 C   0  0  0  0  0  0  0  0  0  0  0  0
   39.3380   34.5450   37.6400 Cl  0  0  0  0  0  0  0  0  0  0  0  0
   43.7140   32.2540   40.2640 H   0  0  0  0  0  0  0  0  0  0  0  0
   42.6660   31.1010   38.3890 H   0  0  0  0  0  0  0  0  0  0  0  0
   40.7530   32.0370   37.1930 H   0  0  0  0  0  0  0  0  0  0  0  0
  1 16  1  0  0  0  0
  1  2  1  0  0  0  0
  2  7  1  0  0  0  0
  3  2  2  0  0  0  0
  3  8  1  0  0  0  0
  4  3  1  0  0  0  0
  5  6  1  0  0  0  0
  5  4  2  0  0  0  0
  6  1  2  0  0  0  0
  9  5  1  0  0  0  0
 10  9  1  0  0  0  0
 11 10  2  0  0  0  0
 12 11  1  0  0  0  0
 13 14  2  0  0  0  0
 13 11  1  0  0  0  0
 14 15  1  0  0  0  0
 15  9  2  0  0  0  0
 18 17  1  0  0  0  0
 18 19  1  0  0  0  0
 19 16  1  0  0  0  0
 20 19  2  0  0  0  0
 20 25  1  0  0  0  0
 21 20  1  0  0  0  0
 22 23  1  0  0  0  0
 22 21  2  0  0  0  0
 23 18  2  0  0  0  0
 24 23  1  0  0  0  0
 26 21  1  0  0  0  0
 27 22  1  0  0  0  0
M  END
>  <minimizedAffinity>
-5.09806347

>  <minimizedRMSD>
6.50792408

$$$$
