
 OpenBabel03252509293D

 19 20  0  0  0  0  0  0  0  0999 V2000
   46.8660   34.9550   42.0030 C   0  0  0  0  0  0  0  0  0  0  0  0
   47.8560   34.4810   42.1640 H   0  0  0  0  0  0  0  0  0  0  0  0
   47.1200   36.0160   41.7190 H   0  0  0  0  0  0  0  0  0  0  0  0
   44.5360   35.9640   44.7270 C   0  0  0  0  0  0  0  0  0  0  0  0
   45.2570   35.9720   43.5040 C   0  0  0  0  0  0  0  0  0  0  0  0
   46.1350   34.9250   43.2670 C   0  0  0  0  0  0  0  0  0  0  0  0
   46.2680   33.9440   44.2080 N   0  0  0  0  0  0  0  0  0  0  0  0
   45.5610   33.9780   45.3570 C   0  0  0  0  0  0  0  0  0  0  0  0
   44.7030   34.9790   45.6140 N   0  0  0  0  0  0  0  0  0  0  0  0
   43.8630   36.8010   44.8650 H   0  0  0  0  0  0  0  0  0  0  0  0
   45.1130   36.7670   42.8040 H   0  0  0  0  0  0  0  0  0  0  0  0
   45.7380   33.1440   46.0490 H   0  0  0  0  0  0  0  0  0  0  0  0
   46.2200   34.2510   40.8800 C   0  0  0  0  0  0  0  0  0  0  0  0
   47.0110   33.7350   39.8700 C   0  0  0  0  0  3  0  0  0  0  0  0
   46.4880   33.0540   38.7680 C   0  0  0  0  0  0  0  0  0  0  0  0
   47.0580   32.6420   37.9700 H   0  0  0  0  0  0  0  0  0  0  0  0
   45.1560   32.9000   38.7010 N   0  0  0  0  0  0  0  0  0  0  0  0
   44.3860   33.3990   39.6780 C   0  0  0  0  0  3  0  0  0  0  0  0
   44.8720   34.0680   40.7640 N   0  0  0  0  0  0  0  0  0  0  0  0
  1  2  1  0  0  0  0
  1  6  1  0  0  0  0
  3  1  1  0  0  0  0
  4 10  1  0  0  0  0
  4  9  1  0  0  0  0
  5  4  2  0  0  0  0
  6  5  1  0  0  0  0
  6  7  2  0  0  0  0
  7  8  1  0  0  0  0
  8  9  2  0  0  0  0
  8 12  1  0  0  0  0
 11  5  1  0  0  0  0
 13  1  1  0  0  0  0
 14 13  2  0  0  0  0
 15 14  1  0  0  0  0
 16 15  1  0  0  0  0
 17 15  2  0  0  0  0
 17 18  1  0  0  0  0
 18 19  2  0  0  0  0
 19 13  1  0  0  0  0
M  END
>  <minimizedAffinity>
-3.94587994

>  <minimizedRMSD>
0.492935598

$$$$
