REMARK  Name = 
REMARK  3 active torsions:
REMARK  status: ('A' for Active; 'I' for Inactive)
REMARK    1  A    between atoms: C_3  and  C_9
REMARK    2  A    between atoms: C_8  and  C_15
REMARK    3  A    between atoms: C_13  and  C_23
REMARK                            x       y       z     vdW  Elec       q    Type
REMARK                         _______ _______ _______ _____ _____    ______ ____
ROOT
ATOM      1  C   UNL     1      47.965  34.643  40.095  0.00  0.00    +0.000 A 
ATOM      2  C   UNL     1      46.811  33.974  40.482  0.00  0.00    +0.000 A 
ATOM      3  C   UNL     1      46.169  33.240  39.533  0.00  0.00    +0.000 A 
ATOM      4  C   UNL     1      46.619  33.141  38.222  0.00  0.00    +0.000 A 
ATOM      5  C   UNL     1      47.763  33.816  37.877  0.00  0.00    +0.000 A 
ATOM      6  C   UNL     1      48.433  34.563  38.806  0.00  0.00    +0.000 A 
ATOM      7  H   UNL     1      45.263  32.711  39.826  0.00  0.00    +0.000 HD
ATOM      8  H   UNL     1      46.057  32.537  37.516  0.00  0.00    +0.000 HD
ATOM      9  H   UNL     1      48.062  33.702  36.851  0.00  0.00    +0.000 HD
ENDROOT
BRANCH   2  12
ATOM     10  C   UNL     1      44.904  35.044  43.560  0.00  0.00    +0.000 A 
ATOM     11  C   UNL     1      45.285  34.917  42.217  0.00  0.00    +0.000 A 
ATOM     12  C   UNL     1      46.396  34.121  41.864  0.00  0.00    +0.000 A 
ATOM     13  N   UNL     1      47.028  33.521  42.897  0.00  0.00    +0.000 NA
ATOM     14  C   UNL     1      46.657  33.649  44.169  0.00  0.00    +0.000 A 
ATOM     15  N   UNL     1      45.586  34.418  44.497  0.00  0.00    +0.000 NA
ATOM     16  N   UNL     1      43.795  35.849  43.863  0.00  0.00    +0.000 N 
ATOM     17  H   UNL     1      44.727  35.432  41.432  0.00  0.00    +0.000 HD
ATOM     18  H   UNL     1      47.255  33.111  44.894  0.00  0.00    +0.000 HD
ATOM     19  H   UNL     1      43.018  36.107  43.216  0.00  0.00    +0.000 HD
ATOM     20  H   UNL     1      43.712  36.242  44.825  0.00  0.00    +0.000 HD
ENDBRANCH   2  12
BRANCH   6  21
ATOM     21  C   UNL     1      49.648  35.282  38.441  0.00  0.00    +0.000 A 
ATOM     22  C   UNL     1      49.906  36.574  38.803  0.00  0.00    +0.000 A 
ATOM     23  C   UNL     1      51.054  37.258  38.460  0.00  0.00    +0.000 A 
ATOM     24  H   UNL     1      51.222  38.291  38.769  0.00  0.00    +0.000 HD
ATOM     25  N   UNL     1      51.997  36.653  37.730  0.00  0.00    +0.000 NA
ATOM     26  C   UNL     1      51.767  35.375  37.360  0.00  0.00    +0.000 A 
ATOM     27  N   UNL     1      50.640  34.734  37.708  0.00  0.00    +0.000 NA
ENDBRANCH   6  21
BRANCH   1  29
ATOM     28  N   UNL     1      49.324  36.072  41.817  0.00  0.00    +0.000 NA
ATOM     29  C   UNL     1      48.701  35.433  41.036  0.00  0.00    +0.000 C 
ENDBRANCH   1  29
TORSDOF 3
