
     RDKit          3D

 42 44  0  0  0  0  0  0  0  0999 V2000
   43.8718   35.2379   41.2055 C   0  0  0  0  0  0  0  0  0  0  0  0
   43.9468   35.5822   42.4890 C   0  0  0  0  0  0  0  0  0  0  0  0
   45.2271   35.5413   43.3103 C   0  0  0  0  0  0  0  0  0  0  0  0
   45.0012   34.6552   44.3482 O   0  0  0  0  0  0  0  0  0  0  0  0
   45.6994   32.5015   42.9505 O   0  0  0  0  0  0  0  0  0  0  0  0
   45.9998   33.3030   44.1959 P   0  0  1  0  0  0  0  0  0  0  0  0
   47.6317   33.7888   44.0952 O   0  0  0  0  0  0  0  0  0  0  0  0
   45.8609   32.3241   45.5625 O   0  0  0  0  0  0  0  0  0  0  0  0
   46.2047   32.9894   46.7238 C   0  0  0  0  0  0  0  0  0  0  0  0
   47.0595   32.2965   47.7361 C   0  0  0  0  0  0  0  0  0  0  0  0
   45.5670   32.4543   47.9851 C   0  0  0  0  0  0  0  0  0  0  0  0
   42.6257   35.3320   40.6140 O   0  0  0  0  0  0  0  0  0  0  0  0
   41.4463   35.6382   41.2020 C   0  0  0  0  0  0  0  0  0  0  0  0
   40.2897   33.5368   41.5799 C   0  0  0  0  0  0  0  0  0  0  0  0
   40.3187   34.7228   40.8378 C   0  0  0  0  0  0  0  0  0  0  0  0
   39.3600   34.9446   39.9156 C   0  0  0  0  0  0  0  0  0  0  0  0
   38.4346   33.9915   39.7812 N   0  0  0  0  0  0  0  0  0  0  0  0
   38.3838   32.8579   40.4732 C   0  0  0  0  0  0  0  0  0  0  0  0
   39.3593   32.5898   41.4371 N   0  0  0  0  0  0  0  0  0  0  0  0
   44.7302   34.9080   40.6733 H   0  0  0  0  0  0  0  0  0  0  0  0
   43.1846   35.9361   43.1665 H   0  0  0  0  0  0  0  0  0  0  0  0
   45.4824   36.5454   43.7046 H   0  0  0  0  0  0  0  0  0  0  0  0
   46.0198   35.2305   42.6134 H   0  0  0  0  0  0  0  0  0  0  0  0
   47.7480   34.5268   43.4437 H   0  0  0  0  0  0  0  0  0  0  0  0
   46.3574   34.0823   46.6395 H   0  0  0  0  0  0  0  0  0  0  0  0
   47.4421   31.2776   47.5060 H   0  0  0  0  0  0  0  0  0  0  0  0
   47.6715   32.9414   48.3965 H   0  0  0  0  0  0  0  0  0  0  0  0
   44.9815   31.5182   47.9405 H   0  0  0  0  0  0  0  0  0  0  0  0
   45.2200   33.1896   48.7403 H   0  0  0  0  0  0  0  0  0  0  0  0
   41.4021   35.6836   42.3153 H   0  0  0  0  0  0  0  0  0  0  0  0
   41.1274   36.6761   40.8899 H   0  0  0  0  0  0  0  0  0  0  0  0
   41.0292   33.2985   42.3330 H   0  0  0  0  0  0  0  0  0  0  0  0
   39.4147   35.8610   39.3666 H   0  0  0  0  0  0  0  0  0  0  0  0
   37.3444   31.8493   40.2835 C   0  0  0  0  0  0  0  0  0  0  0  0
   37.2192   30.8856   41.2638 C   0  0  0  0  0  0  0  0  0  0  0  0
   36.2148   29.9328   41.0545 C   0  0  0  0  0  0  0  0  0  0  0  0
   36.1260   29.1818   41.8299 H   0  0  0  0  0  0  0  0  0  0  0  0
   35.4186   29.9472   39.9720 N   0  0  0  0  0  0  0  0  0  0  0  0
   35.5772   30.9057   39.0427 C   0  0  0  0  0  0  0  0  0  0  0  0
   36.5431   31.8572   39.2020 N   0  0  0  0  0  0  0  0  0  0  0  0
   37.8615   30.8717   42.1396 H   0  0  0  0  0  0  0  0  0  0  0  0
   34.9847   30.9976   38.1405 H   0  0  0  0  0  0  0  0  0  0  0  0
  1  2  2  0
  2  3  1  0
  3  4  1  0
  6  5  2  0
  6  4  1  1
  6  8  1  0
  7  6  1  0
  8  9  1  0
  9 10  1  0
  9 11  1  0
 10 11  1  0
 12  1  1  0
 12 13  1  0
 15 13  1  0
 15 14  2  0
 16 15  1  0
 17 16  2  0
 17 18  1  0
 18 19  2  0
 19 14  1  0
  1 20  1  0
  2 21  1  0
  3 22  1  0
  3 23  1  0
  7 24  1  0
  9 25  1  0
 10 26  1  0
 10 27  1  0
 11 28  1  0
 11 29  1  0
 13 30  1  0
 13 31  1  0
 14 32  1  0
 16 33  1  0
 34 35  2  0
 35 36  1  0
 36 37  1  0
 36 38  2  0
 38 39  1  0
 39 40  2  0
 40 34  1  0
 35 41  1  0
 39 42  1  0
 18 34  1  0
M  ISO  8  22   8  23   8  24   3  25  13  26  13  27  13  28  13  29  13
M  ISO  5  30   8  31   8  32  14  33  14  37  14
M  END
>  <DihAtoms>  (1) 
16,17,33,34

>  <DihDeg>  (1) 
0.002466815015926368

$$$$
