
 OpenBabel03252500473D

 24 26  0  0  0  0  0  0  0  0999 V2000
   38.5800   27.8710   39.8490 C   0  0  0  0  0  0  0  0  0  0  0  0
   37.6480   27.3020   40.7190 C   0  0  0  0  0  0  0  0  0  0  0  0
   36.8060   28.1040   41.4810 C   0  0  0  0  0  0  0  0  0  0  0  0
   36.9460   29.4600   41.3270 N   0  0  0  0  0  0  0  0  0  0  0  0
   37.8500   29.9970   40.4840 C   0  0  0  0  0  0  0  0  0  0  0  0
   38.6700   29.2270   39.7420 N   0  0  0  0  0  0  0  0  0  0  0  0
   39.2570   27.3000   39.2350 H   0  0  0  0  0  0  0  0  0  0  0  0
   36.0980   27.6700   42.1410 H   0  0  0  0  0  0  0  0  0  0  0  0
   37.9680   31.4440   40.3500 C   0  0  0  0  0  0  0  0  0  0  0  0
   37.1310   32.1550   39.5350 C   0  0  0  0  0  0  0  0  0  0  0  0
   37.2000   33.5210   39.3720 C   0  0  0  0  0  0  0  0  0  0  0  0
   38.1750   34.1610   40.0840 N   0  0  0  0  0  0  0  0  0  0  0  0
   38.9920   33.4560   40.8820 C   0  0  0  0  0  0  0  0  0  0  0  0
   38.9400   32.1130   41.0550 N   0  0  0  0  0  0  0  0  0  0  0  0
   36.3730   31.5840   38.9920 H   0  0  0  0  0  0  0  0  0  0  0  0
   36.4800   33.9680   38.6970 H   0  0  0  0  0  0  0  0  0  0  0  0
   39.7310   34.0730   41.4010 H   0  0  0  0  0  0  0  0  0  0  0  0
   37.6130   25.8500   40.7760 C   0  0  0  0  0  0  0  0  0  0  0  0
   36.6400   25.0670   40.1980 C   0  0  0  0  0  3  0  0  0  0  0  0
   36.6410   23.6860   40.2730 C   0  0  0  0  0  0  0  0  0  0  0  0
   35.8470   23.1010   39.7980 H   0  0  0  0  0  0  0  0  0  0  0  0
   37.6340   23.1080   40.9360 N   0  0  0  0  0  0  0  0  0  0  0  0
   38.6010   23.8480   41.5130 C   0  0  0  0  0  3  0  0  0  0  0  0
   38.5910   25.2100   41.4320 N   0  0  0  0  0  0  0  0  0  0  0  0
  1  2  1  0  0  0  0
  2 18  1  0  0  0  0
  2  3  2  0  0  0  0
  3  8  1  0  0  0  0
  4  3  1  0  0  0  0
  5  4  2  0  0  0  0
  6  1  2  0  0  0  0
  6  5  1  0  0  0  0
  7  1  1  0  0  0  0
  9  5  1  0  0  0  0
  9 14  1  0  0  0  0
 10  9  2  0  0  0  0
 11 10  1  0  0  0  0
 11 12  2  0  0  0  0
 12 13  1  0  0  0  0
 13 14  2  0  0  0  0
 13 17  1  0  0  0  0
 15 10  1  0  0  0  0
 16 11  1  0  0  0  0
 18 24  1  0  0  0  0
 19 20  1  0  0  0  0
 19 18  2  0  0  0  0
 20 22  2  0  0  0  0
 21 20  1  0  0  0  0
 22 23  1  0  0  0  0
 24 23  2  0  0  0  0
M  END
>  <minimizedAffinity>
-4.48603868

$$$$

 OpenBabel03252500473D

 24 26  0  0  0  0  0  0  0  0999 V2000
   38.6170   29.2140   39.6940 C   0  0  0  0  0  0  0  0  0  0  0  0
   37.8000   30.0000   40.5090 C   0  0  0  0  0  0  0  0  0  0  0  0
   36.9290   29.4120   41.4200 C   0  0  0  0  0  0  0  0  0  0  0  0
   36.9250   28.0410   41.4670 N   0  0  0  0  0  0  0  0  0  0  0  0
   37.7190   27.2940   40.6750 C   0  0  0  0  0  0  0  0  0  0  0  0
   38.5650   27.8560   39.7890 N   0  0  0  0  0  0  0  0  0  0  0  0
   39.3090   29.6140   38.9720 H   0  0  0  0  0  0  0  0  0  0  0  0
   36.3100   30.0100   42.0390 H   0  0  0  0  0  0  0  0  0  0  0  0
   37.6840   25.8380   40.7540 C   0  0  0  0  0  0  0  0  0  0  0  0
   36.6640   25.1180   40.1960 C   0  0  0  0  0  0  0  0  0  0  0  0
   36.5820   23.7440   40.2430 C   0  0  0  0  0  0  0  0  0  0  0  0
   37.6000   23.1050   40.8940 N   0  0  0  0  0  0  0  0  0  0  0  0
   38.5970   23.8190   41.4400 C   0  0  0  0  0  0  0  0  0  0  0  0
   38.6950   25.1700   41.4040 N   0  0  0  0  0  0  0  0  0  0  0  0
   35.8810   25.6880   39.6900 H   0  0  0  0  0  0  0  0  0  0  0  0
   35.7240   23.2900   39.7630 H   0  0  0  0  0  0  0  0  0  0  0  0
   39.3530   23.2020   41.9330 H   0  0  0  0  0  0  0  0  0  0  0  0
   37.9140   31.4400   40.3490 C   0  0  0  0  0  0  0  0  0  0  0  0
   37.0810   32.2090   39.5690 C   0  0  0  0  0  3  0  0  0  0  0  0
   37.2210   33.5790   39.4410 C   0  0  0  0  0  0  0  0  0  0  0  0
   36.5360   34.1540   38.8090 H   0  0  0  0  0  0  0  0  0  0  0  0
   38.2090   34.1600   40.1090 N   0  0  0  0  0  0  0  0  0  0  0  0
   39.0410   33.4340   40.8800 C   0  0  0  0  0  3  0  0  0  0  0  0
   38.8940   32.0820   41.0000 N   0  0  0  0  0  0  0  0  0  0  0  0
  1  6  2  0  0  0  0
  1  2  1  0  0  0  0
  2  3  2  0  0  0  0
  3  4  1  0  0  0  0
  3  8  1  0  0  0  0
  5  9  1  0  0  0  0
  5  4  2  0  0  0  0
  6  5  1  0  0  0  0
  7  1  1  0  0  0  0
  9 14  1  0  0  0  0
 10 11  1  0  0  0  0
 10  9  2  0  0  0  0
 11 12  2  0  0  0  0
 12 13  1  0  0  0  0
 13 17  1  0  0  0  0
 14 13  2  0  0  0  0
 15 10  1  0  0  0  0
 16 11  1  0  0  0  0
 18  2  1  0  0  0  0
 18 24  1  0  0  0  0
 19 18  2  0  0  0  0
 20 19  1  0  0  0  0
 20 22  2  0  0  0  0
 21 20  1  0  0  0  0
 22 23  1  0  0  0  0
 23 24  2  0  0  0  0
M  END
>  <minimizedAffinity>
-4.43339252

$$$$

 OpenBabel03252500473D

 24 26  0  0  0  0  0  0  0  0999 V2000
   38.2420   29.2110   39.4680 C   0  0  0  0  0  0  0  0  0  0  0  0
   37.8110   30.0050   40.5340 C   0  0  0  0  0  0  0  0  0  0  0  0
   37.2880   29.4260   41.6840 C   0  0  0  0  0  0  0  0  0  0  0  0
   37.2220   28.0560   41.7060 N   0  0  0  0  0  0  0  0  0  0  0  0
   37.6400   27.3010   40.6700 C   0  0  0  0  0  0  0  0  0  0  0  0
   38.1490   27.8540   39.5520 N   0  0  0  0  0  0  0  0  0  0  0  0
   38.6550   29.6050   38.5540 H   0  0  0  0  0  0  0  0  0  0  0  0
   36.9620   30.0300   42.4930 H   0  0  0  0  0  0  0  0  0  0  0  0
   37.5520   25.8470   40.7320 C   0  0  0  0  0  0  0  0  0  0  0  0
   38.3970   25.1150   41.5200 C   0  0  0  0  0  0  0  0  0  0  0  0
   38.3570   23.7420   41.6150 C   0  0  0  0  0  0  0  0  0  0  0  0
   37.4040   23.1160   40.8610 N   0  0  0  0  0  0  0  0  0  0  0  0
   36.5790   23.8420   40.0900 C   0  0  0  0  0  0  0  0  0  0  0  0
   36.6030   25.1930   39.9840 N   0  0  0  0  0  0  0  0  0  0  0  0
   39.1380   25.6740   42.0980 H   0  0  0  0  0  0  0  0  0  0  0  0
   39.0800   23.2770   42.2740 H   0  0  0  0  0  0  0  0  0  0  0  0
   35.8590   23.2360   39.5340 H   0  0  0  0  0  0  0  0  0  0  0  0
   37.9440   31.4430   40.3680 C   0  0  0  0  0  0  0  0  0  0  0  0
   37.0990   32.2250   39.6130 C   0  0  0  0  0  3  0  0  0  0  0  0
   37.2570   33.5920   39.4790 C   0  0  0  0  0  0  0  0  0  0  0  0
   36.5620   34.1770   38.8670 H   0  0  0  0  0  0  0  0  0  0  0  0
   38.2740   34.1580   40.1150 N   0  0  0  0  0  0  0  0  0  0  0  0
   39.1170   33.4190   40.8620 C   0  0  0  0  0  3  0  0  0  0  0  0
   38.9530   32.0700   40.9880 N   0  0  0  0  0  0  0  0  0  0  0  0
  1  6  2  0  0  0  0
  1  2  1  0  0  0  0
  2  3  2  0  0  0  0
  3  4  1  0  0  0  0
  3  8  1  0  0  0  0
  5  9  1  0  0  0  0
  5  4  2  0  0  0  0
  6  5  1  0  0  0  0
  7  1  1  0  0  0  0
  9 10  1  0  0  0  0
 10 11  2  0  0  0  0
 10 15  1  0  0  0  0
 11 16  1  0  0  0  0
 12 11  1  0  0  0  0
 13 12  2  0  0  0  0
 14 13  1  0  0  0  0
 14  9  2  0  0  0  0
 17 13  1  0  0  0  0
 18  2  1  0  0  0  0
 18 24  1  0  0  0  0
 19 18  2  0  0  0  0
 20 19  1  0  0  0  0
 20 22  2  0  0  0  0
 21 20  1  0  0  0  0
 22 23  1  0  0  0  0
 23 24  2  0  0  0  0
M  END
>  <minimizedAffinity>
-4.33777952

$$$$

 OpenBabel03252500473D

 24 26  0  0  0  0  0  0  0  0999 V2000
   34.2850   29.2470   39.5240 C   0  0  0  0  0  0  0  0  0  0  0  0
   34.4960   28.6230   38.2930 C   0  0  0  0  0  0  0  0  0  0  0  0
   35.5420   27.7230   38.1240 C   0  0  0  0  0  0  0  0  0  0  0  0
   36.3350   27.4920   39.2190 N   0  0  0  0  0  0  0  0  0  0  0  0
   36.1200   28.1010   40.4020 C   0  0  0  0  0  0  0  0  0  0  0  0
   35.1090   28.9750   40.5740 N   0  0  0  0  0  0  0  0  0  0  0  0
   33.4910   29.9520   39.7130 H   0  0  0  0  0  0  0  0  0  0  0  0
   35.7010   27.2490   37.1880 H   0  0  0  0  0  0  0  0  0  0  0  0
   36.9870   27.8280   41.5420 C   0  0  0  0  0  0  0  0  0  0  0  0
   37.5930   26.6130   41.7030 C   0  0  0  0  0  0  0  0  0  0  0  0
   38.4190   26.3030   42.7600 C   0  0  0  0  0  0  0  0  0  0  0  0
   38.6170   27.2970   43.6770 N   0  0  0  0  0  0  0  0  0  0  0  0
   38.0200   28.4880   43.5120 C   0  0  0  0  0  0  0  0  0  0  0  0
   37.2040   28.8110   42.4790 N   0  0  0  0  0  0  0  0  0  0  0  0
   37.3930   25.8600   40.9360 H   0  0  0  0  0  0  0  0  0  0  0  0
   38.8390   25.3050   42.7750 H   0  0  0  0  0  0  0  0  0  0  0  0
   38.2510   29.2030   44.3050 H   0  0  0  0  0  0  0  0  0  0  0  0
   33.5740   28.9660   37.2230 C   0  0  0  0  0  0  0  0  0  0  0  0
   33.8810   28.9280   35.8820 C   0  0  0  0  0  3  0  0  0  0  0  0
   32.9760   29.2620   34.8920 C   0  0  0  0  0  0  0  0  0  0  0  0
   33.2620   29.2170   33.8360 H   0  0  0  0  0  0  0  0  0  0  0  0
   31.7600   29.6330   35.2710 N   0  0  0  0  0  0  0  0  0  0  0  0
   31.4290   29.6800   36.5760 C   0  0  0  0  0  3  0  0  0  0  0  0
   32.3310   29.3480   37.5460 N   0  0  0  0  0  0  0  0  0  0  0  0
  1  7  1  0  0  0  0
  1  6  1  0  0  0  0
  2  1  2  0  0  0  0
  3  2  1  0  0  0  0
  3  4  2  0  0  0  0
  4  5  1  0  0  0  0
  5  6  2  0  0  0  0
  5  9  1  0  0  0  0
  8  3  1  0  0  0  0
  9 10  2  0  0  0  0
  9 14  1  0  0  0  0
 10 11  1  0  0  0  0
 11 16  1  0  0  0  0
 11 12  2  0  0  0  0
 13 12  1  0  0  0  0
 13 17  1  0  0  0  0
 14 13  2  0  0  0  0
 15 10  1  0  0  0  0
 18 24  1  0  0  0  0
 18  2  1  0  0  0  0
 19 18  2  0  0  0  0
 20 22  2  0  0  0  0
 20 19  1  0  0  0  0
 21 20  1  0  0  0  0
 22 23  1  0  0  0  0
 23 24  2  0  0  0  0
M  END
>  <minimizedAffinity>
-4.27189016

$$$$

 OpenBabel03252500473D

 24 26  0  0  0  0  0  0  0  0999 V2000
   38.3310   27.8750   39.6670 C   0  0  0  0  0  0  0  0  0  0  0  0
   37.3110   27.3210   40.4440 C   0  0  0  0  0  0  0  0  0  0  0  0
   36.4560   28.1370   41.1770 C   0  0  0  0  0  0  0  0  0  0  0  0
   36.6720   29.4880   41.0900 N   0  0  0  0  0  0  0  0  0  0  0  0
   37.6610   30.0090   40.3360 C   0  0  0  0  0  0  0  0  0  0  0  0
   38.4940   29.2270   39.6230 N   0  0  0  0  0  0  0  0  0  0  0  0
   39.0210   27.2920   39.0790 H   0  0  0  0  0  0  0  0  0  0  0  0
   35.6810   27.7150   41.7670 H   0  0  0  0  0  0  0  0  0  0  0  0
   37.8580   31.4530   40.2700 C   0  0  0  0  0  0  0  0  0  0  0  0
   38.8970   32.0600   40.9200 C   0  0  0  0  0  0  0  0  0  0  0  0
   39.1290   33.4170   40.8910 C   0  0  0  0  0  0  0  0  0  0  0  0
   38.2460   34.1600   40.1600 N   0  0  0  0  0  0  0  0  0  0  0  0
   37.2290   33.5570   39.5250 C   0  0  0  0  0  0  0  0  0  0  0  0
   36.9850   32.2240   39.5410 N   0  0  0  0  0  0  0  0  0  0  0  0
   39.5680   31.4100   41.4880 H   0  0  0  0  0  0  0  0  0  0  0  0
   39.9860   33.7780   41.4470 H   0  0  0  0  0  0  0  0  0  0  0  0
   36.5890   34.2500   38.9730 H   0  0  0  0  0  0  0  0  0  0  0  0
   37.2020   25.8720   40.4380 C   0  0  0  0  0  0  0  0  0  0  0  0
   37.5650   25.0560   41.4850 C   0  0  0  0  0  3  0  0  0  0  0  0
   37.4470   23.6790   41.4430 C   0  0  0  0  0  0  0  0  0  0  0  0
   37.7480   23.0660   42.2990 H   0  0  0  0  0  0  0  0  0  0  0  0
   36.9580   23.1390   40.3340 N   0  0  0  0  0  0  0  0  0  0  0  0
   36.5930   23.9110   39.2930 C   0  0  0  0  0  3  0  0  0  0  0  0
   36.7140   25.2700   39.3450 N   0  0  0  0  0  0  0  0  0  0  0  0
  1  2  1  0  0  0  0
  2  3  2  0  0  0  0
  3  8  1  0  0  0  0
  4  3  1  0  0  0  0
  5  4  2  0  0  0  0
  6  1  2  0  0  0  0
  6  5  1  0  0  0  0
  7  1  1  0  0  0  0
  9  5  1  0  0  0  0
  9 10  1  0  0  0  0
 10 15  1  0  0  0  0
 11 10  2  0  0  0  0
 11 16  1  0  0  0  0
 12 11  1  0  0  0  0
 13 14  1  0  0  0  0
 13 12  2  0  0  0  0
 14  9  2  0  0  0  0
 17 13  1  0  0  0  0
 18  2  1  0  0  0  0
 18 19  1  0  0  0  0
 20 19  2  0  0  0  0
 20 21  1  0  0  0  0
 22 20  1  0  0  0  0
 23 24  1  0  0  0  0
 23 22  2  0  0  0  0
 24 18  2  0  0  0  0
M  END
>  <minimizedAffinity>
-4.23924065

$$$$

 OpenBabel03252500473D

 24 26  0  0  0  0  0  0  0  0999 V2000
   35.2310   28.9750   40.5580 C   0  0  0  0  0  0  0  0  0  0  0  0
   36.2030   27.9850   40.3990 C   0  0  0  0  0  0  0  0  0  0  0  0
   36.3330   27.3050   39.1930 C   0  0  0  0  0  0  0  0  0  0  0  0
   35.4660   27.6610   38.1920 N   0  0  0  0  0  0  0  0  0  0  0  0
   34.5310   28.6180   38.3580 C   0  0  0  0  0  0  0  0  0  0  0  0
   34.3980   29.2810   39.5240 N   0  0  0  0  0  0  0  0  0  0  0  0
   35.0850   29.5330   41.4680 H   0  0  0  0  0  0  0  0  0  0  0  0
   37.0720   26.5540   39.0730 H   0  0  0  0  0  0  0  0  0  0  0  0
   33.6270   28.9670   37.2690 C   0  0  0  0  0  0  0  0  0  0  0  0
   34.0340   28.9250   35.9640 C   0  0  0  0  0  0  0  0  0  0  0  0
   33.2220   29.2440   34.8990 C   0  0  0  0  0  0  0  0  0  0  0  0
   31.9440   29.6180   35.2100 N   0  0  0  0  0  0  0  0  0  0  0  0
   31.5520   29.6560   36.4940 C   0  0  0  0  0  0  0  0  0  0  0  0
   32.3370   29.3460   37.5540 N   0  0  0  0  0  0  0  0  0  0  0  0
   35.0670   28.6190   35.7820 H   0  0  0  0  0  0  0  0  0  0  0  0
   33.6610   29.1730   33.9110 H   0  0  0  0  0  0  0  0  0  0  0  0
   30.5130   29.9680   36.6200 H   0  0  0  0  0  0  0  0  0  0  0  0
   37.0520   27.7160   41.5480 C   0  0  0  0  0  0  0  0  0  0  0  0
   37.2560   28.5900   42.5910 C   0  0  0  0  0  3  0  0  0  0  0  0
   38.0730   28.2990   43.6680 C   0  0  0  0  0  0  0  0  0  0  0  0
   38.2080   29.0240   44.4780 H   0  0  0  0  0  0  0  0  0  0  0  0
   38.6760   27.1180   43.6800 N   0  0  0  0  0  0  0  0  0  0  0  0
   38.4960   26.2420   42.6740 C   0  0  0  0  0  3  0  0  0  0  0  0
   37.6880   26.5390   41.6140 N   0  0  0  0  0  0  0  0  0  0  0  0
  1  7  1  0  0  0  0
  2  1  1  0  0  0  0
  2 18  1  0  0  0  0
  3  2  2  0  0  0  0
  4  5  2  0  0  0  0
  4  3  1  0  0  0  0
  5  6  1  0  0  0  0
  6  1  2  0  0  0  0
  8  3  1  0  0  0  0
  9 14  1  0  0  0  0
  9  5  1  0  0  0  0
 10  9  2  0  0  0  0
 11 12  2  0  0  0  0
 11 10  1  0  0  0  0
 12 13  1  0  0  0  0
 13 17  1  0  0  0  0
 13 14  2  0  0  0  0
 15 10  1  0  0  0  0
 16 11  1  0  0  0  0
 18 24  2  0  0  0  0
 18 19  1  0  0  0  0
 19 20  2  0  0  0  0
 20 22  1  0  0  0  0
 20 21  1  0  0  0  0
 23 22  2  0  0  0  0
 24 23  1  0  0  0  0
M  END
>  <minimizedAffinity>
-4.21484566

$$$$

 OpenBabel03252500473D

 24 26  0  0  0  0  0  0  0  0999 V2000
   39.1710   30.4190   39.8620 C   0  0  0  0  0  0  0  0  0  0  0  0
   39.3790   30.1080   41.2080 C   0  0  0  0  0  0  0  0  0  0  0  0
   40.4820   30.6100   41.8900 C   0  0  0  0  0  0  0  0  0  0  0  0
   41.3340   31.4110   41.1730 N   0  0  0  0  0  0  0  0  0  0  0  0
   41.1230   31.7030   39.8740 C   0  0  0  0  0  0  0  0  0  0  0  0
   40.0560   31.2210   39.2060 N   0  0  0  0  0  0  0  0  0  0  0  0
   38.3360   30.0600   39.2850 H   0  0  0  0  0  0  0  0  0  0  0  0
   40.6380   30.3730   42.9120 H   0  0  0  0  0  0  0  0  0  0  0  0
   42.0530   32.5580   39.1470 C   0  0  0  0  0  0  0  0  0  0  0  0
   43.3490   32.7110   39.5570 C   0  0  0  0  0  0  0  0  0  0  0  0
   44.2680   33.5060   38.9080 C   0  0  0  0  0  0  0  0  0  0  0  0
   43.8150   34.1600   37.7970 N   0  0  0  0  0  0  0  0  0  0  0  0
   42.5420   34.0040   37.4010 C   0  0  0  0  0  0  0  0  0  0  0  0
   41.6240   33.2280   38.0260 N   0  0  0  0  0  0  0  0  0  0  0  0
   43.6490   32.1620   40.4530 H   0  0  0  0  0  0  0  0  0  0  0  0
   45.2640   33.5450   39.3310 H   0  0  0  0  0  0  0  0  0  0  0  0
   42.2940   34.5740   36.5020 H   0  0  0  0  0  0  0  0  0  0  0  0
   38.3910   29.2480   41.8370 C   0  0  0  0  0  0  0  0  0  0  0  0
   38.4960   28.7350   43.1090 C   0  0  0  0  0  3  0  0  0  0  0  0
   37.5340   27.9180   43.6740 C   0  0  0  0  0  0  0  0  0  0  0  0
   37.6580   27.5310   44.6910 H   0  0  0  0  0  0  0  0  0  0  0  0
   36.4670   27.6290   42.9410 N   0  0  0  0  0  0  0  0  0  0  0  0
   36.3350   28.1160   41.6930 C   0  0  0  0  0  3  0  0  0  0  0  0
   37.2910   28.9220   41.1440 N   0  0  0  0  0  0  0  0  0  0  0  0
  1  2  1  0  0  0  0
  2 18  1  0  0  0  0
  2  3  2  0  0  0  0
  3  8  1  0  0  0  0
  4  3  1  0  0  0  0
  5  4  2  0  0  0  0
  6  1  2  0  0  0  0
  6  5  1  0  0  0  0
  7  1  1  0  0  0  0
  9 10  1  0  0  0  0
  9  5  1  0  0  0  0
 10 15  1  0  0  0  0
 11 16  1  0  0  0  0
 11 10  2  0  0  0  0
 12 11  1  0  0  0  0
 13 12  2  0  0  0  0
 13 14  1  0  0  0  0
 14  9  2  0  0  0  0
 17 13  1  0  0  0  0
 18 19  1  0  0  0  0
 19 20  2  0  0  0  0
 20 21  1  0  0  0  0
 22 20  1  0  0  0  0
 23 22  2  0  0  0  0
 24 23  1  0  0  0  0
 24 18  2  0  0  0  0
M  END
>  <minimizedAffinity>
-4.08417177

$$$$

 OpenBabel03252500473D

 24 26  0  0  0  0  0  0  0  0999 V2000
   37.1160   26.1510   39.6290 C   0  0  0  0  0  0  0  0  0  0  0  0
   37.3840   26.9250   40.7610 C   0  0  0  0  0  0  0  0  0  0  0  0
   36.8260   28.1900   40.9030 C   0  0  0  0  0  0  0  0  0  0  0  0
   36.0140   28.6210   39.8860 N   0  0  0  0  0  0  0  0  0  0  0  0
   35.7640   27.8650   38.7980 C   0  0  0  0  0  0  0  0  0  0  0  0
   36.3000   26.6370   38.6520 N   0  0  0  0  0  0  0  0  0  0  0  0
   37.5190   25.1650   39.4650 H   0  0  0  0  0  0  0  0  0  0  0  0
   37.0300   28.7760   41.7640 H   0  0  0  0  0  0  0  0  0  0  0  0
   34.8950   28.3600   37.7370 C   0  0  0  0  0  0  0  0  0  0  0  0
   33.5960   28.7080   37.9840 C   0  0  0  0  0  0  0  0  0  0  0  0
   32.7340   29.1800   37.0190 C   0  0  0  0  0  0  0  0  0  0  0  0
   33.2480   29.2900   35.7580 N   0  0  0  0  0  0  0  0  0  0  0  0
   34.5250   28.9460   35.5240 C   0  0  0  0  0  0  0  0  0  0  0  0
   35.3870   28.4800   36.4590 N   0  0  0  0  0  0  0  0  0  0  0  0
   33.2450   28.5960   39.0130 H   0  0  0  0  0  0  0  0  0  0  0  0
   31.7280   29.4220   37.3400 H   0  0  0  0  0  0  0  0  0  0  0  0
   34.8240   29.0760   34.4810 H   0  0  0  0  0  0  0  0  0  0  0  0
   38.2630   26.3360   41.7580 C   0  0  0  0  0  0  0  0  0  0  0  0
   38.5620   24.9950   41.8420 C   0  0  0  0  0  3  0  0  0  0  0  0
   39.4040   24.4710   42.8060 C   0  0  0  0  0  0  0  0  0  0  0  0
   39.6160   23.3970   42.8380 H   0  0  0  0  0  0  0  0  0  0  0  0
   39.9370   25.3150   43.6800 N   0  0  0  0  0  0  0  0  0  0  0  0
   39.6630   26.6320   43.6220 C   0  0  0  0  0  3  0  0  0  0  0  0
   38.8310   27.1390   42.6670 N   0  0  0  0  0  0  0  0  0  0  0  0
  1  2  1  0  0  0  0
  2  3  2  0  0  0  0
  2 18  1  0  0  0  0
  3  8  1  0  0  0  0
  4  3  1  0  0  0  0
  5  4  2  0  0  0  0
  6  5  1  0  0  0  0
  6  1  2  0  0  0  0
  7  1  1  0  0  0  0
  9 10  1  0  0  0  0
  9  5  1  0  0  0  0
 10 15  1  0  0  0  0
 11 16  1  0  0  0  0
 11 10  2  0  0  0  0
 12 11  1  0  0  0  0
 13 12  2  0  0  0  0
 13 14  1  0  0  0  0
 14  9  2  0  0  0  0
 17 13  1  0  0  0  0
 18 19  2  0  0  0  0
 18 24  1  0  0  0  0
 19 20  1  0  0  0  0
 20 21  1  0  0  0  0
 20 22  2  0  0  0  0
 23 22  1  0  0  0  0
 24 23  2  0  0  0  0
M  END
>  <minimizedAffinity>
-3.97549033

$$$$

 OpenBabel03252500473D

 24 26  0  0  0  0  0  0  0  0999 V2000
   34.3520   29.0460   39.6110 C   0  0  0  0  0  0  0  0  0  0  0  0
   34.5960   29.0020   38.2360 C   0  0  0  0  0  0  0  0  0  0  0  0
   35.8520   29.3190   37.7280 C   0  0  0  0  0  0  0  0  0  0  0  0
   36.8120   29.6680   38.6420 N   0  0  0  0  0  0  0  0  0  0  0  0
   36.5640   29.7070   39.9660 C   0  0  0  0  0  0  0  0  0  0  0  0
   35.3510   29.4020   40.4670 N   0  0  0  0  0  0  0  0  0  0  0  0
   33.4010   28.8110   40.0600 H   0  0  0  0  0  0  0  0  0  0  0  0
   36.0350   29.2840   36.6840 H   0  0  0  0  0  0  0  0  0  0  0  0
   37.6130   30.0840   40.9050 C   0  0  0  0  0  0  0  0  0  0  0  0
   37.8060   29.3990   42.0720 C   0  0  0  0  0  0  0  0  0  0  0  0
   38.7810   29.7130   42.9930 C   0  0  0  0  0  0  0  0  0  0  0  0
   39.5780   30.7790   42.6810 N   0  0  0  0  0  0  0  0  0  0  0  0
   39.3820   31.4470   41.5330 C   0  0  0  0  0  0  0  0  0  0  0  0
   38.4290   31.1520   40.6160 N   0  0  0  0  0  0  0  0  0  0  0  0
   37.1350   28.5570   42.2640 H   0  0  0  0  0  0  0  0  0  0  0  0
   38.8330   29.0940   43.8800 H   0  0  0  0  0  0  0  0  0  0  0  0
   40.0780   32.2780   41.3910 H   0  0  0  0  0  0  0  0  0  0  0  0
   33.4810   28.6130   37.3890 C   0  0  0  0  0  0  0  0  0  0  0  0
   32.3700   29.3900   37.1520 C   0  0  0  0  0  3  0  0  0  0  0  0
   31.3270   28.9860   36.3400 C   0  0  0  0  0  0  0  0  0  0  0  0
   30.4610   29.6360   36.1770 H   0  0  0  0  0  0  0  0  0  0  0  0
   31.4200   27.7910   35.7710 N   0  0  0  0  0  0  0  0  0  0  0  0
   32.4950   27.0070   35.9840 C   0  0  0  0  0  3  0  0  0  0  0  0
   33.5190   27.4160   36.7880 N   0  0  0  0  0  0  0  0  0  0  0  0
  1  7  1  0  0  0  0
  1  6  1  0  0  0  0
  2  1  2  0  0  0  0
  3  2  1  0  0  0  0
  3  4  2  0  0  0  0
  4  5  1  0  0  0  0
  5  6  2  0  0  0  0
  5  9  1  0  0  0  0
  8  3  1  0  0  0  0
  9 10  1  0  0  0  0
 10 15  1  0  0  0  0
 10 11  2  0  0  0  0
 11 16  1  0  0  0  0
 12 11  1  0  0  0  0
 13 12  2  0  0  0  0
 14  9  2  0  0  0  0
 14 13  1  0  0  0  0
 17 13  1  0  0  0  0
 18  2  1  0  0  0  0
 19 18  1  0  0  0  0
 20 19  2  0  0  0  0
 21 20  1  0  0  0  0
 22 23  2  0  0  0  0
 22 20  1  0  0  0  0
 23 24  1  0  0  0  0
 24 18  2  0  0  0  0
M  END
>  <minimizedAffinity>
-3.97220945

$$$$
