
 OpenBabel03242523583D

 19 20  0  0  0  0  0  0  0  0999 V2000
   44.4260   36.0320   44.8510 C   0  0  0  0  0  0  0  0  0  0  0  0
   45.0770   35.9870   43.5860 C   0  0  0  0  0  0  0  0  0  0  0  0
   45.9510   34.9290   43.3540 C   0  0  0  0  0  0  0  0  0  0  0  0
   46.1410   34.0040   44.3250 N   0  0  0  0  0  0  0  0  0  0  0  0
   45.5010   34.0820   45.5180 C   0  0  0  0  0  0  0  0  0  0  0  0
   44.6510   35.0900   45.7770 N   0  0  0  0  0  0  0  0  0  0  0  0
   43.7500   36.8460   45.0360 H   0  0  0  0  0  0  0  0  0  0  0  0
   44.9260   36.7220   42.8130 H   0  0  0  0  0  0  0  0  0  0  0  0
   46.6890   34.7480   42.1090 C   0  0  0  0  0  0  0  0  0  0  0  0
   47.9210   35.3170   41.8740 C   0  0  0  0  0  0  0  0  0  0  0  0
   48.6380   35.1590   40.7030 C   0  0  0  0  0  0  0  0  0  0  0  0
   49.6050   35.6190   40.5480 H   0  0  0  0  0  0  0  0  0  0  0  0
   48.0870   34.3890   39.7190 N   0  0  0  0  0  0  0  0  0  0  0  0
   46.8730   33.8270   39.9480 C   0  0  0  0  0  0  0  0  0  0  0  0
   46.2120   34.0020   41.0860 N   0  0  0  0  0  0  0  0  0  0  0  0
   45.8390   32.9710   46.4550 C   0  0  0  0  0  0  0  0  0  0  0  0
   45.0260   32.9540   47.5460 F   0  0  0  0  0  0  0  0  0  0  0  0
   47.1660   33.0810   46.8670 F   0  0  0  0  0  0  0  0  0  0  0  0
   45.7950   31.7630   45.7510 F   0  0  0  0  0  0  0  0  0  0  0  0
  1  7  1  0  0  0  0
  1  6  1  0  0  0  0
  2  1  2  0  0  0  0
  3  2  1  0  0  0  0
  3  4  2  0  0  0  0
  4  5  1  0  0  0  0
  5  6  2  0  0  0  0
  5 16  1  0  0  0  0
  8  2  1  0  0  0  0
  9  3  1  0  0  0  0
 10  9  1  0  0  0  0
 11 10  2  0  0  0  0
 12 11  1  0  0  0  0
 13 14  2  0  0  0  0
 13 11  1  0  0  0  0
 14 15  1  0  0  0  0
 15  9  2  0  0  0  0
 16 18  1  0  0  0  0
 16 17  1  0  0  0  0
 19 16  1  0  0  0  0
M  END
>  <minimizedAffinity>
-5.38220692

>  <minimizedRMSD>
0.485885054

$$$$
