
 OpenBabel03242512123D

 39 42  0  0  1  0  0  0  0  0999 V2000
   48.9130   32.0100   43.0890 O   0  0  0  0  0  0  0  0  0  0  0  0
   50.1310   32.3220   42.2340 P   0  0  2  0  0  0  0  0  0  0  0  0
   51.5010   31.6030   42.8120 O   0  0  0  0  0  0  0  0  0  0  0  0
   52.2040   32.2860   42.9450 H   0  0  0  0  0  0  0  0  0  0  0  0
   50.2060   34.0050   42.0830 O   0  0  0  0  0  0  0  0  0  0  0  0
   47.9760   34.5080   41.1600 C   0  0  1  0  0  0  0  0  0  0  0  0
   48.6980   35.8020   41.7090 C   0  0  0  0  0  0  0  0  0  0  0  0
   48.9330   34.5010   42.2930 C   0  0  2  0  0  0  0  0  0  0  0  0
   48.3330   34.2110   40.1800 H   0  0  0  0  0  0  0  0  0  0  0  0
   48.0610   36.5160   42.2660 H   0  0  0  0  0  0  0  0  0  0  0  0
   49.4220   36.2660   41.0160 H   0  0  0  0  0  0  0  0  0  0  0  0
   48.4500   34.0900   43.2010 H   0  0  0  0  0  0  0  0  0  0  0  0
   46.5090   34.5430   41.4340 C   0  0  0  0  0  0  0  0  0  0  0  0
   45.7550   34.3100   40.4990 O   0  0  0  0  0  0  0  0  0  0  0  0
   45.3210   35.9800   43.0290 C   0  0  0  0  0  0  0  0  0  0  0  0
   45.9240   34.8260   42.6970 C   0  0  0  0  0  0  0  0  0  0  0  0
   45.9630   33.8200   43.7190 C   0  0  0  0  0  0  0  0  0  0  0  0
   45.4190   34.0440   44.9370 N   0  0  0  0  0  0  0  0  0  0  0  0
   44.8240   35.2320   45.2090 C   0  0  0  0  0  0  0  0  0  0  0  0
   44.7790   36.1650   44.2780 N   0  0  0  0  0  0  0  0  0  0  0  0
   45.3030   36.7250   42.2380 H   0  0  0  0  0  0  0  0  0  0  0  0
   46.3950   32.8620   43.6100 H   0  0  0  0  0  0  0  0  0  0  0  0
   44.3560   35.5240   46.1410 H   0  0  0  0  0  0  0  0  0  0  0  0
   49.7030   31.6920   40.6700 O   0  0  0  0  0  0  0  0  0  0  0  0
   50.6100   31.5010   39.6450 C   0  0  0  0  0  0  0  0  0  0  0  0
   50.4810   31.8050   38.2940 C   0  0  0  0  0  0  0  0  0  0  0  0
   51.5100   31.5340   37.4350 C   0  0  0  0  0  0  0  0  0  0  0  0
   52.6610   30.9680   37.9030 N   0  0  0  0  0  0  0  0  0  0  0  0
   52.7770   30.6760   39.2140 C   0  0  0  0  0  0  0  0  0  0  0  0
   51.7550   30.9390   40.0960 N   0  0  0  0  0  0  0  0  0  0  0  0
   49.5240   32.2480   38.0530 H   0  0  0  0  0  0  0  0  0  0  0  0
   51.3540   31.7930   36.3860 H   0  0  0  0  0  0  0  0  0  0  0  0
   54.0320   30.0710   39.6550 C   0  0  0  0  0  0  0  0  0  0  0  0
   55.0120   29.6460   38.7830 C   0  0  0  0  0  0  0  0  0  0  0  0
   56.2040   29.0720   39.1820 C   0  0  0  0  0  0  0  0  0  0  0  0
   56.9680   28.7420   38.4900 H   0  0  0  0  0  0  0  0  0  0  0  0
   56.3610   28.9460   40.5320 N   0  0  0  0  0  0  0  0  0  0  0  0
   55.3980   29.3630   41.3890 C   0  0  0  0  0  0  0  0  0  0  0  0
   54.2330   29.9260   40.9550 N   0  0  0  0  0  0  0  0  0  0  0  0
  2  3  1  0  0  0  0
  2  1  2  1  0  0  0
  3  4  1  0  0  0  0
  5  2  1  0  0  0  0
  5  8  1  0  0  0  0
  6  9  1  6  0  0  0
  6 13  1  0  0  0  0
  6  7  1  0  0  0  0
  6  8  1  0  0  0  0
  7 10  1  0  0  0  0
  7  8  1  0  0  0  0
  8 12  1  1  0  0  0
 11  7  1  0  0  0  0
 13 16  1  0  0  0  0
 14 13  2  0  0  0  0
 15 20  1  0  0  0  0
 16 15  2  0  0  0  0
 16 17  1  0  0  0  0
 17 18  2  0  0  0  0
 18 19  1  0  0  0  0
 19 23  1  0  0  0  0
 20 19  2  0  0  0  0
 21 15  1  0  0  0  0
 22 17  1  0  0  0  0
 24  2  1  0  0  0  0
 25 30  1  0  0  0  0
 25 24  1  0  0  0  0
 26 25  2  0  0  0  0
 27 28  2  0  0  0  0
 27 26  1  0  0  0  0
 28 29  1  0  0  0  0
 29 33  1  0  0  0  0
 29 30  2  0  0  0  0
 31 26  1  0  0  0  0
 32 27  1  0  0  0  0
 33 39  1  0  0  0  0
 34 35  1  0  0  0  0
 34 33  2  0  0  0  0
 35 37  2  0  0  0  0
 36 35  1  0  0  0  0
 37 38  1  0  0  0  0
 39 38  2  0  0  0  0
M  END
>  <minimizedAffinity>
-5.25834513

>  <minimizedRMSD>
0.829770505

$$$$
