
     RDKit          3D

 36 38  0  0  0  0  0  0  0  0999 V2000
   46.1639   32.5488   47.0028 C   0  0  0  0  0  0  0  0  0  0  0  0
   45.2371   32.5546   47.9831 C   0  0  0  0  0  0  0  0  0  0  0  0
   45.4244   31.7447   49.0910 C   0  0  0  0  0  0  0  0  0  0  0  0
   46.5596   30.9397   49.1790 C   0  0  0  0  0  0  0  0  0  0  0  0
   47.4923   30.9670   48.1387 C   0  0  0  0  0  0  0  0  0  0  0  0
   47.2554   31.7494   47.1282 N   0  0  0  0  0  0  0  0  0  0  0  0
   44.9723   35.0033   44.5670 C   0  0  0  0  0  0  0  0  0  0  0  0
   45.9239   34.8480   43.5361 C   0  0  0  0  0  0  0  0  0  0  0  0
   46.9684   33.9103   43.6695 C   0  0  0  0  0  0  0  0  0  0  0  0
   46.9705   33.2128   44.8167 N   0  0  0  0  0  0  0  0  0  0  0  0
   46.0667   33.3644   45.7894 C   0  0  0  0  0  0  0  0  0  0  0  0
   45.0724   34.2596   45.6581 N   0  0  0  0  0  0  0  0  0  0  0  0
   43.9408   35.9516   44.3986 N   0  0  0  0  0  0  0  0  0  0  0  0
   48.6799   30.1387   48.2082 C   0  0  0  0  0  0  0  0  0  0  0  0
   49.7839   30.4960   48.8631 C   0  0  0  0  0  0  0  0  0  0  0  0
   49.8915   31.7812   49.5815 C   0  0  0  0  0  0  0  0  0  0  0  0
   44.3998   33.2123   47.8151 H   0  0  0  0  0  0  0  0  0  0  0  0
   44.6584   31.7823   49.8484 H   0  0  0  0  0  0  0  0  0  0  0  0
   46.6864   30.3105   50.0597 H   0  0  0  0  0  0  0  0  0  0  0  0
   45.8448   35.4513   42.6482 H   0  0  0  0  0  0  0  0  0  0  0  0
   47.7044   33.7696   42.9060 H   0  0  0  0  0  0  0  0  0  0  0  0
   43.5491   36.0812   43.4385 H   0  0  0  0  0  0  0  0  0  0  0  0
   43.6034   36.4889   45.2272 H   0  0  0  0  0  0  0  0  0  0  0  0
   48.7882   29.1567   47.7401 H   0  0  0  0  0  0  0  0  0  0  0  0
   50.7159   29.9295   48.9614 H   0  0  0  0  0  0  0  0  0  0  0  0
   48.9472   32.3488   49.3890 H   0  0  0  0  0  0  0  0  0  0  0  0
   50.6728   32.3747   49.0425 H   0  0  0  0  0  0  0  0  0  0  0  0
   50.1520   31.6676   51.0184 C   0  0  0  0  0  0  0  0  0  0  0  0
   49.5106   30.7972   51.8772 C   0  0  0  0  0  0  0  0  0  0  0  0
   49.9106   30.8547   53.1969 C   0  0  0  0  0  0  0  0  0  0  0  0
   49.4259   30.1838   53.8965 H   0  0  0  0  0  0  0  0  0  0  0  0
   50.8558   31.6838   53.6644 N   0  0  0  0  0  0  0  0  0  0  0  0
   51.4591   32.5156   52.8063 C   0  0  0  0  0  0  0  0  0  0  0  0
   51.1009   32.4919   51.5185 N   0  0  0  0  0  0  0  0  0  0  0  0
   48.7603   30.1469   51.4761 H   0  0  0  0  0  0  0  0  0  0  0  0
   52.2284   33.2062   53.1264 H   0  0  0  0  0  0  0  0  0  0  0  0
  1  6  1  0
  1  2  2  0
  2  3  1  0
  3  4  2  0
  5 14  1  0
  5  4  1  0
  6  5  2  0
  7 12  2  0
  8  9  2  0
  8  7  1  0
  9 10  1  0
 10 11  2  0
 11  1  1  0
 12 11  1  0
 13  7  1  0
 14 15  2  0
 15 16  1  0
  2 17  1  0
  3 18  1  0
  4 19  1  0
  8 20  1  0
  9 21  1  0
 13 22  1  0
 13 23  1  0
 14 24  1  0
 15 25  1  0
 16 26  1  0
 16 27  1  0
 28 29  2  0
 29 30  1  0
 30 31  1  0
 30 32  2  0
 32 33  1  0
 33 34  2  0
 34 28  1  0
 29 35  1  0
 33 36  1  0
 16 28  1  0
M  ISO  8  17  14  18  14  19  14  20  14  21  14  26   8  27   8  31  14
M  END
>  <DihAtoms>  (1) 
14,15,27,28

>  <DihDeg>  (1) 
90.00791759704701

$$$$
