
 OpenBabel03252509213D

 23 25  0  0  0  0  0  0  0  0999 V2000
   45.2790   36.0950   43.1410 C   0  0  0  0  0  0  0  0  0  0  0  0
   45.8040   34.7910   42.9360 C   0  0  0  0  0  0  0  0  0  0  0  0
   45.6680   33.9370   44.0090 C   0  0  0  0  0  0  0  0  0  0  0  0
   45.0580   34.3880   45.1650 N   0  0  0  0  0  0  0  0  0  0  0  0
   44.5800   35.6280   45.3080 C   0  0  0  0  0  0  0  0  0  0  0  0
   44.7020   36.4740   44.2760 N   0  0  0  0  0  0  0  0  0  0  0  0
   45.2850   36.9060   42.4380 H   0  0  0  0  0  0  0  0  0  0  0  0
   44.1540   35.7270   46.2980 H   0  0  0  0  0  0  0  0  0  0  0  0
   46.0820   32.4940   43.8710 C   0  0  0  0  0  0  0  0  0  0  0  0
   47.4460   32.2570   44.5340 C   0  0  0  0  0  0  0  0  0  0  0  0
   46.1020   31.6740   45.0690 C   0  0  0  0  0  0  0  0  0  0  0  0
   46.1910   32.1530   42.8170 H   0  0  0  0  0  0  0  0  0  0  0  0
   47.8640   33.0090   45.2120 H   0  0  0  0  0  0  0  0  0  0  0  0
   48.1120   31.4900   44.1510 H   0  0  0  0  0  0  0  0  0  0  0  0
   45.7190   32.0450   46.0190 H   0  0  0  0  0  0  0  0  0  0  0  0
   45.9440   30.5730   44.9070 H   0  0  0  0  0  0  0  0  0  0  0  0
   46.4270   34.4790   41.6640 C   0  0  0  0  0  0  0  0  0  0  0  0
   45.6900   33.8010   40.7230 C   0  0  0  0  0  0  0  0  0  0  0  0
   46.1510   33.4300   39.4800 C   0  0  0  0  0  0  0  0  0  0  0  0
   45.6240   32.9030   38.7090 H   0  0  0  0  0  0  0  0  0  0  0  0
   47.4300   33.7460   39.1280 N   0  0  0  0  0  0  0  0  0  0  0  0
   48.1420   34.4080   40.0540 C   0  0  0  0  0  0  0  0  0  0  0  0
   47.6530   34.7390   41.2330 N   0  0  0  0  0  0  0  0  0  0  0  0
  1  6  1  0  0  0  0
  2  1  2  0  0  0  0
  2  3  1  0  0  0  0
  3  4  2  0  0  0  0
  4  5  1  0  0  0  0
  5  8  1  0  0  0  0
  6  5  2  0  0  0  0
  7  1  1  0  0  0  0
  9  3  1  0  0  0  0
  9 10  1  0  0  0  0
  9 11  1  0  0  0  0
 10 11  1  0  0  0  0
 10 13  1  0  0  0  0
 11 15  1  0  0  0  0
 12  9  1  0  0  0  0
 14 10  1  0  0  0  0
 16 11  1  0  0  0  0
 17  2  1  0  0  0  0
 18 17  2  0  0  0  0
 19 18  1  0  0  0  0
 20 19  1  0  0  0  0
 21 19  2  0  0  0  0
 21 22  1  0  0  0  0
 22 23  2  0  0  0  0
 23 17  1  0  0  0  0
M  END
>  <minimizedAffinity>
-4.23864698

>  <minimizedRMSD>
3.5699048

$$$$
