
     RDKit          3D

 31 33  0  0  0  0  0  0  0  0999 V2000
   43.9539   34.6612   41.4432 C   0  0  0  0  0  0  0  0  0  0  0  0
   42.7419   35.2946   41.1199 C   0  0  0  0  0  0  0  0  0  0  0  0
   42.1613   35.0136   39.8651 C   0  0  0  0  0  0  0  0  0  0  0  0
   42.8188   34.1428   39.0463 N   0  0  0  0  0  0  0  0  0  0  0  0
   44.0001   33.5597   39.4240 C   0  0  0  0  0  0  0  0  0  0  0  0
   44.5607   33.8127   40.6024 N   0  0  0  0  0  0  0  0  0  0  0  0
   44.5526   34.9536   42.7671 C   0  0  0  0  0  0  0  0  0  0  0  0
   46.0599   35.3415   42.6743 C   0  0  0  0  0  0  0  0  0  0  0  0
   44.9864   36.2535   43.1799 C   0  0  0  0  0  0  0  0  0  0  0  0
   40.8981   35.6468   39.4681 C   0  0  0  0  0  0  0  0  0  0  0  0
   40.2541   36.3900   40.6338 C   0  0  0  0  0  0  0  0  0  0  0  0
   42.2953   35.9707   41.8282 H   0  0  0  0  0  0  0  0  0  0  0  0
   44.4058   32.8907   38.6695 H   0  0  0  0  0  0  0  0  0  0  0  0
   44.3654   34.1519   43.5145 H   0  0  0  0  0  0  0  0  0  0  0  0
   46.4770   35.5261   41.6737 H   0  0  0  0  0  0  0  0  0  0  0  0
   46.7209   34.8990   43.4459 H   0  0  0  0  0  0  0  0  0  0  0  0
   44.9847   36.4684   44.2852 H   0  0  0  0  0  0  0  0  0  0  0  0
   44.8423   37.1894   42.6101 H   0  0  0  0  0  0  0  0  0  0  0  0
   40.2263   34.8897   39.0473 H   0  0  0  0  0  0  0  0  0  0  0  0
   41.1393   36.3405   38.6383 H   0  0  0  0  0  0  0  0  0  0  0  0
   40.8246   37.2931   40.8969 H   0  0  0  0  0  0  0  0  0  0  0  0
   39.2796   36.7817   40.2157 H   0  0  0  0  0  0  0  0  0  0  0  0
   39.8900   35.5346   41.7593 C   0  0  0  0  0  0  0  0  0  0  0  0
   40.4101   34.3612   42.2183 C   0  0  0  0  0  0  0  0  0  0  0  0
   39.8899   33.7121   43.3110 C   0  0  0  0  0  0  0  0  0  0  0  0
   40.3412   32.7868   43.6306 H   0  0  0  0  0  0  0  0  0  0  0  0
   38.8343   34.2296   43.9663 N   0  0  0  0  0  0  0  0  0  0  0  0
   38.3185   35.3853   43.5173 C   0  0  0  0  0  0  0  0  0  0  0  0
   38.8186   36.0296   42.4497 N   0  0  0  0  0  0  0  0  0  0  0  0
   41.2350   33.9920   41.6617 H   0  0  0  0  0  0  0  0  0  0  0  0
   37.4748   35.7468   44.0852 H   0  0  0  0  0  0  0  0  0  0  0  0
  1  7  1  0
  2  1  2  0
  3  2  1  0
  4  5  1  0
  4  3  2  0
  5  6  2  0
  6  1  1  0
  7  9  1  0
  8  7  1  0
  8  9  1  0
 10  3  1  0
 10 11  1  0
  2 12  1  0
  5 13  1  0
  7 14  1  0
  8 15  1  0
  8 16  1  0
  9 17  1  0
  9 18  1  0
 10 19  1  0
 10 20  1  0
 11 21  1  0
 11 22  1  0
 23 24  2  0
 24 25  1  0
 25 26  1  0
 25 27  2  0
 27 28  1  0
 28 29  2  0
 29 23  1  0
 24 30  1  0
 28 31  1  0
 11 23  1  0
M  ISO  8  12  14  13  14  14  13  15  13  16  13  17  13  18  13  19   8
M  ISO  4  20   8  21   8  22   8  26  14
M  END
>  <DihAtoms>  (1) 
9,10,22,23

>  <DihDeg>  (1) 
-1.6301705843140397

$$$$
