
     RDKit          3D

 28 30  0  0  0  0  0  0  0  0999 V2000
   45.5265   34.1483   44.4150 C   0  0  0  0  0  0  0  0  0  0  0  0
   46.5061   33.6071   43.5413 C   0  0  0  0  0  0  0  0  0  0  0  0
   47.4026   32.6779   44.0613 C   0  0  0  0  0  0  0  0  0  0  0  0
   47.2910   32.3415   45.3736 N   0  0  0  0  0  0  0  0  0  0  0  0
   46.3408   32.8833   46.1721 C   0  0  0  0  0  0  0  0  0  0  0  0
   45.4580   33.7900   45.6824 N   0  0  0  0  0  0  0  0  0  0  0  0
   46.3942   32.3888   47.5883 C   0  0  0  0  0  0  0  0  0  0  0  0
   45.3947   32.9289   48.3566 F   0  0  0  0  0  0  0  0  0  0  0  0
   47.6225   32.7376   48.1576 F   0  0  0  0  0  0  0  0  0  0  0  0
   46.3641   31.0008   47.5743 F   0  0  0  0  0  0  0  0  0  0  0  0
   44.5692   35.1538   43.8815 C   0  0  1  0  0  0  0  0  0  0  0  0
   44.8744   36.6007   44.3262 C   0  0  0  0  0  0  0  0  0  0  0  0
   44.9739   36.1584   42.8978 C   0  0  2  0  0  0  0  0  0  0  0  0
   46.5467   33.9164   42.4963 H   0  0  0  0  0  0  0  0  0  0  0  0
   48.1557   32.2421   43.4477 H   0  0  0  0  0  0  0  0  0  0  0  0
   43.5071   34.8512   44.0288 H   0  0  0  0  0  0  0  0  0  0  0  0
   44.0076   37.2092   44.6462 H   0  0  0  0  0  0  0  0  0  0  0  0
   45.7897   36.7861   44.8925 H   0  0  0  0  0  0  0  0  0  0  0  0
   45.9962   36.1492   42.4703 H   0  0  0  0  0  0  0  0  0  0  0  0
   43.8732   36.5720   41.9559 C   0  0  0  0  0  0  0  0  0  0  0  0
   43.4059   35.7338   40.9713 C   0  0  0  0  0  0  0  0  0  0  0  0
   42.4033   36.0774   40.0941 C   0  0  0  0  0  0  0  0  0  0  0  0
   42.0360   35.4170   39.3194 H   0  0  0  0  0  0  0  0  0  0  0  0
   41.8591   37.3055   40.2189 N   0  0  0  0  0  0  0  0  0  0  0  0
   42.2999   38.1443   41.1754 C   0  0  0  0  0  0  0  0  0  0  0  0
   43.2906   37.8013   42.0401 N   0  0  0  0  0  0  0  0  0  0  0  0
   43.8316   34.7412   40.8554 H   0  0  0  0  0  0  0  0  0  0  0  0
   41.9686   39.1508   41.4007 H   0  0  0  0  0  0  0  0  0  0  0  0
  1  6  2  0
  2  3  2  0
  2  1  1  0
  3  4  1  0
  4  5  2  0
  5  7  1  0
  6  5  1  0
  7  9  1  0
  7  8  1  0
 10  7  1  0
 11 12  1  0
 11  1  1  0
 13 11  1  0
 13 12  1  0
  2 14  1  0
  3 15  1  0
 11 16  1  6
 12 17  1  0
 12 18  1  0
 13 19  1  6
 20 21  2  0
 21 22  1  0
 22 23  1  0
 22 24  2  0
 24 25  1  0
 25 26  2  0
 26 20  1  0
 21 27  1  0
 25 28  1  0
 13 20  1  0
M  ISO  7  14  14  15  14  16  13  17  13  18  13  19  13  23  14
M  END
>  <DihAtoms>  (1) 
10,12,19,20

>  <DihDeg>  (1) 
33.50805652639573

$$$$
