
 OpenBabel03252502353D

 38 40  0  0  1  0  0  0  0  0999 V2000
   37.4570   28.1520   40.8460 C   0  0  2  0  0  0  0  0  0  0  0  0
   36.9820   26.8550   41.4700 C   0  0  0  0  0  0  0  0  0  0  0  0
   37.8610   26.6780   42.7110 C   0  0  0  0  0  0  0  0  0  0  0  0
   37.3160   27.7000   43.6800 C   0  0  0  0  0  0  0  0  0  0  0  0
   37.5150   29.0670   43.1470 C   0  0  0  0  0  0  0  0  0  0  0  0
   37.1030   29.3070   41.7250 C   0  0  1  0  0  0  0  0  0  0  0  0
   38.5730   28.0240   40.7560 H   0  0  0  0  0  0  0  0  0  0  0  0
   35.9350   27.0140   41.8120 H   0  0  0  0  0  0  0  0  0  0  0  0
   37.0770   25.9980   40.7920 H   0  0  0  0  0  0  0  0  0  0  0  0
   38.9200   26.8010   42.4880 H   0  0  0  0  0  0  0  0  0  0  0  0
   37.6010   25.6680   43.0980 H   0  0  0  0  0  0  0  0  0  0  0  0
   36.2700   27.4550   43.9040 H   0  0  0  0  0  0  0  0  0  0  0  0
   37.9280   27.6080   44.5990 H   0  0  0  0  0  0  0  0  0  0  0  0
   38.6150   29.2960   43.1860 H   0  0  0  0  0  0  0  0  0  0  0  0
   37.0320   29.8230   43.8040 H   0  0  0  0  0  0  0  0  0  0  0  0
   35.9910   29.3610   41.7260 H   0  0  0  0  0  0  0  0  0  0  0  0
   35.0740   28.4730   37.9620 C   0  0  0  0  0  0  0  0  0  0  0  0
   35.5170   28.4470   39.2970 C   0  0  0  0  0  0  0  0  0  0  0  0
   36.8920   28.2110   39.5090 C   0  0  0  0  0  0  0  0  0  0  0  0
   37.6920   28.0250   38.4170 N   0  0  0  0  0  0  0  0  0  0  0  0
   37.2250   28.0590   37.1680 C   0  0  0  0  0  0  0  0  0  0  0  0
   35.9130   28.2840   36.9350 N   0  0  0  0  0  0  0  0  0  0  0  0
   34.8620   28.5960   40.1390 H   0  0  0  0  0  0  0  0  0  0  0  0
   33.6140   28.7250   37.7580 C   0  0  0  0  0  0  0  0  0  0  0  0
   33.0080   29.1490   38.9260 F   0  0  0  0  0  0  0  0  0  0  0  0
   33.4730   29.6720   36.7360 F   0  0  0  0  0  0  0  0  0  0  0  0
   33.0040   27.5720   37.2770 F   0  0  0  0  0  0  0  0  0  0  0  0
   38.1420   27.8440   36.0100 C   0  0  0  0  0  0  0  0  0  0  0  0
   37.7110   28.5120   34.9070 F   0  0  0  0  0  0  0  0  0  0  0  0
   38.2650   26.4620   35.7460 F   0  0  0  0  0  0  0  0  0  0  0  0
   39.4310   28.2170   36.3120 F   0  0  0  0  0  0  0  0  0  0  0  0
   37.7360   30.5750   41.3350 C   0  0  0  0  0  0  0  0  0  0  0  0
   37.1690   31.6230   40.6350 C   0  0  0  0  0  3  0  0  0  0  0  0
   37.8820   32.7650   40.3330 C   0  0  0  0  0  0  0  0  0  0  0  0
   37.3390   33.5410   39.7720 H   0  0  0  0  0  0  0  0  0  0  0  0
   39.1740   32.8850   40.7230 N   0  0  0  0  0  0  0  0  0  0  0  0
   39.7230   31.8550   41.4080 C   0  0  0  0  0  3  0  0  0  0  0  0
   39.0380   30.7170   41.7180 N   0  0  0  0  0  0  0  0  0  0  0  0
  1  7  1  6  0  0  0
  1  2  1  0  0  0  0
  1  6  1  0  0  0  0
  2  8  1  0  0  0  0
  2  3  1  0  0  0  0
  3 11  1  0  0  0  0
  3  4  1  0  0  0  0
  4 12  1  0  0  0  0
  4 13  1  0  0  0  0
  5 14  1  0  0  0  0
  5  4  1  0  0  0  0
  5 15  1  0  0  0  0
  6 16  1  6  0  0  0
  6  5  1  0  0  0  0
  9  2  1  0  0  0  0
 10  3  1  0  0  0  0
 17 18  1  0  0  0  0
 18 19  2  0  0  0  0
 18 23  1  0  0  0  0
 19  1  1  0  0  0  0
 20 19  1  0  0  0  0
 21 20  2  0  0  0  0
 22 21  1  0  0  0  0
 22 17  2  0  0  0  0
 24 17  1  0  0  0  0
 24 25  1  0  0  0  0
 26 24  1  0  0  0  0
 27 24  1  0  0  0  0
 28 31  1  0  0  0  0
 28 21  1  0  0  0  0
 29 28  1  0  0  0  0
 30 28  1  0  0  0  0
 32 38  1  0  0  0  0
 32  6  1  0  0  0  0
 33 32  2  0  0  0  0
 34 33  1  0  0  0  0
 34 36  2  0  0  0  0
 35 34  1  0  0  0  0
 36 37  1  0  0  0  0
 37 38  2  0  0  0  0
M  END
>  <minimizedAffinity>
-5.90920305

$$$$

 OpenBabel03252502353D

 38 40  0  0  1  0  0  0  0  0999 V2000
   38.4470   31.5780   40.9200 C   0  0  2  0  0  0  0  0  0  0  0  0
   37.7060   32.7160   40.2460 C   0  0  0  0  0  0  0  0  0  0  0  0
   38.4740   33.9750   40.6570 C   0  0  0  0  0  0  0  0  0  0  0  0
   39.7360   33.9050   39.8330 C   0  0  0  0  0  0  0  0  0  0  0  0
   40.5320   32.7170   40.2160 C   0  0  0  0  0  0  0  0  0  0  0  0
   39.7990   31.4110   40.3060 C   0  0  1  0  0  0  0  0  0  0  0  0
   38.5160   31.8930   42.0000 H   0  0  0  0  0  0  0  0  0  0  0  0
   37.8240   32.5870   39.1470 H   0  0  0  0  0  0  0  0  0  0  0  0
   36.6540   32.7770   40.5520 H   0  0  0  0  0  0  0  0  0  0  0  0
   38.6480   34.0200   41.7310 H   0  0  0  0  0  0  0  0  0  0  0  0
   37.8590   34.8180   40.2700 H   0  0  0  0  0  0  0  0  0  0  0  0
   39.4690   33.9410   38.7700 H   0  0  0  0  0  0  0  0  0  0  0  0
   40.3280   34.8040   40.1010 H   0  0  0  0  0  0  0  0  0  0  0  0
   40.9530   32.9000   41.2420 H   0  0  0  0  0  0  0  0  0  0  0  0
   41.4160   32.6000   39.5510 H   0  0  0  0  0  0  0  0  0  0  0  0
   39.6220   31.0780   39.2590 H   0  0  0  0  0  0  0  0  0  0  0  0
   35.9160   29.0520   39.7780 C   0  0  0  0  0  0  0  0  0  0  0  0
   36.7050   30.2160   39.7550 C   0  0  0  0  0  0  0  0  0  0  0  0
   37.5930   30.4070   40.8350 C   0  0  0  0  0  0  0  0  0  0  0  0
   37.6260   29.4600   41.8190 N   0  0  0  0  0  0  0  0  0  0  0  0
   36.8580   28.3700   41.7970 C   0  0  0  0  0  0  0  0  0  0  0  0
   35.9980   28.1610   40.7750 N   0  0  0  0  0  0  0  0  0  0  0  0
   36.6560   30.9460   38.9650 H   0  0  0  0  0  0  0  0  0  0  0  0
   34.9810   28.8670   38.6240 C   0  0  0  0  0  0  0  0  0  0  0  0
   34.9710   27.5560   38.1900 F   0  0  0  0  0  0  0  0  0  0  0  0
   33.7050   29.2830   39.0260 F   0  0  0  0  0  0  0  0  0  0  0  0
   35.3390   29.7270   37.5920 F   0  0  0  0  0  0  0  0  0  0  0  0
   36.9300   27.3690   42.9020 C   0  0  0  0  0  0  0  0  0  0  0  0
   35.8160   27.4110   43.6800 F   0  0  0  0  0  0  0  0  0  0  0  0
   38.0920   27.5890   43.6720 F   0  0  0  0  0  0  0  0  0  0  0  0
   37.1170   26.0960   42.4160 F   0  0  0  0  0  0  0  0  0  0  0  0
   40.6880   30.5060   41.0500 C   0  0  0  0  0  0  0  0  0  0  0  0
   41.1650   30.6600   42.3380 C   0  0  0  0  0  3  0  0  0  0  0  0
   41.9980   29.7260   42.9200 C   0  0  0  0  0  0  0  0  0  0  0  0
   42.3230   29.9420   43.9480 H   0  0  0  0  0  0  0  0  0  0  0  0
   42.3710   28.6210   42.2300 N   0  0  0  0  0  0  0  0  0  0  0  0
   41.9000   28.4770   40.9690 C   0  0  0  0  0  3  0  0  0  0  0  0
   41.0750   29.3860   40.3740 N   0  0  0  0  0  0  0  0  0  0  0  0
  1  7  1  1  0  0  0
  2  9  1  0  0  0  0
  2  3  1  0  0  0  0
  2  1  1  0  0  0  0
  3 10  1  0  0  0  0
  4 13  1  0  0  0  0
  4  5  1  0  0  0  0
  4  3  1  0  0  0  0
  5  6  1  0  0  0  0
  5 14  1  0  0  0  0
  6 16  1  6  0  0  0
  6  1  1  0  0  0  0
  6 32  1  0  0  0  0
  8  2  1  0  0  0  0
 11  3  1  0  0  0  0
 12  4  1  0  0  0  0
 15  5  1  0  0  0  0
 17 22  1  0  0  0  0
 18 17  2  0  0  0  0
 18 19  1  0  0  0  0
 19  1  1  0  0  0  0
 19 20  2  0  0  0  0
 21 20  1  0  0  0  0
 21 28  1  0  0  0  0
 22 21  2  0  0  0  0
 23 18  1  0  0  0  0
 24 26  1  0  0  0  0
 24 17  1  0  0  0  0
 25 24  1  0  0  0  0
 27 24  1  0  0  0  0
 28 30  1  0  0  0  0
 28 29  1  0  0  0  0
 31 28  1  0  0  0  0
 32 33  1  0  0  0  0
 33 34  2  0  0  0  0
 34 35  1  0  0  0  0
 36 34  1  0  0  0  0
 37 36  2  0  0  0  0
 38 37  1  0  0  0  0
 38 32  2  0  0  0  0
M  END
>  <minimizedAffinity>
-5.90606022

$$$$

 OpenBabel03252502353D

 38 40  0  0  1  0  0  0  0  0999 V2000
   36.2100   28.6370   38.2660 C   0  0  2  0  0  0  0  0  0  0  0  0
   35.6890   27.8470   37.0820 C   0  0  0  0  0  0  0  0  0  0  0  0
   35.0360   28.8930   36.1750 C   0  0  0  0  0  0  0  0  0  0  0  0
   36.2120   29.6160   35.5650 C   0  0  0  0  0  0  0  0  0  0  0  0
   36.9850   30.3160   36.6160 C   0  0  0  0  0  0  0  0  0  0  0  0
   37.3360   29.5210   37.8390 C   0  0  1  0  0  0  0  0  0  0  0  0
   35.3200   29.2360   38.6130 H   0  0  0  0  0  0  0  0  0  0  0  0
   36.5710   27.4310   36.5450 H   0  0  0  0  0  0  0  0  0  0  0  0
   34.9700   27.0710   37.3730 H   0  0  0  0  0  0  0  0  0  0  0  0
   34.3510   29.5420   36.7200 H   0  0  0  0  0  0  0  0  0  0  0  0
   34.5440   28.3010   35.3720 H   0  0  0  0  0  0  0  0  0  0  0  0
   36.8010   28.9030   34.9760 H   0  0  0  0  0  0  0  0  0  0  0  0
   35.7830   30.3900   34.8970 H   0  0  0  0  0  0  0  0  0  0  0  0
   36.3660   31.1790   36.9830 H   0  0  0  0  0  0  0  0  0  0  0  0
   37.9070   30.7710   36.1940 H   0  0  0  0  0  0  0  0  0  0  0  0
   38.1650   28.8390   37.5440 H   0  0  0  0  0  0  0  0  0  0  0  0
   37.1250   25.4770   40.0750 C   0  0  0  0  0  0  0  0  0  0  0  0
   36.8160   26.3250   38.9950 C   0  0  0  0  0  0  0  0  0  0  0  0
   36.5490   27.6760   39.3010 C   0  0  0  0  0  0  0  0  0  0  0  0
   36.6080   28.0670   40.6080 N   0  0  0  0  0  0  0  0  0  0  0  0
   36.9060   27.2260   41.6000 C   0  0  0  0  0  0  0  0  0  0  0  0
   37.1660   25.9250   41.3360 N   0  0  0  0  0  0  0  0  0  0  0  0
   36.7770   25.9880   37.9730 H   0  0  0  0  0  0  0  0  0  0  0  0
   37.4050   24.0480   39.7310 C   0  0  0  0  0  0  0  0  0  0  0  0
   37.1460   23.7920   38.3980 F   0  0  0  0  0  0  0  0  0  0  0  0
   38.7400   23.7760   40.0550 F   0  0  0  0  0  0  0  0  0  0  0  0
   36.6510   23.2150   40.5500 F   0  0  0  0  0  0  0  0  0  0  0  0
   36.9500   27.7040   43.0130 C   0  0  0  0  0  0  0  0  0  0  0  0
   35.8100   27.3800   43.6800 F   0  0  0  0  0  0  0  0  0  0  0  0
   37.1720   29.0980   43.0400 F   0  0  0  0  0  0  0  0  0  0  0  0
   38.0440   27.2030   43.6800 F   0  0  0  0  0  0  0  0  0  0  0  0
   37.7420   30.5060   38.8520 C   0  0  0  0  0  0  0  0  0  0  0  0
   36.9770   31.5170   39.4030 C   0  0  0  0  0  3  0  0  0  0  0  0
   37.4860   32.3790   40.3520 C   0  0  0  0  0  0  0  0  0  0  0  0
   36.7960   33.1490   40.7270 H   0  0  0  0  0  0  0  0  0  0  0  0
   38.7680   32.2500   40.7720 N   0  0  0  0  0  0  0  0  0  0  0  0
   39.5120   31.2580   40.2290 C   0  0  0  0  0  3  0  0  0  0  0  0
   39.0300   30.3940   39.2900 N   0  0  0  0  0  0  0  0  0  0  0  0
  1  7  1  1  0  0  0
  1 19  1  0  0  0  0
  2  9  1  0  0  0  0
  2  1  1  0  0  0  0
  3 10  1  0  0  0  0
  3  2  1  0  0  0  0
  4  3  1  0  0  0  0
  4  5  1  0  0  0  0
  5 14  1  0  0  0  0
  5  6  1  0  0  0  0
  6 16  1  6  0  0  0
  6  1  1  0  0  0  0
  6 32  1  0  0  0  0
  8  2  1  0  0  0  0
 11  3  1  0  0  0  0
 12  4  1  0  0  0  0
 13  4  1  0  0  0  0
 15  5  1  0  0  0  0
 17 22  1  0  0  0  0
 18 19  1  0  0  0  0
 18 17  2  0  0  0  0
 19 20  2  0  0  0  0
 20 21  1  0  0  0  0
 21 28  1  0  0  0  0
 22 21  2  0  0  0  0
 23 18  1  0  0  0  0
 24 26  1  0  0  0  0
 24 17  1  0  0  0  0
 24 27  1  0  0  0  0
 25 24  1  0  0  0  0
 28 30  1  0  0  0  0
 28 31  1  0  0  0  0
 28 29  1  0  0  0  0
 32 38  2  0  0  0  0
 32 33  1  0  0  0  0
 33 34  2  0  0  0  0
 34 35  1  0  0  0  0
 34 36  1  0  0  0  0
 37 36  2  0  0  0  0
 38 37  1  0  0  0  0
M  END
>  <minimizedAffinity>
-5.79597521

$$$$

 OpenBabel03252502353D

 38 40  0  0  1  0  0  0  0  0999 V2000
   36.8080   29.3770   38.8350 C   0  0  2  0  0  0  0  0  0  0  0  0
   35.9000   29.8550   37.7190 C   0  0  0  0  0  0  0  0  0  0  0  0
   34.7740   28.8190   37.6650 C   0  0  0  0  0  0  0  0  0  0  0  0
   33.9450   29.1320   38.8870 C   0  0  0  0  0  0  0  0  0  0  0  0
   34.7400   28.9060   40.1160 C   0  0  0  0  0  0  0  0  0  0  0  0
   36.1150   29.5050   40.1520 C   0  0  1  0  0  0  0  0  0  0  0  0
   37.0190   28.3000   38.5790 H   0  0  0  0  0  0  0  0  0  0  0  0
   35.4570   30.8240   38.0420 H   0  0  0  0  0  0  0  0  0  0  0  0
   36.4170   29.9290   36.7540 H   0  0  0  0  0  0  0  0  0  0  0  0
   35.1540   27.7980   37.6380 H   0  0  0  0  0  0  0  0  0  0  0  0
   34.1790   29.0970   36.7680 H   0  0  0  0  0  0  0  0  0  0  0  0
   33.5440   30.1480   38.7930 H   0  0  0  0  0  0  0  0  0  0  0  0
   33.1140   28.3990   38.8890 H   0  0  0  0  0  0  0  0  0  0  0  0
   34.8890   27.7990   40.2320 H   0  0  0  0  0  0  0  0  0  0  0  0
   34.1740   29.2250   41.0180 H   0  0  0  0  0  0  0  0  0  0  0  0
   35.9780   30.5970   40.3210 H   0  0  0  0  0  0  0  0  0  0  0  0
   40.3230   30.4110   38.0160 C   0  0  0  0  0  0  0  0  0  0  0  0
   39.1720   29.6030   38.0550 C   0  0  0  0  0  0  0  0  0  0  0  0
   38.0460   30.1280   38.7240 C   0  0  0  0  0  0  0  0  0  0  0  0
   38.1480   31.3710   39.2830 N   0  0  0  0  0  0  0  0  0  0  0  0
   39.2620   32.1010   39.2190 C   0  0  0  0  0  0  0  0  0  0  0  0
   40.3560   31.6230   38.5840 N   0  0  0  0  0  0  0  0  0  0  0  0
   39.1210   28.6260   37.6060 H   0  0  0  0  0  0  0  0  0  0  0  0
   41.5060   29.8360   37.3020 C   0  0  0  0  0  0  0  0  0  0  0  0
   42.4710   29.4060   38.1930 F   0  0  0  0  0  0  0  0  0  0  0  0
   41.0570   28.7880   36.4890 F   0  0  0  0  0  0  0  0  0  0  0  0
   42.0280   30.7830   36.4270 F   0  0  0  0  0  0  0  0  0  0  0  0
   39.3220   33.4510   39.8520 C   0  0  0  0  0  0  0  0  0  0  0  0
   40.3920   34.1600   39.4050 F   0  0  0  0  0  0  0  0  0  0  0  0
   39.3540   33.3210   41.2570 F   0  0  0  0  0  0  0  0  0  0  0  0
   38.1640   34.1610   39.6340 F   0  0  0  0  0  0  0  0  0  0  0  0
   36.8100   28.8390   41.2630 C   0  0  0  0  0  0  0  0  0  0  0  0
   36.9580   27.4810   41.4750 C   0  0  0  0  0  3  0  0  0  0  0  0
   37.6410   26.9870   42.5680 C   0  0  0  0  0  0  0  0  0  0  0  0
   37.7020   25.8910   42.6450 H   0  0  0  0  0  0  0  0  0  0  0  0
   38.1910   27.8360   43.4700 N   0  0  0  0  0  0  0  0  0  0  0  0
   38.0430   29.1640   43.2560 C   0  0  0  0  0  3  0  0  0  0  0  0
   37.3730   29.6760   42.1840 N   0  0  0  0  0  0  0  0  0  0  0  0
  1  7  1  6  0  0  0
  1  6  1  0  0  0  0
  2  8  1  0  0  0  0
  2  1  1  0  0  0  0
  3  2  1  0  0  0  0
  3  4  1  0  0  0  0
  4 13  1  0  0  0  0
  4  5  1  0  0  0  0
  5  6  1  0  0  0  0
  5 14  1  0  0  0  0
  5 15  1  0  0  0  0
  6 16  1  1  0  0  0
  6 32  1  0  0  0  0
  9  2  1  0  0  0  0
 10  3  1  0  0  0  0
 11  3  1  0  0  0  0
 12  4  1  0  0  0  0
 17 18  2  0  0  0  0
 17 22  1  0  0  0  0
 18 19  1  0  0  0  0
 19  1  1  0  0  0  0
 19 20  2  0  0  0  0
 21 20  1  0  0  0  0
 21 28  1  0  0  0  0
 22 21  2  0  0  0  0
 23 18  1  0  0  0  0
 24 17  1  0  0  0  0
 24 25  1  0  0  0  0
 26 24  1  0  0  0  0
 27 24  1  0  0  0  0
 28 30  1  0  0  0  0
 29 28  1  0  0  0  0
 31 28  1  0  0  0  0
 32 33  2  0  0  0  0
 32 38  1  0  0  0  0
 33 34  1  0  0  0  0
 34 35  1  0  0  0  0
 34 36  2  0  0  0  0
 37 36  1  0  0  0  0
 38 37  2  0  0  0  0
M  END
>  <minimizedAffinity>
-5.78369713

$$$$

 OpenBabel03252502353D

 38 40  0  0  1  0  0  0  0  0999 V2000
   36.8720   29.3780   38.8710 C   0  0  2  0  0  0  0  0  0  0  0  0
   35.9610   29.8820   37.7690 C   0  0  0  0  0  0  0  0  0  0  0  0
   34.8240   28.8590   37.7090 C   0  0  0  0  0  0  0  0  0  0  0  0
   34.0080   29.1640   38.9420 C   0  0  0  0  0  0  0  0  0  0  0  0
   34.8090   28.9120   40.1610 C   0  0  0  0  0  0  0  0  0  0  0  0
   36.1910   29.4950   40.1950 C   0  0  1  0  0  0  0  0  0  0  0  0
   37.0690   28.3020   38.5980 H   0  0  0  0  0  0  0  0  0  0  0  0
   35.5320   30.8510   38.1090 H   0  0  0  0  0  0  0  0  0  0  0  0
   36.4720   29.9640   36.8010 H   0  0  0  0  0  0  0  0  0  0  0  0
   35.1920   27.8350   37.6640 H   0  0  0  0  0  0  0  0  0  0  0  0
   34.2250   29.1570   36.8200 H   0  0  0  0  0  0  0  0  0  0  0  0
   33.6170   30.1860   38.8650 H   0  0  0  0  0  0  0  0  0  0  0  0
   33.1670   28.4410   38.9390 H   0  0  0  0  0  0  0  0  0  0  0  0
   34.9460   27.8010   40.2600 H   0  0  0  0  0  0  0  0  0  0  0  0
   34.2530   29.2240   41.0720 H   0  0  0  0  0  0  0  0  0  0  0  0
   36.0670   30.5850   40.3810 H   0  0  0  0  0  0  0  0  0  0  0  0
   39.5040   32.0430   39.1220 C   0  0  0  0  0  0  0  0  0  0  0  0
   38.2570   31.4150   39.2930 C   0  0  0  0  0  0  0  0  0  0  0  0
   38.1180   30.1160   38.7610 C   0  0  0  0  0  0  0  0  0  0  0  0
   39.1910   29.5600   38.1230 N   0  0  0  0  0  0  0  0  0  0  0  0
   40.3560   30.1950   37.9860 C   0  0  0  0  0  0  0  0  0  0  0  0
   40.5170   31.4410   38.4850 N   0  0  0  0  0  0  0  0  0  0  0  0
   37.4280   31.8790   39.8010 H   0  0  0  0  0  0  0  0  0  0  0  0
   39.6320   33.4200   39.6920 C   0  0  0  0  0  0  0  0  0  0  0  0
   38.4060   34.0550   39.7550 F   0  0  0  0  0  0  0  0  0  0  0  0
   40.2180   33.3140   40.9600 F   0  0  0  0  0  0  0  0  0  0  0  0
   40.5320   34.1590   38.9320 F   0  0  0  0  0  0  0  0  0  0  0  0
   41.4950   29.5450   37.2740 C   0  0  0  0  0  0  0  0  0  0  0  0
   42.4140   29.0610   38.1510 F   0  0  0  0  0  0  0  0  0  0  0  0
   42.0860   30.4620   36.3780 F   0  0  0  0  0  0  0  0  0  0  0  0
   41.0610   28.5380   36.4440 F   0  0  0  0  0  0  0  0  0  0  0  0
   36.8870   28.8050   41.2910 C   0  0  0  0  0  0  0  0  0  0  0  0
   37.0980   27.4460   41.4360 C   0  0  0  0  0  3  0  0  0  0  0  0
   37.7730   26.9280   42.5220 C   0  0  0  0  0  0  0  0  0  0  0  0
   37.8880   25.8340   42.5430 H   0  0  0  0  0  0  0  0  0  0  0  0
   38.2510   27.7530   43.4850 N   0  0  0  0  0  0  0  0  0  0  0  0
   38.0410   29.0820   43.3370 C   0  0  0  0  0  3  0  0  0  0  0  0
   37.3780   29.6170   42.2720 N   0  0  0  0  0  0  0  0  0  0  0  0
  1  7  1  6  0  0  0
  1  6  1  0  0  0  0
  2  8  1  0  0  0  0
  2  1  1  0  0  0  0
  3  2  1  0  0  0  0
  3  4  1  0  0  0  0
  4  5  1  0  0  0  0
  5  6  1  0  0  0  0
  5 14  1  0  0  0  0
  5 15  1  0  0  0  0
  6 16  1  1  0  0  0
  6 32  1  0  0  0  0
  9  2  1  0  0  0  0
 10  3  1  0  0  0  0
 11  3  1  0  0  0  0
 12  4  1  0  0  0  0
 13  4  1  0  0  0  0
 17 18  1  0  0  0  0
 17 24  1  0  0  0  0
 18 23  1  0  0  0  0
 19  1  1  0  0  0  0
 19 18  2  0  0  0  0
 20 19  1  0  0  0  0
 21 20  2  0  0  0  0
 21 22  1  0  0  0  0
 22 17  2  0  0  0  0
 24 25  1  0  0  0  0
 24 26  1  0  0  0  0
 27 24  1  0  0  0  0
 28 21  1  0  0  0  0
 28 29  1  0  0  0  0
 30 28  1  0  0  0  0
 31 28  1  0  0  0  0
 32 33  2  0  0  0  0
 32 38  1  0  0  0  0
 33 34  1  0  0  0  0
 34 35  1  0  0  0  0
 34 36  2  0  0  0  0
 37 36  1  0  0  0  0
 38 37  2  0  0  0  0
M  END
>  <minimizedAffinity>
-5.72500181

$$$$

 OpenBabel03252502353D

 38 40  0  0  1  0  0  0  0  0999 V2000
   36.9030   27.9310   41.3430 C   0  0  2  0  0  0  0  0  0  0  0  0
   37.3230   29.0070   42.3250 C   0  0  0  0  0  0  0  0  0  0  0  0
   37.3740   28.2970   43.6800 C   0  0  0  0  0  0  0  0  0  0  0  0
   38.6260   27.4580   43.5940 C   0  0  0  0  0  0  0  0  0  0  0  0
   38.4860   26.4390   42.5290 C   0  0  0  0  0  0  0  0  0  0  0  0
   37.9900   26.9160   41.1960 C   0  0  1  0  0  0  0  0  0  0  0  0
   35.9760   27.4840   41.8020 H   0  0  0  0  0  0  0  0  0  0  0  0
   38.3600   29.3130   42.0600 H   0  0  0  0  0  0  0  0  0  0  0  0
   36.6280   29.8550   42.3470 H   0  0  0  0  0  0  0  0  0  0  0  0
   36.4690   27.7230   43.8790 H   0  0  0  0  0  0  0  0  0  0  0  0
   37.5570   29.1100   44.4160 H   0  0  0  0  0  0  0  0  0  0  0  0
   39.4900   28.1210   43.4690 H   0  0  0  0  0  0  0  0  0  0  0  0
   38.7010   26.9210   44.5610 H   0  0  0  0  0  0  0  0  0  0  0  0
   37.7370   25.6770   42.8760 H   0  0  0  0  0  0  0  0  0  0  0  0
   39.4360   25.8780   42.3890 H   0  0  0  0  0  0  0  0  0  0  0  0
   38.8410   27.4470   40.7150 H   0  0  0  0  0  0  0  0  0  0  0  0
   35.0550   29.0230   38.2620 C   0  0  0  0  0  0  0  0  0  0  0  0
   35.3130   28.3200   39.4540 C   0  0  0  0  0  0  0  0  0  0  0  0
   36.5290   28.6040   40.1110 C   0  0  0  0  0  0  0  0  0  0  0  0
   37.3640   29.5300   39.5540 N   0  0  0  0  0  0  0  0  0  0  0  0
   37.0760   30.1720   38.4210 C   0  0  0  0  0  0  0  0  0  0  0  0
   35.9180   29.9200   37.7700 N   0  0  0  0  0  0  0  0  0  0  0  0
   34.6350   27.5950   39.8700 H   0  0  0  0  0  0  0  0  0  0  0  0
   33.7610   28.7080   37.5800 C   0  0  0  0  0  0  0  0  0  0  0  0
   33.6000   27.3460   37.4100 F   0  0  0  0  0  0  0  0  0  0  0  0
   32.7220   29.2550   38.3440 F   0  0  0  0  0  0  0  0  0  0  0  0
   33.7050   29.3690   36.3580 F   0  0  0  0  0  0  0  0  0  0  0  0
   38.0270   31.1700   37.8510 C   0  0  0  0  0  0  0  0  0  0  0  0
   37.5970   31.6320   36.6470 F   0  0  0  0  0  0  0  0  0  0  0  0
   39.3140   30.5980   37.7420 F   0  0  0  0  0  0  0  0  0  0  0  0
   38.2290   32.2220   38.7140 F   0  0  0  0  0  0  0  0  0  0  0  0
   37.5850   25.7070   40.4650 C   0  0  0  0  0  0  0  0  0  0  0  0
   36.7290   24.7080   40.8890 C   0  0  0  0  0  3  0  0  0  0  0  0
   36.4330   23.6190   40.0960 C   0  0  0  0  0  0  0  0  0  0  0  0
   35.7410   22.8800   40.5260 H   0  0  0  0  0  0  0  0  0  0  0  0
   36.9840   23.5030   38.8630 N   0  0  0  0  0  0  0  0  0  0  0  0
   37.8210   24.4840   38.4530 C   0  0  0  0  0  3  0  0  0  0  0  0
   38.1280   25.5700   39.2190 N   0  0  0  0  0  0  0  0  0  0  0  0
  1  7  1  1  0  0  0
  1  2  1  0  0  0  0
  2  9  1  0  0  0  0
  2  3  1  0  0  0  0
  3 10  1  0  0  0  0
  3 11  1  0  0  0  0
  4  3  1  0  0  0  0
  4 13  1  0  0  0  0
  5 14  1  0  0  0  0
  5  4  1  0  0  0  0
  6 16  1  6  0  0  0
  6  1  1  0  0  0  0
  6  5  1  0  0  0  0
  8  2  1  0  0  0  0
 12  4  1  0  0  0  0
 15  5  1  0  0  0  0
 17 18  1  0  0  0  0
 18 23  1  0  0  0  0
 18 19  2  0  0  0  0
 19  1  1  0  0  0  0
 20 19  1  0  0  0  0
 21 20  2  0  0  0  0
 22 17  2  0  0  0  0
 22 21  1  0  0  0  0
 24 17  1  0  0  0  0
 24 26  1  0  0  0  0
 25 24  1  0  0  0  0
 27 24  1  0  0  0  0
 28 21  1  0  0  0  0
 28 31  1  0  0  0  0
 29 28  1  0  0  0  0
 30 28  1  0  0  0  0
 32 33  1  0  0  0  0
 32  6  1  0  0  0  0
 34 35  1  0  0  0  0
 34 33  2  0  0  0  0
 36 34  1  0  0  0  0
 37 36  2  0  0  0  0
 37 38  1  0  0  0  0
 38 32  2  0  0  0  0
M  END
>  <minimizedAffinity>
-5.69894457

$$$$

 OpenBabel03252502353D

 38 40  0  0  1  0  0  0  0  0999 V2000
   36.9200   27.9410   41.3270 C   0  0  2  0  0  0  0  0  0  0  0  0
   37.3470   28.9980   42.3270 C   0  0  0  0  0  0  0  0  0  0  0  0
   37.3290   28.2800   43.6800 C   0  0  0  0  0  0  0  0  0  0  0  0
   38.5530   27.3980   43.6290 C   0  0  0  0  0  0  0  0  0  0  0  0
   38.4120   26.3890   42.5540 C   0  0  0  0  0  0  0  0  0  0  0  0
   37.9750   26.8890   41.2090 C   0  0  1  0  0  0  0  0  0  0  0  0
   35.9640   27.5250   41.7540 H   0  0  0  0  0  0  0  0  0  0  0  0
   38.4020   29.2670   42.0970 H   0  0  0  0  0  0  0  0  0  0  0  0
   36.6810   29.8690   42.3330 H   0  0  0  0  0  0  0  0  0  0  0  0
   36.3990   27.7380   43.8470 H   0  0  0  0  0  0  0  0  0  0  0  0
   37.5170   29.0830   44.4260 H   0  0  0  0  0  0  0  0  0  0  0  0
   39.4430   28.0310   43.5350 H   0  0  0  0  0  0  0  0  0  0  0  0
   38.5790   26.8540   44.5950 H   0  0  0  0  0  0  0  0  0  0  0  0
   37.6260   25.6520   42.8730 H   0  0  0  0  0  0  0  0  0  0  0  0
   39.3460   25.7960   42.4420 H   0  0  0  0  0  0  0  0  0  0  0  0
   38.8590   27.3920   40.7580 H   0  0  0  0  0  0  0  0  0  0  0  0
   37.0780   30.2110   38.3410 C   0  0  0  0  0  0  0  0  0  0  0  0
   37.4820   29.5950   39.5390 C   0  0  0  0  0  0  0  0  0  0  0  0
   36.6090   28.6320   40.0880 C   0  0  0  0  0  0  0  0  0  0  0  0
   35.4440   28.3650   39.4270 N   0  0  0  0  0  0  0  0  0  0  0  0
   35.1030   28.9750   38.2910 C   0  0  0  0  0  0  0  0  0  0  0  0
   35.9210   29.9020   37.7430 N   0  0  0  0  0  0  0  0  0  0  0  0
   38.4080   29.8260   40.0390 H   0  0  0  0  0  0  0  0  0  0  0  0
   38.0170   31.2290   37.7750 C   0  0  0  0  0  0  0  0  0  0  0  0
   39.2780   30.6970   37.5810 F   0  0  0  0  0  0  0  0  0  0  0  0
   37.4730   31.7050   36.5750 F   0  0  0  0  0  0  0  0  0  0  0  0
   38.0720   32.3330   38.6170 F   0  0  0  0  0  0  0  0  0  0  0  0
   33.8150   28.6510   37.6130 C   0  0  0  0  0  0  0  0  0  0  0  0
   33.6380   27.3070   37.5040 F   0  0  0  0  0  0  0  0  0  0  0  0
   33.7710   29.2690   36.3440 F   0  0  0  0  0  0  0  0  0  0  0  0
   32.7440   29.2140   38.2680 F   0  0  0  0  0  0  0  0  0  0  0  0
   37.5520   25.6980   40.4590 C   0  0  0  0  0  0  0  0  0  0  0  0
   36.6410   24.7340   40.8460 C   0  0  0  0  0  3  0  0  0  0  0  0
   36.3330   23.6580   40.0380 C   0  0  0  0  0  0  0  0  0  0  0  0
   35.5950   22.9470   40.4390 H   0  0  0  0  0  0  0  0  0  0  0  0
   36.9280   23.5230   38.8280 N   0  0  0  0  0  0  0  0  0  0  0  0
   37.8190   24.4700   38.4550 C   0  0  0  0  0  3  0  0  0  0  0  0
   38.1380   25.5420   39.2360 N   0  0  0  0  0  0  0  0  0  0  0  0
  1  7  1  1  0  0  0
  1  2  1  0  0  0  0
  2  9  1  0  0  0  0
  2  3  1  0  0  0  0
  3 10  1  0  0  0  0
  3 11  1  0  0  0  0
  4  3  1  0  0  0  0
  4 13  1  0  0  0  0
  5 14  1  0  0  0  0
  5  4  1  0  0  0  0
  6 16  1  6  0  0  0
  6  1  1  0  0  0  0
  6  5  1  0  0  0  0
  8  2  1  0  0  0  0
 12  4  1  0  0  0  0
 15  5  1  0  0  0  0
 17 18  1  0  0  0  0
 18 23  1  0  0  0  0
 18 19  2  0  0  0  0
 19  1  1  0  0  0  0
 20 19  1  0  0  0  0
 21 20  2  0  0  0  0
 22 21  1  0  0  0  0
 22 17  2  0  0  0  0
 24 17  1  0  0  0  0
 24 27  1  0  0  0  0
 25 24  1  0  0  0  0
 26 24  1  0  0  0  0
 28 31  1  0  0  0  0
 28 21  1  0  0  0  0
 29 28  1  0  0  0  0
 30 28  1  0  0  0  0
 32 33  1  0  0  0  0
 32  6  1  0  0  0  0
 34 35  1  0  0  0  0
 34 33  2  0  0  0  0
 36 34  1  0  0  0  0
 37 36  2  0  0  0  0
 37 38  1  0  0  0  0
 38 32  2  0  0  0  0
M  END
>  <minimizedAffinity>
-5.69550323

$$$$

 OpenBabel03252502353D

 38 40  0  0  1  0  0  0  0  0999 V2000
   35.5890   28.4690   38.3040 C   0  0  2  0  0  0  0  0  0  0  0  0
   34.5670   27.5900   37.6100 C   0  0  0  0  0  0  0  0  0  0  0  0
   33.7270   28.5590   36.7750 C   0  0  0  0  0  0  0  0  0  0  0  0
   34.6400   28.9260   35.6310 C   0  0  0  0  0  0  0  0  0  0  0  0
   35.8310   29.6450   36.1370 C   0  0  0  0  0  0  0  0  0  0  0  0
   36.5460   29.0330   37.3050 C   0  0  1  0  0  0  0  0  0  0  0  0
   34.9740   29.2770   38.7930 H   0  0  0  0  0  0  0  0  0  0  0  0
   35.1200   26.9260   36.9090 H   0  0  0  0  0  0  0  0  0  0  0  0
   33.9410   27.0300   38.3160 H   0  0  0  0  0  0  0  0  0  0  0  0
   33.3820   29.4140   37.3570 H   0  0  0  0  0  0  0  0  0  0  0  0
   32.9010   27.9350   36.3680 H   0  0  0  0  0  0  0  0  0  0  0  0
   34.8730   28.0190   35.0590 H   0  0  0  0  0  0  0  0  0  0  0  0
   34.0680   29.6330   34.9970 H   0  0  0  0  0  0  0  0  0  0  0  0
   35.4990   30.6610   36.4840 H   0  0  0  0  0  0  0  0  0  0  0  0
   36.5580   29.8350   35.3170 H   0  0  0  0  0  0  0  0  0  0  0  0
   37.1170   28.1650   36.9040 H   0  0  0  0  0  0  0  0  0  0  0  0
   36.9140   27.2660   41.6050 C   0  0  0  0  0  0  0  0  0  0  0  0
   36.2920   28.1220   40.6780 C   0  0  0  0  0  0  0  0  0  0  0  0
   36.2020   27.6640   39.3460 C   0  0  0  0  0  0  0  0  0  0  0  0
   36.7200   26.4350   39.0490 N   0  0  0  0  0  0  0  0  0  0  0  0
   37.3010   25.6580   39.9640 C   0  0  0  0  0  0  0  0  0  0  0  0
   37.4010   26.0710   41.2470 N   0  0  0  0  0  0  0  0  0  0  0  0
   35.8940   29.0870   40.9420 H   0  0  0  0  0  0  0  0  0  0  0  0
   36.9990   27.7690   43.0110 C   0  0  0  0  0  0  0  0  0  0  0  0
   37.1850   29.1380   43.0460 F   0  0  0  0  0  0  0  0  0  0  0  0
   35.8270   27.3950   43.6800 F   0  0  0  0  0  0  0  0  0  0  0  0
   38.0280   27.1140   43.6800 F   0  0  0  0  0  0  0  0  0  0  0  0
   37.8560   24.3250   39.5840 C   0  0  0  0  0  0  0  0  0  0  0  0
   36.9340   23.3400   39.7510 F   0  0  0  0  0  0  0  0  0  0  0  0
   39.0200   24.0590   40.3360 F   0  0  0  0  0  0  0  0  0  0  0  0
   38.3170   24.3230   38.2880 F   0  0  0  0  0  0  0  0  0  0  0  0
   37.4170   30.0900   37.8380 C   0  0  0  0  0  0  0  0  0  0  0  0
   37.0380   31.2500   38.4880 C   0  0  0  0  0  3  0  0  0  0  0  0
   37.9650   32.1650   38.9420 C   0  0  0  0  0  0  0  0  0  0  0  0
   37.5610   33.0550   39.4450 H   0  0  0  0  0  0  0  0  0  0  0  0
   39.2890   31.9420   38.7570 N   0  0  0  0  0  0  0  0  0  0  0  0
   39.6540   30.8050   38.1210 C   0  0  0  0  0  3  0  0  0  0  0  0
   38.7550   29.8860   37.6640 N   0  0  0  0  0  0  0  0  0  0  0  0
  1  7  1  1  0  0  0
  1 19  1  0  0  0  0
  2  1  1  0  0  0  0
  2  9  1  0  0  0  0
  3 10  1  0  0  0  0
  3  2  1  0  0  0  0
  4  5  1  0  0  0  0
  4  3  1  0  0  0  0
  5 14  1  0  0  0  0
  5  6  1  0  0  0  0
  6 16  1  6  0  0  0
  6 32  1  0  0  0  0
  6  1  1  0  0  0  0
  8  2  1  0  0  0  0
 11  3  1  0  0  0  0
 12  4  1  0  0  0  0
 13  4  1  0  0  0  0
 15  5  1  0  0  0  0
 17 24  1  0  0  0  0
 18 23  1  0  0  0  0
 18 17  2  0  0  0  0
 19 18  1  0  0  0  0
 20 19  2  0  0  0  0
 20 21  1  0  0  0  0
 21 22  2  0  0  0  0
 22 17  1  0  0  0  0
 24 25  1  0  0  0  0
 24 26  1  0  0  0  0
 24 27  1  0  0  0  0
 28 29  1  0  0  0  0
 28 21  1  0  0  0  0
 28 30  1  0  0  0  0
 31 28  1  0  0  0  0
 32 33  1  0  0  0  0
 33 34  2  0  0  0  0
 34 35  1  0  0  0  0
 36 34  1  0  0  0  0
 37 36  2  0  0  0  0
 38 32  2  0  0  0  0
 38 37  1  0  0  0  0
M  END
>  <minimizedAffinity>
-5.62445688

$$$$

 OpenBabel03252502353D

 38 40  0  0  1  0  0  0  0  0999 V2000
   37.1950   26.5810   39.8990 C   0  0  2  0  0  0  0  0  0  0  0  0
   36.3650   25.3700   39.5190 C   0  0  0  0  0  0  0  0  0  0  0  0
   37.1030   24.1840   40.1450 C   0  0  0  0  0  0  0  0  0  0  0  0
   36.7970   24.3140   41.6180 C   0  0  0  0  0  0  0  0  0  0  0  0
   37.3740   25.5680   42.1520 C   0  0  0  0  0  0  0  0  0  0  0  0
   37.1110   26.8210   41.3710 C   0  0  1  0  0  0  0  0  0  0  0  0
   38.2420   26.3120   39.5800 H   0  0  0  0  0  0  0  0  0  0  0  0
   35.3810   25.4680   40.0280 H   0  0  0  0  0  0  0  0  0  0  0  0
   36.2670   25.2470   38.4330 H   0  0  0  0  0  0  0  0  0  0  0  0
   38.1680   24.1910   39.9130 H   0  0  0  0  0  0  0  0  0  0  0  0
   36.5690   23.2870   39.7620 H   0  0  0  0  0  0  0  0  0  0  0  0
   35.7140   24.2210   41.7650 H   0  0  0  0  0  0  0  0  0  0  0  0
   37.3170   23.4700   42.1140 H   0  0  0  0  0  0  0  0  0  0  0  0
   38.4920   25.4530   42.1720 H   0  0  0  0  0  0  0  0  0  0  0  0
   37.0740   25.7230   43.2110 H   0  0  0  0  0  0  0  0  0  0  0  0
   36.0540   27.1030   41.5750 H   0  0  0  0  0  0  0  0  0  0  0  0
   37.0280   29.7850   37.9470 C   0  0  0  0  0  0  0  0  0  0  0  0
   37.5800   28.7630   38.7410 C   0  0  0  0  0  0  0  0  0  0  0  0
   36.7330   27.6860   39.0760 C   0  0  0  0  0  0  0  0  0  0  0  0
   35.4480   27.7060   38.6120 N   0  0  0  0  0  0  0  0  0  0  0  0
   34.9680   28.6980   37.8610 C   0  0  0  0  0  0  0  0  0  0  0  0
   35.7570   29.7430   37.5250 N   0  0  0  0  0  0  0  0  0  0  0  0
   38.5980   28.7750   39.0930 H   0  0  0  0  0  0  0  0  0  0  0  0
   37.9420   30.9180   37.6030 C   0  0  0  0  0  0  0  0  0  0  0  0
   37.5350   31.5590   36.4480 F   0  0  0  0  0  0  0  0  0  0  0  0
   37.9740   31.7980   38.6920 F   0  0  0  0  0  0  0  0  0  0  0  0
   39.2430   30.4450   37.4730 F   0  0  0  0  0  0  0  0  0  0  0  0
   33.5540   28.6730   37.3860 C   0  0  0  0  0  0  0  0  0  0  0  0
   33.1580   27.4100   37.0760 F   0  0  0  0  0  0  0  0  0  0  0  0
   33.4060   29.5350   36.2770 F   0  0  0  0  0  0  0  0  0  0  0  0
   32.7000   29.2180   38.3170 F   0  0  0  0  0  0  0  0  0  0  0  0
   38.0730   27.8130   41.8720 C   0  0  0  0  0  0  0  0  0  0  0  0
   37.8010   29.0150   42.4970 C   0  0  0  0  0  3  0  0  0  0  0  0
   38.8070   29.8580   42.9220 C   0  0  0  0  0  0  0  0  0  0  0  0
   38.4850   30.7910   43.4070 H   0  0  0  0  0  0  0  0  0  0  0  0
   40.1050   29.5190   42.7330 N   0  0  0  0  0  0  0  0  0  0  0  0
   40.3660   28.3400   42.1210 C   0  0  0  0  0  3  0  0  0  0  0  0
   39.3880   27.4910   41.6930 N   0  0  0  0  0  0  0  0  0  0  0  0
  1  7  1  6  0  0  0
  1  6  1  0  0  0  0
  2  1  1  0  0  0  0
  2  8  1  0  0  0  0
  2  3  1  0  0  0  0
  3  4  1  0  0  0  0
  4 12  1  0  0  0  0
  4 13  1  0  0  0  0
  4  5  1  0  0  0  0
  5 14  1  0  0  0  0
  5 15  1  0  0  0  0
  6 16  1  1  0  0  0
  6 32  1  0  0  0  0
  6  5  1  0  0  0  0
  9  2  1  0  0  0  0
 10  3  1  0  0  0  0
 11  3  1  0  0  0  0
 17 18  1  0  0  0  0
 18 19  2  0  0  0  0
 18 23  1  0  0  0  0
 19  1  1  0  0  0  0
 20 19  1  0  0  0  0
 21 20  2  0  0  0  0
 22 21  1  0  0  0  0
 22 17  2  0  0  0  0
 24 17  1  0  0  0  0
 24 26  1  0  0  0  0
 25 24  1  0  0  0  0
 27 24  1  0  0  0  0
 28 21  1  0  0  0  0
 28 31  1  0  0  0  0
 29 28  1  0  0  0  0
 30 28  1  0  0  0  0
 32 33  1  0  0  0  0
 33 34  2  0  0  0  0
 34 35  1  0  0  0  0
 36 34  1  0  0  0  0
 37 36  2  0  0  0  0
 38 32  2  0  0  0  0
 38 37  1  0  0  0  0
M  END
>  <minimizedAffinity>
-5.60517168

$$$$
