
 OpenBabel03252502383D

 36 38  0  0  1  0  0  0  0  0999 V2000
   46.2110   34.1570   40.6240 C   0  0  1  0  0  0  0  0  0  0  0  0
   45.4820   34.9210   40.2590 H   0  0  0  0  0  0  0  0  0  0  0  0
   45.9720   32.9700   39.8260 N   0  0  0  0  0  0  0  0  0  0  0  0
   44.6500   32.4900   39.8540 C   0  0  0  0  0  0  0  0  0  0  0  0
   44.7330   31.0520   39.2900 C   0  0  0  0  0  0  0  0  0  0  0  0
   44.9670   31.2480   37.8920 N   0  0  0  0  0  0  0  0  0  0  0  0
   46.1140   32.0070   37.5640 C   0  0  0  0  0  0  0  0  0  0  0  0
   46.5820   33.0310   38.5420 C   0  0  0  0  0  0  0  0  0  0  0  0
   44.3460   32.3490   40.9200 H   0  0  0  0  0  0  0  0  0  0  0  0
   43.9130   33.0660   39.2830 H   0  0  0  0  0  0  0  0  0  0  0  0
   43.7090   30.6570   39.4110 H   0  0  0  0  0  0  0  0  0  0  0  0
   45.5280   30.4980   39.7830 H   0  0  0  0  0  0  0  0  0  0  0  0
   44.1280   31.3800   37.3170 H   0  0  0  0  0  0  0  0  0  0  0  0
   45.9140   32.4770   36.5530 H   0  0  0  0  0  0  0  0  0  0  0  0
   46.9350   31.2840   37.3500 H   0  0  0  0  0  0  0  0  0  0  0  0
   46.4090   34.0340   38.1100 H   0  0  0  0  0  0  0  0  0  0  0  0
   47.6910   32.9030   38.6050 H   0  0  0  0  0  0  0  0  0  0  0  0
   45.8130   35.0200   42.9170 C   0  0  0  0  0  0  0  0  0  0  0  0
   46.0480   33.9770   42.0360 C   0  0  0  0  0  0  0  0  0  0  0  0
   46.1300   32.7110   42.6270 C   0  0  0  0  0  0  0  0  0  0  0  0
   45.9820   32.5700   43.9820 N   0  0  0  0  0  0  0  0  0  0  0  0
   45.7560   33.6340   44.7770 C   0  0  0  0  0  0  0  0  0  0  0  0
   45.6700   34.8730   44.2470 N   0  0  0  0  0  0  0  0  0  0  0  0
   45.7440   36.0190   42.4860 H   0  0  0  0  0  0  0  0  0  0  0  0
   46.3080   31.8380   42.0320 H   0  0  0  0  0  0  0  0  0  0  0  0
   45.6650   33.3500   45.8140 H   0  0  0  0  0  0  0  0  0  0  0  0
   47.6220   34.6740   40.3300 C   0  0  0  0  0  0  0  0  0  0  0  0
   47.7960   34.6420   39.2120 H   0  0  0  0  0  0  0  0  0  0  0  0
   47.7070   35.7350   40.6900 H   0  0  0  0  0  0  0  0  0  0  0  0
   48.7050   33.9080   40.9600 C   0  0  0  0  0  0  0  0  0  0  0  0
   49.2610   32.6640   40.9740 C   0  0  0  0  0  3  0  0  0  0  0  0
   50.3190   32.2590   41.7460 C   0  0  0  0  0  0  0  0  0  0  0  0
   50.5850   31.2360   41.5870 H   0  0  0  0  0  0  0  0  0  0  0  0
   50.8610   33.1670   42.5640 N   0  0  0  0  0  0  0  0  0  0  0  0
   50.3660   34.3920   42.5980 C   0  0  0  0  0  3  0  0  0  0  0  0
   49.3400   34.7510   41.8370 N   0  0  0  0  0  0  0  0  0  0  0  0
  1  2  1  6  0  0  0
  1 19  1  0  0  0  0
  3  4  1  0  0  0  0
  3  1  1  0  0  0  0
  4  9  1  0  0  0  0
  5 11  1  0  0  0  0
  5 12  1  0  0  0  0
  5  4  1  0  0  0  0
  6  5  1  0  0  0  0
  7  6  1  0  0  0  0
  7  8  1  0  0  0  0
  8 17  1  0  0  0  0
  8  3  1  0  0  0  0
 10  4  1  0  0  0  0
 13  6  1  0  0  0  0
 14  7  1  0  0  0  0
 15  7  1  0  0  0  0
 16  8  1  0  0  0  0
 18 23  1  0  0  0  0
 19 20  1  0  0  0  0
 19 18  2  0  0  0  0
 20 21  2  0  0  0  0
 21 22  1  0  0  0  0
 22 26  1  0  0  0  0
 23 22  2  0  0  0  0
 24 18  1  0  0  0  0
 25 20  1  0  0  0  0
 27  1  1  0  0  0  0
 27 29  1  0  0  0  0
 27 30  1  0  0  0  0
 28 27  1  0  0  0  0
 30 31  2  0  0  0  0
 30 36  1  0  0  0  0
 31 32  1  0  0  0  0
 32 34  2  0  0  0  0
 33 32  1  0  0  0  0
 34 35  1  0  0  0  0
 36 35  2  0  0  0  0
M  END
>  <minimizedAffinity>
-3.75248122

>  <minimizedRMSD>
2.8802135

$$$$
