
 OpenBabel03252500203D

 18 19  0  0  0  0  0  0  0  0999 V2000
   39.9700   32.8760   40.6910 C   0  0  0  0  0  0  0  0  0  0  0  0
   39.6010   31.6640   41.2920 C   0  0  0  0  0  0  0  0  0  0  0  0
   38.2670   31.2890   41.1660 C   0  0  0  0  0  0  0  0  0  0  0  0
   37.3980   32.0800   40.4870 N   0  0  0  0  0  0  0  0  0  0  0  0
   37.8140   33.2460   39.9240 C   0  0  0  0  0  0  0  0  0  0  0  0
   39.1020   33.6340   40.0310 N   0  0  0  0  0  0  0  0  0  0  0  0
   36.9360   34.0970   39.2080 N   0  0  0  0  0  0  0  0  0  0  0  0
   41.0180   33.1570   40.8000 H   0  0  0  0  0  0  0  0  0  0  0  0
   40.3100   31.0720   41.8170 H   0  0  0  0  0  0  0  0  0  0  0  0
   36.4800   35.0170   39.4470 H   0  0  0  0  0  0  0  0  0  0  0  0
   36.6810   33.7580   38.2550 H   0  0  0  0  0  0  0  0  0  0  0  0
   37.8460   30.0320   41.7810 C   0  0  0  0  0  0  0  0  0  0  0  0
   38.4770   29.5530   42.9110 C   0  0  0  0  0  3  0  0  0  0  0  0
   37.9910   28.3750   43.3840 C   0  0  0  0  0  0  0  0  0  0  0  0
   38.4330   27.9220   44.2770 H   0  0  0  0  0  0  0  0  0  0  0  0
   36.9740   27.6970   42.8190 N   0  0  0  0  0  0  0  0  0  0  0  0
   36.3720   28.1980   41.7030 C   0  0  0  0  0  3  0  0  0  0  0  0
   36.8260   29.3760   41.1940 N   0  0  0  0  0  0  0  0  0  0  0  0
  1  8  1  0  0  0  0
  1  2  1  0  0  0  0
  2  9  1  0  0  0  0
  3  2  2  0  0  0  0
  3 12  1  0  0  0  0
  4  3  1  0  0  0  0
  5  6  1  0  0  0  0
  5  4  2  0  0  0  0
  6  1  2  0  0  0  0
  7 10  1  0  0  0  0
  7  5  1  0  0  0  0
 11  7  1  0  0  0  0
 12 13  1  0  0  0  0
 13 14  2  0  0  0  0
 14 15  1  0  0  0  0
 16 14  1  0  0  0  0
 17 16  2  0  0  0  0
 18 17  1  0  0  0  0
 18 12  2  0  0  0  0
M  END
>  <minimizedAffinity>
-4.41392946

$$$$

 OpenBabel03252500203D

 18 19  0  0  0  0  0  0  0  0999 V2000
   35.9340   28.1220   39.4490 C   0  0  0  0  0  0  0  0  0  0  0  0
   36.8170   27.3030   40.1680 C   0  0  0  0  0  0  0  0  0  0  0  0
   37.3240   27.8260   41.3530 C   0  0  0  0  0  0  0  0  0  0  0  0
   36.9590   29.0680   41.7610 N   0  0  0  0  0  0  0  0  0  0  0  0
   36.0970   29.8170   41.0220 C   0  0  0  0  0  0  0  0  0  0  0  0
   35.5910   29.3340   39.8680 N   0  0  0  0  0  0  0  0  0  0  0  0
   35.6940   31.1170   41.4170 N   0  0  0  0  0  0  0  0  0  0  0  0
   35.5470   27.6980   38.5220 H   0  0  0  0  0  0  0  0  0  0  0  0
   37.0800   26.3360   39.8160 H   0  0  0  0  0  0  0  0  0  0  0  0
   35.9540   32.0800   41.0760 H   0  0  0  0  0  0  0  0  0  0  0  0
   35.0020   31.1400   42.1970 H   0  0  0  0  0  0  0  0  0  0  0  0
   38.2480   27.0010   42.1280 C   0  0  0  0  0  0  0  0  0  0  0  0
   39.1280   27.5760   43.0220 C   0  0  0  0  0  3  0  0  0  0  0  0
   39.9340   26.7000   43.6790 C   0  0  0  0  0  0  0  0  0  0  0  0
   40.6630   27.0690   44.4070 H   0  0  0  0  0  0  0  0  0  0  0  0
   39.9040   25.3660   43.4970 N   0  0  0  0  0  0  0  0  0  0  0  0
   39.0220   24.8290   42.6060 C   0  0  0  0  0  3  0  0  0  0  0  0
   38.1950   25.6700   41.9250 N   0  0  0  0  0  0  0  0  0  0  0  0
  1  6  2  0  0  0  0
  1  2  1  0  0  0  0
  2  3  2  0  0  0  0
  3  4  1  0  0  0  0
  3 12  1  0  0  0  0
  5  7  1  0  0  0  0
  5  4  2  0  0  0  0
  6  5  1  0  0  0  0
  7 11  1  0  0  0  0
  8  1  1  0  0  0  0
  9  2  1  0  0  0  0
 10  7  1  0  0  0  0
 12 13  1  0  0  0  0
 13 14  2  0  0  0  0
 14 15  1  0  0  0  0
 16 14  1  0  0  0  0
 17 16  2  0  0  0  0
 18 12  2  0  0  0  0
 18 17  1  0  0  0  0
M  END
>  <minimizedAffinity>
-4.31404305

$$$$

 OpenBabel03252500203D

 18 19  0  0  0  0  0  0  0  0999 V2000
   37.2980   30.7570   37.9970 C   0  0  0  0  0  0  0  0  0  0  0  0
   37.2960   29.7400   38.9630 C   0  0  0  0  0  0  0  0  0  0  0  0
   37.2390   30.1460   40.2920 C   0  0  0  0  0  0  0  0  0  0  0  0
   37.1870   31.4660   40.6000 N   0  0  0  0  0  0  0  0  0  0  0  0
   37.1900   32.4090   39.6190 C   0  0  0  0  0  0  0  0  0  0  0  0
   37.2450   32.0430   38.3220 N   0  0  0  0  0  0  0  0  0  0  0  0
   37.1360   33.7960   39.9030 N   0  0  0  0  0  0  0  0  0  0  0  0
   37.3430   30.4220   36.9600 H   0  0  0  0  0  0  0  0  0  0  0  0
   37.3390   28.7150   38.6830 H   0  0  0  0  0  0  0  0  0  0  0  0
   37.8630   34.5600   39.8750 H   0  0  0  0  0  0  0  0  0  0  0  0
   36.1980   34.1450   40.1970 H   0  0  0  0  0  0  0  0  0  0  0  0
   37.2370   29.1130   41.3260 C   0  0  0  0  0  0  0  0  0  0  0  0
   36.9370   27.8030   41.0140 C   0  0  0  0  0  3  0  0  0  0  0  0
   36.9700   26.9400   42.0640 C   0  0  0  0  0  0  0  0  0  0  0  0
   36.7450   25.8800   41.9080 H   0  0  0  0  0  0  0  0  0  0  0  0
   37.2670   27.3010   43.3270 N   0  0  0  0  0  0  0  0  0  0  0  0
   37.5580   28.6040   43.6020 C   0  0  0  0  0  3  0  0  0  0  0  0
   37.5380   29.5030   42.5800 N   0  0  0  0  0  0  0  0  0  0  0  0
  1  6  2  0  0  0  0
  1  2  1  0  0  0  0
  2  3  2  0  0  0  0
  3  4  1  0  0  0  0
  3 12  1  0  0  0  0
  5  7  1  0  0  0  0
  5  4  2  0  0  0  0
  6  5  1  0  0  0  0
  7 11  1  0  0  0  0
  8  1  1  0  0  0  0
  9  2  1  0  0  0  0
 10  7  1  0  0  0  0
 12 18  1  0  0  0  0
 13 12  2  0  0  0  0
 13 14  1  0  0  0  0
 14 16  2  0  0  0  0
 15 14  1  0  0  0  0
 16 17  1  0  0  0  0
 18 17  2  0  0  0  0
M  END
>  <minimizedAffinity>
-4.30864096

$$$$

 OpenBabel03252500203D

 18 19  0  0  0  0  0  0  0  0999 V2000
   37.4100   33.1420   39.6400 C   0  0  0  0  0  0  0  0  0  0  0  0
   37.0220   31.9160   40.1990 C   0  0  0  0  0  0  0  0  0  0  0  0
   37.9350   31.3060   41.0530 C   0  0  0  0  0  0  0  0  0  0  0  0
   39.1290   31.8970   41.3090 N   0  0  0  0  0  0  0  0  0  0  0  0
   39.4510   33.0890   40.7370 C   0  0  0  0  0  0  0  0  0  0  0  0
   38.5840   33.7020   39.9050 N   0  0  0  0  0  0  0  0  0  0  0  0
   40.6880   33.7360   40.9810 N   0  0  0  0  0  0  0  0  0  0  0  0
   36.6840   33.6070   38.9720 H   0  0  0  0  0  0  0  0  0  0  0  0
   36.0780   31.4830   39.9740 H   0  0  0  0  0  0  0  0  0  0  0  0
   41.5610   33.8510   40.4010 H   0  0  0  0  0  0  0  0  0  0  0  0
   40.7630   34.1940   41.9150 H   0  0  0  0  0  0  0  0  0  0  0  0
   37.5650   30.0260   41.6530 C   0  0  0  0  0  0  0  0  0  0  0  0
   36.5720   29.2470   41.0970 C   0  0  0  0  0  3  0  0  0  0  0  0
   36.3230   28.0800   41.7500 C   0  0  0  0  0  0  0  0  0  0  0  0
   35.5500   27.4000   41.3780 H   0  0  0  0  0  0  0  0  0  0  0  0
   36.9750   27.6830   42.8600 N   0  0  0  0  0  0  0  0  0  0  0  0
   37.9510   28.4770   43.3840 C   0  0  0  0  0  3  0  0  0  0  0  0
   38.2340   29.6550   42.7620 N   0  0  0  0  0  0  0  0  0  0  0  0
  1  6  2  0  0  0  0
  1  2  1  0  0  0  0
  2  3  2  0  0  0  0
  3  4  1  0  0  0  0
  3 12  1  0  0  0  0
  5  7  1  0  0  0  0
  5  4  2  0  0  0  0
  6  5  1  0  0  0  0
  7 11  1  0  0  0  0
  8  1  1  0  0  0  0
  9  2  1  0  0  0  0
 10  7  1  0  0  0  0
 12 18  1  0  0  0  0
 13 12  2  0  0  0  0
 13 14  1  0  0  0  0
 14 16  2  0  0  0  0
 15 14  1  0  0  0  0
 16 17  1  0  0  0  0
 18 17  2  0  0  0  0
M  END
>  <minimizedAffinity>
-4.2736001

$$$$

 OpenBabel03252500203D

 18 19  0  0  0  0  0  0  0  0999 V2000
   39.1940   30.2880   41.2430 C   0  0  0  0  0  0  0  0  0  0  0  0
   39.3040   28.9060   41.4550 C   0  0  0  0  0  0  0  0  0  0  0  0
   38.1130   28.2070   41.6280 C   0  0  0  0  0  0  0  0  0  0  0  0
   36.9260   28.8640   41.5860 N   0  0  0  0  0  0  0  0  0  0  0  0
   36.8810   30.2070   41.3760 C   0  0  0  0  0  0  0  0  0  0  0  0
   38.0210   30.9080   41.2050 N   0  0  0  0  0  0  0  0  0  0  0  0
   35.6610   30.9250   41.3250 N   0  0  0  0  0  0  0  0  0  0  0  0
   40.1360   30.8210   41.1100 H   0  0  0  0  0  0  0  0  0  0  0  0
   40.2520   28.4270   41.4820 H   0  0  0  0  0  0  0  0  0  0  0  0
   35.1850   31.5740   42.0070 H   0  0  0  0  0  0  0  0  0  0  0  0
   35.1150   30.7970   40.4460 H   0  0  0  0  0  0  0  0  0  0  0  0
   38.1880   26.7660   41.8520 C   0  0  0  0  0  0  0  0  0  0  0  0
   37.0430   25.9980   41.9010 C   0  0  0  0  0  3  0  0  0  0  0  0
   37.2500   24.6710   42.1160 C   0  0  0  0  0  0  0  0  0  0  0  0
   36.3970   23.9880   42.1690 H   0  0  0  0  0  0  0  0  0  0  0  0
   38.4650   24.1130   42.2750 N   0  0  0  0  0  0  0  0  0  0  0  0
   39.5770   24.9000   42.2210 C   0  0  0  0  0  3  0  0  0  0  0  0
   39.4170   26.2360   42.0080 N   0  0  0  0  0  0  0  0  0  0  0  0
  1  2  1  0  0  0  0
  2  9  1  0  0  0  0
  2  3  2  0  0  0  0
  3 12  1  0  0  0  0
  4  3  1  0  0  0  0
  5  4  2  0  0  0  0
  6  1  2  0  0  0  0
  6  5  1  0  0  0  0
  7  5  1  0  0  0  0
  7 10  1  0  0  0  0
  8  1  1  0  0  0  0
 11  7  1  0  0  0  0
 12 13  2  0  0  0  0
 12 18  1  0  0  0  0
 13 14  1  0  0  0  0
 14 15  1  0  0  0  0
 14 16  2  0  0  0  0
 17 16  1  0  0  0  0
 18 17  2  0  0  0  0
M  END
>  <minimizedAffinity>
-4.13994884

$$$$

 OpenBabel03252500203D

 18 19  0  0  0  0  0  0  0  0999 V2000
   39.6030   28.1920   42.4720 C   0  0  0  0  0  0  0  0  0  0  0  0
   39.5690   29.4170   41.7910 C   0  0  0  0  0  0  0  0  0  0  0  0
   38.3460   30.0800   41.7650 C   0  0  0  0  0  0  0  0  0  0  0  0
   37.2650   29.5390   42.3790 N   0  0  0  0  0  0  0  0  0  0  0  0
   37.3580   28.3460   43.0270 C   0  0  0  0  0  0  0  0  0  0  0  0
   38.5320   27.6810   43.0670 N   0  0  0  0  0  0  0  0  0  0  0  0
   36.2500   27.7500   43.6790 N   0  0  0  0  0  0  0  0  0  0  0  0
   40.5690   27.6840   42.4830 H   0  0  0  0  0  0  0  0  0  0  0  0
   40.4380   29.8090   41.3210 H   0  0  0  0  0  0  0  0  0  0  0  0
   35.6260   26.9370   43.4300 H   0  0  0  0  0  0  0  0  0  0  0  0
   35.9900   28.1920   44.5880 H   0  0  0  0  0  0  0  0  0  0  0  0
   38.2740   31.3590   41.0630 C   0  0  0  0  0  0  0  0  0  0  0  0
   37.2520   31.6180   40.1720 C   0  0  0  0  0  3  0  0  0  0  0  0
   37.2990   32.8440   39.5860 C   0  0  0  0  0  0  0  0  0  0  0  0
   36.5280   33.1340   38.8650 H   0  0  0  0  0  0  0  0  0  0  0  0
   38.2540   33.7620   39.8300 N   0  0  0  0  0  0  0  0  0  0  0  0
   39.2490   33.4740   40.7170 C   0  0  0  0  0  3  0  0  0  0  0  0
   39.2420   32.2580   41.3280 N   0  0  0  0  0  0  0  0  0  0  0  0
  1  8  1  0  0  0  0
  1  6  1  0  0  0  0
  2  1  2  0  0  0  0
  3  2  1  0  0  0  0
  3  4  2  0  0  0  0
  4  5  1  0  0  0  0
  5  6  2  0  0  0  0
  5  7  1  0  0  0  0
  7 11  1  0  0  0  0
  9  2  1  0  0  0  0
 10  7  1  0  0  0  0
 12 18  1  0  0  0  0
 12  3  1  0  0  0  0
 13 12  2  0  0  0  0
 14 16  2  0  0  0  0
 14 13  1  0  0  0  0
 15 14  1  0  0  0  0
 16 17  1  0  0  0  0
 17 18  2  0  0  0  0
M  END
>  <minimizedAffinity>
-4.13877106

$$$$

 OpenBabel03252500203D

 18 19  0  0  0  0  0  0  0  0999 V2000
   36.7060   30.1500   38.0060 C   0  0  0  0  0  0  0  0  0  0  0  0
   37.8770   30.8990   37.8190 C   0  0  0  0  0  0  0  0  0  0  0  0
   38.2970   31.6740   38.8960 C   0  0  0  0  0  0  0  0  0  0  0  0
   37.5850   31.6790   40.0510 N   0  0  0  0  0  0  0  0  0  0  0  0
   36.4560   30.9310   40.1740 C   0  0  0  0  0  0  0  0  0  0  0  0
   36.0260   30.1700   39.1460 N   0  0  0  0  0  0  0  0  0  0  0  0
   35.6870   30.9110   41.3640 N   0  0  0  0  0  0  0  0  0  0  0  0
   36.3900   29.5480   37.1530 H   0  0  0  0  0  0  0  0  0  0  0  0
   38.4080   30.8690   36.8990 H   0  0  0  0  0  0  0  0  0  0  0  0
   34.7630   31.3470   41.6260 H   0  0  0  0  0  0  0  0  0  0  0  0
   36.1050   30.3590   42.1440 H   0  0  0  0  0  0  0  0  0  0  0  0
   39.5130   32.4680   38.7370 C   0  0  0  0  0  0  0  0  0  0  0  0
   39.8220   33.4720   39.6310 C   0  0  0  0  0  3  0  0  0  0  0  0
   40.9800   34.1360   39.3720 C   0  0  0  0  0  0  0  0  0  0  0  0
   41.3020   34.9480   40.0310 H   0  0  0  0  0  0  0  0  0  0  0  0
   41.7890   33.8640   38.3300 N   0  0  0  0  0  0  0  0  0  0  0  0
   41.4540   32.8650   37.4640 C   0  0  0  0  0  3  0  0  0  0  0  0
   40.3020   32.1720   37.6860 N   0  0  0  0  0  0  0  0  0  0  0  0
  1  6  1  0  0  0  0
  2  1  2  0  0  0  0
  2  3  1  0  0  0  0
  3  4  2  0  0  0  0
  4  5  1  0  0  0  0
  5  7  1  0  0  0  0
  6  5  2  0  0  0  0
  7 10  1  0  0  0  0
  7 11  1  0  0  0  0
  8  1  1  0  0  0  0
  9  2  1  0  0  0  0
 12  3  1  0  0  0  0
 12 13  1  0  0  0  0
 14 13  2  0  0  0  0
 14 15  1  0  0  0  0
 16 14  1  0  0  0  0
 17 18  1  0  0  0  0
 17 16  2  0  0  0  0
 18 12  2  0  0  0  0
M  END
>  <minimizedAffinity>
-4.12576294

$$$$

 OpenBabel03252500203D

 18 19  0  0  0  0  0  0  0  0999 V2000
   38.6170   29.5730   42.5850 C   0  0  0  0  0  0  0  0  0  0  0  0
   39.5900   30.4670   42.1170 C   0  0  0  0  0  0  0  0  0  0  0  0
   39.1510   31.4690   41.2570 C   0  0  0  0  0  0  0  0  0  0  0  0
   37.8410   31.5460   40.9120 N   0  0  0  0  0  0  0  0  0  0  0  0
   36.9410   30.6500   41.4000 C   0  0  0  0  0  0  0  0  0  0  0  0
   37.3400   29.6680   42.2350 N   0  0  0  0  0  0  0  0  0  0  0  0
   35.5650   30.6980   41.0630 N   0  0  0  0  0  0  0  0  0  0  0  0
   38.9770   28.7940   43.2580 H   0  0  0  0  0  0  0  0  0  0  0  0
   40.6080   30.3750   42.4080 H   0  0  0  0  0  0  0  0  0  0  0  0
   34.9660   30.1150   40.4200 H   0  0  0  0  0  0  0  0  0  0  0  0
   35.0270   31.4560   41.5370 H   0  0  0  0  0  0  0  0  0  0  0  0
   40.1380   32.4180   40.7480 C   0  0  0  0  0  0  0  0  0  0  0  0
   39.7990   33.3340   39.7730 C   0  0  0  0  0  3  0  0  0  0  0  0
   40.8080   34.1600   39.3850 C   0  0  0  0  0  0  0  0  0  0  0  0
   40.6270   34.9180   38.6160 H   0  0  0  0  0  0  0  0  0  0  0  0
   42.0550   34.1170   39.8910 N   0  0  0  0  0  0  0  0  0  0  0  0
   42.3570   33.1990   40.8540 C   0  0  0  0  0  3  0  0  0  0  0  0
   41.3770   32.3510   41.2720 N   0  0  0  0  0  0  0  0  0  0  0  0
  1  8  1  0  0  0  0
  2  9  1  0  0  0  0
  2  1  2  0  0  0  0
  3  2  1  0  0  0  0
  4  3  2  0  0  0  0
  4  5  1  0  0  0  0
  5  6  2  0  0  0  0
  6  1  1  0  0  0  0
  7  5  1  0  0  0  0
  7 11  1  0  0  0  0
 10  7  1  0  0  0  0
 12  3  1  0  0  0  0
 12 18  1  0  0  0  0
 13 12  2  0  0  0  0
 14 13  1  0  0  0  0
 14 16  2  0  0  0  0
 15 14  1  0  0  0  0
 16 17  1  0  0  0  0
 17 18  2  0  0  0  0
M  END
>  <minimizedAffinity>
-4.08990812

$$$$

 OpenBabel03252500203D

 18 19  0  0  0  0  0  0  0  0999 V2000
   39.1730   31.0850   38.7210 C   0  0  0  0  0  0  0  0  0  0  0  0
   38.9330   30.0130   39.5920 C   0  0  0  0  0  0  0  0  0  0  0  0
   37.9680   30.2150   40.5740 C   0  0  0  0  0  0  0  0  0  0  0  0
   37.3130   31.4010   40.6530 N   0  0  0  0  0  0  0  0  0  0  0  0
   37.5880   32.4060   39.7780 C   0  0  0  0  0  0  0  0  0  0  0  0
   38.5190   32.2370   38.8160 N   0  0  0  0  0  0  0  0  0  0  0  0
   36.9250   33.6570   39.8300 N   0  0  0  0  0  0  0  0  0  0  0  0
   39.9320   30.9110   37.9570 H   0  0  0  0  0  0  0  0  0  0  0  0
   39.4660   29.0980   39.5000 H   0  0  0  0  0  0  0  0  0  0  0  0
   37.2250   34.6110   40.1640 H   0  0  0  0  0  0  0  0  0  0  0  0
   35.9470   33.6470   39.4690 H   0  0  0  0  0  0  0  0  0  0  0  0
   37.6920   29.1190   41.5010 C   0  0  0  0  0  0  0  0  0  0  0  0
   37.7700   29.3120   42.8650 C   0  0  0  0  0  3  0  0  0  0  0  0
   37.4900   28.2150   43.6170 C   0  0  0  0  0  0  0  0  0  0  0  0
   37.5280   28.2770   44.7090 H   0  0  0  0  0  0  0  0  0  0  0  0
   37.1590   27.0140   43.1060 N   0  0  0  0  0  0  0  0  0  0  0  0
   37.0900   26.8570   41.7530 C   0  0  0  0  0  3  0  0  0  0  0  0
   37.3620   27.9300   40.9600 N   0  0  0  0  0  0  0  0  0  0  0  0
  1  6  2  0  0  0  0
  1  2  1  0  0  0  0
  2  3  2  0  0  0  0
  3  4  1  0  0  0  0
  3 12  1  0  0  0  0
  5  7  1  0  0  0  0
  5  4  2  0  0  0  0
  6  5  1  0  0  0  0
  7 10  1  0  0  0  0
  8  1  1  0  0  0  0
  9  2  1  0  0  0  0
 11  7  1  0  0  0  0
 12 13  1  0  0  0  0
 13 14  2  0  0  0  0
 14 15  1  0  0  0  0
 16 14  1  0  0  0  0
 17 16  2  0  0  0  0
 18 12  2  0  0  0  0
 18 17  1  0  0  0  0
M  END
>  <minimizedAffinity>
-4.04319715

$$$$
