
 OpenBabel03252509313D

 25 26  0  0  0  0  0  0  0  0999 V2000
   48.0110   33.2810   42.8750 O   0  0  0  0  0  0  0  0  0  0  0  0
   47.0450   34.2550   42.6080 C   0  0  0  0  0  0  0  0  0  0  0  0
   47.4670   35.2110   42.2490 H   0  0  0  0  0  0  0  0  0  0  0  0
   46.3610   33.9120   41.7770 H   0  0  0  0  0  0  0  0  0  0  0  0
   45.4600   33.8900   45.9770 C   0  0  0  0  0  0  0  0  0  0  0  0
   46.2840   33.6410   44.8700 C   0  0  0  0  0  0  0  0  0  0  0  0
   46.1950   34.4920   43.7790 C   0  0  0  0  0  0  0  0  0  0  0  0
   45.3120   35.5300   43.8360 N   0  0  0  0  0  0  0  0  0  0  0  0
   44.5210   35.7500   44.9260 C   0  0  0  0  0  0  0  0  0  0  0  0
   44.6070   34.9280   45.9780 N   0  0  0  0  0  0  0  0  0  0  0  0
   45.5820   33.1790   46.8040 H   0  0  0  0  0  0  0  0  0  0  0  0
   46.9720   32.7910   44.8850 H   0  0  0  0  0  0  0  0  0  0  0  0
   43.8230   36.5650   44.9790 H   0  0  0  0  0  0  0  0  0  0  0  0
   50.4630   32.7160   42.1630 O   0  0  0  0  0  0  0  0  0  0  0  0
   49.4550   33.8400   42.2130 P   0  0  2  0  0  0  0  0  0  0  0  0
   49.9920   35.1350   43.1430 O   0  0  0  0  0  0  0  0  0  0  0  0
   50.9460   35.0420   43.3240 H   0  0  0  0  0  0  0  0  0  0  0  0
   49.1570   34.3190   40.6290 O   0  0  0  0  0  0  0  0  0  0  0  0
   48.4850   33.4600   39.7720 C   0  0  0  0  0  0  0  0  0  0  0  0
   49.1030   32.2340   39.5100 C   0  0  0  0  0  3  0  0  0  0  0  0
   48.5050   31.3090   38.6640 C   0  0  0  0  0  0  0  0  0  0  0  0
   48.9730   30.3380   38.4440 H   0  0  0  0  0  0  0  0  0  0  0  0
   47.3170   31.6470   38.1140 N   0  0  0  0  0  0  0  0  0  0  0  0
   46.7520   32.8350   38.3870 C   0  0  0  0  0  3  0  0  0  0  0  0
   47.3090   33.7270   39.1920 N   0  0  0  0  0  0  0  0  0  0  0  0
  2  1  1  0  0  0  0
  2  7  1  0  0  0  0
  3  2  1  0  0  0  0
  4  2  1  0  0  0  0
  5 10  1  0  0  0  0
  5 11  1  0  0  0  0
  6 12  1  0  0  0  0
  6  5  2  0  0  0  0
  7  8  2  0  0  0  0
  7  6  1  0  0  0  0
  8  9  1  0  0  0  0
  9 13  1  0  0  0  0
  9 10  2  0  0  0  0
 15 14  2  1  0  0  0
 15  1  1  0  0  0  0
 15 16  1  0  0  0  0
 16 17  1  0  0  0  0
 18 15  1  0  0  0  0
 19 18  1  0  0  0  0
 20 19  1  0  0  0  0
 21 20  2  0  0  0  0
 22 21  1  0  0  0  0
 23 24  2  0  0  0  0
 23 21  1  0  0  0  0
 24 25  1  0  0  0  0
 25 19  2  0  0  0  0
M  END
>  <minimizedAffinity>
-4.29972601

>  <minimizedRMSD>
0.635906756

$$$$
