
 OpenBabel03252508383D

 39 42  0  0  0  0  0  0  0  0999 V2000
   45.1370   33.9640   40.7120 C   0  0  0  0  0  0  0  0  0  0  0  0
   44.0970   33.6360   39.8930 C   0  0  0  0  0  0  0  0  0  0  0  0
   44.3970   33.1350   38.6670 C   0  0  0  0  0  0  0  0  0  0  0  0
   45.6760   32.9400   38.2040 C   0  0  0  0  0  0  0  0  0  0  0  0
   46.7050   33.2770   39.0470 C   0  0  0  0  0  0  0  0  0  0  0  0
   46.4560   33.7890   40.3020 C   0  0  0  0  0  0  0  0  0  0  0  0
   43.5630   32.8720   38.0070 H   0  0  0  0  0  0  0  0  0  0  0  0
   45.8870   32.5430   37.2330 H   0  0  0  0  0  0  0  0  0  0  0  0
   47.7270   33.1270   38.6950 H   0  0  0  0  0  0  0  0  0  0  0  0
   40.8160   35.2760   40.7920 C   0  0  0  0  0  0  0  0  0  0  0  0
   42.1120   35.0960   40.2800 C   0  0  0  0  0  0  0  0  0  0  0  0
   42.7630   33.8540   40.4100 C   0  0  0  0  0  0  0  0  0  0  0  0
   42.0450   32.8970   41.0480 N   0  0  0  0  0  0  0  0  0  0  0  0
   40.8230   33.0780   41.5270 C   0  0  0  0  0  0  0  0  0  0  0  0
   40.2040   34.2580   41.4040 N   0  0  0  0  0  0  0  0  0  0  0  0
   40.2120   36.5370   40.6350 N   0  0  0  0  0  0  0  0  0  0  0  0
   42.6320   35.8960   39.7810 H   0  0  0  0  0  0  0  0  0  0  0  0
   40.2980   32.2730   42.0290 H   0  0  0  0  0  0  0  0  0  0  0  0
   39.7100   37.1200   41.3420 H   0  0  0  0  0  0  0  0  0  0  0  0
   40.2330   37.0080   39.7040 H   0  0  0  0  0  0  0  0  0  0  0  0
   47.6140   34.1140   41.1190 C   0  0  0  0  0  0  0  0  0  0  0  0
   48.1380   35.3740   40.9440 C   0  0  0  0  0  0  0  0  0  0  0  0
   49.2450   35.8580   41.6400 C   0  0  0  0  0  0  0  0  0  0  0  0
   49.8370   35.0120   42.5530 C   0  0  0  0  0  0  0  0  0  0  0  0
   49.3310   33.7440   42.7460 C   0  0  0  0  0  0  0  0  0  0  0  0
   48.2310   33.2890   42.0410 C   0  0  0  0  0  0  0  0  0  0  0  0
   47.7050   36.0810   40.2340 H   0  0  0  0  0  0  0  0  0  0  0  0
   49.6160   36.8550   41.4660 H   0  0  0  0  0  0  0  0  0  0  0  0
   50.7100   35.3220   43.1360 H   0  0  0  0  0  0  0  0  0  0  0  0
   49.7690   33.0440   43.4560 H   0  0  0  0  0  0  0  0  0  0  0  0
   47.6380   31.9540   42.1930 C   0  0  0  0  0  0  0  0  0  0  0  0
   46.8940   31.8540   43.3740 C   0  0  0  0  0  3  0  0  0  0  0  0
   46.2390   30.6700   43.7250 C   0  0  0  0  0  0  0  0  0  0  0  0
   45.6640   30.6000   44.6430 H   0  0  0  0  0  0  0  0  0  0  0  0
   46.3230   29.5980   42.9080 N   0  0  0  0  0  0  0  0  0  0  0  0
   47.0540   29.7670   41.7900 C   0  0  0  0  0  3  0  0  0  0  0  0
   47.7070   30.8840   41.4020 N   0  0  0  0  0  0  0  0  0  0  0  0
   44.7350   34.9310   43.1010 N   0  0  0  0  0  0  0  0  0  0  0  0
   44.9220   34.5030   42.0360 C   0  0  0  0  0  0  0  0  0  0  0  0
  1 39  1  0  0  0  0
  2 12  1  0  0  0  0
  2  1  2  0  0  0  0
  3  2  1  0  0  0  0
  4  3  2  0  0  0  0
  4  5  1  0  0  0  0
  5  6  2  0  0  0  0
  6  1  1  0  0  0  0
  6 21  1  0  0  0  0
  7  3  1  0  0  0  0
  8  4  1  0  0  0  0
  9  5  1  0  0  0  0
 10 15  1  0  0  0  0
 11 12  1  0  0  0  0
 11 10  2  0  0  0  0
 12 13  2  0  0  0  0
 13 14  1  0  0  0  0
 14 18  1  0  0  0  0
 15 14  2  0  0  0  0
 16 10  1  0  0  0  0
 16 19  1  0  0  0  0
 17 11  1  0  0  0  0
 20 16  1  0  0  0  0
 21 26  1  0  0  0  0
 22 21  2  0  0  0  0
 22 23  1  0  0  0  0
 23 24  2  0  0  0  0
 24 25  1  0  0  0  0
 24 29  1  0  0  0  0
 25 30  1  0  0  0  0
 26 31  1  0  0  0  0
 26 25  2  0  0  0  0
 27 22  1  0  0  0  0
 28 23  1  0  0  0  0
 31 32  1  0  0  0  0
 32 33  2  0  0  0  0
 33 34  1  0  0  0  0
 35 33  1  0  0  0  0
 36 35  2  0  0  0  0
 37 36  1  0  0  0  0
 37 31  2  0  0  0  0
 39 38  3  0  0  0  0
M  END
>  <minimizedAffinity>
-6.01053858

>  <minimizedRMSD>
0.58077383

$$$$
