
 OpenBabel03252500543D

 28 29  0  0  0  0  0  0  0  0999 V2000
   46.5200   34.3700   43.0020 C   0  0  0  0  0  0  0  0  0  0  0  0
   45.2790   34.7440   43.4740 C   0  0  0  0  0  0  0  0  0  0  0  0
   44.9500   34.4120   44.8030 C   0  0  0  0  0  0  0  0  0  0  0  0
   45.8810   33.7470   45.5220 N   0  0  0  0  0  0  0  0  0  0  0  0
   47.0750   33.3970   45.0410 C   0  0  0  0  0  0  0  0  0  0  0  0
   47.3940   33.7110   43.7760 N   0  0  0  0  0  0  0  0  0  0  0  0
   43.9800   34.7190   45.1290 H   0  0  0  0  0  0  0  0  0  0  0  0
   47.7950   32.8620   45.6560 H   0  0  0  0  0  0  0  0  0  0  0  0
   46.9260   34.6830   41.6310 C   0  0  0  0  0  0  0  0  0  0  0  0
   46.9250   33.7500   41.0270 H   0  0  0  0  0  0  0  0  0  0  0  0
   46.1870   35.3820   41.1500 H   0  0  0  0  0  0  0  0  0  0  0  0
   48.2830   35.3310   41.6520 C   0  0  0  0  0  0  0  0  0  0  0  0
   48.8470   34.9500   40.7610 H   0  0  0  0  0  0  0  0  0  0  0  0
   48.7920   35.0820   42.6120 H   0  0  0  0  0  0  0  0  0  0  0  0
   48.2320   36.4340   41.5960 H   0  0  0  0  0  0  0  0  0  0  0  0
   44.4540   35.4230   42.5850 O   0  0  0  0  0  0  0  0  0  0  0  0
   43.6930   34.8570   40.1330 O   0  0  0  0  0  0  0  0  0  0  0  0
   43.2640   34.7400   41.5930 P   0  0  1  0  0  0  0  0  0  0  0  0
   43.1540   33.0890   41.9770 O   0  0  0  0  0  0  0  0  0  0  0  0
   44.0550   32.6810   41.8040 H   0  0  0  0  0  0  0  0  0  0  0  0
   41.7350   35.4200   41.8160 O   0  0  0  0  0  0  0  0  0  0  0  0
   40.6300   34.7540   41.3010 C   0  0  0  0  0  0  0  0  0  0  0  0
   39.9930   35.3410   40.2100 C   0  0  0  0  0  0  0  0  0  0  0  0
   38.8780   34.7540   39.6210 C   0  0  0  0  0  0  0  0  0  0  0  0
   38.4470   35.2810   38.7770 H   0  0  0  0  0  0  0  0  0  0  0  0
   38.4210   33.5790   40.1410 N   0  0  0  0  0  0  0  0  0  0  0  0
   39.0400   33.0250   41.1890 C   0  0  0  0  0  0  0  0  0  0  0  0
   40.1110   33.5960   41.7490 N   0  0  0  0  0  0  0  0  0  0  0  0
  1  2  2  0  0  0  0
  1  6  1  0  0  0  0
  2  3  1  0  0  0  0
  3  7  1  0  0  0  0
  3  4  2  0  0  0  0
  5  4  1  0  0  0  0
  5  8  1  0  0  0  0
  6  5  2  0  0  0  0
  9 12  1  0  0  0  0
  9  1  1  0  0  0  0
 10  9  1  0  0  0  0
 11  9  1  0  0  0  0
 12 14  1  0  0  0  0
 13 12  1  0  0  0  0
 15 12  1  0  0  0  0
 16  2  1  0  0  0  0
 18 17  2  6  0  0  0
 18 21  1  0  0  0  0
 18 19  1  0  0  0  0
 18 16  1  0  0  0  0
 20 19  1  0  0  0  0
 22 28  1  0  0  0  0
 22 21  1  0  0  0  0
 23 22  2  0  0  0  0
 24 26  2  0  0  0  0
 24 23  1  0  0  0  0
 25 24  1  0  0  0  0
 26 27  1  0  0  0  0
 27 28  2  0  0  0  0
M  END
>  <minimizedAffinity>
-4.98677015

>  <minimizedRMSD>
1.14474559

$$$$
