
 OpenBabel03242513433D

 38 41  0  0  0  0  0  0  0  0999 V2000
   39.6920   29.9740   39.8410 C   0  0  0  0  0  0  0  0  0  0  0  0
   38.4770   29.5790   40.3550 C   0  0  0  0  0  0  0  0  0  0  0  0
   37.5170   30.5490   40.5650 C   0  0  0  0  0  0  0  0  0  0  0  0
   37.7260   31.8780   40.2850 C   0  0  0  0  0  0  0  0  0  0  0  0
   37.0320   33.0380   40.3690 N   0  0  0  0  0  0  0  0  0  0  0  0
   37.7870   34.0730   39.9310 C   0  0  0  0  0  0  0  0  0  0  0  0
   38.9630   33.5500   39.5710 N   0  0  0  0  0  0  0  0  0  0  0  0
   38.9530   32.2220   39.7760 C   0  0  0  0  0  0  0  0  0  0  0  0
   39.9480   31.3110   39.5420 C   0  0  0  0  0  0  0  0  0  0  0  0
   40.4540   29.2230   39.6700 H   0  0  0  0  0  0  0  0  0  0  0  0
   36.5560   30.2640   40.9670 H   0  0  0  0  0  0  0  0  0  0  0  0
   36.0600   33.1000   40.7230 H   0  0  0  0  0  0  0  0  0  0  0  0
   37.4260   35.0890   39.9110 H   0  0  0  0  0  0  0  0  0  0  0  0
   37.1920   26.5560   41.9570 C   0  0  0  0  0  0  0  0  0  0  0  0
   37.7640   25.5360   41.2030 C   0  0  0  0  0  0  0  0  0  0  0  0
   38.5880   25.9230   40.1500 C   0  0  0  0  0  0  0  0  0  0  0  0
   38.8050   27.2430   39.8930 N   0  0  0  0  0  0  0  0  0  0  0  0
   38.2180   28.1760   40.6640 C   0  0  0  0  0  0  0  0  0  0  0  0
   37.4230   27.8520   41.6820 N   0  0  0  0  0  0  0  0  0  0  0  0
   36.5350   26.3920   42.8000 H   0  0  0  0  0  0  0  0  0  0  0  0
   39.0350   25.1260   39.5620 H   0  0  0  0  0  0  0  0  0  0  0  0
   37.4590   24.1230   41.5730 C   0  0  0  0  0  0  0  0  0  0  0  0
   36.0850   24.0410   41.5600 F   0  0  0  0  0  0  0  0  0  0  0  0
   37.9470   23.8950   42.8300 F   0  0  0  0  0  0  0  0  0  0  0  0
   38.0600   23.2980   40.6350 F   0  0  0  0  0  0  0  0  0  0  0  0
   41.1650   31.7160   39.0270 O   0  0  0  0  0  0  0  0  0  0  0  0
   42.4160   33.1880   37.3060 O   0  0  0  0  0  0  0  0  0  0  0  0
   41.4950   31.9830   37.4040 P   0  0  2  0  0  0  0  0  0  0  0  0
   40.0230   32.4170   36.6540 O   0  0  0  0  0  0  0  0  0  0  0  0
   39.8600   33.3900   36.7070 H   0  0  0  0  0  0  0  0  0  0  0  0
   42.1790   30.6640   36.6130 O   0  0  0  0  0  0  0  0  0  0  0  0
   42.2000   29.3710   37.0720 C   0  0  0  0  0  0  0  0  0  0  0  0
   41.1090   28.5610   36.7380 C   0  0  0  0  0  3  0  0  0  0  0  0
   41.0370   27.2370   37.1550 C   0  0  0  0  0  0  0  0  0  0  0  0
   40.1520   26.6790   36.8520 H   0  0  0  0  0  0  0  0  0  0  0  0
   42.0550   26.7320   37.9020 N   0  0  0  0  0  0  0  0  0  0  0  0
   43.1050   27.5100   38.2210 C   0  0  0  0  0  3  0  0  0  0  0  0
   43.1590   28.7840   37.8120 N   0  0  0  0  0  0  0  0  0  0  0  0
  1  2  1  0  0  0  0
  2  3  2  0  0  0  0
  2 18  1  0  0  0  0
  3 11  1  0  0  0  0
  4  5  1  0  0  0  0
  4  3  1  0  0  0  0
  5 12  1  0  0  0  0
  6  5  1  0  0  0  0
  7  8  1  0  0  0  0
  7  6  2  0  0  0  0
  8  4  2  0  0  0  0
  9  8  1  0  0  0  0
  9  1  2  0  0  0  0
 10  1  1  0  0  0  0
 13  6  1  0  0  0  0
 14 20  1  0  0  0  0
 15 22  1  0  0  0  0
 15 14  2  0  0  0  0
 16 15  1  0  0  0  0
 17 16  2  0  0  0  0
 17 18  1  0  0  0  0
 18 19  2  0  0  0  0
 19 14  1  0  0  0  0
 21 16  1  0  0  0  0
 22 24  1  0  0  0  0
 23 22  1  0  0  0  0
 25 22  1  0  0  0  0
 26  9  1  0  0  0  0
 28 27  2  6  0  0  0
 28 26  1  0  0  0  0
 29 30  1  0  0  0  0
 29 28  1  0  0  0  0
 31 32  1  0  0  0  0
 31 28  1  0  0  0  0
 32 38  1  0  0  0  0
 33 32  2  0  0  0  0
 33 34  1  0  0  0  0
 34 36  2  0  0  0  0
 35 34  1  0  0  0  0
 36 37  1  0  0  0  0
 38 37  2  0  0  0  0
M  END
>  <minimizedAffinity>
-6.08957577

$$$$

 OpenBabel03242513433D

 38 41  0  0  0  0  0  0  0  0999 V2000
   36.6430   30.3540   39.7400 C   0  0  0  0  0  0  0  0  0  0  0  0
   35.8000   29.2770   39.5860 C   0  0  0  0  0  0  0  0  0  0  0  0
   35.7690   28.3300   40.5900 C   0  0  0  0  0  0  0  0  0  0  0  0
   36.5380   28.4190   41.7240 C   0  0  0  0  0  0  0  0  0  0  0  0
   36.7430   27.6990   42.8520 N   0  0  0  0  0  0  0  0  0  0  0  0
   37.6590   28.3070   43.6420 C   0  0  0  0  0  0  0  0  0  0  0  0
   38.0280   29.4180   42.9970 N   0  0  0  0  0  0  0  0  0  0  0  0
   37.3630   29.5100   41.8320 C   0  0  0  0  0  0  0  0  0  0  0  0
   37.4430   30.4860   40.8750 C   0  0  0  0  0  0  0  0  0  0  0  0
   36.6780   31.1050   38.9610 H   0  0  0  0  0  0  0  0  0  0  0  0
   35.1140   27.4760   40.4910 H   0  0  0  0  0  0  0  0  0  0  0  0
   36.2560   26.8080   43.0600 H   0  0  0  0  0  0  0  0  0  0  0  0
   37.9700   27.9020   44.5920 H   0  0  0  0  0  0  0  0  0  0  0  0
   32.8860   28.9250   37.4080 C   0  0  0  0  0  0  0  0  0  0  0  0
   33.4480   28.9080   36.1350 C   0  0  0  0  0  0  0  0  0  0  0  0
   34.8340   29.0210   36.0610 C   0  0  0  0  0  0  0  0  0  0  0  0
   35.5780   29.1390   37.1960 N   0  0  0  0  0  0  0  0  0  0  0  0
   34.9660   29.1480   38.3940 C   0  0  0  0  0  0  0  0  0  0  0  0
   33.6430   29.0430   38.5130 N   0  0  0  0  0  0  0  0  0  0  0  0
   31.8250   28.8460   37.6040 H   0  0  0  0  0  0  0  0  0  0  0  0
   35.2720   29.0080   35.0670 H   0  0  0  0  0  0  0  0  0  0  0  0
   32.5390   28.7730   34.9590 C   0  0  0  0  0  0  0  0  0  0  0  0
   32.5030   30.0270   34.3920 F   0  0  0  0  0  0  0  0  0  0  0  0
   31.3010   28.4100   35.4150 F   0  0  0  0  0  0  0  0  0  0  0  0
   33.0740   27.8110   34.1160 F   0  0  0  0  0  0  0  0  0  0  0  0
   38.2930   31.5640   41.0380 O   0  0  0  0  0  0  0  0  0  0  0  0
   39.5840   33.7340   40.4750 O   0  0  0  0  0  0  0  0  0  0  0  0
   38.4670   32.8390   39.9630 P   0  0  2  0  0  0  0  0  0  0  0  0
   37.0260   33.7540   40.0270 O   0  0  0  0  0  0  0  0  0  0  0  0
   37.0610   34.4410   40.7370 H   0  0  0  0  0  0  0  0  0  0  0  0
   38.7800   32.3680   38.3790 O   0  0  0  0  0  0  0  0  0  0  0  0
   39.9550   31.8310   37.9140 C   0  0  0  0  0  0  0  0  0  0  0  0
   40.0550   30.4360   37.9040 C   0  0  0  0  0  3  0  0  0  0  0  0
   41.2030   29.7960   37.4520 C   0  0  0  0  0  0  0  0  0  0  0  0
   41.1950   28.7070   37.4800 H   0  0  0  0  0  0  0  0  0  0  0  0
   42.2440   30.5550   37.0150 N   0  0  0  0  0  0  0  0  0  0  0  0
   42.1470   31.8960   37.0240 C   0  0  0  0  0  3  0  0  0  0  0  0
   41.0340   32.4970   37.4620 N   0  0  0  0  0  0  0  0  0  0  0  0
  1  9  1  0  0  0  0
  2  1  2  0  0  0  0
  2  3  1  0  0  0  0
  3  4  2  0  0  0  0
  4  8  1  0  0  0  0
  4  5  1  0  0  0  0
  5 12  1  0  0  0  0
  5  6  1  0  0  0  0
  6 13  1  0  0  0  0
  7  6  2  0  0  0  0
  8  7  1  0  0  0  0
  9 26  1  0  0  0  0
  9  8  2  0  0  0  0
 10  1  1  0  0  0  0
 11  3  1  0  0  0  0
 14 20  1  0  0  0  0
 14 19  1  0  0  0  0
 15 14  2  0  0  0  0
 16 15  1  0  0  0  0
 16 17  2  0  0  0  0
 17 18  1  0  0  0  0
 18 19  2  0  0  0  0
 18  2  1  0  0  0  0
 21 16  1  0  0  0  0
 22 24  1  0  0  0  0
 22 15  1  0  0  0  0
 23 22  1  0  0  0  0
 25 22  1  0  0  0  0
 28 29  1  0  0  0  0
 28 27  2  1  0  0  0
 28 26  1  0  0  0  0
 29 30  1  0  0  0  0
 31 28  1  0  0  0  0
 32 31  1  0  0  0  0
 33 32  1  0  0  0  0
 34 35  1  0  0  0  0
 34 33  2  0  0  0  0
 36 37  2  0  0  0  0
 36 34  1  0  0  0  0
 37 38  1  0  0  0  0
 38 32  2  0  0  0  0
M  END
>  <minimizedAffinity>
-6.04761648

$$$$

 OpenBabel03242513433D

 38 41  0  0  0  0  0  0  0  0999 V2000
   34.4710   28.8210   38.7100 C   0  0  0  0  0  0  0  0  0  0  0  0
   34.0730   28.4460   37.4470 C   0  0  0  0  0  0  0  0  0  0  0  0
   34.6880   27.3520   36.8720 C   0  0  0  0  0  0  0  0  0  0  0  0
   35.6710   26.6310   37.5050 C   0  0  0  0  0  0  0  0  0  0  0  0
   36.4490   25.5550   37.2400 N   0  0  0  0  0  0  0  0  0  0  0  0
   37.2710   25.2970   38.2850 C   0  0  0  0  0  0  0  0  0  0  0  0
   37.0000   26.2230   39.2090 N   0  0  0  0  0  0  0  0  0  0  0  0
   36.0340   27.0440   38.7620 C   0  0  0  0  0  0  0  0  0  0  0  0
   35.4660   28.1200   39.3900 C   0  0  0  0  0  0  0  0  0  0  0  0
   33.9970   29.6770   39.1730 H   0  0  0  0  0  0  0  0  0  0  0  0
   34.3910   27.0380   35.8820 H   0  0  0  0  0  0  0  0  0  0  0  0
   36.4050   25.0190   36.3540 H   0  0  0  0  0  0  0  0  0  0  0  0
   37.9750   24.4800   38.2840 H   0  0  0  0  0  0  0  0  0  0  0  0
   31.0070   30.3090   36.7460 C   0  0  0  0  0  0  0  0  0  0  0  0
   31.1040   30.5680   35.3820 C   0  0  0  0  0  0  0  0  0  0  0  0
   32.2390   30.0880   34.7340 C   0  0  0  0  0  0  0  0  0  0  0  0
   33.1900   29.4000   35.4250 N   0  0  0  0  0  0  0  0  0  0  0  0
   33.0290   29.1870   36.7430 C   0  0  0  0  0  0  0  0  0  0  0  0
   31.9610   29.6270   37.4050 N   0  0  0  0  0  0  0  0  0  0  0  0
   30.1800   30.6250   37.3660 H   0  0  0  0  0  0  0  0  0  0  0  0
   32.3140   30.2900   33.6690 H   0  0  0  0  0  0  0  0  0  0  0  0
   30.0030   31.3300   34.7240 C   0  0  0  0  0  0  0  0  0  0  0  0
   29.7720   32.4060   35.5510 F   0  0  0  0  0  0  0  0  0  0  0  0
   28.9010   30.5210   34.6610 F   0  0  0  0  0  0  0  0  0  0  0  0
   30.4370   31.7000   33.4610 F   0  0  0  0  0  0  0  0  0  0  0  0
   35.8720   28.4900   40.6580 O   0  0  0  0  0  0  0  0  0  0  0  0
   37.5320   29.6130   42.2950 O   0  0  0  0  0  0  0  0  0  0  0  0
   36.7180   29.8870   41.0410 P   0  0  2  0  0  0  0  0  0  0  0  0
   35.5650   31.0810   41.4460 O   0  0  0  0  0  0  0  0  0  0  0  0
   35.3270   31.0470   42.4040 H   0  0  0  0  0  0  0  0  0  0  0  0
   37.7190   30.4470   39.8110 O   0  0  0  0  0  0  0  0  0  0  0  0
   38.4150   31.6300   39.8120 C   0  0  0  0  0  0  0  0  0  0  0  0
   39.6090   31.6650   39.0850 C   0  0  0  0  0  3  0  0  0  0  0  0
   40.3860   32.8160   39.0240 C   0  0  0  0  0  0  0  0  0  0  0  0
   41.3000   32.7550   38.4370 H   0  0  0  0  0  0  0  0  0  0  0  0
   39.9630   33.9240   39.6900 N   0  0  0  0  0  0  0  0  0  0  0  0
   38.8130   33.8910   40.3880 C   0  0  0  0  0  3  0  0  0  0  0  0
   38.0770   32.7740   40.4360 N   0  0  0  0  0  0  0  0  0  0  0  0
  1 10  1  0  0  0  0
  1  9  1  0  0  0  0
  2  1  2  0  0  0  0
  3  2  1  0  0  0  0
  3  4  2  0  0  0  0
  4  8  1  0  0  0  0
  5  4  1  0  0  0  0
  5  6  1  0  0  0  0
  6  7  2  0  0  0  0
  8  7  1  0  0  0  0
  8  9  2  0  0  0  0
  9 26  1  0  0  0  0
 11  3  1  0  0  0  0
 12  5  1  0  0  0  0
 13  6  1  0  0  0  0
 14 20  1  0  0  0  0
 14 19  1  0  0  0  0
 15 14  2  0  0  0  0
 16 15  1  0  0  0  0
 16 17  2  0  0  0  0
 17 18  1  0  0  0  0
 18 19  2  0  0  0  0
 18  2  1  0  0  0  0
 21 16  1  0  0  0  0
 22 15  1  0  0  0  0
 22 23  1  0  0  0  0
 24 22  1  0  0  0  0
 25 22  1  0  0  0  0
 26 28  1  0  0  0  0
 28 29  1  0  0  0  0
 28 27  2  1  0  0  0
 29 30  1  0  0  0  0
 31 32  1  0  0  0  0
 31 28  1  0  0  0  0
 32 38  1  0  0  0  0
 33 32  2  0  0  0  0
 34 33  1  0  0  0  0
 34 36  2  0  0  0  0
 35 34  1  0  0  0  0
 36 37  1  0  0  0  0
 37 38  2  0  0  0  0
M  END
>  <minimizedAffinity>
-5.8980155

$$$$

 OpenBabel03242513433D

 38 41  0  0  0  0  0  0  0  0999 V2000
   37.0740   29.9680   39.2440 C   0  0  0  0  0  0  0  0  0  0  0  0
   35.9050   29.2510   39.3470 C   0  0  0  0  0  0  0  0  0  0  0  0
   35.6250   28.6380   40.5520 C   0  0  0  0  0  0  0  0  0  0  0  0
   36.4610   28.7150   41.6400 C   0  0  0  0  0  0  0  0  0  0  0  0
   36.4900   28.2540   42.9130 N   0  0  0  0  0  0  0  0  0  0  0  0
   37.6140   28.6700   43.5400 C   0  0  0  0  0  0  0  0  0  0  0  0
   38.2920   29.3980   42.6480 N   0  0  0  0  0  0  0  0  0  0  0  0
   37.6150   29.4410   41.4870 C   0  0  0  0  0  0  0  0  0  0  0  0
   37.9530   30.0740   40.3210 C   0  0  0  0  0  0  0  0  0  0  0  0
   37.3070   30.4560   38.3050 H   0  0  0  0  0  0  0  0  0  0  0  0
   34.7130   28.0690   40.6570 H   0  0  0  0  0  0  0  0  0  0  0  0
   35.7440   27.6660   43.3260 H   0  0  0  0  0  0  0  0  0  0  0  0
   37.8370   28.4160   44.5650 H   0  0  0  0  0  0  0  0  0  0  0  0
   32.8460   28.9570   37.3660 C   0  0  0  0  0  0  0  0  0  0  0  0
   33.3210   28.9540   36.0580 C   0  0  0  0  0  0  0  0  0  0  0  0
   34.7000   29.0550   35.8930 C   0  0  0  0  0  0  0  0  0  0  0  0
   35.5200   29.1500   36.9760 N   0  0  0  0  0  0  0  0  0  0  0  0
   34.9910   29.1470   38.2130 C   0  0  0  0  0  0  0  0  0  0  0  0
   33.6780   29.0530   38.4190 N   0  0  0  0  0  0  0  0  0  0  0  0
   31.8010   28.8850   37.6330 H   0  0  0  0  0  0  0  0  0  0  0  0
   35.0700   29.0520   34.8710 H   0  0  0  0  0  0  0  0  0  0  0  0
   32.3340   28.8440   34.9450 C   0  0  0  0  0  0  0  0  0  0  0  0
   32.8630   27.9030   34.0920 F   0  0  0  0  0  0  0  0  0  0  0  0
   32.2450   30.0620   34.3300 F   0  0  0  0  0  0  0  0  0  0  0  0
   31.1190   28.4590   35.4910 F   0  0  0  0  0  0  0  0  0  0  0  0
   39.1300   30.7920   40.2260 O   0  0  0  0  0  0  0  0  0  0  0  0
   38.1120   33.1160   40.7340 O   0  0  0  0  0  0  0  0  0  0  0  0
   39.2440   32.4460   39.9720 P   0  0  2  0  0  0  0  0  0  0  0  0
   38.9600   32.7220   38.3100 O   0  0  0  0  0  0  0  0  0  0  0  0
   37.9970   32.8310   38.1190 H   0  0  0  0  0  0  0  0  0  0  0  0
   40.7210   33.1130   40.4230 O   0  0  0  0  0  0  0  0  0  0  0  0
   41.7390   33.4700   39.5740 C   0  0  0  0  0  0  0  0  0  0  0  0
   43.0340   33.4790   40.1030 C   0  0  0  0  0  3  0  0  0  0  0  0
   44.1310   33.8260   39.3230 C   0  0  0  0  0  0  0  0  0  0  0  0
   45.1020   33.8080   39.8160 H   0  0  0  0  0  0  0  0  0  0  0  0
   43.9260   34.1610   38.0210 N   0  0  0  0  0  0  0  0  0  0  0  0
   42.6820   34.1500   37.5120 C   0  0  0  0  0  3  0  0  0  0  0  0
   41.6350   33.8140   38.2760 N   0  0  0  0  0  0  0  0  0  0  0  0
  1  2  2  0  0  0  0
  1  9  1  0  0  0  0
  2  3  1  0  0  0  0
  3 11  1  0  0  0  0
  3  4  2  0  0  0  0
  4  5  1  0  0  0  0
  5 12  1  0  0  0  0
  5  6  1  0  0  0  0
  6 13  1  0  0  0  0
  7  6  2  0  0  0  0
  8  4  1  0  0  0  0
  8  7  1  0  0  0  0
  9  8  2  0  0  0  0
 10  1  1  0  0  0  0
 14 20  1  0  0  0  0
 14 19  1  0  0  0  0
 15 14  2  0  0  0  0
 16 15  1  0  0  0  0
 16 17  2  0  0  0  0
 17 18  1  0  0  0  0
 18 19  2  0  0  0  0
 18  2  1  0  0  0  0
 21 16  1  0  0  0  0
 22 25  1  0  0  0  0
 22 15  1  0  0  0  0
 23 22  1  0  0  0  0
 24 22  1  0  0  0  0
 26  9  1  0  0  0  0
 28 26  1  0  0  0  0
 28 31  1  0  0  0  0
 28 27  2  1  0  0  0
 29 28  1  0  0  0  0
 30 29  1  0  0  0  0
 32 33  1  0  0  0  0
 32 31  1  0  0  0  0
 34 35  1  0  0  0  0
 34 33  2  0  0  0  0
 36 34  1  0  0  0  0
 37 36  2  0  0  0  0
 37 38  1  0  0  0  0
 38 32  2  0  0  0  0
M  END
>  <minimizedAffinity>
-5.8892622

$$$$

 OpenBabel03242513433D

 38 41  0  0  0  0  0  0  0  0999 V2000
   37.7410   29.1500   41.4040 C   0  0  0  0  0  0  0  0  0  0  0  0
   37.0910   28.0660   40.8600 C   0  0  0  0  0  0  0  0  0  0  0  0
   37.4690   26.8060   41.2800 C   0  0  0  0  0  0  0  0  0  0  0  0
   38.4570   26.5950   42.2100 C   0  0  0  0  0  0  0  0  0  0  0  0
   39.0490   25.5400   42.8180 N   0  0  0  0  0  0  0  0  0  0  0  0
   40.0030   25.9640   43.6790 C   0  0  0  0  0  0  0  0  0  0  0  0
   40.0040   27.2980   43.6070 N   0  0  0  0  0  0  0  0  0  0  0  0
   39.0760   27.7070   42.7230 C   0  0  0  0  0  0  0  0  0  0  0  0
   38.7510   28.9840   42.3510 C   0  0  0  0  0  0  0  0  0  0  0  0
   37.4560   30.1440   41.0840 H   0  0  0  0  0  0  0  0  0  0  0  0
   36.9720   25.9400   40.8670 H   0  0  0  0  0  0  0  0  0  0  0  0
   38.7920   24.5530   42.6330 H   0  0  0  0  0  0  0  0  0  0  0  0
   40.5980   25.2860   44.2700 H   0  0  0  0  0  0  0  0  0  0  0  0
   34.0690   29.2620   39.1860 C   0  0  0  0  0  0  0  0  0  0  0  0
   34.0800   28.5620   37.9840 C   0  0  0  0  0  0  0  0  0  0  0  0
   35.1430   27.6850   37.7800 C   0  0  0  0  0  0  0  0  0  0  0  0
   36.1100   27.5400   38.7290 N   0  0  0  0  0  0  0  0  0  0  0  0
   36.0350   28.2500   39.8690 C   0  0  0  0  0  0  0  0  0  0  0  0
   35.0370   29.1000   40.1070 N   0  0  0  0  0  0  0  0  0  0  0  0
   33.3040   29.9710   39.4690 H   0  0  0  0  0  0  0  0  0  0  0  0
   35.1510   27.1380   36.8410 H   0  0  0  0  0  0  0  0  0  0  0  0
   32.9700   28.7960   37.0160 C   0  0  0  0  0  0  0  0  0  0  0  0
   33.5470   29.4850   35.9730 F   0  0  0  0  0  0  0  0  0  0  0  0
   32.0170   29.5590   37.6330 F   0  0  0  0  0  0  0  0  0  0  0  0
   32.4670   27.5610   36.6370 F   0  0  0  0  0  0  0  0  0  0  0  0
   39.4100   30.0670   42.9030 O   0  0  0  0  0  0  0  0  0  0  0  0
   41.5610   29.8810   41.4770 O   0  0  0  0  0  0  0  0  0  0  0  0
   40.6850   30.8950   42.1950 P   0  0  2  0  0  0  0  0  0  0  0  0
   41.6220   31.5570   43.4610 O   0  0  0  0  0  0  0  0  0  0  0  0
   42.3060   30.9180   43.7790 H   0  0  0  0  0  0  0  0  0  0  0  0
   40.2140   32.1100   41.1310 O   0  0  0  0  0  0  0  0  0  0  0  0
   39.2960   31.9840   40.1180 C   0  0  0  0  0  0  0  0  0  0  0  0
   38.0690   32.6330   40.2880 C   0  0  0  0  0  3  0  0  0  0  0  0
   37.0740   32.5650   39.3190 C   0  0  0  0  0  0  0  0  0  0  0  0
   36.1500   33.0990   39.5340 H   0  0  0  0  0  0  0  0  0  0  0  0
   37.3140   31.8500   38.1880 N   0  0  0  0  0  0  0  0  0  0  0  0
   38.4940   31.2270   38.0240 C   0  0  0  0  0  3  0  0  0  0  0  0
   39.4420   31.3010   38.9670 N   0  0  0  0  0  0  0  0  0  0  0  0
  1  9  1  0  0  0  0
  2  3  1  0  0  0  0
  2  1  2  0  0  0  0
  3  4  2  0  0  0  0
  4  8  1  0  0  0  0
  4  5  1  0  0  0  0
  5  6  1  0  0  0  0
  6 13  1  0  0  0  0
  7  6  2  0  0  0  0
  8  7  1  0  0  0  0
  9  8  2  0  0  0  0
  9 26  1  0  0  0  0
 10  1  1  0  0  0  0
 11  3  1  0  0  0  0
 12  5  1  0  0  0  0
 14 20  1  0  0  0  0
 14 19  1  0  0  0  0
 15 14  2  0  0  0  0
 16 15  1  0  0  0  0
 16 17  2  0  0  0  0
 17 18  1  0  0  0  0
 18 19  2  0  0  0  0
 18  2  1  0  0  0  0
 21 16  1  0  0  0  0
 22 24  1  0  0  0  0
 22 15  1  0  0  0  0
 23 22  1  0  0  0  0
 25 22  1  0  0  0  0
 28 27  2  6  0  0  0
 28 26  1  0  0  0  0
 28 29  1  0  0  0  0
 29 30  1  0  0  0  0
 31 28  1  0  0  0  0
 32 33  1  0  0  0  0
 32 31  1  0  0  0  0
 34 35  1  0  0  0  0
 34 33  2  0  0  0  0
 36 34  1  0  0  0  0
 37 36  2  0  0  0  0
 37 38  1  0  0  0  0
 38 32  2  0  0  0  0
M  END
>  <minimizedAffinity>
-5.88063765

$$$$

 OpenBabel03242513433D

 38 41  0  0  0  0  0  0  0  0999 V2000
   38.3810   29.5780   38.0730 C   0  0  0  0  0  0  0  0  0  0  0  0
   39.7000   29.9420   37.9230 C   0  0  0  0  0  0  0  0  0  0  0  0
   40.0680   31.2160   38.3080 C   0  0  0  0  0  0  0  0  0  0  0  0
   39.1780   32.1240   38.8290 C   0  0  0  0  0  0  0  0  0  0  0  0
   39.2030   33.3980   39.2870 N   0  0  0  0  0  0  0  0  0  0  0  0
   37.9690   33.7800   39.6890 C   0  0  0  0  0  0  0  0  0  0  0  0
   37.1670   32.7310   39.4790 N   0  0  0  0  0  0  0  0  0  0  0  0
   37.8750   31.7140   38.9580 C   0  0  0  0  0  0  0  0  0  0  0  0
   37.4430   30.4660   38.5970 C   0  0  0  0  0  0  0  0  0  0  0  0
   38.0780   28.5810   37.7760 H   0  0  0  0  0  0  0  0  0  0  0  0
   41.0970   31.5240   38.2000 H   0  0  0  0  0  0  0  0  0  0  0  0
   40.0600   33.9800   39.3140 H   0  0  0  0  0  0  0  0  0  0  0  0
   37.7640   34.7600   40.0900 H   0  0  0  0  0  0  0  0  0  0  0  0
   42.6860   28.5830   36.3120 C   0  0  0  0  0  0  0  0  0  0  0  0
   42.4690   27.2090   36.3590 C   0  0  0  0  0  0  0  0  0  0  0  0
   41.2830   26.7830   36.9530 C   0  0  0  0  0  0  0  0  0  0  0  0
   40.3980   27.6900   37.4540 N   0  0  0  0  0  0  0  0  0  0  0  0
   40.6750   29.0030   37.3740 C   0  0  0  0  0  0  0  0  0  0  0  0
   41.7950   29.4570   36.8140 N   0  0  0  0  0  0  0  0  0  0  0  0
   43.5630   29.0440   35.8790 H   0  0  0  0  0  0  0  0  0  0  0  0
   41.1140   25.7110   36.9900 H   0  0  0  0  0  0  0  0  0  0  0  0
   43.5050   26.3060   35.7790 C   0  0  0  0  0  0  0  0  0  0  0  0
   44.6610   27.0530   35.7670 F   0  0  0  0  0  0  0  0  0  0  0  0
   43.1240   25.9800   34.5060 F   0  0  0  0  0  0  0  0  0  0  0  0
   43.5930   25.1840   36.5880 F   0  0  0  0  0  0  0  0  0  0  0  0
   36.1160   30.1090   38.7510 O   0  0  0  0  0  0  0  0  0  0  0  0
   33.9550   29.2430   39.8800 O   0  0  0  0  0  0  0  0  0  0  0  0
   35.4240   29.5160   40.1590 P   0  0  2  0  0  0  0  0  0  0  0  0
   35.4880   30.7680   41.3190 O   0  0  0  0  0  0  0  0  0  0  0  0
   34.6960   31.3570   41.2630 H   0  0  0  0  0  0  0  0  0  0  0  0
   36.1670   28.1320   40.7630 O   0  0  0  0  0  0  0  0  0  0  0  0
   37.2380   28.1010   41.6200 C   0  0  0  0  0  0  0  0  0  0  0  0
   37.5400   26.8710   42.2150 C   0  0  0  0  0  3  0  0  0  0  0  0
   38.6050   26.7350   43.0980 C   0  0  0  0  0  0  0  0  0  0  0  0
   38.7670   25.7430   43.5150 H   0  0  0  0  0  0  0  0  0  0  0  0
   39.3610   27.8300   43.3800 N   0  0  0  0  0  0  0  0  0  0  0  0
   39.0730   29.0120   42.8070 C   0  0  0  0  0  3  0  0  0  0  0  0
   38.0430   29.1250   41.9590 N   0  0  0  0  0  0  0  0  0  0  0  0
  1  9  1  0  0  0  0
  2  1  2  0  0  0  0
  2  3  1  0  0  0  0
  3  4  2  0  0  0  0
  4  8  1  0  0  0  0
  4  5  1  0  0  0  0
  5 12  1  0  0  0  0
  5  6  1  0  0  0  0
  6 13  1  0  0  0  0
  7  6  2  0  0  0  0
  8  7  1  0  0  0  0
  9 26  1  0  0  0  0
  9  8  2  0  0  0  0
 10  1  1  0  0  0  0
 11  3  1  0  0  0  0
 14 15  2  0  0  0  0
 14 19  1  0  0  0  0
 15 16  1  0  0  0  0
 16 21  1  0  0  0  0
 16 17  2  0  0  0  0
 18 17  1  0  0  0  0
 18  2  1  0  0  0  0
 19 18  2  0  0  0  0
 20 14  1  0  0  0  0
 22 15  1  0  0  0  0
 22 25  1  0  0  0  0
 23 22  1  0  0  0  0
 24 22  1  0  0  0  0
 26 28  1  0  0  0  0
 28 27  2  6  0  0  0
 28 31  1  0  0  0  0
 28 29  1  0  0  0  0
 30 29  1  0  0  0  0
 31 32  1  0  0  0  0
 32 38  2  0  0  0  0
 32 33  1  0  0  0  0
 33 34  2  0  0  0  0
 34 36  1  0  0  0  0
 34 35  1  0  0  0  0
 37 36  2  0  0  0  0
 38 37  1  0  0  0  0
M  END
>  <minimizedAffinity>
-5.8444047

$$$$

 OpenBabel03242513433D

 38 41  0  0  0  0  0  0  0  0999 V2000
   36.7580   27.0280   39.7560 C   0  0  0  0  0  0  0  0  0  0  0  0
   36.5320   28.0330   38.8430 C   0  0  0  0  0  0  0  0  0  0  0  0
   35.9120   27.7020   37.6550 C   0  0  0  0  0  0  0  0  0  0  0  0
   35.5150   26.4220   37.3520 C   0  0  0  0  0  0  0  0  0  0  0  0
   34.9090   25.7790   36.3260 N   0  0  0  0  0  0  0  0  0  0  0  0
   34.7780   24.4610   36.6040 C   0  0  0  0  0  0  0  0  0  0  0  0
   35.3080   24.2820   37.8180 N   0  0  0  0  0  0  0  0  0  0  0  0
   35.7630   25.4550   38.2940 C   0  0  0  0  0  0  0  0  0  0  0  0
   36.3730   25.7150   39.4920 C   0  0  0  0  0  0  0  0  0  0  0  0
   37.2430   27.2740   40.6920 H   0  0  0  0  0  0  0  0  0  0  0  0
   35.7240   28.4740   36.9230 H   0  0  0  0  0  0  0  0  0  0  0  0
   34.5990   26.2520   35.4570 H   0  0  0  0  0  0  0  0  0  0  0  0
   34.3200   23.7640   35.9210 H   0  0  0  0  0  0  0  0  0  0  0  0
   38.1020   31.3220   38.5570 C   0  0  0  0  0  0  0  0  0  0  0  0
   37.6720   31.9740   39.7090 C   0  0  0  0  0  0  0  0  0  0  0  0
   36.8430   31.2520   40.5640 C   0  0  0  0  0  0  0  0  0  0  0  0
   36.4860   29.9730   40.2620 N   0  0  0  0  0  0  0  0  0  0  0  0
   36.9390   29.4060   39.1290 C   0  0  0  0  0  0  0  0  0  0  0  0
   37.7340   30.0580   38.2820 N   0  0  0  0  0  0  0  0  0  0  0  0
   38.7470   31.7680   37.8120 H   0  0  0  0  0  0  0  0  0  0  0  0
   36.5080   31.7620   41.4640 H   0  0  0  0  0  0  0  0  0  0  0  0
   38.1250   33.3760   39.9420 C   0  0  0  0  0  0  0  0  0  0  0  0
   37.0550   34.1610   39.5770 F   0  0  0  0  0  0  0  0  0  0  0  0
   39.2020   33.6180   39.1340 F   0  0  0  0  0  0  0  0  0  0  0  0
   38.4560   33.4990   41.2830 F   0  0  0  0  0  0  0  0  0  0  0  0
   36.5960   24.6990   40.4020 O   0  0  0  0  0  0  0  0  0  0  0  0
   39.1580   24.6200   40.0520 O   0  0  0  0  0  0  0  0  0  0  0  0
   38.0800   24.3020   41.0750 P   0  0  2  0  0  0  0  0  0  0  0  0
   38.0940   22.6100   41.3060 O   0  0  0  0  0  0  0  0  0  0  0  0
   38.4130   22.1350   40.5000 H   0  0  0  0  0  0  0  0  0  0  0  0
   38.4110   25.0850   42.5270 O   0  0  0  0  0  0  0  0  0  0  0  0
   38.5030   26.4420   42.7090 C   0  0  0  0  0  0  0  0  0  0  0  0
   37.3840   27.0880   43.2460 C   0  0  0  0  0  3  0  0  0  0  0  0
   37.3770   28.4600   43.4680 C   0  0  0  0  0  0  0  0  0  0  0  0
   36.4650   28.8800   43.8880 H   0  0  0  0  0  0  0  0  0  0  0  0
   38.4900   29.1770   43.1530 N   0  0  0  0  0  0  0  0  0  0  0  0
   39.5660   28.5560   42.6380 C   0  0  0  0  0  3  0  0  0  0  0  0
   39.5550   27.2330   42.4300 N   0  0  0  0  0  0  0  0  0  0  0  0
  1 10  1  0  0  0  0
  2 18  1  0  0  0  0
  2  1  2  0  0  0  0
  3  2  1  0  0  0  0
  4  3  2  0  0  0  0
  4  8  1  0  0  0  0
  5  6  1  0  0  0  0
  5  4  1  0  0  0  0
  6  7  2  0  0  0  0
  7  8  1  0  0  0  0
  8  9  2  0  0  0  0
  9  1  1  0  0  0  0
  9 26  1  0  0  0  0
 11  3  1  0  0  0  0
 12  5  1  0  0  0  0
 13  6  1  0  0  0  0
 14 15  1  0  0  0  0
 15 22  1  0  0  0  0
 15 16  2  0  0  0  0
 16 21  1  0  0  0  0
 17 16  1  0  0  0  0
 18 17  2  0  0  0  0
 19 14  2  0  0  0  0
 19 18  1  0  0  0  0
 20 14  1  0  0  0  0
 22 25  1  0  0  0  0
 23 22  1  0  0  0  0
 24 22  1  0  0  0  0
 26 28  1  0  0  0  0
 28 27  2  6  0  0  0
 28 29  1  0  0  0  0
 28 31  1  0  0  0  0
 30 29  1  0  0  0  0
 31 32  1  0  0  0  0
 32 33  1  0  0  0  0
 33 34  2  0  0  0  0
 34 35  1  0  0  0  0
 36 34  1  0  0  0  0
 37 36  2  0  0  0  0
 38 37  1  0  0  0  0
 38 32  2  0  0  0  0
M  END
>  <minimizedAffinity>
-5.78689098

$$$$

 OpenBabel03242513433D

 38 41  0  0  0  0  0  0  0  0999 V2000
   36.7750   29.8110   39.9410 C   0  0  0  0  0  0  0  0  0  0  0  0
   36.6510   30.3160   38.6670 C   0  0  0  0  0  0  0  0  0  0  0  0
   37.3830   31.4410   38.3420 C   0  0  0  0  0  0  0  0  0  0  0  0
   38.2220   32.0670   39.2320 C   0  0  0  0  0  0  0  0  0  0  0  0
   39.0490   33.1400   39.2410 N   0  0  0  0  0  0  0  0  0  0  0  0
   39.6370   33.2730   40.4520 C   0  0  0  0  0  0  0  0  0  0  0  0
   39.1710   32.2730   41.2050 N   0  0  0  0  0  0  0  0  0  0  0  0
   38.3110   31.5260   40.4900 C   0  0  0  0  0  0  0  0  0  0  0  0
   37.6130   30.4140   40.8780 C   0  0  0  0  0  0  0  0  0  0  0  0
   36.2060   28.9290   40.2110 H   0  0  0  0  0  0  0  0  0  0  0  0
   37.3030   31.8550   37.3480 H   0  0  0  0  0  0  0  0  0  0  0  0
   39.1940   33.7580   38.4220 H   0  0  0  0  0  0  0  0  0  0  0  0
   40.3350   34.0640   40.6770 H   0  0  0  0  0  0  0  0  0  0  0  0
   33.8130   28.5540   37.1830 C   0  0  0  0  0  0  0  0  0  0  0  0
   34.1550   28.4920   35.8350 C   0  0  0  0  0  0  0  0  0  0  0  0
   35.3690   29.0670   35.4710 C   0  0  0  0  0  0  0  0  0  0  0  0
   36.1640   29.6540   36.4090 N   0  0  0  0  0  0  0  0  0  0  0  0
   35.7700   29.6770   37.6940 C   0  0  0  0  0  0  0  0  0  0  0  0
   34.6160   29.1400   38.0890 N   0  0  0  0  0  0  0  0  0  0  0  0
   32.9010   28.1470   37.5970 H   0  0  0  0  0  0  0  0  0  0  0  0
   35.6360   29.0180   34.4180 H   0  0  0  0  0  0  0  0  0  0  0  0
   33.2100   27.8230   34.8940 C   0  0  0  0  0  0  0  0  0  0  0  0
   34.0120   27.2440   33.9370 F   0  0  0  0  0  0  0  0  0  0  0  0
   32.4080   28.7820   34.3390 F   0  0  0  0  0  0  0  0  0  0  0  0
   32.4730   26.8970   35.6160 F   0  0  0  0  0  0  0  0  0  0  0  0
   37.7440   29.9130   42.1600 O   0  0  0  0  0  0  0  0  0  0  0  0
   37.8850   27.4780   41.2990 O   0  0  0  0  0  0  0  0  0  0  0  0
   37.7370   28.2890   42.5760 P   0  0  2  0  0  0  0  0  0  0  0  0
   36.1930   27.9370   43.2160 O   0  0  0  0  0  0  0  0  0  0  0  0
   35.5540   27.6840   42.5060 H   0  0  0  0  0  0  0  0  0  0  0  0
   38.9310   27.8550   43.6790 O   0  0  0  0  0  0  0  0  0  0  0  0
   39.9420   26.9520   43.4610 C   0  0  0  0  0  0  0  0  0  0  0  0
   41.2530   27.4310   43.5540 C   0  0  0  0  0  3  0  0  0  0  0  0
   42.3450   26.5960   43.3490 C   0  0  0  0  0  0  0  0  0  0  0  0
   43.3290   27.0520   43.4400 H   0  0  0  0  0  0  0  0  0  0  0  0
   42.1190   25.2880   43.0540 N   0  0  0  0  0  0  0  0  0  0  0  0
   40.8590   24.8270   42.9670 C   0  0  0  0  0  3  0  0  0  0  0  0
   39.8180   25.6450   43.1660 N   0  0  0  0  0  0  0  0  0  0  0  0
  1 10  1  0  0  0  0
  1  9  1  0  0  0  0
  2  1  2  0  0  0  0
  3  2  1  0  0  0  0
  3  4  2  0  0  0  0
  4  5  1  0  0  0  0
  4  8  1  0  0  0  0
  5  6  1  0  0  0  0
  6 13  1  0  0  0  0
  6  7  2  0  0  0  0
  8  9  2  0  0  0  0
  8  7  1  0  0  0  0
  9 26  1  0  0  0  0
 11  3  1  0  0  0  0
 12  5  1  0  0  0  0
 14 20  1  0  0  0  0
 14 19  1  0  0  0  0
 15 14  2  0  0  0  0
 16 15  1  0  0  0  0
 16 17  2  0  0  0  0
 17 18  1  0  0  0  0
 18 19  2  0  0  0  0
 18  2  1  0  0  0  0
 21 16  1  0  0  0  0
 22 25  1  0  0  0  0
 22 15  1  0  0  0  0
 23 22  1  0  0  0  0
 24 22  1  0  0  0  0
 26 28  1  0  0  0  0
 28 27  2  6  0  0  0
 28 29  1  0  0  0  0
 28 31  1  0  0  0  0
 30 29  1  0  0  0  0
 32 33  1  0  0  0  0
 32 31  1  0  0  0  0
 34 35  1  0  0  0  0
 34 33  2  0  0  0  0
 36 34  1  0  0  0  0
 37 36  2  0  0  0  0
 37 38  1  0  0  0  0
 38 32  2  0  0  0  0
M  END
>  <minimizedAffinity>
-5.74919844

$$$$

 OpenBabel03242513433D

 38 41  0  0  0  0  0  0  0  0999 V2000
   36.5800   27.8110   39.3240 C   0  0  0  0  0  0  0  0  0  0  0  0
   36.6950   27.3490   38.0330 C   0  0  0  0  0  0  0  0  0  0  0  0
   36.9220   26.0000   37.8450 C   0  0  0  0  0  0  0  0  0  0  0  0
   37.0360   25.1110   38.8860 C   0  0  0  0  0  0  0  0  0  0  0  0
   37.2500   23.7840   39.0480 N   0  0  0  0  0  0  0  0  0  0  0  0
   37.2640   23.4640   40.3630 C   0  0  0  0  0  0  0  0  0  0  0  0
   37.0570   24.6050   41.0270 N   0  0  0  0  0  0  0  0  0  0  0  0
   36.9160   25.6190   40.1550 C   0  0  0  0  0  0  0  0  0  0  0  0
   36.6900   26.9450   40.4120 C   0  0  0  0  0  0  0  0  0  0  0  0
   36.4010   28.8660   39.4870 H   0  0  0  0  0  0  0  0  0  0  0  0
   37.0150   25.6140   36.8410 H   0  0  0  0  0  0  0  0  0  0  0  0
   37.3830   23.1240   38.2600 H   0  0  0  0  0  0  0  0  0  0  0  0
   37.4190   22.4570   40.7160 H   0  0  0  0  0  0  0  0  0  0  0  0
   36.8660   30.3620   35.9700 C   0  0  0  0  0  0  0  0  0  0  0  0
   36.3380   29.9380   34.7540 C   0  0  0  0  0  0  0  0  0  0  0  0
   35.9320   28.6080   34.6780 C   0  0  0  0  0  0  0  0  0  0  0  0
   36.0570   27.7850   35.7570 N   0  0  0  0  0  0  0  0  0  0  0  0
   36.5780   28.2640   36.9010 C   0  0  0  0  0  0  0  0  0  0  0  0
   36.9790   29.5280   37.0200 N   0  0  0  0  0  0  0  0  0  0  0  0
   37.2180   31.3660   36.1620 H   0  0  0  0  0  0  0  0  0  0  0  0
   35.5190   28.2780   33.7290 H   0  0  0  0  0  0  0  0  0  0  0  0
   36.2450   30.9240   33.6380 C   0  0  0  0  0  0  0  0  0  0  0  0
   34.9170   31.2780   33.5870 F   0  0  0  0  0  0  0  0  0  0  0  0
   36.6270   30.2990   32.4830 F   0  0  0  0  0  0  0  0  0  0  0  0
   37.0800   31.9890   33.9420 F   0  0  0  0  0  0  0  0  0  0  0  0
   36.5770   27.4000   41.7120 O   0  0  0  0  0  0  0  0  0  0  0  0
   38.5110   27.1300   43.4090 O   0  0  0  0  0  0  0  0  0  0  0  0
   37.7830   28.1770   42.5810 P   0  0  2  0  0  0  0  0  0  0  0  0
   37.0140   29.2350   43.6790 O   0  0  0  0  0  0  0  0  0  0  0  0
   36.7930   28.7820   44.5280 H   0  0  0  0  0  0  0  0  0  0  0  0
   38.8790   29.0290   41.6310 O   0  0  0  0  0  0  0  0  0  0  0  0
   38.6570   30.2470   41.0390 C   0  0  0  0  0  0  0  0  0  0  0  0
   39.7380   30.8390   40.3780 C   0  0  0  0  0  3  0  0  0  0  0  0
   39.6150   32.0720   39.7480 C   0  0  0  0  0  0  0  0  0  0  0  0
   40.5070   32.4590   39.2580 H   0  0  0  0  0  0  0  0  0  0  0  0
   38.4120   32.7050   39.7840 N   0  0  0  0  0  0  0  0  0  0  0  0
   37.3720   32.1360   40.4190 C   0  0  0  0  0  3  0  0  0  0  0  0
   37.5070   30.9470   41.0200 N   0  0  0  0  0  0  0  0  0  0  0  0
  1 10  1  0  0  0  0
  1  9  1  0  0  0  0
  2  1  2  0  0  0  0
  3  2  1  0  0  0  0
  3  4  2  0  0  0  0
  4  5  1  0  0  0  0
  4  8  1  0  0  0  0
  5  6  1  0  0  0  0
  6 13  1  0  0  0  0
  6  7  2  0  0  0  0
  8  9  2  0  0  0  0
  8  7  1  0  0  0  0
  9 26  1  0  0  0  0
 11  3  1  0  0  0  0
 12  5  1  0  0  0  0
 14 20  1  0  0  0  0
 14 19  1  0  0  0  0
 15 14  2  0  0  0  0
 16 15  1  0  0  0  0
 16 17  2  0  0  0  0
 17 18  1  0  0  0  0
 18 19  2  0  0  0  0
 18  2  1  0  0  0  0
 21 16  1  0  0  0  0
 22 25  1  0  0  0  0
 22 15  1  0  0  0  0
 23 22  1  0  0  0  0
 24 22  1  0  0  0  0
 26 28  1  0  0  0  0
 28 27  2  1  0  0  0
 28 29  1  0  0  0  0
 29 30  1  0  0  0  0
 31 28  1  0  0  0  0
 32 31  1  0  0  0  0
 33 32  2  0  0  0  0
 34 36  2  0  0  0  0
 34 33  1  0  0  0  0
 35 34  1  0  0  0  0
 36 37  1  0  0  0  0
 37 38  2  0  0  0  0
 38 32  1  0  0  0  0
M  END
>  <minimizedAffinity>
-5.70913219

$$$$
