
 OpenBabel03242512103D

 31 33  0  0  1  0  0  0  0  0999 V2000
   36.5860   28.7390   40.2890 C   0  0  1  0  0  0  0  0  0  0  0  0
   35.0530   29.0790   40.4320 C   0  0  0  0  0  0  0  0  0  0  0  0
   36.1120   30.0720   40.6390 C   0  0  2  0  0  0  0  0  0  0  0  0
   36.8830   28.5360   39.2480 H   0  0  0  0  0  0  0  0  0  0  0  0
   34.5010   29.0560   39.4720 H   0  0  0  0  0  0  0  0  0  0  0  0
   34.5290   28.6230   41.2950 H   0  0  0  0  0  0  0  0  0  0  0  0
   36.4870   30.3880   41.6240 H   0  0  0  0  0  0  0  0  0  0  0  0
   37.0430   27.7950   41.3480 C   0  0  0  0  0  0  0  0  0  0  0  0
   37.3850   28.2750   42.4220 O   0  0  0  0  0  0  0  0  0  0  0  0
   36.8150   25.7340   40.0400 C   0  0  0  0  0  0  0  0  0  0  0  0
   37.1060   26.3780   41.1940 C   0  0  0  0  0  0  0  0  0  0  0  0
   37.4980   25.5800   42.3070 C   0  0  0  0  0  0  0  0  0  0  0  0
   37.5710   24.2320   42.1930 N   0  0  0  0  0  0  0  0  0  0  0  0
   37.2670   23.6310   41.0040 C   0  0  0  0  0  0  0  0  0  0  0  0
   36.9010   24.3680   39.9680 N   0  0  0  0  0  0  0  0  0  0  0  0
   36.5090   26.2780   39.1550 H   0  0  0  0  0  0  0  0  0  0  0  0
   37.7530   25.9590   43.2630 H   0  0  0  0  0  0  0  0  0  0  0  0
   37.3330   22.5650   40.9420 H   0  0  0  0  0  0  0  0  0  0  0  0
   36.1160   31.0990   39.7050 O   0  0  0  0  0  0  0  0  0  0  0  0
   38.2470   31.3300   41.1350 O   0  0  0  0  0  0  0  0  0  0  0  0
   37.5420   31.9880   39.9600 P   0  0  2  0  0  0  0  0  0  0  0  0
   37.2760   33.6090   40.2220 O   0  0  0  0  0  0  0  0  0  0  0  0
   38.0370   34.1520   39.9560 H   0  0  0  0  0  0  0  0  0  0  0  0
   38.5840   31.7220   38.6130 O   0  0  0  0  0  0  0  0  0  0  0  0
   39.7640   32.3960   38.4010 C   0  0  0  0  0  0  0  0  0  0  0  0
   40.7210   32.1970   37.4190 C   0  0  0  0  0  3  0  0  0  0  0  0
   41.8490   32.9930   37.3820 C   0  0  0  0  0  0  0  0  0  0  0  0
   42.5710   32.8010   36.5950 H   0  0  0  0  0  0  0  0  0  0  0  0
   42.0080   33.9710   38.3170 N   0  0  0  0  0  0  0  0  0  0  0  0
   41.0700   34.1580   39.2700 C   0  0  0  0  0  3  0  0  0  0  0  0
   39.9490   33.3830   39.3260 N   0  0  0  0  0  0  0  0  0  0  0  0
  1  4  1  6  0  0  0
  1  2  1  0  0  0  0
  1  3  1  0  0  0  0
  1  8  1  0  0  0  0
  2  3  1  0  0  0  0
  2  6  1  0  0  0  0
  3  7  1  1  0  0  0
  5  2  1  0  0  0  0
  8  9  2  0  0  0  0
 10 11  1  0  0  0  0
 11  8  1  0  0  0  0
 11 12  2  0  0  0  0
 12 17  1  0  0  0  0
 13 12  1  0  0  0  0
 14 13  2  0  0  0  0
 15 10  2  0  0  0  0
 15 14  1  0  0  0  0
 16 10  1  0  0  0  0
 18 14  1  0  0  0  0
 19 21  1  0  0  0  0
 19  3  1  0  0  0  0
 21 22  1  0  0  0  0
 21 20  2  1  0  0  0
 23 22  1  0  0  0  0
 24 21  1  0  0  0  0
 25 24  1  0  0  0  0
 25 31  1  0  0  0  0
 26 25  2  0  0  0  0
 27 26  1  0  0  0  0
 27 29  2  0  0  0  0
 28 27  1  0  0  0  0
 29 30  1  0  0  0  0
 30 31  2  0  0  0  0
M  END
>  <minimizedAffinity>
-5.04766655

$$$$

 OpenBabel03242512103D

 31 33  0  0  1  0  0  0  0  0999 V2000
   37.2390   26.1540   41.8390 C   0  0  1  0  0  0  0  0  0  0  0  0
   36.4780   26.8240   43.0470 C   0  0  0  0  0  0  0  0  0  0  0  0
   37.1750   27.6000   42.0160 C   0  0  2  0  0  0  0  0  0  0  0  0
   36.5590   25.6760   41.1180 H   0  0  0  0  0  0  0  0  0  0  0  0
   35.3770   26.7080   42.9970 H   0  0  0  0  0  0  0  0  0  0  0  0
   36.9290   26.6820   44.0490 H   0  0  0  0  0  0  0  0  0  0  0  0
   38.1780   28.0360   42.1360 H   0  0  0  0  0  0  0  0  0  0  0  0
   38.4320   25.3870   42.2960 C   0  0  0  0  0  0  0  0  0  0  0  0
   38.2820   24.1930   42.5260 O   0  0  0  0  0  0  0  0  0  0  0  0
   40.0880   26.6730   43.5690 C   0  0  0  0  0  0  0  0  0  0  0  0
   39.7310   25.9490   42.4830 C   0  0  0  0  0  0  0  0  0  0  0  0
   40.7220   25.7440   41.4800 C   0  0  0  0  0  0  0  0  0  0  0  0
   41.9650   26.2610   41.6290 N   0  0  0  0  0  0  0  0  0  0  0  0
   42.2740   26.9850   42.7460 C   0  0  0  0  0  0  0  0  0  0  0  0
   41.3570   27.1780   43.6790 N   0  0  0  0  0  0  0  0  0  0  0  0
   39.3850   26.8680   44.3690 H   0  0  0  0  0  0  0  0  0  0  0  0
   40.5720   25.1960   40.5860 H   0  0  0  0  0  0  0  0  0  0  0  0
   43.2630   27.3810   42.8370 H   0  0  0  0  0  0  0  0  0  0  0  0
   36.3370   28.3780   41.2300 O   0  0  0  0  0  0  0  0  0  0  0  0
   37.7980   30.0230   42.5710 O   0  0  0  0  0  0  0  0  0  0  0  0
   36.9050   29.9760   41.3420 P   0  0  2  0  0  0  0  0  0  0  0  0
   35.6900   31.1100   41.4120 O   0  0  0  0  0  0  0  0  0  0  0  0
   35.9730   31.9720   41.0640 H   0  0  0  0  0  0  0  0  0  0  0  0
   37.9670   30.2590   40.0130 O   0  0  0  0  0  0  0  0  0  0  0  0
   38.6540   31.4330   39.8080 C   0  0  0  0  0  0  0  0  0  0  0  0
   39.7830   31.6610   39.0370 C   0  0  0  0  0  3  0  0  0  0  0  0
   40.3230   32.9300   38.9640 C   0  0  0  0  0  0  0  0  0  0  0  0
   41.2070   33.0620   38.3490 H   0  0  0  0  0  0  0  0  0  0  0  0
   39.7360   33.9480   39.6530 N   0  0  0  0  0  0  0  0  0  0  0  0
   38.6370   33.7160   40.4000 C   0  0  0  0  0  3  0  0  0  0  0  0
   38.0860   32.4710   40.4880 N   0  0  0  0  0  0  0  0  0  0  0  0
  1  4  1  6  0  0  0
  1  3  1  0  0  0  0
  1  8  1  0  0  0  0
  1  2  1  0  0  0  0
  2  6  1  0  0  0  0
  3  7  1  1  0  0  0
  3  2  1  0  0  0  0
  5  2  1  0  0  0  0
  8 11  1  0  0  0  0
  8  9  2  0  0  0  0
 10 15  1  0  0  0  0
 10 16  1  0  0  0  0
 11 10  2  0  0  0  0
 12 13  2  0  0  0  0
 12 11  1  0  0  0  0
 13 14  1  0  0  0  0
 14 18  1  0  0  0  0
 14 15  2  0  0  0  0
 17 12  1  0  0  0  0
 19 21  1  0  0  0  0
 19  3  1  0  0  0  0
 21 22  1  0  0  0  0
 21 20  2  1  0  0  0
 23 22  1  0  0  0  0
 24 21  1  0  0  0  0
 25 24  1  0  0  0  0
 25 31  1  0  0  0  0
 26 25  2  0  0  0  0
 27 26  1  0  0  0  0
 27 29  2  0  0  0  0
 28 27  1  0  0  0  0
 29 30  1  0  0  0  0
 30 31  2  0  0  0  0
M  END
>  <minimizedAffinity>
-4.99339104

$$$$

 OpenBabel03242512103D

 31 33  0  0  1  0  0  0  0  0999 V2000
   38.8350   27.4030   43.4100 C   0  0  1  0  0  0  0  0  0  0  0  0
   39.7520   28.4830   42.7180 C   0  0  0  0  0  0  0  0  0  0  0  0
   38.3300   28.3210   42.3970 C   0  0  2  0  0  0  0  0  0  0  0  0
   38.6420   27.6230   44.4710 H   0  0  0  0  0  0  0  0  0  0  0  0
   40.0720   29.2960   43.3990 H   0  0  0  0  0  0  0  0  0  0  0  0
   40.5330   28.0960   42.0340 H   0  0  0  0  0  0  0  0  0  0  0  0
   37.9460   27.7810   41.5190 H   0  0  0  0  0  0  0  0  0  0  0  0
   39.2410   26.0170   43.0410 C   0  0  0  0  0  0  0  0  0  0  0  0
   40.1540   25.5080   43.6800 O   0  0  0  0  0  0  0  0  0  0  0  0
   39.2700   24.9160   40.8510 C   0  0  0  0  0  0  0  0  0  0  0  0
   38.6380   25.2490   42.0000 C   0  0  0  0  0  0  0  0  0  0  0  0
   37.2980   24.7960   42.1640 C   0  0  0  0  0  0  0  0  0  0  0  0
   36.6990   24.0610   41.1970 N   0  0  0  0  0  0  0  0  0  0  0  0
   37.3820   23.7520   40.0540 C   0  0  0  0  0  0  0  0  0  0  0  0
   38.6270   24.1710   39.8970 N   0  0  0  0  0  0  0  0  0  0  0  0
   40.2890   25.2270   40.6600 H   0  0  0  0  0  0  0  0  0  0  0  0
   36.6960   24.9850   43.0150 H   0  0  0  0  0  0  0  0  0  0  0  0
   36.8850   23.1710   39.3060 H   0  0  0  0  0  0  0  0  0  0  0  0
   37.5420   29.4090   42.7500 O   0  0  0  0  0  0  0  0  0  0  0  0
   38.3440   31.1960   41.0760 O   0  0  0  0  0  0  0  0  0  0  0  0
   37.1860   30.2410   41.3110 P   0  0  2  0  0  0  0  0  0  0  0  0
   35.7240   31.0330   41.3470 O   0  0  0  0  0  0  0  0  0  0  0  0
   35.3420   31.1370   40.4590 H   0  0  0  0  0  0  0  0  0  0  0  0
   37.2700   29.1140   40.0090 O   0  0  0  0  0  0  0  0  0  0  0  0
   36.3960   29.0910   38.9480 C   0  0  0  0  0  0  0  0  0  0  0  0
   36.6550   29.2630   37.5970 C   0  0  0  0  0  3  0  0  0  0  0  0
   35.6220   29.2020   36.6820 C   0  0  0  0  0  0  0  0  0  0  0  0
   35.8710   29.3420   35.6360 H   0  0  0  0  0  0  0  0  0  0  0  0
   34.3530   28.9710   37.1210 N   0  0  0  0  0  0  0  0  0  0  0  0
   34.1100   28.8040   38.4380 C   0  0  0  0  0  3  0  0  0  0  0  0
   35.1150   28.8610   39.3590 N   0  0  0  0  0  0  0  0  0  0  0  0
  1  4  1  1  0  0  0
  2  5  1  0  0  0  0
  2  1  1  0  0  0  0
  3  7  1  6  0  0  0
  3  2  1  0  0  0  0
  3 19  1  0  0  0  0
  3  1  1  0  0  0  0
  6  2  1  0  0  0  0
  8  1  1  0  0  0  0
  8  9  2  0  0  0  0
 10 11  1  0  0  0  0
 11 12  2  0  0  0  0
 11  8  1  0  0  0  0
 12 17  1  0  0  0  0
 13 12  1  0  0  0  0
 14 13  2  0  0  0  0
 15 14  1  0  0  0  0
 15 10  2  0  0  0  0
 16 10  1  0  0  0  0
 18 14  1  0  0  0  0
 21 20  2  6  0  0  0
 21 22  1  0  0  0  0
 21 19  1  0  0  0  0
 23 22  1  0  0  0  0
 24 21  1  0  0  0  0
 25 31  1  0  0  0  0
 25 24  1  0  0  0  0
 26 25  2  0  0  0  0
 27 29  2  0  0  0  0
 27 26  1  0  0  0  0
 28 27  1  0  0  0  0
 29 30  1  0  0  0  0
 30 31  2  0  0  0  0
M  END
>  <minimizedAffinity>
-4.93701267

$$$$

 OpenBabel03242512103D

 31 33  0  0  1  0  0  0  0  0999 V2000
   36.1750   30.3720   39.8380 C   0  0  1  0  0  0  0  0  0  0  0  0
   35.2590   29.3270   39.0910 C   0  0  0  0  0  0  0  0  0  0  0  0
   36.2450   28.9410   40.1060 C   0  0  2  0  0  0  0  0  0  0  0  0
   35.6110   31.0150   40.5300 H   0  0  0  0  0  0  0  0  0  0  0  0
   34.1880   29.4000   39.3640 H   0  0  0  0  0  0  0  0  0  0  0  0
   35.4690   29.1760   38.0140 H   0  0  0  0  0  0  0  0  0  0  0  0
   37.2440   28.5370   39.8830 H   0  0  0  0  0  0  0  0  0  0  0  0
   37.1460   31.0170   38.9100 C   0  0  0  0  0  0  0  0  0  0  0  0
   37.1960   30.5930   37.7620 O   0  0  0  0  0  0  0  0  0  0  0  0
   37.6210   33.1710   39.9810 C   0  0  0  0  0  0  0  0  0  0  0  0
   38.0160   32.0900   39.2690 C   0  0  0  0  0  0  0  0  0  0  0  0
   39.3810   32.0370   38.8650 C   0  0  0  0  0  0  0  0  0  0  0  0
   40.2320   33.0370   39.1940 N   0  0  0  0  0  0  0  0  0  0  0  0
   39.7820   34.1070   39.9150 C   0  0  0  0  0  0  0  0  0  0  0  0
   38.5150   34.1610   40.2910 N   0  0  0  0  0  0  0  0  0  0  0  0
   36.5980   33.2760   40.3200 H   0  0  0  0  0  0  0  0  0  0  0  0
   39.8160   31.2480   38.3080 H   0  0  0  0  0  0  0  0  0  0  0  0
   40.4770   34.8840   40.1600 H   0  0  0  0  0  0  0  0  0  0  0  0
   35.6890   28.4030   41.2590 O   0  0  0  0  0  0  0  0  0  0  0  0
   36.8980   26.6570   42.7180 O   0  0  0  0  0  0  0  0  0  0  0  0
   36.9720   28.1260   42.3380 P   0  0  2  0  0  0  0  0  0  0  0  0
   36.9420   29.1160   43.6740 O   0  0  0  0  0  0  0  0  0  0  0  0
   37.8290   29.2590   44.0450 H   0  0  0  0  0  0  0  0  0  0  0  0
   38.4490   28.2830   41.4610 O   0  0  0  0  0  0  0  0  0  0  0  0
   39.5190   29.0410   41.8750 C   0  0  0  0  0  0  0  0  0  0  0  0
   40.8350   28.6580   42.0800 C   0  0  0  0  0  3  0  0  0  0  0  0
   41.7670   29.5860   42.5020 C   0  0  0  0  0  0  0  0  0  0  0  0
   42.7850   29.2410   42.6490 H   0  0  0  0  0  0  0  0  0  0  0  0
   41.3780   30.8740   42.7150 N   0  0  0  0  0  0  0  0  0  0  0  0
   40.0950   31.2380   42.5130 C   0  0  0  0  0  3  0  0  0  0  0  0
   39.1580   30.3390   42.0960 N   0  0  0  0  0  0  0  0  0  0  0  0
  1  3  1  0  0  0  0
  1  4  1  1  0  0  0
  2  5  1  0  0  0  0
  2  1  1  0  0  0  0
  2  3  1  0  0  0  0
  3  7  1  6  0  0  0
  3 19  1  0  0  0  0
  6  2  1  0  0  0  0
  8 11  1  0  0  0  0
  8  1  1  0  0  0  0
  9  8  2  0  0  0  0
 10 15  1  0  0  0  0
 10 16  1  0  0  0  0
 11 10  2  0  0  0  0
 12 13  2  0  0  0  0
 12 11  1  0  0  0  0
 13 14  1  0  0  0  0
 14 18  1  0  0  0  0
 14 15  2  0  0  0  0
 17 12  1  0  0  0  0
 19 21  1  0  0  0  0
 21 20  2  1  0  0  0
 21 22  1  0  0  0  0
 22 23  1  0  0  0  0
 24 25  1  0  0  0  0
 24 21  1  0  0  0  0
 25 26  2  0  0  0  0
 25 31  1  0  0  0  0
 26 27  1  0  0  0  0
 27 28  1  0  0  0  0
 27 29  2  0  0  0  0
 30 29  1  0  0  0  0
 31 30  2  0  0  0  0
M  END
>  <minimizedAffinity>
-4.87967825

$$$$

 OpenBabel03242512103D

 31 33  0  0  1  0  0  0  0  0999 V2000
   37.2180   28.7380   41.0630 C   0  0  1  0  0  0  0  0  0  0  0  0
   35.6430   28.7030   40.9730 C   0  0  0  0  0  0  0  0  0  0  0  0
   36.4180   29.9470   40.9070 C   0  0  2  0  0  0  0  0  0  0  0  0
   37.7050   28.3050   40.1760 H   0  0  0  0  0  0  0  0  0  0  0  0
   35.2620   28.2440   40.0400 H   0  0  0  0  0  0  0  0  0  0  0  0
   35.1070   28.4200   41.9000 H   0  0  0  0  0  0  0  0  0  0  0  0
   36.5630   30.6370   41.7520 H   0  0  0  0  0  0  0  0  0  0  0  0
   37.7020   28.3180   42.4080 C   0  0  0  0  0  0  0  0  0  0  0  0
   37.5040   29.0840   43.3440 O   0  0  0  0  0  0  0  0  0  0  0  0
   39.4730   26.9910   43.4650 C   0  0  0  0  0  0  0  0  0  0  0  0
   38.3770   27.0900   42.6770 C   0  0  0  0  0  0  0  0  0  0  0  0
   37.8810   25.8880   42.0930 C   0  0  0  0  0  0  0  0  0  0  0  0
   38.4970   24.7050   42.3320 N   0  0  0  0  0  0  0  0  0  0  0  0
   39.6010   24.6610   43.1360 C   0  0  0  0  0  0  0  0  0  0  0  0
   40.0650   25.7740   43.6790 N   0  0  0  0  0  0  0  0  0  0  0  0
   39.9030   27.8640   43.9400 H   0  0  0  0  0  0  0  0  0  0  0  0
   37.0330   25.8290   41.4610 H   0  0  0  0  0  0  0  0  0  0  0  0
   40.0670   23.7130   43.3070 H   0  0  0  0  0  0  0  0  0  0  0  0
   36.3410   30.5980   39.6840 O   0  0  0  0  0  0  0  0  0  0  0  0
   37.0800   33.0270   39.2450 O   0  0  0  0  0  0  0  0  0  0  0  0
   37.6570   31.6710   39.6160 P   0  0  2  0  0  0  0  0  0  0  0  0
   38.8510   31.1940   38.5620 O   0  0  0  0  0  0  0  0  0  0  0  0
   39.7240   31.5360   38.8170 H   0  0  0  0  0  0  0  0  0  0  0  0
   38.2630   31.8720   41.2180 O   0  0  0  0  0  0  0  0  0  0  0  0
   39.5960   31.8240   41.5530 C   0  0  0  0  0  0  0  0  0  0  0  0
   40.2270   31.0610   42.5230 C   0  0  0  0  0  3  0  0  0  0  0  0
   41.5930   31.1630   42.7020 C   0  0  0  0  0  0  0  0  0  0  0  0
   42.0440   30.5470   43.4720 H   0  0  0  0  0  0  0  0  0  0  0  0
   42.3080   32.0170   41.9170 N   0  0  0  0  0  0  0  0  0  0  0  0
   41.6850   32.7560   40.9750 C   0  0  0  0  0  3  0  0  0  0  0  0
   40.3380   32.6720   40.7820 N   0  0  0  0  0  0  0  0  0  0  0  0
  1  4  1  6  0  0  0
  1  8  1  0  0  0  0
  2  1  1  0  0  0  0
  2  6  1  0  0  0  0
  3  2  1  0  0  0  0
  3  1  1  0  0  0  0
  3  7  1  1  0  0  0
  5  2  1  0  0  0  0
  8 11  1  0  0  0  0
  8  9  2  0  0  0  0
 10 15  1  0  0  0  0
 10 16  1  0  0  0  0
 11 10  2  0  0  0  0
 12 13  2  0  0  0  0
 12 11  1  0  0  0  0
 13 14  1  0  0  0  0
 14 18  1  0  0  0  0
 14 15  2  0  0  0  0
 17 12  1  0  0  0  0
 19  3  1  0  0  0  0
 21 20  2  6  0  0  0
 21 19  1  0  0  0  0
 21 24  1  0  0  0  0
 22 23  1  0  0  0  0
 22 21  1  0  0  0  0
 24 25  1  0  0  0  0
 25 26  1  0  0  0  0
 26 27  2  0  0  0  0
 27 28  1  0  0  0  0
 29 27  1  0  0  0  0
 30 29  2  0  0  0  0
 31 30  1  0  0  0  0
 31 25  2  0  0  0  0
M  END
>  <minimizedAffinity>
-4.79167366

$$$$

 OpenBabel03242512103D

 31 33  0  0  1  0  0  0  0  0999 V2000
   38.2580   28.1360   43.3860 C   0  0  1  0  0  0  0  0  0  0  0  0
   39.2570   26.9470   43.6610 C   0  0  0  0  0  0  0  0  0  0  0  0
   39.4980   27.9700   42.6380 C   0  0  2  0  0  0  0  0  0  0  0  0
   38.2280   28.8660   44.2090 H   0  0  0  0  0  0  0  0  0  0  0  0
   39.7720   27.0160   44.6390 H   0  0  0  0  0  0  0  0  0  0  0  0
   38.9040   25.9360   43.3770 H   0  0  0  0  0  0  0  0  0  0  0  0
   39.3050   27.8350   41.5630 H   0  0  0  0  0  0  0  0  0  0  0  0
   36.9650   27.6510   42.8260 C   0  0  0  0  0  0  0  0  0  0  0  0
   36.1920   27.0920   43.5950 O   0  0  0  0  0  0  0  0  0  0  0  0
   36.9070   26.9210   40.4860 C   0  0  0  0  0  0  0  0  0  0  0  0
   36.5700   27.7960   41.4620 C   0  0  0  0  0  0  0  0  0  0  0  0
   35.7740   28.9170   41.0900 C   0  0  0  0  0  0  0  0  0  0  0  0
   35.3790   29.0810   39.8040 N   0  0  0  0  0  0  0  0  0  0  0  0
   35.7470   28.1670   38.8560 C   0  0  0  0  0  0  0  0  0  0  0  0
   36.4860   27.1250   39.1980 N   0  0  0  0  0  0  0  0  0  0  0  0
   37.5100   26.0480   40.6990 H   0  0  0  0  0  0  0  0  0  0  0  0
   35.4420   29.6710   41.7560 H   0  0  0  0  0  0  0  0  0  0  0  0
   35.4220   28.3220   37.8490 H   0  0  0  0  0  0  0  0  0  0  0  0
   40.5990   28.7770   42.8920 O   0  0  0  0  0  0  0  0  0  0  0  0
   41.8180   30.2530   41.1680 O   0  0  0  0  0  0  0  0  0  0  0  0
   40.4700   30.1200   41.8580 P   0  0  2  0  0  0  0  0  0  0  0  0
   40.0300   31.5200   42.6380 O   0  0  0  0  0  0  0  0  0  0  0  0
   39.5660   32.1380   42.0490 H   0  0  0  0  0  0  0  0  0  0  0  0
   39.3660   29.7170   40.5960 O   0  0  0  0  0  0  0  0  0  0  0  0
   38.6810   30.6410   39.8420 C   0  0  0  0  0  0  0  0  0  0  0  0
   38.4850   30.6780   38.4710 C   0  0  0  0  0  3  0  0  0  0  0  0
   37.7580   31.7060   37.9050 C   0  0  0  0  0  0  0  0  0  0  0  0
   37.6300   31.6940   36.8270 H   0  0  0  0  0  0  0  0  0  0  0  0
   37.2390   32.6790   38.7060 N   0  0  0  0  0  0  0  0  0  0  0  0
   37.4340   32.6340   40.0400 C   0  0  0  0  0  3  0  0  0  0  0  0
   38.1490   31.6280   40.6210 N   0  0  0  0  0  0  0  0  0  0  0  0
  1  2  1  0  0  0  0
  1  4  1  1  0  0  0
  2  5  1  0  0  0  0
  3  7  1  6  0  0  0
  3 19  1  0  0  0  0
  3  1  1  0  0  0  0
  3  2  1  0  0  0  0
  6  2  1  0  0  0  0
  8  1  1  0  0  0  0
  8  9  2  0  0  0  0
 10 16  1  0  0  0  0
 10 11  1  0  0  0  0
 11  8  1  0  0  0  0
 12 11  2  0  0  0  0
 12 17  1  0  0  0  0
 13 12  1  0  0  0  0
 14 15  1  0  0  0  0
 14 13  2  0  0  0  0
 15 10  2  0  0  0  0
 18 14  1  0  0  0  0
 21 20  2  6  0  0  0
 21 22  1  0  0  0  0
 21 19  1  0  0  0  0
 23 22  1  0  0  0  0
 24 21  1  0  0  0  0
 25 24  1  0  0  0  0
 25 31  1  0  0  0  0
 26 25  2  0  0  0  0
 27 26  1  0  0  0  0
 27 29  2  0  0  0  0
 28 27  1  0  0  0  0
 29 30  1  0  0  0  0
 30 31  2  0  0  0  0
M  END
>  <minimizedAffinity>
-4.7656703

$$$$

 OpenBabel03242512103D

 31 33  0  0  1  0  0  0  0  0999 V2000
   38.3390   31.7600   40.2420 C   0  0  1  0  0  0  0  0  0  0  0  0
   37.2780   32.7250   39.5850 C   0  0  0  0  0  0  0  0  0  0  0  0
   37.0390   31.2910   39.7790 C   0  0  2  0  0  0  0  0  0  0  0  0
   38.4830   31.9530   41.3160 H   0  0  0  0  0  0  0  0  0  0  0  0
   36.8420   33.4550   40.2940 H   0  0  0  0  0  0  0  0  0  0  0  0
   37.5340   33.1240   38.5840 H   0  0  0  0  0  0  0  0  0  0  0  0
   37.1430   30.5290   38.9910 H   0  0  0  0  0  0  0  0  0  0  0  0
   39.5490   31.6070   39.3860 C   0  0  0  0  0  0  0  0  0  0  0  0
   39.5760   30.6580   38.6110 O   0  0  0  0  0  0  0  0  0  0  0  0
   41.0270   33.2790   38.3700 C   0  0  0  0  0  0  0  0  0  0  0  0
   40.6720   32.4880   39.4090 C   0  0  0  0  0  0  0  0  0  0  0  0
   41.4740   32.5530   40.5850 C   0  0  0  0  0  0  0  0  0  0  0  0
   42.5430   33.3820   40.6400 N   0  0  0  0  0  0  0  0  0  0  0  0
   42.8590   34.1610   39.5620 C   0  0  0  0  0  0  0  0  0  0  0  0
   42.1170   34.1030   38.4680 N   0  0  0  0  0  0  0  0  0  0  0  0
   40.4630   33.2800   37.4460 H   0  0  0  0  0  0  0  0  0  0  0  0
   41.3030   31.9890   41.4650 H   0  0  0  0  0  0  0  0  0  0  0  0
   43.7100   34.8060   39.6330 H   0  0  0  0  0  0  0  0  0  0  0  0
   36.0230   31.0020   40.6790 O   0  0  0  0  0  0  0  0  0  0  0  0
   36.4890   28.8630   39.3190 O   0  0  0  0  0  0  0  0  0  0  0  0
   35.5290   29.4060   40.3650 P   0  0  2  0  0  0  0  0  0  0  0  0
   33.9440   29.2850   39.8760 O   0  0  0  0  0  0  0  0  0  0  0  0
   33.5570   28.4220   40.0980 H   0  0  0  0  0  0  0  0  0  0  0  0
   35.8350   28.4660   41.7770 O   0  0  0  0  0  0  0  0  0  0  0  0
   37.0820   28.0330   42.1630 C   0  0  0  0  0  0  0  0  0  0  0  0
   37.5770   26.7400   42.2300 C   0  0  0  0  0  3  0  0  0  0  0  0
   38.8730   26.5170   42.6490 C   0  0  0  0  0  0  0  0  0  0  0  0
   39.2180   25.4890   42.6850 H   0  0  0  0  0  0  0  0  0  0  0  0
   39.6560   27.5780   42.9950 N   0  0  0  0  0  0  0  0  0  0  0  0
   39.1660   28.8330   42.9270 C   0  0  0  0  0  3  0  0  0  0  0  0
   37.8880   29.0770   42.5160 N   0  0  0  0  0  0  0  0  0  0  0  0
  1  4  1  1  0  0  0
  2  3  1  0  0  0  0
  2  1  1  0  0  0  0
  2  5  1  0  0  0  0
  3  7  1  6  0  0  0
  3  1  1  0  0  0  0
  3 19  1  0  0  0  0
  6  2  1  0  0  0  0
  8 11  1  0  0  0  0
  8  1  1  0  0  0  0
  9  8  2  0  0  0  0
 10 15  2  0  0  0  0
 10 11  1  0  0  0  0
 11 12  2  0  0  0  0
 12 13  1  0  0  0  0
 12 17  1  0  0  0  0
 14 18  1  0  0  0  0
 14 13  2  0  0  0  0
 15 14  1  0  0  0  0
 16 10  1  0  0  0  0
 21 20  2  6  0  0  0
 21 19  1  0  0  0  0
 21 24  1  0  0  0  0
 22 23  1  0  0  0  0
 22 21  1  0  0  0  0
 24 25  1  0  0  0  0
 25 26  2  0  0  0  0
 25 31  1  0  0  0  0
 26 27  1  0  0  0  0
 27 28  1  0  0  0  0
 27 29  2  0  0  0  0
 30 29  1  0  0  0  0
 31 30  2  0  0  0  0
M  END
>  <minimizedAffinity>
-4.73336697

$$$$

 OpenBabel03242512103D

 31 33  0  0  1  0  0  0  0  0999 V2000
   36.9960   26.8900   42.5390 C   0  0  1  0  0  0  0  0  0  0  0  0
   38.3140   27.2220   43.3410 C   0  0  0  0  0  0  0  0  0  0  0  0
   37.7870   28.0870   42.2790 C   0  0  2  0  0  0  0  0  0  0  0  0
   36.0890   26.9760   43.1560 H   0  0  0  0  0  0  0  0  0  0  0  0
   38.1340   27.4840   44.4020 H   0  0  0  0  0  0  0  0  0  0  0  0
   39.1810   26.5600   43.1510 H   0  0  0  0  0  0  0  0  0  0  0  0
   38.1630   28.1040   41.2450 H   0  0  0  0  0  0  0  0  0  0  0  0
   37.1590   25.6760   41.6910 C   0  0  0  0  0  0  0  0  0  0  0  0
   37.0540   24.5860   42.2410 O   0  0  0  0  0  0  0  0  0  0  0  0
   38.6640   25.8310   39.7620 C   0  0  0  0  0  0  0  0  0  0  0  0
   37.4250   25.6990   40.2890 C   0  0  0  0  0  0  0  0  0  0  0  0
   36.3370   25.5750   39.3780 C   0  0  0  0  0  0  0  0  0  0  0  0
   36.5570   25.5890   38.0420 N   0  0  0  0  0  0  0  0  0  0  0  0
   37.8290   25.7250   37.5610 C   0  0  0  0  0  0  0  0  0  0  0  0
   38.8420   25.8410   38.4040 N   0  0  0  0  0  0  0  0  0  0  0  0
   39.5360   25.9300   40.3960 H   0  0  0  0  0  0  0  0  0  0  0  0
   35.3220   25.4640   39.6600 H   0  0  0  0  0  0  0  0  0  0  0  0
   37.9740   25.7330   36.5010 H   0  0  0  0  0  0  0  0  0  0  0  0
   37.3630   29.3320   42.7210 O   0  0  0  0  0  0  0  0  0  0  0  0
   38.2350   31.2780   41.2730 O   0  0  0  0  0  0  0  0  0  0  0  0
   37.0920   30.2770   41.3350 P   0  0  2  0  0  0  0  0  0  0  0  0
   35.6080   31.0270   41.3210 O   0  0  0  0  0  0  0  0  0  0  0  0
   35.2920   31.1980   40.4180 H   0  0  0  0  0  0  0  0  0  0  0  0
   37.3110   29.2700   39.9520 O   0  0  0  0  0  0  0  0  0  0  0  0
   36.4150   29.1760   38.9130 C   0  0  0  0  0  0  0  0  0  0  0  0
   36.6420   29.2850   37.5500 C   0  0  0  0  0  3  0  0  0  0  0  0
   35.5910   29.1570   36.6630 C   0  0  0  0  0  0  0  0  0  0  0  0
   35.8150   29.2500   35.6060 H   0  0  0  0  0  0  0  0  0  0  0  0
   34.3370   28.9220   37.1410 N   0  0  0  0  0  0  0  0  0  0  0  0
   34.1260   28.8160   38.4700 C   0  0  0  0  0  3  0  0  0  0  0  0
   35.1490   28.9400   39.3640 N   0  0  0  0  0  0  0  0  0  0  0  0
  1  4  1  1  0  0  0
  1  2  1  0  0  0  0
  2  5  1  0  0  0  0
  3  7  1  6  0  0  0
  3  1  1  0  0  0  0
  3 19  1  0  0  0  0
  3  2  1  0  0  0  0
  6  2  1  0  0  0  0
  8  9  2  0  0  0  0
  8  1  1  0  0  0  0
 10 11  1  0  0  0  0
 10 16  1  0  0  0  0
 11  8  1  0  0  0  0
 12 17  1  0  0  0  0
 12 11  2  0  0  0  0
 13 12  1  0  0  0  0
 14 13  2  0  0  0  0
 14 15  1  0  0  0  0
 15 10  2  0  0  0  0
 18 14  1  0  0  0  0
 21 20  2  6  0  0  0
 21 19  1  0  0  0  0
 22 21  1  0  0  0  0
 23 22  1  0  0  0  0
 24 21  1  0  0  0  0
 25 31  1  0  0  0  0
 25 24  1  0  0  0  0
 26 25  2  0  0  0  0
 27 29  2  0  0  0  0
 27 26  1  0  0  0  0
 28 27  1  0  0  0  0
 29 30  1  0  0  0  0
 30 31  2  0  0  0  0
M  END
>  <minimizedAffinity>
-4.73090935

$$$$

 OpenBabel03242512103D

 31 33  0  0  1  0  0  0  0  0999 V2000
   37.0960   28.6830   40.5830 C   0  0  1  0  0  0  0  0  0  0  0  0
   35.5750   28.7770   40.9880 C   0  0  0  0  0  0  0  0  0  0  0  0
   36.4600   29.9450   40.9400 C   0  0  2  0  0  0  0  0  0  0  0  0
   37.2400   28.4430   39.5180 H   0  0  0  0  0  0  0  0  0  0  0  0
   34.8790   28.5810   40.1490 H   0  0  0  0  0  0  0  0  0  0  0  0
   35.2980   28.3180   41.9580 H   0  0  0  0  0  0  0  0  0  0  0  0
   36.9380   30.4030   41.8190 H   0  0  0  0  0  0  0  0  0  0  0  0
   37.8890   27.9230   41.5900 C   0  0  0  0  0  0  0  0  0  0  0  0
   38.4040   28.5600   42.5010 O   0  0  0  0  0  0  0  0  0  0  0  0
   37.2170   25.6210   42.1000 C   0  0  0  0  0  0  0  0  0  0  0  0
   38.0850   26.5100   41.5640 C   0  0  0  0  0  0  0  0  0  0  0  0
   39.2540   25.9870   40.9390 C   0  0  0  0  0  0  0  0  0  0  0  0
   39.4670   24.6500   40.8940 N   0  0  0  0  0  0  0  0  0  0  0  0
   38.5580   23.7940   41.4510 C   0  0  0  0  0  0  0  0  0  0  0  0
   37.4720   24.2760   42.0320 N   0  0  0  0  0  0  0  0  0  0  0  0
   36.3090   25.9480   42.5900 H   0  0  0  0  0  0  0  0  0  0  0  0
   40.0080   26.5730   40.4820 H   0  0  0  0  0  0  0  0  0  0  0  0
   38.7520   22.7440   41.4020 H   0  0  0  0  0  0  0  0  0  0  0  0
   36.1210   30.8740   39.9660 O   0  0  0  0  0  0  0  0  0  0  0  0
   38.3550   31.6210   41.0080 O   0  0  0  0  0  0  0  0  0  0  0  0
   37.3980   31.9920   39.8880 P   0  0  2  0  0  0  0  0  0  0  0  0
   36.9030   33.5760   39.9920 O   0  0  0  0  0  0  0  0  0  0  0  0
   37.5180   34.1820   39.5470 H   0  0  0  0  0  0  0  0  0  0  0  0
   38.2800   31.6930   38.4360 O   0  0  0  0  0  0  0  0  0  0  0  0
   38.1240   30.5730   37.6520 C   0  0  0  0  0  0  0  0  0  0  0  0
   37.1050   30.2600   36.7670 C   0  0  0  0  0  3  0  0  0  0  0  0
   37.1380   29.0700   36.0690 C   0  0  0  0  0  0  0  0  0  0  0  0
   36.3180   28.8670   35.3870 H   0  0  0  0  0  0  0  0  0  0  0  0
   38.1790   28.2110   36.2590 N   0  0  0  0  0  0  0  0  0  0  0  0
   39.1670   28.5250   37.1220 C   0  0  0  0  0  3  0  0  0  0  0  0
   39.1550   29.6950   37.8230 N   0  0  0  0  0  0  0  0  0  0  0  0
  1  4  1  6  0  0  0
  1  3  1  0  0  0  0
  1  2  1  0  0  0  0
  1  8  1  0  0  0  0
  2  6  1  0  0  0  0
  3  2  1  0  0  0  0
  3  7  1  1  0  0  0
  5  2  1  0  0  0  0
  8  9  2  0  0  0  0
 10 16  1  0  0  0  0
 11  8  1  0  0  0  0
 11 10  2  0  0  0  0
 12 11  1  0  0  0  0
 13 12  2  0  0  0  0
 13 14  1  0  0  0  0
 14 15  2  0  0  0  0
 15 10  1  0  0  0  0
 17 12  1  0  0  0  0
 18 14  1  0  0  0  0
 19  3  1  0  0  0  0
 21 19  1  0  0  0  0
 21 22  1  0  0  0  0
 21 20  2  1  0  0  0
 23 22  1  0  0  0  0
 24 21  1  0  0  0  0
 25 31  1  0  0  0  0
 25 24  1  0  0  0  0
 26 25  2  0  0  0  0
 27 29  2  0  0  0  0
 27 26  1  0  0  0  0
 28 27  1  0  0  0  0
 29 30  1  0  0  0  0
 30 31  2  0  0  0  0
M  END
>  <minimizedAffinity>
-4.72376394

$$$$
