
 OpenBabel03242519313D

 46 49  0  0  0  0  0  0  0  0999 V2000
   46.7900   33.6980   42.0600 C   0  0  0  0  0  0  0  0  0  0  0  0
   46.9000   34.3160   40.7790 C   0  0  0  0  0  0  0  0  0  0  0  0
   47.9830   34.0050   39.9440 C   0  0  0  0  0  0  0  0  0  0  0  0
   48.8890   33.1020   40.4280 N   0  0  0  0  0  0  0  0  0  0  0  0
   48.7440   32.5330   41.6690 C   0  0  0  0  0  0  0  0  0  0  0  0
   47.7150   32.8320   42.4530 N   0  0  0  0  0  0  0  0  0  0  0  0
   46.2170   35.0340   40.3440 H   0  0  0  0  0  0  0  0  0  0  0  0
   48.1060   34.4390   38.9830 H   0  0  0  0  0  0  0  0  0  0  0  0
   45.6160   34.1150   42.8290 C   0  0  0  0  0  0  0  0  0  0  0  0
   45.0100   35.3490   42.3950 C   0  0  0  0  0  0  0  0  0  0  0  0
   45.1110   36.4640   43.3580 C   0  0  0  0  0  0  0  0  0  0  0  0
   44.5600   36.0660   44.7280 C   0  0  0  0  0  0  0  0  0  0  0  0
   44.9340   34.6870   45.1540 C   0  0  0  0  0  0  0  0  0  0  0  0
   46.0910   34.1490   44.3210 C   0  0  0  0  0  0  0  0  0  0  0  0
   44.8730   33.2720   42.8550 H   0  0  0  0  0  0  0  0  0  0  0  0
   43.9140   35.2200   42.1470 H   0  0  0  0  0  0  0  0  0  0  0  0
   45.4700   35.7020   41.4380 H   0  0  0  0  0  0  0  0  0  0  0  0
   46.0760   36.9510   43.4740 H   0  0  0  0  0  0  0  0  0  0  0  0
   44.4060   37.2730   43.0050 H   0  0  0  0  0  0  0  0  0  0  0  0
   45.0110   36.7700   45.4570 H   0  0  0  0  0  0  0  0  0  0  0  0
   43.4560   36.2320   44.7810 H   0  0  0  0  0  0  0  0  0  0  0  0
   44.0670   34.0100   44.9060 H   0  0  0  0  0  0  0  0  0  0  0  0
   45.1680   34.5580   46.2100 H   0  0  0  0  0  0  0  0  0  0  0  0
   46.2950   33.1100   44.6090 H   0  0  0  0  0  0  0  0  0  0  0  0
   46.9960   34.7880   44.4050 H   0  0  0  0  0  0  0  0  0  0  0  0
   49.8120   31.6030   42.0130 C   0  0  0  0  0  0  0  0  0  0  0  0
   50.9190   31.5640   41.2560 N   0  0  0  0  0  0  0  0  0  0  0  0
   51.7710   30.6320   41.7600 C   0  0  0  0  0  0  0  0  0  0  0  0
   51.1660   30.1010   42.8430 N   0  0  0  0  0  0  0  0  0  0  0  0
   49.9760   30.6820   43.0060 N   0  0  0  0  0  0  0  0  0  0  0  0
   52.7410   30.3590   41.3830 H   0  0  0  0  0  0  0  0  0  0  0  0
   51.6890   29.0890   43.7270 C   0  0  0  0  0  0  0  0  0  0  0  0
   51.8650   28.1610   43.1400 H   0  0  0  0  0  0  0  0  0  0  0  0
   52.6310   29.3390   44.1940 H   0  0  0  0  0  0  0  0  0  0  0  0
   50.6860   28.7700   44.7450 C   0  0  0  0  0  0  0  0  0  0  0  0
   50.6120   28.9520   46.0600 C   0  0  0  0  0  0  0  0  0  0  0  0
   49.4070   28.6030   46.9560 C   0  0  0  0  0  0  0  0  0  0  0  0
   49.7830   28.0560   47.8350 H   0  0  0  0  0  0  0  0  0  0  0  0
   48.7500   27.9740   46.3300 H   0  0  0  0  0  0  0  0  0  0  0  0
   48.6920   29.8520   47.2980 C   0  0  0  0  0  0  0  0  0  0  0  0
   47.7250   30.4060   46.4850 C   0  0  0  0  0  0  0  0  0  0  0  0
   47.1520   31.5830   46.9550 C   0  0  0  0  0  0  0  0  0  0  0  0
   46.3890   32.0380   46.3350 H   0  0  0  0  0  0  0  0  0  0  0  0
   47.5170   32.1450   48.1290 N   0  0  0  0  0  0  0  0  0  0  0  0
   48.4520   31.5870   48.8890 C   0  0  0  0  0  0  0  0  0  0  0  0
   49.0310   30.4530   48.4740 N   0  0  0  0  0  0  0  0  0  0  0  0
  1  6  1  0  0  0  0
  1  9  1  0  0  0  0
  2  1  2  0  0  0  0
  3  4  2  0  0  0  0
  3  2  1  0  0  0  0
  4  5  1  0  0  0  0
  5 26  1  0  0  0  0
  5  6  2  0  0  0  0
  7  2  1  0  0  0  0
  8  3  1  0  0  0  0
  9 15  1  0  0  0  0
  9 14  1  0  0  0  0
 10  9  1  0  0  0  0
 10 11  1  0  0  0  0
 11 18  1  0  0  0  0
 11 12  1  0  0  0  0
 12 21  1  0  0  0  0
 12 13  1  0  0  0  0
 12 20  1  0  0  0  0
 13 23  1  0  0  0  0
 14 25  1  0  0  0  0
 14 24  1  0  0  0  0
 14 13  1  0  0  0  0
 16 10  1  0  0  0  0
 17 10  1  0  0  0  0
 19 11  1  0  0  0  0
 22 13  1  0  0  0  0
 26 30  2  0  0  0  0
 27 28  2  0  0  0  0
 27 26  1  0  0  0  0
 28 29  1  0  0  0  0
 29 30  1  0  0  0  0
 29 32  1  0  0  0  0
 31 28  1  0  0  0  0
 32 34  1  0  0  0  0
 32 35  1  0  0  0  0
 33 32  1  0  0  0  0
 35 36  2  0  0  0  0
 36 37  1  0  0  0  0
 37 40  1  0  0  0  0
 37 38  1  0  0  0  0
 39 37  1  0  0  0  0
 40 46  1  0  0  0  0
 41 42  1  0  0  0  0
 41 40  2  0  0  0  0
 42 44  2  0  0  0  0
 43 42  1  0  0  0  0
 44 45  1  0  0  0  0
 46 45  2  0  0  0  0
M  END
>  <minimizedAffinity>
-4.99862528

>  <minimizedRMSD>
4.24607468

$$$$
