
 OpenBabel03252505403D

 26 28  0  0  1  0  0  0  0  0999 V2000
   44.8550   34.0950   43.5970 C   0  0  1  0  0  0  0  0  0  0  0  0
   45.5710   35.3950   43.1720 C   0  0  0  0  0  0  0  0  0  0  0  0
   45.0810   34.3840   42.1800 C   0  0  2  0  0  0  0  0  0  0  0  0
   43.8730   34.2620   44.0950 H   0  0  0  0  0  0  0  0  0  0  0  0
   45.0060   36.3350   43.3130 H   0  0  0  0  0  0  0  0  0  0  0  0
   46.6440   35.4800   43.3600 H   0  0  0  0  0  0  0  0  0  0  0  0
   45.8680   33.8490   41.6130 H   0  0  0  0  0  0  0  0  0  0  0  0
   45.7220   33.1510   44.3520 C   0  0  0  0  0  0  0  0  0  0  0  0
   46.5290   32.2350   43.6260 C   0  0  0  0  0  0  0  0  0  0  0  0
   47.3450   31.3700   44.3490 C   0  0  0  0  0  0  0  0  0  0  0  0
   47.3250   31.4510   45.7060 N   0  0  0  0  0  0  0  0  0  0  0  0
   46.5400   32.3400   46.3580 C   0  0  0  0  0  0  0  0  0  0  0  0
   45.7370   33.1910   45.6690 N   0  0  0  0  0  0  0  0  0  0  0  0
   46.5030   32.2170   42.5360 H   0  0  0  0  0  0  0  0  0  0  0  0
   47.9690   30.6640   43.8530 H   0  0  0  0  0  0  0  0  0  0  0  0
   46.6720   32.2760   47.8510 C   0  0  0  0  0  0  0  0  0  0  0  0
   45.6300   32.9030   48.4850 F   0  0  0  0  0  0  0  0  0  0  0  0
   47.8610   32.9000   48.2410 F   0  0  0  0  0  0  0  0  0  0  0  0
   46.8010   30.9460   48.2280 F   0  0  0  0  0  0  0  0  0  0  0  0
   43.8240   34.7060   41.4130 C   0  0  0  0  0  0  0  0  0  0  0  0
   43.6780   34.3750   40.0860 C   0  0  0  0  0  3  0  0  0  0  0  0
   42.5470   34.6520   39.3540 C   0  0  0  0  0  0  0  0  0  0  0  0
   42.4330   34.3910   38.3100 H   0  0  0  0  0  0  0  0  0  0  0  0
   41.5350   35.2840   39.9860 N   0  0  0  0  0  0  0  0  0  0  0  0
   41.6550   35.6190   41.2830 C   0  0  0  0  0  3  0  0  0  0  0  0
   42.7750   35.3430   42.0030 N   0  0  0  0  0  0  0  0  0  0  0  0
  1  4  1  1  0  0  0
  1  8  1  0  0  0  0
  2  5  1  0  0  0  0
  2  6  1  0  0  0  0
  2  1  1  0  0  0  0
  3  7  1  6  0  0  0
  3  2  1  0  0  0  0
  3  1  1  0  0  0  0
  8 13  1  0  0  0  0
  9 10  1  0  0  0  0
  9  8  2  0  0  0  0
 10 11  2  0  0  0  0
 11 12  1  0  0  0  0
 12 16  1  0  0  0  0
 13 12  2  0  0  0  0
 14  9  1  0  0  0  0
 15 10  1  0  0  0  0
 16 19  1  0  0  0  0
 16 18  1  0  0  0  0
 16 17  1  0  0  0  0
 20 26  1  0  0  0  0
 20  3  1  0  0  0  0
 21 20  2  0  0  0  0
 22 24  2  0  0  0  0
 22 21  1  0  0  0  0
 23 22  1  0  0  0  0
 24 25  1  0  0  0  0
 25 26  2  0  0  0  0
M  END
>  <minimizedAffinity>
-4.7533145

>  <minimizedRMSD>
1.48759949

$$$$
