
 OpenBabel03242523283D

 19 20  0  0  0  0  0  0  0  0999 V2000
   46.0880   31.3550   45.0870 C   0  0  0  0  0  0  0  0  0  0  0  0
   45.0210   31.2360   45.3630 H   0  0  0  0  0  0  0  0  0  0  0  0
   46.3970   30.4960   44.4480 H   0  0  0  0  0  0  0  0  0  0  0  0
   45.4340   34.6400   43.4530 C   0  0  0  0  0  0  0  0  0  0  0  0
   46.6800   34.9390   42.8910 C   0  0  0  0  0  0  0  0  0  0  0  0
   47.7120   34.0100   43.0850 C   0  0  0  0  0  0  0  0  0  0  0  0
   47.4530   32.8840   43.7970 N   0  0  0  0  0  0  0  0  0  0  0  0
   46.2310   32.6280   44.3280 C   0  0  0  0  0  0  0  0  0  0  0  0
   45.2440   33.5210   44.1400 N   0  0  0  0  0  0  0  0  0  0  0  0
   44.6530   35.3540   43.3000 H   0  0  0  0  0  0  0  0  0  0  0  0
   46.9300   35.8130   42.3220 H   0  0  0  0  0  0  0  0  0  0  0  0
   48.7300   34.1070   42.7080 H   0  0  0  0  0  0  0  0  0  0  0  0
   46.8880   31.3690   46.3230 C   0  0  0  0  0  0  0  0  0  0  0  0
   47.6760   30.2580   46.6470 C   0  0  0  0  0  0  0  0  0  0  0  0
   48.4580   30.2040   47.7980 C   0  0  0  0  0  0  0  0  0  0  0  0
   49.0440   29.3260   47.9990 H   0  0  0  0  0  0  0  0  0  0  0  0
   48.4250   31.2820   48.6030 N   0  0  0  0  0  0  0  0  0  0  0  0
   47.6750   32.3810   48.3260 C   0  0  0  0  0  0  0  0  0  0  0  0
   46.9410   32.3720   47.1980 N   0  0  0  0  0  0  0  0  0  0  0  0
  1  2  1  0  0  0  0
  1 13  1  0  0  0  0
  3  1  1  0  0  0  0
  4  9  1  0  0  0  0
  5  6  1  0  0  0  0
  5  4  2  0  0  0  0
  6  7  2  0  0  0  0
  7  8  1  0  0  0  0
  8  1  1  0  0  0  0
  9  8  2  0  0  0  0
 10  4  1  0  0  0  0
 11  5  1  0  0  0  0
 12  6  1  0  0  0  0
 13 14  2  0  0  0  0
 13 19  1  0  0  0  0
 14 15  1  0  0  0  0
 15 16  1  0  0  0  0
 15 17  2  0  0  0  0
 18 17  1  0  0  0  0
 19 18  2  0  0  0  0
M  END
>  <minimizedAffinity>
-3.21995211

>  <minimizedRMSD>
2.25803304

$$$$
