
 OpenBabel03252509313D

 25 26  0  0  0  0  0  0  0  0999 V2000
   48.2750   33.3270   43.5010 O   0  0  0  0  0  0  0  0  0  0  0  0
   46.9420   33.2830   43.0820 C   0  0  0  0  0  0  0  0  0  0  0  0
   46.7930   33.6240   42.0420 H   0  0  0  0  0  0  0  0  0  0  0  0
   46.5620   32.2200   43.0960 H   0  0  0  0  0  0  0  0  0  0  0  0
   45.0330   34.3380   46.1220 C   0  0  0  0  0  0  0  0  0  0  0  0
   45.8630   33.5870   45.2770 C   0  0  0  0  0  0  0  0  0  0  0  0
   46.0780   34.0490   43.9870 C   0  0  0  0  0  0  0  0  0  0  0  0
   45.4740   35.2090   43.6030 N   0  0  0  0  0  0  0  0  0  0  0  0
   44.6710   35.9210   44.4460 C   0  0  0  0  0  0  0  0  0  0  0  0
   44.4620   35.4750   45.6900 N   0  0  0  0  0  0  0  0  0  0  0  0
   44.9060   33.9160   47.1270 H   0  0  0  0  0  0  0  0  0  0  0  0
   46.3190   32.6630   45.6440 H   0  0  0  0  0  0  0  0  0  0  0  0
   44.1910   36.8360   44.1520 H   0  0  0  0  0  0  0  0  0  0  0  0
   49.8540   33.0460   41.4360 O   0  0  0  0  0  0  0  0  0  0  0  0
   49.1420   34.0840   42.2710 P   0  0  2  0  0  0  0  0  0  0  0  0
   50.2100   35.1750   42.9780 O   0  0  0  0  0  0  0  0  0  0  0  0
   51.0910   35.0920   42.5670 H   0  0  0  0  0  0  0  0  0  0  0  0
   48.0500   34.8750   41.2680 O   0  0  0  0  0  0  0  0  0  0  0  0
   47.8110   34.3790   39.9940 C   0  0  0  0  0  0  0  0  0  0  0  0
   48.5890   34.9140   38.9620 C   0  0  0  0  0  3  0  0  0  0  0  0
   48.4210   34.4800   37.6530 C   0  0  0  0  0  0  0  0  0  0  0  0
   49.0220   34.8860   36.8270 H   0  0  0  0  0  0  0  0  0  0  0  0
   47.4850   33.5310   37.4300 N   0  0  0  0  0  0  0  0  0  0  0  0
   46.7550   33.0390   38.4450 C   0  0  0  0  0  3  0  0  0  0  0  0
   46.9030   33.4430   39.6980 N   0  0  0  0  0  0  0  0  0  0  0  0
  2  4  1  0  0  0  0
  2  1  1  0  0  0  0
  2  7  1  0  0  0  0
  3  2  1  0  0  0  0
  5 11  1  0  0  0  0
  6 12  1  0  0  0  0
  6  5  2  0  0  0  0
  7  6  1  0  0  0  0
  8  7  2  0  0  0  0
  8  9  1  0  0  0  0
  9 10  2  0  0  0  0
 10  5  1  0  0  0  0
 13  9  1  0  0  0  0
 15 14  2  6  0  0  0
 15 16  1  0  0  0  0
 15  1  1  0  0  0  0
 17 16  1  0  0  0  0
 18 15  1  0  0  0  0
 19 18  1  0  0  0  0
 20 19  2  0  0  0  0
 21 20  1  0  0  0  0
 22 21  1  0  0  0  0
 23 21  2  0  0  0  0
 23 24  1  0  0  0  0
 24 25  2  0  0  0  0
 25 19  1  0  0  0  0
M  END
>  <minimizedAffinity>
-4.93669701

>  <minimizedRMSD>
0.850867748

$$$$
