
 OpenBabel03242523293D

 19 20  0  0  0  0  0  0  0  0999 V2000
   35.4890   29.0690   40.7500 C   0  0  0  0  0  0  0  0  0  0  0  0
   34.7640   29.4720   41.4840 H   0  0  0  0  0  0  0  0  0  0  0  0
   34.9380   28.4890   39.9740 H   0  0  0  0  0  0  0  0  0  0  0  0
   37.2090   32.3210   40.1480 C   0  0  0  0  0  0  0  0  0  0  0  0
   37.4970   32.2500   38.7810 C   0  0  0  0  0  0  0  0  0  0  0  0
   37.0950   31.0920   38.0990 C   0  0  0  0  0  0  0  0  0  0  0  0
   36.4570   30.1140   38.7910 N   0  0  0  0  0  0  0  0  0  0  0  0
   36.1960   30.2180   40.1170 C   0  0  0  0  0  0  0  0  0  0  0  0
   36.5820   31.3290   40.7690 N   0  0  0  0  0  0  0  0  0  0  0  0
   37.5190   33.2070   40.6600 H   0  0  0  0  0  0  0  0  0  0  0  0
   37.9970   32.9960   38.1960 H   0  0  0  0  0  0  0  0  0  0  0  0
   37.2500   30.8980   37.0380 H   0  0  0  0  0  0  0  0  0  0  0  0
   36.4270   28.1830   41.4600 C   0  0  0  0  0  0  0  0  0  0  0  0
   36.8610   27.0030   40.8450 C   0  0  0  0  0  3  0  0  0  0  0  0
   37.7460   26.1200   41.4580 C   0  0  0  0  0  0  0  0  0  0  0  0
   38.0460   25.2270   40.9410 H   0  0  0  0  0  0  0  0  0  0  0  0
   38.1760   26.4520   42.6890 N   0  0  0  0  0  0  0  0  0  0  0  0
   37.7810   27.5880   43.3220 C   0  0  0  0  0  3  0  0  0  0  0  0
   36.9240   28.4000   42.6770 N   0  0  0  0  0  0  0  0  0  0  0  0
  1 13  1  0  0  0  0
  1  2  1  0  0  0  0
  3  1  1  0  0  0  0
  4 10  1  0  0  0  0
  4  9  1  0  0  0  0
  5  4  2  0  0  0  0
  6  5  1  0  0  0  0
  6  7  2  0  0  0  0
  7  8  1  0  0  0  0
  8  1  1  0  0  0  0
  8  9  2  0  0  0  0
 11  5  1  0  0  0  0
 12  6  1  0  0  0  0
 13 19  1  0  0  0  0
 14 15  1  0  0  0  0
 14 13  2  0  0  0  0
 15 17  2  0  0  0  0
 16 15  1  0  0  0  0
 17 18  1  0  0  0  0
 19 18  2  0  0  0  0
M  END
>  <minimizedAffinity>
-3.92474389

$$$$

 OpenBabel03242523293D

 19 20  0  0  0  0  0  0  0  0999 V2000
   36.7130   27.4010   42.9750 C   0  0  0  0  0  0  0  0  0  0  0  0
   37.1770   27.7480   43.9200 H   0  0  0  0  0  0  0  0  0  0  0  0
   35.6870   27.0250   43.1890 H   0  0  0  0  0  0  0  0  0  0  0  0
   37.3760   30.6070   41.1930 C   0  0  0  0  0  0  0  0  0  0  0  0
   36.3620   30.6200   40.2290 C   0  0  0  0  0  0  0  0  0  0  0  0
   35.4770   29.5320   40.2130 C   0  0  0  0  0  0  0  0  0  0  0  0
   35.6470   28.5370   41.1200 N   0  0  0  0  0  0  0  0  0  0  0  0
   36.6430   28.5590   42.0400 C   0  0  0  0  0  0  0  0  0  0  0  0
   37.4900   29.6030   42.0540 N   0  0  0  0  0  0  0  0  0  0  0  0
   38.0450   31.4410   41.1980 H   0  0  0  0  0  0  0  0  0  0  0  0
   36.1900   31.3820   39.4950 H   0  0  0  0  0  0  0  0  0  0  0  0
   34.6430   29.4060   39.5240 H   0  0  0  0  0  0  0  0  0  0  0  0
   37.5380   26.3130   42.4260 C   0  0  0  0  0  0  0  0  0  0  0  0
   36.9460   25.0760   42.1400 C   0  0  0  0  0  3  0  0  0  0  0  0
   37.6660   24.0040   41.6200 C   0  0  0  0  0  0  0  0  0  0  0  0
   37.1620   23.0750   41.4200 H   0  0  0  0  0  0  0  0  0  0  0  0
   38.9770   24.2060   41.3960 N   0  0  0  0  0  0  0  0  0  0  0  0
   39.5910   25.3900   41.6580 C   0  0  0  0  0  3  0  0  0  0  0  0
   38.8410   26.3880   42.1610 N   0  0  0  0  0  0  0  0  0  0  0  0
  1  3  1  0  0  0  0
  1  2  1  0  0  0  0
  4 10  1  0  0  0  0
  4  9  1  0  0  0  0
  5  4  2  0  0  0  0
  6  5  1  0  0  0  0
  6  7  2  0  0  0  0
  7  8  1  0  0  0  0
  8  9  2  0  0  0  0
  8  1  1  0  0  0  0
 11  5  1  0  0  0  0
 12  6  1  0  0  0  0
 13  1  1  0  0  0  0
 14 13  2  0  0  0  0
 15 14  1  0  0  0  0
 16 15  1  0  0  0  0
 17 15  2  0  0  0  0
 17 18  1  0  0  0  0
 18 19  2  0  0  0  0
 19 13  1  0  0  0  0
M  END
>  <minimizedAffinity>
-3.923774

$$$$

 OpenBabel03242523293D

 19 20  0  0  0  0  0  0  0  0999 V2000
   36.2020   30.7010   40.9920 C   0  0  0  0  0  0  0  0  0  0  0  0
   35.1230   30.4650   41.0800 H   0  0  0  0  0  0  0  0  0  0  0  0
   36.3900   31.7140   41.4180 H   0  0  0  0  0  0  0  0  0  0  0  0
   38.8130   28.9240   42.9730 C   0  0  0  0  0  0  0  0  0  0  0  0
   38.2300   27.6670   43.1610 C   0  0  0  0  0  0  0  0  0  0  0  0
   36.9590   27.4580   42.6070 C   0  0  0  0  0  0  0  0  0  0  0  0
   36.3680   28.4720   41.9250 N   0  0  0  0  0  0  0  0  0  0  0  0
   36.9650   29.6790   41.7630 C   0  0  0  0  0  0  0  0  0  0  0  0
   38.1830   29.8770   42.2950 N   0  0  0  0  0  0  0  0  0  0  0  0
   39.7820   29.0750   43.3990 H   0  0  0  0  0  0  0  0  0  0  0  0
   38.6590   26.8390   43.6910 H   0  0  0  0  0  0  0  0  0  0  0  0
   36.3850   26.5340   42.6720 H   0  0  0  0  0  0  0  0  0  0  0  0
   36.5670   30.6850   39.5660 C   0  0  0  0  0  0  0  0  0  0  0  0
   37.3300   31.7340   39.0380 C   0  0  0  0  0  3  0  0  0  0  0  0
   37.7110   31.7830   37.6990 C   0  0  0  0  0  0  0  0  0  0  0  0
   38.2960   32.6120   37.3460 H   0  0  0  0  0  0  0  0  0  0  0  0
   37.3090   30.7640   36.9180 N   0  0  0  0  0  0  0  0  0  0  0  0
   36.5680   29.7260   37.3900 C   0  0  0  0  0  3  0  0  0  0  0  0
   36.2320   29.7370   38.6930 N   0  0  0  0  0  0  0  0  0  0  0  0
  1  2  1  0  0  0  0
  1  3  1  0  0  0  0
  1  8  1  0  0  0  0
  4  5  1  0  0  0  0
  4 10  1  0  0  0  0
  5 11  1  0  0  0  0
  6 12  1  0  0  0  0
  6  5  2  0  0  0  0
  7  6  1  0  0  0  0
  8  7  2  0  0  0  0
  8  9  1  0  0  0  0
  9  4  2  0  0  0  0
 13  1  1  0  0  0  0
 14 13  1  0  0  0  0
 15 14  2  0  0  0  0
 16 15  1  0  0  0  0
 17 18  2  0  0  0  0
 17 15  1  0  0  0  0
 18 19  1  0  0  0  0
 19 13  2  0  0  0  0
M  END
>  <minimizedAffinity>
-3.91444755

$$$$

 OpenBabel03242523293D

 19 20  0  0  0  0  0  0  0  0999 V2000
   37.5480   28.3330   43.6770 C   0  0  0  0  0  0  0  0  0  0  0  0
   36.4590   28.1670   43.8000 H   0  0  0  0  0  0  0  0  0  0  0  0
   37.9750   28.6830   44.6450 H   0  0  0  0  0  0  0  0  0  0  0  0
   39.8970   25.4640   43.2960 C   0  0  0  0  0  0  0  0  0  0  0  0
   39.1770   24.6070   42.4580 C   0  0  0  0  0  0  0  0  0  0  0  0
   37.9050   25.0320   42.0440 C   0  0  0  0  0  0  0  0  0  0  0  0
   37.4460   26.2350   42.4710 N   0  0  0  0  0  0  0  0  0  0  0  0
   38.1740   27.0400   43.2850 C   0  0  0  0  0  0  0  0  0  0  0  0
   39.3920   26.6310   43.6800 N   0  0  0  0  0  0  0  0  0  0  0  0
   40.8650   25.1330   43.6060 H   0  0  0  0  0  0  0  0  0  0  0  0
   39.4980   23.6510   42.0960 H   0  0  0  0  0  0  0  0  0  0  0  0
   37.2330   24.4730   41.3940 H   0  0  0  0  0  0  0  0  0  0  0  0
   37.7470   29.3640   42.6450 C   0  0  0  0  0  0  0  0  0  0  0  0
   38.9640   30.0540   42.5840 C   0  0  0  0  0  3  0  0  0  0  0  0
   39.2200   31.0400   41.6350 C   0  0  0  0  0  0  0  0  0  0  0  0
   40.1720   31.5390   41.6340 H   0  0  0  0  0  0  0  0  0  0  0  0
   38.2330   31.3100   40.7620 N   0  0  0  0  0  0  0  0  0  0  0  0
   37.0370   30.6650   40.7840 C   0  0  0  0  0  3  0  0  0  0  0  0
   36.8510   29.7220   41.7270 N   0  0  0  0  0  0  0  0  0  0  0  0
  1  2  1  0  0  0  0
  1  3  1  0  0  0  0
  4 10  1  0  0  0  0
  4  9  1  0  0  0  0
  5  4  2  0  0  0  0
  6  5  1  0  0  0  0
  6  7  2  0  0  0  0
  7  8  1  0  0  0  0
  8  1  1  0  0  0  0
  8  9  2  0  0  0  0
 11  5  1  0  0  0  0
 12  6  1  0  0  0  0
 13  1  1  0  0  0  0
 14 13  1  0  0  0  0
 15 14  2  0  0  0  0
 16 15  1  0  0  0  0
 17 18  2  0  0  0  0
 17 15  1  0  0  0  0
 18 19  1  0  0  0  0
 19 13  2  0  0  0  0
M  END
>  <minimizedAffinity>
-3.91217542

$$$$

 OpenBabel03242523293D

 19 20  0  0  0  0  0  0  0  0999 V2000
   37.5520   28.3270   43.6610 C   0  0  0  0  0  0  0  0  0  0  0  0
   36.4460   28.2650   43.6790 H   0  0  0  0  0  0  0  0  0  0  0  0
   37.9210   28.5500   44.6880 H   0  0  0  0  0  0  0  0  0  0  0  0
   37.9660   25.0130   42.0050 C   0  0  0  0  0  0  0  0  0  0  0  0
   39.2230   24.6120   42.4670 C   0  0  0  0  0  0  0  0  0  0  0  0
   39.8980   25.4840   43.3330 C   0  0  0  0  0  0  0  0  0  0  0  0
   39.3060   26.6560   43.6740 N   0  0  0  0  0  0  0  0  0  0  0  0
   38.0840   27.0120   43.2050 C   0  0  0  0  0  0  0  0  0  0  0  0
   37.4380   26.1740   42.3760 N   0  0  0  0  0  0  0  0  0  0  0  0
   37.4580   24.3420   41.3460 H   0  0  0  0  0  0  0  0  0  0  0  0
   39.7290   23.6980   42.2250 H   0  0  0  0  0  0  0  0  0  0  0  0
   40.8800   25.3060   43.7710 H   0  0  0  0  0  0  0  0  0  0  0  0
   37.9410   29.4130   42.7450 C   0  0  0  0  0  0  0  0  0  0  0  0
   37.0400   29.8430   41.7640 C   0  0  0  0  0  3  0  0  0  0  0  0
   37.3420   30.8640   40.8660 C   0  0  0  0  0  0  0  0  0  0  0  0
   36.6130   31.1550   40.1310 H   0  0  0  0  0  0  0  0  0  0  0  0
   38.5560   31.4320   40.9800 N   0  0  0  0  0  0  0  0  0  0  0  0
   39.4610   31.0460   41.9190 C   0  0  0  0  0  3  0  0  0  0  0  0
   39.1090   30.0530   42.7570 N   0  0  0  0  0  0  0  0  0  0  0  0
  1  2  1  0  0  0  0
  1  3  1  0  0  0  0
  4  9  2  0  0  0  0
  4  5  1  0  0  0  0
  5  6  2  0  0  0  0
  6  7  1  0  0  0  0
  6 12  1  0  0  0  0
  8  1  1  0  0  0  0
  8  7  2  0  0  0  0
  9  8  1  0  0  0  0
 10  4  1  0  0  0  0
 11  5  1  0  0  0  0
 13 19  1  0  0  0  0
 13  1  1  0  0  0  0
 14 13  2  0  0  0  0
 15 17  2  0  0  0  0
 15 14  1  0  0  0  0
 16 15  1  0  0  0  0
 17 18  1  0  0  0  0
 18 19  2  0  0  0  0
M  END
>  <minimizedAffinity>
-3.90797567

$$$$

 OpenBabel03242523293D

 19 20  0  0  0  0  0  0  0  0999 V2000
   37.6450   28.4030   43.6800 C   0  0  0  0  0  0  0  0  0  0  0  0
   38.1620   28.6780   44.6210 H   0  0  0  0  0  0  0  0  0  0  0  0
   36.5470   28.3610   43.8660 H   0  0  0  0  0  0  0  0  0  0  0  0
   39.3250   31.0260   41.6320 C   0  0  0  0  0  0  0  0  0  0  0  0
   38.3280   31.3600   40.7100 C   0  0  0  0  0  0  0  0  0  0  0  0
   37.1060   30.6790   40.8110 C   0  0  0  0  0  0  0  0  0  0  0  0
   36.9550   29.7460   41.7850 N   0  0  0  0  0  0  0  0  0  0  0  0
   37.9460   29.4490   42.6620 C   0  0  0  0  0  0  0  0  0  0  0  0
   39.1170   30.1020   42.5630 N   0  0  0  0  0  0  0  0  0  0  0  0
   40.2540   31.5500   41.5470 H   0  0  0  0  0  0  0  0  0  0  0  0
   38.4020   32.0880   39.9260 H   0  0  0  0  0  0  0  0  0  0  0  0
   36.2410   30.8330   40.1660 H   0  0  0  0  0  0  0  0  0  0  0  0
   38.1290   27.0800   43.2540 C   0  0  0  0  0  0  0  0  0  0  0  0
   39.3880   26.6360   43.6790 C   0  0  0  0  0  3  0  0  0  0  0  0
   39.9070   25.3970   43.3150 C   0  0  0  0  0  0  0  0  0  0  0  0
   40.8800   25.1060   43.6690 H   0  0  0  0  0  0  0  0  0  0  0  0
   39.1390   24.6270   42.5230 N   0  0  0  0  0  0  0  0  0  0  0  0
   37.9120   25.0180   42.0880 C   0  0  0  0  0  3  0  0  0  0  0  0
   37.4660   26.2280   42.4750 N   0  0  0  0  0  0  0  0  0  0  0  0
  1  3  1  0  0  0  0
  1  2  1  0  0  0  0
  4  9  1  0  0  0  0
  5  6  1  0  0  0  0
  5  4  2  0  0  0  0
  6  7  2  0  0  0  0
  7  8  1  0  0  0  0
  8  1  1  0  0  0  0
  9  8  2  0  0  0  0
 10  4  1  0  0  0  0
 11  5  1  0  0  0  0
 12  6  1  0  0  0  0
 13 14  1  0  0  0  0
 13  1  1  0  0  0  0
 15 16  1  0  0  0  0
 15 14  2  0  0  0  0
 17 15  1  0  0  0  0
 18 19  1  0  0  0  0
 18 17  2  0  0  0  0
 19 13  2  0  0  0  0
M  END
>  <minimizedAffinity>
-3.87615132

$$$$

 OpenBabel03242523293D

 19 20  0  0  0  0  0  0  0  0999 V2000
   35.6050   29.4020   40.6720 C   0  0  0  0  0  0  0  0  0  0  0  0
   34.8890   28.6680   40.2530 H   0  0  0  0  0  0  0  0  0  0  0  0
   35.0450   30.1530   41.2770 H   0  0  0  0  0  0  0  0  0  0  0  0
   37.6660   26.7470   42.2840 C   0  0  0  0  0  0  0  0  0  0  0  0
   38.3910   27.4760   43.2320 C   0  0  0  0  0  0  0  0  0  0  0  0
   38.1570   28.8570   43.2970 C   0  0  0  0  0  0  0  0  0  0  0  0
   37.2520   29.4080   42.4490 N   0  0  0  0  0  0  0  0  0  0  0  0
   36.5680   28.6680   41.5410 C   0  0  0  0  0  0  0  0  0  0  0  0
   36.7940   27.3450   41.4810 N   0  0  0  0  0  0  0  0  0  0  0  0
   37.8510   25.6950   42.2420 H   0  0  0  0  0  0  0  0  0  0  0  0
   39.1140   27.0850   43.9210 H   0  0  0  0  0  0  0  0  0  0  0  0
   38.6450   29.5500   43.9830 H   0  0  0  0  0  0  0  0  0  0  0  0
   36.2900   30.0740   39.5550 C   0  0  0  0  0  0  0  0  0  0  0  0
   36.6800   31.4120   39.6900 C   0  0  0  0  0  3  0  0  0  0  0  0
   37.3310   32.1080   38.6750 C   0  0  0  0  0  0  0  0  0  0  0  0
   37.6070   33.1350   38.8310 H   0  0  0  0  0  0  0  0  0  0  0  0
   37.5750   31.4320   37.5370 N   0  0  0  0  0  0  0  0  0  0  0  0
   37.2140   30.1330   37.3650 C   0  0  0  0  0  3  0  0  0  0  0  0
   36.5880   29.5150   38.3830 N   0  0  0  0  0  0  0  0  0  0  0  0
  1  3  1  0  0  0  0
  1  8  1  0  0  0  0
  2  1  1  0  0  0  0
  4  5  1  0  0  0  0
  5  6  2  0  0  0  0
  5 11  1  0  0  0  0
  6 12  1  0  0  0  0
  7  6  1  0  0  0  0
  8  7  2  0  0  0  0
  9  8  1  0  0  0  0
  9  4  2  0  0  0  0
 10  4  1  0  0  0  0
 13 14  1  0  0  0  0
 13  1  1  0  0  0  0
 15 16  1  0  0  0  0
 15 14  2  0  0  0  0
 17 15  1  0  0  0  0
 18 17  2  0  0  0  0
 18 19  1  0  0  0  0
 19 13  2  0  0  0  0
M  END
>  <minimizedAffinity>
-3.85979557

$$$$

 OpenBabel03242523293D

 19 20  0  0  0  0  0  0  0  0999 V2000
   39.5140   29.9400   41.9510 C   0  0  0  0  0  0  0  0  0  0  0  0
   40.3450   29.5960   41.3040 H   0  0  0  0  0  0  0  0  0  0  0  0
   39.9340   30.3300   42.9070 H   0  0  0  0  0  0  0  0  0  0  0  0
   37.0270   31.8730   39.9570 C   0  0  0  0  0  0  0  0  0  0  0  0
   37.5810   33.1570   39.9670 C   0  0  0  0  0  0  0  0  0  0  0  0
   38.7900   33.3300   40.6550 C   0  0  0  0  0  0  0  0  0  0  0  0
   39.3540   32.2580   41.2670 N   0  0  0  0  0  0  0  0  0  0  0  0
   38.7870   31.0270   41.2360 C   0  0  0  0  0  0  0  0  0  0  0  0
   37.6280   30.8630   40.5760 N   0  0  0  0  0  0  0  0  0  0  0  0
   36.1050   31.7500   39.4300 H   0  0  0  0  0  0  0  0  0  0  0  0
   37.1720   34.0310   39.4990 H   0  0  0  0  0  0  0  0  0  0  0  0
   39.3360   34.2690   40.7470 H   0  0  0  0  0  0  0  0  0  0  0  0
   38.6340   28.7920   42.2260 C   0  0  0  0  0  0  0  0  0  0  0  0
   37.8120   28.8090   43.3590 C   0  0  0  0  0  3  0  0  0  0  0  0
   36.9560   27.7580   43.6790 C   0  0  0  0  0  0  0  0  0  0  0  0
   36.3470   27.8230   44.5630 H   0  0  0  0  0  0  0  0  0  0  0  0
   36.9490   26.7060   42.8420 N   0  0  0  0  0  0  0  0  0  0  0  0
   37.7310   26.6480   41.7300 C   0  0  0  0  0  3  0  0  0  0  0  0
   38.5370   27.6960   41.4760 N   0  0  0  0  0  0  0  0  0  0  0  0
  1 13  1  0  0  0  0
  1  3  1  0  0  0  0
  2  1  1  0  0  0  0
  4  5  2  0  0  0  0
  4  9  1  0  0  0  0
  5  6  1  0  0  0  0
  6 12  1  0  0  0  0
  6  7  2  0  0  0  0
  8  7  1  0  0  0  0
  8  1  1  0  0  0  0
  9  8  2  0  0  0  0
 10  4  1  0  0  0  0
 11  5  1  0  0  0  0
 13 14  1  0  0  0  0
 14 15  2  0  0  0  0
 15 16  1  0  0  0  0
 17 15  1  0  0  0  0
 18 17  2  0  0  0  0
 19 18  1  0  0  0  0
 19 13  2  0  0  0  0
M  END
>  <minimizedAffinity>
-3.81420636

$$$$

 OpenBabel03242523293D

 19 20  0  0  0  0  0  0  0  0999 V2000
   36.3600   30.8090   41.0280 C   0  0  0  0  0  0  0  0  0  0  0  0
   35.5680   30.4950   40.3200 H   0  0  0  0  0  0  0  0  0  0  0  0
   35.9300   31.5300   41.7610 H   0  0  0  0  0  0  0  0  0  0  0  0
   36.7720   27.3370   42.3220 C   0  0  0  0  0  0  0  0  0  0  0  0
   37.9060   27.4600   43.1300 C   0  0  0  0  0  0  0  0  0  0  0  0
   38.5030   28.7270   43.2130 C   0  0  0  0  0  0  0  0  0  0  0  0
   37.9560   29.7540   42.5140 N   0  0  0  0  0  0  0  0  0  0  0  0
   36.8540   29.5970   41.7400 C   0  0  0  0  0  0  0  0  0  0  0  0
   36.2840   28.3820   41.6630 N   0  0  0  0  0  0  0  0  0  0  0  0
   36.3230   26.3680   42.2650 H   0  0  0  0  0  0  0  0  0  0  0  0
   38.3720   26.6790   43.6980 H   0  0  0  0  0  0  0  0  0  0  0  0
   39.3870   28.9720   43.8000 H   0  0  0  0  0  0  0  0  0  0  0  0
   37.4360   31.4610   40.2620 C   0  0  0  0  0  0  0  0  0  0  0  0
   37.9130   30.8560   39.0930 C   0  0  0  0  0  3  0  0  0  0  0  0
   38.9270   31.4160   38.3200 C   0  0  0  0  0  0  0  0  0  0  0  0
   39.2560   30.9090   37.4310 H   0  0  0  0  0  0  0  0  0  0  0  0
   39.4410   32.5830   38.7490 N   0  0  0  0  0  0  0  0  0  0  0  0
   39.0060   33.2050   39.8780 C   0  0  0  0  0  3  0  0  0  0  0  0
   38.0240   32.6120   40.5810 N   0  0  0  0  0  0  0  0  0  0  0  0
  1  8  1  0  0  0  0
  1  3  1  0  0  0  0
  2  1  1  0  0  0  0
  4  5  1  0  0  0  0
  5  6  2  0  0  0  0
  5 11  1  0  0  0  0
  6 12  1  0  0  0  0
  7  6  1  0  0  0  0
  8  7  2  0  0  0  0
  9  8  1  0  0  0  0
  9  4  2  0  0  0  0
 10  4  1  0  0  0  0
 13 19  1  0  0  0  0
 13  1  1  0  0  0  0
 14 13  2  0  0  0  0
 15 17  2  0  0  0  0
 15 14  1  0  0  0  0
 16 15  1  0  0  0  0
 17 18  1  0  0  0  0
 18 19  2  0  0  0  0
M  END
>  <minimizedAffinity>
-3.79342556

$$$$
