
 OpenBabel03242523343D

 35 38  0  0  0  0  0  0  0  0999 V2000
   45.5750   33.1500   46.5760 C   0  0  0  0  0  0  0  0  0  0  0  0
   44.5880   32.6500   46.6900 H   0  0  0  0  0  0  0  0  0  0  0  0
   45.9030   33.6210   47.5210 H   0  0  0  0  0  0  0  0  0  0  0  0
   44.4520   36.1670   44.7080 C   0  0  0  0  0  0  0  0  0  0  0  0
   45.1510   36.0070   43.4920 C   0  0  0  0  0  0  0  0  0  0  0  0
   45.9760   34.8890   43.3460 C   0  0  0  0  0  0  0  0  0  0  0  0
   46.0970   33.9760   44.3630 N   0  0  0  0  0  0  0  0  0  0  0  0
   45.3910   34.1800   45.5310 C   0  0  0  0  0  0  0  0  0  0  0  0
   44.6000   35.2580   45.6640 N   0  0  0  0  0  0  0  0  0  0  0  0
   43.8120   37.0290   44.8300 H   0  0  0  0  0  0  0  0  0  0  0  0
   45.0310   36.7470   42.7130 H   0  0  0  0  0  0  0  0  0  0  0  0
   46.7030   34.7120   42.0960 C   0  0  0  0  0  0  0  0  0  0  0  0
   46.1750   33.9270   41.0930 C   0  0  0  0  0  3  0  0  0  0  0  0
   46.9720   33.8490   39.9670 C   0  0  0  0  0  0  0  0  0  0  0  0
   46.6120   33.2420   39.1310 H   0  0  0  0  0  0  0  0  0  0  0  0
   48.1730   34.4750   39.8270 N   0  0  0  0  0  0  0  0  0  0  0  0
   48.6280   35.2340   40.8640 C   0  0  0  0  0  3  0  0  0  0  0  0
   47.8860   35.3390   41.9780 N   0  0  0  0  0  0  0  0  0  0  0  0
   46.7240   31.9210   45.9290 S   0  0  0  0  0  0  0  0  0  0  0  0
   47.6980   31.2070   47.2340 C   0  0  0  0  0  0  0  0  0  0  0  0
   47.9840   32.0020   48.3190 C   0  0  0  0  0  0  0  0  0  0  0  0
   48.7330   31.4640   49.3370 C   0  0  0  0  0  0  0  0  0  0  0  0
   49.2040   30.1640   49.3070 C   0  0  0  0  0  0  0  0  0  0  0  0
   49.9310   29.6600   50.3140 N   0  0  0  0  0  0  0  0  0  0  0  0
   50.3930   28.3990   50.2980 C   0  0  0  0  0  0  0  0  0  0  0  0
   50.1090   27.5980   49.2140 C   0  0  0  0  0  0  0  0  0  0  0  0
   49.3560   28.0980   48.1580 C   0  0  0  0  0  0  0  0  0  0  0  0
   48.8770   29.4150   48.1810 C   0  0  0  0  0  0  0  0  0  0  0  0
   48.1290   29.9100   47.1320 C   0  0  0  0  0  0  0  0  0  0  0  0
   47.7000   33.0130   48.4910 H   0  0  0  0  0  0  0  0  0  0  0  0
   49.0100   32.0250   50.2400 H   0  0  0  0  0  0  0  0  0  0  0  0
   50.9830   28.0200   51.1340 H   0  0  0  0  0  0  0  0  0  0  0  0
   50.4610   26.5800   49.1610 H   0  0  0  0  0  0  0  0  0  0  0  0
   49.1050   27.5140   47.2840 H   0  0  0  0  0  0  0  0  0  0  0  0
   47.8980   29.2900   46.2720 H   0  0  0  0  0  0  0  0  0  0  0  0
  1  2  1  0  0  0  0
  1  3  1  0  0  0  0
  4 10  1  0  0  0  0
  4  9  1  0  0  0  0
  5  4  2  0  0  0  0
  6  5  1  0  0  0  0
  6  7  2  0  0  0  0
  7  8  1  0  0  0  0
  8  9  2  0  0  0  0
  8  1  1  0  0  0  0
 11  5  1  0  0  0  0
 12  6  1  0  0  0  0
 13 12  2  0  0  0  0
 14 13  1  0  0  0  0
 15 14  1  0  0  0  0
 16 14  2  0  0  0  0
 16 17  1  0  0  0  0
 17 18  2  0  0  0  0
 18 12  1  0  0  0  0
 19  1  1  0  0  0  0
 19 20  1  0  0  0  0
 20 21  1  0  0  0  0
 21 30  1  0  0  0  0
 21 22  2  0  0  0  0
 22 31  1  0  0  0  0
 23 22  1  0  0  0  0
 23 24  1  0  0  0  0
 25 24  2  0  0  0  0
 25 32  1  0  0  0  0
 26 25  1  0  0  0  0
 27 28  1  0  0  0  0
 27 26  2  0  0  0  0
 28 23  2  0  0  0  0
 29 20  2  0  0  0  0
 29 28  1  0  0  0  0
 33 26  1  0  0  0  0
 34 27  1  0  0  0  0
 35 29  1  0  0  0  0
M  END
>  <minimizedAffinity>
-6.2091012

>  <minimizedRMSD>
0.388204575

$$$$
