
 OpenBabel03252503523D

 19 20  0  0  0  0  0  0  0  0999 V2000
   36.7140   28.6240   41.8970 C   0  0  0  0  0  0  0  0  0  0  0  0
   37.6030   29.7100   41.7800 C   0  0  0  0  0  0  0  0  0  0  0  0
   37.3180   30.7010   40.8390 C   0  0  0  0  0  0  0  0  0  0  0  0
   36.2070   30.5760   40.0880 N   0  0  0  0  0  0  0  0  0  0  0  0
   35.3580   29.5260   40.2110 C   0  0  0  0  0  0  0  0  0  0  0  0
   35.6170   28.5560   41.1150 N   0  0  0  0  0  0  0  0  0  0  0  0
   38.5030   29.8370   42.3690 H   0  0  0  0  0  0  0  0  0  0  0  0
   34.4580   29.4060   39.6150 H   0  0  0  0  0  0  0  0  0  0  0  0
   38.1980   31.8270   40.6840 C   0  0  0  0  0  0  0  0  0  0  0  0
   39.5500   31.6770   40.9040 C   0  0  0  0  0  3  0  0  0  0  0  0
   40.3740   32.7940   40.7440 C   0  0  0  0  0  0  0  0  0  0  0  0
   41.4600   32.7570   40.9010 H   0  0  0  0  0  0  0  0  0  0  0  0
   39.8610   34.0050   40.3790 N   0  0  0  0  0  0  0  0  0  0  0  0
   38.5410   34.0970   40.1750 C   0  0  0  0  0  3  0  0  0  0  0  0
   37.7260   33.0300   40.3260 N   0  0  0  0  0  0  0  0  0  0  0  0
   37.0450   27.5780   42.9130 C   0  0  0  0  0  0  0  0  0  0  0  0
   38.1210   27.9310   43.6770 F   0  0  0  0  0  0  0  0  0  0  0  0
   35.8990   27.3680   43.6800 F   0  0  0  0  0  0  0  0  0  0  0  0
   37.2770   26.3600   42.2470 F   0  0  0  0  0  0  0  0  0  0  0  0
  1 16  1  0  0  0  0
  2  1  1  0  0  0  0
  2  7  1  0  0  0  0
  3  2  2  0  0  0  0
  4  5  2  0  0  0  0
  4  3  1  0  0  0  0
  5  6  1  0  0  0  0
  6  1  2  0  0  0  0
  8  5  1  0  0  0  0
  9  3  1  0  0  0  0
  9 10  1  0  0  0  0
 11 12  1  0  0  0  0
 11 10  2  0  0  0  0
 13 11  1  0  0  0  0
 14 15  1  0  0  0  0
 14 13  2  0  0  0  0
 15  9  2  0  0  0  0
 16 17  1  0  0  0  0
 16 18  1  0  0  0  0
 19 16  1  0  0  0  0
M  END
>  <minimizedAffinity>
-4.93475962

$$$$

 OpenBabel03252503523D

 19 20  0  0  0  0  0  0  0  0999 V2000
   36.9190   27.6360   41.5680 C   0  0  0  0  0  0  0  0  0  0  0  0
   37.3000   28.9920   41.5890 C   0  0  0  0  0  0  0  0  0  0  0  0
   37.3080   29.6960   40.3840 C   0  0  0  0  0  0  0  0  0  0  0  0
   36.9500   29.0490   39.2570 N   0  0  0  0  0  0  0  0  0  0  0  0
   36.5850   27.7440   39.2500 C   0  0  0  0  0  0  0  0  0  0  0  0
   36.5720   27.0450   40.4060 N   0  0  0  0  0  0  0  0  0  0  0  0
   37.5910   29.5370   42.4780 H   0  0  0  0  0  0  0  0  0  0  0  0
   36.2950   27.2040   38.3530 H   0  0  0  0  0  0  0  0  0  0  0  0
   37.6900   31.0810   40.3570 C   0  0  0  0  0  0  0  0  0  0  0  0
   36.9820   31.9740   39.5810 C   0  0  0  0  0  3  0  0  0  0  0  0
   37.3830   33.3120   39.5790 C   0  0  0  0  0  0  0  0  0  0  0  0
   36.8720   34.0840   38.9880 H   0  0  0  0  0  0  0  0  0  0  0  0
   38.4470   33.7330   40.3230 N   0  0  0  0  0  0  0  0  0  0  0  0
   39.1000   32.8270   41.0610 C   0  0  0  0  0  3  0  0  0  0  0  0
   38.7300   31.5270   41.0760 N   0  0  0  0  0  0  0  0  0  0  0  0
   36.9210   26.9060   42.8730 C   0  0  0  0  0  0  0  0  0  0  0  0
   36.7810   25.5570   42.7040 F   0  0  0  0  0  0  0  0  0  0  0  0
   38.1050   27.2360   43.5300 F   0  0  0  0  0  0  0  0  0  0  0  0
   35.8900   27.4230   43.6800 F   0  0  0  0  0  0  0  0  0  0  0  0
  1  2  1  0  0  0  0
  1 16  1  0  0  0  0
  2  7  1  0  0  0  0
  3  2  2  0  0  0  0
  4  3  1  0  0  0  0
  5  4  2  0  0  0  0
  5  6  1  0  0  0  0
  6  1  2  0  0  0  0
  8  5  1  0  0  0  0
  9  3  1  0  0  0  0
  9 15  1  0  0  0  0
 10  9  2  0  0  0  0
 11 10  1  0  0  0  0
 11 13  2  0  0  0  0
 12 11  1  0  0  0  0
 13 14  1  0  0  0  0
 14 15  2  0  0  0  0
 16 18  1  0  0  0  0
 16 19  1  0  0  0  0
 17 16  1  0  0  0  0
M  END
>  <minimizedAffinity>
-4.76608753

$$$$

 OpenBabel03252503523D

 19 20  0  0  0  0  0  0  0  0999 V2000
   37.2640   26.8560   42.0140 C   0  0  0  0  0  0  0  0  0  0  0  0
   37.2510   27.7930   40.9620 C   0  0  0  0  0  0  0  0  0  0  0  0
   37.3810   29.1460   41.2790 C   0  0  0  0  0  0  0  0  0  0  0  0
   37.5150   29.4940   42.5730 N   0  0  0  0  0  0  0  0  0  0  0  0
   37.5270   28.5830   43.5770 C   0  0  0  0  0  0  0  0  0  0  0  0
   37.4010   27.2690   43.2910 N   0  0  0  0  0  0  0  0  0  0  0  0
   37.1450   27.5420   39.9140 H   0  0  0  0  0  0  0  0  0  0  0  0
   37.6320   28.8430   44.6260 H   0  0  0  0  0  0  0  0  0  0  0  0
   37.3720   30.1370   40.2390 C   0  0  0  0  0  0  0  0  0  0  0  0
   37.0980   31.4530   40.5470 C   0  0  0  0  0  3  0  0  0  0  0  0
   37.0970   32.3890   39.5100 C   0  0  0  0  0  0  0  0  0  0  0  0
   36.8890   33.4540   39.6720 H   0  0  0  0  0  0  0  0  0  0  0  0
   37.3610   32.0190   38.2220 N   0  0  0  0  0  0  0  0  0  0  0  0
   37.6220   30.7290   37.9770 C   0  0  0  0  0  3  0  0  0  0  0  0
   37.6260   29.8070   38.9650 N   0  0  0  0  0  0  0  0  0  0  0  0
   37.1220   25.4130   41.6450 C   0  0  0  0  0  0  0  0  0  0  0  0
   36.4430   24.7080   42.5980 F   0  0  0  0  0  0  0  0  0  0  0  0
   36.4920   25.3640   40.4030 F   0  0  0  0  0  0  0  0  0  0  0  0
   38.4040   24.8730   41.4350 F   0  0  0  0  0  0  0  0  0  0  0  0
  1  6  1  0  0  0  0
  2  3  1  0  0  0  0
  2  1  2  0  0  0  0
  3  4  2  0  0  0  0
  4  5  1  0  0  0  0
  5  8  1  0  0  0  0
  6  5  2  0  0  0  0
  7  2  1  0  0  0  0
  9 10  1  0  0  0  0
  9  3  1  0  0  0  0
 11 12  1  0  0  0  0
 11 10  2  0  0  0  0
 13 11  1  0  0  0  0
 14 13  2  0  0  0  0
 14 15  1  0  0  0  0
 15  9  2  0  0  0  0
 16  1  1  0  0  0  0
 16 17  1  0  0  0  0
 18 16  1  0  0  0  0
 19 16  1  0  0  0  0
M  END
>  <minimizedAffinity>
-4.57335711

$$$$

 OpenBabel03252503523D

 19 20  0  0  0  0  0  0  0  0999 V2000
   37.2350   26.8300   41.9720 C   0  0  0  0  0  0  0  0  0  0  0  0
   37.1900   27.8300   40.9800 C   0  0  0  0  0  0  0  0  0  0  0  0
   37.3160   29.1620   41.3760 C   0  0  0  0  0  0  0  0  0  0  0  0
   37.4770   29.4320   42.6860 N   0  0  0  0  0  0  0  0  0  0  0  0
   37.5200   28.4610   43.6320 C   0  0  0  0  0  0  0  0  0  0  0  0
   37.3980   27.1660   43.2680 N   0  0  0  0  0  0  0  0  0  0  0  0
   37.0620   27.6430   39.9210 H   0  0  0  0  0  0  0  0  0  0  0  0
   37.6480   28.6580   44.6920 H   0  0  0  0  0  0  0  0  0  0  0  0
   37.2750   30.2160   40.4000 C   0  0  0  0  0  0  0  0  0  0  0  0
   37.1690   29.9070   39.0610 C   0  0  0  0  0  3  0  0  0  0  0  0
   37.1320   30.9570   38.1400 C   0  0  0  0  0  0  0  0  0  0  0  0
   37.0500   30.7940   37.0580 H   0  0  0  0  0  0  0  0  0  0  0  0
   37.1980   32.2580   38.5480 N   0  0  0  0  0  0  0  0  0  0  0  0
   37.2980   32.5040   39.8600 C   0  0  0  0  0  3  0  0  0  0  0  0
   37.3370   31.5040   40.7670 N   0  0  0  0  0  0  0  0  0  0  0  0
   37.0970   25.4120   41.5180 C   0  0  0  0  0  0  0  0  0  0  0  0
   36.4260   25.3200   40.3310 F   0  0  0  0  0  0  0  0  0  0  0  0
   38.3810   24.8750   41.4420 F   0  0  0  0  0  0  0  0  0  0  0  0
   36.4430   24.6780   42.5250 F   0  0  0  0  0  0  0  0  0  0  0  0
  1  6  1  0  0  0  0
  2  3  1  0  0  0  0
  2  1  2  0  0  0  0
  3  4  2  0  0  0  0
  4  5  1  0  0  0  0
  5  8  1  0  0  0  0
  6  5  2  0  0  0  0
  7  2  1  0  0  0  0
  9 15  1  0  0  0  0
  9  3  1  0  0  0  0
 10  9  2  0  0  0  0
 11 13  2  0  0  0  0
 11 10  1  0  0  0  0
 12 11  1  0  0  0  0
 13 14  1  0  0  0  0
 14 15  2  0  0  0  0
 16  1  1  0  0  0  0
 16 19  1  0  0  0  0
 17 16  1  0  0  0  0
 18 16  1  0  0  0  0
M  END
>  <minimizedAffinity>
-4.57097769

$$$$

 OpenBabel03252503523D

 19 20  0  0  0  0  0  0  0  0999 V2000
   38.1890   25.9650   42.2930 C   0  0  0  0  0  0  0  0  0  0  0  0
   37.7700   27.1920   41.7430 C   0  0  0  0  0  0  0  0  0  0  0  0
   38.4180   28.3580   42.1540 C   0  0  0  0  0  0  0  0  0  0  0  0
   39.4140   28.2580   43.0550 N   0  0  0  0  0  0  0  0  0  0  0  0
   39.8080   27.0700   43.5780 C   0  0  0  0  0  0  0  0  0  0  0  0
   39.1930   25.9310   43.1930 N   0  0  0  0  0  0  0  0  0  0  0  0
   36.9730   27.3030   41.0180 H   0  0  0  0  0  0  0  0  0  0  0  0
   40.6080   26.9680   44.3060 H   0  0  0  0  0  0  0  0  0  0  0  0
   38.0240   29.6330   41.6200 C   0  0  0  0  0  0  0  0  0  0  0  0
   38.9730   30.6070   41.3960 C   0  0  0  0  0  3  0  0  0  0  0  0
   38.5530   31.8340   40.8770 C   0  0  0  0  0  0  0  0  0  0  0  0
   39.2460   32.6590   40.6710 H   0  0  0  0  0  0  0  0  0  0  0  0
   37.2380   32.0700   40.5960 N   0  0  0  0  0  0  0  0  0  0  0  0
   36.3560   31.0910   40.8310 C   0  0  0  0  0  3  0  0  0  0  0  0
   36.7410   29.8970   41.3340 N   0  0  0  0  0  0  0  0  0  0  0  0
   37.4760   24.7330   41.8350 C   0  0  0  0  0  0  0  0  0  0  0  0
   38.2800   23.6290   41.8910 F   0  0  0  0  0  0  0  0  0  0  0  0
   36.3350   24.5960   42.6240 F   0  0  0  0  0  0  0  0  0  0  0  0
   37.0020   24.9460   40.5270 F   0  0  0  0  0  0  0  0  0  0  0  0
  1  6  1  0  0  0  0
  2  3  1  0  0  0  0
  2  1  2  0  0  0  0
  3  4  2  0  0  0  0
  4  5  1  0  0  0  0
  5  8  1  0  0  0  0
  6  5  2  0  0  0  0
  7  2  1  0  0  0  0
  9  3  1  0  0  0  0
 10  9  1  0  0  0  0
 11 10  2  0  0  0  0
 12 11  1  0  0  0  0
 13 14  2  0  0  0  0
 13 11  1  0  0  0  0
 14 15  1  0  0  0  0
 15  9  2  0  0  0  0
 16 17  1  0  0  0  0
 16  1  1  0  0  0  0
 16 18  1  0  0  0  0
 19 16  1  0  0  0  0
M  END
>  <minimizedAffinity>
-4.54124355

$$$$

 OpenBabel03252503523D

 19 20  0  0  0  0  0  0  0  0999 V2000
   38.0010   28.2710   42.3780 C   0  0  0  0  0  0  0  0  0  0  0  0
   37.9650   29.5400   41.7680 C   0  0  0  0  0  0  0  0  0  0  0  0
   39.1340   30.3020   41.7550 C   0  0  0  0  0  0  0  0  0  0  0  0
   40.2430   29.7900   42.3230 N   0  0  0  0  0  0  0  0  0  0  0  0
   40.2650   28.5670   42.9070 C   0  0  0  0  0  0  0  0  0  0  0  0
   39.1430   27.8150   42.9300 N   0  0  0  0  0  0  0  0  0  0  0  0
   37.0890   29.9760   41.3040 H   0  0  0  0  0  0  0  0  0  0  0  0
   41.1480   28.1370   43.3710 H   0  0  0  0  0  0  0  0  0  0  0  0
   39.1440   31.6030   41.1450 C   0  0  0  0  0  0  0  0  0  0  0  0
   37.9760   32.1330   40.6370 C   0  0  0  0  0  3  0  0  0  0  0  0
   38.0240   33.4000   40.0510 C   0  0  0  0  0  0  0  0  0  0  0  0
   37.1400   33.8900   39.6240 H   0  0  0  0  0  0  0  0  0  0  0  0
   39.1930   34.1020   39.9790 N   0  0  0  0  0  0  0  0  0  0  0  0
   40.2980   33.5440   40.4870 C   0  0  0  0  0  3  0  0  0  0  0  0
   40.2750   32.3190   41.0580 N   0  0  0  0  0  0  0  0  0  0  0  0
   36.7340   27.4770   42.3770 C   0  0  0  0  0  0  0  0  0  0  0  0
   36.9290   26.2040   41.9200 F   0  0  0  0  0  0  0  0  0  0  0  0
   36.2300   27.5000   43.6770 F   0  0  0  0  0  0  0  0  0  0  0  0
   35.7780   28.1520   41.5950 F   0  0  0  0  0  0  0  0  0  0  0  0
  1  6  1  0  0  0  0
  2  1  2  0  0  0  0
  3  2  1  0  0  0  0
  3  4  2  0  0  0  0
  4  5  1  0  0  0  0
  5  6  2  0  0  0  0
  5  8  1  0  0  0  0
  7  2  1  0  0  0  0
  9  3  1  0  0  0  0
 10  9  2  0  0  0  0
 11 10  1  0  0  0  0
 12 11  1  0  0  0  0
 13 11  2  0  0  0  0
 13 14  1  0  0  0  0
 14 15  2  0  0  0  0
 15  9  1  0  0  0  0
 16  1  1  0  0  0  0
 16 18  1  0  0  0  0
 17 16  1  0  0  0  0
 19 16  1  0  0  0  0
M  END
>  <minimizedAffinity>
-4.53805494

$$$$

 OpenBabel03252503523D

 19 20  0  0  0  0  0  0  0  0999 V2000
   36.6470   28.9560   41.3330 C   0  0  0  0  0  0  0  0  0  0  0  0
   36.6170   27.6680   40.7630 C   0  0  0  0  0  0  0  0  0  0  0  0
   37.2140   26.6190   41.4640 C   0  0  0  0  0  0  0  0  0  0  0  0
   37.7900   26.8840   42.6520 N   0  0  0  0  0  0  0  0  0  0  0  0
   37.8120   28.1290   43.1910 C   0  0  0  0  0  0  0  0  0  0  0  0
   37.2400   29.1560   42.5270 N   0  0  0  0  0  0  0  0  0  0  0  0
   36.1610   27.4260   39.8110 H   0  0  0  0  0  0  0  0  0  0  0  0
   38.2720   28.3630   44.1460 H   0  0  0  0  0  0  0  0  0  0  0  0
   37.2080   25.2890   40.9210 C   0  0  0  0  0  0  0  0  0  0  0  0
   38.0930   24.3470   41.4010 C   0  0  0  0  0  3  0  0  0  0  0  0
   38.0590   23.0640   40.8490 C   0  0  0  0  0  0  0  0  0  0  0  0
   38.7290   22.2590   41.1760 H   0  0  0  0  0  0  0  0  0  0  0  0
   37.1740   22.7430   39.8590 N   0  0  0  0  0  0  0  0  0  0  0  0
   36.3350   23.6940   39.4290 C   0  0  0  0  0  3  0  0  0  0  0  0
   36.3520   24.9410   39.9480 N   0  0  0  0  0  0  0  0  0  0  0  0
   36.0000   30.0600   40.5590 C   0  0  0  0  0  0  0  0  0  0  0  0
   34.7620   29.7040   40.1010 F   0  0  0  0  0  0  0  0  0  0  0  0
   35.9530   31.1770   41.3930 F   0  0  0  0  0  0  0  0  0  0  0  0
   36.8460   30.4220   39.4960 F   0  0  0  0  0  0  0  0  0  0  0  0
  1  6  1  0  0  0  0
  2  1  2  0  0  0  0
  2  3  1  0  0  0  0
  3  4  2  0  0  0  0
  4  5  1  0  0  0  0
  5  8  1  0  0  0  0
  6  5  2  0  0  0  0
  7  2  1  0  0  0  0
  9 10  1  0  0  0  0
  9  3  1  0  0  0  0
 11 12  1  0  0  0  0
 11 10  2  0  0  0  0
 13 11  1  0  0  0  0
 14 13  2  0  0  0  0
 14 15  1  0  0  0  0
 15  9  2  0  0  0  0
 16  1  1  0  0  0  0
 16 18  1  0  0  0  0
 17 16  1  0  0  0  0
 19 16  1  0  0  0  0
M  END
>  <minimizedAffinity>
-4.32252264

$$$$

 OpenBabel03252503523D

 19 20  0  0  0  0  0  0  0  0999 V2000
   37.5190   31.6660   39.2420 C   0  0  0  0  0  0  0  0  0  0  0  0
   37.4800   30.6330   40.1990 C   0  0  0  0  0  0  0  0  0  0  0  0
   37.1200   29.3520   39.7760 C   0  0  0  0  0  0  0  0  0  0  0  0
   36.8270   29.1620   38.4750 N   0  0  0  0  0  0  0  0  0  0  0  0
   36.8690   30.1650   37.5640 C   0  0  0  0  0  0  0  0  0  0  0  0
   37.2140   31.4110   37.9540 N   0  0  0  0  0  0  0  0  0  0  0  0
   37.7100   30.7570   41.2500 H   0  0  0  0  0  0  0  0  0  0  0  0
   36.6360   30.0320   36.5110 H   0  0  0  0  0  0  0  0  0  0  0  0
   37.0660   28.2670   40.7170 C   0  0  0  0  0  0  0  0  0  0  0  0
   36.8240   28.5260   42.0500 C   0  0  0  0  0  3  0  0  0  0  0  0
   36.7800   27.4460   42.9350 C   0  0  0  0  0  0  0  0  0  0  0  0
   36.5930   27.5680   44.0100 H   0  0  0  0  0  0  0  0  0  0  0  0
   36.9680   26.1660   42.5000 N   0  0  0  0  0  0  0  0  0  0  0  0
   37.1980   25.9690   41.1960 C   0  0  0  0  0  3  0  0  0  0  0  0
   37.2470   26.9990   40.3220 N   0  0  0  0  0  0  0  0  0  0  0  0
   37.9080   33.0280   39.7240 C   0  0  0  0  0  0  0  0  0  0  0  0
   36.9540   33.9630   39.4330 F   0  0  0  0  0  0  0  0  0  0  0  0
   38.1500   32.9290   41.0930 F   0  0  0  0  0  0  0  0  0  0  0  0
   39.1440   33.3740   39.1490 F   0  0  0  0  0  0  0  0  0  0  0  0
  1 16  1  0  0  0  0
  1  2  1  0  0  0  0
  2  7  1  0  0  0  0
  3  2  2  0  0  0  0
  3  9  1  0  0  0  0
  4  3  1  0  0  0  0
  5  6  1  0  0  0  0
  5  4  2  0  0  0  0
  6  1  2  0  0  0  0
  8  5  1  0  0  0  0
  9 10  1  0  0  0  0
 10 11  2  0  0  0  0
 11 12  1  0  0  0  0
 13 11  1  0  0  0  0
 14 13  2  0  0  0  0
 15  9  2  0  0  0  0
 15 14  1  0  0  0  0
 16 18  1  0  0  0  0
 17 16  1  0  0  0  0
 19 16  1  0  0  0  0
M  END
>  <minimizedAffinity>
-4.12049961

$$$$

 OpenBabel03252503523D

 19 20  0  0  0  0  0  0  0  0999 V2000
   38.5980   26.0730   42.4220 C   0  0  0  0  0  0  0  0  0  0  0  0
   37.6050   26.4010   41.4780 C   0  0  0  0  0  0  0  0  0  0  0  0
   37.2620   27.7440   41.3160 C   0  0  0  0  0  0  0  0  0  0  0  0
   37.8950   28.6650   42.0680 N   0  0  0  0  0  0  0  0  0  0  0  0
   38.8500   28.3380   42.9740 C   0  0  0  0  0  0  0  0  0  0  0  0
   39.1950   27.0430   43.1450 N   0  0  0  0  0  0  0  0  0  0  0  0
   37.0810   25.6830   40.8610 H   0  0  0  0  0  0  0  0  0  0  0  0
   39.3710   29.0650   43.5890 H   0  0  0  0  0  0  0  0  0  0  0  0
   36.2550   28.1250   40.3650 C   0  0  0  0  0  0  0  0  0  0  0  0
   36.3510   27.7030   39.0560 C   0  0  0  0  0  3  0  0  0  0  0  0
   35.3540   28.0940   38.1600 C   0  0  0  0  0  0  0  0  0  0  0  0
   35.3580   27.8000   37.1020 H   0  0  0  0  0  0  0  0  0  0  0  0
   34.3070   28.8720   38.5620 N   0  0  0  0  0  0  0  0  0  0  0  0
   34.2590   29.2540   39.8440 C   0  0  0  0  0  3  0  0  0  0  0  0
   35.2140   28.8890   40.7280 N   0  0  0  0  0  0  0  0  0  0  0  0
   38.9450   24.6270   42.5740 C   0  0  0  0  0  0  0  0  0  0  0  0
   39.7180   24.4010   43.6780 F   0  0  0  0  0  0  0  0  0  0  0  0
   37.7460   23.9160   42.6150 F   0  0  0  0  0  0  0  0  0  0  0  0
   39.5960   24.1930   41.4050 F   0  0  0  0  0  0  0  0  0  0  0  0
  1 16  1  0  0  0  0
  1  6  1  0  0  0  0
  2  1  2  0  0  0  0
  3  2  1  0  0  0  0
  3  4  2  0  0  0  0
  4  5  1  0  0  0  0
  5  6  2  0  0  0  0
  5  8  1  0  0  0  0
  7  2  1  0  0  0  0
  9 15  1  0  0  0  0
  9  3  1  0  0  0  0
 10  9  2  0  0  0  0
 11 13  2  0  0  0  0
 11 10  1  0  0  0  0
 12 11  1  0  0  0  0
 13 14  1  0  0  0  0
 14 15  2  0  0  0  0
 16 18  1  0  0  0  0
 16 17  1  0  0  0  0
 19 16  1  0  0  0  0
M  END
>  <minimizedAffinity>
-4.11612129

$$$$
