
 OpenBabel03252509313D

 25 26  0  0  0  0  0  0  0  0999 V2000
   47.9770   33.4780   43.0290 O   0  0  0  0  0  0  0  0  0  0  0  0
   46.7710   34.0750   42.6510 C   0  0  0  0  0  0  0  0  0  0  0  0
   46.8980   34.9420   41.9790 H   0  0  0  0  0  0  0  0  0  0  0  0
   46.1390   33.3450   42.0640 H   0  0  0  0  0  0  0  0  0  0  0  0
   45.2670   34.0710   46.0760 C   0  0  0  0  0  0  0  0  0  0  0  0
   46.0310   33.6780   44.9680 C   0  0  0  0  0  0  0  0  0  0  0  0
   45.9820   34.4620   43.8250 C   0  0  0  0  0  0  0  0  0  0  0  0
   45.1960   35.5760   43.8340 N   0  0  0  0  0  0  0  0  0  0  0  0
   44.4620   35.9360   44.9280 C   0  0  0  0  0  0  0  0  0  0  0  0
   44.5090   35.1790   46.0300 N   0  0  0  0  0  0  0  0  0  0  0  0
   45.3520   33.4070   46.9450 H   0  0  0  0  0  0  0  0  0  0  0  0
   46.6420   32.7720   45.0220 H   0  0  0  0  0  0  0  0  0  0  0  0
   43.8400   36.8110   44.9440 H   0  0  0  0  0  0  0  0  0  0  0  0
   49.9670   33.0230   41.3940 O   0  0  0  0  0  0  0  0  0  0  0  0
   49.1710   34.1340   42.0380 P   0  0  2  0  0  0  0  0  0  0  0  0
   50.1330   35.1460   42.9760 O   0  0  0  0  0  0  0  0  0  0  0  0
   51.0750   34.9810   42.7840 H   0  0  0  0  0  0  0  0  0  0  0  0
   48.4170   34.9930   40.8050 O   0  0  0  0  0  0  0  0  0  0  0  0
   48.0820   34.3420   39.6260 C   0  0  0  0  0  0  0  0  0  0  0  0
   48.6760   34.8270   38.4570 C   0  0  0  0  0  3  0  0  0  0  0  0
   48.4010   34.2390   37.2290 C   0  0  0  0  0  0  0  0  0  0  0  0
   48.8560   34.6040   36.2970 H   0  0  0  0  0  0  0  0  0  0  0  0
   47.5440   33.1940   37.2200 N   0  0  0  0  0  0  0  0  0  0  0  0
   46.9910   32.7530   38.3620 C   0  0  0  0  0  3  0  0  0  0  0  0
   47.2430   33.3040   39.5410 N   0  0  0  0  0  0  0  0  0  0  0  0
  2  1  1  0  0  0  0
  2  7  1  0  0  0  0
  3  2  1  0  0  0  0
  4  2  1  0  0  0  0
  5 11  1  0  0  0  0
  6 12  1  0  0  0  0
  6  5  2  0  0  0  0
  7  8  2  0  0  0  0
  7  6  1  0  0  0  0
  8  9  1  0  0  0  0
  9 13  1  0  0  0  0
  9 10  2  0  0  0  0
 10  5  1  0  0  0  0
 15 14  2  6  0  0  0
 15 16  1  0  0  0  0
 15  1  1  0  0  0  0
 17 16  1  0  0  0  0
 18 15  1  0  0  0  0
 19 18  1  0  0  0  0
 20 19  2  0  0  0  0
 21 20  1  0  0  0  0
 22 21  1  0  0  0  0
 23 21  2  0  0  0  0
 23 24  1  0  0  0  0
 24 25  2  0  0  0  0
 25 19  1  0  0  0  0
M  END
>  <minimizedAffinity>
-4.8579793

>  <minimizedRMSD>
0.65964812

$$$$
