
 OpenBabel03252508393D

 39 42  0  0  0  0  0  0  0  0999 V2000
   45.1560   33.9850   40.7500 C   0  0  0  0  0  0  0  0  0  0  0  0
   44.1050   33.6690   39.9400 C   0  0  0  0  0  0  0  0  0  0  0  0
   44.3890   33.1620   38.7130 C   0  0  0  0  0  0  0  0  0  0  0  0
   45.6610   32.9490   38.2400 C   0  0  0  0  0  0  0  0  0  0  0  0
   46.7010   33.2740   39.0730 C   0  0  0  0  0  0  0  0  0  0  0  0
   46.4690   33.7930   40.3290 C   0  0  0  0  0  0  0  0  0  0  0  0
   43.5460   32.9080   38.0600 H   0  0  0  0  0  0  0  0  0  0  0  0
   45.8580   32.5480   37.2680 H   0  0  0  0  0  0  0  0  0  0  0  0
   47.7180   33.1110   38.7120 H   0  0  0  0  0  0  0  0  0  0  0  0
   40.9260   35.3930   41.0290 C   0  0  0  0  0  0  0  0  0  0  0  0
   42.2180   35.1970   40.5120 C   0  0  0  0  0  0  0  0  0  0  0  0
   42.7790   33.9060   40.4680 C   0  0  0  0  0  0  0  0  0  0  0  0
   41.9830   32.9210   40.9530 N   0  0  0  0  0  0  0  0  0  0  0  0
   40.7660   33.1190   41.4390 C   0  0  0  0  0  0  0  0  0  0  0  0
   40.2320   34.3450   41.4810 N   0  0  0  0  0  0  0  0  0  0  0  0
   40.4140   36.7040   41.0490 N   0  0  0  0  0  0  0  0  0  0  0  0
   42.8020   36.0210   40.1400 H   0  0  0  0  0  0  0  0  0  0  0  0
   40.1760   32.2900   41.8130 H   0  0  0  0  0  0  0  0  0  0  0  0
   39.9390   37.2140   41.8270 H   0  0  0  0  0  0  0  0  0  0  0  0
   40.4880   37.3000   40.1960 H   0  0  0  0  0  0  0  0  0  0  0  0
   47.6380   34.1040   41.1350 C   0  0  0  0  0  0  0  0  0  0  0  0
   48.1680   35.3620   40.9640 C   0  0  0  0  0  0  0  0  0  0  0  0
   49.2860   35.8340   41.6510 C   0  0  0  0  0  0  0  0  0  0  0  0
   49.8830   34.9780   42.5510 C   0  0  0  0  0  0  0  0  0  0  0  0
   49.3720   33.7110   42.7400 C   0  0  0  0  0  0  0  0  0  0  0  0
   48.2610   33.2680   42.0440 C   0  0  0  0  0  0  0  0  0  0  0  0
   47.7320   36.0780   40.2650 H   0  0  0  0  0  0  0  0  0  0  0  0
   49.6610   36.8300   41.4800 H   0  0  0  0  0  0  0  0  0  0  0  0
   50.7640   35.2780   43.1260 H   0  0  0  0  0  0  0  0  0  0  0  0
   49.8130   33.0030   43.4400 H   0  0  0  0  0  0  0  0  0  0  0  0
   47.6610   31.9360   42.1930 C   0  0  0  0  0  0  0  0  0  0  0  0
   46.9140   31.8380   43.3700 C   0  0  0  0  0  3  0  0  0  0  0  0
   46.2520   30.6550   43.7160 C   0  0  0  0  0  0  0  0  0  0  0  0
   45.6730   30.5860   44.6330 H   0  0  0  0  0  0  0  0  0  0  0  0
   46.3360   29.5840   42.8980 N   0  0  0  0  0  0  0  0  0  0  0  0
   47.0720   29.7510   41.7840 C   0  0  0  0  0  3  0  0  0  0  0  0
   47.7300   30.8670   41.4000 N   0  0  0  0  0  0  0  0  0  0  0  0
   44.7870   34.9630   43.1400 N   0  0  0  0  0  0  0  0  0  0  0  0
   44.9590   34.5310   42.0740 C   0  0  0  0  0  0  0  0  0  0  0  0
  1 39  1  0  0  0  0
  2 12  1  0  0  0  0
  2  1  2  0  0  0  0
  3  2  1  0  0  0  0
  4  3  2  0  0  0  0
  4  5  1  0  0  0  0
  5  6  2  0  0  0  0
  6  1  1  0  0  0  0
  6 21  1  0  0  0  0
  7  3  1  0  0  0  0
  8  4  1  0  0  0  0
  9  5  1  0  0  0  0
 10 16  1  0  0  0  0
 10 15  1  0  0  0  0
 11 10  2  0  0  0  0
 12 11  1  0  0  0  0
 12 13  2  0  0  0  0
 13 14  1  0  0  0  0
 14 15  2  0  0  0  0
 14 18  1  0  0  0  0
 16 19  1  0  0  0  0
 17 11  1  0  0  0  0
 20 16  1  0  0  0  0
 21 26  1  0  0  0  0
 22 21  2  0  0  0  0
 22 23  1  0  0  0  0
 23 24  2  0  0  0  0
 24 25  1  0  0  0  0
 24 29  1  0  0  0  0
 25 30  1  0  0  0  0
 26 31  1  0  0  0  0
 26 25  2  0  0  0  0
 27 22  1  0  0  0  0
 28 23  1  0  0  0  0
 31 32  1  0  0  0  0
 32 33  2  0  0  0  0
 33 34  1  0  0  0  0
 35 33  1  0  0  0  0
 36 35  2  0  0  0  0
 37 36  1  0  0  0  0
 37 31  2  0  0  0  0
 39 38  3  0  0  0  0
M  END
>  <minimizedAffinity>
-5.97774076

>  <minimizedRMSD>
0.671637774

$$$$
