REMARK  Name = 
REMARK  2 active torsions:
REMARK  status: ('A' for Active; 'I' for Inactive)
REMARK    1  A    between atoms: C_2  and  N_12
REMARK    2  A    between atoms: C_11  and  C_24
REMARK                            x       y       z     vdW  Elec       q    Type
REMARK                         _______ _______ _______ _____ _____    ______ ____
ROOT
ATOM      1  C   UNL     1      44.488  35.736  44.996  0.00  0.00    +0.000 A 
ATOM      2  C   UNL     1      45.115  35.711  43.755  0.00  0.00    +0.000 A 
ATOM      3  C   UNL     1      46.021  34.705  43.497  0.00  0.00    +0.000 A 
ATOM      4  N   UNL     1      46.238  33.803  44.482  0.00  0.00    +0.000 NA
ATOM      5  C   UNL     1      45.623  33.844  45.673  0.00  0.00    +0.000 A 
ATOM      6  N   UNL     1      44.739  34.806  45.954  0.00  0.00    +0.000 NA
ATOM      7  N   UNL     1      45.952  32.828  46.615  0.00  0.00    +0.000 N 
ATOM      8  C   UNL     1      45.165  32.557  47.824  0.00  0.00    +0.000 C 
ATOM      9  C   UNL     1      46.244  32.226  48.821  0.00  0.00    +0.000 C 
ATOM     10  C   UNL     1      47.527  32.059  48.054  0.00  0.00    +0.000 C 
ATOM     11  C   UNL     1      47.037  31.889  46.625  0.00  0.00    +0.000 C 
ATOM     12  H   UNL     1      43.750  36.488  45.311  0.00  0.00    +0.000 HD
ATOM     13  H   UNL     1      46.502  34.696  42.531  0.00  0.00    +0.000 HD
ATOM     14  H   UNL     1      44.541  33.423  48.097  0.00  0.00    +0.000 HD
ATOM     15  H   UNL     1      44.530  31.687  47.560  0.00  0.00    +0.000 HD
ATOM     16  H   UNL     1      45.980  31.317  49.408  0.00  0.00    +0.000 HD
ATOM     17  H   UNL     1      46.343  33.081  49.506  0.00  0.00    +0.000 HD
ATOM     18  H   UNL     1      48.136  32.996  48.099  0.00  0.00    +0.000 HD
ATOM     19  H   UNL     1      48.135  31.225  48.402  0.00  0.00    +0.000 HD
ATOM     20  H   UNL     1      46.632  30.865  46.539  0.00  0.00    +0.000 HD
ENDROOT
BRANCH  11  21
ATOM     21  C   UNL     1      48.111  32.162  45.650  0.00  0.00    +0.000 A 
ATOM     22  C   UNL     1      48.989  31.117  45.343  0.00  0.00    +0.000 A 
ATOM     23  C   UNL     1      50.031  31.261  44.456  0.00  0.00    +0.000 A 
ATOM     24  H   UNL     1      50.679  30.422  44.256  0.00  0.00    +0.000 HD
ATOM     25  N   UNL     1      50.173  32.486  43.878  0.00  0.00    +0.000 NA
ATOM     26  C   UNL     1      49.342  33.510  44.154  0.00  0.00    +0.000 A 
ATOM     27  N   UNL     1      48.321  33.328  45.040  0.00  0.00    +0.000 NA
ENDBRANCH  11  21
BRANCH   2  28
ATOM     28  N   UNL     1      44.762  36.750  42.831  0.00  0.00    +0.000 N 
ATOM     29  H   UNL     1      44.675  37.707  43.195  0.00  0.00    +0.000 HD
ATOM     30  H   UNL     1      44.597  36.532  41.807  0.00  0.00    +0.000 HD
ENDBRANCH   2  28
TORSDOF 2
