
 OpenBabel03252501183D

 19 20  0  0  0  0  0  0  0  0999 V2000
   45.3360   33.3950   46.3820 C   0  0  0  0  0  0  0  0  0  0  0  0
   45.8710   33.1900   45.0830 C   0  0  0  0  0  0  0  0  0  0  0  0
   46.9390   32.3020   45.0380 C   0  0  0  0  0  0  0  0  0  0  0  0
   47.3800   31.7110   46.2000 N   0  0  0  0  0  0  0  0  0  0  0  0
   46.8240   31.9510   47.4010 C   0  0  0  0  0  0  0  0  0  0  0  0
   45.7920   32.8030   47.4790 N   0  0  0  0  0  0  0  0  0  0  0  0
   44.5150   34.0380   46.6420 H   0  0  0  0  0  0  0  0  0  0  0  0
   47.3620   31.3600   48.1290 H   0  0  0  0  0  0  0  0  0  0  0  0
   45.2770   33.9180   43.9800 C   0  0  0  0  0  0  0  0  0  0  0  0
   45.4880   35.2620   43.8290 C   0  0  0  0  0  0  0  0  0  0  0  0
   44.9610   36.0150   42.8200 C   0  0  0  0  0  0  0  0  0  0  0  0
   45.0970   37.0660   42.6600 H   0  0  0  0  0  0  0  0  0  0  0  0
   44.1630   35.4220   41.8820 N   0  0  0  0  0  0  0  0  0  0  0  0
   43.9400   34.0950   42.0120 C   0  0  0  0  0  0  0  0  0  0  0  0
   44.4900   33.4250   43.0230 N   0  0  0  0  0  0  0  0  0  0  0  0
   47.5140   32.0700   43.7110 C   0  0  0  0  0  0  0  0  0  0  0  0
   48.6140   31.2100   43.8240 F   0  0  0  0  0  0  0  0  0  0  0  0
   48.0540   33.2720   43.3030 F   0  0  0  0  0  0  0  0  0  0  0  0
   46.6520   31.5020   42.8370 F   0  0  0  0  0  0  0  0  0  0  0  0
  1  7  1  0  0  0  0
  1  6  1  0  0  0  0
  2  1  2  0  0  0  0
  3  2  1  0  0  0  0
  3  4  2  0  0  0  0
  4  5  1  0  0  0  0
  5  6  2  0  0  0  0
  5  8  1  0  0  0  0
  9  2  1  0  0  0  0
 10  9  1  0  0  0  0
 11 10  2  0  0  0  0
 12 11  1  0  0  0  0
 13 14  2  0  0  0  0
 13 11  1  0  0  0  0
 14 15  1  0  0  0  0
 15  9  2  0  0  0  0
 16 17  1  0  0  0  0
 16  3  1  0  0  0  0
 18 16  1  0  0  0  0
 19 16  1  0  0  0  0
M  END
>  <minimizedAffinity>
-3.61256456

>  <minimizedRMSD>
3.46675968

$$$$
