
     RDKit          3D

 47 50  0  0  0  0  0  0  0  0999 V2000
   47.3250   33.6266   42.8393 C   0  0  0  0  0  0  0  0  0  0  0  0
   48.4130   33.4163   43.4473 O   0  0  0  0  0  0  0  0  0  0  0  0
   47.0354   33.1189   41.5482 N   0  0  0  0  0  0  0  0  0  0  0  0
   45.8068   32.4963   41.0262 C   0  0  0  0  0  0  0  0  0  0  0  0
   45.3847   33.2056   39.7454 C   0  0  0  0  0  0  0  0  0  0  0  0
   46.4133   33.0105   38.6833 C   0  0  0  0  0  0  0  0  0  0  0  0
   47.6927   32.4798   39.3003 C   0  0  0  0  0  0  0  0  0  0  0  0
   48.0644   33.1848   40.5533 C   0  0  2  0  0  0  0  0  0  0  0  0
   45.9712   35.6604   42.9183 C   0  0  0  0  0  0  0  0  0  0  0  0
   46.3336   34.4304   43.5131 C   0  0  0  0  0  0  0  0  0  0  0  0
   45.7435   34.0257   44.7023 C   0  0  0  0  0  0  0  0  0  0  0  0
   44.8221   34.8515   45.2519 N   0  0  0  0  0  0  0  0  0  0  0  0
   44.4593   36.0393   44.6952 C   0  0  0  0  0  0  0  0  0  0  0  0
   45.0437   36.4196   43.5364 N   0  0  0  0  0  0  0  0  0  0  0  0
   46.1432   32.7687   45.2808 C   0  0  0  0  0  0  0  0  0  0  0  0
   45.7748   31.5956   44.7160 C   0  0  0  0  0  0  0  0  0  0  0  0
   46.1771   30.4090   45.2956 C   0  0  0  0  0  0  0  0  0  0  0  0
   46.9542   30.3613   46.4490 C   0  0  0  0  0  0  0  0  0  0  0  0
   47.3036   31.5868   46.9866 C   0  0  0  0  0  0  0  0  0  0  0  0
   46.8989   32.7215   46.4027 N   0  0  0  0  0  0  0  0  0  0  0  0
   49.4226   32.7904   41.0148 C   0  0  0  0  0  0  0  0  0  0  0  0
   44.9987   32.6607   41.7754 H   0  0  0  0  0  0  0  0  0  0  0  0
   45.9820   31.4358   40.7774 H   0  0  0  0  0  0  0  0  0  0  0  0
   45.2591   34.2810   39.9769 H   0  0  0  0  0  0  0  0  0  0  0  0
   44.3921   32.7926   39.4851 H   0  0  0  0  0  0  0  0  0  0  0  0
   46.5972   33.8899   38.0402 H   0  0  0  0  0  0  0  0  0  0  0  0
   46.0468   32.2056   38.0082 H   0  0  0  0  0  0  0  0  0  0  0  0
   48.4955   32.7019   38.5397 H   0  0  0  0  0  0  0  0  0  0  0  0
   47.6738   31.3937   39.4281 H   0  0  0  0  0  0  0  0  0  0  0  0
   48.1421   34.2843   40.2828 H   0  0  0  0  0  0  0  0  0  0  0  0
   46.4559   35.9364   41.9927 H   0  0  0  0  0  0  0  0  0  0  0  0
   43.7158   36.6540   45.1849 H   0  0  0  0  0  0  0  0  0  0  0  0
   45.1744   31.4843   43.8269 H   0  0  0  0  0  0  0  0  0  0  0  0
   45.9067   29.4475   44.8793 H   0  0  0  0  0  0  0  0  0  0  0  0
   47.2719   29.4342   46.9067 H   0  0  0  0  0  0  0  0  0  0  0  0
   47.9083   31.6188   47.8854 H   0  0  0  0  0  0  0  0  0  0  0  0
   49.8398   33.2702   41.8924 H   0  0  0  0  0  0  0  0  0  0  0  0
   49.4051   31.7118   41.2762 H   0  0  0  0  0  0  0  0  0  0  0  0
   50.4258   32.8666   39.8689 C   0  0  0  0  0  0  0  0  0  0  0  0
   50.0378   33.2419   38.5942 C   0  0  0  0  0  0  0  0  0  0  0  0
   50.9767   33.2909   37.5719 C   0  0  0  0  0  0  0  0  0  0  0  0
   50.6755   33.5870   36.5623 H   0  0  0  0  0  0  0  0  0  0  0  0
   52.2582   32.9723   37.8302 N   0  0  0  0  0  0  0  0  0  0  0  0
   52.5960   32.6125   39.0815 C   0  0  0  0  0  0  0  0  0  0  0  0
   51.7168   32.5528   40.0986 N   0  0  0  0  0  0  0  0  0  0  0  0
   48.9917   33.4939   38.4180 H   0  0  0  0  0  0  0  0  0  0  0  0
   53.6199   32.3533   39.3079 H   0  0  0  0  0  0  0  0  0  0  0  0
  1  2  2  0
  1 10  1  0
  3  1  1  0
  4  3  1  0
  5  4  1  0
  6  7  1  0
  6  5  1  0
  7  8  1  0
  8 21  1  0
  8  3  1  0
  9 10  2  0
  9 14  1  0
 10 11  1  0
 11 12  2  0
 11 15  1  0
 13 12  1  0
 14 13  2  0
 15 20  1  0
 16 15  2  0
 16 17  1  0
 17 18  2  0
 18 19  1  0
 20 19  2  0
  4 22  1  0
  4 23  1  0
  5 24  1  0
  5 25  1  0
  6 26  1  0
  6 27  1  0
  7 28  1  0
  7 29  1  0
  8 30  1  6
  9 31  1  0
 13 32  1  0
 16 33  1  0
 17 34  1  0
 18 35  1  0
 19 36  1  0
 21 37  1  0
 21 38  1  0
 39 40  2  0
 40 41  1  0
 41 42  1  0
 41 43  2  0
 43 44  1  0
 44 45  2  0
 45 39  1  0
 40 46  1  0
 44 47  1  0
 21 39  1  0
M  ISO  8  22  13  23  13  24  13  25  13  26  13  27  13  28  13  29  13
M  ISO  8  30  13  31  14  32  14  33  14  34  14  35  14  36  14  37   8
M  ISO  2  38   8  42  14
M  END
>  <DihAtoms>  (1) 
7,20,38,39

>  <DihDeg>  (1) 
-90.91572090730986

$$$$
