
 OpenBabel03242519043D

 30 32  0  0  1  0  0  0  0  0999 V2000
   37.1790   30.7070   41.1340 N   0  0  0  0  0  0  0  0  0  0  0  0
   37.5020   29.6890   42.1150 C   0  0  0  0  0  0  0  0  0  0  0  0
   37.1470   28.4760   41.3040 C   0  0  2  0  0  0  0  0  0  0  0  0
   35.7570   28.8530   40.8140 C   0  0  0  0  0  0  0  0  0  0  0  0
   35.8980   30.3370   40.5660 C   0  0  0  0  0  0  0  0  0  0  0  0
   38.5610   29.7130   42.4080 H   0  0  0  0  0  0  0  0  0  0  0  0
   36.8190   29.7480   42.9880 H   0  0  0  0  0  0  0  0  0  0  0  0
   37.8440   28.3550   40.4430 H   0  0  0  0  0  0  0  0  0  0  0  0
   35.5540   28.3040   39.8730 H   0  0  0  0  0  0  0  0  0  0  0  0
   35.0370   28.6270   41.6120 H   0  0  0  0  0  0  0  0  0  0  0  0
   35.1250   30.8560   41.1900 H   0  0  0  0  0  0  0  0  0  0  0  0
   35.8100   30.5770   39.4900 H   0  0  0  0  0  0  0  0  0  0  0  0
   38.1230   34.0220   39.7040 C   0  0  0  0  0  0  0  0  0  0  0  0
   37.3130   32.9400   40.0460 C   0  0  0  0  0  0  0  0  0  0  0  0
   37.8800   31.8530   40.7330 C   0  0  0  0  0  0  0  0  0  0  0  0
   39.2110   31.9430   41.0210 N   0  0  0  0  0  0  0  0  0  0  0  0
   39.9850   32.9880   40.6900 C   0  0  0  0  0  0  0  0  0  0  0  0
   39.4340   34.0320   40.0280 N   0  0  0  0  0  0  0  0  0  0  0  0
   37.6290   34.8470   39.1670 H   0  0  0  0  0  0  0  0  0  0  0  0
   36.2580   32.8530   39.8250 H   0  0  0  0  0  0  0  0  0  0  0  0
   41.0350   32.9900   40.9530 H   0  0  0  0  0  0  0  0  0  0  0  0
   37.0270   27.2840   42.0870 N   0  0  0  0  0  0  0  0  0  0  0  0
   36.0700   27.0450   42.4910 H   0  0  0  0  0  0  0  0  0  0  0  0
   38.0120   26.3230   42.4340 C   0  0  0  0  0  0  0  0  0  0  0  0
   39.0520   26.5330   43.3120 C   0  0  0  0  0  3  0  0  0  0  0  0
   40.0140   25.6270   43.6790 C   0  0  0  0  0  0  0  0  0  0  0  0
   40.8060   25.8340   44.3640 H   0  0  0  0  0  0  0  0  0  0  0  0
   39.9210   24.3890   43.1090 N   0  0  0  0  0  0  0  0  0  0  0  0
   38.9070   24.1400   42.2360 C   0  0  0  0  0  3  0  0  0  0  0  0
   38.0220   25.0800   41.9400 N   0  0  0  0  0  0  0  0  0  0  0  0
  1  2  1  0  0  0  0
  2  6  1  0  0  0  0
  2  7  1  0  0  0  0
  3  8  1  6  0  0  0
  3 22  1  0  0  0  0
  3  2  1  0  0  0  0
  4  3  1  0  0  0  0
  4 10  1  0  0  0  0
  5  4  1  0  0  0  0
  5  1  1  0  0  0  0
  5 11  1  0  0  0  0
  9  4  1  0  0  0  0
 12  5  1  0  0  0  0
 13 18  2  0  0  0  0
 13 14  1  0  0  0  0
 14 15  2  0  0  0  0
 15 16  1  0  0  0  0
 15  1  1  0  0  0  0
 17 21  1  0  0  0  0
 17 16  2  0  0  0  0
 18 17  1  0  0  0  0
 19 13  1  0  0  0  0
 20 14  1  0  0  0  0
 22 24  1  0  0  0  0
 22 23  1  0  0  0  0
 24 25  1  0  0  0  0
 25 26  2  0  0  0  0
 26 27  1  0  0  0  0
 28 26  1  0  0  0  0
 29 28  2  0  0  0  0
 30 29  1  0  0  0  0
 30 24  2  0  0  0  0
M  END
>  <minimizedAffinity>
-4.94753885

$$$$

 OpenBabel03242519043D

 30 32  0  0  1  0  0  0  0  0999 V2000
   37.9960   31.1780   40.5230 N   0  0  0  0  0  0  0  0  0  0  0  0
   39.2020   31.7340   39.9400 C   0  0  0  0  0  0  0  0  0  0  0  0
   38.9160   33.1890   40.1760 C   0  0  2  0  0  0  0  0  0  0  0  0
   37.5070   33.3000   39.6150 C   0  0  0  0  0  0  0  0  0  0  0  0
   36.8950   31.9800   40.0250 C   0  0  0  0  0  0  0  0  0  0  0  0
   40.1110   31.3870   40.4540 H   0  0  0  0  0  0  0  0  0  0  0  0
   39.2380   31.5480   38.8460 H   0  0  0  0  0  0  0  0  0  0  0  0
   38.9220   33.4240   41.2650 H   0  0  0  0  0  0  0  0  0  0  0  0
   36.9970   34.1510   40.1090 H   0  0  0  0  0  0  0  0  0  0  0  0
   37.5760   33.4100   38.5250 H   0  0  0  0  0  0  0  0  0  0  0  0
   36.5430   31.4700   39.0920 H   0  0  0  0  0  0  0  0  0  0  0  0
   36.0870   32.1220   40.7670 H   0  0  0  0  0  0  0  0  0  0  0  0
   38.3160   28.7150   43.3060 C   0  0  0  0  0  0  0  0  0  0  0  0
   38.6100   29.8260   42.5180 C   0  0  0  0  0  0  0  0  0  0  0  0
   37.8090   30.0970   41.3950 C   0  0  0  0  0  0  0  0  0  0  0  0
   36.7810   29.2320   41.1580 N   0  0  0  0  0  0  0  0  0  0  0  0
   36.5040   28.1640   41.9210 C   0  0  0  0  0  0  0  0  0  0  0  0
   37.2770   27.9080   43.0010 N   0  0  0  0  0  0  0  0  0  0  0  0
   38.9740   28.5480   44.1750 H   0  0  0  0  0  0  0  0  0  0  0  0
   39.4200   30.5210   42.6920 H   0  0  0  0  0  0  0  0  0  0  0  0
   35.6700   27.5210   41.6710 H   0  0  0  0  0  0  0  0  0  0  0  0
   39.7590   34.0630   39.4190 N   0  0  0  0  0  0  0  0  0  0  0  0
   39.2990   34.8620   38.8830 H   0  0  0  0  0  0  0  0  0  0  0  0
   41.1690   34.0480   39.2530 C   0  0  0  0  0  0  0  0  0  0  0  0
   41.8260   34.0550   38.0430 C   0  0  0  0  0  3  0  0  0  0  0  0
   43.1830   34.0510   37.8430 C   0  0  0  0  0  0  0  0  0  0  0  0
   43.6500   34.0560   36.8840 H   0  0  0  0  0  0  0  0  0  0  0  0
   43.9540   34.0400   38.9710 N   0  0  0  0  0  0  0  0  0  0  0  0
   43.3440   34.0330   40.1870 C   0  0  0  0  0  3  0  0  0  0  0  0
   42.0230   34.0370   40.2820 N   0  0  0  0  0  0  0  0  0  0  0  0
  1 15  1  0  0  0  0
  2  3  1  0  0  0  0
  2  6  1  0  0  0  0
  2  1  1  0  0  0  0
  3  8  1  1  0  0  0
  4  5  1  0  0  0  0
  4  9  1  0  0  0  0
  4  3  1  0  0  0  0
  5  1  1  0  0  0  0
  5 12  1  0  0  0  0
  7  2  1  0  0  0  0
 10  4  1  0  0  0  0
 11  5  1  0  0  0  0
 13 19  1  0  0  0  0
 14 20  1  0  0  0  0
 14 13  2  0  0  0  0
 15 14  1  0  0  0  0
 16 15  2  0  0  0  0
 16 17  1  0  0  0  0
 17 18  2  0  0  0  0
 18 13  1  0  0  0  0
 21 17  1  0  0  0  0
 22  3  1  0  0  0  0
 23 22  1  0  0  0  0
 24 22  1  0  0  0  0
 24 30  1  0  0  0  0
 25 24  2  0  0  0  0
 26 25  1  0  0  0  0
 26 28  2  0  0  0  0
 27 26  1  0  0  0  0
 28 29  1  0  0  0  0
 29 30  2  0  0  0  0
M  END
>  <minimizedAffinity>
-4.86876917

$$$$

 OpenBabel03242519043D

 30 32  0  0  1  0  0  0  0  0999 V2000
   38.0480   30.1790   39.1190 N   0  0  0  0  0  0  0  0  0  0  0  0
   39.3300   30.4190   38.4870 C   0  0  0  0  0  0  0  0  0  0  0  0
   39.0820   31.8190   38.0000 C   0  0  2  0  0  0  0  0  0  0  0  0
   37.7450   31.6460   37.2970 C   0  0  0  0  0  0  0  0  0  0  0  0
   37.0390   30.6530   38.1910 C   0  0  0  0  0  0  0  0  0  0  0  0
   40.1650   30.3560   39.2000 H   0  0  0  0  0  0  0  0  0  0  0  0
   39.4710   29.7550   37.6090 H   0  0  0  0  0  0  0  0  0  0  0  0
   38.9840   32.5250   38.8560 H   0  0  0  0  0  0  0  0  0  0  0  0
   37.2220   32.6240   37.2880 H   0  0  0  0  0  0  0  0  0  0  0  0
   37.9320   31.2470   36.2910 H   0  0  0  0  0  0  0  0  0  0  0  0
   36.7640   29.7690   37.5600 H   0  0  0  0  0  0  0  0  0  0  0  0
   36.1650   31.1100   38.6910 H   0  0  0  0  0  0  0  0  0  0  0  0
   36.4900   28.1840   41.8600 C   0  0  0  0  0  0  0  0  0  0  0  0
   36.7080   28.6680   40.5710 C   0  0  0  0  0  0  0  0  0  0  0  0
   37.7250   29.6150   40.3610 C   0  0  0  0  0  0  0  0  0  0  0  0
   38.4380   29.9960   41.4600 N   0  0  0  0  0  0  0  0  0  0  0  0
   38.2230   29.5260   42.6980 C   0  0  0  0  0  0  0  0  0  0  0  0
   37.2420   28.6150   42.8960 N   0  0  0  0  0  0  0  0  0  0  0  0
   35.6810   27.4440   41.9700 H   0  0  0  0  0  0  0  0  0  0  0  0
   36.1530   28.3760   39.6900 H   0  0  0  0  0  0  0  0  0  0  0  0
   38.8290   29.8760   43.5240 H   0  0  0  0  0  0  0  0  0  0  0  0
   40.0350   32.2590   37.0280 N   0  0  0  0  0  0  0  0  0  0  0  0
   39.6890   32.4460   36.0370 H   0  0  0  0  0  0  0  0  0  0  0  0
   41.4270   32.5010   37.1650 C   0  0  0  0  0  0  0  0  0  0  0  0
   41.9880   33.6810   37.6010 C   0  0  0  0  0  3  0  0  0  0  0  0
   43.3240   33.9490   37.7570 C   0  0  0  0  0  0  0  0  0  0  0  0
   43.7160   34.8810   38.0980 H   0  0  0  0  0  0  0  0  0  0  0  0
   44.1800   32.9300   37.4450 N   0  0  0  0  0  0  0  0  0  0  0  0
   43.6650   31.7470   37.0100 C   0  0  0  0  0  3  0  0  0  0  0  0
   42.3570   31.5810   36.8910 N   0  0  0  0  0  0  0  0  0  0  0  0
  1 15  1  0  0  0  0
  2  1  1  0  0  0  0
  2  6  1  0  0  0  0
  3  2  1  0  0  0  0
  3  8  1  1  0  0  0
  4  3  1  0  0  0  0
  4  5  1  0  0  0  0
  5 12  1  0  0  0  0
  5  1  1  0  0  0  0
  7  2  1  0  0  0  0
  9  4  1  0  0  0  0
 10  4  1  0  0  0  0
 11  5  1  0  0  0  0
 13 19  1  0  0  0  0
 13 18  1  0  0  0  0
 14 13  2  0  0  0  0
 15 14  1  0  0  0  0
 15 16  2  0  0  0  0
 16 17  1  0  0  0  0
 17 18  2  0  0  0  0
 17 21  1  0  0  0  0
 20 14  1  0  0  0  0
 22 24  1  0  0  0  0
 22  3  1  0  0  0  0
 23 22  1  0  0  0  0
 24 25  1  0  0  0  0
 25 26  2  0  0  0  0
 26 27  1  0  0  0  0
 28 26  1  0  0  0  0
 29 28  2  0  0  0  0
 30 29  1  0  0  0  0
 30 24  2  0  0  0  0
M  END
>  <minimizedAffinity>
-4.85096169

$$$$

 OpenBabel03242519043D

 30 32  0  0  1  0  0  0  0  0999 V2000
   38.2010   30.2310   41.4950 N   0  0  0  0  0  0  0  0  0  0  0  0
   37.6000   28.9640   41.1280 C   0  0  0  0  0  0  0  0  0  0  0  0
   37.1290   28.5360   42.4880 C   0  0  2  0  0  0  0  0  0  0  0  0
   38.3950   28.7320   43.3060 C   0  0  0  0  0  0  0  0  0  0  0  0
   38.9830   29.9810   42.6900 C   0  0  0  0  0  0  0  0  0  0  0  0
   36.7770   29.0870   40.4080 H   0  0  0  0  0  0  0  0  0  0  0  0
   38.3690   28.2460   40.7730 H   0  0  0  0  0  0  0  0  0  0  0  0
   36.3180   29.2060   42.8570 H   0  0  0  0  0  0  0  0  0  0  0  0
   38.1090   28.9010   44.3640 H   0  0  0  0  0  0  0  0  0  0  0  0
   39.0370   27.8520   43.1660 H   0  0  0  0  0  0  0  0  0  0  0  0
   40.0140   29.7250   42.3340 H   0  0  0  0  0  0  0  0  0  0  0  0
   38.9750   30.8260   43.4030 H   0  0  0  0  0  0  0  0  0  0  0  0
   37.1710   33.1710   39.4430 C   0  0  0  0  0  0  0  0  0  0  0  0
   37.1420   31.8780   39.9610 C   0  0  0  0  0  0  0  0  0  0  0  0
   38.1180   31.4970   40.8980 C   0  0  0  0  0  0  0  0  0  0  0  0
   39.0400   32.4440   41.2360 N   0  0  0  0  0  0  0  0  0  0  0  0
   39.0620   33.6880   40.7340 C   0  0  0  0  0  0  0  0  0  0  0  0
   38.1200   34.0500   39.8320 N   0  0  0  0  0  0  0  0  0  0  0  0
   36.3840   33.4190   38.7130 H   0  0  0  0  0  0  0  0  0  0  0  0
   36.4200   31.1160   39.7040 H   0  0  0  0  0  0  0  0  0  0  0  0
   39.8250   34.3870   41.0500 H   0  0  0  0  0  0  0  0  0  0  0  0
   36.7730   27.1520   42.5560 N   0  0  0  0  0  0  0  0  0  0  0  0
   35.8990   26.8870   43.1060 H   0  0  0  0  0  0  0  0  0  0  0  0
   37.4150   26.0200   41.9900 C   0  0  0  0  0  0  0  0  0  0  0  0
   37.0190   25.3760   40.8380 C   0  0  0  0  0  3  0  0  0  0  0  0
   37.6200   24.2890   40.2550 C   0  0  0  0  0  0  0  0  0  0  0  0
   37.2770   23.8210   39.3590 H   0  0  0  0  0  0  0  0  0  0  0  0
   38.7250   23.8020   40.8920 N   0  0  0  0  0  0  0  0  0  0  0  0
   39.1490   24.4090   42.0340 C   0  0  0  0  0  3  0  0  0  0  0  0
   38.5040   25.4570   42.5240 N   0  0  0  0  0  0  0  0  0  0  0  0
  1  5  1  0  0  0  0
  2  1  1  0  0  0  0
  2  3  1  0  0  0  0
  3 22  1  0  0  0  0
  3  8  1  1  0  0  0
  3  4  1  0  0  0  0
  4  9  1  0  0  0  0
  5  4  1  0  0  0  0
  5 12  1  0  0  0  0
  6  2  1  0  0  0  0
  7  2  1  0  0  0  0
 10  4  1  0  0  0  0
 11  5  1  0  0  0  0
 13 18  2  0  0  0  0
 13 14  1  0  0  0  0
 14 15  2  0  0  0  0
 15 16  1  0  0  0  0
 15  1  1  0  0  0  0
 17 21  1  0  0  0  0
 17 16  2  0  0  0  0
 18 17  1  0  0  0  0
 19 13  1  0  0  0  0
 20 14  1  0  0  0  0
 22 23  1  0  0  0  0
 24 30  1  0  0  0  0
 24 22  1  0  0  0  0
 25 24  2  0  0  0  0
 26 25  1  0  0  0  0
 26 28  2  0  0  0  0
 27 26  1  0  0  0  0
 28 29  1  0  0  0  0
 29 30  2  0  0  0  0
M  END
>  <minimizedAffinity>
-4.76529884

$$$$

 OpenBabel03242519043D

 30 32  0  0  1  0  0  0  0  0999 V2000
   37.2010   30.6770   41.1510 N   0  0  0  0  0  0  0  0  0  0  0  0
   37.4880   29.6110   42.0910 C   0  0  0  0  0  0  0  0  0  0  0  0
   37.0520   28.4450   41.2500 C   0  0  2  0  0  0  0  0  0  0  0  0
   35.6750   28.9120   40.8040 C   0  0  0  0  0  0  0  0  0  0  0  0
   35.8900   30.3940   40.6010 C   0  0  0  0  0  0  0  0  0  0  0  0
   38.5530   29.5690   42.3610 H   0  0  0  0  0  0  0  0  0  0  0  0
   36.8280   29.6770   42.9810 H   0  0  0  0  0  0  0  0  0  0  0  0
   37.7240   28.3170   40.3700 H   0  0  0  0  0  0  0  0  0  0  0  0
   35.4230   28.4060   39.8500 H   0  0  0  0  0  0  0  0  0  0  0  0
   34.9600   28.6970   41.6090 H   0  0  0  0  0  0  0  0  0  0  0  0
   35.1590   30.9320   41.2580 H   0  0  0  0  0  0  0  0  0  0  0  0
   35.7930   30.6740   39.5350 H   0  0  0  0  0  0  0  0  0  0  0  0
   38.2920   33.9790   39.8020 C   0  0  0  0  0  0  0  0  0  0  0  0
   37.4330   32.9300   40.1250 C   0  0  0  0  0  0  0  0  0  0  0  0
   37.9530   31.7970   40.7720 C   0  0  0  0  0  0  0  0  0  0  0  0
   39.2910   31.8100   41.0410 N   0  0  0  0  0  0  0  0  0  0  0  0
   40.1120   32.8240   40.7270 C   0  0  0  0  0  0  0  0  0  0  0  0
   39.6070   33.9130   40.1050 N   0  0  0  0  0  0  0  0  0  0  0  0
   37.8330   34.8440   39.2970 H   0  0  0  0  0  0  0  0  0  0  0  0
   36.3720   32.9040   39.9190 H   0  0  0  0  0  0  0  0  0  0  0  0
   41.1650   32.7640   40.9720 H   0  0  0  0  0  0  0  0  0  0  0  0
   36.8850   27.2360   41.9970 N   0  0  0  0  0  0  0  0  0  0  0  0
   36.2890   27.2730   42.8800 H   0  0  0  0  0  0  0  0  0  0  0  0
   37.4010   25.9380   41.7500 C   0  0  0  0  0  0  0  0  0  0  0  0
   36.8630   25.0230   40.8720 C   0  0  0  0  0  3  0  0  0  0  0  0
   37.3390   23.7660   40.5990 C   0  0  0  0  0  0  0  0  0  0  0  0
   36.8880   23.0880   39.9100 H   0  0  0  0  0  0  0  0  0  0  0  0
   38.4670   23.3920   41.2740 N   0  0  0  0  0  0  0  0  0  0  0  0
   39.0300   24.2680   42.1510 C   0  0  0  0  0  3  0  0  0  0  0  0
   38.4980   25.4640   42.3500 N   0  0  0  0  0  0  0  0  0  0  0  0
  1  2  1  0  0  0  0
  2  6  1  0  0  0  0
  2  7  1  0  0  0  0
  3  8  1  6  0  0  0
  3 22  1  0  0  0  0
  3  2  1  0  0  0  0
  4  3  1  0  0  0  0
  4 10  1  0  0  0  0
  5  4  1  0  0  0  0
  5  1  1  0  0  0  0
  5 11  1  0  0  0  0
  9  4  1  0  0  0  0
 12  5  1  0  0  0  0
 13 18  2  0  0  0  0
 13 14  1  0  0  0  0
 14 15  2  0  0  0  0
 15 16  1  0  0  0  0
 15  1  1  0  0  0  0
 17 21  1  0  0  0  0
 17 16  2  0  0  0  0
 18 17  1  0  0  0  0
 19 13  1  0  0  0  0
 20 14  1  0  0  0  0
 22 23  1  0  0  0  0
 24 22  1  0  0  0  0
 24 30  1  0  0  0  0
 25 24  2  0  0  0  0
 26 25  1  0  0  0  0
 26 28  2  0  0  0  0
 27 26  1  0  0  0  0
 28 29  1  0  0  0  0
 29 30  2  0  0  0  0
M  END
>  <minimizedAffinity>
-4.68855762

$$$$

 OpenBabel03242519043D

 30 32  0  0  1  0  0  0  0  0999 V2000
   36.4950   30.0600   38.5510 N   0  0  0  0  0  0  0  0  0  0  0  0
   36.7750   29.3320   39.7730 C   0  0  0  0  0  0  0  0  0  0  0  0
   36.2610   30.3410   40.7600 C   0  0  2  0  0  0  0  0  0  0  0  0
   36.9620   31.6000   40.2760 C   0  0  0  0  0  0  0  0  0  0  0  0
   36.9410   31.4210   38.7750 C   0  0  0  0  0  0  0  0  0  0  0  0
   36.2370   28.3740   39.8200 H   0  0  0  0  0  0  0  0  0  0  0  0
   37.8690   29.2110   39.9220 H   0  0  0  0  0  0  0  0  0  0  0  0
   35.1550   30.4530   40.6730 H   0  0  0  0  0  0  0  0  0  0  0  0
   36.3620   32.4790   40.5860 H   0  0  0  0  0  0  0  0  0  0  0  0
   37.9820   31.6060   40.6840 H   0  0  0  0  0  0  0  0  0  0  0  0
   38.0020   31.4580   38.4180 H   0  0  0  0  0  0  0  0  0  0  0  0
   36.2990   32.1780   38.2870 H   0  0  0  0  0  0  0  0  0  0  0  0
   34.2340   28.5960   35.9700 C   0  0  0  0  0  0  0  0  0  0  0  0
   34.6980   28.9540   37.2350 C   0  0  0  0  0  0  0  0  0  0  0  0
   35.9170   29.6440   37.3440 C   0  0  0  0  0  0  0  0  0  0  0  0
   36.5680   29.9170   36.1760 N   0  0  0  0  0  0  0  0  0  0  0  0
   36.1150   29.5710   34.9620 C   0  0  0  0  0  0  0  0  0  0  0  0
   34.9410   28.9070   34.8620 N   0  0  0  0  0  0  0  0  0  0  0  0
   33.2730   28.0570   35.9400 H   0  0  0  0  0  0  0  0  0  0  0  0
   34.1950   28.7440   38.1690 H   0  0  0  0  0  0  0  0  0  0  0  0
   36.6870   29.8230   34.0770 H   0  0  0  0  0  0  0  0  0  0  0  0
   36.6860   30.0900   42.1030 N   0  0  0  0  0  0  0  0  0  0  0  0
   36.1800   30.5990   42.8910 H   0  0  0  0  0  0  0  0  0  0  0  0
   37.7140   29.2390   42.5860 C   0  0  0  0  0  0  0  0  0  0  0  0
   37.5150   28.0260   43.2060 C   0  0  0  0  0  3  0  0  0  0  0  0
   38.4810   27.1730   43.6750 C   0  0  0  0  0  0  0  0  0  0  0  0
   38.2800   26.2400   44.1520 H   0  0  0  0  0  0  0  0  0  0  0  0
   39.7740   27.5790   43.5040 N   0  0  0  0  0  0  0  0  0  0  0  0
   40.0140   28.7730   42.8950 C   0  0  0  0  0  3  0  0  0  0  0  0
   39.0140   29.5320   42.4740 N   0  0  0  0  0  0  0  0  0  0  0  0
  1  5  1  0  0  0  0
  1  2  1  0  0  0  0
  2  6  1  0  0  0  0
  2  7  1  0  0  0  0
  2  3  1  0  0  0  0
  3  8  1  6  0  0  0
  3 22  1  0  0  0  0
  4  9  1  0  0  0  0
  4 10  1  0  0  0  0
  4  3  1  0  0  0  0
  5  4  1  0  0  0  0
 11  5  1  0  0  0  0
 12  5  1  0  0  0  0
 13 14  1  0  0  0  0
 14 15  2  0  0  0  0
 14 20  1  0  0  0  0
 15  1  1  0  0  0  0
 16 15  1  0  0  0  0
 17 16  2  0  0  0  0
 18 17  1  0  0  0  0
 18 13  2  0  0  0  0
 19 13  1  0  0  0  0
 21 17  1  0  0  0  0
 22 24  1  0  0  0  0
 22 23  1  0  0  0  0
 24 25  1  0  0  0  0
 25 26  2  0  0  0  0
 26 27  1  0  0  0  0
 28 26  1  0  0  0  0
 29 28  2  0  0  0  0
 30 24  2  0  0  0  0
 30 29  1  0  0  0  0
M  END
>  <minimizedAffinity>
-4.65035057

$$$$

 OpenBabel03242519043D

 30 32  0  0  1  0  0  0  0  0999 V2000
   36.5520   27.4180   40.1290 N   0  0  0  0  0  0  0  0  0  0  0  0
   37.0300   28.6180   40.7860 C   0  0  0  0  0  0  0  0  0  0  0  0
   35.7440   29.3940   40.8020 C   0  0  2  0  0  0  0  0  0  0  0  0
   35.3140   29.2680   39.3490 C   0  0  0  0  0  0  0  0  0  0  0  0
   35.7430   27.8590   39.0100 C   0  0  0  0  0  0  0  0  0  0  0  0
   37.4200   28.4150   41.7940 H   0  0  0  0  0  0  0  0  0  0  0  0
   37.7640   29.1560   40.1490 H   0  0  0  0  0  0  0  0  0  0  0  0
   34.9970   28.9100   41.4740 H   0  0  0  0  0  0  0  0  0  0  0  0
   34.2120   29.3780   39.2970 H   0  0  0  0  0  0  0  0  0  0  0  0
   35.8530   30.0250   38.7630 H   0  0  0  0  0  0  0  0  0  0  0  0
   36.4400   27.9230   38.1350 H   0  0  0  0  0  0  0  0  0  0  0  0
   34.8720   27.2070   38.8160 H   0  0  0  0  0  0  0  0  0  0  0  0
   37.4260   24.2010   41.8030 C   0  0  0  0  0  0  0  0  0  0  0  0
   37.2660   25.5760   41.6390 C   0  0  0  0  0  0  0  0  0  0  0  0
   36.7610   26.0630   40.4220 C   0  0  0  0  0  0  0  0  0  0  0  0
   36.4600   25.1320   39.4710 N   0  0  0  0  0  0  0  0  0  0  0  0
   36.6170   23.8100   39.6350 C   0  0  0  0  0  0  0  0  0  0  0  0
   37.1020   23.3450   40.8090 N   0  0  0  0  0  0  0  0  0  0  0  0
   37.8240   23.8710   42.7760 H   0  0  0  0  0  0  0  0  0  0  0  0
   37.5000   26.3260   42.3820 H   0  0  0  0  0  0  0  0  0  0  0  0
   36.3550   23.1290   38.8350 H   0  0  0  0  0  0  0  0  0  0  0  0
   35.9230   30.7850   41.0880 N   0  0  0  0  0  0  0  0  0  0  0  0
   35.1460   31.2900   41.6160 H   0  0  0  0  0  0  0  0  0  0  0  0
   37.0070   31.6440   40.7750 C   0  0  0  0  0  0  0  0  0  0  0  0
   36.9590   32.6900   39.8800 C   0  0  0  0  0  3  0  0  0  0  0  0
   37.9800   33.5470   39.5600 C   0  0  0  0  0  0  0  0  0  0  0  0
   37.8980   34.3460   38.8570 H   0  0  0  0  0  0  0  0  0  0  0  0
   39.1660   33.3330   40.2030 N   0  0  0  0  0  0  0  0  0  0  0  0
   39.2560   32.3100   41.0960 C   0  0  0  0  0  3  0  0  0  0  0  0
   38.2130   31.5320   41.3410 N   0  0  0  0  0  0  0  0  0  0  0  0
  1 15  1  0  0  0  0
  1  2  1  0  0  0  0
  2  3  1  0  0  0  0
  2  6  1  0  0  0  0
  3 22  1  0  0  0  0
  3  8  1  1  0  0  0
  4  3  1  0  0  0  0
  5  4  1  0  0  0  0
  5  1  1  0  0  0  0
  7  2  1  0  0  0  0
  9  4  1  0  0  0  0
 10  4  1  0  0  0  0
 11  5  1  0  0  0  0
 12  5  1  0  0  0  0
 13 19  1  0  0  0  0
 14 13  1  0  0  0  0
 14 20  1  0  0  0  0
 15 14  2  0  0  0  0
 16 17  2  0  0  0  0
 16 15  1  0  0  0  0
 17 18  1  0  0  0  0
 18 13  2  0  0  0  0
 21 17  1  0  0  0  0
 22 23  1  0  0  0  0
 24 22  1  0  0  0  0
 24 30  1  0  0  0  0
 25 24  2  0  0  0  0
 26 25  1  0  0  0  0
 26 28  2  0  0  0  0
 27 26  1  0  0  0  0
 28 29  1  0  0  0  0
 29 30  2  0  0  0  0
M  END
>  <minimizedAffinity>
-4.63831091

$$$$

 OpenBabel03242519043D

 30 32  0  0  1  0  0  0  0  0999 V2000
   38.1260   29.9110   41.6550 N   0  0  0  0  0  0  0  0  0  0  0  0
   37.6410   28.6030   41.2620 C   0  0  0  0  0  0  0  0  0  0  0  0
   37.0050   28.1990   42.5610 C   0  0  2  0  0  0  0  0  0  0  0  0
   38.1350   28.4890   43.5370 C   0  0  0  0  0  0  0  0  0  0  0  0
   38.7440   29.7440   42.9560 C   0  0  0  0  0  0  0  0  0  0  0  0
   36.9210   28.6580   40.4320 H   0  0  0  0  0  0  0  0  0  0  0  0
   38.4840   27.9140   41.0470 H   0  0  0  0  0  0  0  0  0  0  0  0
   36.1210   28.8400   42.7870 H   0  0  0  0  0  0  0  0  0  0  0  0
   37.6960   28.6800   44.5370 H   0  0  0  0  0  0  0  0  0  0  0  0
   38.8300   27.6390   43.5240 H   0  0  0  0  0  0  0  0  0  0  0  0
   39.8260   29.5290   42.7560 H   0  0  0  0  0  0  0  0  0  0  0  0
   38.5980   30.6120   43.6250 H   0  0  0  0  0  0  0  0  0  0  0  0
   37.1480   32.7780   39.4770 C   0  0  0  0  0  0  0  0  0  0  0  0
   37.0920   31.5120   40.0570 C   0  0  0  0  0  0  0  0  0  0  0  0
   38.0680   31.1490   41.0000 C   0  0  0  0  0  0  0  0  0  0  0  0
   39.0190   32.0870   41.2820 N   0  0  0  0  0  0  0  0  0  0  0  0
   39.0670   33.3040   40.7210 C   0  0  0  0  0  0  0  0  0  0  0  0
   38.1240   33.6490   39.8140 N   0  0  0  0  0  0  0  0  0  0  0  0
   36.3590   33.0130   38.7450 H   0  0  0  0  0  0  0  0  0  0  0  0
   36.3460   30.7580   39.8440 H   0  0  0  0  0  0  0  0  0  0  0  0
   39.8520   33.9970   40.9950 H   0  0  0  0  0  0  0  0  0  0  0  0
   36.7070   26.8020   42.6380 N   0  0  0  0  0  0  0  0  0  0  0  0
   35.8890   26.4980   43.2510 H   0  0  0  0  0  0  0  0  0  0  0  0
   37.3440   25.7020   42.0070 C   0  0  0  0  0  0  0  0  0  0  0  0
   38.5540   25.1620   42.3840 C   0  0  0  0  0  3  0  0  0  0  0  0
   39.1950   24.0950   41.8080 C   0  0  0  0  0  0  0  0  0  0  0  0
   40.1350   23.7100   42.1330 H   0  0  0  0  0  0  0  0  0  0  0  0
   38.5550   23.5130   40.7500 N   0  0  0  0  0  0  0  0  0  0  0  0
   37.3570   24.0160   40.3460 C   0  0  0  0  0  3  0  0  0  0  0  0
   36.8140   25.0530   40.9650 N   0  0  0  0  0  0  0  0  0  0  0  0
  1  5  1  0  0  0  0
  2  1  1  0  0  0  0
  2  3  1  0  0  0  0
  3 22  1  0  0  0  0
  3  8  1  1  0  0  0
  3  4  1  0  0  0  0
  4  9  1  0  0  0  0
  5  4  1  0  0  0  0
  5 12  1  0  0  0  0
  6  2  1  0  0  0  0
  7  2  1  0  0  0  0
 10  4  1  0  0  0  0
 11  5  1  0  0  0  0
 13 18  2  0  0  0  0
 13 14  1  0  0  0  0
 14 15  2  0  0  0  0
 15 16  1  0  0  0  0
 15  1  1  0  0  0  0
 17 21  1  0  0  0  0
 17 16  2  0  0  0  0
 18 17  1  0  0  0  0
 19 13  1  0  0  0  0
 20 14  1  0  0  0  0
 22 23  1  0  0  0  0
 24 25  1  0  0  0  0
 24 22  1  0  0  0  0
 26 27  1  0  0  0  0
 26 25  2  0  0  0  0
 28 26  1  0  0  0  0
 29 28  2  0  0  0  0
 29 30  1  0  0  0  0
 30 24  2  0  0  0  0
M  END
>  <minimizedAffinity>
-4.61505175

$$$$

 OpenBabel03242519043D

 30 32  0  0  1  0  0  0  0  0999 V2000
   36.4480   29.7590   38.9240 N   0  0  0  0  0  0  0  0  0  0  0  0
   36.8760   28.7680   39.8930 C   0  0  0  0  0  0  0  0  0  0  0  0
   36.0290   29.2080   41.0530 C   0  0  2  0  0  0  0  0  0  0  0  0
   36.3360   30.6970   41.0850 C   0  0  0  0  0  0  0  0  0  0  0  0
   36.4450   31.0330   39.6160 C   0  0  0  0  0  0  0  0  0  0  0  0
   36.6540   27.7420   39.5650 H   0  0  0  0  0  0  0  0  0  0  0  0
   37.9450   28.9070   40.1570 H   0  0  0  0  0  0  0  0  0  0  0  0
   34.9480   29.0370   40.8420 H   0  0  0  0  0  0  0  0  0  0  0  0
   35.4810   31.2230   41.5570 H   0  0  0  0  0  0  0  0  0  0  0  0
   37.2830   30.8430   41.6220 H   0  0  0  0  0  0  0  0  0  0  0  0
   37.4610   31.4740   39.4480 H   0  0  0  0  0  0  0  0  0  0  0  0
   35.6280   31.7040   39.2930 H   0  0  0  0  0  0  0  0  0  0  0  0
   36.4260   29.8040   35.1940 C   0  0  0  0  0  0  0  0  0  0  0  0
   36.9070   29.9820   36.4900 C   0  0  0  0  0  0  0  0  0  0  0  0
   36.0870   29.6310   37.5760 C   0  0  0  0  0  0  0  0  0  0  0  0
   34.8540   29.1310   37.2700 N   0  0  0  0  0  0  0  0  0  0  0  0
   34.3980   28.9620   36.0200 C   0  0  0  0  0  0  0  0  0  0  0  0
   35.1910   29.3010   34.9780 N   0  0  0  0  0  0  0  0  0  0  0  0
   37.1090   30.0940   34.3790 H   0  0  0  0  0  0  0  0  0  0  0  0
   37.8800   30.3760   36.7480 H   0  0  0  0  0  0  0  0  0  0  0  0
   33.4070   28.5590   35.8550 H   0  0  0  0  0  0  0  0  0  0  0  0
   36.4430   28.6470   42.3030 N   0  0  0  0  0  0  0  0  0  0  0  0
   35.9770   29.0080   43.1910 H   0  0  0  0  0  0  0  0  0  0  0  0
   37.4110   27.6460   42.5730 C   0  0  0  0  0  0  0  0  0  0  0  0
   38.5700   27.8360   43.2930 C   0  0  0  0  0  3  0  0  0  0  0  0
   39.5220   26.8920   43.5840 C   0  0  0  0  0  0  0  0  0  0  0  0
   40.4080   27.0840   44.1460 H   0  0  0  0  0  0  0  0  0  0  0  0
   39.2860   25.6350   43.1030 N   0  0  0  0  0  0  0  0  0  0  0  0
   38.1530   25.4050   42.3860 C   0  0  0  0  0  3  0  0  0  0  0  0
   37.2880   26.3820   42.1550 N   0  0  0  0  0  0  0  0  0  0  0  0
  1  5  1  0  0  0  0
  1  2  1  0  0  0  0
  2  7  1  0  0  0  0
  2  3  1  0  0  0  0
  3  8  1  6  0  0  0
  3  4  1  0  0  0  0
  3 22  1  0  0  0  0
  4  9  1  0  0  0  0
  4 10  1  0  0  0  0
  5  4  1  0  0  0  0
  6  2  1  0  0  0  0
 11  5  1  0  0  0  0
 12  5  1  0  0  0  0
 13 14  1  0  0  0  0
 14 20  1  0  0  0  0
 14 15  2  0  0  0  0
 15  1  1  0  0  0  0
 16 15  1  0  0  0  0
 17 16  2  0  0  0  0
 18 13  2  0  0  0  0
 18 17  1  0  0  0  0
 19 13  1  0  0  0  0
 21 17  1  0  0  0  0
 22 24  1  0  0  0  0
 22 23  1  0  0  0  0
 24 25  1  0  0  0  0
 25 26  2  0  0  0  0
 26 27  1  0  0  0  0
 28 26  1  0  0  0  0
 29 28  2  0  0  0  0
 30 29  1  0  0  0  0
 30 24  2  0  0  0  0
M  END
>  <minimizedAffinity>
-4.54120159

$$$$
