
 OpenBabel03242523073D

 43 47  0  0  1  0  0  0  0  0999 V2000
   45.2300   36.0120   43.4760 C   0  0  0  0  0  0  0  0  0  0  0  0
   46.0500   34.9180   43.2330 C   0  0  0  0  0  0  0  0  0  0  0  0
   46.1380   33.9460   44.1940 C   0  0  0  0  0  0  0  0  0  0  0  0
   45.4180   34.0930   45.3500 N   0  0  0  0  0  0  0  0  0  0  0  0
   44.6290   35.1640   45.5610 C   0  0  0  0  0  0  0  0  0  0  0  0
   44.5380   36.1080   44.6350 N   0  0  0  0  0  0  0  0  0  0  0  0
   45.1430   36.7950   42.7270 H   0  0  0  0  0  0  0  0  0  0  0  0
   44.0330   35.3520   46.4430 H   0  0  0  0  0  0  0  0  0  0  0  0
   46.7580   34.8850   42.0300 N   0  0  0  0  0  0  0  0  0  0  0  0
   48.0370   35.4670   41.8810 C   0  0  0  0  0  0  0  0  0  0  0  0
   48.7110   35.1960   40.5610 C   0  0  0  0  0  0  0  0  0  0  0  0
   48.5520   33.9010   40.0490 N   0  0  0  0  0  0  0  0  0  0  0  0
   47.2890   33.3320   40.1960 C   0  0  0  0  0  0  0  0  0  0  0  0
   46.2910   34.2790   40.8310 C   0  0  0  0  0  0  0  0  0  0  0  0
   48.7670   35.2550   42.6930 H   0  0  0  0  0  0  0  0  0  0  0  0
   47.8810   36.5850   41.9250 H   0  0  0  0  0  0  0  0  0  0  0  0
   48.3670   35.9280   39.8110 H   0  0  0  0  0  0  0  0  0  0  0  0
   49.8180   35.3800   40.6920 H   0  0  0  0  0  0  0  0  0  0  0  0
   48.9520   33.8430   39.1090 H   0  0  0  0  0  0  0  0  0  0  0  0
   46.8750   33.1220   39.1670 H   0  0  0  0  0  0  0  0  0  0  0  0
   47.2250   32.3420   40.7070 H   0  0  0  0  0  0  0  0  0  0  0  0
   46.0390   35.0570   40.0700 H   0  0  0  0  0  0  0  0  0  0  0  0
   45.3340   33.7090   40.9860 H   0  0  0  0  0  0  0  0  0  0  0  0
   46.6160   32.0100   45.4510 C   0  0  0  0  0  0  0  0  0  0  0  0
   46.8610   32.7400   44.2650 C   0  0  0  0  0  0  0  0  0  0  0  0
   47.8170   32.1090   43.4890 C   0  0  0  0  0  0  0  0  0  0  0  0
   48.4610   30.9450   43.7930 C   0  0  0  0  0  0  0  0  0  0  0  0
   48.1630   30.2990   44.9770 C   0  0  0  0  0  0  0  0  0  0  0  0
   47.2290   30.8300   45.8200 C   0  0  0  0  0  0  0  0  0  0  0  0
   48.9770   29.1830   44.9850 O   0  0  0  0  0  0  0  0  0  0  0  0
   49.6590   29.0700   43.7610 C   0  0  1  0  0  0  0  0  0  0  0  0
   49.4200   30.2800   43.0500 O   0  0  0  0  0  0  0  0  0  0  0  0
   45.9080   32.2210   46.2780 H   0  0  0  0  0  0  0  0  0  0  0  0
   48.0050   32.6420   42.6130 H   0  0  0  0  0  0  0  0  0  0  0  0
   47.0760   30.2590   46.6910 H   0  0  0  0  0  0  0  0  0  0  0  0
   49.1340   28.2770   43.1860 H   0  0  0  0  0  0  0  0  0  0  0  0
   51.1030   28.7960   43.8840 C   0  0  0  0  0  0  0  0  0  0  0  0
   51.9740   29.7010   43.3090 C   0  0  0  0  0  0  0  0  0  0  0  0
   53.3280   29.3790   43.4620 C   0  0  0  0  0  0  0  0  0  0  0  0
   54.1240   29.9970   43.0640 H   0  0  0  0  0  0  0  0  0  0  0  0
   53.8040   28.2920   44.1060 N   0  0  0  0  0  0  0  0  0  0  0  0
   52.8820   27.4440   44.6490 C   0  0  0  0  0  0  0  0  0  0  0  0
   51.5540   27.6970   44.5360 N   0  0  0  0  0  0  0  0  0  0  0  0
  1  6  1  0  0  0  0
  2  1  2  0  0  0  0
  2  3  1  0  0  0  0
  3 25  1  0  0  0  0
  3  4  2  0  0  0  0
  4  5  1  0  0  0  0
  5  8  1  0  0  0  0
  6  5  2  0  0  0  0
  7  1  1  0  0  0  0
  9  2  1  0  0  0  0
 10 16  1  0  0  0  0
 10  9  1  0  0  0  0
 10 15  1  0  0  0  0
 11 18  1  0  0  0  0
 11 10  1  0  0  0  0
 12 13  1  0  0  0  0
 12 11  1  0  0  0  0
 13 21  1  0  0  0  0
 13 14  1  0  0  0  0
 14 23  1  0  0  0  0
 14  9  1  0  0  0  0
 17 11  1  0  0  0  0
 19 12  1  0  0  0  0
 20 13  1  0  0  0  0
 22 14  1  0  0  0  0
 24 29  1  0  0  0  0
 24 33  1  0  0  0  0
 25 24  2  0  0  0  0
 26 27  2  0  0  0  0
 26 25  1  0  0  0  0
 27 28  1  0  0  0  0
 28 30  1  0  0  0  0
 28 29  2  0  0  0  0
 29 35  1  0  0  0  0
 31 36  1  6  0  0  0
 31 37  1  0  0  0  0
 31 30  1  0  0  0  0
 32 31  1  0  0  0  0
 32 27  1  0  0  0  0
 34 26  1  0  0  0  0
 37 43  1  0  0  0  0
 38 39  1  0  0  0  0
 38 37  2  0  0  0  0
 39 41  2  0  0  0  0
 40 39  1  0  0  0  0
 41 42  1  0  0  0  0
 43 42  2  0  0  0  0
M  END
>  <minimizedAffinity>
-5.29785585

>  <minimizedRMSD>
0.280877888

$$$$
