
 OpenBabel03242512093D

 31 33  0  0  1  0  0  0  0  0999 V2000
   48.0560   34.4650   41.1640 C   0  0  1  0  0  0  0  0  0  0  0  0
   48.7730   35.7650   41.6970 C   0  0  0  0  0  0  0  0  0  0  0  0
   48.9970   34.4370   42.2770 C   0  0  2  0  0  0  0  0  0  0  0  0
   48.4050   34.1650   40.1650 H   0  0  0  0  0  0  0  0  0  0  0  0
   49.5120   36.1870   40.9880 H   0  0  0  0  0  0  0  0  0  0  0  0
   48.1270   36.5040   42.2110 H   0  0  0  0  0  0  0  0  0  0  0  0
   48.5210   34.0700   43.1990 H   0  0  0  0  0  0  0  0  0  0  0  0
   46.5880   34.5040   41.4150 C   0  0  0  0  0  0  0  0  0  0  0  0
   45.8470   34.2890   40.4630 O   0  0  0  0  0  0  0  0  0  0  0  0
   45.3710   35.9330   42.9920 C   0  0  0  0  0  0  0  0  0  0  0  0
   45.9910   34.7710   42.6840 C   0  0  0  0  0  0  0  0  0  0  0  0
   46.0390   33.7670   43.6940 C   0  0  0  0  0  0  0  0  0  0  0  0
   45.4790   33.9890   44.9070 N   0  0  0  0  0  0  0  0  0  0  0  0
   44.8640   35.1810   45.1680 C   0  0  0  0  0  0  0  0  0  0  0  0
   44.8180   36.1160   44.2330 N   0  0  0  0  0  0  0  0  0  0  0  0
   45.2980   36.7390   42.2730 H   0  0  0  0  0  0  0  0  0  0  0  0
   46.4910   32.8160   43.5800 H   0  0  0  0  0  0  0  0  0  0  0  0
   44.4310   35.3290   46.1340 H   0  0  0  0  0  0  0  0  0  0  0  0
   50.2880   33.9560   42.1080 O   0  0  0  0  0  0  0  0  0  0  0  0
   48.9660   31.9590   43.0590 O   0  0  0  0  0  0  0  0  0  0  0  0
   50.1980   32.2620   42.2230 P   0  0  2  0  0  0  0  0  0  0  0  0
   51.5680   31.5660   42.8590 O   0  0  0  0  0  0  0  0  0  0  0  0
   51.6920   30.6530   42.5490 H   0  0  0  0  0  0  0  0  0  0  0  0
   49.8340   31.6400   40.6560 O   0  0  0  0  0  0  0  0  0  0  0  0
   50.7370   31.5670   39.6230 C   0  0  0  0  0  0  0  0  0  0  0  0
   50.5090   31.6090   38.2570 C   0  0  0  0  0  0  0  0  0  0  0  0
   51.5690   31.5190   37.3760 C   0  0  0  0  0  0  0  0  0  0  0  0
   51.3420   31.5550   36.3150 H   0  0  0  0  0  0  0  0  0  0  0  0
   52.8340   31.3890   37.8630 N   0  0  0  0  0  0  0  0  0  0  0  0
   53.0470   31.3510   39.1950 C   0  0  0  0  0  0  0  0  0  0  0  0
   52.0160   31.4380   40.0840 N   0  0  0  0  0  0  0  0  0  0  0  0
  1  4  1  6  0  0  0
  1  8  1  0  0  0  0
  1  2  1  0  0  0  0
  1  3  1  0  0  0  0
  2  6  1  0  0  0  0
  2  3  1  0  0  0  0
  3  7  1  1  0  0  0
  5  2  1  0  0  0  0
  8 11  1  0  0  0  0
  9  8  2  0  0  0  0
 10 15  1  0  0  0  0
 11 10  2  0  0  0  0
 11 12  1  0  0  0  0
 12 13  2  0  0  0  0
 13 14  1  0  0  0  0
 14 18  1  0  0  0  0
 15 14  2  0  0  0  0
 16 10  1  0  0  0  0
 17 12  1  0  0  0  0
 19 21  1  0  0  0  0
 19  3  1  0  0  0  0
 21 22  1  0  0  0  0
 21 20  2  1  0  0  0
 23 22  1  0  0  0  0
 24 21  1  0  0  0  0
 25 31  1  0  0  0  0
 25 24  1  0  0  0  0
 26 25  2  0  0  0  0
 27 29  2  0  0  0  0
 27 26  1  0  0  0  0
 28 27  1  0  0  0  0
 29 30  1  0  0  0  0
 30 31  2  0  0  0  0
M  END
>  <minimizedAffinity>
-5.10285568

>  <minimizedRMSD>
1.1207931

$$$$
