
 OpenBabel03252509313D

 25 26  0  0  0  0  0  0  0  0999 V2000
   48.2740   33.3260   43.5010 O   0  0  0  0  0  0  0  0  0  0  0  0
   46.9410   33.2830   43.0830 C   0  0  0  0  0  0  0  0  0  0  0  0
   46.7930   33.6230   42.0420 H   0  0  0  0  0  0  0  0  0  0  0  0
   46.5600   32.2190   43.0960 H   0  0  0  0  0  0  0  0  0  0  0  0
   45.0330   34.3370   46.1220 C   0  0  0  0  0  0  0  0  0  0  0  0
   45.8620   33.5860   45.2770 C   0  0  0  0  0  0  0  0  0  0  0  0
   46.0780   34.0480   43.9870 C   0  0  0  0  0  0  0  0  0  0  0  0
   45.4730   35.2090   43.6040 N   0  0  0  0  0  0  0  0  0  0  0  0
   44.6710   35.9210   44.4470 C   0  0  0  0  0  0  0  0  0  0  0  0
   44.4620   35.4750   45.6910 N   0  0  0  0  0  0  0  0  0  0  0  0
   44.9060   33.9160   47.1270 H   0  0  0  0  0  0  0  0  0  0  0  0
   46.3180   32.6620   45.6440 H   0  0  0  0  0  0  0  0  0  0  0  0
   44.1910   36.8360   44.1530 H   0  0  0  0  0  0  0  0  0  0  0  0
   49.8540   33.0460   41.4360 O   0  0  0  0  0  0  0  0  0  0  0  0
   49.1410   34.0830   42.2720 P   0  0  2  0  0  0  0  0  0  0  0  0
   50.2080   35.1750   42.9790 O   0  0  0  0  0  0  0  0  0  0  0  0
   51.0900   35.0920   42.5680 H   0  0  0  0  0  0  0  0  0  0  0  0
   48.0490   34.8740   41.2680 O   0  0  0  0  0  0  0  0  0  0  0  0
   47.8110   34.3790   39.9940 C   0  0  0  0  0  0  0  0  0  0  0  0
   48.5890   34.9150   38.9630 C   0  0  0  0  0  3  0  0  0  0  0  0
   48.4230   34.4810   37.6550 C   0  0  0  0  0  0  0  0  0  0  0  0
   49.0230   34.8880   36.8280 H   0  0  0  0  0  0  0  0  0  0  0  0
   47.4870   33.5310   37.4290 N   0  0  0  0  0  0  0  0  0  0  0  0
   46.7560   33.0370   38.4430 C   0  0  0  0  0  3  0  0  0  0  0  0
   46.9040   33.4410   39.6980 N   0  0  0  0  0  0  0  0  0  0  0  0
  2  4  1  0  0  0  0
  2  1  1  0  0  0  0
  2  7  1  0  0  0  0
  3  2  1  0  0  0  0
  5 11  1  0  0  0  0
  6 12  1  0  0  0  0
  6  5  2  0  0  0  0
  7  6  1  0  0  0  0
  8  7  2  0  0  0  0
  8  9  1  0  0  0  0
  9 10  2  0  0  0  0
 10  5  1  0  0  0  0
 13  9  1  0  0  0  0
 15 14  2  6  0  0  0
 15 16  1  0  0  0  0
 15  1  1  0  0  0  0
 17 16  1  0  0  0  0
 18 15  1  0  0  0  0
 19 18  1  0  0  0  0
 20 19  2  0  0  0  0
 21 20  1  0  0  0  0
 22 21  1  0  0  0  0
 23 21  2  0  0  0  0
 23 24  1  0  0  0  0
 24 25  2  0  0  0  0
 25 19  1  0  0  0  0
M  END
>  <minimizedAffinity>
-4.93320942

>  <minimizedRMSD>
1.00489044

$$$$
