
 OpenBabel03252509163D

 23 25  0  0  0  0  0  0  0  0999 V2000
   46.3750   32.8350   45.8610 C   0  0  0  0  0  0  0  0  0  0  0  0
   46.7550   32.9280   47.2300 C   0  0  0  0  0  0  0  0  0  0  0  0
   47.2240   31.8070   47.8370 C   0  0  0  0  0  0  0  0  0  0  0  0
   47.3160   30.6030   47.0950 C   0  0  0  0  0  0  0  0  0  0  0  0
   46.7030   31.0880   45.4430 S   0  0  0  0  0  0  0  0  0  0  0  0
   46.6690   33.8670   47.7580 H   0  0  0  0  0  0  0  0  0  0  0  0
   47.5400   31.7430   48.8510 H   0  0  0  0  0  0  0  0  0  0  0  0
   44.5300   35.8020   44.6150 C   0  0  0  0  0  0  0  0  0  0  0  0
   45.1290   35.9290   43.3340 C   0  0  0  0  0  0  0  0  0  0  0  0
   46.1190   35.0120   42.9620 C   0  0  0  0  0  0  0  0  0  0  0  0
   46.4530   34.0360   43.8670 N   0  0  0  0  0  0  0  0  0  0  0  0
   45.8530   33.9550   45.0770 C   0  0  0  0  0  0  0  0  0  0  0  0
   44.8920   34.8360   45.4540 N   0  0  0  0  0  0  0  0  0  0  0  0
   43.7840   36.5160   44.8590 H   0  0  0  0  0  0  0  0  0  0  0  0
   44.8720   36.6940   42.6150 H   0  0  0  0  0  0  0  0  0  0  0  0
   46.6240   35.0370   42.0070 H   0  0  0  0  0  0  0  0  0  0  0  0
   47.7390   29.3250   47.4090 C   0  0  0  0  0  0  0  0  0  0  0  0
   48.9700   29.1320   47.9980 C   0  0  0  0  0  3  0  0  0  0  0  0
   49.3450   27.8160   48.2930 C   0  0  0  0  0  0  0  0  0  0  0  0
   50.3070   27.6540   48.7540 H   0  0  0  0  0  0  0  0  0  0  0  0
   48.4990   26.7950   47.9940 N   0  0  0  0  0  0  0  0  0  0  0  0
   47.3050   27.0190   47.4200 C   0  0  0  0  0  3  0  0  0  0  0  0
   46.9230   28.2960   47.1240 N   0  0  0  0  0  0  0  0  0  0  0  0
  1  2  2  0  0  0  0
  2  6  1  0  0  0  0
  2  3  1  0  0  0  0
  3  7  1  0  0  0  0
  4 17  1  0  0  0  0
  4  3  2  0  0  0  0
  5  1  1  0  0  0  0
  5  4  1  0  0  0  0
  8 14  1  0  0  0  0
  8 13  1  0  0  0  0
  9  8  2  0  0  0  0
 10  9  1  0  0  0  0
 10 11  2  0  0  0  0
 11 12  1  0  0  0  0
 12 13  2  0  0  0  0
 12  1  1  0  0  0  0
 15  9  1  0  0  0  0
 16 10  1  0  0  0  0
 17 18  1  0  0  0  0
 18 19  2  0  0  0  0
 19 20  1  0  0  0  0
 21 19  1  0  0  0  0
 22 21  2  0  0  0  0
 23 17  2  0  0  0  0
 23 22  1  0  0  0  0
M  END
>  <minimizedAffinity>
-4.4794302

>  <minimizedRMSD>
1.69924247

$$$$
