
 OpenBabel03242517293D

 38 40  0  0  1  0  0  0  0  0999 V2000
   36.5090   25.0240   38.1810 C   0  0  0  0  0  0  0  0  0  0  0  0
   35.4970   24.0460   38.4450 C   0  0  0  0  0  0  0  0  0  0  0  0
   35.4640   23.4630   39.7260 C   0  0  0  0  0  0  0  0  0  0  0  0
   36.3920   23.8620   40.6360 N   0  0  0  0  0  0  0  0  0  0  0  0
   37.3290   24.7760   40.3710 C   0  0  0  0  0  0  0  0  0  0  0  0
   37.3650   25.3390   39.1460 N   0  0  0  0  0  0  0  0  0  0  0  0
   38.2460   25.1310   41.3620 N   0  0  0  0  0  0  0  0  0  0  0  0
   39.0920   24.1360   41.9510 C   0  0  0  0  0  0  0  0  0  0  0  0
   39.7190   24.5690   43.2470 C   0  0  0  0  0  0  0  0  0  0  0  0
   40.0190   25.9520   43.3790 N   0  0  0  0  0  0  0  0  0  0  0  0
   39.7670   26.7070   42.1860 C   0  0  0  0  0  0  0  0  0  0  0  0
   38.3310   26.5360   41.7930 C   0  0  2  0  0  0  0  0  0  0  0  0
   36.5060   25.4480   37.2030 H   0  0  0  0  0  0  0  0  0  0  0  0
   34.8060   23.8010   37.6510 H   0  0  0  0  0  0  0  0  0  0  0  0
   34.7160   22.7350   39.9300 H   0  0  0  0  0  0  0  0  0  0  0  0
   38.6150   23.1540   42.1130 H   0  0  0  0  0  0  0  0  0  0  0  0
   39.9280   23.9650   41.2190 H   0  0  0  0  0  0  0  0  0  0  0  0
   40.6620   23.9840   43.3580 H   0  0  0  0  0  0  0  0  0  0  0  0
   39.0540   24.2200   44.0650 H   0  0  0  0  0  0  0  0  0  0  0  0
   39.6680   26.3990   44.2340 H   0  0  0  0  0  0  0  0  0  0  0  0
   39.9620   27.7800   42.3820 H   0  0  0  0  0  0  0  0  0  0  0  0
   40.4180   26.2910   41.3900 H   0  0  0  0  0  0  0  0  0  0  0  0
   38.0940   27.2160   40.9520 H   0  0  0  0  0  0  0  0  0  0  0  0
   37.3960   26.8430   42.9090 C   0  0  0  0  0  0  0  0  0  0  0  0
   37.9650   27.2530   43.7830 H   0  0  0  0  0  0  0  0  0  0  0  0
   36.8440   25.9520   43.2090 H   0  0  0  0  0  0  0  0  0  0  0  0
   36.4990   27.9640   42.4570 C   0  0  0  0  0  3  0  0  0  0  0  0
   36.3680   28.2600   41.1750 C   0  0  0  0  0  3  0  0  0  0  0  0
   35.4990   29.3550   40.6520 C   0  0  0  0  0  0  0  0  0  0  0  0
   34.7550   28.8710   39.9740 H   0  0  0  0  0  0  0  0  0  0  0  0
   34.8950   29.8040   41.4660 H   0  0  0  0  0  0  0  0  0  0  0  0
   36.2690   30.3930   39.9350 C   0  0  0  0  0  0  0  0  0  0  0  0
   36.5690   30.4530   38.5910 C   0  0  0  0  0  3  0  0  0  0  0  0
   37.3130   31.5220   38.0990 C   0  0  0  0  0  0  0  0  0  0  0  0
   37.5210   31.5220   37.0410 H   0  0  0  0  0  0  0  0  0  0  0  0
   37.7070   32.4540   38.9740 N   0  0  0  0  0  0  0  0  0  0  0  0
   37.4390   32.4330   40.2810 C   0  0  0  0  0  3  0  0  0  0  0  0
   36.7230   31.3900   40.7080 N   0  0  0  0  0  0  0  0  0  0  0  0
  1  2  2  0  0  0  0
  1  6  1  0  0  0  0
  2  3  1  0  0  0  0
  3 15  1  0  0  0  0
  3  4  2  0  0  0  0
  5  4  1  0  0  0  0
  5  7  1  0  0  0  0
  6  5  2  0  0  0  0
  7 12  1  0  0  0  0
  7  8  1  0  0  0  0
  8 16  1  0  0  0  0
  8  9  1  0  0  0  0
  9 18  1  0  0  0  0
  9 10  1  0  0  0  0
  9 19  1  0  0  0  0
 10 20  1  0  0  0  0
 11 21  1  0  0  0  0
 11 10  1  0  0  0  0
 12 23  1  6  0  0  0
 12 11  1  0  0  0  0
 12 24  1  0  0  0  0
 13  1  1  0  0  0  0
 14  2  1  0  0  0  0
 17  8  1  0  0  0  0
 22 11  1  0  0  0  0
 24 26  1  0  0  0  0
 24 25  1  0  0  0  0
 27 24  1  0  0  0  0
 28 27  2  0  0  0  0
 29 28  1  0  0  0  0
 29 31  1  0  0  0  0
 30 29  1  0  0  0  0
 32 29  1  0  0  0  0
 32 38  1  0  0  0  0
 33 32  2  0  0  0  0
 34 33  1  0  0  0  0
 34 36  2  0  0  0  0
 35 34  1  0  0  0  0
 36 37  1  0  0  0  0
 37 38  2  0  0  0  0
M  END
>  <minimizedAffinity>
-5.32946873

$$$$

 OpenBabel03242517293D

 38 40  0  0  1  0  0  0  0  0999 V2000
   37.0140   29.7230   36.9320 C   0  0  0  0  0  0  0  0  0  0  0  0
   37.8790   28.6400   36.5740 C   0  0  0  0  0  0  0  0  0  0  0  0
   39.1750   28.6220   37.1250 C   0  0  0  0  0  0  0  0  0  0  0  0
   39.5280   29.6320   37.9630 N   0  0  0  0  0  0  0  0  0  0  0  0
   38.7070   30.6360   38.2850 C   0  0  0  0  0  0  0  0  0  0  0  0
   37.4640   30.6580   37.7610 N   0  0  0  0  0  0  0  0  0  0  0  0
   39.1480   31.6350   39.1540 N   0  0  0  0  0  0  0  0  0  0  0  0
   40.3060   32.4150   38.8290 C   0  0  0  0  0  0  0  0  0  0  0  0
   40.8860   33.1510   40.0040 C   0  0  0  0  0  0  0  0  0  0  0  0
   39.9700   33.5870   40.9980 N   0  0  0  0  0  0  0  0  0  0  0  0
   38.5980   33.3420   40.6580 C   0  0  0  0  0  0  0  0  0  0  0  0
   38.4110   31.8770   40.4050 C   0  0  2  0  0  0  0  0  0  0  0  0
   36.0400   29.7070   36.5000 H   0  0  0  0  0  0  0  0  0  0  0  0
   37.4980   27.8860   35.8990 H   0  0  0  0  0  0  0  0  0  0  0  0
   39.8240   27.8210   36.8630 H   0  0  0  0  0  0  0  0  0  0  0  0
   41.1210   31.8560   38.3370 H   0  0  0  0  0  0  0  0  0  0  0  0
   39.9620   33.1890   38.0890 H   0  0  0  0  0  0  0  0  0  0  0  0
   41.4210   34.0390   39.5930 H   0  0  0  0  0  0  0  0  0  0  0  0
   41.6760   32.5020   40.4380 H   0  0  0  0  0  0  0  0  0  0  0  0
   40.2100   33.3280   41.9630 H   0  0  0  0  0  0  0  0  0  0  0  0
   37.9500   33.6480   41.5020 H   0  0  0  0  0  0  0  0  0  0  0  0
   38.3850   33.9060   39.7260 H   0  0  0  0  0  0  0  0  0  0  0  0
   37.3340   31.6590   40.2700 H   0  0  0  0  0  0  0  0  0  0  0  0
   38.9120   31.0380   41.5270 C   0  0  0  0  0  0  0  0  0  0  0  0
   38.9160   31.6330   42.4770 H   0  0  0  0  0  0  0  0  0  0  0  0
   39.9150   30.6670   41.3160 H   0  0  0  0  0  0  0  0  0  0  0  0
   37.9130   29.9350   41.7530 C   0  0  0  0  0  3  0  0  0  0  0  0
   38.0450   29.0880   42.7600 C   0  0  0  0  0  3  0  0  0  0  0  0
   37.0970   27.9720   43.0470 C   0  0  0  0  0  0  0  0  0  0  0  0
   36.7690   28.1010   44.1070 H   0  0  0  0  0  0  0  0  0  0  0  0
   36.1710   28.0740   42.4470 H   0  0  0  0  0  0  0  0  0  0  0  0
   37.7110   26.6440   42.8440 C   0  0  0  0  0  0  0  0  0  0  0  0
   37.1590   25.5340   42.2400 C   0  0  0  0  0  3  0  0  0  0  0  0
   37.9030   24.3610   42.1430 C   0  0  0  0  0  0  0  0  0  0  0  0
   37.4260   23.5220   41.6630 H   0  0  0  0  0  0  0  0  0  0  0  0
   39.1410   24.3720   42.6510 N   0  0  0  0  0  0  0  0  0  0  0  0
   39.7120   25.4230   43.2430 C   0  0  0  0  0  3  0  0  0  0  0  0
   38.9620   26.5260   43.3140 N   0  0  0  0  0  0  0  0  0  0  0  0
  1  6  1  0  0  0  0
  2  1  2  0  0  0  0
  2  3  1  0  0  0  0
  3  4  2  0  0  0  0
  4  5  1  0  0  0  0
  5  7  1  0  0  0  0
  6  5  2  0  0  0  0
  7 12  1  0  0  0  0
  8  7  1  0  0  0  0
  8  9  1  0  0  0  0
  9 19  1  0  0  0  0
  9 10  1  0  0  0  0
 10 20  1  0  0  0  0
 11 10  1  0  0  0  0
 11 21  1  0  0  0  0
 12 23  1  6  0  0  0
 12 11  1  0  0  0  0
 12 24  1  0  0  0  0
 13  1  1  0  0  0  0
 14  2  1  0  0  0  0
 15  3  1  0  0  0  0
 16  8  1  0  0  0  0
 17  8  1  0  0  0  0
 18  9  1  0  0  0  0
 22 11  1  0  0  0  0
 24 27  1  0  0  0  0
 24 25  1  0  0  0  0
 26 24  1  0  0  0  0
 27 28  2  0  0  0  0
 28 29  1  0  0  0  0
 29 30  1  0  0  0  0
 31 29  1  0  0  0  0
 32 29  1  0  0  0  0
 32 38  1  0  0  0  0
 33 32  2  0  0  0  0
 34 33  1  0  0  0  0
 34 36  2  0  0  0  0
 35 34  1  0  0  0  0
 36 37  1  0  0  0  0
 37 38  2  0  0  0  0
M  END
>  <minimizedAffinity>
-5.25099754

$$$$

 OpenBabel03242517293D

 38 40  0  0  1  0  0  0  0  0999 V2000
   41.0090   28.7500   40.1070 C   0  0  0  0  0  0  0  0  0  0  0  0
   41.5290   28.7560   41.4410 C   0  0  0  0  0  0  0  0  0  0  0  0
   41.1300   29.7970   42.3000 C   0  0  0  0  0  0  0  0  0  0  0  0
   40.2750   30.7350   41.8130 N   0  0  0  0  0  0  0  0  0  0  0  0
   39.8000   30.7150   40.5650 C   0  0  0  0  0  0  0  0  0  0  0  0
   40.1790   29.7180   39.7370 N   0  0  0  0  0  0  0  0  0  0  0  0
   38.9250   31.7170   40.1430 N   0  0  0  0  0  0  0  0  0  0  0  0
   39.3280   33.0910   40.1850 C   0  0  0  0  0  0  0  0  0  0  0  0
   38.1810   34.0590   40.0920 C   0  0  0  0  0  0  0  0  0  0  0  0
   37.0650   33.6510   39.3130 N   0  0  0  0  0  0  0  0  0  0  0  0
   37.2640   32.4000   38.6410 C   0  0  0  0  0  0  0  0  0  0  0  0
   37.5860   31.3440   39.6560 C   0  0  2  0  0  0  0  0  0  0  0  0
   41.3300   27.9480   39.4830 H   0  0  0  0  0  0  0  0  0  0  0  0
   42.2040   27.9610   41.7280 H   0  0  0  0  0  0  0  0  0  0  0  0
   41.5120   29.8090   43.2920 H   0  0  0  0  0  0  0  0  0  0  0  0
   39.9420   33.3710   41.0590 H   0  0  0  0  0  0  0  0  0  0  0  0
   39.9740   33.2540   39.2790 H   0  0  0  0  0  0  0  0  0  0  0  0
   38.5920   35.0030   39.6630 H   0  0  0  0  0  0  0  0  0  0  0  0
   37.8800   34.3100   41.1300 H   0  0  0  0  0  0  0  0  0  0  0  0
   36.1510   33.7310   39.7760 H   0  0  0  0  0  0  0  0  0  0  0  0
   36.3350   32.1160   38.1090 H   0  0  0  0  0  0  0  0  0  0  0  0
   38.1290   32.5270   37.9580 H   0  0  0  0  0  0  0  0  0  0  0  0
   37.6130   30.3530   39.1650 H   0  0  0  0  0  0  0  0  0  0  0  0
   36.5820   31.2860   40.7530 C   0  0  0  0  0  0  0  0  0  0  0  0
   35.6040   31.7000   40.3980 H   0  0  0  0  0  0  0  0  0  0  0  0
   36.9270   31.8420   41.6250 H   0  0  0  0  0  0  0  0  0  0  0  0
   36.3160   29.8350   41.0510 C   0  0  0  0  0  3  0  0  0  0  0  0
   36.8950   29.2290   42.0730 C   0  0  0  0  0  3  0  0  0  0  0  0
   36.6810   27.7960   42.4300 C   0  0  0  0  0  0  0  0  0  0  0  0
   36.0770   27.7910   43.3700 H   0  0  0  0  0  0  0  0  0  0  0  0
   36.0410   27.2910   41.6770 H   0  0  0  0  0  0  0  0  0  0  0  0
   37.9510   27.0640   42.6160 C   0  0  0  0  0  0  0  0  0  0  0  0
   38.8260   27.1350   43.6790 C   0  0  0  0  0  3  0  0  0  0  0  0
   39.9830   26.3600   43.6720 C   0  0  0  0  0  0  0  0  0  0  0  0
   40.6340   26.4520   44.5250 H   0  0  0  0  0  0  0  0  0  0  0  0
   40.1880   25.5700   42.6120 N   0  0  0  0  0  0  0  0  0  0  0  0
   39.3680   25.4710   41.5640 C   0  0  0  0  0  3  0  0  0  0  0  0
   38.2720   26.2320   41.6140 N   0  0  0  0  0  0  0  0  0  0  0  0
  1  2  1  0  0  0  0
  2 14  1  0  0  0  0
  2  3  2  0  0  0  0
  3 15  1  0  0  0  0
  4  3  1  0  0  0  0
  5  4  2  0  0  0  0
  6  1  2  0  0  0  0
  6  5  1  0  0  0  0
  7  8  1  0  0  0  0
  7  5  1  0  0  0  0
  8 16  1  0  0  0  0
  9  8  1  0  0  0  0
  9 19  1  0  0  0  0
 10 20  1  0  0  0  0
 10  9  1  0  0  0  0
 11 10  1  0  0  0  0
 11 12  1  0  0  0  0
 12 23  1  6  0  0  0
 12  7  1  0  0  0  0
 12 24  1  0  0  0  0
 13  1  1  0  0  0  0
 17  8  1  0  0  0  0
 18  9  1  0  0  0  0
 21 11  1  0  0  0  0
 22 11  1  0  0  0  0
 24 27  1  0  0  0  0
 24 26  1  0  0  0  0
 25 24  1  0  0  0  0
 27 28  2  0  0  0  0
 28 29  1  0  0  0  0
 29 32  1  0  0  0  0
 29 30  1  0  0  0  0
 31 29  1  0  0  0  0
 32 33  1  0  0  0  0
 34 33  2  0  0  0  0
 34 35  1  0  0  0  0
 36 34  1  0  0  0  0
 37 38  1  0  0  0  0
 37 36  2  0  0  0  0
 38 32  2  0  0  0  0
M  END
>  <minimizedAffinity>
-5.20248508

$$$$

 OpenBabel03242517293D

 38 40  0  0  1  0  0  0  0  0999 V2000
   39.5830   28.0780   42.2240 C   0  0  0  0  0  0  0  0  0  0  0  0
   38.6420   27.9270   43.2920 C   0  0  0  0  0  0  0  0  0  0  0  0
   37.4980   28.7470   43.2830 C   0  0  0  0  0  0  0  0  0  0  0  0
   37.3530   29.6330   42.2620 N   0  0  0  0  0  0  0  0  0  0  0  0
   38.2420   29.7610   41.2740 C   0  0  0  0  0  0  0  0  0  0  0  0
   39.3400   28.9760   41.2760 N   0  0  0  0  0  0  0  0  0  0  0  0
   38.0190   30.6960   40.2620 N   0  0  0  0  0  0  0  0  0  0  0  0
   37.8700   32.0840   40.5820 C   0  0  0  0  0  0  0  0  0  0  0  0
   37.2480   32.8940   39.4790 C   0  0  0  0  0  0  0  0  0  0  0  0
   37.5280   32.4790   38.1490 N   0  0  0  0  0  0  0  0  0  0  0  0
   38.4650   31.3970   38.0730 C   0  0  0  0  0  0  0  0  0  0  0  0
   37.9390   30.2370   38.8650 C   0  0  2  0  0  0  0  0  0  0  0  0
   40.4370   27.4420   42.2590 H   0  0  0  0  0  0  0  0  0  0  0  0
   38.8520   27.1910   44.0560 H   0  0  0  0  0  0  0  0  0  0  0  0
   36.7940   28.6420   44.0740 H   0  0  0  0  0  0  0  0  0  0  0  0
   37.3150   32.2910   41.5140 H   0  0  0  0  0  0  0  0  0  0  0  0
   38.9110   32.4810   40.7390 H   0  0  0  0  0  0  0  0  0  0  0  0
   37.6050   33.9420   39.6110 H   0  0  0  0  0  0  0  0  0  0  0  0
   36.1550   32.9250   39.6720 H   0  0  0  0  0  0  0  0  0  0  0  0
   36.7070   32.3600   37.5430 H   0  0  0  0  0  0  0  0  0  0  0  0
   38.5840   31.0870   37.0160 H   0  0  0  0  0  0  0  0  0  0  0  0
   39.4130   31.7500   38.5270 H   0  0  0  0  0  0  0  0  0  0  0  0
   38.5880   29.3550   38.7060 H   0  0  0  0  0  0  0  0  0  0  0  0
   36.5530   29.8640   38.4720 C   0  0  0  0  0  0  0  0  0  0  0  0
   36.3200   30.2720   37.4550 H   0  0  0  0  0  0  0  0  0  0  0  0
   35.8300   30.2360   39.1970 H   0  0  0  0  0  0  0  0  0  0  0  0
   36.5110   28.3670   38.3180 C   0  0  0  0  0  3  0  0  0  0  0  0
   36.3830   27.5740   39.3680 C   0  0  0  0  0  3  0  0  0  0  0  0
   36.3340   26.0850   39.2950 C   0  0  0  0  0  0  0  0  0  0  0  0
   35.2780   25.7920   39.5140 H   0  0  0  0  0  0  0  0  0  0  0  0
   36.5180   25.7330   38.2600 H   0  0  0  0  0  0  0  0  0  0  0  0
   37.2660   25.4420   40.2430 C   0  0  0  0  0  0  0  0  0  0  0  0
   36.9910   24.9360   41.4960 C   0  0  0  0  0  3  0  0  0  0  0  0
   38.0140   24.3610   42.2460 C   0  0  0  0  0  0  0  0  0  0  0  0
   37.7480   23.9810   43.2190 H   0  0  0  0  0  0  0  0  0  0  0  0
   39.2350   24.3300   41.7010 N   0  0  0  0  0  0  0  0  0  0  0  0
   39.5440   24.8070   40.4940 C   0  0  0  0  0  3  0  0  0  0  0  0
   38.5320   25.3480   39.8100 N   0  0  0  0  0  0  0  0  0  0  0  0
  1 13  1  0  0  0  0
  1  2  1  0  0  0  0
  2 14  1  0  0  0  0
  3  2  2  0  0  0  0
  3 15  1  0  0  0  0
  4  3  1  0  0  0  0
  5  6  1  0  0  0  0
  5  4  2  0  0  0  0
  6  1  2  0  0  0  0
  7  8  1  0  0  0  0
  7  5  1  0  0  0  0
  8 17  1  0  0  0  0
  8 16  1  0  0  0  0
  9 18  1  0  0  0  0
  9 19  1  0  0  0  0
  9  8  1  0  0  0  0
 10  9  1  0  0  0  0
 11 10  1  0  0  0  0
 11 22  1  0  0  0  0
 11 12  1  0  0  0  0
 12 23  1  6  0  0  0
 12  7  1  0  0  0  0
 20 10  1  0  0  0  0
 21 11  1  0  0  0  0
 24 12  1  0  0  0  0
 24 26  1  0  0  0  0
 25 24  1  0  0  0  0
 27 24  1  0  0  0  0
 27 28  2  0  0  0  0
 29 28  1  0  0  0  0
 29 30  1  0  0  0  0
 29 32  1  0  0  0  0
 31 29  1  0  0  0  0
 32 33  1  0  0  0  0
 33 34  2  0  0  0  0
 34 35  1  0  0  0  0
 36 34  1  0  0  0  0
 37 36  2  0  0  0  0
 38 32  2  0  0  0  0
 38 37  1  0  0  0  0
M  END
>  <minimizedAffinity>
-5.12843752

$$$$

 OpenBabel03242517293D

 38 40  0  0  1  0  0  0  0  0999 V2000
   39.3770   28.6640   37.3180 C   0  0  0  0  0  0  0  0  0  0  0  0
   40.7470   28.4410   36.9700 C   0  0  0  0  0  0  0  0  0  0  0  0
   41.7090   29.3380   37.4740 C   0  0  0  0  0  0  0  0  0  0  0  0
   41.2800   30.3610   38.2600 N   0  0  0  0  0  0  0  0  0  0  0  0
   39.9960   30.5530   38.5740 C   0  0  0  0  0  0  0  0  0  0  0  0
   39.0700   29.6960   38.0950 N   0  0  0  0  0  0  0  0  0  0  0  0
   39.6390   31.6300   39.3870 N   0  0  0  0  0  0  0  0  0  0  0  0
   39.9550   32.9700   38.9920 C   0  0  0  0  0  0  0  0  0  0  0  0
   39.8790   33.9640   40.1170 C   0  0  0  0  0  0  0  0  0  0  0  0
   38.9120   33.7120   41.1260 N   0  0  0  0  0  0  0  0  0  0  0  0
   38.0750   32.5820   40.8450 C   0  0  0  0  0  0  0  0  0  0  0  0
   38.9350   31.3700   40.6540 C   0  0  2  0  0  0  0  0  0  0  0  0
   38.6740   27.9670   36.9220 H   0  0  0  0  0  0  0  0  0  0  0  0
   40.9820   27.5960   36.3380 H   0  0  0  0  0  0  0  0  0  0  0  0
   42.7290   29.1800   37.2190 H   0  0  0  0  0  0  0  0  0  0  0  0
   40.9320   33.0900   38.4920 H   0  0  0  0  0  0  0  0  0  0  0  0
   39.1750   33.2630   38.2360 H   0  0  0  0  0  0  0  0  0  0  0  0
   39.6660   34.9560   39.6540 H   0  0  0  0  0  0  0  0  0  0  0  0
   40.9000   34.0500   40.5460 H   0  0  0  0  0  0  0  0  0  0  0  0
   39.2650   33.7360   42.0910 H   0  0  0  0  0  0  0  0  0  0  0  0
   37.3920   32.4090   41.7010 H   0  0  0  0  0  0  0  0  0  0  0  0
   37.5340   32.8010   39.9020 H   0  0  0  0  0  0  0  0  0  0  0  0
   38.2950   30.4710   40.5670 H   0  0  0  0  0  0  0  0  0  0  0  0
   39.8750   31.1560   41.7890 C   0  0  0  0  0  0  0  0  0  0  0  0
   39.9960   32.1070   42.3680 H   0  0  0  0  0  0  0  0  0  0  0  0
   40.8450   30.8120   41.4300 H   0  0  0  0  0  0  0  0  0  0  0  0
   39.2260   30.1890   42.7420 C   0  0  0  0  0  3  0  0  0  0  0  0
   38.4980   29.1770   42.3010 C   0  0  0  0  0  3  0  0  0  0  0  0
   37.8240   28.1800   43.1830 C   0  0  0  0  0  0  0  0  0  0  0  0
   37.8700   28.5950   44.2200 H   0  0  0  0  0  0  0  0  0  0  0  0
   36.7430   28.1120   42.9510 H   0  0  0  0  0  0  0  0  0  0  0  0
   38.4610   26.8490   43.1200 C   0  0  0  0  0  0  0  0  0  0  0  0
   39.6570   26.4510   43.6780 C   0  0  0  0  0  3  0  0  0  0  0  0
   40.0940   25.1390   43.5070 C   0  0  0  0  0  0  0  0  0  0  0  0
   41.0360   24.8780   43.9620 H   0  0  0  0  0  0  0  0  0  0  0  0
   39.3140   24.3180   42.7950 N   0  0  0  0  0  0  0  0  0  0  0  0
   38.1510   24.6630   42.2390 C   0  0  0  0  0  3  0  0  0  0  0  0
   37.7720   25.9290   42.4290 N   0  0  0  0  0  0  0  0  0  0  0  0
  1  6  1  0  0  0  0
  2  1  2  0  0  0  0
  2  3  1  0  0  0  0
  3  4  2  0  0  0  0
  4  5  1  0  0  0  0
  5  7  1  0  0  0  0
  6  5  2  0  0  0  0
  7 12  1  0  0  0  0
  8  7  1  0  0  0  0
  8  9  1  0  0  0  0
  9 19  1  0  0  0  0
  9 10  1  0  0  0  0
 10 20  1  0  0  0  0
 11 10  1  0  0  0  0
 11 21  1  0  0  0  0
 12 23  1  6  0  0  0
 12 11  1  0  0  0  0
 12 24  1  0  0  0  0
 13  1  1  0  0  0  0
 14  2  1  0  0  0  0
 15  3  1  0  0  0  0
 16  8  1  0  0  0  0
 17  8  1  0  0  0  0
 18  9  1  0  0  0  0
 22 11  1  0  0  0  0
 24 25  1  0  0  0  0
 24 27  1  0  0  0  0
 26 24  1  0  0  0  0
 28 27  2  0  0  0  0
 28 29  1  0  0  0  0
 29 30  1  0  0  0  0
 31 29  1  0  0  0  0
 32 29  1  0  0  0  0
 32 33  1  0  0  0  0
 34 33  2  0  0  0  0
 34 35  1  0  0  0  0
 36 34  1  0  0  0  0
 37 38  1  0  0  0  0
 37 36  2  0  0  0  0
 38 32  2  0  0  0  0
M  END
>  <minimizedAffinity>
-5.11718512

$$$$

 OpenBabel03242517293D

 38 40  0  0  1  0  0  0  0  0999 V2000
   38.9670   26.2740   38.2930 C   0  0  0  0  0  0  0  0  0  0  0  0
   40.3640   26.4100   38.5780 C   0  0  0  0  0  0  0  0  0  0  0  0
   40.7690   27.4910   39.3840 C   0  0  0  0  0  0  0  0  0  0  0  0
   39.8140   28.3410   39.8430 N   0  0  0  0  0  0  0  0  0  0  0  0
   38.5150   28.1990   39.5660 C   0  0  0  0  0  0  0  0  0  0  0  0
   38.1200   27.1640   38.7950 N   0  0  0  0  0  0  0  0  0  0  0  0
   37.5960   29.1170   40.0780 N   0  0  0  0  0  0  0  0  0  0  0  0
   37.7200   30.5100   39.7680 C   0  0  0  0  0  0  0  0  0  0  0  0
   36.9330   31.4040   40.6860 C   0  0  0  0  0  0  0  0  0  0  0  0
   35.7170   30.8770   41.2010 N   0  0  0  0  0  0  0  0  0  0  0  0
   35.3800   29.5910   40.6640 C   0  0  0  0  0  0  0  0  0  0  0  0
   36.5020   28.6360   40.9380 C   0  0  2  0  0  0  0  0  0  0  0  0
   38.6930   25.4460   37.6810 H   0  0  0  0  0  0  0  0  0  0  0  0
   41.0420   25.6770   38.1630 H   0  0  0  0  0  0  0  0  0  0  0  0
   41.8050   27.5990   39.6000 H   0  0  0  0  0  0  0  0  0  0  0  0
   38.7560   30.8890   39.7270 H   0  0  0  0  0  0  0  0  0  0  0  0
   37.2940   30.6390   38.7350 H   0  0  0  0  0  0  0  0  0  0  0  0
   36.7080   32.3330   40.1130 H   0  0  0  0  0  0  0  0  0  0  0  0
   37.6160   31.7160   41.5030 H   0  0  0  0  0  0  0  0  0  0  0  0
   35.6050   30.9430   42.2200 H   0  0  0  0  0  0  0  0  0  0  0  0
   34.4600   29.2170   41.1550 H   0  0  0  0  0  0  0  0  0  0  0  0
   35.2620   29.7130   39.5670 H   0  0  0  0  0  0  0  0  0  0  0  0
   36.1980   27.6120   40.6450 H   0  0  0  0  0  0  0  0  0  0  0  0
   36.8850   28.6070   42.3760 C   0  0  0  0  0  0  0  0  0  0  0  0
   36.0890   29.0980   42.9930 H   0  0  0  0  0  0  0  0  0  0  0  0
   37.8400   29.1070   42.5330 H   0  0  0  0  0  0  0  0  0  0  0  0
   36.8960   27.1670   42.8150 C   0  0  0  0  0  3  0  0  0  0  0  0
   36.9740   26.1840   41.9340 C   0  0  0  0  0  3  0  0  0  0  0  0
   36.9910   24.7360   42.2930 C   0  0  0  0  0  0  0  0  0  0  0  0
   37.8040   24.6070   43.0480 H   0  0  0  0  0  0  0  0  0  0  0  0
   36.0610   24.4480   42.8240 H   0  0  0  0  0  0  0  0  0  0  0  0
   37.2170   23.8660   41.1210 C   0  0  0  0  0  0  0  0  0  0  0  0
   38.3710   23.2010   40.7650 C   0  0  0  0  0  3  0  0  0  0  0  0
   38.3890   22.4200   39.6120 C   0  0  0  0  0  0  0  0  0  0  0  0
   39.3150   21.9210   39.3780 H   0  0  0  0  0  0  0  0  0  0  0  0
   37.2620   22.3560   38.8940 N   0  0  0  0  0  0  0  0  0  0  0  0
   36.1260   22.9830   39.2020 C   0  0  0  0  0  3  0  0  0  0  0  0
   36.1540   23.7190   40.3160 N   0  0  0  0  0  0  0  0  0  0  0  0
  1  2  2  0  0  0  0
  1  6  1  0  0  0  0
  2  3  1  0  0  0  0
  3 15  1  0  0  0  0
  3  4  2  0  0  0  0
  5  4  1  0  0  0  0
  5  7  1  0  0  0  0
  6  5  2  0  0  0  0
  7 12  1  0  0  0  0
  8  7  1  0  0  0  0
  8  9  1  0  0  0  0
  9 10  1  0  0  0  0
  9 19  1  0  0  0  0
 10 20  1  0  0  0  0
 11 12  1  0  0  0  0
 11 21  1  0  0  0  0
 11 10  1  0  0  0  0
 12 23  1  6  0  0  0
 12 24  1  0  0  0  0
 13  1  1  0  0  0  0
 14  2  1  0  0  0  0
 16  8  1  0  0  0  0
 17  8  1  0  0  0  0
 18  9  1  0  0  0  0
 22 11  1  0  0  0  0
 24 26  1  0  0  0  0
 24 27  1  0  0  0  0
 24 25  1  0  0  0  0
 28 29  1  0  0  0  0
 28 27  2  0  0  0  0
 29 31  1  0  0  0  0
 29 30  1  0  0  0  0
 32 29  1  0  0  0  0
 33 32  1  0  0  0  0
 34 33  2  0  0  0  0
 35 34  1  0  0  0  0
 36 37  2  0  0  0  0
 36 34  1  0  0  0  0
 37 38  1  0  0  0  0
 38 32  2  0  0  0  0
M  END
>  <minimizedAffinity>
-5.08637381

$$$$

 OpenBabel03242517293D

 38 40  0  0  1  0  0  0  0  0999 V2000
   38.4890   26.9550   37.7430 C   0  0  0  0  0  0  0  0  0  0  0  0
   37.3370   26.3430   37.1510 C   0  0  0  0  0  0  0  0  0  0  0  0
   36.1760   26.2250   37.9380 C   0  0  0  0  0  0  0  0  0  0  0  0
   36.2150   26.6970   39.2120 N   0  0  0  0  0  0  0  0  0  0  0  0
   37.2990   27.2640   39.7480 C   0  0  0  0  0  0  0  0  0  0  0  0
   38.4150   27.3820   38.9980 N   0  0  0  0  0  0  0  0  0  0  0  0
   37.2570   27.7240   41.0650 N   0  0  0  0  0  0  0  0  0  0  0  0
   36.9480   26.8220   42.1350 C   0  0  0  0  0  0  0  0  0  0  0  0
   36.5480   27.5120   43.4090 C   0  0  0  0  0  0  0  0  0  0  0  0
   37.1550   28.7710   43.6700 N   0  0  0  0  0  0  0  0  0  0  0  0
   38.1510   29.1350   42.7050 C   0  0  0  0  0  0  0  0  0  0  0  0
   37.5320   29.1440   41.3400 C   0  0  2  0  0  0  0  0  0  0  0  0
   39.3510   27.0300   37.1210 H   0  0  0  0  0  0  0  0  0  0  0  0
   37.4120   26.0010   36.1280 H   0  0  0  0  0  0  0  0  0  0  0  0
   35.3170   25.7710   37.5050 H   0  0  0  0  0  0  0  0  0  0  0  0
   36.1810   26.0650   41.8990 H   0  0  0  0  0  0  0  0  0  0  0  0
   37.8970   26.2560   42.3480 H   0  0  0  0  0  0  0  0  0  0  0  0
   36.7960   26.8140   44.2430 H   0  0  0  0  0  0  0  0  0  0  0  0
   35.4410   27.5900   43.4050 H   0  0  0  0  0  0  0  0  0  0  0  0
   36.5060   29.5320   43.9030 H   0  0  0  0  0  0  0  0  0  0  0  0
   38.5320   30.1500   42.9350 H   0  0  0  0  0  0  0  0  0  0  0  0
   38.9440   28.3600   42.7430 H   0  0  0  0  0  0  0  0  0  0  0  0
   38.2560   29.5500   40.6070 H   0  0  0  0  0  0  0  0  0  0  0  0
   36.3020   29.9800   41.2800 C   0  0  0  0  0  0  0  0  0  0  0  0
   36.1260   30.4730   42.2710 H   0  0  0  0  0  0  0  0  0  0  0  0
   35.4360   29.3770   41.0060 H   0  0  0  0  0  0  0  0  0  0  0  0
   36.5620   31.1060   40.3170 C   0  0  0  0  0  3  0  0  0  0  0  0
   37.3600   32.1110   40.6380 C   0  0  0  0  0  3  0  0  0  0  0  0
   37.6660   33.2600   39.7380 C   0  0  0  0  0  0  0  0  0  0  0  0
   37.0890   33.0860   38.7960 H   0  0  0  0  0  0  0  0  0  0  0  0
   37.2590   34.2060   40.1500 H   0  0  0  0  0  0  0  0  0  0  0  0
   39.1100   33.3880   39.4550 C   0  0  0  0  0  0  0  0  0  0  0  0
   39.9850   34.3490   39.9160 C   0  0  0  0  0  3  0  0  0  0  0  0
   41.3240   34.3000   39.5350 C   0  0  0  0  0  0  0  0  0  0  0  0
   41.9670   35.0740   39.9210 H   0  0  0  0  0  0  0  0  0  0  0  0
   41.6980   33.3030   38.7250 N   0  0  0  0  0  0  0  0  0  0  0  0
   40.8850   32.3550   38.2570 C   0  0  0  0  0  3  0  0  0  0  0  0
   39.6100   32.4410   38.6490 N   0  0  0  0  0  0  0  0  0  0  0  0
  1  6  1  0  0  0  0
  2  1  2  0  0  0  0
  2  3  1  0  0  0  0
  3  4  2  0  0  0  0
  4  5  1  0  0  0  0
  5  7  1  0  0  0  0
  6  5  2  0  0  0  0
  7 12  1  0  0  0  0
  7  8  1  0  0  0  0
  8 17  1  0  0  0  0
  8  9  1  0  0  0  0
  9 10  1  0  0  0  0
  9 18  1  0  0  0  0
 10 20  1  0  0  0  0
 11 22  1  0  0  0  0
 11 21  1  0  0  0  0
 11 10  1  0  0  0  0
 12 23  1  6  0  0  0
 12 11  1  0  0  0  0
 13  1  1  0  0  0  0
 14  2  1  0  0  0  0
 15  3  1  0  0  0  0
 16  8  1  0  0  0  0
 19  9  1  0  0  0  0
 24 12  1  0  0  0  0
 24 25  1  0  0  0  0
 26 24  1  0  0  0  0
 27 28  2  0  0  0  0
 27 24  1  0  0  0  0
 29 31  1  0  0  0  0
 29 28  1  0  0  0  0
 30 29  1  0  0  0  0
 32 29  1  0  0  0  0
 32 33  1  0  0  0  0
 34 33  2  0  0  0  0
 34 35  1  0  0  0  0
 36 34  1  0  0  0  0
 37 38  1  0  0  0  0
 37 36  2  0  0  0  0
 38 32  2  0  0  0  0
M  END
>  <minimizedAffinity>
-5.08060408

$$$$

 OpenBabel03242517293D

 38 40  0  0  1  0  0  0  0  0999 V2000
   37.8940   28.5970   38.4250 C   0  0  0  0  0  0  0  0  0  0  0  0
   36.5560   28.9020   38.0170 C   0  0  0  0  0  0  0  0  0  0  0  0
   35.5640   27.9240   38.2250 C   0  0  0  0  0  0  0  0  0  0  0  0
   35.9350   26.7500   38.8000 N   0  0  0  0  0  0  0  0  0  0  0  0
   37.1890   26.4820   39.1740 C   0  0  0  0  0  0  0  0  0  0  0  0
   38.1430   27.4160   38.9780 N   0  0  0  0  0  0  0  0  0  0  0  0
   37.4860   25.2500   39.7590 N   0  0  0  0  0  0  0  0  0  0  0  0
   37.2200   24.0330   39.0520 C   0  0  0  0  0  0  0  0  0  0  0  0
   37.2090   22.8150   39.9330 C   0  0  0  0  0  0  0  0  0  0  0  0
   38.0830   22.8300   41.0530 N   0  0  0  0  0  0  0  0  0  0  0  0
   38.9290   23.9870   41.1020 C   0  0  0  0  0  0  0  0  0  0  0  0
   38.0750   25.2190   41.1090 C   0  0  2  0  0  0  0  0  0  0  0  0
   38.6200   29.3580   38.2540 H   0  0  0  0  0  0  0  0  0  0  0  0
   36.3680   29.8680   37.5680 H   0  0  0  0  0  0  0  0  0  0  0  0
   34.5680   28.1430   37.9240 H   0  0  0  0  0  0  0  0  0  0  0  0
   36.2920   24.0330   38.4560 H   0  0  0  0  0  0  0  0  0  0  0  0
   38.0660   23.9060   38.3210 H   0  0  0  0  0  0  0  0  0  0  0  0
   37.4730   21.9470   39.2830 H   0  0  0  0  0  0  0  0  0  0  0  0
   36.1560   22.6450   40.2430 H   0  0  0  0  0  0  0  0  0  0  0  0
   37.6470   22.5970   41.9550 H   0  0  0  0  0  0  0  0  0  0  0  0
   39.5330   23.9620   42.0300 H   0  0  0  0  0  0  0  0  0  0  0  0
   39.5510   23.9770   40.1840 H   0  0  0  0  0  0  0  0  0  0  0  0
   38.7100   26.1090   41.2780 H   0  0  0  0  0  0  0  0  0  0  0  0
   37.0380   25.1850   42.1760 C   0  0  0  0  0  0  0  0  0  0  0  0
   37.3580   24.4940   42.9980 H   0  0  0  0  0  0  0  0  0  0  0  0
   36.0770   24.8650   41.7740 H   0  0  0  0  0  0  0  0  0  0  0  0
   36.9860   26.5520   42.8030 C   0  0  0  0  0  3  0  0  0  0  0  0
   37.9950   27.3990   42.6840 C   0  0  0  0  0  3  0  0  0  0  0  0
   38.0160   28.7680   43.2770 C   0  0  0  0  0  0  0  0  0  0  0  0
   37.1600   28.8150   43.9930 H   0  0  0  0  0  0  0  0  0  0  0  0
   38.9190   28.9150   43.9020 H   0  0  0  0  0  0  0  0  0  0  0  0
   37.9060   29.8280   42.2540 C   0  0  0  0  0  0  0  0  0  0  0  0
   38.9160   30.5870   41.7030 C   0  0  0  0  0  3  0  0  0  0  0  0
   38.6100   31.5470   40.7420 C   0  0  0  0  0  0  0  0  0  0  0  0
   39.4350   32.1140   40.3430 H   0  0  0  0  0  0  0  0  0  0  0  0
   37.3250   31.6860   40.3960 N   0  0  0  0  0  0  0  0  0  0  0  0
   36.3180   30.9730   40.9040 C   0  0  0  0  0  3  0  0  0  0  0  0
   36.6580   30.0640   41.8220 N   0  0  0  0  0  0  0  0  0  0  0  0
  1  6  1  0  0  0  0
  2  3  1  0  0  0  0
  2  1  2  0  0  0  0
  3  4  2  0  0  0  0
  4  5  1  0  0  0  0
  5  7  1  0  0  0  0
  6  5  2  0  0  0  0
  7 12  1  0  0  0  0
  8  7  1  0  0  0  0
  8  9  1  0  0  0  0
  9 19  1  0  0  0  0
  9 10  1  0  0  0  0
 10 11  1  0  0  0  0
 10 20  1  0  0  0  0
 11 12  1  0  0  0  0
 11 21  1  0  0  0  0
 12 23  1  1  0  0  0
 12 24  1  0  0  0  0
 13  1  1  0  0  0  0
 14  2  1  0  0  0  0
 15  3  1  0  0  0  0
 16  8  1  0  0  0  0
 17  8  1  0  0  0  0
 18  9  1  0  0  0  0
 22 11  1  0  0  0  0
 24 27  1  0  0  0  0
 24 25  1  0  0  0  0
 26 24  1  0  0  0  0
 28 27  2  0  0  0  0
 28 29  1  0  0  0  0
 29 31  1  0  0  0  0
 29 30  1  0  0  0  0
 32 29  1  0  0  0  0
 33 32  2  0  0  0  0
 34 33  1  0  0  0  0
 35 34  1  0  0  0  0
 36 34  2  0  0  0  0
 36 37  1  0  0  0  0
 37 38  2  0  0  0  0
 38 32  1  0  0  0  0
M  END
>  <minimizedAffinity>
-5.07850599

$$$$

 OpenBabel03242517293D

 38 40  0  0  1  0  0  0  0  0999 V2000
   38.9480   27.3640   41.7400 C   0  0  0  0  0  0  0  0  0  0  0  0
   38.1070   27.3670   42.8990 C   0  0  0  0  0  0  0  0  0  0  0  0
   37.5080   28.5840   43.2750 C   0  0  0  0  0  0  0  0  0  0  0  0
   37.7630   29.6840   42.5180 N   0  0  0  0  0  0  0  0  0  0  0  0
   38.5510   29.6630   41.4400 C   0  0  0  0  0  0  0  0  0  0  0  0
   39.1270   28.4980   41.0740 N   0  0  0  0  0  0  0  0  0  0  0  0
   38.7610   30.8370   40.7160 N   0  0  0  0  0  0  0  0  0  0  0  0
   39.3240   31.9890   41.3570 C   0  0  0  0  0  0  0  0  0  0  0  0
   39.1210   33.2650   40.5890 C   0  0  0  0  0  0  0  0  0  0  0  0
   39.0970   33.1590   39.1720 N   0  0  0  0  0  0  0  0  0  0  0  0
   39.3820   31.8380   38.6930 C   0  0  0  0  0  0  0  0  0  0  0  0
   38.3990   30.8770   39.2900 C   0  0  2  0  0  0  0  0  0  0  0  0
   39.3850   26.4270   41.4810 H   0  0  0  0  0  0  0  0  0  0  0  0
   37.9700   26.4360   43.4310 H   0  0  0  0  0  0  0  0  0  0  0  0
   36.8820   28.5950   44.1360 H   0  0  0  0  0  0  0  0  0  0  0  0
   38.9870   32.1560   42.3950 H   0  0  0  0  0  0  0  0  0  0  0  0
   40.4320   31.8060   41.4090 H   0  0  0  0  0  0  0  0  0  0  0  0
   39.9490   33.9520   40.8840 H   0  0  0  0  0  0  0  0  0  0  0  0
   38.1920   33.7350   40.9750 H   0  0  0  0  0  0  0  0  0  0  0  0
   38.2920   33.6020   38.7110 H   0  0  0  0  0  0  0  0  0  0  0  0
   39.2830   31.8170   37.5900 H   0  0  0  0  0  0  0  0  0  0  0  0
   40.4050   31.5780   39.0370 H   0  0  0  0  0  0  0  0  0  0  0  0
   38.5270   29.8800   38.8270 H   0  0  0  0  0  0  0  0  0  0  0  0
   36.9890   31.3030   39.0770 C   0  0  0  0  0  0  0  0  0  0  0  0
   36.9590   32.2180   38.4310 H   0  0  0  0  0  0  0  0  0  0  0  0
   36.4960   31.5030   40.0280 H   0  0  0  0  0  0  0  0  0  0  0  0
   36.3040   30.2280   38.2760 C   0  0  0  0  0  3  0  0  0  0  0  0
   35.5390   29.3220   38.8610 C   0  0  0  0  0  3  0  0  0  0  0  0
   34.8290   28.2280   38.1340 C   0  0  0  0  0  0  0  0  0  0  0  0
   35.6210   27.6020   37.6550 H   0  0  0  0  0  0  0  0  0  0  0  0
   34.3180   27.5480   38.8440 H   0  0  0  0  0  0  0  0  0  0  0  0
   33.8820   28.7430   37.1240 C   0  0  0  0  0  0  0  0  0  0  0  0
   34.0590   28.8330   35.7600 C   0  0  0  0  0  3  0  0  0  0  0  0
   33.0390   29.3520   34.9660 C   0  0  0  0  0  0  0  0  0  0  0  0
   33.2270   29.4010   33.9060 H   0  0  0  0  0  0  0  0  0  0  0  0
   31.9180   29.7440   35.5810 N   0  0  0  0  0  0  0  0  0  0  0  0
   31.7070   29.6750   36.8970 C   0  0  0  0  0  3  0  0  0  0  0  0
   32.7110   29.1710   37.6180 N   0  0  0  0  0  0  0  0  0  0  0  0
  1  2  1  0  0  0  0
  2  3  2  0  0  0  0
  2 14  1  0  0  0  0
  3 15  1  0  0  0  0
  4  3  1  0  0  0  0
  5  4  2  0  0  0  0
  6  5  1  0  0  0  0
  6  1  2  0  0  0  0
  7  8  1  0  0  0  0
  7  5  1  0  0  0  0
  8 17  1  0  0  0  0
  8 16  1  0  0  0  0
  9 18  1  0  0  0  0
  9 19  1  0  0  0  0
  9  8  1  0  0  0  0
 10  9  1  0  0  0  0
 11 22  1  0  0  0  0
 11 10  1  0  0  0  0
 11 12  1  0  0  0  0
 12 23  1  6  0  0  0
 12  7  1  0  0  0  0
 13  1  1  0  0  0  0
 20 10  1  0  0  0  0
 21 11  1  0  0  0  0
 24 12  1  0  0  0  0
 24 26  1  0  0  0  0
 25 24  1  0  0  0  0
 27 28  2  0  0  0  0
 27 24  1  0  0  0  0
 29 31  1  0  0  0  0
 29 28  1  0  0  0  0
 30 29  1  0  0  0  0
 32 38  1  0  0  0  0
 32 29  1  0  0  0  0
 33 32  2  0  0  0  0
 34 36  2  0  0  0  0
 34 33  1  0  0  0  0
 35 34  1  0  0  0  0
 36 37  1  0  0  0  0
 37 38  2  0  0  0  0
M  END
>  <minimizedAffinity>
-4.98615932

$$$$
