
     RDKit          3D

 31 34  0  0  0  0  0  0  0  0999 V2000
   47.2229   31.3666   45.0861 C   0  0  0  0  0  0  0  0  0  0  0  0
   46.8879   32.7019   45.0946 C   0  0  0  0  0  0  0  0  0  0  0  0
   46.2899   33.3071   46.1802 C   0  0  0  0  0  0  0  0  0  0  0  0
   45.9989   32.5740   47.3273 C   0  0  0  0  0  0  0  0  0  0  0  0
   45.4402   32.8136   48.5379 N   0  0  0  0  0  0  0  0  0  0  0  0
   45.4301   31.6588   49.2575 C   0  0  0  0  0  0  0  0  0  0  0  0
   45.9915   30.7073   48.4690 N   0  0  0  0  0  0  0  0  0  0  0  0
   46.3459   31.2377   47.2901 C   0  0  0  0  0  0  0  0  0  0  0  0
   46.9452   30.5944   46.2243 C   0  0  0  0  0  0  0  0  0  0  0  0
   46.5152   35.2028   42.4237 C   0  0  0  0  0  0  0  0  0  0  0  0
   47.7063   35.0624   41.7096 C   0  0  0  0  0  0  0  0  0  0  0  0
   48.6403   34.1047   42.1482 C   0  0  0  0  0  0  0  0  0  0  0  0
   48.3158   33.3663   43.2578 N   0  0  0  0  0  0  0  0  0  0  0  0
   47.1662   33.5185   43.9274 C   0  0  0  0  0  0  0  0  0  0  0  0
   46.2687   34.4358   43.5093 N   0  0  0  0  0  0  0  0  0  0  0  0
   47.6937   30.9068   44.2211 H   0  0  0  0  0  0  0  0  0  0  0  0
   45.1058   33.7841   48.7642 H   0  0  0  0  0  0  0  0  0  0  0  0
   45.0150   31.6979   50.2406 H   0  0  0  0  0  0  0  0  0  0  0  0
   47.1867   29.5392   46.2733 H   0  0  0  0  0  0  0  0  0  0  0  0
   45.7708   35.9391   42.1059 H   0  0  0  0  0  0  0  0  0  0  0  0
   47.9231   35.6656   40.8390 H   0  0  0  0  0  0  0  0  0  0  0  0
   49.5809   33.9552   41.6299 H   0  0  0  0  0  0  0  0  0  0  0  0
   45.9407   34.7235   46.1739 C   0  0  0  0  0  0  0  0  0  0  0  0
   46.4192   35.6691   45.2869 C   0  0  0  0  0  0  0  0  0  0  0  0
   45.9651   36.9603   45.4495 C   0  0  0  0  0  0  0  0  0  0  0  0
   46.3386   37.6948   44.7584 H   0  0  0  0  0  0  0  0  0  0  0  0
   45.0971   37.3009   46.4205 N   0  0  0  0  0  0  0  0  0  0  0  0
   44.6434   36.3682   47.2728 C   0  0  0  0  0  0  0  0  0  0  0  0
   45.0633   35.0760   47.1528 N   0  0  0  0  0  0  0  0  0  0  0  0
   47.1089   35.3093   44.5431 H   0  0  0  0  0  0  0  0  0  0  0  0
   43.9460   36.6383   48.0539 H   0  0  0  0  0  0  0  0  0  0  0  0
  1  2  2  0
  1  9  1  0
  2  3  1  0
  3  4  2  0
  4  5  1  0
  5  6  1  0
  7  6  2  0
  8  4  1  0
  8  7  1  0
  9  8  2  0
 10 15  2  0
 11 12  2  0
 11 10  1  0
 12 13  1  0
 13 14  2  0
 14  2  1  0
 15 14  1  0
  1 16  1  0
  5 17  1  0
  6 18  1  0
  9 19  1  0
 10 20  1  0
 11 21  1  0
 12 22  1  0
 23 24  2  0
 24 25  1  0
 25 26  1  0
 25 27  2  0
 27 28  1  0
 28 29  2  0
 29 23  1  0
 24 30  1  0
 28 31  1  0
  3 23  1  0
M  ISO  8  16  14  17   9  18  14  19  14  20  14  21  14  22  14  26  14
M  END
>  <DihAtoms>  (1) 
1,2,22,23

>  <DihDeg>  (1) 
118.78465359089537

$$$$
