REMARK  Name = 
REMARK  4 active torsions:
REMARK  status: ('A' for Active; 'I' for Inactive)
REMARK    1  A    between atoms: C_1  and  C_10
REMARK    2  A    between atoms: C_8  and  C_21
REMARK    3  A    between atoms: C_11  and  C_15
REMARK    4  A    between atoms: C_21  and  C_39
REMARK                            x       y       z     vdW  Elec       q    Type
REMARK                         _______ _______ _______ _____ _____    ______ ____
ROOT
ATOM      1  C   UNL     1      47.325  33.627  42.839  0.00  0.00    +0.000 C 
ATOM      2  O   UNL     1      48.413  33.416  43.447  0.00  0.00    +0.000 OA
ATOM      3  N   UNL     1      47.035  33.119  41.548  0.00  0.00    +0.000 N 
ATOM      4  C   UNL     1      45.807  32.496  41.026  0.00  0.00    +0.000 C 
ATOM      5  C   UNL     1      45.385  33.206  39.745  0.00  0.00    +0.000 C 
ATOM      6  C   UNL     1      46.413  33.011  38.683  0.00  0.00    +0.000 C 
ATOM      7  C   UNL     1      47.693  32.480  39.300  0.00  0.00    +0.000 C 
ATOM      8  C   UNL     1      48.064  33.185  40.553  0.00  0.00    +0.000 C 
ATOM      9  H   UNL     1      44.999  32.661  41.775  0.00  0.00    +0.000 HD
ATOM     10  H   UNL     1      45.982  31.436  40.777  0.00  0.00    +0.000 HD
ATOM     11  H   UNL     1      45.259  34.281  39.977  0.00  0.00    +0.000 HD
ATOM     12  H   UNL     1      44.392  32.793  39.485  0.00  0.00    +0.000 HD
ATOM     13  H   UNL     1      46.597  33.890  38.040  0.00  0.00    +0.000 HD
ATOM     14  H   UNL     1      46.047  32.206  38.008  0.00  0.00    +0.000 HD
ATOM     15  H   UNL     1      48.495  32.702  38.540  0.00  0.00    +0.000 HD
ATOM     16  H   UNL     1      47.674  31.394  39.428  0.00  0.00    +0.000 HD
ATOM     17  H   UNL     1      48.142  34.284  40.283  0.00  0.00    +0.000 HD
ENDROOT
BRANCH   1  19
ATOM     18  C   UNL     1      45.971  35.660  42.918  0.00  0.00    +0.000 A 
ATOM     19  C   UNL     1      46.334  34.430  43.513  0.00  0.00    +0.000 A 
ATOM     20  C   UNL     1      45.743  34.026  44.702  0.00  0.00    +0.000 A 
ATOM     21  N   UNL     1      44.822  34.852  45.252  0.00  0.00    +0.000 NA
ATOM     22  C   UNL     1      44.459  36.039  44.695  0.00  0.00    +0.000 A 
ATOM     23  N   UNL     1      45.044  36.420  43.536  0.00  0.00    +0.000 NA
ATOM     24  H   UNL     1      46.456  35.936  41.993  0.00  0.00    +0.000 HD
ATOM     25  H   UNL     1      43.716  36.654  45.185  0.00  0.00    +0.000 HD
BRANCH  20  26
ATOM     26  C   UNL     1      46.143  32.769  45.281  0.00  0.00    +0.000 A 
ATOM     27  C   UNL     1      45.775  31.596  44.716  0.00  0.00    +0.000 A 
ATOM     28  C   UNL     1      46.177  30.409  45.296  0.00  0.00    +0.000 A 
ATOM     29  C   UNL     1      46.954  30.361  46.449  0.00  0.00    +0.000 A 
ATOM     30  C   UNL     1      47.304  31.587  46.987  0.00  0.00    +0.000 A 
ATOM     31  N   UNL     1      46.899  32.721  46.403  0.00  0.00    +0.000 NA
ATOM     32  H   UNL     1      45.174  31.484  43.827  0.00  0.00    +0.000 HD
ATOM     33  H   UNL     1      45.907  29.448  44.879  0.00  0.00    +0.000 HD
ATOM     34  H   UNL     1      47.272  29.434  46.907  0.00  0.00    +0.000 HD
ATOM     35  H   UNL     1      47.908  31.619  47.885  0.00  0.00    +0.000 HD
ENDBRANCH  20  26
ENDBRANCH   1  19
BRANCH   8  36
ATOM     36  C   UNL     1      49.423  32.790  41.015  0.00  0.00    +0.000 C 
ATOM     37  H   UNL     1      49.840  33.270  41.892  0.00  0.00    +0.000 HD
ATOM     38  H   UNL     1      49.405  31.712  41.276  0.00  0.00    +0.000 HD
BRANCH  36  39
ATOM     39  C   UNL     1      50.426  32.867  39.869  0.00  0.00    +0.000 A 
ATOM     40  C   UNL     1      51.677  32.282  39.965  0.00  0.00    +0.000 A 
ATOM     41  C   UNL     1      52.569  32.380  38.906  0.00  0.00    +0.000 A 
ATOM     42  H   UNL     1      53.560  31.920  38.977  0.00  0.00    +0.000 HD
ATOM     43  N   UNL     1      52.209  33.043  37.792  0.00  0.00    +0.000 NA
ATOM     44  C   UNL     1      50.984  33.597  37.736  0.00  0.00    +0.000 A 
ATOM     45  N   UNL     1      50.092  33.525  38.741  0.00  0.00    +0.000 NA
ENDBRANCH  36  39
ENDBRANCH   8  36
TORSDOF 4
