
 OpenBabel03252508543D

 41 44  0  0  1  0  0  0  0  0999 V2000
   43.2050   34.3390   40.6100 C   0  0  0  0  0  0  0  0  0  0  0  0
   43.1860   35.4860   40.0500 O   0  0  0  0  0  0  0  0  0  0  0  0
   41.8140   33.9570   40.4360 N   0  0  0  0  0  0  0  0  0  0  0  0
   41.3760   33.8700   39.0640 C   0  0  0  0  0  0  0  0  0  0  0  0
   40.6280   35.1950   38.8020 C   0  0  0  0  0  0  0  0  0  0  0  0
   39.9110   35.5480   40.1170 C   0  0  0  0  0  0  0  0  0  0  0  0
   39.5340   34.2950   40.8770 C   0  0  0  0  0  0  0  0  0  0  0  0
   40.8110   33.6540   41.4400 C   0  0  1  0  0  0  0  0  0  0  0  0
   42.1930   33.8440   38.3250 H   0  0  0  0  0  0  0  0  0  0  0  0
   40.6410   33.0480   38.9130 H   0  0  0  0  0  0  0  0  0  0  0  0
   39.8730   35.0440   37.9850 H   0  0  0  0  0  0  0  0  0  0  0  0
   41.3400   35.9980   38.5600 H   0  0  0  0  0  0  0  0  0  0  0  0
   40.5840   36.2020   40.7150 H   0  0  0  0  0  0  0  0  0  0  0  0
   38.9920   36.0630   39.8090 H   0  0  0  0  0  0  0  0  0  0  0  0
   38.8370   34.6050   41.6770 H   0  0  0  0  0  0  0  0  0  0  0  0
   39.0400   33.6340   40.1510 H   0  0  0  0  0  0  0  0  0  0  0  0
   41.0980   34.2250   42.3440 H   0  0  0  0  0  0  0  0  0  0  0  0
   40.6170   32.2070   41.6700 C   0  0  0  0  0  0  0  0  0  0  0  0
   39.4630   31.4900   41.4550 C   0  0  0  0  0  3  0  0  0  0  0  0
   39.3500   30.1450   41.6900 C   0  0  0  0  0  0  0  0  0  0  0  0
   38.3740   29.6800   41.4790 H   0  0  0  0  0  0  0  0  0  0  0  0
   40.4160   29.4740   42.1570 N   0  0  0  0  0  0  0  0  0  0  0  0
   41.5730   30.1540   42.3810 C   0  0  0  0  0  3  0  0  0  0  0  0
   41.6730   31.4870   42.1440 N   0  0  0  0  0  0  0  0  0  0  0  0
   44.2740   33.7270   41.1820 O   0  0  0  0  0  0  0  0  0  0  0  0
   45.6050   34.0020   40.9790 C   0  0  0  0  0  0  0  0  0  0  0  0
   46.2950   34.6180   42.0260 C   0  0  0  0  0  0  0  0  0  0  0  0
   47.6550   34.8960   41.8110 C   0  0  0  0  0  0  0  0  0  0  0  0
   48.2050   34.5500   40.6040 N   0  0  0  0  0  0  0  0  0  0  0  0
   47.4960   33.9670   39.6480 C   0  0  0  0  0  0  0  0  0  0  0  0
   46.1960   33.6900   39.8290 N   0  0  0  0  0  0  0  0  0  0  0  0
   48.2110   35.3740   42.6100 H   0  0  0  0  0  0  0  0  0  0  0  0
   48.0280   33.7300   38.7240 H   0  0  0  0  0  0  0  0  0  0  0  0
   45.6140   34.9430   43.2660 C   0  0  0  0  0  0  0  0  0  0  0  0
   45.0160   36.1900   43.4870 C   0  0  0  0  0  0  0  0  0  0  0  0
   44.4980   36.0810   44.7550 C   0  0  0  0  0  0  0  0  0  0  0  0
   44.7590   34.8670   45.2620 N   0  0  0  0  0  0  0  0  0  0  0  0
   45.4330   34.1970   44.3490 N   0  0  0  0  0  0  0  0  0  0  0  0
   44.9350   37.0750   42.8670 H   0  0  0  0  0  0  0  0  0  0  0  0
   43.9380   36.7910   45.3710 H   0  0  0  0  0  0  0  0  0  0  0  0
   44.5750   34.3480   46.1470 H   0  0  0  0  0  0  0  0  0  0  0  0
  1 25  1  0  0  0  0
  2  1  2  0  0  0  0
  3  1  1  0  0  0  0
  3  8  1  0  0  0  0
  4  3  1  0  0  0  0
  5  4  1  0  0  0  0
  5  6  1  0  0  0  0
  6 13  1  0  0  0  0
  6  7  1  0  0  0  0
  7  8  1  0  0  0  0
  7 15  1  0  0  0  0
  8 18  1  0  0  0  0
  8 17  1  1  0  0  0
  9  4  1  0  0  0  0
 10  4  1  0  0  0  0
 11  5  1  0  0  0  0
 12  5  1  0  0  0  0
 14  6  1  0  0  0  0
 16  7  1  0  0  0  0
 18 24  1  0  0  0  0
 19 18  2  0  0  0  0
 19 20  1  0  0  0  0
 20 22  2  0  0  0  0
 21 20  1  0  0  0  0
 22 23  1  0  0  0  0
 24 23  2  0  0  0  0
 26 25  1  0  0  0  0
 26 27  1  0  0  0  0
 27 34  1  0  0  0  0
 28 27  2  0  0  0  0
 28 32  1  0  0  0  0
 29 28  1  0  0  0  0
 30 31  1  0  0  0  0
 30 29  2  0  0  0  0
 31 26  2  0  0  0  0
 33 30  1  0  0  0  0
 34 35  1  0  0  0  0
 34 38  2  0  0  0  0
 35 36  2  0  0  0  0
 36 37  1  0  0  0  0
 36 40  1  0  0  0  0
 37 41  1  0  0  0  0
 38 37  1  0  0  0  0
 39 35  1  0  0  0  0
M  END
>  <minimizedAffinity>
-6.71051836

>  <minimizedRMSD>
0.758517802

$$$$
