
 OpenBabel03242517283D

 38 40  0  0  1  0  0  0  0  0999 V2000
   44.9850   34.6990   44.9790 C   0  0  0  0  0  0  0  0  0  0  0  0
   45.8780   34.6200   43.8620 C   0  0  0  0  0  0  0  0  0  0  0  0
   46.9700   33.7360   43.9540 C   0  0  0  0  0  0  0  0  0  0  0  0
   47.1140   33.0120   45.0950 N   0  0  0  0  0  0  0  0  0  0  0  0
   46.2710   33.0990   46.1270 C   0  0  0  0  0  0  0  0  0  0  0  0
   45.2210   33.9440   46.0450 N   0  0  0  0  0  0  0  0  0  0  0  0
   46.4890   32.3190   47.2640 N   0  0  0  0  0  0  0  0  0  0  0  0
   47.7170   32.4350   47.9930 C   0  0  0  0  0  0  0  0  0  0  0  0
   47.9760   31.2820   48.9230 C   0  0  0  0  0  0  0  0  0  0  0  0
   46.8370   30.6670   49.5090 N   0  0  0  0  0  0  0  0  0  0  0  0
   45.6050   31.3290   49.1920 C   0  0  0  0  0  0  0  0  0  0  0  0
   45.4440   31.3800   47.7030 C   0  0  2  0  0  0  0  0  0  0  0  0
   44.1690   35.3760   44.8780 H   0  0  0  0  0  0  0  0  0  0  0  0
   45.6730   35.2400   43.0010 H   0  0  0  0  0  0  0  0  0  0  0  0
   47.6390   33.6720   43.1290 H   0  0  0  0  0  0  0  0  0  0  0  0
   48.6170   32.5820   47.3710 H   0  0  0  0  0  0  0  0  0  0  0  0
   47.6170   33.3580   48.6280 H   0  0  0  0  0  0  0  0  0  0  0  0
   48.6340   31.6690   49.7370 H   0  0  0  0  0  0  0  0  0  0  0  0
   48.5930   30.5450   48.3670 H   0  0  0  0  0  0  0  0  0  0  0  0
   46.7930   29.6450   49.4180 H   0  0  0  0  0  0  0  0  0  0  0  0
   44.7590   30.7610   49.6270 H   0  0  0  0  0  0  0  0  0  0  0  0
   45.6760   32.3630   49.5890 H   0  0  0  0  0  0  0  0  0  0  0  0
   44.4390   31.7700   47.4510 H   0  0  0  0  0  0  0  0  0  0  0  0
   45.5880   30.0400   47.0700 C   0  0  0  0  0  0  0  0  0  0  0  0
   46.6680   29.7420   47.0480 H   0  0  0  0  0  0  0  0  0  0  0  0
   45.1810   30.0420   46.0600 H   0  0  0  0  0  0  0  0  0  0  0  0
   44.9170   29.0370   47.9700 C   0  0  0  0  0  0  0  0  0  0  0  0
   45.0930   27.7380   47.7980 C   0  0  0  0  0  0  0  0  0  0  0  0
   44.4630   26.6860   48.6480 C   0  0  0  0  0  0  0  0  0  0  0  0
   44.0310   27.2130   49.5340 H   0  0  0  0  0  0  0  0  0  0  0  0
   43.5930   26.2300   48.1350 H   0  0  0  0  0  0  0  0  0  0  0  0
   45.4270   25.6490   49.0710 C   0  0  0  0  0  0  0  0  0  0  0  0
   46.5870   25.2570   48.4380 C   0  0  0  0  0  0  0  0  0  0  0  0
   47.3710   24.2520   48.9970 C   0  0  0  0  0  0  0  0  0  0  0  0
   48.2680   23.9820   48.4640 H   0  0  0  0  0  0  0  0  0  0  0  0
   46.9490   23.7070   50.1440 N   0  0  0  0  0  0  0  0  0  0  0  0
   45.8340   24.0560   50.7880 C   0  0  0  0  0  0  0  0  0  0  0  0
   45.1140   25.0240   50.2150 N   0  0  0  0  0  0  0  0  0  0  0  0
  1  6  1  0  0  0  0
  2  3  1  0  0  0  0
  2  1  2  0  0  0  0
  3  4  2  0  0  0  0
  4  5  1  0  0  0  0
  5  7  1  0  0  0  0
  6  5  2  0  0  0  0
  7 12  1  0  0  0  0
  7  8  1  0  0  0  0
  8 17  1  0  0  0  0
  8  9  1  0  0  0  0
  9 10  1  0  0  0  0
  9 18  1  0  0  0  0
 11 10  1  0  0  0  0
 11 22  1  0  0  0  0
 11 21  1  0  0  0  0
 12 23  1  6  0  0  0
 12 11  1  0  0  0  0
 13  1  1  0  0  0  0
 14  2  1  0  0  0  0
 15  3  1  0  0  0  0
 16  8  1  0  0  0  0
 19  9  1  0  0  0  0
 20 10  1  0  0  0  0
 24 12  1  0  0  0  0
 24 27  1  0  0  0  0
 25 24  1  0  0  0  0
 26 24  1  0  0  0  0
 28 27  2  0  0  0  0
 28 29  1  0  0  0  0
 29 32  1  0  0  0  0
 29 30  1  0  0  0  0
 31 29  1  0  0  0  0
 32 38  1  0  0  0  0
 33 34  1  0  0  0  0
 33 32  2  0  0  0  0
 34 36  2  0  0  0  0
 35 34  1  0  0  0  0
 36 37  1  0  0  0  0
 38 37  2  0  0  0  0
M  END
>  <minimizedAffinity>
-5.77657986

>  <minimizedRMSD>
0.697184384

$$$$
