
 OpenBabel03242514183D

 39 41  0  0  0  0  0  0  0  0999 V2000
   38.0560   27.6390   41.9630 C   0  0  0  0  0  0  0  0  0  0  0  0
   37.6590   28.9620   41.9790 C   0  0  0  0  0  0  0  0  0  0  0  0
   38.5690   29.8720   42.4340 C   0  0  0  0  0  0  0  0  0  0  0  0
   39.7990   29.4430   42.8410 N   0  0  0  0  0  0  0  0  0  0  0  0
   40.1690   28.1580   42.8190 C   0  0  0  0  0  0  0  0  0  0  0  0
   39.2920   27.2810   42.3820 N   0  0  0  0  0  0  0  0  0  0  0  0
   38.5580   30.9360   42.5640 H   0  0  0  0  0  0  0  0  0  0  0  0
   41.1300   27.7750   43.1320 H   0  0  0  0  0  0  0  0  0  0  0  0
   37.0430   26.6780   41.5020 C   0  0  0  0  0  0  0  0  0  0  0  0
   36.9220   25.4590   42.2800 C   0  0  0  0  0  0  0  0  0  0  0  0
   37.3090   24.2470   41.5550 C   0  0  0  0  0  0  0  0  0  0  0  0
   36.4910   24.0890   40.2760 C   0  0  0  0  0  0  0  0  0  0  0  0
   36.3680   25.3570   39.5040 C   0  0  0  0  0  0  0  0  0  0  0  0
   37.2980   26.4360   40.0190 C   0  0  0  0  0  0  0  0  0  0  0  0
   36.0320   27.1690   41.4540 H   0  0  0  0  0  0  0  0  0  0  0  0
   35.9020   25.2690   42.7280 H   0  0  0  0  0  0  0  0  0  0  0  0
   37.5820   25.5380   43.1780 H   0  0  0  0  0  0  0  0  0  0  0  0
   38.3940   24.1910   41.3700 H   0  0  0  0  0  0  0  0  0  0  0  0
   37.0530   23.3600   42.1870 H   0  0  0  0  0  0  0  0  0  0  0  0
   35.5060   23.6480   40.5410 H   0  0  0  0  0  0  0  0  0  0  0  0
   37.0130   23.2720   39.7000 H   0  0  0  0  0  0  0  0  0  0  0  0
   35.3210   25.7090   39.4170 H   0  0  0  0  0  0  0  0  0  0  0  0
   36.6980   25.1490   38.4600 H   0  0  0  0  0  0  0  0  0  0  0  0
   38.3330   26.0620   39.9200 H   0  0  0  0  0  0  0  0  0  0  0  0
   37.1940   27.3480   39.4340 H   0  0  0  0  0  0  0  0  0  0  0  0
   36.5500   29.5750   41.6380 O   0  0  0  0  0  0  0  0  0  0  0  0
   36.2100   30.7100   40.9660 C   0  0  0  0  0  0  0  0  0  0  0  0
   36.4150   31.6070   41.5770 H   0  0  0  0  0  0  0  0  0  0  0  0
   35.0980   30.7160   40.8270 H   0  0  0  0  0  0  0  0  0  0  0  0
   36.7940   30.8480   39.5790 C   0  0  0  0  0  0  0  0  0  0  0  0
   37.0180   29.8510   39.1470 H   0  0  0  0  0  0  0  0  0  0  0  0
   35.9600   31.2400   38.9460 H   0  0  0  0  0  0  0  0  0  0  0  0
   37.9120   31.7950   39.4980 C   0  0  0  0  0  0  0  0  0  0  0  0
   37.6840   33.0040   40.1360 C   0  0  0  0  0  3  0  0  0  0  0  0
   38.6870   33.9710   40.1160 C   0  0  0  0  0  0  0  0  0  0  0  0
   38.5150   34.9210   40.6140 H   0  0  0  0  0  0  0  0  0  0  0  0
   39.8640   33.7550   39.4930 N   0  0  0  0  0  0  0  0  0  0  0  0
   40.0590   32.5550   38.8730 C   0  0  0  0  0  3  0  0  0  0  0  0
   39.1060   31.6030   38.8770 N   0  0  0  0  0  0  0  0  0  0  0  0
  1  2  2  0  0  0  0
  1  6  1  0  0  0  0
  2  3  1  0  0  0  0
  3  7  1  0  0  0  0
  3  4  2  0  0  0  0
  5  4  1  0  0  0  0
  5  8  1  0  0  0  0
  6  5  2  0  0  0  0
  9  1  1  0  0  0  0
  9 10  1  0  0  0  0
 10 16  1  0  0  0  0
 10 17  1  0  0  0  0
 11 19  1  0  0  0  0
 11 10  1  0  0  0  0
 12 20  1  0  0  0  0
 12 11  1  0  0  0  0
 13 14  1  0  0  0  0
 13 12  1  0  0  0  0
 14  9  1  0  0  0  0
 15  9  1  0  0  0  0
 18 11  1  0  0  0  0
 21 12  1  0  0  0  0
 22 13  1  0  0  0  0
 23 13  1  0  0  0  0
 24 14  1  0  0  0  0
 25 14  1  0  0  0  0
 26  2  1  0  0  0  0
 27 28  1  0  0  0  0
 27 26  1  0  0  0  0
 29 27  1  0  0  0  0
 30 27  1  0  0  0  0
 31 30  1  0  0  0  0
 32 30  1  0  0  0  0
 33 30  1  0  0  0  0
 33 34  1  0  0  0  0
 35 34  2  0  0  0  0
 35 36  1  0  0  0  0
 37 35  1  0  0  0  0
 38 39  1  0  0  0  0
 38 37  2  0  0  0  0
 39 33  2  0  0  0  0
M  END
>  <minimizedAffinity>
-5.16277218

$$$$

 OpenBabel03242514183D

 39 41  0  0  0  0  0  0  0  0999 V2000
   37.8170   31.6830   39.9610 C   0  0  0  0  0  0  0  0  0  0  0  0
   39.1310   31.7150   40.3860 C   0  0  0  0  0  0  0  0  0  0  0  0
   39.7120   32.9460   40.4940 C   0  0  0  0  0  0  0  0  0  0  0  0
   38.9850   34.0580   40.1860 N   0  0  0  0  0  0  0  0  0  0  0  0
   37.7130   34.0110   39.7770 C   0  0  0  0  0  0  0  0  0  0  0  0
   37.1530   32.8250   39.6710 N   0  0  0  0  0  0  0  0  0  0  0  0
   40.6850   33.2870   40.7860 H   0  0  0  0  0  0  0  0  0  0  0  0
   37.1010   34.8650   39.5220 H   0  0  0  0  0  0  0  0  0  0  0  0
   37.2290   30.3420   39.8200 C   0  0  0  0  0  0  0  0  0  0  0  0
   37.1000   29.8440   38.4630 C   0  0  0  0  0  0  0  0  0  0  0  0
   35.7150   29.6710   38.0190 C   0  0  0  0  0  0  0  0  0  0  0  0
   34.9530   28.7360   38.9530 C   0  0  0  0  0  0  0  0  0  0  0  0
   35.1950   29.0290   40.3940 C   0  0  0  0  0  0  0  0  0  0  0  0
   35.9200   30.3420   40.6000 C   0  0  0  0  0  0  0  0  0  0  0  0
   37.8180   29.5920   40.4180 H   0  0  0  0  0  0  0  0  0  0  0  0
   37.6430   28.8760   38.2480 H   0  0  0  0  0  0  0  0  0  0  0  0
   37.5890   30.5670   37.7660 H   0  0  0  0  0  0  0  0  0  0  0  0
   35.1960   30.6310   37.8690 H   0  0  0  0  0  0  0  0  0  0  0  0
   35.7240   29.1610   37.0230 H   0  0  0  0  0  0  0  0  0  0  0  0
   35.1990   27.6880   38.6780 H   0  0  0  0  0  0  0  0  0  0  0  0
   33.8710   28.8520   38.6550 H   0  0  0  0  0  0  0  0  0  0  0  0
   35.6820   28.1890   40.9280 H   0  0  0  0  0  0  0  0  0  0  0  0
   34.2010   29.1530   40.8830 H   0  0  0  0  0  0  0  0  0  0  0  0
   35.2870   31.1440   40.1790 H   0  0  0  0  0  0  0  0  0  0  0  0
   36.0770   30.5360   41.6590 H   0  0  0  0  0  0  0  0  0  0  0  0
   39.9920   30.7850   40.7270 O   0  0  0  0  0  0  0  0  0  0  0  0
   40.4010   30.1870   41.8810 C   0  0  0  0  0  0  0  0  0  0  0  0
   41.2700   30.7150   42.3130 H   0  0  0  0  0  0  0  0  0  0  0  0
   40.7910   29.1680   41.6290 H   0  0  0  0  0  0  0  0  0  0  0  0
   39.3250   29.9660   42.9190 C   0  0  0  0  0  0  0  0  0  0  0  0
   39.7350   30.0930   43.9420 H   0  0  0  0  0  0  0  0  0  0  0  0
   38.6180   30.8230   42.7970 H   0  0  0  0  0  0  0  0  0  0  0  0
   38.5680   28.7220   42.7330 C   0  0  0  0  0  0  0  0  0  0  0  0
   37.4560   28.6010   43.5500 C   0  0  0  0  0  3  0  0  0  0  0  0
   36.6720   27.4540   43.4490 C   0  0  0  0  0  0  0  0  0  0  0  0
   35.7990   27.3530   44.0860 H   0  0  0  0  0  0  0  0  0  0  0  0
   36.9720   26.4680   42.5780 N   0  0  0  0  0  0  0  0  0  0  0  0
   38.0740   26.6150   41.7860 C   0  0  0  0  0  3  0  0  0  0  0  0
   38.8500   27.7140   41.8650 N   0  0  0  0  0  0  0  0  0  0  0  0
  1  2  1  0  0  0  0
  2  3  2  0  0  0  0
  2 26  1  0  0  0  0
  3  7  1  0  0  0  0
  4  3  1  0  0  0  0
  5  4  2  0  0  0  0
  6  5  1  0  0  0  0
  6  1  2  0  0  0  0
  8  5  1  0  0  0  0
  9  1  1  0  0  0  0
  9 15  1  0  0  0  0
  9 14  1  0  0  0  0
 10  9  1  0  0  0  0
 11 10  1  0  0  0  0
 11 12  1  0  0  0  0
 12 13  1  0  0  0  0
 13 14  1  0  0  0  0
 13 23  1  0  0  0  0
 13 22  1  0  0  0  0
 14 25  1  0  0  0  0
 16 10  1  0  0  0  0
 17 10  1  0  0  0  0
 18 11  1  0  0  0  0
 19 11  1  0  0  0  0
 20 12  1  0  0  0  0
 21 12  1  0  0  0  0
 24 14  1  0  0  0  0
 26 27  1  0  0  0  0
 27 28  1  0  0  0  0
 27 30  1  0  0  0  0
 29 27  1  0  0  0  0
 30 31  1  0  0  0  0
 32 30  1  0  0  0  0
 33 30  1  0  0  0  0
 33 34  1  0  0  0  0
 35 34  2  0  0  0  0
 35 36  1  0  0  0  0
 37 35  1  0  0  0  0
 38 39  1  0  0  0  0
 38 37  2  0  0  0  0
 39 33  2  0  0  0  0
M  END
>  <minimizedAffinity>
-5.15734339

$$$$

 OpenBabel03242514183D

 39 41  0  0  0  0  0  0  0  0999 V2000
   38.3720   25.6960   42.1580 C   0  0  0  0  0  0  0  0  0  0  0  0
   38.4660   26.8650   42.8880 C   0  0  0  0  0  0  0  0  0  0  0  0
   39.5800   27.0180   43.6630 C   0  0  0  0  0  0  0  0  0  0  0  0
   40.5240   26.0330   43.6790 N   0  0  0  0  0  0  0  0  0  0  0  0
   40.4180   24.9070   42.9670 C   0  0  0  0  0  0  0  0  0  0  0  0
   39.3450   24.7590   42.2200 N   0  0  0  0  0  0  0  0  0  0  0  0
   39.9280   27.7870   44.3230 H   0  0  0  0  0  0  0  0  0  0  0  0
   41.1400   24.1020   42.9500 H   0  0  0  0  0  0  0  0  0  0  0  0
   37.1450   25.5450   41.3600 C   0  0  0  0  0  0  0  0  0  0  0  0
   36.5380   24.2260   41.3720 C   0  0  0  0  0  0  0  0  0  0  0  0
   36.5620   23.5450   40.0760 C   0  0  0  0  0  0  0  0  0  0  0  0
   35.8760   24.3850   39.0030 C   0  0  0  0  0  0  0  0  0  0  0  0
   36.2720   25.8210   39.0470 C   0  0  0  0  0  0  0  0  0  0  0  0
   37.4540   26.0640   39.9610 C   0  0  0  0  0  0  0  0  0  0  0  0
   36.3720   26.2940   41.6860 H   0  0  0  0  0  0  0  0  0  0  0  0
   35.4740   24.1860   41.7510 H   0  0  0  0  0  0  0  0  0  0  0  0
   37.0890   23.5830   42.1010 H   0  0  0  0  0  0  0  0  0  0  0  0
   37.5770   23.2320   39.7810 H   0  0  0  0  0  0  0  0  0  0  0  0
   35.9570   22.6080   40.1580 H   0  0  0  0  0  0  0  0  0  0  0  0
   34.7780   24.2370   39.0900 H   0  0  0  0  0  0  0  0  0  0  0  0
   36.1460   23.8830   38.0300 H   0  0  0  0  0  0  0  0  0  0  0  0
   35.4210   26.4960   39.2680 H   0  0  0  0  0  0  0  0  0  0  0  0
   36.6170   26.1060   38.0260 H   0  0  0  0  0  0  0  0  0  0  0  0
   38.3050   25.4760   39.5720 H   0  0  0  0  0  0  0  0  0  0  0  0
   37.7270   27.1180   39.9700 H   0  0  0  0  0  0  0  0  0  0  0  0
   37.6910   27.9170   43.0120 O   0  0  0  0  0  0  0  0  0  0  0  0
   37.5500   29.1240   42.3950 C   0  0  0  0  0  0  0  0  0  0  0  0
   38.5040   29.4530   41.9480 H   0  0  0  0  0  0  0  0  0  0  0  0
   37.3290   29.8940   43.1790 H   0  0  0  0  0  0  0  0  0  0  0  0
   36.4170   29.2200   41.3990 C   0  0  0  0  0  0  0  0  0  0  0  0
   36.0620   28.2090   41.1100 H   0  0  0  0  0  0  0  0  0  0  0  0
   35.5620   29.6590   41.9690 H   0  0  0  0  0  0  0  0  0  0  0  0
   36.7040   30.0970   40.2580 C   0  0  0  0  0  0  0  0  0  0  0  0
   36.8940   31.4280   40.5940 C   0  0  0  0  0  3  0  0  0  0  0  0
   37.1730   32.3410   39.5790 C   0  0  0  0  0  0  0  0  0  0  0  0
   37.3230   33.3860   39.8360 H   0  0  0  0  0  0  0  0  0  0  0  0
   37.2600   31.9580   38.2890 N   0  0  0  0  0  0  0  0  0  0  0  0
   37.0670   30.6410   37.9890 C   0  0  0  0  0  3  0  0  0  0  0  0
   36.7960   29.7370   38.9510 N   0  0  0  0  0  0  0  0  0  0  0  0
  1  6  2  0  0  0  0
  1  2  1  0  0  0  0
  2 26  1  0  0  0  0
  2  3  2  0  0  0  0
  3  4  1  0  0  0  0
  3  7  1  0  0  0  0
  5  4  2  0  0  0  0
  6  5  1  0  0  0  0
  8  5  1  0  0  0  0
  9 10  1  0  0  0  0
  9 15  1  0  0  0  0
  9  1  1  0  0  0  0
 10 16  1  0  0  0  0
 10 17  1  0  0  0  0
 11 19  1  0  0  0  0
 11 10  1  0  0  0  0
 12 13  1  0  0  0  0
 12 20  1  0  0  0  0
 12 11  1  0  0  0  0
 13 22  1  0  0  0  0
 13 14  1  0  0  0  0
 14 25  1  0  0  0  0
 14  9  1  0  0  0  0
 18 11  1  0  0  0  0
 21 12  1  0  0  0  0
 23 13  1  0  0  0  0
 24 14  1  0  0  0  0
 27 26  1  0  0  0  0
 27 29  1  0  0  0  0
 28 27  1  0  0  0  0
 30 32  1  0  0  0  0
 30 27  1  0  0  0  0
 31 30  1  0  0  0  0
 33 34  1  0  0  0  0
 33 30  1  0  0  0  0
 35 36  1  0  0  0  0
 35 34  2  0  0  0  0
 37 35  1  0  0  0  0
 38 37  2  0  0  0  0
 38 39  1  0  0  0  0
 39 33  2  0  0  0  0
M  END
>  <minimizedAffinity>
-5.00877333

$$$$

 OpenBabel03242514183D

 39 41  0  0  0  0  0  0  0  0999 V2000
   36.8780   28.9580   41.3460 C   0  0  0  0  0  0  0  0  0  0  0  0
   37.8030   29.7090   42.0450 C   0  0  0  0  0  0  0  0  0  0  0  0
   38.3520   29.1330   43.1540 C   0  0  0  0  0  0  0  0  0  0  0  0
   37.9700   27.8720   43.5110 N   0  0  0  0  0  0  0  0  0  0  0  0
   37.0740   27.1570   42.8240 C   0  0  0  0  0  0  0  0  0  0  0  0
   36.5440   27.7130   41.7560 N   0  0  0  0  0  0  0  0  0  0  0  0
   39.0710   29.4530   43.8820 H   0  0  0  0  0  0  0  0  0  0  0  0
   36.7420   26.1580   43.0700 H   0  0  0  0  0  0  0  0  0  0  0  0
   36.2790   29.6180   40.1760 C   0  0  0  0  0  0  0  0  0  0  0  0
   34.8960   29.2800   39.8950 C   0  0  0  0  0  0  0  0  0  0  0  0
   34.7020   28.5550   38.6380 C   0  0  0  0  0  0  0  0  0  0  0  0
   35.2570   29.3460   37.4570 C   0  0  0  0  0  0  0  0  0  0  0  0
   36.6010   29.9290   37.7290 C   0  0  0  0  0  0  0  0  0  0  0  0
   37.2180   29.3840   39.0000 C   0  0  0  0  0  0  0  0  0  0  0  0
   36.3570   30.7360   40.2760 H   0  0  0  0  0  0  0  0  0  0  0  0
   34.1750   30.1500   39.8930 H   0  0  0  0  0  0  0  0  0  0  0  0
   34.5080   28.6340   40.7190 H   0  0  0  0  0  0  0  0  0  0  0  0
   35.0950   27.5260   38.6770 H   0  0  0  0  0  0  0  0  0  0  0  0
   33.6030   28.4630   38.4480 H   0  0  0  0  0  0  0  0  0  0  0  0
   34.5070   30.1110   37.1630 H   0  0  0  0  0  0  0  0  0  0  0  0
   35.2590   28.6160   36.5980 H   0  0  0  0  0  0  0  0  0  0  0  0
   36.6040   31.0370   37.6990 H   0  0  0  0  0  0  0  0  0  0  0  0
   37.2790   29.6100   36.9040 H   0  0  0  0  0  0  0  0  0  0  0  0
   37.3270   28.2910   38.8780 H   0  0  0  0  0  0  0  0  0  0  0  0
   38.2010   29.8200   39.1710 H   0  0  0  0  0  0  0  0  0  0  0  0
   38.3010   30.9120   41.8760 O   0  0  0  0  0  0  0  0  0  0  0  0
   39.3630   31.4640   41.2250 C   0  0  0  0  0  0  0  0  0  0  0  0
   39.9260   30.6960   40.6650 H   0  0  0  0  0  0  0  0  0  0  0  0
   40.0890   31.8380   41.9920 H   0  0  0  0  0  0  0  0  0  0  0  0
   39.0450   32.6550   40.3510 C   0  0  0  0  0  0  0  0  0  0  0  0
   38.0110   32.5850   39.9540 H   0  0  0  0  0  0  0  0  0  0  0  0
   39.0150   33.5300   41.0450 H   0  0  0  0  0  0  0  0  0  0  0  0
   40.0590   32.9230   39.3230 C   0  0  0  0  0  0  0  0  0  0  0  0
   40.1110   31.9780   38.3110 C   0  0  0  0  0  3  0  0  0  0  0  0
   41.0410   32.1430   37.2870 C   0  0  0  0  0  0  0  0  0  0  0  0
   41.0860   31.4070   36.4910 H   0  0  0  0  0  0  0  0  0  0  0  0
   41.8840   33.1960   37.2640 N   0  0  0  0  0  0  0  0  0  0  0  0
   41.8110   34.1100   38.2750 C   0  0  0  0  0  3  0  0  0  0  0  0
   40.9200   33.9730   39.2770 N   0  0  0  0  0  0  0  0  0  0  0  0
  1  6  2  0  0  0  0
  1  2  1  0  0  0  0
  2  3  2  0  0  0  0
  3  4  1  0  0  0  0
  3  7  1  0  0  0  0
  5  8  1  0  0  0  0
  5  4  2  0  0  0  0
  6  5  1  0  0  0  0
  9 15  1  0  0  0  0
  9  1  1  0  0  0  0
 10  9  1  0  0  0  0
 10 17  1  0  0  0  0
 11 18  1  0  0  0  0
 11 10  1  0  0  0  0
 12 13  1  0  0  0  0
 12 11  1  0  0  0  0
 13 14  1  0  0  0  0
 14 25  1  0  0  0  0
 14  9  1  0  0  0  0
 16 10  1  0  0  0  0
 19 11  1  0  0  0  0
 20 12  1  0  0  0  0
 21 12  1  0  0  0  0
 22 13  1  0  0  0  0
 23 13  1  0  0  0  0
 24 14  1  0  0  0  0
 26  2  1  0  0  0  0
 27 26  1  0  0  0  0
 27 29  1  0  0  0  0
 28 27  1  0  0  0  0
 30 32  1  0  0  0  0
 30 27  1  0  0  0  0
 31 30  1  0  0  0  0
 33 30  1  0  0  0  0
 34 33  2  0  0  0  0
 35 34  1  0  0  0  0
 36 35  1  0  0  0  0
 37 35  2  0  0  0  0
 37 38  1  0  0  0  0
 38 39  2  0  0  0  0
 39 33  1  0  0  0  0
M  END
>  <minimizedAffinity>
-4.96382904

$$$$

 OpenBabel03242514183D

 39 41  0  0  0  0  0  0  0  0999 V2000
   38.3960   27.8420   41.9500 C   0  0  0  0  0  0  0  0  0  0  0  0
   38.0520   29.1630   42.1610 C   0  0  0  0  0  0  0  0  0  0  0  0
   39.0510   30.0030   42.5620 C   0  0  0  0  0  0  0  0  0  0  0  0
   40.3120   29.5100   42.7310 N   0  0  0  0  0  0  0  0  0  0  0  0
   40.6300   28.2280   42.5230 C   0  0  0  0  0  0  0  0  0  0  0  0
   39.6670   27.4180   42.1370 N   0  0  0  0  0  0  0  0  0  0  0  0
   39.0960   31.0470   42.8010 H   0  0  0  0  0  0  0  0  0  0  0  0
   41.6130   27.7950   42.6450 H   0  0  0  0  0  0  0  0  0  0  0  0
   37.2930   26.9550   41.5530 C   0  0  0  0  0  0  0  0  0  0  0  0
   37.0390   25.8250   42.4290 C   0  0  0  0  0  0  0  0  0  0  0  0
   37.3040   24.5220   41.8150 C   0  0  0  0  0  0  0  0  0  0  0  0
   36.4850   24.3410   40.5400 C   0  0  0  0  0  0  0  0  0  0  0  0
   36.5020   25.5440   39.6620 C   0  0  0  0  0  0  0  0  0  0  0  0
   37.5340   26.5620   40.1010 C   0  0  0  0  0  0  0  0  0  0  0  0
   36.3390   27.5410   41.4470 H   0  0  0  0  0  0  0  0  0  0  0  0
   36.0010   25.7800   42.8730 H   0  0  0  0  0  0  0  0  0  0  0  0
   37.6950   25.9120   43.3290 H   0  0  0  0  0  0  0  0  0  0  0  0
   38.3790   24.3400   41.6550 H   0  0  0  0  0  0  0  0  0  0  0  0
   36.9520   23.7230   42.5150 H   0  0  0  0  0  0  0  0  0  0  0  0
   35.4580   24.0280   40.8240 H   0  0  0  0  0  0  0  0  0  0  0  0
   36.9250   23.4280   40.0440 H   0  0  0  0  0  0  0  0  0  0  0  0
   35.4970   25.9930   39.5270 H   0  0  0  0  0  0  0  0  0  0  0  0
   36.8170   25.2150   38.6450 H   0  0  0  0  0  0  0  0  0  0  0  0
   38.5250   26.0760   40.0520 H   0  0  0  0  0  0  0  0  0  0  0  0
   37.5310   27.4270   39.4400 H   0  0  0  0  0  0  0  0  0  0  0  0
   36.9260   29.8290   42.0570 O   0  0  0  0  0  0  0  0  0  0  0  0
   36.2790   30.5390   41.0910 C   0  0  0  0  0  0  0  0  0  0  0  0
   36.9800   31.1990   40.5490 H   0  0  0  0  0  0  0  0  0  0  0  0
   35.5650   31.2430   41.5920 H   0  0  0  0  0  0  0  0  0  0  0  0
   35.4410   29.7250   40.1320 C   0  0  0  0  0  0  0  0  0  0  0  0
   35.2930   28.6950   40.5180 H   0  0  0  0  0  0  0  0  0  0  0  0
   34.4220   30.1820   40.1710 H   0  0  0  0  0  0  0  0  0  0  0  0
   35.9120   29.7760   38.7430 C   0  0  0  0  0  0  0  0  0  0  0  0
   35.1900   28.9840   37.8650 C   0  0  0  0  0  3  0  0  0  0  0  0
   35.5600   28.9650   36.5220 C   0  0  0  0  0  0  0  0  0  0  0  0
   34.9980   28.3470   35.8280 H   0  0  0  0  0  0  0  0  0  0  0  0
   36.5980   29.6960   36.0650 N   0  0  0  0  0  0  0  0  0  0  0  0
   37.2900   30.4660   36.9530 C   0  0  0  0  0  3  0  0  0  0  0  0
   36.9540   30.5020   38.2580 N   0  0  0  0  0  0  0  0  0  0  0  0
  1  6  2  0  0  0  0
  1  2  1  0  0  0  0
  2  3  2  0  0  0  0
  3  4  1  0  0  0  0
  3  7  1  0  0  0  0
  5  8  1  0  0  0  0
  5  4  2  0  0  0  0
  6  5  1  0  0  0  0
  9  1  1  0  0  0  0
  9 10  1  0  0  0  0
 10 16  1  0  0  0  0
 10 17  1  0  0  0  0
 11 10  1  0  0  0  0
 11 19  1  0  0  0  0
 12 20  1  0  0  0  0
 12 11  1  0  0  0  0
 13 14  1  0  0  0  0
 13 12  1  0  0  0  0
 14  9  1  0  0  0  0
 15  9  1  0  0  0  0
 18 11  1  0  0  0  0
 21 12  1  0  0  0  0
 22 13  1  0  0  0  0
 23 13  1  0  0  0  0
 24 14  1  0  0  0  0
 25 14  1  0  0  0  0
 26  2  1  0  0  0  0
 27 29  1  0  0  0  0
 27 26  1  0  0  0  0
 28 27  1  0  0  0  0
 30 32  1  0  0  0  0
 30 31  1  0  0  0  0
 30 27  1  0  0  0  0
 33 30  1  0  0  0  0
 34 33  2  0  0  0  0
 35 34  1  0  0  0  0
 36 35  1  0  0  0  0
 37 35  2  0  0  0  0
 37 38  1  0  0  0  0
 38 39  2  0  0  0  0
 39 33  1  0  0  0  0
M  END
>  <minimizedAffinity>
-4.94869661

$$$$

 OpenBabel03242514183D

 39 41  0  0  0  0  0  0  0  0999 V2000
   36.7340   30.4210   39.6280 C   0  0  0  0  0  0  0  0  0  0  0  0
   37.2550   30.6680   40.8830 C   0  0  0  0  0  0  0  0  0  0  0  0
   37.9760   31.8180   41.0340 C   0  0  0  0  0  0  0  0  0  0  0  0
   38.1430   32.6480   39.9650 N   0  0  0  0  0  0  0  0  0  0  0  0
   37.6310   32.3950   38.7560 C   0  0  0  0  0  0  0  0  0  0  0  0
   36.9380   31.2870   38.6100 N   0  0  0  0  0  0  0  0  0  0  0  0
   38.4910   32.2710   41.8570 H   0  0  0  0  0  0  0  0  0  0  0  0
   37.7390   33.0230   37.8820 H   0  0  0  0  0  0  0  0  0  0  0  0
   35.9930   29.1580   39.4870 C   0  0  0  0  0  0  0  0  0  0  0  0
   36.7860   27.9440   39.5610 C   0  0  0  0  0  0  0  0  0  0  0  0
   36.8280   27.1810   38.3120 C   0  0  0  0  0  0  0  0  0  0  0  0
   35.4220   26.8140   37.8460 C   0  0  0  0  0  0  0  0  0  0  0  0
   34.4640   27.9510   37.9390 C   0  0  0  0  0  0  0  0  0  0  0  0
   35.1580   29.2680   38.2170 C   0  0  0  0  0  0  0  0  0  0  0  0
   35.1770   29.0950   40.2590 H   0  0  0  0  0  0  0  0  0  0  0  0
   36.4940   27.2240   40.3820 H   0  0  0  0  0  0  0  0  0  0  0  0
   37.8370   28.2160   39.8260 H   0  0  0  0  0  0  0  0  0  0  0  0
   37.4140   27.6860   37.5270 H   0  0  0  0  0  0  0  0  0  0  0  0
   37.3440   26.2080   38.5090 H   0  0  0  0  0  0  0  0  0  0  0  0
   35.0870   25.9190   38.4120 H   0  0  0  0  0  0  0  0  0  0  0  0
   35.5590   26.4390   36.7910 H   0  0  0  0  0  0  0  0  0  0  0  0
   33.6310   27.7560   38.6450 H   0  0  0  0  0  0  0  0  0  0  0  0
   33.9830   28.0690   36.9410 H   0  0  0  0  0  0  0  0  0  0  0  0
   35.8550   29.4620   37.3820 H   0  0  0  0  0  0  0  0  0  0  0  0
   34.4380   30.0820   38.2740 H   0  0  0  0  0  0  0  0  0  0  0  0
   37.2120   30.0170   42.0220 O   0  0  0  0  0  0  0  0  0  0  0  0
   38.0930   29.3420   42.8130 C   0  0  0  0  0  0  0  0  0  0  0  0
   38.6320   30.0340   43.4850 H   0  0  0  0  0  0  0  0  0  0  0  0
   38.8930   28.9100   42.1590 H   0  0  0  0  0  0  0  0  0  0  0  0
   37.5180   28.1730   43.5800 C   0  0  0  0  0  0  0  0  0  0  0  0
   37.5320   28.3750   44.6710 H   0  0  0  0  0  0  0  0  0  0  0  0
   36.4310   28.1560   43.3180 H   0  0  0  0  0  0  0  0  0  0  0  0
   38.0980   26.8770   43.2070 C   0  0  0  0  0  0  0  0  0  0  0  0
   39.3840   26.6690   43.6790 C   0  0  0  0  0  3  0  0  0  0  0  0
   40.0210   25.4680   43.3780 C   0  0  0  0  0  0  0  0  0  0  0  0
   41.0290   25.2980   43.7460 H   0  0  0  0  0  0  0  0  0  0  0  0
   39.4160   24.5120   42.6430 N   0  0  0  0  0  0  0  0  0  0  0  0
   38.1500   24.7460   42.1910 C   0  0  0  0  0  3  0  0  0  0  0  0
   37.5110   25.9000   42.4670 N   0  0  0  0  0  0  0  0  0  0  0  0
  1  2  1  0  0  0  0
  2  3  2  0  0  0  0
  2 26  1  0  0  0  0
  3  7  1  0  0  0  0
  4  3  1  0  0  0  0
  5  4  2  0  0  0  0
  6  5  1  0  0  0  0
  6  1  2  0  0  0  0
  8  5  1  0  0  0  0
  9 10  1  0  0  0  0
  9  1  1  0  0  0  0
  9 15  1  0  0  0  0
 10 17  1  0  0  0  0
 10 16  1  0  0  0  0
 11 19  1  0  0  0  0
 11 10  1  0  0  0  0
 12 13  1  0  0  0  0
 12 11  1  0  0  0  0
 12 20  1  0  0  0  0
 13 14  1  0  0  0  0
 13 22  1  0  0  0  0
 14 25  1  0  0  0  0
 14  9  1  0  0  0  0
 18 11  1  0  0  0  0
 21 12  1  0  0  0  0
 23 13  1  0  0  0  0
 24 14  1  0  0  0  0
 26 27  1  0  0  0  0
 27 28  1  0  0  0  0
 27 30  1  0  0  0  0
 29 27  1  0  0  0  0
 30 31  1  0  0  0  0
 32 30  1  0  0  0  0
 33 30  1  0  0  0  0
 33 34  1  0  0  0  0
 35 34  2  0  0  0  0
 35 36  1  0  0  0  0
 37 35  1  0  0  0  0
 38 39  1  0  0  0  0
 38 37  2  0  0  0  0
 39 33  2  0  0  0  0
M  END
>  <minimizedAffinity>
-4.92296743

$$$$

 OpenBabel03242514183D

 39 41  0  0  0  0  0  0  0  0999 V2000
   37.5570   30.2480   38.8980 C   0  0  0  0  0  0  0  0  0  0  0  0
   37.2960   29.0600   39.5530 C   0  0  0  0  0  0  0  0  0  0  0  0
   36.6540   28.0910   38.8360 C   0  0  0  0  0  0  0  0  0  0  0  0
   36.3100   28.3350   37.5390 N   0  0  0  0  0  0  0  0  0  0  0  0
   36.5710   29.4910   36.9190 C   0  0  0  0  0  0  0  0  0  0  0  0
   37.1880   30.4250   37.6090 N   0  0  0  0  0  0  0  0  0  0  0  0
   36.3210   27.0970   39.0590 H   0  0  0  0  0  0  0  0  0  0  0  0
   36.3170   29.7280   35.8950 H   0  0  0  0  0  0  0  0  0  0  0  0
   38.2180   31.2840   39.7060 C   0  0  0  0  0  0  0  0  0  0  0  0
   37.3440   32.2830   40.2950 C   0  0  0  0  0  0  0  0  0  0  0  0
   37.5430   33.6350   39.7690 C   0  0  0  0  0  0  0  0  0  0  0  0
   38.9880   34.0870   39.9510 C   0  0  0  0  0  0  0  0  0  0  0  0
   39.9780   33.0380   39.5760 C   0  0  0  0  0  0  0  0  0  0  0  0
   39.3340   31.8740   38.8530 C   0  0  0  0  0  0  0  0  0  0  0  0
   38.8220   30.8120   40.5300 H   0  0  0  0  0  0  0  0  0  0  0  0
   37.3810   32.3550   41.4230 H   0  0  0  0  0  0  0  0  0  0  0  0
   36.2830   31.9970   40.0960 H   0  0  0  0  0  0  0  0  0  0  0  0
   37.1970   33.7400   38.7280 H   0  0  0  0  0  0  0  0  0  0  0  0
   36.9270   34.3450   40.3760 H   0  0  0  0  0  0  0  0  0  0  0  0
   39.1160   34.4470   40.9950 H   0  0  0  0  0  0  0  0  0  0  0  0
   39.0780   35.0210   39.3250 H   0  0  0  0  0  0  0  0  0  0  0  0
   40.6040   32.7110   40.4300 H   0  0  0  0  0  0  0  0  0  0  0  0
   40.6870   33.4910   38.8460 H   0  0  0  0  0  0  0  0  0  0  0  0
   38.8700   32.2670   37.9300 H   0  0  0  0  0  0  0  0  0  0  0  0
   40.0780   31.1260   38.5840 H   0  0  0  0  0  0  0  0  0  0  0  0
   37.5370   28.6270   40.7680 O   0  0  0  0  0  0  0  0  0  0  0  0
   37.0220   28.8280   42.0130 C   0  0  0  0  0  0  0  0  0  0  0  0
   36.1510   29.5060   41.9760 H   0  0  0  0  0  0  0  0  0  0  0  0
   37.7810   29.3830   42.6220 H   0  0  0  0  0  0  0  0  0  0  0  0
   36.7070   27.5760   42.7990 C   0  0  0  0  0  0  0  0  0  0  0  0
   36.3160   27.8320   43.8060 H   0  0  0  0  0  0  0  0  0  0  0  0
   35.8350   27.1120   42.2760 H   0  0  0  0  0  0  0  0  0  0  0  0
   37.8010   26.5970   42.8180 C   0  0  0  0  0  0  0  0  0  0  0  0
   38.8860   26.9670   43.5960 C   0  0  0  0  0  3  0  0  0  0  0  0
   39.9760   26.1040   43.6790 C   0  0  0  0  0  0  0  0  0  0  0  0
   40.8290   26.3880   44.2870 H   0  0  0  0  0  0  0  0  0  0  0  0
   39.9950   24.9260   43.0220 N   0  0  0  0  0  0  0  0  0  0  0  0
   38.9120   24.5880   42.2630 C   0  0  0  0  0  3  0  0  0  0  0  0
   37.8450   25.4050   42.1660 N   0  0  0  0  0  0  0  0  0  0  0  0
  1  2  1  0  0  0  0
  1  9  1  0  0  0  0
  2 26  1  0  0  0  0
  3  7  1  0  0  0  0
  3  2  2  0  0  0  0
  4  3  1  0  0  0  0
  5  4  2  0  0  0  0
  5  6  1  0  0  0  0
  6  1  2  0  0  0  0
  8  5  1  0  0  0  0
  9 10  1  0  0  0  0
  9 15  1  0  0  0  0
 10 16  1  0  0  0  0
 11 12  1  0  0  0  0
 11 10  1  0  0  0  0
 11 19  1  0  0  0  0
 12 20  1  0  0  0  0
 13 12  1  0  0  0  0
 13 22  1  0  0  0  0
 14 13  1  0  0  0  0
 14  9  1  0  0  0  0
 17 10  1  0  0  0  0
 18 11  1  0  0  0  0
 21 12  1  0  0  0  0
 23 13  1  0  0  0  0
 24 14  1  0  0  0  0
 25 14  1  0  0  0  0
 26 27  1  0  0  0  0
 27 29  1  0  0  0  0
 27 30  1  0  0  0  0
 28 27  1  0  0  0  0
 30 33  1  0  0  0  0
 30 31  1  0  0  0  0
 32 30  1  0  0  0  0
 33 34  1  0  0  0  0
 34 35  2  0  0  0  0
 35 36  1  0  0  0  0
 37 35  1  0  0  0  0
 38 37  2  0  0  0  0
 39 38  1  0  0  0  0
 39 33  2  0  0  0  0
M  END
>  <minimizedAffinity>
-4.86101055

$$$$

 OpenBabel03242514183D

 39 41  0  0  0  0  0  0  0  0999 V2000
   37.5680   30.7260   40.4470 C   0  0  0  0  0  0  0  0  0  0  0  0
   37.0030   29.8590   41.3620 C   0  0  0  0  0  0  0  0  0  0  0  0
   35.9730   29.0800   40.9170 C   0  0  0  0  0  0  0  0  0  0  0  0
   35.5610   29.1930   39.6210 N   0  0  0  0  0  0  0  0  0  0  0  0
   36.1180   30.0370   38.7470 C   0  0  0  0  0  0  0  0  0  0  0  0
   37.1100   30.7870   39.1750 N   0  0  0  0  0  0  0  0  0  0  0  0
   35.3500   28.3370   41.3730 H   0  0  0  0  0  0  0  0  0  0  0  0
   35.8240   30.1590   37.7140 H   0  0  0  0  0  0  0  0  0  0  0  0
   38.6510   31.5760   40.9640 C   0  0  0  0  0  0  0  0  0  0  0  0
   38.5250   32.9970   40.6980 C   0  0  0  0  0  0  0  0  0  0  0  0
   39.5550   33.5320   39.8050 C   0  0  0  0  0  0  0  0  0  0  0  0
   40.9520   33.2630   40.3570 C   0  0  0  0  0  0  0  0  0  0  0  0
   41.1200   31.8730   40.8650 C   0  0  0  0  0  0  0  0  0  0  0  0
   39.9640   30.9750   40.4750 C   0  0  0  0  0  0  0  0  0  0  0  0
   38.7650   31.4310   42.0740 H   0  0  0  0  0  0  0  0  0  0  0  0
   38.5000   33.6610   41.6130 H   0  0  0  0  0  0  0  0  0  0  0  0
   37.5340   33.1880   40.2210 H   0  0  0  0  0  0  0  0  0  0  0  0
   39.4380   33.1820   38.7670 H   0  0  0  0  0  0  0  0  0  0  0  0
   39.4530   34.6450   39.7730 H   0  0  0  0  0  0  0  0  0  0  0  0
   41.1810   34.0330   41.1240 H   0  0  0  0  0  0  0  0  0  0  0  0
   41.6490   33.5070   39.5050 H   0  0  0  0  0  0  0  0  0  0  0  0
   41.3370   31.8340   41.9510 H   0  0  0  0  0  0  0  0  0  0  0  0
   42.0180   31.4390   40.3690 H   0  0  0  0  0  0  0  0  0  0  0  0
   39.9210   30.9440   39.3720 H   0  0  0  0  0  0  0  0  0  0  0  0
   40.1130   29.9650   40.8520 H   0  0  0  0  0  0  0  0  0  0  0  0
   37.2440   29.5980   42.6250 O   0  0  0  0  0  0  0  0  0  0  0  0
   37.3850   28.4860   43.3990 C   0  0  0  0  0  0  0  0  0  0  0  0
   36.5170   27.8130   43.2870 H   0  0  0  0  0  0  0  0  0  0  0  0
   37.3570   28.8010   44.4740 H   0  0  0  0  0  0  0  0  0  0  0  0
   38.6860   27.7340   43.2300 C   0  0  0  0  0  0  0  0  0  0  0  0
   39.4220   28.3460   42.6690 H   0  0  0  0  0  0  0  0  0  0  0  0
   39.1170   27.6590   44.2580 H   0  0  0  0  0  0  0  0  0  0  0  0
   38.5200   26.3740   42.7050 C   0  0  0  0  0  0  0  0  0  0  0  0
   37.2030   26.0010   42.4890 C   0  0  0  0  0  3  0  0  0  0  0  0
   36.9400   24.7270   41.9900 C   0  0  0  0  0  0  0  0  0  0  0  0
   35.9110   24.4290   41.8180 H   0  0  0  0  0  0  0  0  0  0  0  0
   37.9350   23.8570   41.7180 N   0  0  0  0  0  0  0  0  0  0  0  0
   39.2220   24.2520   41.9420 C   0  0  0  0  0  3  0  0  0  0  0  0
   39.5030   25.4790   42.4230 N   0  0  0  0  0  0  0  0  0  0  0  0
  1  9  1  0  0  0  0
  1  2  1  0  0  0  0
  2 26  1  0  0  0  0
  3  2  2  0  0  0  0
  3  7  1  0  0  0  0
  4  3  1  0  0  0  0
  5  6  1  0  0  0  0
  5  4  2  0  0  0  0
  6  1  2  0  0  0  0
  8  5  1  0  0  0  0
  9 15  1  0  0  0  0
 10  9  1  0  0  0  0
 10 16  1  0  0  0  0
 11 12  1  0  0  0  0
 11 10  1  0  0  0  0
 12 13  1  0  0  0  0
 12 20  1  0  0  0  0
 13 22  1  0  0  0  0
 14 25  1  0  0  0  0
 14 13  1  0  0  0  0
 14  9  1  0  0  0  0
 17 10  1  0  0  0  0
 18 11  1  0  0  0  0
 19 11  1  0  0  0  0
 21 12  1  0  0  0  0
 23 13  1  0  0  0  0
 24 14  1  0  0  0  0
 26 27  1  0  0  0  0
 27 29  1  0  0  0  0
 28 27  1  0  0  0  0
 30 27  1  0  0  0  0
 30 32  1  0  0  0  0
 31 30  1  0  0  0  0
 33 30  1  0  0  0  0
 34 33  1  0  0  0  0
 35 34  2  0  0  0  0
 36 35  1  0  0  0  0
 37 38  2  0  0  0  0
 37 35  1  0  0  0  0
 38 39  1  0  0  0  0
 39 33  2  0  0  0  0
M  END
>  <minimizedAffinity>
-4.82688856

$$$$

 OpenBabel03242514183D

 39 41  0  0  0  0  0  0  0  0999 V2000
   37.2760   25.6140   40.7300 C   0  0  0  0  0  0  0  0  0  0  0  0
   36.5830   25.4760   39.5430 C   0  0  0  0  0  0  0  0  0  0  0  0
   36.6340   24.2520   38.9410 C   0  0  0  0  0  0  0  0  0  0  0  0
   37.3480   23.2470   39.5250 N   0  0  0  0  0  0  0  0  0  0  0  0
   38.0140   23.3970   40.6750 C   0  0  0  0  0  0  0  0  0  0  0  0
   37.9660   24.5760   41.2550 N   0  0  0  0  0  0  0  0  0  0  0  0
   36.2160   23.8470   38.0410 H   0  0  0  0  0  0  0  0  0  0  0  0
   38.5920   22.6300   41.1720 H   0  0  0  0  0  0  0  0  0  0  0  0
   37.2320   26.9530   41.3380 C   0  0  0  0  0  0  0  0  0  0  0  0
   38.3630   27.8180   41.0530 C   0  0  0  0  0  0  0  0  0  0  0  0
   39.1790   28.1400   42.2250 C   0  0  0  0  0  0  0  0  0  0  0  0
   38.3360   28.7890   43.3180 C   0  0  0  0  0  0  0  0  0  0  0  0
   37.0360   28.0950   43.5400 C   0  0  0  0  0  0  0  0  0  0  0  0
   36.9680   26.7610   42.8260 C   0  0  0  0  0  0  0  0  0  0  0  0
   36.2910   27.4890   41.0340 H   0  0  0  0  0  0  0  0  0  0  0  0
   38.1100   28.7940   40.5430 H   0  0  0  0  0  0  0  0  0  0  0  0
   39.0260   27.3110   40.3100 H   0  0  0  0  0  0  0  0  0  0  0  0
   39.7520   27.2740   42.5940 H   0  0  0  0  0  0  0  0  0  0  0  0
   39.9340   28.9110   41.9290 H   0  0  0  0  0  0  0  0  0  0  0  0
   38.2130   29.8660   43.0740 H   0  0  0  0  0  0  0  0  0  0  0  0
   38.9980   28.7860   44.2310 H   0  0  0  0  0  0  0  0  0  0  0  0
   36.1610   28.7380   43.3180 H   0  0  0  0  0  0  0  0  0  0  0  0
   36.9620   27.8590   44.6260 H   0  0  0  0  0  0  0  0  0  0  0  0
   37.7790   26.1260   43.2250 H   0  0  0  0  0  0  0  0  0  0  0  0
   36.0130   26.2720   43.0100 H   0  0  0  0  0  0  0  0  0  0  0  0
   35.8490   26.2940   38.8270 O   0  0  0  0  0  0  0  0  0  0  0  0
   36.0620   27.3710   38.0200 C   0  0  0  0  0  0  0  0  0  0  0  0
   36.0570   27.0740   36.9560 H   0  0  0  0  0  0  0  0  0  0  0  0
   37.1030   27.7440   38.2000 H   0  0  0  0  0  0  0  0  0  0  0  0
   35.1570   28.5570   38.2610 C   0  0  0  0  0  0  0  0  0  0  0  0
   34.7230   28.9190   37.3060 H   0  0  0  0  0  0  0  0  0  0  0  0
   34.2810   28.1490   38.8230 H   0  0  0  0  0  0  0  0  0  0  0  0
   35.7690   29.6140   39.0740 C   0  0  0  0  0  0  0  0  0  0  0  0
   36.6690   30.4140   38.3890 C   0  0  0  0  0  3  0  0  0  0  0  0
   37.3040   31.4470   39.0740 C   0  0  0  0  0  0  0  0  0  0  0  0
   38.0100   32.0780   38.5430 H   0  0  0  0  0  0  0  0  0  0  0  0
   37.0610   31.6810   40.3810 N   0  0  0  0  0  0  0  0  0  0  0  0
   36.1700   30.8770   41.0300 C   0  0  0  0  0  3  0  0  0  0  0  0
   35.5430   29.8700   40.3900 N   0  0  0  0  0  0  0  0  0  0  0  0
  1  6  1  0  0  0  0
  1  9  1  0  0  0  0
  2  1  2  0  0  0  0
  3  4  2  0  0  0  0
  3  2  1  0  0  0  0
  4  5  1  0  0  0  0
  5  8  1  0  0  0  0
  5  6  2  0  0  0  0
  7  3  1  0  0  0  0
  9 14  1  0  0  0  0
 10  9  1  0  0  0  0
 10 11  1  0  0  0  0
 11 18  1  0  0  0  0
 11 12  1  0  0  0  0
 12 13  1  0  0  0  0
 12 21  1  0  0  0  0
 13 23  1  0  0  0  0
 14 25  1  0  0  0  0
 14 24  1  0  0  0  0
 14 13  1  0  0  0  0
 15  9  1  0  0  0  0
 16 10  1  0  0  0  0
 17 10  1  0  0  0  0
 19 11  1  0  0  0  0
 20 12  1  0  0  0  0
 22 13  1  0  0  0  0
 26  2  1  0  0  0  0
 27 29  1  0  0  0  0
 27 30  1  0  0  0  0
 27 26  1  0  0  0  0
 28 27  1  0  0  0  0
 30 32  1  0  0  0  0
 30 33  1  0  0  0  0
 31 30  1  0  0  0  0
 33 39  1  0  0  0  0
 34 33  2  0  0  0  0
 34 35  1  0  0  0  0
 35 37  2  0  0  0  0
 36 35  1  0  0  0  0
 37 38  1  0  0  0  0
 39 38  2  0  0  0  0
M  END
>  <minimizedAffinity>
-4.82640886

$$$$
