REMARK  Name = 
REMARK  3 active torsions:
REMARK  status: ('A' for Active; 'I' for Inactive)
REMARK    1  A    between atoms: C_3  and  S_9
REMARK    2  A    between atoms: S_9  and  C_10
REMARK    3  A    between atoms: C_14  and  C_21
REMARK                            x       y       z     vdW  Elec       q    Type
REMARK                         _______ _______ _______ _____ _____    ______ ____
ROOT
ATOM      1  C   UNL     1      44.363  34.620  42.730  0.00  0.00    +0.000 A 
ATOM      2  C   UNL     1      45.032  33.492  43.207  0.00  0.00    +0.000 A 
ATOM      3  C   UNL     1      45.473  33.498  44.540  0.00  0.00    +0.000 A 
ATOM      4  N   UNL     1      45.229  34.595  45.295  0.00  0.00    +0.000 NA
ATOM      5  C   UNL     1      44.578  35.672  44.798  0.00  0.00    +0.000 A 
ATOM      6  N   UNL     1      44.139  35.698  43.516  0.00  0.00    +0.000 NA
ATOM      7  H   UNL     1      45.222  32.620  42.598  0.00  0.00    +0.000 HD
ATOM      8  H   UNL     1      45.990  32.613  44.893  0.00  0.00    +0.000 HD
ENDROOT
BRANCH   5   9
ATOM      9  C   UNL     1      44.342  36.826  45.656  0.00  0.00    +0.000 A 
ATOM     10  C   UNL     1      43.969  38.031  45.121  0.00  0.00    +0.000 A 
ATOM     11  C   UNL     1      43.757  39.106  45.992  0.00  0.00    +0.000 A 
ATOM     12  H   UNL     1      43.462  40.059  45.570  0.00  0.00    +0.000 HD
ATOM     13  N   UNL     1      43.915  38.964  47.338  0.00  0.00    +0.000 NA
ATOM     14  C   UNL     1      44.283  37.748  47.793  0.00  0.00    +0.000 A 
ATOM     15  N   UNL     1      44.504  36.666  46.998  0.00  0.00    +0.000 NA
ENDBRANCH   5   9
BRANCH   1  16
ATOM     16  S   UNL     1      43.834  34.534  41.025  0.00  0.00    +0.000 S 
BRANCH  16  19
ATOM     17 CL   UNL     1      42.103  31.930  41.704  0.00  0.00    +0.000 Cl
ATOM     18  C   UNL     1      41.261  33.360  41.109  0.00  0.00    +0.000 A 
ATOM     19  C   UNL     1      42.076  34.422  40.846  0.00  0.00    +0.000 A 
ATOM     20  C   UNL     1      41.469  35.592  40.371  0.00  0.00    +0.000 A 
ATOM     21  C   UNL     1      40.091  35.617  40.192  0.00  0.00    +0.000 A 
ATOM     22  C   UNL     1      39.276  34.542  40.459  0.00  0.00    +0.000 A 
ATOM     23  C   UNL     1      39.902  33.389  40.931  0.00  0.00    +0.000 A 
ATOM     24 CL   UNL     1      38.977  31.948  41.310  0.00  0.00    +0.000 Cl
ATOM     25  H   UNL     1      42.019  36.491  40.131  0.00  0.00    +0.000 HD
ATOM     26  H   UNL     1      39.601  36.519  39.822  0.00  0.00    +0.000 HD
ATOM     27  H   UNL     1      38.205  34.576  40.315  0.00  0.00    +0.000 HD
ENDBRANCH  16  19
ENDBRANCH   1  16
TORSDOF 3
