
 OpenBabel03252506313D

 30 32  0  0  1  0  0  0  0  0999 V2000
   44.6180   35.7820   44.6560 C   0  0  0  0  0  0  0  0  0  0  0  0
   44.5240   35.4150   43.3180 C   0  0  0  0  0  0  0  0  0  0  0  0
   44.8090   34.1110   42.9740 C   0  0  0  0  0  0  0  0  0  0  0  0
   45.1640   33.2720   43.9740 N   0  0  0  0  0  0  0  0  0  0  0  0
   45.2490   33.6460   45.2590 C   0  0  0  0  0  0  0  0  0  0  0  0
   44.9790   34.9020   45.6260 N   0  0  0  0  0  0  0  0  0  0  0  0
   45.6370   32.6550   46.2050 N   0  0  0  0  0  0  0  0  0  0  0  0
   45.4890   32.8160   47.6570 C   0  0  0  0  0  0  0  0  0  0  0  0
   46.7380   32.1460   48.1660 C   0  0  0  0  0  0  0  0  0  0  0  0
   47.3600   31.4160   47.0070 C   0  0  0  0  0  0  0  0  0  0  0  0
   46.2190   31.3580   46.0040 C   0  0  2  0  0  0  0  0  0  0  0  0
   44.4140   36.7900   45.0450 H   0  0  0  0  0  0  0  0  0  0  0  0
   44.7340   33.8370   41.9320 H   0  0  0  0  0  0  0  0  0  0  0  0
   45.3950   33.8780   47.9330 H   0  0  0  0  0  0  0  0  0  0  0  0
   44.5610   32.2640   47.9100 H   0  0  0  0  0  0  0  0  0  0  0  0
   46.5080   31.4690   49.0190 H   0  0  0  0  0  0  0  0  0  0  0  0
   47.4270   32.9340   48.5060 H   0  0  0  0  0  0  0  0  0  0  0  0
   48.1830   32.0240   46.5560 H   0  0  0  0  0  0  0  0  0  0  0  0
   47.7490   30.4340   47.2720 H   0  0  0  0  0  0  0  0  0  0  0  0
   45.5130   30.5850   46.3570 H   0  0  0  0  0  0  0  0  0  0  0  0
   46.7140   31.0990   44.6380 C   0  0  0  0  0  0  0  0  0  0  0  0
   47.9600   31.6320   44.2890 C   0  0  0  0  0  3  0  0  0  0  0  0
   48.5160   31.4620   43.0420 C   0  0  0  0  0  0  0  0  0  0  0  0
   49.4810   31.8930   42.8250 H   0  0  0  0  0  0  0  0  0  0  0  0
   47.7880   30.7380   42.1450 N   0  0  0  0  0  0  0  0  0  0  0  0
   46.5860   30.2150   42.4530 C   0  0  0  0  0  3  0  0  0  0  0  0
   46.0680   30.4050   43.7010 N   0  0  0  0  0  0  0  0  0  0  0  0
   44.1320   36.4380   42.3920 N   0  0  0  0  0  0  0  0  0  0  0  0
   44.5490   37.3710   42.5030 H   0  0  0  0  0  0  0  0  0  0  0  0
   43.4350   36.2330   41.6210 H   0  0  0  0  0  0  0  0  0  0  0  0
  1 12  1  0  0  0  0
  1  6  1  0  0  0  0
  2  1  2  0  0  0  0
  3  2  1  0  0  0  0
  3  4  2  0  0  0  0
  4  5  1  0  0  0  0
  5  6  2  0  0  0  0
  5  7  1  0  0  0  0
  7  8  1  0  0  0  0
  8 15  1  0  0  0  0
  8 14  1  0  0  0  0
  8  9  1  0  0  0  0
  9 17  1  0  0  0  0
  9 16  1  0  0  0  0
 10 19  1  0  0  0  0
 10  9  1  0  0  0  0
 11  7  1  0  0  0  0
 11 20  1  1  0  0  0
 11 10  1  0  0  0  0
 13  3  1  0  0  0  0
 18 10  1  0  0  0  0
 21 11  1  0  0  0  0
 22 21  1  0  0  0  0
 23 22  2  0  0  0  0
 24 23  1  0  0  0  0
 25 26  2  0  0  0  0
 25 23  1  0  0  0  0
 26 27  1  0  0  0  0
 27 21  2  0  0  0  0
 28 29  1  0  0  0  0
 28  2  1  0  0  0  0
 30 28  1  0  0  0  0
M  END
>  <minimizedAffinity>
-4.29085159

>  <minimizedRMSD>
1.89937592

$$$$
