
 OpenBabel03242519363D

 22 23  0  0  0  0  0  0  0  0999 V2000
   46.7670   33.8930   39.6700 O   0  0  0  0  0  0  0  0  0  0  0  0
   46.5730   33.4230   41.1100 P   0  0  1  0  0  0  0  0  0  0  0  0
   47.5920   32.1650   41.4960 O   0  0  0  0  0  0  0  0  0  0  0  0
   47.3520   31.2890   41.1200 H   0  0  0  0  0  0  0  0  0  0  0  0
   46.8750   34.7310   42.1650 O   0  0  0  0  0  0  0  0  0  0  0  0
   45.5820   33.9880   45.5080 C   0  0  0  0  0  0  0  0  0  0  0  0
   46.3360   33.8680   44.3190 C   0  0  0  0  0  0  0  0  0  0  0  0
   46.1280   34.8490   43.3430 C   0  0  0  0  0  0  0  0  0  0  0  0
   45.2380   35.8450   43.5740 N   0  0  0  0  0  0  0  0  0  0  0  0
   44.5400   35.9200   44.7240 C   0  0  0  0  0  0  0  0  0  0  0  0
   44.7090   34.9970   45.6900 N   0  0  0  0  0  0  0  0  0  0  0  0
   45.7160   33.2450   46.2890 H   0  0  0  0  0  0  0  0  0  0  0  0
   47.0420   33.0610   44.1620 H   0  0  0  0  0  0  0  0  0  0  0  0
   43.8720   36.7830   44.7370 H   0  0  0  0  0  0  0  0  0  0  0  0
   44.9310   33.0050   41.2870 O   0  0  0  0  0  0  0  0  0  0  0  0
   43.9320   33.4540   40.4420 C   0  0  0  0  0  0  0  0  0  0  0  0
   43.4890   34.7450   40.6450 C   0  0  0  0  0  0  0  0  0  0  0  0
   42.4830   35.1870   39.7890 C   0  0  0  0  0  0  0  0  0  0  0  0
   42.0620   36.1870   39.8610 H   0  0  0  0  0  0  0  0  0  0  0  0
   42.0360   34.3410   38.8550 N   0  0  0  0  0  0  0  0  0  0  0  0
   42.4630   33.0960   38.6580 C   0  0  0  0  0  0  0  0  0  0  0  0
   43.4410   32.6600   39.4880 N   0  0  0  0  0  0  0  0  0  0  0  0
  2  1  2  6  0  0  0
  2 15  1  0  0  0  0
  2  3  1  0  0  0  0
  2  5  1  0  0  0  0
  4  3  1  0  0  0  0
  5  8  1  0  0  0  0
  6 11  1  0  0  0  0
  6 12  1  0  0  0  0
  7  6  2  0  0  0  0
  8  9  2  0  0  0  0
  8  7  1  0  0  0  0
  9 10  1  0  0  0  0
 10 14  1  0  0  0  0
 10 11  2  0  0  0  0
 13  7  1  0  0  0  0
 16 17  1  0  0  0  0
 16 15  1  0  0  0  0
 18 19  1  0  0  0  0
 18 17  2  0  0  0  0
 20 18  1  0  0  0  0
 21 20  2  0  0  0  0
 21 22  1  0  0  0  0
 22 16  2  0  0  0  0
M  END
>  <minimizedAffinity>
-4.04952383

>  <minimizedRMSD>
5.44293928

$$$$
