
 OpenBabel03252506593D

 22 23  0  0  0  0  0  0  0  0999 V2000
   44.8790   34.1590   42.0480 C   0  0  0  0  0  0  0  0  0  0  0  0
   44.7770   35.1540   41.5250 H   0  0  0  0  0  0  0  0  0  0  0  0
   44.3150   34.1240   42.9750 H   0  0  0  0  0  0  0  0  0  0  0  0
   46.3100   33.9170   42.1910 C   0  0  0  0  0  0  0  0  0  0  0  0
   47.2250   34.8650   42.6210 C   0  0  0  0  0  0  0  0  0  0  0  0
   48.5810   34.4510   42.7130 C   0  0  0  0  0  0  0  0  0  0  0  0
   48.8900   33.1600   42.3760 N   0  0  0  0  0  0  0  0  0  0  0  0
   47.9520   32.2930   41.9670 C   0  0  0  0  0  0  0  0  0  0  0  0
   46.6790   32.6840   41.8800 N   0  0  0  0  0  0  0  0  0  0  0  0
   46.8900   35.8400   42.8580 H   0  0  0  0  0  0  0  0  0  0  0  0
   49.3140   35.1800   43.0490 H   0  0  0  0  0  0  0  0  0  0  0  0
   48.3050   31.2930   41.7230 H   0  0  0  0  0  0  0  0  0  0  0  0
   44.3010   33.0660   41.1680 C   0  0  0  0  0  0  0  0  0  0  0  0
   44.9730   32.8310   40.3180 H   0  0  0  0  0  0  0  0  0  0  0  0
   44.1420   32.1270   41.7290 H   0  0  0  0  0  0  0  0  0  0  0  0
   43.0460   33.5920   40.5690 C   0  0  0  0  0  0  0  0  0  0  0  0
   41.8130   33.0130   40.7950 C   0  0  0  0  0  3  0  0  0  0  0  0
   40.6650   33.5200   40.2290 C   0  0  0  0  0  0  0  0  0  0  0  0
   39.7000   33.0390   40.4260 H   0  0  0  0  0  0  0  0  0  0  0  0
   40.7020   34.6010   39.4320 N   0  0  0  0  0  0  0  0  0  0  0  0
   41.8950   35.1640   39.2100 C   0  0  0  0  0  3  0  0  0  0  0  0
   43.0440   34.6800   39.7600 N   0  0  0  0  0  0  0  0  0  0  0  0
  1  4  1  0  0  0  0
  1  3  1  0  0  0  0
  2  1  1  0  0  0  0
  4  5  1  0  0  0  0
  5  6  2  0  0  0  0
  5 10  1  0  0  0  0
  6 11  1  0  0  0  0
  7  6  1  0  0  0  0
  8  7  2  0  0  0  0
  9  8  1  0  0  0  0
  9  4  2  0  0  0  0
 12  8  1  0  0  0  0
 13 15  1  0  0  0  0
 13  1  1  0  0  0  0
 14 13  1  0  0  0  0
 16 17  1  0  0  0  0
 16 13  1  0  0  0  0
 18 19  1  0  0  0  0
 18 17  2  0  0  0  0
 20 18  1  0  0  0  0
 21 20  2  0  0  0  0
 21 22  1  0  0  0  0
 22 16  2  0  0  0  0
M  END
>  <minimizedAffinity>
-2.88153696

>  <minimizedRMSD>
7.53552914

$$$$
