
 OpenBabel03242523093D

 43 47  0  0  1  0  0  0  0  0999 V2000
   38.4180   29.6480   42.8050 C   0  0  0  0  0  0  0  0  0  0  0  0
   37.7900   29.8530   41.5840 C   0  0  0  0  0  0  0  0  0  0  0  0
   36.8120   28.9730   41.2010 C   0  0  0  0  0  0  0  0  0  0  0  0
   36.4980   27.9330   42.0340 N   0  0  0  0  0  0  0  0  0  0  0  0
   37.1220   27.7560   43.2140 C   0  0  0  0  0  0  0  0  0  0  0  0
   38.0680   28.6040   43.5920 N   0  0  0  0  0  0  0  0  0  0  0  0
   39.1960   30.3340   43.1310 H   0  0  0  0  0  0  0  0  0  0  0  0
   36.9320   26.9630   43.9220 H   0  0  0  0  0  0  0  0  0  0  0  0
   38.2090   30.9330   40.8040 N   0  0  0  0  0  0  0  0  0  0  0  0
   39.4600   30.9600   40.1470 C   0  0  0  0  0  0  0  0  0  0  0  0
   39.6720   32.1340   39.2280 C   0  0  0  0  0  0  0  0  0  0  0  0
   38.5610   32.5240   38.4680 N   0  0  0  0  0  0  0  0  0  0  0  0
   37.3300   32.4970   39.1200 C   0  0  0  0  0  0  0  0  0  0  0  0
   37.4500   32.1150   40.5810 C   0  0  0  0  0  0  0  0  0  0  0  0
   39.7420   30.0350   39.5980 H   0  0  0  0  0  0  0  0  0  0  0  0
   40.2390   31.0570   40.9590 H   0  0  0  0  0  0  0  0  0  0  0  0
   40.0370   32.9990   39.8080 H   0  0  0  0  0  0  0  0  0  0  0  0
   40.5020   31.8680   38.5100 H   0  0  0  0  0  0  0  0  0  0  0  0
   38.7680   33.3850   37.9580 H   0  0  0  0  0  0  0  0  0  0  0  0
   36.9130   33.5470   39.1290 H   0  0  0  0  0  0  0  0  0  0  0  0
   36.5110   31.8990   38.6550 H   0  0  0  0  0  0  0  0  0  0  0  0
   37.9080   32.9820   41.1170 H   0  0  0  0  0  0  0  0  0  0  0  0
   36.4090   32.0380   40.9990 H   0  0  0  0  0  0  0  0  0  0  0  0
   36.7250   28.6200   38.8720 C   0  0  0  0  0  0  0  0  0  0  0  0
   35.9990   28.8930   40.0540 C   0  0  0  0  0  0  0  0  0  0  0  0
   34.6570   29.0840   39.7730 C   0  0  0  0  0  0  0  0  0  0  0  0
   34.0770   29.0280   38.5400 C   0  0  0  0  0  0  0  0  0  0  0  0
   34.8630   28.7600   37.4360 C   0  0  0  0  0  0  0  0  0  0  0  0
   36.2040   28.5500   37.5960 C   0  0  0  0  0  0  0  0  0  0  0  0
   33.9910   28.7830   36.3660 O   0  0  0  0  0  0  0  0  0  0  0  0
   32.6680   28.9240   36.8200 C   0  0  1  0  0  0  0  0  0  0  0  0
   32.7460   29.2110   38.2130 O   0  0  0  0  0  0  0  0  0  0  0  0
   37.8050   28.4060   38.7390 H   0  0  0  0  0  0  0  0  0  0  0  0
   34.1150   29.2870   40.6390 H   0  0  0  0  0  0  0  0  0  0  0  0
   36.7090   28.3510   36.6940 H   0  0  0  0  0  0  0  0  0  0  0  0
   32.2090   27.9140   36.7490 H   0  0  0  0  0  0  0  0  0  0  0  0
   31.8750   29.9410   36.1050 C   0  0  0  0  0  0  0  0  0  0  0  0
   30.9790   30.6850   36.8460 C   0  0  0  0  0  3  0  0  0  0  0  0
   30.2590   31.6310   36.1050 C   0  0  0  0  0  0  0  0  0  0  0  0
   29.5220   32.2860   36.5530 H   0  0  0  0  0  0  0  0  0  0  0  0
   30.3870   31.8440   34.7780 N   0  0  0  0  0  0  0  0  0  0  0  0
   31.2940   31.0690   34.1140 C   0  0  0  0  0  3  0  0  0  0  0  0
   32.0230   30.1340   34.7720 N   0  0  0  0  0  0  0  0  0  0  0  0
  1  7  1  0  0  0  0
  1  6  1  0  0  0  0
  2  1  2  0  0  0  0
  3  2  1  0  0  0  0
  3  4  2  0  0  0  0
  4  5  1  0  0  0  0
  5  6  2  0  0  0  0
  5  8  1  0  0  0  0
  9  2  1  0  0  0  0
 10  9  1  0  0  0  0
 10 16  1  0  0  0  0
 11 17  1  0  0  0  0
 11 10  1  0  0  0  0
 12 13  1  0  0  0  0
 12 11  1  0  0  0  0
 13 20  1  0  0  0  0
 13 14  1  0  0  0  0
 14  9  1  0  0  0  0
 14 23  1  0  0  0  0
 14 22  1  0  0  0  0
 15 10  1  0  0  0  0
 18 11  1  0  0  0  0
 19 12  1  0  0  0  0
 21 13  1  0  0  0  0
 24 25  1  0  0  0  0
 25  3  1  0  0  0  0
 26 25  2  0  0  0  0
 26 34  1  0  0  0  0
 27 26  1  0  0  0  0
 28 29  1  0  0  0  0
 28 27  2  0  0  0  0
 29 24  2  0  0  0  0
 30 31  1  0  0  0  0
 30 28  1  0  0  0  0
 31 36  1  6  0  0  0
 31 32  1  0  0  0  0
 32 27  1  0  0  0  0
 33 24  1  0  0  0  0
 35 29  1  0  0  0  0
 37 31  1  0  0  0  0
 37 38  1  0  0  0  0
 39 40  1  0  0  0  0
 39 38  2  0  0  0  0
 41 39  1  0  0  0  0
 42 43  1  0  0  0  0
 42 41  2  0  0  0  0
 43 37  2  0  0  0  0
M  END
>  <minimizedAffinity>
-6.26036358

$$$$

 OpenBabel03242523093D

 43 47  0  0  1  0  0  0  0  0999 V2000
   42.7920   33.7300   40.4540 C   0  0  0  0  0  0  0  0  0  0  0  0
   42.0710   32.5520   40.5930 C   0  0  0  0  0  0  0  0  0  0  0  0
   42.2050   31.8420   41.7580 C   0  0  0  0  0  0  0  0  0  0  0  0
   43.0410   32.3220   42.7300 N   0  0  0  0  0  0  0  0  0  0  0  0
   43.7290   33.4680   42.5700 C   0  0  0  0  0  0  0  0  0  0  0  0
   43.6040   34.1610   41.4470 N   0  0  0  0  0  0  0  0  0  0  0  0
   42.7010   34.3110   39.5390 H   0  0  0  0  0  0  0  0  0  0  0  0
   44.4060   33.9100   43.2880 H   0  0  0  0  0  0  0  0  0  0  0  0
   41.2690   32.1450   39.5260 N   0  0  0  0  0  0  0  0  0  0  0  0
   39.9020   32.4880   39.4240 C   0  0  0  0  0  0  0  0  0  0  0  0
   39.2400   32.0930   38.1300 C   0  0  0  0  0  0  0  0  0  0  0  0
   40.0120   32.2600   36.9720 N   0  0  0  0  0  0  0  0  0  0  0  0
   41.3590   31.9190   37.0770 C   0  0  0  0  0  0  0  0  0  0  0  0
   41.7140   31.3480   38.4340 C   0  0  0  0  0  0  0  0  0  0  0  0
   39.6500   33.5510   39.6320 H   0  0  0  0  0  0  0  0  0  0  0  0
   39.3700   31.9070   40.2330 H   0  0  0  0  0  0  0  0  0  0  0  0
   38.9000   31.0440   38.1910 H   0  0  0  0  0  0  0  0  0  0  0  0
   38.3060   32.7170   38.0120 H   0  0  0  0  0  0  0  0  0  0  0  0
   39.5230   31.8710   36.1630 H   0  0  0  0  0  0  0  0  0  0  0  0
   41.5680   31.0830   36.3470 H   0  0  0  0  0  0  0  0  0  0  0  0
   42.1120   32.6940   36.8010 H   0  0  0  0  0  0  0  0  0  0  0  0
   41.2740   30.3220   38.4910 H   0  0  0  0  0  0  0  0  0  0  0  0
   42.8260   31.1830   38.4530 H   0  0  0  0  0  0  0  0  0  0  0  0
   42.5500   29.8050   42.8920 C   0  0  0  0  0  0  0  0  0  0  0  0
   41.6340   30.6380   42.2100 C   0  0  0  0  0  0  0  0  0  0  0  0
   40.4000   30.0200   42.0950 C   0  0  0  0  0  0  0  0  0  0  0  0
   40.0750   28.7800   42.5590 C   0  0  0  0  0  0  0  0  0  0  0  0
   41.0350   28.0310   43.2110 C   0  0  0  0  0  0  0  0  0  0  0  0
   42.2890   28.5430   43.3850 C   0  0  0  0  0  0  0  0  0  0  0  0
   40.4000   26.8480   43.5380 O   0  0  0  0  0  0  0  0  0  0  0  0
   39.0330   26.9260   43.2180 C   0  0  1  0  0  0  0  0  0  0  0  0
   38.8600   28.1250   42.4690 O   0  0  0  0  0  0  0  0  0  0  0  0
   43.6090   29.9930   43.1640 H   0  0  0  0  0  0  0  0  0  0  0  0
   39.7180   30.6270   41.5920 H   0  0  0  0  0  0  0  0  0  0  0  0
   42.9420   27.8940   43.8960 H   0  0  0  0  0  0  0  0  0  0  0  0
   38.5000   27.0950   44.1780 H   0  0  0  0  0  0  0  0  0  0  0  0
   38.5030   25.7570   42.4920 C   0  0  0  0  0  0  0  0  0  0  0  0
   37.1360   25.6900   42.3050 C   0  0  0  0  0  3  0  0  0  0  0  0
   36.7020   24.5550   41.6100 C   0  0  0  0  0  0  0  0  0  0  0  0
   35.6570   24.3700   41.3900 H   0  0  0  0  0  0  0  0  0  0  0  0
   37.5020   23.5760   41.1370 N   0  0  0  0  0  0  0  0  0  0  0  0
   38.8410   23.7120   41.3600 C   0  0  0  0  0  3  0  0  0  0  0  0
   39.3280   24.7880   42.0280 N   0  0  0  0  0  0  0  0  0  0  0  0
  1  2  2  0  0  0  0
  1  6  1  0  0  0  0
  2  3  1  0  0  0  0
  3 25  1  0  0  0  0
  3  4  2  0  0  0  0
  5  4  1  0  0  0  0
  5  8  1  0  0  0  0
  6  5  2  0  0  0  0
  7  1  1  0  0  0  0
  9  2  1  0  0  0  0
 10  9  1  0  0  0  0
 10 15  1  0  0  0  0
 10 16  1  0  0  0  0
 11 17  1  0  0  0  0
 11 10  1  0  0  0  0
 12 13  1  0  0  0  0
 12 11  1  0  0  0  0
 13 14  1  0  0  0  0
 14 23  1  0  0  0  0
 14 22  1  0  0  0  0
 14  9  1  0  0  0  0
 18 11  1  0  0  0  0
 19 12  1  0  0  0  0
 20 13  1  0  0  0  0
 21 13  1  0  0  0  0
 24 33  1  0  0  0  0
 24 29  1  0  0  0  0
 25 24  2  0  0  0  0
 26 25  1  0  0  0  0
 26 27  2  0  0  0  0
 27 28  1  0  0  0  0
 28 29  2  0  0  0  0
 28 30  1  0  0  0  0
 29 35  1  0  0  0  0
 31 30  1  0  0  0  0
 31 36  1  1  0  0  0
 32 27  1  0  0  0  0
 32 31  1  0  0  0  0
 34 26  1  0  0  0  0
 37 31  1  0  0  0  0
 38 37  1  0  0  0  0
 39 38  2  0  0  0  0
 40 39  1  0  0  0  0
 41 42  2  0  0  0  0
 41 39  1  0  0  0  0
 42 43  1  0  0  0  0
 43 37  2  0  0  0  0
M  END
>  <minimizedAffinity>
-6.06742144

$$$$

 OpenBabel03242523093D

 43 47  0  0  1  0  0  0  0  0999 V2000
   40.4540   29.4140   38.4230 C   0  0  0  0  0  0  0  0  0  0  0  0
   39.0910   29.6670   38.3350 C   0  0  0  0  0  0  0  0  0  0  0  0
   38.3590   28.9650   37.4130 C   0  0  0  0  0  0  0  0  0  0  0  0
   38.9990   28.0490   36.6210 N   0  0  0  0  0  0  0  0  0  0  0  0
   40.3230   27.8230   36.7270 C   0  0  0  0  0  0  0  0  0  0  0  0
   41.0370   28.4970   37.6180 N   0  0  0  0  0  0  0  0  0  0  0  0
   41.0550   29.9580   39.1480 H   0  0  0  0  0  0  0  0  0  0  0  0
   40.8980   27.1210   36.1400 H   0  0  0  0  0  0  0  0  0  0  0  0
   38.5490   30.6410   39.1750 N   0  0  0  0  0  0  0  0  0  0  0  0
   38.3460   31.9770   38.7630 C   0  0  0  0  0  0  0  0  0  0  0  0
   37.6080   32.8430   39.7510 C   0  0  0  0  0  0  0  0  0  0  0  0
   36.5440   32.2300   40.4260 N   0  0  0  0  0  0  0  0  0  0  0  0
   36.7510   30.9140   40.8320 C   0  0  0  0  0  0  0  0  0  0  0  0
   38.1480   30.4180   40.5210 C   0  0  0  0  0  0  0  0  0  0  0  0
   37.8750   32.1120   37.7640 H   0  0  0  0  0  0  0  0  0  0  0  0
   39.3730   32.4340   38.6570 H   0  0  0  0  0  0  0  0  0  0  0  0
   38.3190   33.2530   40.4890 H   0  0  0  0  0  0  0  0  0  0  0  0
   37.1930   33.7320   39.1910 H   0  0  0  0  0  0  0  0  0  0  0  0
   36.1750   32.8580   41.1440 H   0  0  0  0  0  0  0  0  0  0  0  0
   36.6730   30.8760   41.9580 H   0  0  0  0  0  0  0  0  0  0  0  0
   36.0110   30.1480   40.4980 H   0  0  0  0  0  0  0  0  0  0  0  0
   38.8480   30.9260   41.2300 H   0  0  0  0  0  0  0  0  0  0  0  0
   38.1930   29.3310   40.8050 H   0  0  0  0  0  0  0  0  0  0  0  0
   36.7650   29.1440   35.6870 C   0  0  0  0  0  0  0  0  0  0  0  0
   36.9940   28.9780   37.0720 C   0  0  0  0  0  0  0  0  0  0  0  0
   35.7970   28.9390   37.7660 C   0  0  0  0  0  0  0  0  0  0  0  0
   34.5490   29.0460   37.2260 C   0  0  0  0  0  0  0  0  0  0  0  0
   34.4170   29.2100   35.8610 C   0  0  0  0  0  0  0  0  0  0  0  0
   35.5340   29.2590   35.0750 C   0  0  0  0  0  0  0  0  0  0  0  0
   33.0550   29.2920   35.6440 O   0  0  0  0  0  0  0  0  0  0  0  0
   32.3570   29.0400   36.8380 C   0  0  1  0  0  0  0  0  0  0  0  0
   33.3290   29.0110   37.8780 O   0  0  0  0  0  0  0  0  0  0  0  0
   37.4930   29.2010   34.8520 H   0  0  0  0  0  0  0  0  0  0  0  0
   35.9570   28.8180   38.7890 H   0  0  0  0  0  0  0  0  0  0  0  0
   35.3220   29.3850   34.0510 H   0  0  0  0  0  0  0  0  0  0  0  0
   31.9750   28.0000   36.7580 H   0  0  0  0  0  0  0  0  0  0  0  0
   31.2800   30.0010   37.1360 C   0  0  0  0  0  0  0  0  0  0  0  0
   31.0330   30.9910   36.2040 C   0  0  0  0  0  3  0  0  0  0  0  0
   29.9990   31.8690   36.5510 C   0  0  0  0  0  0  0  0  0  0  0  0
   29.6950   32.6920   35.9170 H   0  0  0  0  0  0  0  0  0  0  0  0
   29.2690   31.8050   37.6850 N   0  0  0  0  0  0  0  0  0  0  0  0
   29.5710   30.7990   38.5580 C   0  0  0  0  0  3  0  0  0  0  0  0
   30.5620   29.9150   38.2820 N   0  0  0  0  0  0  0  0  0  0  0  0
  1  7  1  0  0  0  0
  2  1  1  0  0  0  0
  2  9  1  0  0  0  0
  3  2  2  0  0  0  0
  4  5  2  0  0  0  0
  4  3  1  0  0  0  0
  5  6  1  0  0  0  0
  6  1  2  0  0  0  0
  8  5  1  0  0  0  0
  9 14  1  0  0  0  0
 10  9  1  0  0  0  0
 10 11  1  0  0  0  0
 11 12  1  0  0  0  0
 11 17  1  0  0  0  0
 12 13  1  0  0  0  0
 12 19  1  0  0  0  0
 13 20  1  0  0  0  0
 14 23  1  0  0  0  0
 14 13  1  0  0  0  0
 14 22  1  0  0  0  0
 15 10  1  0  0  0  0
 16 10  1  0  0  0  0
 18 11  1  0  0  0  0
 21 13  1  0  0  0  0
 24 25  1  0  0  0  0
 25  3  1  0  0  0  0
 25 26  2  0  0  0  0
 26 34  1  0  0  0  0
 27 26  1  0  0  0  0
 27 32  1  0  0  0  0
 28 27  2  0  0  0  0
 29 24  2  0  0  0  0
 29 28  1  0  0  0  0
 30 28  1  0  0  0  0
 30 31  1  0  0  0  0
 31 36  1  6  0  0  0
 31 37  1  0  0  0  0
 31 32  1  0  0  0  0
 33 24  1  0  0  0  0
 35 29  1  0  0  0  0
 37 43  1  0  0  0  0
 38 39  1  0  0  0  0
 38 37  2  0  0  0  0
 39 41  2  0  0  0  0
 40 39  1  0  0  0  0
 41 42  1  0  0  0  0
 43 42  2  0  0  0  0
M  END
>  <minimizedAffinity>
-5.78062773

$$$$

 OpenBabel03242523093D

 43 47  0  0  1  0  0  0  0  0999 V2000
   31.0980   28.2750   34.3150 C   0  0  0  0  0  0  0  0  0  0  0  0
   31.7390   28.8850   35.3850 C   0  0  0  0  0  0  0  0  0  0  0  0
   32.9890   28.4440   35.7320 C   0  0  0  0  0  0  0  0  0  0  0  0
   33.5510   27.4230   35.0120 N   0  0  0  0  0  0  0  0  0  0  0  0
   32.9080   26.8480   33.9780 C   0  0  0  0  0  0  0  0  0  0  0  0
   31.6990   27.2710   33.6360 N   0  0  0  0  0  0  0  0  0  0  0  0
   30.1060   28.6090   34.0210 H   0  0  0  0  0  0  0  0  0  0  0  0
   33.2830   26.0410   33.3650 H   0  0  0  0  0  0  0  0  0  0  0  0
   31.0600   29.9000   36.0630 N   0  0  0  0  0  0  0  0  0  0  0  0
   31.0470   31.2400   35.6170 C   0  0  0  0  0  0  0  0  0  0  0  0
   30.1360   32.1590   36.3870 C   0  0  0  0  0  0  0  0  0  0  0  0
   28.9010   31.6180   36.7690 N   0  0  0  0  0  0  0  0  0  0  0  0
   28.9200   30.2970   37.2110 C   0  0  0  0  0  0  0  0  0  0  0  0
   30.3180   29.7170   37.2630 C   0  0  0  0  0  0  0  0  0  0  0  0
   30.8530   31.3900   34.5320 H   0  0  0  0  0  0  0  0  0  0  0  0
   32.0920   31.6350   35.7760 H   0  0  0  0  0  0  0  0  0  0  0  0
   30.6590   32.5370   37.2830 H   0  0  0  0  0  0  0  0  0  0  0  0
   29.9290   33.0640   35.7430 H   0  0  0  0  0  0  0  0  0  0  0  0
   28.4000   32.2740   37.3720 H   0  0  0  0  0  0  0  0  0  0  0  0
   28.5570   30.2770   38.2800 H   0  0  0  0  0  0  0  0  0  0  0  0
   28.2450   29.5710   36.6980 H   0  0  0  0  0  0  0  0  0  0  0  0
   30.8440   30.1920   38.1270 H   0  0  0  0  0  0  0  0  0  0  0  0
   30.2250   28.6320   37.5460 H   0  0  0  0  0  0  0  0  0  0  0  0
   35.1450   29.2510   36.2380 C   0  0  0  0  0  0  0  0  0  0  0  0
   33.8910   28.8330   36.7400 C   0  0  0  0  0  0  0  0  0  0  0  0
   33.8860   28.8470   38.1240 C   0  0  0  0  0  0  0  0  0  0  0  0
   34.9280   29.2040   38.9290 C   0  0  0  0  0  0  0  0  0  0  0  0
   36.1210   29.5950   38.3530 C   0  0  0  0  0  0  0  0  0  0  0  0
   36.2380   29.6240   36.9920 C   0  0  0  0  0  0  0  0  0  0  0  0
   36.9540   29.8750   39.4200 O   0  0  0  0  0  0  0  0  0  0  0  0
   36.2400   29.7930   40.6270 C   0  0  1  0  0  0  0  0  0  0  0  0
   34.9690   29.2340   40.3110 O   0  0  0  0  0  0  0  0  0  0  0  0
   35.4830   29.3680   35.1880 H   0  0  0  0  0  0  0  0  0  0  0  0
   32.9660   28.5390   38.5020 H   0  0  0  0  0  0  0  0  0  0  0  0
   37.1850   29.9380   36.6580 H   0  0  0  0  0  0  0  0  0  0  0  0
   36.0350   30.8410   40.9370 H   0  0  0  0  0  0  0  0  0  0  0  0
   36.9150   29.0270   41.6910 C   0  0  0  0  0  0  0  0  0  0  0  0
   36.3430   27.8290   42.0730 C   0  0  0  0  0  3  0  0  0  0  0  0
   37.0340   27.1540   43.0870 C   0  0  0  0  0  0  0  0  0  0  0  0
   36.7030   26.2030   43.4860 H   0  0  0  0  0  0  0  0  0  0  0  0
   38.1670   27.5870   43.6800 N   0  0  0  0  0  0  0  0  0  0  0  0
   38.6720   28.7790   43.2490 C   0  0  0  0  0  3  0  0  0  0  0  0
   38.0510   29.4840   42.2700 N   0  0  0  0  0  0  0  0  0  0  0  0
  1  2  1  0  0  0  0
  2  3  2  0  0  0  0
  2  9  1  0  0  0  0
  3 25  1  0  0  0  0
  4  3  1  0  0  0  0
  5  4  2  0  0  0  0
  6  5  1  0  0  0  0
  6  1  2  0  0  0  0
  7  1  1  0  0  0  0
  8  5  1  0  0  0  0
  9 14  1  0  0  0  0
 10 16  1  0  0  0  0
 10  9  1  0  0  0  0
 10 11  1  0  0  0  0
 11 12  1  0  0  0  0
 11 17  1  0  0  0  0
 12 13  1  0  0  0  0
 12 19  1  0  0  0  0
 13 14  1  0  0  0  0
 13 20  1  0  0  0  0
 14 23  1  0  0  0  0
 14 22  1  0  0  0  0
 15 10  1  0  0  0  0
 18 11  1  0  0  0  0
 21 13  1  0  0  0  0
 24 25  2  0  0  0  0
 24 29  1  0  0  0  0
 25 26  1  0  0  0  0
 26 34  1  0  0  0  0
 26 27  2  0  0  0  0
 27 32  1  0  0  0  0
 28 27  1  0  0  0  0
 28 30  1  0  0  0  0
 29 28  2  0  0  0  0
 30 31  1  0  0  0  0
 31 36  1  1  0  0  0
 31 37  1  0  0  0  0
 32 31  1  0  0  0  0
 33 24  1  0  0  0  0
 35 29  1  0  0  0  0
 37 38  2  0  0  0  0
 37 43  1  0  0  0  0
 38 39  1  0  0  0  0
 39 40  1  0  0  0  0
 39 41  2  0  0  0  0
 42 41  1  0  0  0  0
 43 42  2  0  0  0  0
M  END
>  <minimizedAffinity>
-5.69108248

$$$$

 OpenBabel03242523093D

 43 47  0  0  1  0  0  0  0  0999 V2000
   37.7250   22.5930   40.2610 C   0  0  0  0  0  0  0  0  0  0  0  0
   37.8610   23.9630   40.4430 C   0  0  0  0  0  0  0  0  0  0  0  0
   36.9070   24.7870   39.9040 C   0  0  0  0  0  0  0  0  0  0  0  0
   35.8680   24.2280   39.2100 N   0  0  0  0  0  0  0  0  0  0  0  0
   35.7600   22.8950   39.0470 C   0  0  0  0  0  0  0  0  0  0  0  0
   36.6780   22.0920   39.5670 N   0  0  0  0  0  0  0  0  0  0  0  0
   38.4690   21.9200   40.6810 H   0  0  0  0  0  0  0  0  0  0  0  0
   34.9740   22.3810   38.5140 H   0  0  0  0  0  0  0  0  0  0  0  0
   38.9750   24.4240   41.1470 N   0  0  0  0  0  0  0  0  0  0  0  0
   40.1270   24.9310   40.5040 C   0  0  0  0  0  0  0  0  0  0  0  0
   41.1600   25.5250   41.4250 C   0  0  0  0  0  0  0  0  0  0  0  0
   40.6630   26.2780   42.4980 N   0  0  0  0  0  0  0  0  0  0  0  0
   39.5290   25.7730   43.1290 C   0  0  0  0  0  0  0  0  0  0  0  0
   39.0900   24.4380   42.5640 C   0  0  0  0  0  0  0  0  0  0  0  0
   39.9460   25.6510   39.6760 H   0  0  0  0  0  0  0  0  0  0  0  0
   40.6250   24.0470   40.0090 H   0  0  0  0  0  0  0  0  0  0  0  0
   41.8150   24.7260   41.8150 H   0  0  0  0  0  0  0  0  0  0  0  0
   41.8250   26.2010   40.8110 H   0  0  0  0  0  0  0  0  0  0  0  0
   41.4270   26.5500   43.1210 H   0  0  0  0  0  0  0  0  0  0  0  0
   39.7900   25.5610   44.2070 H   0  0  0  0  0  0  0  0  0  0  0  0
   38.6400   26.4430   43.2070 H   0  0  0  0  0  0  0  0  0  0  0  0
   39.8290   23.6720   42.9060 H   0  0  0  0  0  0  0  0  0  0  0  0
   38.1280   24.1540   43.0730 H   0  0  0  0  0  0  0  0  0  0  0  0
   36.1190   26.6760   38.7350 C   0  0  0  0  0  0  0  0  0  0  0  0
   36.7490   26.1860   39.9020 C   0  0  0  0  0  0  0  0  0  0  0  0
   37.1190   27.2280   40.7340 C   0  0  0  0  0  0  0  0  0  0  0  0
   36.9250   28.5570   40.4950 C   0  0  0  0  0  0  0  0  0  0  0  0
   36.3050   28.9480   39.3250 C   0  0  0  0  0  0  0  0  0  0  0  0
   35.8920   28.0020   38.4300 C   0  0  0  0  0  0  0  0  0  0  0  0
   36.2720   30.3280   39.3860 O   0  0  0  0  0  0  0  0  0  0  0  0
   36.7370   30.7700   40.6370 C   0  0  1  0  0  0  0  0  0  0  0  0
   37.2770   29.6290   41.2960 O   0  0  0  0  0  0  0  0  0  0  0  0
   35.6910   26.1200   37.8760 H   0  0  0  0  0  0  0  0  0  0  0  0
   37.5860   26.8750   41.5970 H   0  0  0  0  0  0  0  0  0  0  0  0
   35.4290   28.4060   37.5750 H   0  0  0  0  0  0  0  0  0  0  0  0
   35.8340   31.0510   41.2200 H   0  0  0  0  0  0  0  0  0  0  0  0
   37.7170   31.8700   40.5760 C   0  0  0  0  0  0  0  0  0  0  0  0
   37.3240   33.0390   39.9540 C   0  0  0  0  0  3  0  0  0  0  0  0
   38.3030   34.0400   39.9310 C   0  0  0  0  0  0  0  0  0  0  0  0
   38.1360   35.0100   39.4770 H   0  0  0  0  0  0  0  0  0  0  0  0
   39.5430   33.9310   40.4550 N   0  0  0  0  0  0  0  0  0  0  0  0
   39.8570   32.7460   41.0540 C   0  0  0  0  0  3  0  0  0  0  0  0
   38.9550   31.7340   41.1100 N   0  0  0  0  0  0  0  0  0  0  0  0
  1  2  1  0  0  0  0
  1  7  1  0  0  0  0
  2  9  1  0  0  0  0
  3  2  2  0  0  0  0
  4  3  1  0  0  0  0
  5  4  2  0  0  0  0
  5  6  1  0  0  0  0
  6  1  2  0  0  0  0
  8  5  1  0  0  0  0
  9 14  1  0  0  0  0
 10  9  1  0  0  0  0
 10 11  1  0  0  0  0
 11 17  1  0  0  0  0
 11 12  1  0  0  0  0
 12 19  1  0  0  0  0
 12 13  1  0  0  0  0
 13 21  1  0  0  0  0
 13 20  1  0  0  0  0
 14 22  1  0  0  0  0
 14 23  1  0  0  0  0
 14 13  1  0  0  0  0
 15 10  1  0  0  0  0
 16 10  1  0  0  0  0
 18 11  1  0  0  0  0
 24 25  1  0  0  0  0
 25  3  1  0  0  0  0
 25 26  2  0  0  0  0
 26 34  1  0  0  0  0
 27 26  1  0  0  0  0
 27 32  1  0  0  0  0
 28 30  1  0  0  0  0
 28 27  2  0  0  0  0
 29 24  2  0  0  0  0
 29 28  1  0  0  0  0
 30 31  1  0  0  0  0
 31 36  1  1  0  0  0
 31 32  1  0  0  0  0
 33 24  1  0  0  0  0
 35 29  1  0  0  0  0
 37 31  1  0  0  0  0
 37 43  1  0  0  0  0
 38 37  2  0  0  0  0
 39 38  1  0  0  0  0
 39 41  2  0  0  0  0
 40 39  1  0  0  0  0
 41 42  1  0  0  0  0
 42 43  2  0  0  0  0
M  END
>  <minimizedAffinity>
-5.63167

$$$$

 OpenBabel03242523093D

 43 47  0  0  1  0  0  0  0  0999 V2000
   38.3980   29.6390   42.7700 C   0  0  0  0  0  0  0  0  0  0  0  0
   37.8590   29.9110   41.5200 C   0  0  0  0  0  0  0  0  0  0  0  0
   36.8570   29.1000   41.0540 C   0  0  0  0  0  0  0  0  0  0  0  0
   36.4330   28.0600   41.8370 N   0  0  0  0  0  0  0  0  0  0  0  0
   36.9730   27.8180   43.0470 C   0  0  0  0  0  0  0  0  0  0  0  0
   37.9410   28.5990   43.5050 N   0  0  0  0  0  0  0  0  0  0  0  0
   39.1930   30.2700   43.1610 H   0  0  0  0  0  0  0  0  0  0  0  0
   36.6950   27.0200   43.7200 H   0  0  0  0  0  0  0  0  0  0  0  0
   38.3870   30.9830   40.7970 N   0  0  0  0  0  0  0  0  0  0  0  0
   39.6530   30.9330   40.1720 C   0  0  0  0  0  0  0  0  0  0  0  0
   39.9850   32.1220   39.3090 C   0  0  0  0  0  0  0  0  0  0  0  0
   38.9310   32.6330   38.5410 N   0  0  0  0  0  0  0  0  0  0  0  0
   37.6850   32.6830   39.1620 C   0  0  0  0  0  0  0  0  0  0  0  0
   37.7340   32.2320   40.6070 C   0  0  0  0  0  0  0  0  0  0  0  0
   39.8730   30.0100   39.5910 H   0  0  0  0  0  0  0  0  0  0  0  0
   40.4150   30.9320   41.0050 H   0  0  0  0  0  0  0  0  0  0  0  0
   40.4040   32.9290   39.9340 H   0  0  0  0  0  0  0  0  0  0  0  0
   40.8100   31.8170   38.6000 H   0  0  0  0  0  0  0  0  0  0  0  0
   39.2220   33.4950   38.0730 H   0  0  0  0  0  0  0  0  0  0  0  0
   37.3560   33.7620   39.2050 H   0  0  0  0  0  0  0  0  0  0  0  0
   36.8330   32.1740   38.6520 H   0  0  0  0  0  0  0  0  0  0  0  0
   38.2460   33.0360   41.1900 H   0  0  0  0  0  0  0  0  0  0  0  0
   36.6780   32.2260   40.9960 H   0  0  0  0  0  0  0  0  0  0  0  0
   34.7180   29.1890   40.0680 C   0  0  0  0  0  0  0  0  0  0  0  0
   36.1140   29.0960   39.8590 C   0  0  0  0  0  0  0  0  0  0  0  0
   36.4000   28.9530   38.5120 C   0  0  0  0  0  0  0  0  0  0  0  0
   35.4900   28.9000   37.4970 C   0  0  0  0  0  0  0  0  0  0  0  0
   34.1440   28.9950   37.7930 C   0  0  0  0  0  0  0  0  0  0  0  0
   33.7450   29.1430   39.0910 C   0  0  0  0  0  0  0  0  0  0  0  0
   33.5060   28.9000   36.5710 O   0  0  0  0  0  0  0  0  0  0  0  0
   34.4500   28.8900   35.5300 C   0  0  1  0  0  0  0  0  0  0  0  0
   35.7290   28.7600   36.1420 O   0  0  0  0  0  0  0  0  0  0  0  0
   34.1520   29.3230   41.0130 H   0  0  0  0  0  0  0  0  0  0  0  0
   37.4260   28.8810   38.3490 H   0  0  0  0  0  0  0  0  0  0  0  0
   32.7010   29.2080   39.2060 H   0  0  0  0  0  0  0  0  0  0  0  0
   34.4330   29.9100   35.0880 H   0  0  0  0  0  0  0  0  0  0  0  0
   34.2330   27.8460   34.5110 C   0  0  0  0  0  0  0  0  0  0  0  0
   35.3370   27.4030   33.8090 C   0  0  0  0  0  3  0  0  0  0  0  0
   35.0590   26.4130   32.8580 C   0  0  0  0  0  0  0  0  0  0  0  0
   35.8270   25.9710   32.2340 H   0  0  0  0  0  0  0  0  0  0  0  0
   33.8380   25.8960   32.6040 N   0  0  0  0  0  0  0  0  0  0  0  0
   32.7970   26.3840   33.3390 C   0  0  0  0  0  3  0  0  0  0  0  0
   32.9970   27.3440   34.2750 N   0  0  0  0  0  0  0  0  0  0  0  0
  1  7  1  0  0  0  0
  1  6  1  0  0  0  0
  2  1  2  0  0  0  0
  3  2  1  0  0  0  0
  3  4  2  0  0  0  0
  4  5  1  0  0  0  0
  5  6  2  0  0  0  0
  5  8  1  0  0  0  0
  9  2  1  0  0  0  0
 10  9  1  0  0  0  0
 10 16  1  0  0  0  0
 11 17  1  0  0  0  0
 11 10  1  0  0  0  0
 12 13  1  0  0  0  0
 12 11  1  0  0  0  0
 13 20  1  0  0  0  0
 13 14  1  0  0  0  0
 14  9  1  0  0  0  0
 14 23  1  0  0  0  0
 14 22  1  0  0  0  0
 15 10  1  0  0  0  0
 18 11  1  0  0  0  0
 19 12  1  0  0  0  0
 21 13  1  0  0  0  0
 24 33  1  0  0  0  0
 25 24  1  0  0  0  0
 25  3  1  0  0  0  0
 26 25  2  0  0  0  0
 27 28  2  0  0  0  0
 27 26  1  0  0  0  0
 28 29  1  0  0  0  0
 29 35  1  0  0  0  0
 29 24  2  0  0  0  0
 30 28  1  0  0  0  0
 31 36  1  6  0  0  0
 31 32  1  0  0  0  0
 31 30  1  0  0  0  0
 32 27  1  0  0  0  0
 34 26  1  0  0  0  0
 37 31  1  0  0  0  0
 38 37  2  0  0  0  0
 39 38  1  0  0  0  0
 40 39  1  0  0  0  0
 41 39  2  0  0  0  0
 41 42  1  0  0  0  0
 42 43  2  0  0  0  0
 43 37  1  0  0  0  0
M  END
>  <minimizedAffinity>
-5.60870695

$$$$

 OpenBabel03242523093D

 43 47  0  0  1  0  0  0  0  0999 V2000
   36.4930   24.2150   40.7550 C   0  0  0  0  0  0  0  0  0  0  0  0
   36.9510   25.5250   40.7980 C   0  0  0  0  0  0  0  0  0  0  0  0
   36.7750   26.3110   39.6890 C   0  0  0  0  0  0  0  0  0  0  0  0
   36.1610   25.7740   38.5900 N   0  0  0  0  0  0  0  0  0  0  0  0
   35.7260   24.4990   38.5740 C   0  0  0  0  0  0  0  0  0  0  0  0
   35.8910   23.7330   39.6430 N   0  0  0  0  0  0  0  0  0  0  0  0
   36.6200   23.5720   41.6230 H   0  0  0  0  0  0  0  0  0  0  0  0
   35.2350   24.0050   37.7480 H   0  0  0  0  0  0  0  0  0  0  0  0
   37.5860   25.9590   41.9630 N   0  0  0  0  0  0  0  0  0  0  0  0
   38.9400   25.6700   42.2480 C   0  0  0  0  0  0  0  0  0  0  0  0
   39.4940   26.3520   43.4710 C   0  0  0  0  0  0  0  0  0  0  0  0
   39.0850   27.6780   43.6700 N   0  0  0  0  0  0  0  0  0  0  0  0
   37.7490   27.9570   43.3900 C   0  0  0  0  0  0  0  0  0  0  0  0
   36.9650   26.7250   42.9880 C   0  0  0  0  0  0  0  0  0  0  0  0
   39.6570   25.8230   41.4110 H   0  0  0  0  0  0  0  0  0  0  0  0
   38.9870   24.5630   42.4620 H   0  0  0  0  0  0  0  0  0  0  0  0
   39.2510   25.7590   44.3690 H   0  0  0  0  0  0  0  0  0  0  0  0
   40.6210   26.3500   43.3900 H   0  0  0  0  0  0  0  0  0  0  0  0
   39.4250   28.0190   44.5720 H   0  0  0  0  0  0  0  0  0  0  0  0
   37.2570   28.3160   44.3410 H   0  0  0  0  0  0  0  0  0  0  0  0
   37.5330   28.7770   42.6640 H   0  0  0  0  0  0  0  0  0  0  0  0
   36.8200   26.1070   43.9080 H   0  0  0  0  0  0  0  0  0  0  0  0
   35.9300   27.0600   42.7020 H   0  0  0  0  0  0  0  0  0  0  0  0
   36.4090   28.1830   38.3050 C   0  0  0  0  0  0  0  0  0  0  0  0
   37.1140   27.6470   39.4070 C   0  0  0  0  0  0  0  0  0  0  0  0
   38.0270   28.5650   39.8980 C   0  0  0  0  0  0  0  0  0  0  0  0
   38.2480   29.8200   39.4120 C   0  0  0  0  0  0  0  0  0  0  0  0
   37.5160   30.2610   38.3270 C   0  0  0  0  0  0  0  0  0  0  0  0
   36.5820   29.4400   37.7620 C   0  0  0  0  0  0  0  0  0  0  0  0
   37.9780   31.5400   38.0840 O   0  0  0  0  0  0  0  0  0  0  0  0
   38.8790   31.9300   39.0900 C   0  0  1  0  0  0  0  0  0  0  0  0
   39.1450   30.7690   39.8690 O   0  0  0  0  0  0  0  0  0  0  0  0
   35.6050   27.7270   37.6910 H   0  0  0  0  0  0  0  0  0  0  0  0
   38.5530   28.1780   40.7100 H   0  0  0  0  0  0  0  0  0  0  0  0
   36.0790   29.8730   36.9450 H   0  0  0  0  0  0  0  0  0  0  0  0
   38.3160   32.6150   39.7600 H   0  0  0  0  0  0  0  0  0  0  0  0
   40.1260   32.5440   38.5970 C   0  0  0  0  0  0  0  0  0  0  0  0
   40.6220   33.6260   39.2980 C   0  0  0  0  0  3  0  0  0  0  0  0
   41.8070   34.1600   38.7750 C   0  0  0  0  0  0  0  0  0  0  0  0
   42.3110   35.0090   39.2200 H   0  0  0  0  0  0  0  0  0  0  0  0
   42.4550   33.7000   37.6830 N   0  0  0  0  0  0  0  0  0  0  0  0
   41.9030   32.6280   37.0440 C   0  0  0  0  0  3  0  0  0  0  0  0
   40.7560   32.0630   37.4980 N   0  0  0  0  0  0  0  0  0  0  0  0
  1  2  1  0  0  0  0
  1  7  1  0  0  0  0
  2  9  1  0  0  0  0
  3  2  2  0  0  0  0
  4  3  1  0  0  0  0
  5  4  2  0  0  0  0
  5  6  1  0  0  0  0
  6  1  2  0  0  0  0
  8  5  1  0  0  0  0
  9 10  1  0  0  0  0
  9 14  1  0  0  0  0
 10 16  1  0  0  0  0
 10 11  1  0  0  0  0
 11 12  1  0  0  0  0
 11 17  1  0  0  0  0
 12 19  1  0  0  0  0
 13 12  1  0  0  0  0
 13 20  1  0  0  0  0
 14 13  1  0  0  0  0
 14 22  1  0  0  0  0
 15 10  1  0  0  0  0
 18 11  1  0  0  0  0
 21 13  1  0  0  0  0
 23 14  1  0  0  0  0
 24 25  1  0  0  0  0
 25  3  1  0  0  0  0
 25 26  2  0  0  0  0
 26 34  1  0  0  0  0
 27 32  1  0  0  0  0
 27 26  1  0  0  0  0
 28 27  2  0  0  0  0
 29 24  2  0  0  0  0
 29 28  1  0  0  0  0
 30 28  1  0  0  0  0
 30 31  1  0  0  0  0
 31 36  1  1  0  0  0
 31 32  1  0  0  0  0
 33 24  1  0  0  0  0
 35 29  1  0  0  0  0
 37 31  1  0  0  0  0
 37 38  1  0  0  0  0
 39 40  1  0  0  0  0
 39 38  2  0  0  0  0
 41 39  1  0  0  0  0
 42 43  1  0  0  0  0
 42 41  2  0  0  0  0
 43 37  2  0  0  0  0
M  END
>  <minimizedAffinity>
-5.60189819

$$$$

 OpenBabel03242523093D

 43 47  0  0  1  0  0  0  0  0999 V2000
   39.5660   31.4510   41.6220 C   0  0  0  0  0  0  0  0  0  0  0  0
   38.6740   30.5740   41.0200 C   0  0  0  0  0  0  0  0  0  0  0  0
   38.0850   30.9530   39.8420 C   0  0  0  0  0  0  0  0  0  0  0  0
   38.3990   32.1760   39.3120 N   0  0  0  0  0  0  0  0  0  0  0  0
   39.2680   33.0080   39.9160 C   0  0  0  0  0  0  0  0  0  0  0  0
   39.8430   32.6470   41.0550 N   0  0  0  0  0  0  0  0  0  0  0  0
   40.0470   31.1710   42.5560 H   0  0  0  0  0  0  0  0  0  0  0  0
   39.5650   33.9850   39.5620 H   0  0  0  0  0  0  0  0  0  0  0  0
   38.4090   29.3630   41.6640 N   0  0  0  0  0  0  0  0  0  0  0  0
   37.6990   29.2860   42.8830 C   0  0  0  0  0  0  0  0  0  0  0  0
   37.3750   27.8900   43.3440 C   0  0  0  0  0  0  0  0  0  0  0  0
   36.9910   26.9880   42.3420 N   0  0  0  0  0  0  0  0  0  0  0  0
   37.6950   27.0670   41.1430 C   0  0  0  0  0  0  0  0  0  0  0  0
   38.8150   28.0860   41.1870 C   0  0  0  0  0  0  0  0  0  0  0  0
   36.7720   29.8970   42.9460 H   0  0  0  0  0  0  0  0  0  0  0  0
   38.3800   29.7220   43.6710 H   0  0  0  0  0  0  0  0  0  0  0  0
   38.2330   27.4720   43.8990 H   0  0  0  0  0  0  0  0  0  0  0  0
   36.5270   27.9570   44.0870 H   0  0  0  0  0  0  0  0  0  0  0  0
   36.8940   26.0480   42.7330 H   0  0  0  0  0  0  0  0  0  0  0  0
   38.2100   26.0770   40.9710 H   0  0  0  0  0  0  0  0  0  0  0  0
   37.1060   27.2150   40.2060 H   0  0  0  0  0  0  0  0  0  0  0  0
   39.6250   27.6650   41.8320 H   0  0  0  0  0  0  0  0  0  0  0  0
   39.2670   28.1390   40.1580 H   0  0  0  0  0  0  0  0  0  0  0  0
   37.5550   30.3120   37.6370 C   0  0  0  0  0  0  0  0  0  0  0  0
   37.1580   30.3200   38.9940 C   0  0  0  0  0  0  0  0  0  0  0  0
   35.9040   29.7530   39.1420 C   0  0  0  0  0  0  0  0  0  0  0  0
   35.1250   29.2490   38.1410 C   0  0  0  0  0  0  0  0  0  0  0  0
   35.5900   29.2860   36.8410 C   0  0  0  0  0  0  0  0  0  0  0  0
   36.8200   29.8200   36.5780 C   0  0  0  0  0  0  0  0  0  0  0  0
   34.5810   28.7190   36.0880 O   0  0  0  0  0  0  0  0  0  0  0  0
   33.5730   28.2130   36.9270 C   0  0  1  0  0  0  0  0  0  0  0  0
   33.8700   28.6750   38.2410 O   0  0  0  0  0  0  0  0  0  0  0  0
   38.4970   30.6700   37.1740 H   0  0  0  0  0  0  0  0  0  0  0  0
   35.6020   29.7560   40.1390 H   0  0  0  0  0  0  0  0  0  0  0  0
   37.0790   29.7970   35.5580 H   0  0  0  0  0  0  0  0  0  0  0  0
   33.7200   27.1120   36.9580 H   0  0  0  0  0  0  0  0  0  0  0  0
   32.2000   28.5750   36.5290 C   0  0  0  0  0  0  0  0  0  0  0  0
   31.6990   29.7760   36.9900 C   0  0  0  0  0  3  0  0  0  0  0  0
   30.3910   30.0560   36.5750 C   0  0  0  0  0  0  0  0  0  0  0  0
   29.8700   30.9620   36.8580 H   0  0  0  0  0  0  0  0  0  0  0  0
   29.6340   29.2590   35.7910 N   0  0  0  0  0  0  0  0  0  0  0  0
   30.1980   28.0880   35.3750 C   0  0  0  0  0  3  0  0  0  0  0  0
   31.4610   27.7560   35.7420 N   0  0  0  0  0  0  0  0  0  0  0  0
  1  7  1  0  0  0  0
  2  1  2  0  0  0  0
  2  9  1  0  0  0  0
  3  2  1  0  0  0  0
  4  3  2  0  0  0  0
  4  5  1  0  0  0  0
  5  6  2  0  0  0  0
  6  1  1  0  0  0  0
  8  5  1  0  0  0  0
  9 10  1  0  0  0  0
 10 15  1  0  0  0  0
 10 11  1  0  0  0  0
 10 16  1  0  0  0  0
 11 17  1  0  0  0  0
 11 18  1  0  0  0  0
 12 19  1  0  0  0  0
 12 11  1  0  0  0  0
 13 14  1  0  0  0  0
 13 12  1  0  0  0  0
 14  9  1  0  0  0  0
 14 22  1  0  0  0  0
 20 13  1  0  0  0  0
 21 13  1  0  0  0  0
 23 14  1  0  0  0  0
 24 25  1  0  0  0  0
 25 26  2  0  0  0  0
 25  3  1  0  0  0  0
 26 34  1  0  0  0  0
 27 32  1  0  0  0  0
 27 26  1  0  0  0  0
 28 27  2  0  0  0  0
 29 28  1  0  0  0  0
 29 24  2  0  0  0  0
 30 28  1  0  0  0  0
 30 31  1  0  0  0  0
 31 36  1  6  0  0  0
 31 32  1  0  0  0  0
 33 24  1  0  0  0  0
 35 29  1  0  0  0  0
 37 31  1  0  0  0  0
 37 38  1  0  0  0  0
 39 40  1  0  0  0  0
 39 38  2  0  0  0  0
 41 39  1  0  0  0  0
 42 43  1  0  0  0  0
 42 41  2  0  0  0  0
 43 37  2  0  0  0  0
M  END
>  <minimizedAffinity>
-5.52765989

$$$$

 OpenBabel03242523093D

 43 47  0  0  1  0  0  0  0  0999 V2000
   39.2450   28.1480   42.9960 C   0  0  0  0  0  0  0  0  0  0  0  0
   38.3740   27.6360   42.0440 C   0  0  0  0  0  0  0  0  0  0  0  0
   38.4120   26.2900   41.7870 C   0  0  0  0  0  0  0  0  0  0  0  0
   39.3030   25.5120   42.4770 N   0  0  0  0  0  0  0  0  0  0  0  0
   40.1370   26.0340   43.3960 C   0  0  0  0  0  0  0  0  0  0  0  0
   40.1050   27.3350   43.6500 N   0  0  0  0  0  0  0  0  0  0  0  0
   39.2320   29.2130   43.2170 H   0  0  0  0  0  0  0  0  0  0  0  0
   40.8650   25.4880   43.9780 H   0  0  0  0  0  0  0  0  0  0  0  0
   37.5260   28.5270   41.3830 N   0  0  0  0  0  0  0  0  0  0  0  0
   36.1300   28.3280   41.2940 C   0  0  0  0  0  0  0  0  0  0  0  0
   35.3620   29.4690   40.6820 C   0  0  0  0  0  0  0  0  0  0  0  0
   35.7860   30.7550   41.0430 N   0  0  0  0  0  0  0  0  0  0  0  0
   37.1630   30.9470   41.1280 C   0  0  0  0  0  0  0  0  0  0  0  0
   37.9510   29.7160   40.7290 C   0  0  0  0  0  0  0  0  0  0  0  0
   35.6190   28.0320   42.2360 H   0  0  0  0  0  0  0  0  0  0  0  0
   35.9810   27.4480   40.6020 H   0  0  0  0  0  0  0  0  0  0  0  0
   35.3740   29.3780   39.5820 H   0  0  0  0  0  0  0  0  0  0  0  0
   34.2800   29.3660   40.9910 H   0  0  0  0  0  0  0  0  0  0  0  0
   35.2780   31.4580   40.5010 H   0  0  0  0  0  0  0  0  0  0  0  0
   37.4560   31.7350   40.3740 H   0  0  0  0  0  0  0  0  0  0  0  0
   37.5720   31.3440   42.0870 H   0  0  0  0  0  0  0  0  0  0  0  0
   37.8630   29.6080   39.6200 H   0  0  0  0  0  0  0  0  0  0  0  0
   39.0390   29.9370   40.9090 H   0  0  0  0  0  0  0  0  0  0  0  0
   38.0760   25.6160   39.5540 C   0  0  0  0  0  0  0  0  0  0  0  0
   37.6860   25.4680   40.9050 C   0  0  0  0  0  0  0  0  0  0  0  0
   36.6230   24.5880   41.0160 C   0  0  0  0  0  0  0  0  0  0  0  0
   36.0070   23.9370   39.9880 C   0  0  0  0  0  0  0  0  0  0  0  0
   36.4500   24.1440   38.6960 C   0  0  0  0  0  0  0  0  0  0  0  0
   37.4980   24.9900   38.4680 C   0  0  0  0  0  0  0  0  0  0  0  0
   35.6270   23.3610   37.9090 O   0  0  0  0  0  0  0  0  0  0  0  0
   34.7840   22.5780   38.7170 C   0  0  1  0  0  0  0  0  0  0  0  0
   34.9460   23.0510   40.0510 O   0  0  0  0  0  0  0  0  0  0  0  0
   38.8920   26.2260   39.1160 H   0  0  0  0  0  0  0  0  0  0  0  0
   36.3280   24.4750   42.0090 H   0  0  0  0  0  0  0  0  0  0  0  0
   37.7570   25.0740   37.4520 H   0  0  0  0  0  0  0  0  0  0  0  0
   35.2150   21.5540   38.7100 H   0  0  0  0  0  0  0  0  0  0  0  0
   33.3660   22.5820   38.3140 C   0  0  0  0  0  0  0  0  0  0  0  0
   32.4270   22.8440   39.2930 C   0  0  0  0  0  3  0  0  0  0  0  0
   31.1010   22.8320   38.8410 C   0  0  0  0  0  0  0  0  0  0  0  0
   30.2590   23.0210   39.4970 H   0  0  0  0  0  0  0  0  0  0  0  0
   30.7120   22.5920   37.5710 N   0  0  0  0  0  0  0  0  0  0  0  0
   31.6970   22.3410   36.6610 C   0  0  0  0  0  3  0  0  0  0  0  0
   33.0020   22.3380   37.0320 N   0  0  0  0  0  0  0  0  0  0  0  0
  1  7  1  0  0  0  0
  1  6  1  0  0  0  0
  2  1  2  0  0  0  0
  3  2  1  0  0  0  0
  3  4  2  0  0  0  0
  4  5  1  0  0  0  0
  5  6  2  0  0  0  0
  5  8  1  0  0  0  0
  9  2  1  0  0  0  0
 10  9  1  0  0  0  0
 10 15  1  0  0  0  0
 11 18  1  0  0  0  0
 11 12  1  0  0  0  0
 11 10  1  0  0  0  0
 12 13  1  0  0  0  0
 13 21  1  0  0  0  0
 14 23  1  0  0  0  0
 14 13  1  0  0  0  0
 14  9  1  0  0  0  0
 16 10  1  0  0  0  0
 17 11  1  0  0  0  0
 19 12  1  0  0  0  0
 20 13  1  0  0  0  0
 22 14  1  0  0  0  0
 24 25  1  0  0  0  0
 25 26  2  0  0  0  0
 25  3  1  0  0  0  0
 26 34  1  0  0  0  0
 27 32  1  0  0  0  0
 27 26  1  0  0  0  0
 28 27  2  0  0  0  0
 29 28  1  0  0  0  0
 29 24  2  0  0  0  0
 30 28  1  0  0  0  0
 30 31  1  0  0  0  0
 31 36  1  6  0  0  0
 31 32  1  0  0  0  0
 33 24  1  0  0  0  0
 35 29  1  0  0  0  0
 37 31  1  0  0  0  0
 37 38  1  0  0  0  0
 39 38  2  0  0  0  0
 39 40  1  0  0  0  0
 41 39  1  0  0  0  0
 42 43  1  0  0  0  0
 42 41  2  0  0  0  0
 43 37  2  0  0  0  0
M  END
>  <minimizedAffinity>
-5.47651243

$$$$
