
     RDKit          3D

 21 22  0  0  0  0  0  0  0  0999 V2000
   47.6789   34.9567   42.3424 C   0  0  0  0  0  0  0  0  0  0  0  0
   47.9221   33.9064   43.2482 C   0  0  0  0  0  0  0  0  0  0  0  0
   46.8999   33.5369   44.1240 C   0  0  0  0  0  0  0  0  0  0  0  0
   45.7294   34.2003   44.0631 N   0  0  0  0  0  0  0  0  0  0  0  0
   45.5073   35.2101   43.1862 C   0  0  0  0  0  0  0  0  0  0  0  0
   46.4843   35.5824   42.3306 N   0  0  0  0  0  0  0  0  0  0  0  0
   48.7924   35.3310   41.4162 C   0  0  0  0  0  0  0  0  0  0  0  0
   48.4153   35.2458   40.1054 F   0  0  0  0  0  0  0  0  0  0  0  0
   49.2060   36.6162   41.7642 F   0  0  0  0  0  0  0  0  0  0  0  0
   49.8963   34.4992   41.6777 F   0  0  0  0  0  0  0  0  0  0  0  0
   48.8523   33.3561   43.3193 H   0  0  0  0  0  0  0  0  0  0  0  0
   44.5713   35.7568   43.1217 H   0  0  0  0  0  0  0  0  0  0  0  0
   47.1028   32.4708   45.0655 C   0  0  0  0  0  0  0  0  0  0  0  0
   46.0333   31.6992   45.4691 C   0  0  0  0  0  0  0  0  0  0  0  0
   46.2685   30.6711   46.3862 C   0  0  0  0  0  0  0  0  0  0  0  0
   45.4715   30.0130   46.7568 H   0  0  0  0  0  0  0  0  0  0  0  0
   47.5207   30.4311   46.8738 N   0  0  0  0  0  0  0  0  0  0  0  0
   48.5245   31.2089   46.4499 C   0  0  0  0  0  0  0  0  0  0  0  0
   48.3195   32.2079   45.5642 N   0  0  0  0  0  0  0  0  0  0  0  0
   45.0306   31.8630   45.1025 H   0  0  0  0  0  0  0  0  0  0  0  0
   49.4859   30.9430   46.8928 H   0  0  0  0  0  0  0  0  0  0  0  0
  1  2  2  0
  2  3  1  0
  4  3  2  0
  5  4  1  0
  6  1  1  0
  6  5  2  0
  7 10  1  0
  7  9  1  0
  7  1  1  0
  8  7  1  0
  2 11  1  0
  5 12  1  0
 13 14  2  0
 14 15  1  0
 15 16  1  0
 15 17  2  0
 17 18  1  0
 18 19  2  0
 19 13  1  0
 14 20  1  0
 18 21  1  0
  3 13  1  0
M  ISO  3  11  14  12  14  16  14
M  END
>  <DihAtoms>  (1) 
1,2,12,13

>  <DihDeg>  (1) 
179.99967521525588

$$$$
