
 OpenBabel03252506033D

 26 28  0  0  0  0  0  0  0  0999 V2000
   36.9500   32.4960   40.1060 Cl  0  0  0  0  0  0  0  0  0  0  0  0
   37.6380   31.0080   40.6600 C   0  0  0  0  0  0  0  0  0  0  0  0
   38.9510   30.7070   40.3940 C   0  0  0  0  0  0  0  0  0  0  0  0
   39.4040   29.5070   40.8720 C   0  0  0  0  0  0  0  0  0  0  0  0
   38.6730   28.5890   41.5840 C   0  0  0  0  0  0  0  0  0  0  0  0
   37.3620   28.9140   41.8370 C   0  0  0  0  0  0  0  0  0  0  0  0
   36.4110   27.7660   42.7530 Cl  0  0  0  0  0  0  0  0  0  0  0  0
   36.8450   30.1070   41.3830 C   0  0  0  0  0  0  0  0  0  0  0  0
   40.4610   29.2910   40.6460 H   0  0  0  0  0  0  0  0  0  0  0  0
   35.8000   30.3390   41.5980 H   0  0  0  0  0  0  0  0  0  0  0  0
   40.6920   32.2600   37.5760 C   0  0  0  0  0  0  0  0  0  0  0  0
   41.4460   33.2790   38.1920 C   0  0  0  0  0  0  0  0  0  0  0  0
   41.3520   33.4330   39.6030 C   0  0  0  0  0  0  0  0  0  0  0  0
   40.5330   32.5780   40.2650 N   0  0  0  0  0  0  0  0  0  0  0  0
   39.8210   31.6080   39.6470 C   0  0  0  0  0  0  0  0  0  0  0  0
   39.9020   31.4510   38.3030 N   0  0  0  0  0  0  0  0  0  0  0  0
   40.7900   32.1730   36.5020 H   0  0  0  0  0  0  0  0  0  0  0  0
   42.0920   33.9590   37.6940 H   0  0  0  0  0  0  0  0  0  0  0  0
   41.9020   34.1930   40.1380 H   0  0  0  0  0  0  0  0  0  0  0  0
   39.2110   27.3220   42.0670 C   0  0  0  0  0  0  0  0  0  0  0  0
   39.8360   27.1610   43.2830 C   0  0  0  0  0  3  0  0  0  0  0  0
   40.3290   25.9170   43.6800 C   0  0  0  0  0  0  0  0  0  0  0  0
   40.8140   25.8750   44.6650 H   0  0  0  0  0  0  0  0  0  0  0  0
   40.2050   24.8370   42.8840 N   0  0  0  0  0  0  0  0  0  0  0  0
   39.5920   25.0120   41.6990 C   0  0  0  0  0  3  0  0  0  0  0  0
   39.1160   26.2110   41.3150 N   0  0  0  0  0  0  0  0  0  0  0  0
  1  2  1  0  0  0  0
  2  8  1  0  0  0  0
  3  2  2  0  0  0  0
  3  4  1  0  0  0  0
  4  5  2  0  0  0  0
  5  6  1  0  0  0  0
  5 20  1  0  0  0  0
  6  7  1  0  0  0  0
  8 10  1  0  0  0  0
  8  6  2  0  0  0  0
  9  4  1  0  0  0  0
 11 12  2  0  0  0  0
 11 16  1  0  0  0  0
 12 13  1  0  0  0  0
 13 19  1  0  0  0  0
 13 14  2  0  0  0  0
 15 14  1  0  0  0  0
 15  3  1  0  0  0  0
 16 15  2  0  0  0  0
 17 11  1  0  0  0  0
 18 12  1  0  0  0  0
 20 21  1  0  0  0  0
 21 22  2  0  0  0  0
 22 23  1  0  0  0  0
 24 22  1  0  0  0  0
 25 24  2  0  0  0  0
 26 25  1  0  0  0  0
 26 20  2  0  0  0  0
M  END
>  <minimizedAffinity>
-4.96603918

$$$$

 OpenBabel03252506033D

 26 28  0  0  0  0  0  0  0  0999 V2000
   36.0550   28.3740   41.7690 Cl  0  0  0  0  0  0  0  0  0  0  0  0
   37.2540   29.4960   41.2220 C   0  0  0  0  0  0  0  0  0  0  0  0
   38.5880   29.1790   41.2920 C   0  0  0  0  0  0  0  0  0  0  0  0
   39.4600   30.1300   40.8360 C   0  0  0  0  0  0  0  0  0  0  0  0
   39.1250   31.3590   40.3230 C   0  0  0  0  0  0  0  0  0  0  0  0
   37.7840   31.6520   40.2640 C   0  0  0  0  0  0  0  0  0  0  0  0
   37.3290   33.2060   39.6020 Cl  0  0  0  0  0  0  0  0  0  0  0  0
   36.8550   30.7360   40.7060 C   0  0  0  0  0  0  0  0  0  0  0  0
   40.5230   29.8490   40.9030 H   0  0  0  0  0  0  0  0  0  0  0  0
   35.7960   30.9960   40.6480 H   0  0  0  0  0  0  0  0  0  0  0  0
   39.6790   25.6880   41.3940 C   0  0  0  0  0  0  0  0  0  0  0  0
   39.9420   25.4790   42.7620 C   0  0  0  0  0  0  0  0  0  0  0  0
   39.7400   26.5590   43.6650 C   0  0  0  0  0  0  0  0  0  0  0  0
   39.3030   27.7300   43.1390 N   0  0  0  0  0  0  0  0  0  0  0  0
   39.0580   27.9030   41.8190 C   0  0  0  0  0  0  0  0  0  0  0  0
   39.2470   26.8810   40.9490 N   0  0  0  0  0  0  0  0  0  0  0  0
   39.8440   24.8440   40.7380 H   0  0  0  0  0  0  0  0  0  0  0  0
   40.2850   24.5710   43.1950 H   0  0  0  0  0  0  0  0  0  0  0  0
   39.9220   26.4670   44.7250 H   0  0  0  0  0  0  0  0  0  0  0  0
   40.1010   32.3350   39.8530 C   0  0  0  0  0  0  0  0  0  0  0  0
   40.7270   33.2550   40.6640 C   0  0  0  0  0  3  0  0  0  0  0  0
   41.6520   34.1610   40.1440 C   0  0  0  0  0  0  0  0  0  0  0  0
   42.1060   34.8620   40.8590 H   0  0  0  0  0  0  0  0  0  0  0  0
   41.9610   34.1610   38.8330 N   0  0  0  0  0  0  0  0  0  0  0  0
   41.3400   33.2550   38.0540 C   0  0  0  0  0  3  0  0  0  0  0  0
   40.4470   32.3800   38.5540 N   0  0  0  0  0  0  0  0  0  0  0  0
  2  3  1  0  0  0  0
  2  1  1  0  0  0  0
  3 15  1  0  0  0  0
  4  9  1  0  0  0  0
  4  3  2  0  0  0  0
  5  4  1  0  0  0  0
  6  5  2  0  0  0  0
  6  8  1  0  0  0  0
  7  6  1  0  0  0  0
  8  2  2  0  0  0  0
 10  8  1  0  0  0  0
 11 12  1  0  0  0  0
 12 18  1  0  0  0  0
 12 13  2  0  0  0  0
 13 19  1  0  0  0  0
 14 13  1  0  0  0  0
 15 14  2  0  0  0  0
 16 11  2  0  0  0  0
 16 15  1  0  0  0  0
 17 11  1  0  0  0  0
 20  5  1  0  0  0  0
 20 21  1  0  0  0  0
 22 21  2  0  0  0  0
 22 23  1  0  0  0  0
 24 22  1  0  0  0  0
 25 26  1  0  0  0  0
 25 24  2  0  0  0  0
 26 20  2  0  0  0  0
M  END
>  <minimizedAffinity>
-4.82373953

$$$$

 OpenBabel03252506033D

 26 28  0  0  0  0  0  0  0  0999 V2000
   40.1000   30.9750   42.8770 Cl  0  0  0  0  0  0  0  0  0  0  0  0
   39.5650   29.4150   42.3510 C   0  0  0  0  0  0  0  0  0  0  0  0
   38.8060   29.2870   41.2130 C   0  0  0  0  0  0  0  0  0  0  0  0
   38.4300   28.0140   40.8790 C   0  0  0  0  0  0  0  0  0  0  0  0
   38.7390   26.8680   41.5700 C   0  0  0  0  0  0  0  0  0  0  0  0
   39.4990   27.0240   42.7040 C   0  0  0  0  0  0  0  0  0  0  0  0
   39.9170   25.5790   43.5970 Cl  0  0  0  0  0  0  0  0  0  0  0  0
   39.9100   28.2790   43.0950 C   0  0  0  0  0  0  0  0  0  0  0  0
   37.8230   27.9390   39.9630 H   0  0  0  0  0  0  0  0  0  0  0  0
   40.5130   28.3730   44.0000 H   0  0  0  0  0  0  0  0  0  0  0  0
   36.9730   32.2470   40.0910 C   0  0  0  0  0  0  0  0  0  0  0  0
   37.6480   32.6080   38.9080 C   0  0  0  0  0  0  0  0  0  0  0  0
   38.7540   31.8170   38.4900 C   0  0  0  0  0  0  0  0  0  0  0  0
   39.0860   30.7580   39.2700 N   0  0  0  0  0  0  0  0  0  0  0  0
   38.4190   30.4340   40.4020 C   0  0  0  0  0  0  0  0  0  0  0  0
   37.3630   31.1800   40.8100 N   0  0  0  0  0  0  0  0  0  0  0  0
   36.1370   32.8710   40.3760 H   0  0  0  0  0  0  0  0  0  0  0  0
   37.4050   33.4320   38.2830 H   0  0  0  0  0  0  0  0  0  0  0  0
   39.3150   32.0370   37.5950 H   0  0  0  0  0  0  0  0  0  0  0  0
   38.3070   25.5360   41.1650 C   0  0  0  0  0  0  0  0  0  0  0  0
   37.0540   25.0210   41.4090 C   0  0  0  0  0  3  0  0  0  0  0  0
   36.7100   23.7340   40.9920 C   0  0  0  0  0  0  0  0  0  0  0  0
   35.6900   23.4000   41.2260 H   0  0  0  0  0  0  0  0  0  0  0  0
   37.5950   22.9590   40.3360 N   0  0  0  0  0  0  0  0  0  0  0  0
   38.8160   23.4770   40.1060 C   0  0  0  0  0  3  0  0  0  0  0  0
   39.1490   24.7180   40.5080 N   0  0  0  0  0  0  0  0  0  0  0  0
  2  1  1  0  0  0  0
  2  8  1  0  0  0  0
  3  2  2  0  0  0  0
  4  3  1  0  0  0  0
  4  5  2  0  0  0  0
  5  6  1  0  0  0  0
  6  8  2  0  0  0  0
  6  7  1  0  0  0  0
  8 10  1  0  0  0  0
  9  4  1  0  0  0  0
 11 17  1  0  0  0  0
 11 16  1  0  0  0  0
 12 11  2  0  0  0  0
 13 12  1  0  0  0  0
 13 14  2  0  0  0  0
 14 15  1  0  0  0  0
 15 16  2  0  0  0  0
 15  3  1  0  0  0  0
 18 12  1  0  0  0  0
 19 13  1  0  0  0  0
 20 21  1  0  0  0  0
 20  5  1  0  0  0  0
 22 23  1  0  0  0  0
 22 21  2  0  0  0  0
 24 22  1  0  0  0  0
 25 24  2  0  0  0  0
 25 26  1  0  0  0  0
 26 20  2  0  0  0  0
M  END
>  <minimizedAffinity>
-4.79506779

$$$$

 OpenBabel03252506033D

 26 28  0  0  0  0  0  0  0  0999 V2000
   39.9600   25.6960   43.6800 Cl  0  0  0  0  0  0  0  0  0  0  0  0
   39.4930   27.0520   42.7110 C   0  0  0  0  0  0  0  0  0  0  0  0
   38.7310   26.8710   41.5830 C   0  0  0  0  0  0  0  0  0  0  0  0
   38.4120   28.0030   40.8810 C   0  0  0  0  0  0  0  0  0  0  0  0
   38.7820   29.2860   41.2010 C   0  0  0  0  0  0  0  0  0  0  0  0
   39.5440   29.4390   42.3330 C   0  0  0  0  0  0  0  0  0  0  0  0
   40.0190   31.0660   42.7690 Cl  0  0  0  0  0  0  0  0  0  0  0  0
   39.8980   28.3400   43.0840 C   0  0  0  0  0  0  0  0  0  0  0  0
   37.8000   27.8290   39.9820 H   0  0  0  0  0  0  0  0  0  0  0  0
   40.5050   28.4910   43.9790 H   0  0  0  0  0  0  0  0  0  0  0  0
   38.8090   23.5110   40.1370 C   0  0  0  0  0  0  0  0  0  0  0  0
   37.4850   23.0600   40.3130 C   0  0  0  0  0  0  0  0  0  0  0  0
   36.5500   23.9290   40.9400 C   0  0  0  0  0  0  0  0  0  0  0  0
   37.0040   25.1460   41.3310 N   0  0  0  0  0  0  0  0  0  0  0  0
   38.2810   25.5540   41.1490 C   0  0  0  0  0  0  0  0  0  0  0  0
   39.1810   24.7340   40.5530 N   0  0  0  0  0  0  0  0  0  0  0  0
   39.4900   22.8230   39.6560 H   0  0  0  0  0  0  0  0  0  0  0  0
   37.1090   22.1120   40.0150 H   0  0  0  0  0  0  0  0  0  0  0  0
   35.5220   23.6470   41.1060 H   0  0  0  0  0  0  0  0  0  0  0  0
   38.4130   30.4560   40.4120 C   0  0  0  0  0  0  0  0  0  0  0  0
   37.2870   31.2150   40.6350 C   0  0  0  0  0  3  0  0  0  0  0  0
   36.9960   32.3230   39.8380 C   0  0  0  0  0  0  0  0  0  0  0  0
   36.0780   32.8750   40.0830 H   0  0  0  0  0  0  0  0  0  0  0  0
   37.8110   32.6820   38.8270 N   0  0  0  0  0  0  0  0  0  0  0  0
   38.9070   31.9290   38.6220 C   0  0  0  0  0  3  0  0  0  0  0  0
   39.1890   30.8600   39.3910 N   0  0  0  0  0  0  0  0  0  0  0  0
  2  8  1  0  0  0  0
  2  1  1  0  0  0  0
  3  2  2  0  0  0  0
  4  5  2  0  0  0  0
  4  3  1  0  0  0  0
  5  6  1  0  0  0  0
  6  7  1  0  0  0  0
  6  8  2  0  0  0  0
  8 10  1  0  0  0  0
  9  4  1  0  0  0  0
 11 12  2  0  0  0  0
 11 16  1  0  0  0  0
 12 13  1  0  0  0  0
 13 19  1  0  0  0  0
 13 14  2  0  0  0  0
 15 14  1  0  0  0  0
 15  3  1  0  0  0  0
 16 15  2  0  0  0  0
 17 11  1  0  0  0  0
 18 12  1  0  0  0  0
 20 21  1  0  0  0  0
 20  5  1  0  0  0  0
 22 23  1  0  0  0  0
 22 21  2  0  0  0  0
 24 22  1  0  0  0  0
 25 24  2  0  0  0  0
 25 26  1  0  0  0  0
 26 20  2  0  0  0  0
M  END
>  <minimizedAffinity>
-4.6955657

$$$$

 OpenBabel03252506033D

 26 28  0  0  0  0  0  0  0  0999 V2000
   35.2680   27.8850   38.6410 Cl  0  0  0  0  0  0  0  0  0  0  0  0
   36.5050   29.0950   38.6710 C   0  0  0  0  0  0  0  0  0  0  0  0
   37.4160   29.1340   39.6970 C   0  0  0  0  0  0  0  0  0  0  0  0
   38.3550   30.1280   39.6340 C   0  0  0  0  0  0  0  0  0  0  0  0
   38.4660   31.0780   38.6490 C   0  0  0  0  0  0  0  0  0  0  0  0
   37.5430   31.0170   37.6340 C   0  0  0  0  0  0  0  0  0  0  0  0
   37.6700   32.2090   36.3590 Cl  0  0  0  0  0  0  0  0  0  0  0  0
   36.5720   30.0410   37.6380 C   0  0  0  0  0  0  0  0  0  0  0  0
   39.0740   30.1360   40.4690 H   0  0  0  0  0  0  0  0  0  0  0  0
   35.8510   30.0160   36.8190 H   0  0  0  0  0  0  0  0  0  0  0  0
   38.1160   26.1230   41.6540 C   0  0  0  0  0  0  0  0  0  0  0  0
   37.3810   26.3370   42.8370 C   0  0  0  0  0  0  0  0  0  0  0  0
   36.6330   27.5390   42.9630 C   0  0  0  0  0  0  0  0  0  0  0  0
   36.6780   28.4070   41.9220 N   0  0  0  0  0  0  0  0  0  0  0  0
   37.3930   28.1760   40.7960 C   0  0  0  0  0  0  0  0  0  0  0  0
   38.1100   27.0330   40.6650 N   0  0  0  0  0  0  0  0  0  0  0  0
   38.6720   25.1970   41.5950 H   0  0  0  0  0  0  0  0  0  0  0  0
   37.3310   25.6710   43.6640 H   0  0  0  0  0  0  0  0  0  0  0  0
   36.0490   27.7660   43.8420 H   0  0  0  0  0  0  0  0  0  0  0  0
   39.4900   32.1170   38.6360 C   0  0  0  0  0  0  0  0  0  0  0  0
   39.5000   33.2030   39.4810 C   0  0  0  0  0  3  0  0  0  0  0  0
   40.5140   34.1600   39.4110 C   0  0  0  0  0  0  0  0  0  0  0  0
   40.4480   34.9960   40.1220 H   0  0  0  0  0  0  0  0  0  0  0  0
   41.5130   34.0470   38.5140 N   0  0  0  0  0  0  0  0  0  0  0  0
   41.4870   32.9800   37.6950 C   0  0  0  0  0  3  0  0  0  0  0  0
   40.5100   32.0550   37.7620 N   0  0  0  0  0  0  0  0  0  0  0  0
  1  2  1  0  0  0  0
  2  3  1  0  0  0  0
  3 15  1  0  0  0  0
  4  3  2  0  0  0  0
  4  9  1  0  0  0  0
  5  4  1  0  0  0  0
  6  8  1  0  0  0  0
  6  5  2  0  0  0  0
  7  6  1  0  0  0  0
  8  2  2  0  0  0  0
 10  8  1  0  0  0  0
 11 12  1  0  0  0  0
 12 13  2  0  0  0  0
 12 18  1  0  0  0  0
 13 19  1  0  0  0  0
 14 13  1  0  0  0  0
 15 14  2  0  0  0  0
 16 15  1  0  0  0  0
 16 11  2  0  0  0  0
 17 11  1  0  0  0  0
 20  5  1  0  0  0  0
 20 21  1  0  0  0  0
 22 21  2  0  0  0  0
 22 23  1  0  0  0  0
 24 22  1  0  0  0  0
 25 26  1  0  0  0  0
 25 24  2  0  0  0  0
 26 20  2  0  0  0  0
M  END
>  <minimizedAffinity>
-4.68659687

$$$$

 OpenBabel03252506033D

 26 28  0  0  0  0  0  0  0  0999 V2000
   37.9030   32.0690   36.4300 Cl  0  0  0  0  0  0  0  0  0  0  0  0
   37.8710   31.0760   37.8480 C   0  0  0  0  0  0  0  0  0  0  0  0
   39.0430   30.6660   38.4360 C   0  0  0  0  0  0  0  0  0  0  0  0
   38.9160   29.8830   39.5520 C   0  0  0  0  0  0  0  0  0  0  0  0
   37.7390   29.4760   40.1280 C   0  0  0  0  0  0  0  0  0  0  0  0
   36.5820   29.9000   39.5210 C   0  0  0  0  0  0  0  0  0  0  0  0
   35.0670   29.4060   40.2420 Cl  0  0  0  0  0  0  0  0  0  0  0  0
   36.6400   30.6910   38.3940 C   0  0  0  0  0  0  0  0  0  0  0  0
   39.8710   29.5700   40.0040 H   0  0  0  0  0  0  0  0  0  0  0  0
   35.7050   31.0120   37.9320 H   0  0  0  0  0  0  0  0  0  0  0  0
   41.9270   32.7230   37.5210 C   0  0  0  0  0  0  0  0  0  0  0  0
   42.8050   31.7920   36.9310 C   0  0  0  0  0  0  0  0  0  0  0  0
   42.3960   30.4320   36.8470 C   0  0  0  0  0  0  0  0  0  0  0  0
   41.1730   30.1230   37.3480 N   0  0  0  0  0  0  0  0  0  0  0  0
   40.3500   31.0380   37.9090 C   0  0  0  0  0  0  0  0  0  0  0  0
   40.7300   32.3370   37.9950 N   0  0  0  0  0  0  0  0  0  0  0  0
   42.2730   33.7470   37.5670 H   0  0  0  0  0  0  0  0  0  0  0  0
   43.7650   32.0120   36.5330 H   0  0  0  0  0  0  0  0  0  0  0  0
   43.0190   29.6680   36.4080 H   0  0  0  0  0  0  0  0  0  0  0  0
   37.6660   28.6390   41.3200 C   0  0  0  0  0  0  0  0  0  0  0  0
   37.6830   27.2630   41.3000 C   0  0  0  0  0  3  0  0  0  0  0  0
   37.6100   26.5250   42.4830 C   0  0  0  0  0  0  0  0  0  0  0  0
   37.6300   25.4310   42.3780 H   0  0  0  0  0  0  0  0  0  0  0  0
   37.5210   27.1390   43.6780 N   0  0  0  0  0  0  0  0  0  0  0  0
   37.5060   28.4840   43.6800 C   0  0  0  0  0  3  0  0  0  0  0  0
   37.5770   29.1980   42.5400 N   0  0  0  0  0  0  0  0  0  0  0  0
  1  2  1  0  0  0  0
  2  8  2  0  0  0  0
  2  3  1  0  0  0  0
  3  4  2  0  0  0  0
  4  9  1  0  0  0  0
  4  5  1  0  0  0  0
  5 20  1  0  0  0  0
  6  5  2  0  0  0  0
  6  7  1  0  0  0  0
  8  6  1  0  0  0  0
 10  8  1  0  0  0  0
 11 17  1  0  0  0  0
 11 16  1  0  0  0  0
 12 11  2  0  0  0  0
 13 12  1  0  0  0  0
 13 14  2  0  0  0  0
 14 15  1  0  0  0  0
 15 16  2  0  0  0  0
 15  3  1  0  0  0  0
 18 12  1  0  0  0  0
 19 13  1  0  0  0  0
 20 26  1  0  0  0  0
 21 20  2  0  0  0  0
 21 22  1  0  0  0  0
 22 24  2  0  0  0  0
 23 22  1  0  0  0  0
 24 25  1  0  0  0  0
 26 25  2  0  0  0  0
M  END
>  <minimizedAffinity>
-4.65960693

$$$$

 OpenBabel03252506033D

 26 28  0  0  0  0  0  0  0  0999 V2000
   40.4250   34.1210   39.3290 Cl  0  0  0  0  0  0  0  0  0  0  0  0
   39.7950   32.6910   40.0740 C   0  0  0  0  0  0  0  0  0  0  0  0
   40.6270   31.8380   40.7570 C   0  0  0  0  0  0  0  0  0  0  0  0
   40.0370   30.7330   41.3110 C   0  0  0  0  0  0  0  0  0  0  0  0
   38.7050   30.4060   41.2440 C   0  0  0  0  0  0  0  0  0  0  0  0
   37.8950   31.2760   40.5550 C   0  0  0  0  0  0  0  0  0  0  0  0
   36.1910   30.8880   40.4660 Cl  0  0  0  0  0  0  0  0  0  0  0  0
   38.4270   32.4060   39.9750 C   0  0  0  0  0  0  0  0  0  0  0  0
   40.7260   30.0680   41.8540 H   0  0  0  0  0  0  0  0  0  0  0  0
   37.7600   33.0780   39.4330 H   0  0  0  0  0  0  0  0  0  0  0  0
   43.8220   32.8510   42.2230 C   0  0  0  0  0  0  0  0  0  0  0  0
   44.7440   32.5740   41.1940 C   0  0  0  0  0  0  0  0  0  0  0  0
   44.2560   32.0280   39.9750 C   0  0  0  0  0  0  0  0  0  0  0  0
   42.9200   31.8100   39.8870 N   0  0  0  0  0  0  0  0  0  0  0  0
   42.0570   32.0860   40.8910 C   0  0  0  0  0  0  0  0  0  0  0  0
   42.5100   32.6070   42.0580 N   0  0  0  0  0  0  0  0  0  0  0  0
   44.2300   33.2660   43.1350 H   0  0  0  0  0  0  0  0  0  0  0  0
   45.7930   32.7370   41.2420 H   0  0  0  0  0  0  0  0  0  0  0  0
   44.9070   31.7920   39.1470 H   0  0  0  0  0  0  0  0  0  0  0  0
   38.1330   29.2110   41.8540 C   0  0  0  0  0  0  0  0  0  0  0  0
   37.7100   29.1370   43.1620 C   0  0  0  0  0  3  0  0  0  0  0  0
   37.1720   27.9580   43.6790 C   0  0  0  0  0  0  0  0  0  0  0  0
   36.8580   27.9840   44.7320 H   0  0  0  0  0  0  0  0  0  0  0  0
   37.0500   26.8570   42.9120 N   0  0  0  0  0  0  0  0  0  0  0  0
   37.4680   26.9470   41.6360 C   0  0  0  0  0  3  0  0  0  0  0  0
   37.9870   28.0840   41.1350 N   0  0  0  0  0  0  0  0  0  0  0  0
  1  2  1  0  0  0  0
  2  3  1  0  0  0  0
  3 15  1  0  0  0  0
  3  4  2  0  0  0  0
  4  9  1  0  0  0  0
  5  4  1  0  0  0  0
  5 20  1  0  0  0  0
  6  5  2  0  0  0  0
  7  6  1  0  0  0  0
  8  2  2  0  0  0  0
  8  6  1  0  0  0  0
 10  8  1  0  0  0  0
 11 17  1  0  0  0  0
 12 18  1  0  0  0  0
 12 11  2  0  0  0  0
 13 12  1  0  0  0  0
 14 13  2  0  0  0  0
 14 15  1  0  0  0  0
 15 16  2  0  0  0  0
 16 11  1  0  0  0  0
 19 13  1  0  0  0  0
 20 21  1  0  0  0  0
 21 22  2  0  0  0  0
 22 23  1  0  0  0  0
 24 22  1  0  0  0  0
 25 24  2  0  0  0  0
 26 25  1  0  0  0  0
 26 20  2  0  0  0  0
M  END
>  <minimizedAffinity>
-4.49280453

$$$$

 OpenBabel03252506033D

 26 28  0  0  0  0  0  0  0  0999 V2000
   37.1130   24.1950   41.9400 Cl  0  0  0  0  0  0  0  0  0  0  0  0
   37.3390   25.8540   41.4980 C   0  0  0  0  0  0  0  0  0  0  0  0
   37.2600   26.2410   40.1830 C   0  0  0  0  0  0  0  0  0  0  0  0
   37.4550   27.5730   39.9330 C   0  0  0  0  0  0  0  0  0  0  0  0
   37.7190   28.5430   40.8670 C   0  0  0  0  0  0  0  0  0  0  0  0
   37.7920   28.1300   42.1750 C   0  0  0  0  0  0  0  0  0  0  0  0
   38.1150   29.3500   43.3870 Cl  0  0  0  0  0  0  0  0  0  0  0  0
   37.6060   26.8030   42.4940 C   0  0  0  0  0  0  0  0  0  0  0  0
   37.3850   27.8550   38.8700 H   0  0  0  0  0  0  0  0  0  0  0  0
   37.6700   26.5030   43.5410 H   0  0  0  0  0  0  0  0  0  0  0  0
   37.8260   23.7960   37.5200 C   0  0  0  0  0  0  0  0  0  0  0  0
   36.5210   23.5040   37.0770 C   0  0  0  0  0  0  0  0  0  0  0  0
   35.4280   24.1600   37.7060 C   0  0  0  0  0  0  0  0  0  0  0  0
   35.7210   25.0330   38.7020 N   0  0  0  0  0  0  0  0  0  0  0  0
   36.9850   25.2950   39.1080 C   0  0  0  0  0  0  0  0  0  0  0  0
   38.0350   24.6750   38.5160 N   0  0  0  0  0  0  0  0  0  0  0  0
   38.6320   23.2780   37.0180 H   0  0  0  0  0  0  0  0  0  0  0  0
   36.2690   22.8250   36.2990 H   0  0  0  0  0  0  0  0  0  0  0  0
   34.4040   23.9820   37.4150 H   0  0  0  0  0  0  0  0  0  0  0  0
   37.9190   29.9500   40.5390 C   0  0  0  0  0  0  0  0  0  0  0  0
   36.9070   30.8820   40.4800 C   0  0  0  0  0  3  0  0  0  0  0  0
   37.1740   32.2140   40.1580 C   0  0  0  0  0  0  0  0  0  0  0  0
   36.3090   32.8930   40.1330 H   0  0  0  0  0  0  0  0  0  0  0  0
   38.4290   32.6260   39.8980 N   0  0  0  0  0  0  0  0  0  0  0  0
   39.4060   31.7030   39.9600 C   0  0  0  0  0  3  0  0  0  0  0  0
   39.1510   30.4180   40.2700 N   0  0  0  0  0  0  0  0  0  0  0  0
  2  1  1  0  0  0  0
  2  8  1  0  0  0  0
  3  2  2  0  0  0  0
  4  3  1  0  0  0  0
  4  5  2  0  0  0  0
  5  6  1  0  0  0  0
  6  8  2  0  0  0  0
  6  7  1  0  0  0  0
  8 10  1  0  0  0  0
  9  4  1  0  0  0  0
 11 16  1  0  0  0  0
 12 11  2  0  0  0  0
 12 13  1  0  0  0  0
 13 14  2  0  0  0  0
 14 15  1  0  0  0  0
 15  3  1  0  0  0  0
 16 15  2  0  0  0  0
 17 11  1  0  0  0  0
 18 12  1  0  0  0  0
 19 13  1  0  0  0  0
 20  5  1  0  0  0  0
 21 20  1  0  0  0  0
 22 21  2  0  0  0  0
 23 22  1  0  0  0  0
 24 25  2  0  0  0  0
 24 22  1  0  0  0  0
 25 26  1  0  0  0  0
 26 20  2  0  0  0  0
M  END
>  <minimizedAffinity>
-4.4173584

$$$$

 OpenBabel03252506033D

 26 28  0  0  0  0  0  0  0  0999 V2000
   39.2530   29.5090   39.3670 Cl  0  0  0  0  0  0  0  0  0  0  0  0
   37.6770   29.1740   38.7330 C   0  0  0  0  0  0  0  0  0  0  0  0
   36.7180   28.5920   39.5250 C   0  0  0  0  0  0  0  0  0  0  0  0
   35.5030   28.3660   38.9350 C   0  0  0  0  0  0  0  0  0  0  0  0
   35.1630   28.6650   37.6390 C   0  0  0  0  0  0  0  0  0  0  0  0
   36.1400   29.2460   36.8680 C   0  0  0  0  0  0  0  0  0  0  0  0
   35.7280   29.6480   35.2160 Cl  0  0  0  0  0  0  0  0  0  0  0  0
   37.3840   29.5000   37.4030 C   0  0  0  0  0  0  0  0  0  0  0  0
   34.7530   27.9000   39.5930 H   0  0  0  0  0  0  0  0  0  0  0  0
   38.1410   29.9630   36.7670 H   0  0  0  0  0  0  0  0  0  0  0  0
   37.3540   28.9450   43.1110 C   0  0  0  0  0  0  0  0  0  0  0  0
   37.4450   27.6080   43.5490 C   0  0  0  0  0  0  0  0  0  0  0  0
   37.2850   26.5680   42.5920 C   0  0  0  0  0  0  0  0  0  0  0  0
   37.0520   26.9410   41.3080 N   0  0  0  0  0  0  0  0  0  0  0  0
   36.9690   28.2330   40.9160 C   0  0  0  0  0  0  0  0  0  0  0  0
   37.1210   29.2320   41.8180 N   0  0  0  0  0  0  0  0  0  0  0  0
   37.4820   29.7080   43.8670 H   0  0  0  0  0  0  0  0  0  0  0  0
   37.6270   27.2950   44.5480 H   0  0  0  0  0  0  0  0  0  0  0  0
   37.3420   25.5250   42.8600 H   0  0  0  0  0  0  0  0  0  0  0  0
   33.8500   28.3980   37.0640 C   0  0  0  0  0  0  0  0  0  0  0  0
   33.4990   27.2170   36.4500 C   0  0  0  0  0  3  0  0  0  0  0  0
   32.2210   27.0330   35.9210 C   0  0  0  0  0  0  0  0  0  0  0  0
   32.0230   26.0600   35.4480 H   0  0  0  0  0  0  0  0  0  0  0  0
   31.2920   28.0050   35.9960 N   0  0  0  0  0  0  0  0  0  0  0  0
   31.6510   29.1530   36.6000 C   0  0  0  0  0  3  0  0  0  0  0  0
   32.8840   29.3330   37.1110 N   0  0  0  0  0  0  0  0  0  0  0  0
  2  1  1  0  0  0  0
  2  3  1  0  0  0  0
  3 15  1  0  0  0  0
  4  3  2  0  0  0  0
  4  9  1  0  0  0  0
  5  4  1  0  0  0  0
  6  8  1  0  0  0  0
  6  5  2  0  0  0  0
  7  6  1  0  0  0  0
  8  2  2  0  0  0  0
 10  8  1  0  0  0  0
 11 12  1  0  0  0  0
 11 17  1  0  0  0  0
 12 18  1  0  0  0  0
 13 19  1  0  0  0  0
 13 12  2  0  0  0  0
 14 13  1  0  0  0  0
 15 14  2  0  0  0  0
 15 16  1  0  0  0  0
 16 11  2  0  0  0  0
 20 26  1  0  0  0  0
 20  5  1  0  0  0  0
 21 20  2  0  0  0  0
 22 24  2  0  0  0  0
 22 21  1  0  0  0  0
 23 22  1  0  0  0  0
 24 25  1  0  0  0  0
 25 26  2  0  0  0  0
M  END
>  <minimizedAffinity>
-4.41270256

$$$$
