
 OpenBabel03242516583D

 26 28  0  0  0  0  0  0  0  0999 V2000
   36.6570   28.4490   41.3160 C   0  0  0  0  0  0  0  0  0  0  0  0
   36.4200   27.4700   42.2580 C   0  0  0  0  0  0  0  0  0  0  0  0
   37.1010   27.4770   43.4530 C   0  0  0  0  0  0  0  0  0  0  0  0
   38.0140   28.4750   43.6800 C   0  0  0  0  0  0  0  0  0  0  0  0
   38.2840   29.4710   42.7740 C   0  0  0  0  0  0  0  0  0  0  0  0
   37.5750   29.4400   41.5620 C   0  0  0  0  0  0  0  0  0  0  0  0
   35.6950   26.6770   42.0750 H   0  0  0  0  0  0  0  0  0  0  0  0
   36.9090   26.7080   44.1830 H   0  0  0  0  0  0  0  0  0  0  0  0
   38.5410   28.4510   44.6410 H   0  0  0  0  0  0  0  0  0  0  0  0
   38.9930   30.2450   42.9540 H   0  0  0  0  0  0  0  0  0  0  0  0
   34.0530   28.8900   38.6060 C   0  0  0  0  0  0  0  0  0  0  0  0
   34.7160   29.0470   39.8390 C   0  0  0  0  0  0  0  0  0  0  0  0
   35.8920   28.3610   40.0820 C   0  0  0  0  0  0  0  0  0  0  0  0
   36.3440   27.5550   39.0810 N   0  0  0  0  0  0  0  0  0  0  0  0
   35.7110   27.4030   37.8970 C   0  0  0  0  0  0  0  0  0  0  0  0
   34.5550   28.0760   37.6570 N   0  0  0  0  0  0  0  0  0  0  0  0
   33.1360   29.4190   38.4080 H   0  0  0  0  0  0  0  0  0  0  0  0
   34.3320   29.6920   40.6110 H   0  0  0  0  0  0  0  0  0  0  0  0
   36.2310   26.7190   37.2310 H   0  0  0  0  0  0  0  0  0  0  0  0
   37.8240   30.4800   40.5670 C   0  0  0  0  0  0  0  0  0  0  0  0
   37.1780   31.6910   40.5690 C   0  0  0  0  0  3  0  0  0  0  0  0
   37.4040   32.6750   39.6350 C   0  0  0  0  0  0  0  0  0  0  0  0
   36.8690   33.6240   39.6720 H   0  0  0  0  0  0  0  0  0  0  0  0
   38.3060   32.4540   38.6580 N   0  0  0  0  0  0  0  0  0  0  0  0
   38.9600   31.2660   38.6320 C   0  0  0  0  0  3  0  0  0  0  0  0
   38.7250   30.3200   39.5520 N   0  0  0  0  0  0  0  0  0  0  0  0
  1  6  2  0  0  0  0
  1  2  1  0  0  0  0
  2  3  2  0  0  0  0
  3  4  1  0  0  0  0
  3  8  1  0  0  0  0
  4  9  1  0  0  0  0
  5 10  1  0  0  0  0
  5  4  2  0  0  0  0
  6  5  1  0  0  0  0
  7  2  1  0  0  0  0
 11 12  1  0  0  0  0
 12 13  2  0  0  0  0
 12 18  1  0  0  0  0
 13  1  1  0  0  0  0
 14 13  1  0  0  0  0
 15 14  2  0  0  0  0
 16 15  1  0  0  0  0
 16 11  2  0  0  0  0
 17 11  1  0  0  0  0
 19 15  1  0  0  0  0
 20 21  1  0  0  0  0
 20  6  1  0  0  0  0
 22 23  1  0  0  0  0
 22 21  2  0  0  0  0
 24 22  1  0  0  0  0
 25 24  2  0  0  0  0
 25 26  1  0  0  0  0
 26 20  2  0  0  0  0
M  END
>  <minimizedAffinity>
-4.95146132

$$$$

 OpenBabel03242516583D

 26 28  0  0  0  0  0  0  0  0999 V2000
   36.4910   28.5030   41.2840 C   0  0  0  0  0  0  0  0  0  0  0  0
   36.2220   27.5050   42.1970 C   0  0  0  0  0  0  0  0  0  0  0  0
   36.8830   27.4720   43.4040 C   0  0  0  0  0  0  0  0  0  0  0  0
   37.8070   28.4490   43.6700 C   0  0  0  0  0  0  0  0  0  0  0  0
   38.1080   29.4620   42.7940 C   0  0  0  0  0  0  0  0  0  0  0  0
   37.4200   29.4730   41.5700 C   0  0  0  0  0  0  0  0  0  0  0  0
   35.4880   26.7290   41.9820 H   0  0  0  0  0  0  0  0  0  0  0  0
   36.6650   26.6880   44.1100 H   0  0  0  0  0  0  0  0  0  0  0  0
   38.3170   28.3930   44.6390 H   0  0  0  0  0  0  0  0  0  0  0  0
   38.8270   30.2190   43.0050 H   0  0  0  0  0  0  0  0  0  0  0  0
   33.9040   28.9960   38.5670 C   0  0  0  0  0  0  0  0  0  0  0  0
   34.5440   29.1060   39.8170 C   0  0  0  0  0  0  0  0  0  0  0  0
   35.7470   28.4580   40.0360 C   0  0  0  0  0  0  0  0  0  0  0  0
   36.2470   27.7370   38.9930 N   0  0  0  0  0  0  0  0  0  0  0  0
   35.6350   27.6310   37.7940 C   0  0  0  0  0  0  0  0  0  0  0  0
   34.4540   28.2650   37.5780 N   0  0  0  0  0  0  0  0  0  0  0  0
   32.9660   29.4950   38.3870 H   0  0  0  0  0  0  0  0  0  0  0  0
   34.1210   29.6840   40.6210 H   0  0  0  0  0  0  0  0  0  0  0  0
   36.1950   27.0120   37.0950 H   0  0  0  0  0  0  0  0  0  0  0  0
   37.7040   30.5330   40.6050 C   0  0  0  0  0  0  0  0  0  0  0  0
   38.7040   30.4470   39.6690 C   0  0  0  0  0  3  0  0  0  0  0  0
   38.9800   31.4400   38.7590 C   0  0  0  0  0  0  0  0  0  0  0  0
   39.7840   31.3330   38.0310 H   0  0  0  0  0  0  0  0  0  0  0  0
   38.2380   32.5650   38.7740 N   0  0  0  0  0  0  0  0  0  0  0  0
   37.2430   32.6780   39.6890 C   0  0  0  0  0  3  0  0  0  0  0  0
   36.9900   31.6970   40.5680 N   0  0  0  0  0  0  0  0  0  0  0  0
  1  6  2  0  0  0  0
  1  2  1  0  0  0  0
  2  3  2  0  0  0  0
  3  4  1  0  0  0  0
  3  8  1  0  0  0  0
  4  9  1  0  0  0  0
  5 10  1  0  0  0  0
  5  4  2  0  0  0  0
  6  5  1  0  0  0  0
  7  2  1  0  0  0  0
 11 12  1  0  0  0  0
 12 13  2  0  0  0  0
 12 18  1  0  0  0  0
 13  1  1  0  0  0  0
 14 13  1  0  0  0  0
 15 14  2  0  0  0  0
 16 15  1  0  0  0  0
 16 11  2  0  0  0  0
 17 11  1  0  0  0  0
 19 15  1  0  0  0  0
 20  6  1  0  0  0  0
 21 20  2  0  0  0  0
 22 24  2  0  0  0  0
 22 21  1  0  0  0  0
 23 22  1  0  0  0  0
 24 25  1  0  0  0  0
 25 26  2  0  0  0  0
 26 20  1  0  0  0  0
M  END
>  <minimizedAffinity>
-4.91763067

$$$$

 OpenBabel03242516583D

 26 28  0  0  0  0  0  0  0  0999 V2000
   37.4560   29.4120   41.5180 C   0  0  0  0  0  0  0  0  0  0  0  0
   38.1700   29.4920   42.6950 C   0  0  0  0  0  0  0  0  0  0  0  0
   37.9930   28.5470   43.6790 C   0  0  0  0  0  0  0  0  0  0  0  0
   37.0950   27.5340   43.4600 C   0  0  0  0  0  0  0  0  0  0  0  0
   36.3620   27.4120   42.3060 C   0  0  0  0  0  0  0  0  0  0  0  0
   36.5610   28.3900   41.3170 C   0  0  0  0  0  0  0  0  0  0  0  0
   38.8820   30.2980   42.8670 H   0  0  0  0  0  0  0  0  0  0  0  0
   38.5560   28.6180   44.5960 H   0  0  0  0  0  0  0  0  0  0  0  0
   36.9760   26.7990   44.2650 H   0  0  0  0  0  0  0  0  0  0  0  0
   35.6660   26.6240   42.1390 H   0  0  0  0  0  0  0  0  0  0  0  0
   37.3560   32.6050   39.4900 C   0  0  0  0  0  0  0  0  0  0  0  0
   37.0340   31.6630   40.4860 C   0  0  0  0  0  0  0  0  0  0  0  0
   37.7060   30.4540   40.5360 C   0  0  0  0  0  0  0  0  0  0  0  0
   38.6650   30.2530   39.5880 N   0  0  0  0  0  0  0  0  0  0  0  0
   38.9750   31.1550   38.6320 C   0  0  0  0  0  0  0  0  0  0  0  0
   38.3160   32.3420   38.5820 N   0  0  0  0  0  0  0  0  0  0  0  0
   36.8370   33.5490   39.4420 H   0  0  0  0  0  0  0  0  0  0  0  0
   36.2710   31.8530   41.2200 H   0  0  0  0  0  0  0  0  0  0  0  0
   39.7680   30.8070   37.9730 H   0  0  0  0  0  0  0  0  0  0  0  0
   35.8060   28.3020   40.0700 C   0  0  0  0  0  0  0  0  0  0  0  0
   36.1680   27.4810   39.0300 C   0  0  0  0  0  3  0  0  0  0  0  0
   35.4660   27.3940   37.8510 C   0  0  0  0  0  0  0  0  0  0  0  0
   35.7870   26.7300   37.0490 H   0  0  0  0  0  0  0  0  0  0  0  0
   34.3600   28.1480   37.6910 N   0  0  0  0  0  0  0  0  0  0  0  0
   33.9790   28.9680   38.7020 C   0  0  0  0  0  3  0  0  0  0  0  0
   34.6780   29.0380   39.8450 N   0  0  0  0  0  0  0  0  0  0  0  0
  1  2  1  0  0  0  0
  2  7  1  0  0  0  0
  2  3  2  0  0  0  0
  3  8  1  0  0  0  0
  4  3  1  0  0  0  0
  4  9  1  0  0  0  0
  5  4  2  0  0  0  0
  6  1  2  0  0  0  0
  6  5  1  0  0  0  0
 10  5  1  0  0  0  0
 11 12  1  0  0  0  0
 12 13  2  0  0  0  0
 12 18  1  0  0  0  0
 13  1  1  0  0  0  0
 14 13  1  0  0  0  0
 15 14  2  0  0  0  0
 16 15  1  0  0  0  0
 16 11  2  0  0  0  0
 17 11  1  0  0  0  0
 19 15  1  0  0  0  0
 20  6  1  0  0  0  0
 21 20  2  0  0  0  0
 22 21  1  0  0  0  0
 23 22  1  0  0  0  0
 24 22  2  0  0  0  0
 24 25  1  0  0  0  0
 25 26  2  0  0  0  0
 26 20  1  0  0  0  0
M  END
>  <minimizedAffinity>
-4.91700411

$$$$

 OpenBabel03242516583D

 26 28  0  0  0  0  0  0  0  0999 V2000
   37.4510   31.7750   39.9350 C   0  0  0  0  0  0  0  0  0  0  0  0
   37.1530   33.0470   39.4900 C   0  0  0  0  0  0  0  0  0  0  0  0
   37.9360   34.1140   39.8660 C   0  0  0  0  0  0  0  0  0  0  0  0
   39.0090   33.8810   40.6870 C   0  0  0  0  0  0  0  0  0  0  0  0
   39.3460   32.6350   41.1550 C   0  0  0  0  0  0  0  0  0  0  0  0
   38.5310   31.5630   40.7560 C   0  0  0  0  0  0  0  0  0  0  0  0
   36.2990   33.2290   38.8390 H   0  0  0  0  0  0  0  0  0  0  0  0
   37.6940   35.1030   39.5140 H   0  0  0  0  0  0  0  0  0  0  0  0
   39.6110   34.7530   40.9700 H   0  0  0  0  0  0  0  0  0  0  0  0
   40.1800   32.4590   41.7920 H   0  0  0  0  0  0  0  0  0  0  0  0
   35.6780   29.1340   37.8860 C   0  0  0  0  0  0  0  0  0  0  0  0
   36.5770   30.1670   38.2150 C   0  0  0  0  0  0  0  0  0  0  0  0
   36.5690   30.7090   39.4880 C   0  0  0  0  0  0  0  0  0  0  0  0
   35.6650   30.1880   40.3640 N   0  0  0  0  0  0  0  0  0  0  0  0
   34.8030   29.1970   40.0510 C   0  0  0  0  0  0  0  0  0  0  0  0
   34.8080   28.6650   38.8010 N   0  0  0  0  0  0  0  0  0  0  0  0
   35.6760   28.7070   36.8960 H   0  0  0  0  0  0  0  0  0  0  0  0
   37.2800   30.5570   37.4980 H   0  0  0  0  0  0  0  0  0  0  0  0
   34.1640   28.9210   40.8870 H   0  0  0  0  0  0  0  0  0  0  0  0
   38.8500   30.2160   41.2250 C   0  0  0  0  0  0  0  0  0  0  0  0
   38.5460   29.7700   42.4870 C   0  0  0  0  0  3  0  0  0  0  0  0
   38.8450   28.5060   42.9380 C   0  0  0  0  0  0  0  0  0  0  0  0
   38.5870   28.1900   43.9490 H   0  0  0  0  0  0  0  0  0  0  0  0
   39.4700   27.6460   42.1090 N   0  0  0  0  0  0  0  0  0  0  0  0
   39.7820   28.0610   40.8560 C   0  0  0  0  0  3  0  0  0  0  0  0
   39.4820   29.2980   40.4350 N   0  0  0  0  0  0  0  0  0  0  0  0
  1  6  1  0  0  0  0
  2  3  1  0  0  0  0
  2  1  2  0  0  0  0
  3  4  2  0  0  0  0
  4  9  1  0  0  0  0
  4  5  1  0  0  0  0
  5 10  1  0  0  0  0
  6  5  2  0  0  0  0
  6 20  1  0  0  0  0
  7  2  1  0  0  0  0
  8  3  1  0  0  0  0
 11 12  2  0  0  0  0
 11 16  1  0  0  0  0
 12 13  1  0  0  0  0
 13  1  1  0  0  0  0
 13 14  2  0  0  0  0
 15 14  1  0  0  0  0
 15 19  1  0  0  0  0
 16 15  2  0  0  0  0
 17 11  1  0  0  0  0
 18 12  1  0  0  0  0
 20 21  1  0  0  0  0
 21 22  2  0  0  0  0
 22 23  1  0  0  0  0
 24 22  1  0  0  0  0
 25 24  2  0  0  0  0
 26 25  1  0  0  0  0
 26 20  2  0  0  0  0
M  END
>  <minimizedAffinity>
-4.87599277

$$$$

 OpenBabel03242516583D

 26 28  0  0  0  0  0  0  0  0999 V2000
   37.5670   29.1040   41.7150 C   0  0  0  0  0  0  0  0  0  0  0  0
   37.4330   28.9540   43.0790 C   0  0  0  0  0  0  0  0  0  0  0  0
   37.1310   27.7240   43.6160 C   0  0  0  0  0  0  0  0  0  0  0  0
   36.9680   26.6610   42.7640 C   0  0  0  0  0  0  0  0  0  0  0  0
   37.0920   26.7600   41.4010 C   0  0  0  0  0  0  0  0  0  0  0  0
   37.4010   28.0270   40.8790 C   0  0  0  0  0  0  0  0  0  0  0  0
   37.5620   29.8000   43.7530 H   0  0  0  0  0  0  0  0  0  0  0  0
   37.0280   27.6170   44.6830 H   0  0  0  0  0  0  0  0  0  0  0  0
   36.7260   25.6950   43.2240 H   0  0  0  0  0  0  0  0  0  0  0  0
   36.9650   25.9320   40.7440 H   0  0  0  0  0  0  0  0  0  0  0  0
   37.3830   32.5890   40.2540 C   0  0  0  0  0  0  0  0  0  0  0  0
   36.9670   31.3150   40.6860 C   0  0  0  0  0  0  0  0  0  0  0  0
   37.8860   30.4400   41.2370 C   0  0  0  0  0  0  0  0  0  0  0  0
   39.1710   30.8850   41.3270 N   0  0  0  0  0  0  0  0  0  0  0  0
   39.5720   32.1070   40.9140 C   0  0  0  0  0  0  0  0  0  0  0  0
   38.6710   32.9670   40.3720 N   0  0  0  0  0  0  0  0  0  0  0  0
   36.6750   33.2780   39.8220 H   0  0  0  0  0  0  0  0  0  0  0  0
   35.9440   30.9940   40.6000 H   0  0  0  0  0  0  0  0  0  0  0  0
   40.6350   32.2720   41.0740 H   0  0  0  0  0  0  0  0  0  0  0  0
   37.5460   28.1830   39.4340 C   0  0  0  0  0  0  0  0  0  0  0  0
   36.4770   28.2930   38.5800 C   0  0  0  0  0  3  0  0  0  0  0  0
   36.6040   28.4370   37.2180 C   0  0  0  0  0  0  0  0  0  0  0  0
   35.7280   28.5210   36.5740 H   0  0  0  0  0  0  0  0  0  0  0  0
   37.8370   28.4740   36.6760 N   0  0  0  0  0  0  0  0  0  0  0  0
   38.9120   28.3670   37.4960 C   0  0  0  0  0  3  0  0  0  0  0  0
   38.7670   28.2270   38.8220 N   0  0  0  0  0  0  0  0  0  0  0  0
  1  2  1  0  0  0  0
  2  3  2  0  0  0  0
  2  7  1  0  0  0  0
  3  8  1  0  0  0  0
  4  9  1  0  0  0  0
  4  3  1  0  0  0  0
  5  4  2  0  0  0  0
  6  5  1  0  0  0  0
  6  1  2  0  0  0  0
 10  5  1  0  0  0  0
 11 16  2  0  0  0  0
 11 12  1  0  0  0  0
 12 13  2  0  0  0  0
 13 14  1  0  0  0  0
 13  1  1  0  0  0  0
 15 19  1  0  0  0  0
 15 14  2  0  0  0  0
 16 15  1  0  0  0  0
 17 11  1  0  0  0  0
 18 12  1  0  0  0  0
 20  6  1  0  0  0  0
 21 20  2  0  0  0  0
 22 21  1  0  0  0  0
 23 22  1  0  0  0  0
 24 22  2  0  0  0  0
 24 25  1  0  0  0  0
 25 26  2  0  0  0  0
 26 20  1  0  0  0  0
M  END
>  <minimizedAffinity>
-4.67966175

$$$$

 OpenBabel03242516583D

 26 28  0  0  0  0  0  0  0  0999 V2000
   36.1470   27.9820   39.9990 C   0  0  0  0  0  0  0  0  0  0  0  0
   35.2800   28.9330   39.5000 C   0  0  0  0  0  0  0  0  0  0  0  0
   34.5800   28.6920   38.3410 C   0  0  0  0  0  0  0  0  0  0  0  0
   34.7640   27.4920   37.7020 C   0  0  0  0  0  0  0  0  0  0  0  0
   35.6130   26.5160   38.1610 C   0  0  0  0  0  0  0  0  0  0  0  0
   36.3170   26.7870   39.3450 C   0  0  0  0  0  0  0  0  0  0  0  0
   35.1370   29.8850   40.0090 H   0  0  0  0  0  0  0  0  0  0  0  0
   33.9060   29.4410   37.9590 H   0  0  0  0  0  0  0  0  0  0  0  0
   34.1920   27.3320   36.7800 H   0  0  0  0  0  0  0  0  0  0  0  0
   35.7530   25.5850   37.6620 H   0  0  0  0  0  0  0  0  0  0  0  0
   37.2390   28.2570   43.6110 C   0  0  0  0  0  0  0  0  0  0  0  0
   36.4920   27.8640   42.4840 C   0  0  0  0  0  0  0  0  0  0  0  0
   36.8460   28.3230   41.2280 C   0  0  0  0  0  0  0  0  0  0  0  0
   37.9280   29.1490   41.1650 N   0  0  0  0  0  0  0  0  0  0  0  0
   38.6460   29.5270   42.2450 C   0  0  0  0  0  0  0  0  0  0  0  0
   38.2990   29.0770   43.4790 N   0  0  0  0  0  0  0  0  0  0  0  0
   36.9710   27.9060   44.5950 H   0  0  0  0  0  0  0  0  0  0  0  0
   35.6410   27.2100   42.5680 H   0  0  0  0  0  0  0  0  0  0  0  0
   39.4710   30.1870   41.9860 H   0  0  0  0  0  0  0  0  0  0  0  0
   37.2310   25.7780   39.8750 C   0  0  0  0  0  0  0  0  0  0  0  0
   36.8090   24.6910   40.6000 C   0  0  0  0  0  3  0  0  0  0  0  0
   37.6620   23.7370   41.1050 C   0  0  0  0  0  0  0  0  0  0  0  0
   37.2870   22.8880   41.6770 H   0  0  0  0  0  0  0  0  0  0  0  0
   38.9860   23.8620   40.8850 N   0  0  0  0  0  0  0  0  0  0  0  0
   39.4310   24.9260   40.1720 C   0  0  0  0  0  3  0  0  0  0  0  0
   38.5820   25.8450   39.6880 N   0  0  0  0  0  0  0  0  0  0  0  0
  1 13  1  0  0  0  0
  2  1  1  0  0  0  0
  2  7  1  0  0  0  0
  3  2  2  0  0  0  0
  4  5  2  0  0  0  0
  4  3  1  0  0  0  0
  5  6  1  0  0  0  0
  6 20  1  0  0  0  0
  6  1  2  0  0  0  0
  8  3  1  0  0  0  0
  9  4  1  0  0  0  0
 10  5  1  0  0  0  0
 11 17  1  0  0  0  0
 12 18  1  0  0  0  0
 12 11  2  0  0  0  0
 13 12  1  0  0  0  0
 14 13  2  0  0  0  0
 14 15  1  0  0  0  0
 15 16  2  0  0  0  0
 16 11  1  0  0  0  0
 19 15  1  0  0  0  0
 20 21  1  0  0  0  0
 21 22  2  0  0  0  0
 22 23  1  0  0  0  0
 24 22  1  0  0  0  0
 25 24  2  0  0  0  0
 26 20  2  0  0  0  0
 26 25  1  0  0  0  0
M  END
>  <minimizedAffinity>
-4.67064524

$$$$

 OpenBabel03242516583D

 26 28  0  0  0  0  0  0  0  0999 V2000
   36.6070   26.1890   39.5950 C   0  0  0  0  0  0  0  0  0  0  0  0
   36.0980   25.1790   38.8050 C   0  0  0  0  0  0  0  0  0  0  0  0
   36.0100   23.8960   39.2920 C   0  0  0  0  0  0  0  0  0  0  0  0
   36.4370   23.6510   40.5720 C   0  0  0  0  0  0  0  0  0  0  0  0
   36.9490   24.6220   41.3960 C   0  0  0  0  0  0  0  0  0  0  0  0
   37.0290   25.9240   40.8750 C   0  0  0  0  0  0  0  0  0  0  0  0
   35.7610   25.3770   37.7890 H   0  0  0  0  0  0  0  0  0  0  0  0
   35.6120   23.1130   38.6670 H   0  0  0  0  0  0  0  0  0  0  0  0
   36.3550   22.6170   40.9290 H   0  0  0  0  0  0  0  0  0  0  0  0
   37.2800   24.4280   42.3890 H   0  0  0  0  0  0  0  0  0  0  0  0
   35.8230   29.7210   38.4880 C   0  0  0  0  0  0  0  0  0  0  0  0
   35.6670   28.4660   39.1070 C   0  0  0  0  0  0  0  0  0  0  0  0
   36.6640   27.5140   38.9970 C   0  0  0  0  0  0  0  0  0  0  0  0
   37.7640   27.8670   38.2760 N   0  0  0  0  0  0  0  0  0  0  0  0
   37.9170   29.0700   37.6810 C   0  0  0  0  0  0  0  0  0  0  0  0
   36.9380   30.0060   37.7870 N   0  0  0  0  0  0  0  0  0  0  0  0
   35.0510   30.4700   38.5660 H   0  0  0  0  0  0  0  0  0  0  0  0
   34.7830   28.2190   39.6710 H   0  0  0  0  0  0  0  0  0  0  0  0
   38.8650   29.1570   37.1540 H   0  0  0  0  0  0  0  0  0  0  0  0
   37.5640   26.9930   41.7140 C   0  0  0  0  0  0  0  0  0  0  0  0
   36.8300   27.6180   42.6910 C   0  0  0  0  0  3  0  0  0  0  0  0
   37.3240   28.6270   43.4840 C   0  0  0  0  0  0  0  0  0  0  0  0
   36.7080   29.0980   44.2500 H   0  0  0  0  0  0  0  0  0  0  0  0
   38.5950   29.0370   43.3050 N   0  0  0  0  0  0  0  0  0  0  0  0
   39.3440   28.4370   42.3460 C   0  0  0  0  0  3  0  0  0  0  0  0
   38.8430   27.4550   41.5830 N   0  0  0  0  0  0  0  0  0  0  0  0
  1  6  1  0  0  0  0
  2  3  1  0  0  0  0
  2  1  2  0  0  0  0
  3  4  2  0  0  0  0
  4  9  1  0  0  0  0
  4  5  1  0  0  0  0
  5 10  1  0  0  0  0
  6  5  2  0  0  0  0
  6 20  1  0  0  0  0
  7  2  1  0  0  0  0
  8  3  1  0  0  0  0
 11 17  1  0  0  0  0
 11 12  1  0  0  0  0
 12 18  1  0  0  0  0
 13 12  2  0  0  0  0
 13  1  1  0  0  0  0
 14 13  1  0  0  0  0
 15 16  1  0  0  0  0
 15 14  2  0  0  0  0
 16 11  2  0  0  0  0
 19 15  1  0  0  0  0
 20 21  1  0  0  0  0
 21 22  2  0  0  0  0
 22 23  1  0  0  0  0
 24 22  1  0  0  0  0
 25 24  2  0  0  0  0
 26 20  2  0  0  0  0
 26 25  1  0  0  0  0
M  END
>  <minimizedAffinity>
-4.6538744

$$$$

 OpenBabel03242516583D

 26 28  0  0  0  0  0  0  0  0999 V2000
   37.0480   26.0510   40.8190 C   0  0  0  0  0  0  0  0  0  0  0  0
   36.9630   24.8150   41.4240 C   0  0  0  0  0  0  0  0  0  0  0  0
   36.4370   23.7430   40.7420 C   0  0  0  0  0  0  0  0  0  0  0  0
   36.0040   23.9360   39.4550 C   0  0  0  0  0  0  0  0  0  0  0  0
   36.0680   25.1460   38.8100 C   0  0  0  0  0  0  0  0  0  0  0  0
   36.6090   26.2240   39.5290 C   0  0  0  0  0  0  0  0  0  0  0  0
   37.3080   24.6650   42.4470 H   0  0  0  0  0  0  0  0  0  0  0  0
   36.3750   22.7810   41.2240 H   0  0  0  0  0  0  0  0  0  0  0  0
   35.5880   23.0610   38.9400 H   0  0  0  0  0  0  0  0  0  0  0  0
   35.7300   25.2910   37.8110 H   0  0  0  0  0  0  0  0  0  0  0  0
   37.5470   28.9300   43.2240 C   0  0  0  0  0  0  0  0  0  0  0  0
   36.8970   27.9120   42.4990 C   0  0  0  0  0  0  0  0  0  0  0  0
   37.6170   27.1270   41.6160 C   0  0  0  0  0  0  0  0  0  0  0  0
   38.9470   27.3990   41.5060 N   0  0  0  0  0  0  0  0  0  0  0  0
   39.5730   28.3740   42.2010 C   0  0  0  0  0  0  0  0  0  0  0  0
   38.8680   29.1470   43.0670 N   0  0  0  0  0  0  0  0  0  0  0  0
   36.9950   29.5480   43.9130 H   0  0  0  0  0  0  0  0  0  0  0  0
   35.8430   27.7230   42.6090 H   0  0  0  0  0  0  0  0  0  0  0  0
   40.6350   28.4310   41.9730 H   0  0  0  0  0  0  0  0  0  0  0  0
   36.7020   27.5320   38.8850 C   0  0  0  0  0  0  0  0  0  0  0  0
   35.6850   28.4540   38.9110 C   0  0  0  0  0  3  0  0  0  0  0  0
   35.7620   29.6870   38.3060 C   0  0  0  0  0  0  0  0  0  0  0  0
   34.9320   30.3920   38.3490 H   0  0  0  0  0  0  0  0  0  0  0  0
   36.8890   30.0220   37.6470 N   0  0  0  0  0  0  0  0  0  0  0  0
   37.9090   29.1300   37.6040 C   0  0  0  0  0  3  0  0  0  0  0  0
   37.8150   27.9330   38.2020 N   0  0  0  0  0  0  0  0  0  0  0  0
  1  2  1  0  0  0  0
  1 13  1  0  0  0  0
  2  7  1  0  0  0  0
  3  8  1  0  0  0  0
  3  2  2  0  0  0  0
  4  3  1  0  0  0  0
  5  4  2  0  0  0  0
  5  6  1  0  0  0  0
  6  1  2  0  0  0  0
  9  4  1  0  0  0  0
 10  5  1  0  0  0  0
 11 17  1  0  0  0  0
 12 18  1  0  0  0  0
 12 11  2  0  0  0  0
 13 12  1  0  0  0  0
 14 13  2  0  0  0  0
 14 15  1  0  0  0  0
 15 16  2  0  0  0  0
 16 11  1  0  0  0  0
 19 15  1  0  0  0  0
 20 21  1  0  0  0  0
 20  6  1  0  0  0  0
 22 23  1  0  0  0  0
 22 21  2  0  0  0  0
 24 22  1  0  0  0  0
 25 24  2  0  0  0  0
 25 26  1  0  0  0  0
 26 20  2  0  0  0  0
M  END
>  <minimizedAffinity>
-4.59541559

$$$$

 OpenBabel03242516583D

 26 28  0  0  0  0  0  0  0  0999 V2000
   38.7800   29.0050   42.2260 C   0  0  0  0  0  0  0  0  0  0  0  0
   38.8490   28.1170   43.2790 C   0  0  0  0  0  0  0  0  0  0  0  0
   37.7450   27.3790   43.6380 C   0  0  0  0  0  0  0  0  0  0  0  0
   36.5850   27.5490   42.9260 C   0  0  0  0  0  0  0  0  0  0  0  0
   36.4680   28.4190   41.8710 C   0  0  0  0  0  0  0  0  0  0  0  0
   37.6090   29.1610   41.5250 C   0  0  0  0  0  0  0  0  0  0  0  0
   39.7710   27.9840   43.8430 H   0  0  0  0  0  0  0  0  0  0  0  0
   37.8090   26.6880   44.4620 H   0  0  0  0  0  0  0  0  0  0  0  0
   35.7230   26.9480   43.2390 H   0  0  0  0  0  0  0  0  0  0  0  0
   35.5650   28.5480   41.3200 H   0  0  0  0  0  0  0  0  0  0  0  0
   41.5610   31.5690   42.1440 C   0  0  0  0  0  0  0  0  0  0  0  0
   40.3590   30.9360   42.5160 C   0  0  0  0  0  0  0  0  0  0  0  0
   39.9950   29.7420   41.9190 C   0  0  0  0  0  0  0  0  0  0  0  0
   40.8520   29.2450   40.9830 N   0  0  0  0  0  0  0  0  0  0  0  0
   42.0050   29.8500   40.6250 C   0  0  0  0  0  0  0  0  0  0  0  0
   42.3630   31.0230   41.2100 N   0  0  0  0  0  0  0  0  0  0  0  0
   41.8530   32.5000   42.6020 H   0  0  0  0  0  0  0  0  0  0  0  0
   39.7040   31.3560   43.2590 H   0  0  0  0  0  0  0  0  0  0  0  0
   42.5480   29.2940   39.8640 H   0  0  0  0  0  0  0  0  0  0  0  0
   37.5350   30.0980   40.4070 C   0  0  0  0  0  0  0  0  0  0  0  0
   37.1440   31.4060   40.5490 C   0  0  0  0  0  3  0  0  0  0  0  0
   37.0680   32.2940   39.5030 C   0  0  0  0  0  0  0  0  0  0  0  0
   36.7520   33.3260   39.6580 H   0  0  0  0  0  0  0  0  0  0  0  0
   37.3930   31.8750   38.2640 N   0  0  0  0  0  0  0  0  0  0  0  0
   37.7840   30.5870   38.0940 C   0  0  0  0  0  3  0  0  0  0  0  0
   37.8510   29.7360   39.1280 N   0  0  0  0  0  0  0  0  0  0  0  0
  1  2  1  0  0  0  0
  2  3  2  0  0  0  0
  2  7  1  0  0  0  0
  3  8  1  0  0  0  0
  4  9  1  0  0  0  0
  4  3  1  0  0  0  0
  5  4  2  0  0  0  0
  6  5  1  0  0  0  0
  6  1  2  0  0  0  0
 10  5  1  0  0  0  0
 11 12  1  0  0  0  0
 11 17  1  0  0  0  0
 12 18  1  0  0  0  0
 13  1  1  0  0  0  0
 13 12  2  0  0  0  0
 14 13  1  0  0  0  0
 15 14  2  0  0  0  0
 15 16  1  0  0  0  0
 16 11  2  0  0  0  0
 19 15  1  0  0  0  0
 20 21  1  0  0  0  0
 20  6  1  0  0  0  0
 22 23  1  0  0  0  0
 22 21  2  0  0  0  0
 24 22  1  0  0  0  0
 25 24  2  0  0  0  0
 25 26  1  0  0  0  0
 26 20  2  0  0  0  0
M  END
>  <minimizedAffinity>
-4.55572653

$$$$
