
 OpenBabel03252501473D

 31 33  0  0  0  0  0  0  0  0999 V2000
   44.1200   33.6640   40.7180 C   0  0  0  0  0  0  0  0  0  0  0  0
   44.3640   34.8060   41.5220 C   0  0  0  0  0  0  0  0  0  0  0  0
   43.3480   35.7490   41.6790 C   0  0  0  0  0  0  0  0  0  0  0  0
   42.1600   35.5240   41.0470 N   0  0  0  0  0  0  0  0  0  0  0  0
   41.9680   34.4290   40.2930 C   0  0  0  0  0  0  0  0  0  0  0  0
   42.9360   33.5160   40.1350 N   0  0  0  0  0  0  0  0  0  0  0  0
   44.9030   32.9210   40.5860 H   0  0  0  0  0  0  0  0  0  0  0  0
   43.5060   36.6360   42.2910 H   0  0  0  0  0  0  0  0  0  0  0  0
   39.7400   33.6220   41.7330 F   0  0  0  0  0  0  0  0  0  0  0  0
   39.5690   33.8380   40.4010 C   0  0  0  0  0  0  0  0  0  0  0  0
   40.6710   34.2450   39.6410 C   0  0  0  0  0  0  0  0  0  0  0  0
   40.5740   34.4810   38.2920 C   0  0  0  0  0  0  0  0  0  0  0  0
   39.3270   34.2990   37.6980 C   0  0  0  0  0  0  0  0  0  0  0  0
   38.2060   33.8890   38.4460 C   0  0  0  0  0  0  0  0  0  0  0  0
   38.3360   33.6580   39.8110 C   0  0  0  0  0  0  0  0  0  0  0  0
   41.4080   34.7950   37.6930 H   0  0  0  0  0  0  0  0  0  0  0  0
   39.2230   34.4790   36.6350 H   0  0  0  0  0  0  0  0  0  0  0  0
   37.2390   33.7510   37.9650 H   0  0  0  0  0  0  0  0  0  0  0  0
   37.5060   33.3430   40.4230 H   0  0  0  0  0  0  0  0  0  0  0  0
   45.6710   34.9820   42.1740 C   0  0  0  0  0  0  0  0  0  0  0  0
   46.8340   34.7520   41.5890 C   0  0  0  0  0  0  0  0  0  0  0  0
   48.1090   34.9680   42.3580 C   0  0  0  0  0  0  0  0  0  0  0  0
   47.7630   35.1840   43.4100 H   0  0  0  0  0  0  0  0  0  0  0  0
   48.6420   35.8540   41.9460 H   0  0  0  0  0  0  0  0  0  0  0  0
   48.9590   33.7720   42.4040 C   0  0  0  0  0  0  0  0  0  0  0  0
   50.3330   33.7520   42.2360 C   0  0  0  0  0  0  0  0  0  0  0  0
   51.0990   32.6080   42.2860 C   0  0  0  0  0  0  0  0  0  0  0  0
   52.1660   32.6120   42.1540 H   0  0  0  0  0  0  0  0  0  0  0  0
   50.4580   31.4290   42.5140 N   0  0  0  0  0  0  0  0  0  0  0  0
   49.1110   31.4150   42.6820 C   0  0  0  0  0  0  0  0  0  0  0  0
   48.4000   32.5520   42.6260 N   0  0  0  0  0  0  0  0  0  0  0  0
  1  2  1  0  0  0  0
  2  3  2  0  0  0  0
  2 20  1  0  0  0  0
  3  8  1  0  0  0  0
  4  3  1  0  0  0  0
  5  4  2  0  0  0  0
  6  5  1  0  0  0  0
  6  1  2  0  0  0  0
  7  1  1  0  0  0  0
 10  9  1  0  0  0  0
 11  5  1  0  0  0  0
 11 10  2  0  0  0  0
 12 11  1  0  0  0  0
 13 12  2  0  0  0  0
 13 14  1  0  0  0  0
 14 15  2  0  0  0  0
 15 10  1  0  0  0  0
 15 19  1  0  0  0  0
 16 12  1  0  0  0  0
 17 13  1  0  0  0  0
 18 14  1  0  0  0  0
 21 20  2  0  0  0  0
 21 22  1  0  0  0  0
 22 25  1  0  0  0  0
 22 23  1  0  0  0  0
 24 22  1  0  0  0  0
 25 31  1  0  0  0  0
 26 27  1  0  0  0  0
 26 25  2  0  0  0  0
 27 29  2  0  0  0  0
 28 27  1  0  0  0  0
 29 30  1  0  0  0  0
 31 30  2  0  0  0  0
M  END
>  <minimizedAffinity>
-5.95830059

>  <minimizedRMSD>
2.59397793

$$$$
