
 OpenBabel03242515513D

 18 19  0  0  0  0  0  0  0  0999 V2000
   36.0200   28.7600   41.1310 C   0  0  0  0  0  0  0  0  0  0  0  0
   36.5460   30.0120   41.5000 C   0  0  0  0  0  0  0  0  0  0  0  0
   37.7570   30.0430   42.1720 C   0  0  0  0  0  0  0  0  0  0  0  0
   38.3630   28.8500   42.4330 N   0  0  0  0  0  0  0  0  0  0  0  0
   37.8360   27.6720   42.0690 C   0  0  0  0  0  0  0  0  0  0  0  0
   36.6630   27.6200   41.4170 N   0  0  0  0  0  0  0  0  0  0  0  0
   35.0770   28.6190   40.6010 H   0  0  0  0  0  0  0  0  0  0  0  0
   38.1100   31.0130   42.4260 H   0  0  0  0  0  0  0  0  0  0  0  0
   38.5370   26.4320   42.3810 C   0  0  0  0  0  0  0  0  0  0  0  0
   39.6290   26.4380   43.2250 C   0  0  0  0  0  3  0  0  0  0  0  0
   40.3450   25.2960   43.5670 C   0  0  0  0  0  0  0  0  0  0  0  0
   41.1880   25.3870   44.2350 H   0  0  0  0  0  0  0  0  0  0  0  0
   39.8960   24.1370   43.0050 N   0  0  0  0  0  0  0  0  0  0  0  0
   38.8300   24.1320   42.1800 C   0  0  0  0  0  3  0  0  0  0  0  0
   38.1430   25.2610   41.8580 N   0  0  0  0  0  0  0  0  0  0  0  0
   35.7460   31.1350   41.1260 N   0  0  0  0  0  0  0  0  0  0  0  0
   34.8530   31.1110   41.6840 H   0  0  0  0  0  0  0  0  0  0  0  0
   35.9100   31.8990   40.4440 H   0  0  0  0  0  0  0  0  0  0  0  0
  1  6  2  0  0  0  0
  1  2  1  0  0  0  0
  2  3  2  0  0  0  0
  3  8  1  0  0  0  0
  3  4  1  0  0  0  0
  5  9  1  0  0  0  0
  5  4  2  0  0  0  0
  6  5  1  0  0  0  0
  7  1  1  0  0  0  0
  9 10  1  0  0  0  0
 10 11  2  0  0  0  0
 11 12  1  0  0  0  0
 13 11  1  0  0  0  0
 14 13  2  0  0  0  0
 15 14  1  0  0  0  0
 15  9  2  0  0  0  0
 16  2  1  0  0  0  0
 16 17  1  0  0  0  0
 18 16  1  0  0  0  0
M  END
>  <minimizedAffinity>
-4.3047204

$$$$

 OpenBabel03242515513D

 18 19  0  0  0  0  0  0  0  0999 V2000
   38.5310   31.3960   40.8840 C   0  0  0  0  0  0  0  0  0  0  0  0
   37.1780   31.7270   40.6800 C   0  0  0  0  0  0  0  0  0  0  0  0
   36.2170   30.7740   40.9760 C   0  0  0  0  0  0  0  0  0  0  0  0
   36.6490   29.5700   41.4500 N   0  0  0  0  0  0  0  0  0  0  0  0
   37.9460   29.2850   41.6330 C   0  0  0  0  0  0  0  0  0  0  0  0
   38.8940   30.1940   41.3520 N   0  0  0  0  0  0  0  0  0  0  0  0
   39.3670   32.0680   40.6840 H   0  0  0  0  0  0  0  0  0  0  0  0
   35.2120   31.0750   40.8050 H   0  0  0  0  0  0  0  0  0  0  0  0
   38.3390   27.9760   42.1430 C   0  0  0  0  0  0  0  0  0  0  0  0
   39.2800   27.8670   43.1460 C   0  0  0  0  0  3  0  0  0  0  0  0
   39.7020   26.6540   43.6800 C   0  0  0  0  0  0  0  0  0  0  0  0
   40.4420   26.6580   44.4640 H   0  0  0  0  0  0  0  0  0  0  0  0
   39.1180   25.5470   43.1400 N   0  0  0  0  0  0  0  0  0  0  0  0
   38.1990   25.6520   42.1590 C   0  0  0  0  0  3  0  0  0  0  0  0
   37.8000   26.8500   41.6510 N   0  0  0  0  0  0  0  0  0  0  0  0
   36.9490   33.0450   40.1770 N   0  0  0  0  0  0  0  0  0  0  0  0
   37.3290   33.0980   39.1950 H   0  0  0  0  0  0  0  0  0  0  0  0
   36.5030   33.8760   40.6060 H   0  0  0  0  0  0  0  0  0  0  0  0
  1  6  1  0  0  0  0
  2  1  2  0  0  0  0
  2  3  1  0  0  0  0
  3  4  2  0  0  0  0
  4  5  1  0  0  0  0
  5  9  1  0  0  0  0
  6  5  2  0  0  0  0
  7  1  1  0  0  0  0
  8  3  1  0  0  0  0
  9 10  1  0  0  0  0
 10 11  2  0  0  0  0
 11 12  1  0  0  0  0
 13 11  1  0  0  0  0
 14 13  2  0  0  0  0
 15  9  2  0  0  0  0
 15 14  1  0  0  0  0
 16 18  1  0  0  0  0
 16  2  1  0  0  0  0
 17 16  1  0  0  0  0
M  END
>  <minimizedAffinity>
-4.24946785

$$$$

 OpenBabel03242515513D

 18 19  0  0  0  0  0  0  0  0999 V2000
   41.0820   32.3350   37.2930 C   0  0  0  0  0  0  0  0  0  0  0  0
   41.6160   33.5600   37.7370 C   0  0  0  0  0  0  0  0  0  0  0  0
   41.1900   34.0580   38.9570 C   0  0  0  0  0  0  0  0  0  0  0  0
   40.2760   33.3230   39.6530 N   0  0  0  0  0  0  0  0  0  0  0  0
   39.7860   32.1590   39.2030 C   0  0  0  0  0  0  0  0  0  0  0  0
   40.1850   31.6580   38.0230 N   0  0  0  0  0  0  0  0  0  0  0  0
   41.3460   31.8520   36.3510 H   0  0  0  0  0  0  0  0  0  0  0  0
   41.6240   34.9850   39.2450 H   0  0  0  0  0  0  0  0  0  0  0  0
   38.8080   31.4250   39.9990 C   0  0  0  0  0  0  0  0  0  0  0  0
   37.5140   31.8880   40.1230 C   0  0  0  0  0  3  0  0  0  0  0  0
   36.5310   31.2400   40.8640 C   0  0  0  0  0  0  0  0  0  0  0  0
   35.5420   31.6700   40.9080 H   0  0  0  0  0  0  0  0  0  0  0  0
   36.9290   30.0910   41.4790 N   0  0  0  0  0  0  0  0  0  0  0  0
   38.1930   29.6380   41.3590 C   0  0  0  0  0  3  0  0  0  0  0  0
   39.1400   30.2870   40.6290 N   0  0  0  0  0  0  0  0  0  0  0  0
   42.5610   34.1610   36.8500 N   0  0  0  0  0  0  0  0  0  0  0  0
   42.0560   34.4570   35.9740 H   0  0  0  0  0  0  0  0  0  0  0  0
   43.5800   34.3300   36.9440 H   0  0  0  0  0  0  0  0  0  0  0  0
  1  2  2  0  0  0  0
  1  6  1  0  0  0  0
  2  3  1  0  0  0  0
  3  8  1  0  0  0  0
  3  4  2  0  0  0  0
  5  4  1  0  0  0  0
  5  9  1  0  0  0  0
  6  5  2  0  0  0  0
  7  1  1  0  0  0  0
  9 10  2  0  0  0  0
  9 15  1  0  0  0  0
 10 11  1  0  0  0  0
 11 12  1  0  0  0  0
 11 13  2  0  0  0  0
 14 13  1  0  0  0  0
 15 14  2  0  0  0  0
 16 18  1  0  0  0  0
 16  2  1  0  0  0  0
 17 16  1  0  0  0  0
M  END
>  <minimizedAffinity>
-4.18536758

$$$$

 OpenBabel03242515513D

 18 19  0  0  0  0  0  0  0  0999 V2000
   36.2640   30.9180   40.9400 C   0  0  0  0  0  0  0  0  0  0  0  0
   37.3070   31.7790   40.5490 C   0  0  0  0  0  0  0  0  0  0  0  0
   38.6040   31.2930   40.5710 C   0  0  0  0  0  0  0  0  0  0  0  0
   38.7850   30.0020   40.9720 N   0  0  0  0  0  0  0  0  0  0  0  0
   37.7710   29.2060   41.3390 C   0  0  0  0  0  0  0  0  0  0  0  0
   36.5070   29.6570   41.3260 N   0  0  0  0  0  0  0  0  0  0  0  0
   35.2100   31.1950   40.9610 H   0  0  0  0  0  0  0  0  0  0  0  0
   39.3520   31.9830   40.2670 H   0  0  0  0  0  0  0  0  0  0  0  0
   38.0370   27.8340   41.7590 C   0  0  0  0  0  0  0  0  0  0  0  0
   37.0340   26.8870   41.7360 C   0  0  0  0  0  3  0  0  0  0  0  0
   37.2150   25.5630   42.1220 C   0  0  0  0  0  0  0  0  0  0  0  0
   36.3770   24.8850   42.0730 H   0  0  0  0  0  0  0  0  0  0  0  0
   38.4750   25.2440   42.5350 N   0  0  0  0  0  0  0  0  0  0  0  0
   39.4550   26.1700   42.5570 C   0  0  0  0  0  3  0  0  0  0  0  0
   39.2570   27.4610   42.1760 N   0  0  0  0  0  0  0  0  0  0  0  0
   36.8910   33.0910   40.1650 N   0  0  0  0  0  0  0  0  0  0  0  0
   36.5180   33.5870   41.0170 H   0  0  0  0  0  0  0  0  0  0  0  0
   36.9060   33.5750   39.2490 H   0  0  0  0  0  0  0  0  0  0  0  0
  1  7  1  0  0  0  0
  1  6  1  0  0  0  0
  2  3  1  0  0  0  0
  2  1  2  0  0  0  0
  3  4  2  0  0  0  0
  4  5  1  0  0  0  0
  5  9  1  0  0  0  0
  6  5  2  0  0  0  0
  8  3  1  0  0  0  0
  9 15  1  0  0  0  0
 10  9  2  0  0  0  0
 10 11  1  0  0  0  0
 11 13  2  0  0  0  0
 12 11  1  0  0  0  0
 13 14  1  0  0  0  0
 15 14  2  0  0  0  0
 16  2  1  0  0  0  0
 16 17  1  0  0  0  0
 18 16  1  0  0  0  0
M  END
>  <minimizedAffinity>
-4.08958817

$$$$

 OpenBabel03242515513D

 18 19  0  0  0  0  0  0  0  0999 V2000
   35.7800   28.8730   40.2590 C   0  0  0  0  0  0  0  0  0  0  0  0
   36.2820   29.7230   41.2630 C   0  0  0  0  0  0  0  0  0  0  0  0
   37.1790   29.1990   42.1800 C   0  0  0  0  0  0  0  0  0  0  0  0
   37.5200   27.8850   42.0470 N   0  0  0  0  0  0  0  0  0  0  0  0
   37.0250   27.1010   41.0790 C   0  0  0  0  0  0  0  0  0  0  0  0
   36.1540   27.5880   40.1810 N   0  0  0  0  0  0  0  0  0  0  0  0
   35.0710   29.1790   39.4890 H   0  0  0  0  0  0  0  0  0  0  0  0
   37.5270   29.8830   42.9150 H   0  0  0  0  0  0  0  0  0  0  0  0
   37.4320   25.7030   40.9960 C   0  0  0  0  0  0  0  0  0  0  0  0
   36.6650   24.7890   40.3010 C   0  0  0  0  0  3  0  0  0  0  0  0
   36.9910   23.4430   40.1800 C   0  0  0  0  0  0  0  0  0  0  0  0
   36.3370   22.7950   39.6180 H   0  0  0  0  0  0  0  0  0  0  0  0
   38.1430   23.0640   40.8050 N   0  0  0  0  0  0  0  0  0  0  0  0
   38.8920   23.9560   41.4840 C   0  0  0  0  0  3  0  0  0  0  0  0
   38.5540   25.2700   41.5900 N   0  0  0  0  0  0  0  0  0  0  0  0
   35.7910   31.0640   41.2160 N   0  0  0  0  0  0  0  0  0  0  0  0
   34.7630   31.0530   41.4460 H   0  0  0  0  0  0  0  0  0  0  0  0
   36.2660   31.9620   41.0080 H   0  0  0  0  0  0  0  0  0  0  0  0
  1  2  1  0  0  0  0
  2  3  2  0  0  0  0
  3  8  1  0  0  0  0
  4  3  1  0  0  0  0
  5  4  2  0  0  0  0
  6  1  2  0  0  0  0
  6  5  1  0  0  0  0
  7  1  1  0  0  0  0
  9  5  1  0  0  0  0
  9 15  1  0  0  0  0
 10  9  2  0  0  0  0
 11 10  1  0  0  0  0
 11 13  2  0  0  0  0
 12 11  1  0  0  0  0
 13 14  1  0  0  0  0
 14 15  2  0  0  0  0
 16  2  1  0  0  0  0
 16 17  1  0  0  0  0
 18 16  1  0  0  0  0
M  END
>  <minimizedAffinity>
-4.05481625

$$$$

 OpenBabel03242515513D

 18 19  0  0  0  0  0  0  0  0999 V2000
   37.2760   30.5920   37.5670 C   0  0  0  0  0  0  0  0  0  0  0  0
   38.1760   31.6690   37.4590 C   0  0  0  0  0  0  0  0  0  0  0  0
   38.9090   32.0270   38.5790 C   0  0  0  0  0  0  0  0  0  0  0  0
   38.7080   31.3070   39.7200 N   0  0  0  0  0  0  0  0  0  0  0  0
   37.8430   30.2850   39.7910 C   0  0  0  0  0  0  0  0  0  0  0  0
   37.1220   29.9220   38.7180 N   0  0  0  0  0  0  0  0  0  0  0  0
   36.6510   30.2260   36.7520 H   0  0  0  0  0  0  0  0  0  0  0  0
   39.5730   32.8450   38.4430 H   0  0  0  0  0  0  0  0  0  0  0  0
   37.6770   29.5580   41.0440 C   0  0  0  0  0  0  0  0  0  0  0  0
   36.7300   28.5600   41.1560 C   0  0  0  0  0  3  0  0  0  0  0  0
   36.5170   27.8260   42.3180 C   0  0  0  0  0  0  0  0  0  0  0  0
   35.7560   27.0610   42.3210 H   0  0  0  0  0  0  0  0  0  0  0  0
   37.3170   28.1570   43.3710 N   0  0  0  0  0  0  0  0  0  0  0  0
   38.2420   29.1330   43.2620 C   0  0  0  0  0  3  0  0  0  0  0  0
   38.4350   29.8390   42.1160 N   0  0  0  0  0  0  0  0  0  0  0  0
   38.2290   32.2820   36.1700 N   0  0  0  0  0  0  0  0  0  0  0  0
   37.3070   32.7600   35.9890 H   0  0  0  0  0  0  0  0  0  0  0  0
   38.9800   32.3180   35.4570 H   0  0  0  0  0  0  0  0  0  0  0  0
  1  6  1  0  0  0  0
  2  1  2  0  0  0  0
  2  3  1  0  0  0  0
  3  4  2  0  0  0  0
  4  5  1  0  0  0  0
  5  9  1  0  0  0  0
  6  5  2  0  0  0  0
  7  1  1  0  0  0  0
  8  3  1  0  0  0  0
  9 10  2  0  0  0  0
  9 15  1  0  0  0  0
 10 11  1  0  0  0  0
 11 12  1  0  0  0  0
 11 13  2  0  0  0  0
 14 13  1  0  0  0  0
 15 14  2  0  0  0  0
 16  2  1  0  0  0  0
 17 16  1  0  0  0  0
 18 16  1  0  0  0  0
M  END
>  <minimizedAffinity>
-4.01341105

$$$$

 OpenBabel03242515513D

 18 19  0  0  0  0  0  0  0  0999 V2000
   39.6910   31.6960   39.1880 C   0  0  0  0  0  0  0  0  0  0  0  0
   39.2040   31.4420   37.8920 C   0  0  0  0  0  0  0  0  0  0  0  0
   38.2960   30.4100   37.7220 C   0  0  0  0  0  0  0  0  0  0  0  0
   37.9320   29.7030   38.8300 N   0  0  0  0  0  0  0  0  0  0  0  0
   38.4130   29.9690   40.0520 C   0  0  0  0  0  0  0  0  0  0  0  0
   39.2940   30.9650   40.2390 N   0  0  0  0  0  0  0  0  0  0  0  0
   40.4060   32.4810   39.4360 H   0  0  0  0  0  0  0  0  0  0  0  0
   37.9610   30.2610   36.7240 H   0  0  0  0  0  0  0  0  0  0  0  0
   37.9810   29.1710   41.1940 C   0  0  0  0  0  0  0  0  0  0  0  0
   37.4100   27.9290   41.0060 C   0  0  0  0  0  3  0  0  0  0  0  0
   36.9750   27.1150   42.0470 C   0  0  0  0  0  0  0  0  0  0  0  0
   36.5400   26.1560   41.8140 H   0  0  0  0  0  0  0  0  0  0  0  0
   37.1480   27.6280   43.2980 N   0  0  0  0  0  0  0  0  0  0  0  0
   37.7050   28.8420   43.4820 C   0  0  0  0  0  3  0  0  0  0  0  0
   38.1240   29.6230   42.4500 N   0  0  0  0  0  0  0  0  0  0  0  0
   39.7190   32.3050   36.8760 N   0  0  0  0  0  0  0  0  0  0  0  0
   40.7470   32.1060   36.7570 H   0  0  0  0  0  0  0  0  0  0  0  0
   39.2610   33.0320   36.2950 H   0  0  0  0  0  0  0  0  0  0  0  0
  1  7  1  0  0  0  0
  1  6  1  0  0  0  0
  2  1  2  0  0  0  0
  3  2  1  0  0  0  0
  3  4  2  0  0  0  0
  4  5  1  0  0  0  0
  5  6  2  0  0  0  0
  5  9  1  0  0  0  0
  8  3  1  0  0  0  0
  9 15  1  0  0  0  0
 10  9  2  0  0  0  0
 10 11  1  0  0  0  0
 11 13  2  0  0  0  0
 12 11  1  0  0  0  0
 13 14  1  0  0  0  0
 15 14  2  0  0  0  0
 16  2  1  0  0  0  0
 17 16  1  0  0  0  0
 18 16  1  0  0  0  0
M  END
>  <minimizedAffinity>
-3.95930362

$$$$

 OpenBabel03242515513D

 18 19  0  0  0  0  0  0  0  0999 V2000
   37.9020   30.4210   40.1960 C   0  0  0  0  0  0  0  0  0  0  0  0
   36.9560   31.4240   40.4800 C   0  0  0  0  0  0  0  0  0  0  0  0
   37.2200   32.7160   40.0540 C   0  0  0  0  0  0  0  0  0  0  0  0
   38.3880   32.9300   39.3830 N   0  0  0  0  0  0  0  0  0  0  0  0
   39.2690   31.9530   39.1270 C   0  0  0  0  0  0  0  0  0  0  0  0
   39.0330   30.6950   39.5310 N   0  0  0  0  0  0  0  0  0  0  0  0
   37.7960   29.3740   40.4830 H   0  0  0  0  0  0  0  0  0  0  0  0
   36.4740   33.4340   40.2940 H   0  0  0  0  0  0  0  0  0  0  0  0
   40.5000   32.2540   38.4040 C   0  0  0  0  0  0  0  0  0  0  0  0
   41.1060   31.2920   37.6210 C   0  0  0  0  0  3  0  0  0  0  0  0
   42.2780   31.5070   36.9050 C   0  0  0  0  0  0  0  0  0  0  0  0
   42.6860   30.7010   36.3160 H   0  0  0  0  0  0  0  0  0  0  0  0
   42.8120   32.7570   37.0240 N   0  0  0  0  0  0  0  0  0  0  0  0
   42.2200   33.6960   37.7890 C   0  0  0  0  0  3  0  0  0  0  0  0
   41.0730   33.4650   38.4820 N   0  0  0  0  0  0  0  0  0  0  0  0
   35.8020   30.9780   41.1950 N   0  0  0  0  0  0  0  0  0  0  0  0
   36.0990   30.6900   42.1630 H   0  0  0  0  0  0  0  0  0  0  0  0
   34.8060   30.9080   40.9150 H   0  0  0  0  0  0  0  0  0  0  0  0
  1  2  1  0  0  0  0
  1  7  1  0  0  0  0
  2 16  1  0  0  0  0
  3  8  1  0  0  0  0
  3  2  2  0  0  0  0
  4  3  1  0  0  0  0
  5  4  2  0  0  0  0
  5  6  1  0  0  0  0
  6  1  2  0  0  0  0
  9 15  1  0  0  0  0
  9  5  1  0  0  0  0
 10  9  2  0  0  0  0
 11 13  2  0  0  0  0
 11 10  1  0  0  0  0
 12 11  1  0  0  0  0
 13 14  1  0  0  0  0
 14 15  2  0  0  0  0
 16 17  1  0  0  0  0
 18 16  1  0  0  0  0
M  END
>  <minimizedAffinity>
-3.93185592

$$$$

 OpenBabel03242515513D

 18 19  0  0  0  0  0  0  0  0999 V2000
   39.7810   30.3320   38.1070 C   0  0  0  0  0  0  0  0  0  0  0  0
   39.2450   31.6170   37.9000 C   0  0  0  0  0  0  0  0  0  0  0  0
   38.2700   32.0710   38.7730 C   0  0  0  0  0  0  0  0  0  0  0  0
   37.8910   31.2360   39.7820 N   0  0  0  0  0  0  0  0  0  0  0  0
   38.4200   30.0170   39.9530 C   0  0  0  0  0  0  0  0  0  0  0  0
   39.3670   29.5570   39.1180 N   0  0  0  0  0  0  0  0  0  0  0  0
   40.5500   29.8760   37.4820 H   0  0  0  0  0  0  0  0  0  0  0  0
   37.9000   33.0470   38.5720 H   0  0  0  0  0  0  0  0  0  0  0  0
   37.9680   29.1750   41.0550 C   0  0  0  0  0  0  0  0  0  0  0  0
   38.1700   29.5630   42.3640 C   0  0  0  0  0  3  0  0  0  0  0  0
   37.7660   28.8120   43.4620 C   0  0  0  0  0  0  0  0  0  0  0  0
   37.9620   29.1890   44.4540 H   0  0  0  0  0  0  0  0  0  0  0  0
   37.1420   27.6370   43.1660 N   0  0  0  0  0  0  0  0  0  0  0  0
   36.9440   27.2570   41.8870 C   0  0  0  0  0  3  0  0  0  0  0  0
   37.3480   28.0070   40.8270 N   0  0  0  0  0  0  0  0  0  0  0  0
   39.7870   32.3220   36.7810 N   0  0  0  0  0  0  0  0  0  0  0  0
   39.4920   31.8270   35.8990 H   0  0  0  0  0  0  0  0  0  0  0  0
   40.3760   33.1740   36.7250 H   0  0  0  0  0  0  0  0  0  0  0  0
  1  6  1  0  0  0  0
  2  1  2  0  0  0  0
  2  3  1  0  0  0  0
  3  4  2  0  0  0  0
  4  5  1  0  0  0  0
  5  9  1  0  0  0  0
  6  5  2  0  0  0  0
  7  1  1  0  0  0  0
  8  3  1  0  0  0  0
  9 10  1  0  0  0  0
 10 11  2  0  0  0  0
 11 12  1  0  0  0  0
 13 11  1  0  0  0  0
 14 13  2  0  0  0  0
 15  9  2  0  0  0  0
 15 14  1  0  0  0  0
 16  2  1  0  0  0  0
 17 16  1  0  0  0  0
 18 16  1  0  0  0  0
M  END
>  <minimizedAffinity>
-3.92977953

$$$$
