
 OpenBabel03252502373D

 22 23  0  0  1  0  0  0  0  0999 V2000
   37.9090   27.9280   43.6760 C   0  0  2  0  0  0  0  0  0  0  0  0
   38.1860   28.2460   44.7040 H   0  0  0  0  0  0  0  0  0  0  0  0
   36.9620   29.3390   41.9210 C   0  0  0  0  0  0  0  0  0  0  0  0
   38.0260   29.0560   42.7710 C   0  0  0  0  0  0  0  0  0  0  0  0
   39.1380   29.8980   42.6880 C   0  0  0  0  0  0  0  0  0  0  0  0
   39.0910   30.9240   41.7870 N   0  0  0  0  0  0  0  0  0  0  0  0
   38.0450   31.1550   40.9910 C   0  0  0  0  0  0  0  0  0  0  0  0
   36.9770   30.3550   41.0640 N   0  0  0  0  0  0  0  0  0  0  0  0
   36.0360   28.7570   41.8880 H   0  0  0  0  0  0  0  0  0  0  0  0
   39.9450   29.6690   43.3460 H   0  0  0  0  0  0  0  0  0  0  0  0
   38.2450   32.0260   40.3640 H   0  0  0  0  0  0  0  0  0  0  0  0
   38.7960   26.8330   43.2070 C   0  0  0  0  0  0  0  0  0  0  0  0
   40.0720   26.6370   43.6800 C   0  0  0  0  0  3  0  0  0  0  0  0
   40.8080   25.5810   43.1690 C   0  0  0  0  0  0  0  0  0  0  0  0
   41.8120   25.3950   43.5140 H   0  0  0  0  0  0  0  0  0  0  0  0
   40.3310   24.7400   42.2360 N   0  0  0  0  0  0  0  0  0  0  0  0
   39.0770   24.9510   41.7890 C   0  0  0  0  0  3  0  0  0  0  0  0
   38.3380   25.9690   42.2650 N   0  0  0  0  0  0  0  0  0  0  0  0
   36.4830   27.4310   43.6150 C   0  0  0  0  0  0  0  0  0  0  0  0
   36.3560   26.6760   42.8050 H   0  0  0  0  0  0  0  0  0  0  0  0
   35.8160   28.2830   43.3650 H   0  0  0  0  0  0  0  0  0  0  0  0
   36.1430   27.0480   44.5980 H   0  0  0  0  0  0  0  0  0  0  0  0
  1  2  1  1  0  0  0
  3  4  1  0  0  0  0
  4  1  1  0  0  0  0
  5  4  2  0  0  0  0
  5 10  1  0  0  0  0
  6  5  1  0  0  0  0
  7  8  1  0  0  0  0
  7  6  2  0  0  0  0
  8  3  2  0  0  0  0
  9  3  1  0  0  0  0
 11  7  1  0  0  0  0
 12  1  1  0  0  0  0
 12 13  1  0  0  0  0
 14 15  1  0  0  0  0
 14 13  2  0  0  0  0
 16 14  1  0  0  0  0
 17 16  2  0  0  0  0
 17 18  1  0  0  0  0
 18 12  2  0  0  0  0
 19  1  1  0  0  0  0
 19 22  1  0  0  0  0
 20 19  1  0  0  0  0
 21 19  1  0  0  0  0
M  END
>  <minimizedAffinity>
-4.28377151

$$$$

 OpenBabel03252502373D

 22 23  0  0  1  0  0  0  0  0999 V2000
   35.8140   30.0920   40.6490 C   0  0  2  0  0  0  0  0  0  0  0  0
   35.3410   30.9270   41.2100 H   0  0  0  0  0  0  0  0  0  0  0  0
   37.0000   29.7620   38.5400 C   0  0  0  0  0  0  0  0  0  0  0  0
   36.5960   30.6270   39.5510 C   0  0  0  0  0  0  0  0  0  0  0  0
   36.9780   31.9650   39.4240 C   0  0  0  0  0  0  0  0  0  0  0  0
   37.7110   32.3140   38.3240 N   0  0  0  0  0  0  0  0  0  0  0  0
   38.0750   31.4450   37.3790 C   0  0  0  0  0  0  0  0  0  0  0  0
   37.7140   30.1630   37.4920 N   0  0  0  0  0  0  0  0  0  0  0  0
   36.7670   28.6940   38.5220 H   0  0  0  0  0  0  0  0  0  0  0  0
   36.6610   32.6160   40.2060 H   0  0  0  0  0  0  0  0  0  0  0  0
   38.6510   31.9600   36.6070 H   0  0  0  0  0  0  0  0  0  0  0  0
   36.6990   29.2970   41.5370 C   0  0  0  0  0  0  0  0  0  0  0  0
   36.5220   27.9540   41.7780 C   0  0  0  0  0  3  0  0  0  0  0  0
   37.4110   27.3150   42.6250 C   0  0  0  0  0  0  0  0  0  0  0  0
   37.3060   26.2630   42.8380 H   0  0  0  0  0  0  0  0  0  0  0  0
   38.4370   27.9460   43.2210 N   0  0  0  0  0  0  0  0  0  0  0  0
   38.5900   29.2610   42.9700 C   0  0  0  0  0  3  0  0  0  0  0  0
   37.7420   29.9110   42.1510 N   0  0  0  0  0  0  0  0  0  0  0  0
   34.7760   29.1590   40.0680 C   0  0  0  0  0  0  0  0  0  0  0  0
   35.1790   28.1240   39.9710 H   0  0  0  0  0  0  0  0  0  0  0  0
   34.5220   29.4990   39.0420 H   0  0  0  0  0  0  0  0  0  0  0  0
   33.8330   29.1870   40.6480 H   0  0  0  0  0  0  0  0  0  0  0  0
  1  2  1  1  0  0  0
  1 12  1  0  0  0  0
  3  4  1  0  0  0  0
  4  1  1  0  0  0  0
  5  4  2  0  0  0  0
  5 10  1  0  0  0  0
  6  5  1  0  0  0  0
  7  8  1  0  0  0  0
  7  6  2  0  0  0  0
  8  3  2  0  0  0  0
  9  3  1  0  0  0  0
 11  7  1  0  0  0  0
 12 13  2  0  0  0  0
 12 18  1  0  0  0  0
 13 14  1  0  0  0  0
 14 15  1  0  0  0  0
 14 16  2  0  0  0  0
 17 16  1  0  0  0  0
 18 17  2  0  0  0  0
 19 22  1  0  0  0  0
 19  1  1  0  0  0  0
 20 19  1  0  0  0  0
 21 19  1  0  0  0  0
M  END
>  <minimizedAffinity>
-4.16313171

$$$$

 OpenBabel03252502373D

 22 23  0  0  1  0  0  0  0  0999 V2000
   36.6130   27.5250   42.5090 C   0  0  2  0  0  0  0  0  0  0  0  0
   35.6220   27.1260   42.8160 H   0  0  0  0  0  0  0  0  0  0  0  0
   36.9430   25.1440   42.0750 C   0  0  0  0  0  0  0  0  0  0  0  0
   37.4350   26.4420   42.0020 C   0  0  0  0  0  0  0  0  0  0  0  0
   38.7010   26.6040   41.4320 C   0  0  0  0  0  0  0  0  0  0  0  0
   39.3470   25.4820   40.9950 N   0  0  0  0  0  0  0  0  0  0  0  0
   38.8310   24.2550   41.0870 C   0  0  0  0  0  0  0  0  0  0  0  0
   37.6210   24.0910   41.6300 N   0  0  0  0  0  0  0  0  0  0  0  0
   35.9680   24.8840   42.4970 H   0  0  0  0  0  0  0  0  0  0  0  0
   39.0650   27.6040   41.3830 H   0  0  0  0  0  0  0  0  0  0  0  0
   39.5330   23.5290   40.6720 H   0  0  0  0  0  0  0  0  0  0  0  0
   36.4580   28.5560   41.4520 C   0  0  0  0  0  0  0  0  0  0  0  0
   35.8610   28.3130   40.2370 C   0  0  0  0  0  3  0  0  0  0  0  0
   35.7730   29.3540   39.3280 C   0  0  0  0  0  0  0  0  0  0  0  0
   35.3120   29.2030   38.3650 H   0  0  0  0  0  0  0  0  0  0  0  0
   36.2430   30.5870   39.5780 N   0  0  0  0  0  0  0  0  0  0  0  0
   36.8230   30.8020   40.7750 C   0  0  0  0  0  3  0  0  0  0  0  0
   36.9250   29.8110   41.6800 N   0  0  0  0  0  0  0  0  0  0  0  0
   37.3410   28.1550   43.6730 C   0  0  0  0  0  0  0  0  0  0  0  0
   38.0280   28.9630   43.3250 H   0  0  0  0  0  0  0  0  0  0  0  0
   37.9760   27.3850   44.1590 H   0  0  0  0  0  0  0  0  0  0  0  0
   36.6360   28.5140   44.4490 H   0  0  0  0  0  0  0  0  0  0  0  0
  1  2  1  1  0  0  0
  1 19  1  0  0  0  0
  3  9  1  0  0  0  0
  4  3  1  0  0  0  0
  4  1  1  0  0  0  0
  5  4  2  0  0  0  0
  6  7  2  0  0  0  0
  6  5  1  0  0  0  0
  7  8  1  0  0  0  0
  8  3  2  0  0  0  0
 10  5  1  0  0  0  0
 11  7  1  0  0  0  0
 12 18  1  0  0  0  0
 12  1  1  0  0  0  0
 13 12  2  0  0  0  0
 14 16  2  0  0  0  0
 14 13  1  0  0  0  0
 15 14  1  0  0  0  0
 16 17  1  0  0  0  0
 17 18  2  0  0  0  0
 19 21  1  0  0  0  0
 19 22  1  0  0  0  0
 20 19  1  0  0  0  0
M  END
>  <minimizedAffinity>
-4.06357002

$$$$

 OpenBabel03252502373D

 22 23  0  0  1  0  0  0  0  0999 V2000
   37.5560   27.7040   42.8110 C   0  0  2  0  0  0  0  0  0  0  0  0
   38.4300   27.9870   43.4360 H   0  0  0  0  0  0  0  0  0  0  0  0
   35.9760   28.7730   41.2860 C   0  0  0  0  0  0  0  0  0  0  0  0
   37.2000   28.8120   41.9450 C   0  0  0  0  0  0  0  0  0  0  0  0
   37.9990   29.9360   41.7210 C   0  0  0  0  0  0  0  0  0  0  0  0
   37.5170   30.8990   40.8790 N   0  0  0  0  0  0  0  0  0  0  0  0
   36.3330   30.8160   40.2690 C   0  0  0  0  0  0  0  0  0  0  0  0
   35.5620   29.7440   40.4780 N   0  0  0  0  0  0  0  0  0  0  0  0
   35.2600   27.9510   41.3760 H   0  0  0  0  0  0  0  0  0  0  0  0
   38.9340   29.9520   42.2330 H   0  0  0  0  0  0  0  0  0  0  0  0
   36.1740   31.7030   39.6530 H   0  0  0  0  0  0  0  0  0  0  0  0
   37.8680   26.5150   41.9790 C   0  0  0  0  0  0  0  0  0  0  0  0
   37.1640   25.3350   42.0490 C   0  0  0  0  0  3  0  0  0  0  0  0
   37.5460   24.2920   41.2230 C   0  0  0  0  0  0  0  0  0  0  0  0
   37.0190   23.3510   41.2480 H   0  0  0  0  0  0  0  0  0  0  0  0
   38.5700   24.3790   40.3580 N   0  0  0  0  0  0  0  0  0  0  0  0
   39.2450   25.5450   40.3070 C   0  0  0  0  0  3  0  0  0  0  0  0
   38.8990   26.5770   41.0970 N   0  0  0  0  0  0  0  0  0  0  0  0
   36.3510   27.3750   43.6620 C   0  0  0  0  0  0  0  0  0  0  0  0
   35.6880   26.6400   43.1480 H   0  0  0  0  0  0  0  0  0  0  0  0
   35.7520   28.2980   43.8080 H   0  0  0  0  0  0  0  0  0  0  0  0
   36.6480   27.0330   44.6730 H   0  0  0  0  0  0  0  0  0  0  0  0
  1  2  1  1  0  0  0
  1 19  1  0  0  0  0
  3  9  1  0  0  0  0
  3  4  1  0  0  0  0
  4  1  1  0  0  0  0
  5  4  2  0  0  0  0
  5 10  1  0  0  0  0
  6  5  1  0  0  0  0
  7  8  1  0  0  0  0
  7  6  2  0  0  0  0
  8  3  2  0  0  0  0
 11  7  1  0  0  0  0
 12 13  1  0  0  0  0
 12  1  1  0  0  0  0
 14 15  1  0  0  0  0
 14 13  2  0  0  0  0
 16 14  1  0  0  0  0
 17 16  2  0  0  0  0
 17 18  1  0  0  0  0
 18 12  2  0  0  0  0
 19 21  1  0  0  0  0
 19 22  1  0  0  0  0
 20 19  1  0  0  0  0
M  END
>  <minimizedAffinity>
-3.98624969

$$$$

 OpenBabel03252502373D

 22 23  0  0  1  0  0  0  0  0999 V2000
   36.5780   27.8420   42.2090 C   0  0  2  0  0  0  0  0  0  0  0  0
   35.5960   28.0660   41.7380 H   0  0  0  0  0  0  0  0  0  0  0  0
   37.3750   25.5360   42.3220 C   0  0  0  0  0  0  0  0  0  0  0  0
   37.1720   26.6860   41.5660 C   0  0  0  0  0  0  0  0  0  0  0  0
   37.5580   26.6320   40.2240 C   0  0  0  0  0  0  0  0  0  0  0  0
   38.0990   25.4630   39.7670 N   0  0  0  0  0  0  0  0  0  0  0  0
   38.2740   24.3850   40.5340 C   0  0  0  0  0  0  0  0  0  0  0  0
   37.9070   24.4270   41.8180 N   0  0  0  0  0  0  0  0  0  0  0  0
   37.1170   25.4500   43.3820 H   0  0  0  0  0  0  0  0  0  0  0  0
   37.3960   27.5190   39.6570 H   0  0  0  0  0  0  0  0  0  0  0  0
   38.7200   23.5820   39.9440 H   0  0  0  0  0  0  0  0  0  0  0  0
   37.4980   29.0000   42.0790 C   0  0  0  0  0  0  0  0  0  0  0  0
   38.6480   29.1400   42.8210 C   0  0  0  0  0  3  0  0  0  0  0  0
   39.4310   30.2630   42.6150 C   0  0  0  0  0  0  0  0  0  0  0  0
   40.3390   30.4100   43.1770 H   0  0  0  0  0  0  0  0  0  0  0  0
   39.1200   31.2200   41.7230 N   0  0  0  0  0  0  0  0  0  0  0  0
   37.9890   31.0600   41.0070 C   0  0  0  0  0  3  0  0  0  0  0  0
   37.2070   29.9800   41.1860 N   0  0  0  0  0  0  0  0  0  0  0  0
   36.4260   27.5290   43.6800 C   0  0  0  0  0  0  0  0  0  0  0  0
   37.3480   27.8040   44.2440 H   0  0  0  0  0  0  0  0  0  0  0  0
   36.2930   26.4340   43.8010 H   0  0  0  0  0  0  0  0  0  0  0  0
   35.5200   28.0020   44.1060 H   0  0  0  0  0  0  0  0  0  0  0  0
  1  2  1  6  0  0  0
  1 19  1  0  0  0  0
  3  9  1  0  0  0  0
  4  1  1  0  0  0  0
  4  3  2  0  0  0  0
  5  4  1  0  0  0  0
  6  5  2  0  0  0  0
  6  7  1  0  0  0  0
  7  8  2  0  0  0  0
  8  3  1  0  0  0  0
 10  5  1  0  0  0  0
 11  7  1  0  0  0  0
 12  1  1  0  0  0  0
 12 13  1  0  0  0  0
 14 13  2  0  0  0  0
 14 15  1  0  0  0  0
 16 14  1  0  0  0  0
 17 18  1  0  0  0  0
 17 16  2  0  0  0  0
 18 12  2  0  0  0  0
 19 21  1  0  0  0  0
 19 22  1  0  0  0  0
 19 20  1  0  0  0  0
M  END
>  <minimizedAffinity>
-3.97598743

$$$$

 OpenBabel03252502373D

 22 23  0  0  1  0  0  0  0  0999 V2000
   38.6120   29.3650   42.9410 C   0  0  2  0  0  0  0  0  0  0  0  0
   38.2360   29.4530   43.9830 H   0  0  0  0  0  0  0  0  0  0  0  0
   39.9620   27.8400   41.5940 C   0  0  0  0  0  0  0  0  0  0  0  0
   39.2400   28.0700   42.7590 C   0  0  0  0  0  0  0  0  0  0  0  0
   39.1790   27.0200   43.6800 C   0  0  0  0  0  0  0  0  0  0  0  0
   39.8310   25.8610   43.3630 N   0  0  0  0  0  0  0  0  0  0  0  0
   40.5130   25.6890   42.2280 C   0  0  0  0  0  0  0  0  0  0  0  0
   40.5760   26.6870   41.3430 N   0  0  0  0  0  0  0  0  0  0  0  0
   40.0850   28.5790   40.7960 H   0  0  0  0  0  0  0  0  0  0  0  0
   38.6230   27.2110   44.5680 H   0  0  0  0  0  0  0  0  0  0  0  0
   40.9420   24.6850   42.2060 H   0  0  0  0  0  0  0  0  0  0  0  0
   37.5010   29.5110   41.9670 C   0  0  0  0  0  0  0  0  0  0  0  0
   36.5390   28.5480   41.7660 C   0  0  0  0  0  3  0  0  0  0  0  0
   35.5490   28.7940   40.8300 C   0  0  0  0  0  0  0  0  0  0  0  0
   34.7770   28.0640   40.6440 H   0  0  0  0  0  0  0  0  0  0  0  0
   35.4850   29.9280   40.1120 N   0  0  0  0  0  0  0  0  0  0  0  0
   36.4380   30.8560   40.3270 C   0  0  0  0  0  3  0  0  0  0  0  0
   37.4140   30.6470   41.2290 N   0  0  0  0  0  0  0  0  0  0  0  0
   39.6430   30.4270   42.6340 C   0  0  0  0  0  0  0  0  0  0  0  0
   39.6430   30.6820   41.5480 H   0  0  0  0  0  0  0  0  0  0  0  0
   40.6520   30.0260   42.8670 H   0  0  0  0  0  0  0  0  0  0  0  0
   39.5080   31.3220   43.2730 H   0  0  0  0  0  0  0  0  0  0  0  0
  1  2  1  1  0  0  0
  3  4  1  0  0  0  0
  4  1  1  0  0  0  0
  4  5  2  0  0  0  0
  5 10  1  0  0  0  0
  6  5  1  0  0  0  0
  7  6  2  0  0  0  0
  8  3  2  0  0  0  0
  8  7  1  0  0  0  0
  9  3  1  0  0  0  0
 11  7  1  0  0  0  0
 12  1  1  0  0  0  0
 13 12  1  0  0  0  0
 14 13  2  0  0  0  0
 15 14  1  0  0  0  0
 16 17  2  0  0  0  0
 16 14  1  0  0  0  0
 17 18  1  0  0  0  0
 18 12  2  0  0  0  0
 19 21  1  0  0  0  0
 19  1  1  0  0  0  0
 19 22  1  0  0  0  0
 20 19  1  0  0  0  0
M  END
>  <minimizedAffinity>
-3.92899537

$$$$

 OpenBabel03252502373D

 22 23  0  0  1  0  0  0  0  0999 V2000
   36.8580   27.1470   42.3070 C   0  0  2  0  0  0  0  0  0  0  0  0
   36.3930   26.2570   41.8320 H   0  0  0  0  0  0  0  0  0  0  0  0
   39.0150   26.5210   41.3490 C   0  0  0  0  0  0  0  0  0  0  0  0
   38.2840   26.9270   42.4600 C   0  0  0  0  0  0  0  0  0  0  0  0
   38.9920   27.1000   43.6520 C   0  0  0  0  0  0  0  0  0  0  0  0
   40.3370   26.8580   43.6300 N   0  0  0  0  0  0  0  0  0  0  0  0
   40.9960   26.4680   42.5360 C   0  0  0  0  0  0  0  0  0  0  0  0
   40.3260   26.3010   41.3920 N   0  0  0  0  0  0  0  0  0  0  0  0
   38.5790   26.3500   40.3610 H   0  0  0  0  0  0  0  0  0  0  0  0
   38.4190   27.4120   44.4940 H   0  0  0  0  0  0  0  0  0  0  0  0
   42.0550   26.3410   42.7700 H   0  0  0  0  0  0  0  0  0  0  0  0
   36.6370   28.3600   41.4800 C   0  0  0  0  0  0  0  0  0  0  0  0
   36.9640   29.6300   41.8950 C   0  0  0  0  0  3  0  0  0  0  0  0
   36.7120   30.6870   41.0370 C   0  0  0  0  0  0  0  0  0  0  0  0
   36.9550   31.6980   41.3260 H   0  0  0  0  0  0  0  0  0  0  0  0
   36.1650   30.5290   39.8200 N   0  0  0  0  0  0  0  0  0  0  0  0
   35.8530   29.2750   39.4350 C   0  0  0  0  0  3  0  0  0  0  0  0
   36.0850   28.2270   40.2470 N   0  0  0  0  0  0  0  0  0  0  0  0
   36.2790   27.4070   43.6790 C   0  0  0  0  0  0  0  0  0  0  0  0
   36.3260   28.4920   43.9340 H   0  0  0  0  0  0  0  0  0  0  0  0
   36.8940   26.8750   44.4350 H   0  0  0  0  0  0  0  0  0  0  0  0
   35.2530   27.0010   43.7720 H   0  0  0  0  0  0  0  0  0  0  0  0
  1  2  1  6  0  0  0
  1  4  1  0  0  0  0
  1 19  1  0  0  0  0
  3  8  2  0  0  0  0
  3  4  1  0  0  0  0
  4  5  2  0  0  0  0
  5 10  1  0  0  0  0
  6  5  1  0  0  0  0
  7 11  1  0  0  0  0
  7  6  2  0  0  0  0
  8  7  1  0  0  0  0
  9  3  1  0  0  0  0
 12 13  1  0  0  0  0
 12  1  1  0  0  0  0
 14 15  1  0  0  0  0
 14 13  2  0  0  0  0
 16 14  1  0  0  0  0
 17 16  2  0  0  0  0
 17 18  1  0  0  0  0
 18 12  2  0  0  0  0
 19 22  1  0  0  0  0
 19 20  1  0  0  0  0
 19 21  1  0  0  0  0
M  END
>  <minimizedAffinity>
-3.85854673

$$$$

 OpenBabel03252502373D

 22 23  0  0  1  0  0  0  0  0999 V2000
   37.8690   26.9140   43.3720 C   0  0  2  0  0  0  0  0  0  0  0  0
   38.2480   26.3330   44.2410 H   0  0  0  0  0  0  0  0  0  0  0  0
   38.3670   29.2790   43.0230 C   0  0  0  0  0  0  0  0  0  0  0  0
   38.8140   27.9630   43.0400 C   0  0  0  0  0  0  0  0  0  0  0  0
   40.1620   27.7530   42.7370 C   0  0  0  0  0  0  0  0  0  0  0  0
   40.9260   28.8500   42.4510 N   0  0  0  0  0  0  0  0  0  0  0  0
   40.4480   30.0960   42.4480 C   0  0  0  0  0  0  0  0  0  0  0  0
   39.1610   30.3060   42.7370 N   0  0  0  0  0  0  0  0  0  0  0  0
   37.3360   29.5760   43.2420 H   0  0  0  0  0  0  0  0  0  0  0  0
   40.4910   26.7390   42.7550 H   0  0  0  0  0  0  0  0  0  0  0  0
   41.2470   30.7950   42.1910 H   0  0  0  0  0  0  0  0  0  0  0  0
   37.6840   26.0320   42.1920 C   0  0  0  0  0  0  0  0  0  0  0  0
   38.0260   24.7000   42.1810 C   0  0  0  0  0  3  0  0  0  0  0  0
   37.8070   23.9750   41.0220 C   0  0  0  0  0  0  0  0  0  0  0  0
   38.0620   22.9280   40.9730 H   0  0  0  0  0  0  0  0  0  0  0  0
   37.2770   24.5120   39.9100 N   0  0  0  0  0  0  0  0  0  0  0  0
   36.9500   25.8190   39.9450 C   0  0  0  0  0  3  0  0  0  0  0  0
   37.1500   26.5510   41.0570 N   0  0  0  0  0  0  0  0  0  0  0  0
   36.5410   27.5660   43.6800 C   0  0  0  0  0  0  0  0  0  0  0  0
   35.9340   27.6930   42.7530 H   0  0  0  0  0  0  0  0  0  0  0  0
   36.7250   28.5840   44.0820 H   0  0  0  0  0  0  0  0  0  0  0  0
   35.9890   27.0150   44.4670 H   0  0  0  0  0  0  0  0  0  0  0  0
  1 19  1  0  0  0  0
  1  2  1  1  0  0  0
  3  4  1  0  0  0  0
  3  9  1  0  0  0  0
  4  1  1  0  0  0  0
  5 10  1  0  0  0  0
  5  4  2  0  0  0  0
  6  5  1  0  0  0  0
  7  6  2  0  0  0  0
  7  8  1  0  0  0  0
  8  3  2  0  0  0  0
 11  7  1  0  0  0  0
 12  1  1  0  0  0  0
 13 12  1  0  0  0  0
 14 13  2  0  0  0  0
 15 14  1  0  0  0  0
 16 17  2  0  0  0  0
 16 14  1  0  0  0  0
 17 18  1  0  0  0  0
 18 12  2  0  0  0  0
 19 21  1  0  0  0  0
 19 22  1  0  0  0  0
 20 19  1  0  0  0  0
M  END
>  <minimizedAffinity>
-3.83894038

$$$$

 OpenBabel03252502373D

 22 23  0  0  1  0  0  0  0  0999 V2000
   37.5720   28.1330   42.8620 C   0  0  2  0  0  0  0  0  0  0  0  0
   37.3450   28.4900   43.8900 H   0  0  0  0  0  0  0  0  0  0  0  0
   38.6350   28.9670   40.8270 C   0  0  0  0  0  0  0  0  0  0  0  0
   38.4480   29.0810   42.2010 C   0  0  0  0  0  0  0  0  0  0  0  0
   39.1270   30.1190   42.8440 C   0  0  0  0  0  0  0  0  0  0  0  0
   39.9120   30.9340   42.0770 N   0  0  0  0  0  0  0  0  0  0  0  0
   40.0590   30.7840   40.7590 C   0  0  0  0  0  0  0  0  0  0  0  0
   39.4130   29.7930   40.1360 N   0  0  0  0  0  0  0  0  0  0  0  0
   38.1610   28.1980   40.2090 H   0  0  0  0  0  0  0  0  0  0  0  0
   38.9750   30.1940   43.8960 H   0  0  0  0  0  0  0  0  0  0  0  0
   40.7320   31.5520   40.3730 H   0  0  0  0  0  0  0  0  0  0  0  0
   38.2320   26.8030   42.9010 C   0  0  0  0  0  0  0  0  0  0  0  0
   37.7180   25.6840   42.2890 C   0  0  0  0  0  3  0  0  0  0  0  0
   38.4210   24.4960   42.3930 C   0  0  0  0  0  0  0  0  0  0  0  0
   38.0510   23.5970   41.9260 H   0  0  0  0  0  0  0  0  0  0  0  0
   39.5820   24.3880   43.0620 N   0  0  0  0  0  0  0  0  0  0  0  0
   40.0660   25.4980   43.6530 C   0  0  0  0  0  3  0  0  0  0  0  0
   39.4050   26.6670   43.5710 N   0  0  0  0  0  0  0  0  0  0  0  0
   36.3150   28.0050   42.0320 C   0  0  0  0  0  0  0  0  0  0  0  0
   36.4300   27.2160   41.2520 H   0  0  0  0  0  0  0  0  0  0  0  0
   36.1420   28.9610   41.4940 H   0  0  0  0  0  0  0  0  0  0  0  0
   35.4230   27.8380   42.6660 H   0  0  0  0  0  0  0  0  0  0  0  0
  1 12  1  0  0  0  0
  1  2  1  1  0  0  0
  3  4  1  0  0  0  0
  4  5  2  0  0  0  0
  4  1  1  0  0  0  0
  5 10  1  0  0  0  0
  6  5  1  0  0  0  0
  7  6  2  0  0  0  0
  8  7  1  0  0  0  0
  8  3  2  0  0  0  0
  9  3  1  0  0  0  0
 11  7  1  0  0  0  0
 12 18  1  0  0  0  0
 13 14  1  0  0  0  0
 13 12  2  0  0  0  0
 14 16  2  0  0  0  0
 15 14  1  0  0  0  0
 16 17  1  0  0  0  0
 18 17  2  0  0  0  0
 19 22  1  0  0  0  0
 19  1  1  0  0  0  0
 20 19  1  0  0  0  0
 21 19  1  0  0  0  0
M  END
>  <minimizedAffinity>
-3.83604598

$$$$
