REMARK  Name = 
REMARK  2 active torsions:
REMARK  status: ('A' for Active; 'I' for Inactive)
REMARK    1  A    between atoms: C_1  and  C_7
REMARK    2  A    between atoms: C_3  and  C_13
REMARK                            x       y       z     vdW  Elec       q    Type
REMARK                         _______ _______ _______ _____ _____    ______ ____
ROOT
ATOM      1  C   UNL     1      47.679  34.957  42.342  0.00  0.00    +0.000 A 
ATOM      2  C   UNL     1      47.922  33.906  43.248  0.00  0.00    +0.000 A 
ATOM      3  C   UNL     1      46.900  33.537  44.124  0.00  0.00    +0.000 A 
ATOM      4  N   UNL     1      45.729  34.200  44.063  0.00  0.00    +0.000 NA
ATOM      5  C   UNL     1      45.507  35.210  43.186  0.00  0.00    +0.000 A 
ATOM      6  N   UNL     1      46.484  35.582  42.331  0.00  0.00    +0.000 NA
ATOM      7  H   UNL     1      48.852  33.356  43.319  0.00  0.00    +0.000 HD
ATOM      8  H   UNL     1      44.571  35.757  43.122  0.00  0.00    +0.000 HD
ENDROOT
BRANCH   3   9
ATOM      9  C   UNL     1      47.103  32.471  45.066  0.00  0.00    +0.000 A 
ATOM     10  C   UNL     1      46.020  31.904  45.704  0.00  0.00    +0.000 A 
ATOM     11  C   UNL     1      46.255  30.869  46.614  0.00  0.00    +0.000 A 
ATOM     12  H   UNL     1      45.448  30.367  47.163  0.00  0.00    +0.000 HD
ATOM     13  N   UNL     1      47.521  30.426  46.868  0.00  0.00    +0.000 NA
ATOM     14  C   UNL     1      48.538  31.010  46.221  0.00  0.00    +0.000 A 
ATOM     15  N   UNL     1      48.333  32.011  45.339  0.00  0.00    +0.000 NA
ENDBRANCH   3   9
BRANCH   1  16
ATOM     16  C   UNL     1      48.792  35.331  41.416  0.00  0.00    +0.000 C 
ATOM     17  F   UNL     1      48.415  35.246  40.105  0.00  0.00    +0.000 F 
ATOM     18  F   UNL     1      49.206  36.616  41.764  0.00  0.00    +0.000 F 
ATOM     19  F   UNL     1      49.896  34.499  41.678  0.00  0.00    +0.000 F 
ENDBRANCH   1  16
TORSDOF 2
