
 OpenBabel03252507583D

 25 27  0  0  1  0  0  0  0  0999 V2000
   38.6600   29.1180   41.9190 C   0  0  1  0  0  0  0  0  0  0  0  0
   38.1310   29.2090   43.3080 C   0  0  0  0  0  0  0  0  0  0  0  0
   37.7480   28.0550   42.4530 C   0  0  2  0  0  0  0  0  0  0  0  0
   39.7410   29.0150   41.8050 H   0  0  0  0  0  0  0  0  0  0  0  0
   37.3280   29.9650   43.4820 H   0  0  0  0  0  0  0  0  0  0  0  0
   38.8560   29.1260   44.1160 H   0  0  0  0  0  0  0  0  0  0  0  0
   36.7190   27.9790   42.0910 H   0  0  0  0  0  0  0  0  0  0  0  0
   37.5480   31.9920   39.9320 C   0  0  0  0  0  0  0  0  0  0  0  0
   36.8890   31.4020   38.8310 C   0  0  0  0  0  0  0  0  0  0  0  0
   36.8380   29.9970   38.7810 C   0  0  0  0  0  0  0  0  0  0  0  0
   37.4220   29.2960   39.7890 N   0  0  0  0  0  0  0  0  0  0  0  0
   38.0430   29.9330   40.8240 C   0  0  0  0  0  0  0  0  0  0  0  0
   38.1160   31.2600   40.9140 N   0  0  0  0  0  0  0  0  0  0  0  0
   36.4360   31.9580   38.0500 H   0  0  0  0  0  0  0  0  0  0  0  0
   36.3500   29.4880   37.9680 H   0  0  0  0  0  0  0  0  0  0  0  0
   37.5530   33.4240   39.9180 C   0  0  0  0  0  0  0  0  0  0  0  0
   38.5090   34.1610   40.3040 O   0  0  0  0  0  0  0  0  0  0  0  0
   36.6060   33.8000   39.5230 H   0  0  0  0  0  0  0  0  0  0  0  0
   38.4400   26.7370   42.6500 C   0  0  0  0  0  0  0  0  0  0  0  0
   39.4710   26.6010   43.5700 C   0  0  0  0  0  3  0  0  0  0  0  0
   40.0440   25.3520   43.6790 C   0  0  0  0  0  0  0  0  0  0  0  0
   40.8500   25.2520   44.4000 H   0  0  0  0  0  0  0  0  0  0  0  0
   39.6720   24.2770   42.9610 N   0  0  0  0  0  0  0  0  0  0  0  0
   38.6690   24.4470   42.0780 C   0  0  0  0  0  3  0  0  0  0  0  0
   38.0820   25.6490   41.9400 N   0  0  0  0  0  0  0  0  0  0  0  0
  1  4  1  6  0  0  0
  1  3  1  0  0  0  0
  1  2  1  0  0  0  0
  2  5  1  0  0  0  0
  2  6  1  0  0  0  0
  3  7  1  6  0  0  0
  3 19  1  0  0  0  0
  3  2  1  0  0  0  0
  8 13  1  0  0  0  0
  9  8  2  0  0  0  0
 10  9  1  0  0  0  0
 10 11  2  0  0  0  0
 11 12  1  0  0  0  0
 12 13  2  0  0  0  0
 12  1  1  0  0  0  0
 14  9  1  0  0  0  0
 15 10  1  0  0  0  0
 16  8  1  0  0  0  0
 16 17  2  0  0  0  0
 18 16  1  0  0  0  0
 19 20  1  0  0  0  0
 20 21  2  0  0  0  0
 21 22  1  0  0  0  0
 23 21  1  0  0  0  0
 24 23  2  0  0  0  0
 25 24  1  0  0  0  0
 25 19  2  0  0  0  0
M  END
>  <minimizedAffinity>
-4.56819773

$$$$

 OpenBabel03252507583D

 25 27  0  0  1  0  0  0  0  0999 V2000
   38.6430   30.0350   42.5060 C   0  0  1  0  0  0  0  0  0  0  0  0
   40.0170   30.5960   42.6280 C   0  0  0  0  0  0  0  0  0  0  0  0
   39.3650   30.5400   41.2940 C   0  0  2  0  0  0  0  0  0  0  0  0
   37.8420   30.5670   43.0240 H   0  0  0  0  0  0  0  0  0  0  0  0
   40.8390   29.8580   42.7920 H   0  0  0  0  0  0  0  0  0  0  0  0
   40.1220   31.5210   43.1920 H   0  0  0  0  0  0  0  0  0  0  0  0
   39.7420   29.8380   40.5450 H   0  0  0  0  0  0  0  0  0  0  0  0
   39.1750   26.4480   43.0490 C   0  0  0  0  0  0  0  0  0  0  0  0
   38.0470   25.8480   42.4460 C   0  0  0  0  0  0  0  0  0  0  0  0
   37.0980   26.7000   41.8540 C   0  0  0  0  0  0  0  0  0  0  0  0
   37.3210   28.0400   41.8960 N   0  0  0  0  0  0  0  0  0  0  0  0
   38.4340   28.5510   42.4970 C   0  0  0  0  0  0  0  0  0  0  0  0
   39.3600   27.7860   43.0710 N   0  0  0  0  0  0  0  0  0  0  0  0
   37.8830   24.8010   42.4190 H   0  0  0  0  0  0  0  0  0  0  0  0
   36.2180   26.3030   41.3780 H   0  0  0  0  0  0  0  0  0  0  0  0
   40.1000   25.5190   43.6250 C   0  0  0  0  0  0  0  0  0  0  0  0
   40.9060   24.7850   42.9770 O   0  0  0  0  0  0  0  0  0  0  0  0
   40.0170   25.5300   44.7140 H   0  0  0  0  0  0  0  0  0  0  0  0
   38.7500   31.7880   40.7260 C   0  0  0  0  0  0  0  0  0  0  0  0
   37.6830   31.7200   39.8410 C   0  0  0  0  0  3  0  0  0  0  0  0
   37.1870   32.9190   39.3740 C   0  0  0  0  0  0  0  0  0  0  0  0
   36.3530   32.8590   38.6820 H   0  0  0  0  0  0  0  0  0  0  0  0
   37.6650   34.1270   39.7190 N   0  0  0  0  0  0  0  0  0  0  0  0
   38.7010   34.1540   40.5810 C   0  0  0  0  0  3  0  0  0  0  0  0
   39.2150   33.0080   41.0600 N   0  0  0  0  0  0  0  0  0  0  0  0
  1  2  1  0  0  0  0
  1  4  1  1  0  0  0
  2  5  1  0  0  0  0
  2  6  1  0  0  0  0
  3  7  1  6  0  0  0
  3  1  1  0  0  0  0
  3  2  1  0  0  0  0
  8 13  1  0  0  0  0
  8 16  1  0  0  0  0
  9  8  2  0  0  0  0
 10 11  2  0  0  0  0
 10  9  1  0  0  0  0
 11 12  1  0  0  0  0
 12  1  1  0  0  0  0
 12 13  2  0  0  0  0
 14  9  1  0  0  0  0
 15 10  1  0  0  0  0
 16 18  1  0  0  0  0
 17 16  2  0  0  0  0
 19 25  1  0  0  0  0
 19  3  1  0  0  0  0
 20 19  2  0  0  0  0
 21 23  2  0  0  0  0
 21 20  1  0  0  0  0
 22 21  1  0  0  0  0
 23 24  1  0  0  0  0
 24 25  2  0  0  0  0
M  END
>  <minimizedAffinity>
-4.50423241

$$$$

 OpenBabel03252507583D

 25 27  0  0  1  0  0  0  0  0999 V2000
   39.1660   30.0820   42.6560 C   0  0  1  0  0  0  0  0  0  0  0  0
   40.4130   30.8970   42.6470 C   0  0  0  0  0  0  0  0  0  0  0  0
   39.7350   30.5790   41.3620 C   0  0  2  0  0  0  0  0  0  0  0  0
   38.2980   30.5090   43.1640 H   0  0  0  0  0  0  0  0  0  0  0  0
   41.3640   30.3450   42.8370 H   0  0  0  0  0  0  0  0  0  0  0  0
   40.3610   31.8800   43.1100 H   0  0  0  0  0  0  0  0  0  0  0  0
   40.2120   29.8820   40.6670 H   0  0  0  0  0  0  0  0  0  0  0  0
   38.2530   26.5310   42.5780 C   0  0  0  0  0  0  0  0  0  0  0  0
   39.3900   25.8830   43.1100 C   0  0  0  0  0  0  0  0  0  0  0  0
   40.4780   26.6880   43.4900 C   0  0  0  0  0  0  0  0  0  0  0  0
   40.3720   28.0330   43.3260 N   0  0  0  0  0  0  0  0  0  0  0  0
   39.2410   28.5930   42.8050 C   0  0  0  0  0  0  0  0  0  0  0  0
   38.1860   27.8720   42.4310 N   0  0  0  0  0  0  0  0  0  0  0  0
   39.4620   24.8320   43.2330 H   0  0  0  0  0  0  0  0  0  0  0  0
   41.3730   26.2530   43.9010 H   0  0  0  0  0  0  0  0  0  0  0  0
   37.1840   25.6490   42.2200 C   0  0  0  0  0  0  0  0  0  0  0  0
   37.2370   24.3820   42.2370 O   0  0  0  0  0  0  0  0  0  0  0  0
   36.3030   26.2240   41.9270 H   0  0  0  0  0  0  0  0  0  0  0  0
   38.8760   31.6240   40.7100 C   0  0  0  0  0  0  0  0  0  0  0  0
   37.8240   31.2660   39.8780 C   0  0  0  0  0  3  0  0  0  0  0  0
   37.0920   32.2960   39.3250 C   0  0  0  0  0  0  0  0  0  0  0  0
   36.2710   32.0090   38.6750 H   0  0  0  0  0  0  0  0  0  0  0  0
   37.3320   33.6010   39.5400 N   0  0  0  0  0  0  0  0  0  0  0  0
   38.3600   33.9110   40.3530 C   0  0  0  0  0  3  0  0  0  0  0  0
   39.1000   32.9370   40.9130 N   0  0  0  0  0  0  0  0  0  0  0  0
  1 12  1  0  0  0  0
  1  4  1  1  0  0  0
  2  1  1  0  0  0  0
  2  5  1  0  0  0  0
  2  6  1  0  0  0  0
  3  7  1  6  0  0  0
  3  2  1  0  0  0  0
  3  1  1  0  0  0  0
  8  9  1  0  0  0  0
  9 14  1  0  0  0  0
  9 10  2  0  0  0  0
 10 15  1  0  0  0  0
 11 10  1  0  0  0  0
 12 11  2  0  0  0  0
 13  8  2  0  0  0  0
 13 12  1  0  0  0  0
 16 17  2  0  0  0  0
 16  8  1  0  0  0  0
 18 16  1  0  0  0  0
 19 25  1  0  0  0  0
 19  3  1  0  0  0  0
 20 19  2  0  0  0  0
 21 23  2  0  0  0  0
 21 20  1  0  0  0  0
 22 21  1  0  0  0  0
 23 24  1  0  0  0  0
 24 25  2  0  0  0  0
M  END
>  <minimizedAffinity>
-4.46440983

$$$$

 OpenBabel03252507583D

 25 27  0  0  1  0  0  0  0  0999 V2000
   39.1560   28.9040   41.4520 C   0  0  1  0  0  0  0  0  0  0  0  0
   39.8760   28.8780   42.7560 C   0  0  0  0  0  0  0  0  0  0  0  0
   38.5110   28.2980   42.6610 C   0  0  2  0  0  0  0  0  0  0  0  0
   39.6000   28.3380   40.6290 H   0  0  0  0  0  0  0  0  0  0  0  0
   39.9470   29.8510   43.2990 H   0  0  0  0  0  0  0  0  0  0  0  0
   40.7730   28.2640   42.8100 H   0  0  0  0  0  0  0  0  0  0  0  0
   37.6800   28.8080   43.1560 H   0  0  0  0  0  0  0  0  0  0  0  0
   38.5570   32.4320   40.6520 C   0  0  0  0  0  0  0  0  0  0  0  0
   37.2320   32.4420   40.1610 C   0  0  0  0  0  0  0  0  0  0  0  0
   36.5510   31.2130   40.1050 C   0  0  0  0  0  0  0  0  0  0  0  0
   37.2020   30.0970   40.5250 N   0  0  0  0  0  0  0  0  0  0  0  0
   38.4850   30.1600   40.9880 C   0  0  0  0  0  0  0  0  0  0  0  0
   39.1700   31.2990   41.0590 N   0  0  0  0  0  0  0  0  0  0  0  0
   36.7330   33.3200   39.8360 H   0  0  0  0  0  0  0  0  0  0  0  0
   35.5400   31.1560   39.7410 H   0  0  0  0  0  0  0  0  0  0  0  0
   39.1840   33.7180   40.6860 C   0  0  0  0  0  0  0  0  0  0  0  0
   40.0950   34.1150   39.8990 O   0  0  0  0  0  0  0  0  0  0  0  0
   38.7630   34.3210   41.4930 H   0  0  0  0  0  0  0  0  0  0  0  0
   38.3550   26.8080   42.5540 C   0  0  0  0  0  0  0  0  0  0  0  0
   37.1540   26.2420   42.1490 C   0  0  0  0  0  3  0  0  0  0  0  0
   37.1080   24.8660   42.0820 C   0  0  0  0  0  0  0  0  0  0  0  0
   36.1660   24.4290   41.7640 H   0  0  0  0  0  0  0  0  0  0  0  0
   38.1370   24.0530   42.3790 N   0  0  0  0  0  0  0  0  0  0  0  0
   39.2870   24.6380   42.7680 C   0  0  0  0  0  3  0  0  0  0  0  0
   39.3750   25.9770   42.8480 N   0  0  0  0  0  0  0  0  0  0  0  0
  1  4  1  6  0  0  0
  1  3  1  0  0  0  0
  1  2  1  0  0  0  0
  2  6  1  0  0  0  0
  2  5  1  0  0  0  0
  3  2  1  0  0  0  0
  3  7  1  1  0  0  0
  8 16  1  0  0  0  0
  8 13  1  0  0  0  0
  9  8  2  0  0  0  0
 10  9  1  0  0  0  0
 10 11  2  0  0  0  0
 11 12  1  0  0  0  0
 12 13  2  0  0  0  0
 12  1  1  0  0  0  0
 14  9  1  0  0  0  0
 15 10  1  0  0  0  0
 16 18  1  0  0  0  0
 17 16  2  0  0  0  0
 19  3  1  0  0  0  0
 19 25  1  0  0  0  0
 20 19  2  0  0  0  0
 21 20  1  0  0  0  0
 21 23  2  0  0  0  0
 22 21  1  0  0  0  0
 23 24  1  0  0  0  0
 24 25  2  0  0  0  0
M  END
>  <minimizedAffinity>
-4.45400906

$$$$

 OpenBabel03252507583D

 25 27  0  0  1  0  0  0  0  0999 V2000
   37.2830   28.0700   40.6150 C   0  0  1  0  0  0  0  0  0  0  0  0
   35.8900   28.5850   40.7210 C   0  0  0  0  0  0  0  0  0  0  0  0
   36.9440   29.1340   41.6130 C   0  0  2  0  0  0  0  0  0  0  0  0
   37.8050   28.2410   39.6710 H   0  0  0  0  0  0  0  0  0  0  0  0
   35.1500   27.9090   41.2120 H   0  0  0  0  0  0  0  0  0  0  0  0
   35.5020   29.1330   39.8650 H   0  0  0  0  0  0  0  0  0  0  0  0
   36.9150   28.8990   42.6810 H   0  0  0  0  0  0  0  0  0  0  0  0
   39.0900   25.5280   42.5430 C   0  0  0  0  0  0  0  0  0  0  0  0
   38.3180   24.3590   42.3600 C   0  0  0  0  0  0  0  0  0  0  0  0
   37.1620   24.4620   41.5660 C   0  0  0  0  0  0  0  0  0  0  0  0
   36.8590   25.6720   41.0250 N   0  0  0  0  0  0  0  0  0  0  0  0
   37.6510   26.7610   41.2440 C   0  0  0  0  0  0  0  0  0  0  0  0
   38.7540   26.7130   41.9880 N   0  0  0  0  0  0  0  0  0  0  0  0
   38.5640   23.4200   42.7870 H   0  0  0  0  0  0  0  0  0  0  0  0
   36.5330   23.6070   41.3890 H   0  0  0  0  0  0  0  0  0  0  0  0
   40.2540   25.3450   43.3570 C   0  0  0  0  0  0  0  0  0  0  0  0
   41.3530   24.8460   42.9690 O   0  0  0  0  0  0  0  0  0  0  0  0
   40.0630   25.7000   44.3720 H   0  0  0  0  0  0  0  0  0  0  0  0
   37.5640   30.4620   41.2840 C   0  0  0  0  0  0  0  0  0  0  0  0
   36.8800   31.4010   40.5240 C   0  0  0  0  0  3  0  0  0  0  0  0
   37.5310   32.5910   40.2740 C   0  0  0  0  0  0  0  0  0  0  0  0
   36.9910   33.3210   39.6780 H   0  0  0  0  0  0  0  0  0  0  0  0
   38.7650   32.8910   40.7150 N   0  0  0  0  0  0  0  0  0  0  0  0
   39.3980   31.9560   41.4510 C   0  0  0  0  0  3  0  0  0  0  0  0
   38.7990   30.7810   41.7170 N   0  0  0  0  0  0  0  0  0  0  0  0
  1  4  1  6  0  0  0
  1  2  1  0  0  0  0
  1 12  1  0  0  0  0
  1  3  1  0  0  0  0
  2  5  1  0  0  0  0
  2  3  1  0  0  0  0
  3  7  1  1  0  0  0
  6  2  1  0  0  0  0
  8 16  1  0  0  0  0
  9  8  1  0  0  0  0
  9 14  1  0  0  0  0
 10  9  2  0  0  0  0
 11 12  2  0  0  0  0
 11 10  1  0  0  0  0
 12 13  1  0  0  0  0
 13  8  2  0  0  0  0
 15 10  1  0  0  0  0
 16 18  1  0  0  0  0
 17 16  2  0  0  0  0
 19  3  1  0  0  0  0
 19 25  1  0  0  0  0
 20 19  2  0  0  0  0
 21 20  1  0  0  0  0
 21 23  2  0  0  0  0
 22 21  1  0  0  0  0
 23 24  1  0  0  0  0
 24 25  2  0  0  0  0
M  END
>  <minimizedAffinity>
-4.4348464

$$$$

 OpenBabel03252507583D

 25 27  0  0  1  0  0  0  0  0999 V2000
   38.6490   29.1230   41.8950 C   0  0  1  0  0  0  0  0  0  0  0  0
   38.1330   29.2410   43.2870 C   0  0  0  0  0  0  0  0  0  0  0  0
   37.7200   28.0850   42.4490 C   0  0  2  0  0  0  0  0  0  0  0  0
   39.7270   28.9980   41.7740 H   0  0  0  0  0  0  0  0  0  0  0  0
   37.3470   30.0150   43.4590 H   0  0  0  0  0  0  0  0  0  0  0  0
   38.8620   29.1530   44.0900 H   0  0  0  0  0  0  0  0  0  0  0  0
   36.6870   28.0260   42.0950 H   0  0  0  0  0  0  0  0  0  0  0  0
   37.4380   30.1440   38.5880 C   0  0  0  0  0  0  0  0  0  0  0  0
   36.9490   31.4520   38.8010 C   0  0  0  0  0  0  0  0  0  0  0  0
   37.0390   31.9750   40.1030 C   0  0  0  0  0  0  0  0  0  0  0  0
   37.5870   31.1960   41.0730 N   0  0  0  0  0  0  0  0  0  0  0  0
   38.0390   29.9390   40.7960 C   0  0  0  0  0  0  0  0  0  0  0  0
   37.9760   29.4010   39.5790 N   0  0  0  0  0  0  0  0  0  0  0  0
   36.5230   32.0520   38.0370 H   0  0  0  0  0  0  0  0  0  0  0  0
   36.6840   32.9660   40.3290 H   0  0  0  0  0  0  0  0  0  0  0  0
   37.3200   29.6830   37.2380 C   0  0  0  0  0  0  0  0  0  0  0  0
   36.9560   30.3860   36.2480 O   0  0  0  0  0  0  0  0  0  0  0  0
   37.5900   28.6260   37.1760 H   0  0  0  0  0  0  0  0  0  0  0  0
   38.3880   26.7560   42.6550 C   0  0  0  0  0  0  0  0  0  0  0  0
   39.4330   26.6120   43.5580 C   0  0  0  0  0  3  0  0  0  0  0  0
   39.9810   25.3530   43.6770 C   0  0  0  0  0  0  0  0  0  0  0  0
   40.7980   25.2480   44.3850 H   0  0  0  0  0  0  0  0  0  0  0  0
   39.5720   24.2760   42.9850 N   0  0  0  0  0  0  0  0  0  0  0  0
   38.5560   24.4520   42.1190 C   0  0  0  0  0  3  0  0  0  0  0  0
   37.9920   25.6640   41.9710 N   0  0  0  0  0  0  0  0  0  0  0  0
  1  4  1  6  0  0  0
  1  3  1  0  0  0  0
  1  2  1  0  0  0  0
  2  5  1  0  0  0  0
  2  6  1  0  0  0  0
  3  7  1  6  0  0  0
  3 19  1  0  0  0  0
  3  2  1  0  0  0  0
  8  9  2  0  0  0  0
  8 13  1  0  0  0  0
  9 10  1  0  0  0  0
 10 15  1  0  0  0  0
 10 11  2  0  0  0  0
 12 11  1  0  0  0  0
 12  1  1  0  0  0  0
 13 12  2  0  0  0  0
 14  9  1  0  0  0  0
 16  8  1  0  0  0  0
 17 16  2  0  0  0  0
 18 16  1  0  0  0  0
 19 20  1  0  0  0  0
 20 21  2  0  0  0  0
 21 22  1  0  0  0  0
 23 21  1  0  0  0  0
 24 23  2  0  0  0  0
 25 24  1  0  0  0  0
 25 19  2  0  0  0  0
M  END
>  <minimizedAffinity>
-4.38596725

$$$$

 OpenBabel03252507583D

 25 27  0  0  1  0  0  0  0  0999 V2000
   36.6260   30.7590   39.5330 C   0  0  1  0  0  0  0  0  0  0  0  0
   37.2790   31.4150   38.3670 C   0  0  0  0  0  0  0  0  0  0  0  0
   36.9980   29.9570   38.3230 C   0  0  2  0  0  0  0  0  0  0  0  0
   35.6130   31.0830   39.7810 H   0  0  0  0  0  0  0  0  0  0  0  0
   38.3530   31.6940   38.4950 H   0  0  0  0  0  0  0  0  0  0  0  0
   36.6870   32.1440   37.8170 H   0  0  0  0  0  0  0  0  0  0  0  0
   37.8330   29.2510   38.3660 H   0  0  0  0  0  0  0  0  0  0  0  0
   37.6760   29.1670   42.6650 C   0  0  0  0  0  0  0  0  0  0  0  0
   38.8980   29.8060   42.9700 C   0  0  0  0  0  0  0  0  0  0  0  0
   39.3570   30.7910   42.0770 C   0  0  0  0  0  0  0  0  0  0  0  0
   38.6020   31.0680   40.9810 N   0  0  0  0  0  0  0  0  0  0  0  0
   37.4300   30.4090   40.7480 C   0  0  0  0  0  0  0  0  0  0  0  0
   36.9550   29.4700   41.5640 N   0  0  0  0  0  0  0  0  0  0  0  0
   39.4790   29.5830   43.8290 H   0  0  0  0  0  0  0  0  0  0  0  0
   40.2810   31.3140   42.2560 H   0  0  0  0  0  0  0  0  0  0  0  0
   37.2700   28.1830   43.6210 C   0  0  0  0  0  0  0  0  0  0  0  0
   36.2920   27.3860   43.4900 O   0  0  0  0  0  0  0  0  0  0  0  0
   37.9270   28.2110   44.4930 H   0  0  0  0  0  0  0  0  0  0  0  0
   35.8030   29.4640   37.5590 C   0  0  0  0  0  0  0  0  0  0  0  0
   35.8070   29.4280   36.1710 C   0  0  0  0  0  3  0  0  0  0  0  0
   34.6630   28.9600   35.5590 C   0  0  0  0  0  0  0  0  0  0  0  0
   34.6730   28.9360   34.4740 H   0  0  0  0  0  0  0  0  0  0  0  0
   33.5660   28.5430   36.2130 N   0  0  0  0  0  0  0  0  0  0  0  0
   33.5980   28.5900   37.5600 C   0  0  0  0  0  3  0  0  0  0  0  0
   34.6940   29.0410   38.1970 N   0  0  0  0  0  0  0  0  0  0  0  0
  1  4  1  1  0  0  0
  1 12  1  0  0  0  0
  2  5  1  0  0  0  0
  2  1  1  0  0  0  0
  3  7  1  1  0  0  0
  3  2  1  0  0  0  0
  3  1  1  0  0  0  0
  6  2  1  0  0  0  0
  8  9  1  0  0  0  0
  8 16  1  0  0  0  0
  9 14  1  0  0  0  0
 10 15  1  0  0  0  0
 10  9  2  0  0  0  0
 11 10  1  0  0  0  0
 12 11  2  0  0  0  0
 12 13  1  0  0  0  0
 13  8  2  0  0  0  0
 16 18  1  0  0  0  0
 17 16  2  0  0  0  0
 19 25  1  0  0  0  0
 19  3  1  0  0  0  0
 20 19  2  0  0  0  0
 21 20  1  0  0  0  0
 21 23  2  0  0  0  0
 22 21  1  0  0  0  0
 23 24  1  0  0  0  0
 24 25  2  0  0  0  0
M  END
>  <minimizedAffinity>
-4.33588123

$$$$

 OpenBabel03252507583D

 25 27  0  0  1  0  0  0  0  0999 V2000
   37.7450   28.1490   42.0390 C   0  0  1  0  0  0  0  0  0  0  0  0
   36.5530   27.5870   42.7330 C   0  0  0  0  0  0  0  0  0  0  0  0
   36.8420   27.1840   41.3320 C   0  0  2  0  0  0  0  0  0  0  0  0
   38.7240   27.9010   42.4550 H   0  0  0  0  0  0  0  0  0  0  0  0
   35.6870   28.2790   42.8650 H   0  0  0  0  0  0  0  0  0  0  0  0
   36.7420   26.9330   43.5830 H   0  0  0  0  0  0  0  0  0  0  0  0
   36.1840   27.5320   40.5310 H   0  0  0  0  0  0  0  0  0  0  0  0
   38.8090   31.3740   40.6570 C   0  0  0  0  0  0  0  0  0  0  0  0
   37.5950   32.0660   40.4520 C   0  0  0  0  0  0  0  0  0  0  0  0
   36.4030   31.4010   40.7920 C   0  0  0  0  0  0  0  0  0  0  0  0
   36.4900   30.1420   41.2960 N   0  0  0  0  0  0  0  0  0  0  0  0
   37.6990   29.5330   41.4680 C   0  0  0  0  0  0  0  0  0  0  0  0
   38.8540   30.1220   41.1600 N   0  0  0  0  0  0  0  0  0  0  0  0
   37.5380   33.0490   40.0580 H   0  0  0  0  0  0  0  0  0  0  0  0
   35.4460   31.8760   40.6590 H   0  0  0  0  0  0  0  0  0  0  0  0
   39.9790   32.1160   40.2950 C   0  0  0  0  0  0  0  0  0  0  0  0
   40.2910   33.2620   40.7360 O   0  0  0  0  0  0  0  0  0  0  0  0
   40.5760   31.5500   39.5760 H   0  0  0  0  0  0  0  0  0  0  0  0
   37.4960   25.8570   41.0710 C   0  0  0  0  0  0  0  0  0  0  0  0
   37.1500   24.7330   41.8090 C   0  0  0  0  0  3  0  0  0  0  0  0
   37.8050   23.5610   41.4960 C   0  0  0  0  0  0  0  0  0  0  0  0
   37.5300   22.6850   42.0770 H   0  0  0  0  0  0  0  0  0  0  0  0
   38.7400   23.4430   40.5380 N   0  0  0  0  0  0  0  0  0  0  0  0
   39.0490   24.5540   39.8420 C   0  0  0  0  0  3  0  0  0  0  0  0
   38.4350   25.7190   40.1150 N   0  0  0  0  0  0  0  0  0  0  0  0
  1  4  1  1  0  0  0
  1  2  1  0  0  0  0
  2  5  1  0  0  0  0
  2  6  1  0  0  0  0
  3  7  1  6  0  0  0
  3  1  1  0  0  0  0
  3  2  1  0  0  0  0
  8 13  1  0  0  0  0
  9  8  2  0  0  0  0
  9 10  1  0  0  0  0
 10 11  2  0  0  0  0
 11 12  1  0  0  0  0
 12  1  1  0  0  0  0
 13 12  2  0  0  0  0
 14  9  1  0  0  0  0
 15 10  1  0  0  0  0
 16  8  1  0  0  0  0
 16 17  2  0  0  0  0
 18 16  1  0  0  0  0
 19  3  1  0  0  0  0
 19 20  1  0  0  0  0
 21 20  2  0  0  0  0
 21 22  1  0  0  0  0
 23 21  1  0  0  0  0
 24 25  1  0  0  0  0
 24 23  2  0  0  0  0
 25 19  2  0  0  0  0
M  END
>  <minimizedAffinity>
-4.24849033

$$$$

 OpenBabel03252507583D

 25 27  0  0  1  0  0  0  0  0999 V2000
   36.0390   28.1060   40.2830 C   0  0  1  0  0  0  0  0  0  0  0  0
   35.1600   29.3060   40.2180 C   0  0  0  0  0  0  0  0  0  0  0  0
   36.4440   29.2970   39.4690 C   0  0  2  0  0  0  0  0  0  0  0  0
   35.6400   27.1750   39.8740 H   0  0  0  0  0  0  0  0  0  0  0  0
   35.1390   29.9520   41.1270 H   0  0  0  0  0  0  0  0  0  0  0  0
   34.1950   29.1820   39.7300 H   0  0  0  0  0  0  0  0  0  0  0  0
   37.2610   29.9420   39.8040 H   0  0  0  0  0  0  0  0  0  0  0  0
   38.3830   26.5350   42.6240 C   0  0  0  0  0  0  0  0  0  0  0  0
   38.4830   27.4720   43.6760 C   0  0  0  0  0  0  0  0  0  0  0  0
   37.7340   28.6570   43.5630 C   0  0  0  0  0  0  0  0  0  0  0  0
   36.9630   28.8280   42.4560 N   0  0  0  0  0  0  0  0  0  0  0  0
   36.9150   27.8790   41.4770 C   0  0  0  0  0  0  0  0  0  0  0  0
   37.6050   26.7420   41.5400 N   0  0  0  0  0  0  0  0  0  0  0  0
   39.0880   27.3290   44.5350 H   0  0  0  0  0  0  0  0  0  0  0  0
   37.7680   29.4100   44.3310 H   0  0  0  0  0  0  0  0  0  0  0  0
   39.1680   25.3520   42.8120 C   0  0  0  0  0  0  0  0  0  0  0  0
   40.1390   25.2320   43.6180 O   0  0  0  0  0  0  0  0  0  0  0  0
   38.8100   24.5550   42.1570 H   0  0  0  0  0  0  0  0  0  0  0  0
   36.4280   29.0270   37.9910 C   0  0  0  0  0  0  0  0  0  0  0  0
   35.2690   29.1960   37.2460 C   0  0  0  0  0  3  0  0  0  0  0  0
   35.3530   28.9240   35.8970 C   0  0  0  0  0  0  0  0  0  0  0  0
   34.4430   29.0580   35.3200 H   0  0  0  0  0  0  0  0  0  0  0  0
   36.4690   28.5120   35.2720 N   0  0  0  0  0  0  0  0  0  0  0  0
   37.5750   28.3600   36.0260 C   0  0  0  0  0  3  0  0  0  0  0  0
   37.5370   28.6140   37.3460 N   0  0  0  0  0  0  0  0  0  0  0  0
  1  4  1  6  0  0  0
  1 12  1  0  0  0  0
  2  1  1  0  0  0  0
  2  5  1  0  0  0  0
  3  7  1  1  0  0  0
  3  2  1  0  0  0  0
  3  1  1  0  0  0  0
  6  2  1  0  0  0  0
  8 16  1  0  0  0  0
  8  9  1  0  0  0  0
  9 14  1  0  0  0  0
 10  9  2  0  0  0  0
 10 15  1  0  0  0  0
 11 10  1  0  0  0  0
 12 13  1  0  0  0  0
 12 11  2  0  0  0  0
 13  8  2  0  0  0  0
 16 17  2  0  0  0  0
 18 16  1  0  0  0  0
 19  3  1  0  0  0  0
 20 19  2  0  0  0  0
 21 20  1  0  0  0  0
 22 21  1  0  0  0  0
 23 21  2  0  0  0  0
 23 24  1  0  0  0  0
 24 25  2  0  0  0  0
 25 19  1  0  0  0  0
M  END
>  <minimizedAffinity>
-4.20180035

$$$$
