
 OpenBabel03252508363D

 29 31  0  0  0  0  0  0  0  0999 V2000
   44.2230   33.1760   39.2300 C   0  0  0  0  0  0  0  0  0  0  0  0
   45.5190   33.0080   38.7600 C   0  0  0  0  0  0  0  0  0  0  0  0
   46.5280   33.5100   39.5230 C   0  0  0  0  0  0  0  0  0  0  0  0
   46.3090   34.1690   40.7260 C   0  0  0  0  0  0  0  0  0  0  0  0
   45.0150   34.3170   41.1580 C   0  0  0  0  0  0  0  0  0  0  0  0
   43.9770   33.8240   40.4160 C   0  0  0  0  0  0  0  0  0  0  0  0
   47.5490   33.3820   39.1640 H   0  0  0  0  0  0  0  0  0  0  0  0
   47.1620   34.5450   41.2840 H   0  0  0  0  0  0  0  0  0  0  0  0
   44.9080   34.8350   42.0930 H   0  0  0  0  0  0  0  0  0  0  0  0
   45.5160   32.2380   35.0640 C   0  0  0  0  0  0  0  0  0  0  0  0
   45.3550   32.9320   36.2710 C   0  0  0  0  0  0  0  0  0  0  0  0
   45.6770   32.3120   37.4970 C   0  0  0  0  0  0  0  0  0  0  0  0
   46.1340   31.0430   37.4010 N   0  0  0  0  0  0  0  0  0  0  0  0
   46.2830   30.3940   36.2480 C   0  0  0  0  0  0  0  0  0  0  0  0
   45.9690   31.0010   35.0740 N   0  0  0  0  0  0  0  0  0  0  0  0
   45.1790   32.8950   33.8700 N   0  0  0  0  0  0  0  0  0  0  0  0
   44.9800   33.9570   36.2740 H   0  0  0  0  0  0  0  0  0  0  0  0
   46.6590   29.3810   36.3190 H   0  0  0  0  0  0  0  0  0  0  0  0
   45.1340   33.9260   33.7180 H   0  0  0  0  0  0  0  0  0  0  0  0
   44.9480   32.3190   33.0320 H   0  0  0  0  0  0  0  0  0  0  0  0
   42.6010   33.9810   40.8720 C   0  0  0  0  0  0  0  0  0  0  0  0
   41.9410   35.1770   40.9040 C   0  0  0  0  0  3  0  0  0  0  0  0
   40.6390   35.3300   41.3350 C   0  0  0  0  0  0  0  0  0  0  0  0
   40.1480   36.3040   41.3450 H   0  0  0  0  0  0  0  0  0  0  0  0
   39.9470   34.2660   41.7540 N   0  0  0  0  0  0  0  0  0  0  0  0
   40.5760   33.0710   41.7320 C   0  0  0  0  0  3  0  0  0  0  0  0
   41.8440   32.9520   41.3070 N   0  0  0  0  0  0  0  0  0  0  0  0
   42.1810   32.2400   37.8860 N   0  0  0  0  0  0  0  0  0  0  0  0
   43.1070   32.6730   38.4880 C   0  0  0  0  0  0  0  0  0  0  0  0
  1  6  1  0  0  0  0
  2  1  2  0  0  0  0
  2  3  1  0  0  0  0
  3  4  2  0  0  0  0
  4  5  1  0  0  0  0
  4  8  1  0  0  0  0
  5  9  1  0  0  0  0
  6 21  1  0  0  0  0
  6  5  2  0  0  0  0
  7  3  1  0  0  0  0
 10 15  2  0  0  0  0
 10 11  1  0  0  0  0
 11 17  1  0  0  0  0
 11 12  2  0  0  0  0
 12  2  1  0  0  0  0
 13 12  1  0  0  0  0
 14 18  1  0  0  0  0
 14 13  2  0  0  0  0
 15 14  1  0  0  0  0
 16 10  1  0  0  0  0
 19 16  1  0  0  0  0
 20 16  1  0  0  0  0
 21 22  2  0  0  0  0
 21 27  1  0  0  0  0
 22 23  1  0  0  0  0
 23 24  1  0  0  0  0
 23 25  2  0  0  0  0
 26 25  1  0  0  0  0
 27 26  2  0  0  0  0
 28 29  3  0  0  0  0
 29  1  1  0  0  0  0
M  END
>  <minimizedAffinity>
-5.19509029

>  <minimizedRMSD>
7.92923832

$$$$
