REMARK  Name = 
REMARK  2 active torsions:
REMARK  status: ('A' for Active; 'I' for Inactive)
REMARK    1  A    between atoms: C_5  and  C_7
REMARK    2  A    between atoms: C_10  and  C_17
REMARK                            x       y       z     vdW  Elec       q    Type
REMARK                         _______ _______ _______ _____ _____    ______ ____
ROOT
ATOM      1  C   UNL     1      45.868  32.932  46.709  0.00  0.00    +0.000 A 
ATOM      2  C   UNL     1      45.099  32.771  47.896  0.00  0.00    +0.000 A 
ATOM      3  C   UNL     1      45.482  31.809  48.776  0.00  0.00    +0.000 A 
ATOM      4  C   UNL     1      46.618  31.013  48.482  0.00  0.00    +0.000 A 
ATOM      5  S   UNL     1      47.174  31.666  46.869  0.00  0.00    +0.000 S 
ATOM      6  H   UNL     1      44.240  33.400  48.080  0.00  0.00    +0.000 HD
ATOM      7  H   UNL     1      44.995  31.587  49.695  0.00  0.00    +0.000 HD
ENDROOT
BRANCH   1  12
ATOM      8  C   UNL     1      44.599  35.803  44.733  0.00  0.00    +0.000 A 
ATOM      9  C   UNL     1      45.275  35.562  43.509  0.00  0.00    +0.000 A 
ATOM     10  C   UNL     1      46.120  34.450  43.416  0.00  0.00    +0.000 A 
ATOM     11  N   UNL     1      46.243  33.652  44.526  0.00  0.00    +0.000 NA
ATOM     12  C   UNL     1      45.577  33.923  45.672  0.00  0.00    +0.000 A 
ATOM     13  N   UNL     1      44.755  34.997  45.779  0.00  0.00    +0.000 NA
ATOM     14  H   UNL     1      43.968  36.656  44.763  0.00  0.00    +0.000 HD
ATOM     15  H   UNL     1      45.184  36.185  42.630  0.00  0.00    +0.000 HD
ATOM     16  H   UNL     1      46.671  34.194  42.522  0.00  0.00    +0.000 HD
ENDBRANCH   1  12
BRANCH   4  17
ATOM     17  C   UNL     1      47.251  29.981  49.149  0.00  0.00    +0.000 A 
ATOM     18  C   UNL     1      48.034  30.251  50.251  0.00  0.00    +0.000 A 
ATOM     19  C   UNL     1      48.651  29.166  50.886  0.00  0.00    +0.000 A 
ATOM     20  H   UNL     1      49.266  29.366  51.749  0.00  0.00    +0.000 HD
ATOM     21  N   UNL     1      48.459  27.910  50.403  0.00  0.00    +0.000 NA
ATOM     22  C   UNL     1      47.688  27.683  49.326  0.00  0.00    +0.000 A 
ATOM     23  N   UNL     1      47.080  28.729  48.694  0.00  0.00    +0.000 NA
ENDBRANCH   4  17
TORSDOF 2
