REMARK  Name = 
REMARK  4 active torsions:
REMARK  status: ('A' for Active; 'I' for Inactive)
REMARK    1  A    between atoms: C_2  and  N_12
REMARK    2  A    between atoms: C_11  and  S_13
REMARK    3  A    between atoms: S_13  and  C_16
REMARK    4  A    between atoms: N_19  and  C_36
REMARK                            x       y       z     vdW  Elec       q    Type
REMARK                         _______ _______ _______ _____ _____    ______ ____
ROOT
ATOM      1  C   UNL     1      44.505  35.534  45.123  0.00  0.00    +0.000 A 
ATOM      2  C   UNL     1      45.165  35.508  43.882  0.00  0.00    +0.000 A 
ATOM      3  C   UNL     1      46.084  34.546  43.642  0.00  0.00    +0.000 A 
ATOM      4  N   UNL     1      46.314  33.648  44.634  0.00  0.00    +0.000 NA
ATOM      5  C   UNL     1      45.688  33.679  45.800  0.00  0.00    +0.000 A 
ATOM      6  N   UNL     1      44.780  34.616  46.060  0.00  0.00    +0.000 NA
ATOM      7  N   UNL     1      46.010  32.680  46.783  0.00  0.00    +0.000 N 
ATOM      8  C   UNL     1      45.262  32.451  47.967  0.00  0.00    +0.000 C 
ATOM      9  C   UNL     1      46.328  32.114  48.993  0.00  0.00    +0.000 C 
ATOM     10  C   UNL     1      47.617  32.007  48.236  0.00  0.00    +0.000 C 
ATOM     11  C   UNL     1      47.134  31.773  46.805  0.00  0.00    +0.000 C 
ATOM     12  H   UNL     1      43.773  36.319  45.282  0.00  0.00    +0.000 HD
ATOM     13  H   UNL     1      46.610  34.497  42.699  0.00  0.00    +0.000 HD
ATOM     14  H   UNL     1      44.431  31.831  48.057  0.00  0.00    +0.000 HD
ATOM     15  H   UNL     1      44.907  33.477  48.309  0.00  0.00    +0.000 HD
ATOM     16  H   UNL     1      46.354  32.768  49.864  0.00  0.00    +0.000 HD
ATOM     17  H   UNL     1      46.080  31.092  49.404  0.00  0.00    +0.000 HD
ATOM     18  H   UNL     1      48.196  31.159  48.608  0.00  0.00    +0.000 HD
ATOM     19  H   UNL     1      48.116  32.996  48.323  0.00  0.00    +0.000 HD
ATOM     20  H   UNL     1      47.926  32.111  46.117  0.00  0.00    +0.000 HD
ENDROOT
BRANCH   2  21
ATOM     21  N   UNL     1      44.822  36.523  42.921  0.00  0.00    +0.000 N 
ATOM     22  H   UNL     1      45.177  36.391  41.944  0.00  0.00    +0.000 HD
ATOM     23  H   UNL     1      44.253  37.336  43.197  0.00  0.00    +0.000 HD
ENDBRANCH   2  21
BRANCH  11  24
ATOM     24  S   UNL     1      46.630  30.079  46.635  0.00  0.00    +0.000 S 
BRANCH  24  27
ATOM     25  O   UNL     1      45.606  30.512  43.487  0.00  0.00    +0.000 OA
ATOM     26  C   UNL     1      44.976  29.988  44.421  0.00  0.00    +0.000 C 
ATOM     27  C   UNL     1      45.079  29.781  45.891  0.00  0.00    +0.000 C 
ATOM     28  C   UNL     1      44.544  28.379  46.031  0.00  0.00    +0.000 C 
ATOM     29  C   UNL     1      43.226  28.578  45.280  0.00  0.00    +0.000 C 
ATOM     30  N   UNL     1      43.726  29.333  44.129  0.00  0.00    +0.000 N 
ATOM     31  H   UNL     1      44.198  30.380  46.239  0.00  0.00    +0.000 HD
ATOM     32  H   UNL     1      45.138  27.660  45.428  0.00  0.00    +0.000 HD
ATOM     33  H   UNL     1      44.399  28.067  47.069  0.00  0.00    +0.000 HD
ATOM     34  H   UNL     1      42.491  29.131  45.858  0.00  0.00    +0.000 HD
ATOM     35  H   UNL     1      42.874  27.597  44.909  0.00  0.00    +0.000 HD
BRANCH  30  36
ATOM     36  C   UNL     1      42.970  29.345  42.904  0.00  0.00    +0.000 A 
ATOM     37  C   UNL     1      43.268  29.982  41.738  0.00  0.00    +0.000 A 
ATOM     38  C   UNL     1      42.367  29.832  40.700  0.00  0.00    +0.000 A 
ATOM     39  H   UNL     1      42.625  30.354  39.768  0.00  0.00    +0.000 HD
ATOM     40  N   UNL     1      41.243  29.101  40.806  0.00  0.00    +0.000 NA
ATOM     41  C   UNL     1      40.966  28.477  41.969  0.00  0.00    +0.000 A 
ATOM     42  N   UNL     1      41.825  28.609  42.986  0.00  0.00    +0.000 NA
ENDBRANCH  30  36
ENDBRANCH  24  27
ENDBRANCH  11  24
TORSDOF 4
