
 OpenBabel03252502053D

 44 48  0  0  0  0  0  0  0  0999 V2000
   35.7970   30.2010   40.6370 C   0  0  0  0  0  0  0  0  0  0  0  0
   36.8520   30.9930   40.1970 C   0  0  0  0  0  0  0  0  0  0  0  0
   37.7450   30.4060   39.3460 C   0  0  0  0  0  0  0  0  0  0  0  0
   37.5810   29.1330   38.9670 N   0  0  0  0  0  0  0  0  0  0  0  0
   36.5730   28.3670   39.3750 C   0  0  0  0  0  0  0  0  0  0  0  0
   35.6910   28.9390   40.2210 N   0  0  0  0  0  0  0  0  0  0  0  0
   38.8450   31.1020   38.8720 N   0  0  0  0  0  0  0  0  0  0  0  0
   39.9690   30.5060   38.1220 C   0  0  0  0  0  0  0  0  0  0  0  0
   40.7760   31.6750   37.6150 C   0  0  0  0  0  0  0  0  0  0  0  0
   40.4970   32.7470   38.6340 C   0  0  0  0  0  0  0  0  0  0  0  0
   39.0800   32.5080   39.0300 C   0  0  0  0  0  0  0  0  0  0  0  0
   35.0780   30.6520   41.3210 H   0  0  0  0  0  0  0  0  0  0  0  0
   40.5450   29.8150   38.7550 H   0  0  0  0  0  0  0  0  0  0  0  0
   39.4990   30.0300   37.2360 H   0  0  0  0  0  0  0  0  0  0  0  0
   41.8470   31.3560   37.6500 H   0  0  0  0  0  0  0  0  0  0  0  0
   40.5120   31.9650   36.5820 H   0  0  0  0  0  0  0  0  0  0  0  0
   40.6830   33.7650   38.2400 H   0  0  0  0  0  0  0  0  0  0  0  0
   41.2400   32.5960   39.4430 H   0  0  0  0  0  0  0  0  0  0  0  0
   39.1260   32.8380   40.1130 H   0  0  0  0  0  0  0  0  0  0  0  0
   38.4080   33.1300   38.4190 H   0  0  0  0  0  0  0  0  0  0  0  0
   36.2010   26.9840   39.0660 C   0  0  0  0  0  0  0  0  0  0  0  0
   35.3810   26.6590   38.0250 N   0  0  0  0  0  0  0  0  0  0  0  0
   35.0250   25.4270   37.6890 C   0  0  0  0  0  0  0  0  0  0  0  0
   35.4930   24.3780   38.4100 N   0  0  0  0  0  0  0  0  0  0  0  0
   36.3150   24.5770   39.4660 C   0  0  0  0  0  0  0  0  0  0  0  0
   36.7590   23.5070   40.1870 C   0  0  0  0  0  0  0  0  0  0  0  0
   37.5730   23.6940   41.2690 C   0  0  0  0  0  0  0  0  0  0  0  0
   37.9230   24.9980   41.5990 C   0  0  0  0  0  0  0  0  0  0  0  0
   37.4370   26.0370   40.8240 C   0  0  0  0  0  0  0  0  0  0  0  0
   36.6290   25.8790   39.7440 C   0  0  0  0  0  0  0  0  0  0  0  0
   34.3710   25.2730   36.8480 H   0  0  0  0  0  0  0  0  0  0  0  0
   36.4370   22.5290   39.8590 H   0  0  0  0  0  0  0  0  0  0  0  0
   37.8650   22.7810   41.7690 H   0  0  0  0  0  0  0  0  0  0  0  0
   38.5630   24.9810   42.4690 H   0  0  0  0  0  0  0  0  0  0  0  0
   37.9510   27.2360   41.4830 C   0  0  0  0  0  0  0  0  0  0  0  0
   37.1590   27.5330   42.6190 C   0  0  0  0  0  3  0  0  0  0  0  0
   37.3510   28.5940   43.5120 C   0  0  0  0  0  0  0  0  0  0  0  0
   36.7240   28.7870   44.3670 H   0  0  0  0  0  0  0  0  0  0  0  0
   38.4130   29.4060   43.2350 N   0  0  0  0  0  0  0  0  0  0  0  0
   39.1640   29.1040   42.1390 C   0  0  0  0  0  3  0  0  0  0  0  0
   38.9620   28.0920   41.3070 N   0  0  0  0  0  0  0  0  0  0  0  0
   36.8970   32.3280   40.5700 N   0  0  0  0  0  0  0  0  0  0  0  0
   36.6450   33.1920   40.0460 H   0  0  0  0  0  0  0  0  0  0  0  0
   37.2570   32.3980   41.5540 H   0  0  0  0  0  0  0  0  0  0  0  0
  1 12  1  0  0  0  0
  2 42  1  0  0  0  0
  2  1  2  0  0  0  0
  3  2  1  0  0  0  0
  4  3  2  0  0  0  0
  4  5  1  0  0  0  0
  5  6  2  0  0  0  0
  6  1  1  0  0  0  0
  7 11  1  0  0  0  0
  7  3  1  0  0  0  0
  8 13  1  0  0  0  0
  8  7  1  0  0  0  0
  9 15  1  0  0  0  0
  9  8  1  0  0  0  0
  9 10  1  0  0  0  0
 10 11  1  0  0  0  0
 10 18  1  0  0  0  0
 11 19  1  0  0  0  0
 14  8  1  0  0  0  0
 16  9  1  0  0  0  0
 17 10  1  0  0  0  0
 20 11  1  0  0  0  0
 21  5  1  0  0  0  0
 21 30  1  0  0  0  0
 22 21  2  0  0  0  0
 23 22  1  0  0  0  0
 23 24  2  0  0  0  0
 24 25  1  0  0  0  0
 25 30  2  0  0  0  0
 25 26  1  0  0  0  0
 26 27  2  0  0  0  0
 27 28  1  0  0  0  0
 27 33  1  0  0  0  0
 28 34  1  0  0  0  0
 29 35  1  0  0  0  0
 29 28  2  0  0  0  0
 30 29  1  0  0  0  0
 31 23  1  0  0  0  0
 32 26  1  0  0  0  0
 35 36  1  0  0  0  0
 36 37  2  0  0  0  0
 37 38  1  0  0  0  0
 39 37  1  0  0  0  0
 40 39  2  0  0  0  0
 41 35  2  0  0  0  0
 41 40  1  0  0  0  0
 42 44  1  0  0  0  0
 43 42  1  0  0  0  0
M  END
>  <minimizedAffinity>
-6.90633297

$$$$

 OpenBabel03252502053D

 44 48  0  0  0  0  0  0  0  0999 V2000
   37.5550   30.6570   37.5270 C   0  0  0  0  0  0  0  0  0  0  0  0
   38.8270   31.2030   37.4080 C   0  0  0  0  0  0  0  0  0  0  0  0
   39.8350   30.5610   38.0710 C   0  0  0  0  0  0  0  0  0  0  0  0
   39.5790   29.4590   38.7850 N   0  0  0  0  0  0  0  0  0  0  0  0
   38.3670   28.9220   38.9010 C   0  0  0  0  0  0  0  0  0  0  0  0
   37.3670   29.5560   38.2540 N   0  0  0  0  0  0  0  0  0  0  0  0
   41.1340   31.0420   38.0370 N   0  0  0  0  0  0  0  0  0  0  0  0
   42.2440   30.5470   38.8760 C   0  0  0  0  0  0  0  0  0  0  0  0
   43.4870   31.1880   38.3110 C   0  0  0  0  0  0  0  0  0  0  0  0
   42.9670   32.4640   37.7050 C   0  0  0  0  0  0  0  0  0  0  0  0
   41.6170   32.0930   37.1910 C   0  0  0  0  0  0  0  0  0  0  0  0
   36.7390   31.1600   37.0080 H   0  0  0  0  0  0  0  0  0  0  0  0
   42.0720   30.7800   39.9380 H   0  0  0  0  0  0  0  0  0  0  0  0
   42.3100   29.4630   38.6510 H   0  0  0  0  0  0  0  0  0  0  0  0
   44.1550   31.4000   39.1830 H   0  0  0  0  0  0  0  0  0  0  0  0
   44.0180   30.5390   37.5910 H   0  0  0  0  0  0  0  0  0  0  0  0
   43.6430   32.8710   36.9290 H   0  0  0  0  0  0  0  0  0  0  0  0
   42.9650   33.2100   38.5260 H   0  0  0  0  0  0  0  0  0  0  0  0
   41.0780   33.0790   37.3440 H   0  0  0  0  0  0  0  0  0  0  0  0
   41.6860   31.8000   36.1320 H   0  0  0  0  0  0  0  0  0  0  0  0
   37.8830   27.7280   39.5990 C   0  0  0  0  0  0  0  0  0  0  0  0
   37.7130   26.5280   38.9710 N   0  0  0  0  0  0  0  0  0  0  0  0
   37.2960   25.4130   39.5550 C   0  0  0  0  0  0  0  0  0  0  0  0
   37.0070   25.4230   40.8800 N   0  0  0  0  0  0  0  0  0  0  0  0
   37.1370   26.5550   41.6080 C   0  0  0  0  0  0  0  0  0  0  0  0
   36.8230   26.5440   42.9360 C   0  0  0  0  0  0  0  0  0  0  0  0
   36.9310   27.6860   43.6800 C   0  0  0  0  0  0  0  0  0  0  0  0
   37.3650   28.8390   43.0380 C   0  0  0  0  0  0  0  0  0  0  0  0
   37.6670   28.7790   41.6880 C   0  0  0  0  0  0  0  0  0  0  0  0
   37.5710   27.6590   40.9270 C   0  0  0  0  0  0  0  0  0  0  0  0
   37.1940   24.5150   38.9720 H   0  0  0  0  0  0  0  0  0  0  0  0
   36.4940   25.6030   43.3520 H   0  0  0  0  0  0  0  0  0  0  0  0
   36.6560   27.5670   44.7190 H   0  0  0  0  0  0  0  0  0  0  0  0
   37.3960   29.6490   43.7520 H   0  0  0  0  0  0  0  0  0  0  0  0
   38.0260   30.1540   41.3480 C   0  0  0  0  0  0  0  0  0  0  0  0
   39.3600   30.4120   41.7490 C   0  0  0  0  0  3  0  0  0  0  0  0
   40.0640   31.6110   41.5770 C   0  0  0  0  0  0  0  0  0  0  0  0
   41.0800   31.7670   41.8970 H   0  0  0  0  0  0  0  0  0  0  0  0
   39.3700   32.6120   40.9590 N   0  0  0  0  0  0  0  0  0  0  0  0
   38.0890   32.3450   40.5800 C   0  0  0  0  0  3  0  0  0  0  0  0
   37.4440   31.2010   40.7550 N   0  0  0  0  0  0  0  0  0  0  0  0
   39.0200   32.2970   36.5770 N   0  0  0  0  0  0  0  0  0  0  0  0
   39.4110   32.3630   35.6140 H   0  0  0  0  0  0  0  0  0  0  0  0
   38.6950   33.1650   37.0700 H   0  0  0  0  0  0  0  0  0  0  0  0
  1  6  1  0  0  0  0
  2  1  2  0  0  0  0
  2  3  1  0  0  0  0
  3  4  2  0  0  0  0
  4  5  1  0  0  0  0
  5 21  1  0  0  0  0
  6  5  2  0  0  0  0
  7  3  1  0  0  0  0
  7  8  1  0  0  0  0
  8 13  1  0  0  0  0
  9  8  1  0  0  0  0
  9 15  1  0  0  0  0
 10  9  1  0  0  0  0
 10 18  1  0  0  0  0
 11 19  1  0  0  0  0
 11 10  1  0  0  0  0
 11  7  1  0  0  0  0
 12  1  1  0  0  0  0
 14  8  1  0  0  0  0
 16  9  1  0  0  0  0
 17 10  1  0  0  0  0
 20 11  1  0  0  0  0
 21 30  1  0  0  0  0
 22 23  1  0  0  0  0
 22 21  2  0  0  0  0
 23 24  2  0  0  0  0
 24 25  1  0  0  0  0
 25 26  1  0  0  0  0
 26 32  1  0  0  0  0
 26 27  2  0  0  0  0
 27 33  1  0  0  0  0
 28 27  1  0  0  0  0
 28 34  1  0  0  0  0
 29 28  2  0  0  0  0
 30 25  2  0  0  0  0
 30 29  1  0  0  0  0
 31 23  1  0  0  0  0
 35 29  1  0  0  0  0
 35 36  1  0  0  0  0
 37 36  2  0  0  0  0
 37 38  1  0  0  0  0
 39 37  1  0  0  0  0
 40 41  1  0  0  0  0
 40 39  2  0  0  0  0
 41 35  2  0  0  0  0
 42 44  1  0  0  0  0
 42  2  1  0  0  0  0
 43 42  1  0  0  0  0
M  END
>  <minimizedAffinity>
-6.76511383

$$$$

 OpenBabel03252502053D

 44 48  0  0  0  0  0  0  0  0999 V2000
   39.2650   30.6860   37.6630 C   0  0  0  0  0  0  0  0  0  0  0  0
   40.3130   31.5840   37.8230 C   0  0  0  0  0  0  0  0  0  0  0  0
   41.1980   31.3200   38.8300 C   0  0  0  0  0  0  0  0  0  0  0  0
   41.0400   30.2380   39.6010 N   0  0  0  0  0  0  0  0  0  0  0  0
   40.0460   29.3670   39.4530 C   0  0  0  0  0  0  0  0  0  0  0  0
   39.1650   29.6270   38.4640 N   0  0  0  0  0  0  0  0  0  0  0  0
   42.2620   32.1690   39.0890 N   0  0  0  0  0  0  0  0  0  0  0  0
   43.1450   32.0870   40.2700 C   0  0  0  0  0  0  0  0  0  0  0  0
   44.2800   33.0390   39.9860 C   0  0  0  0  0  0  0  0  0  0  0  0
   43.6500   34.0570   39.0740 C   0  0  0  0  0  0  0  0  0  0  0  0
   42.6810   33.2640   38.2640 C   0  0  0  0  0  0  0  0  0  0  0  0
   38.5470   30.8850   36.8660 H   0  0  0  0  0  0  0  0  0  0  0  0
   42.5950   32.3210   41.1930 H   0  0  0  0  0  0  0  0  0  0  0  0
   43.5690   31.0620   40.2380 H   0  0  0  0  0  0  0  0  0  0  0  0
   44.5590   33.4970   40.9670 H   0  0  0  0  0  0  0  0  0  0  0  0
   45.1640   32.5380   39.5490 H   0  0  0  0  0  0  0  0  0  0  0  0
   44.3970   34.6020   38.4660 H   0  0  0  0  0  0  0  0  0  0  0  0
   43.1900   34.8160   39.7390 H   0  0  0  0  0  0  0  0  0  0  0  0
   41.8760   34.0470   38.1100 H   0  0  0  0  0  0  0  0  0  0  0  0
   43.1530   32.9400   37.3230 H   0  0  0  0  0  0  0  0  0  0  0  0
   39.7100   28.1270   40.1590 C   0  0  0  0  0  0  0  0  0  0  0  0
   40.1230   26.9010   39.7260 N   0  0  0  0  0  0  0  0  0  0  0  0
   39.8650   25.7500   40.3330 C   0  0  0  0  0  0  0  0  0  0  0  0
   39.1380   25.7490   41.4770 N   0  0  0  0  0  0  0  0  0  0  0  0
   38.6740   26.9050   42.0030 C   0  0  0  0  0  0  0  0  0  0  0  0
   37.9300   26.8760   43.1470 C   0  0  0  0  0  0  0  0  0  0  0  0
   37.4370   28.0360   43.6780 C   0  0  0  0  0  0  0  0  0  0  0  0
   37.7200   29.2240   43.0150 C   0  0  0  0  0  0  0  0  0  0  0  0
   38.4820   29.1810   41.8610 C   0  0  0  0  0  0  0  0  0  0  0  0
   38.9850   28.0450   41.3130 C   0  0  0  0  0  0  0  0  0  0  0  0
   40.2360   24.8330   39.9110 H   0  0  0  0  0  0  0  0  0  0  0  0
   37.7600   25.9080   43.5950 H   0  0  0  0  0  0  0  0  0  0  0  0
   36.8610   27.9000   44.5830 H   0  0  0  0  0  0  0  0  0  0  0  0
   37.2650   30.0440   43.5530 H   0  0  0  0  0  0  0  0  0  0  0  0
   38.5280   30.5730   41.4190 C   0  0  0  0  0  0  0  0  0  0  0  0
   37.3530   30.8810   40.6880 C   0  0  0  0  0  3  0  0  0  0  0  0
   37.0270   32.1190   40.1200 C   0  0  0  0  0  0  0  0  0  0  0  0
   36.1220   32.3130   39.5710 H   0  0  0  0  0  0  0  0  0  0  0  0
   37.9520   33.1070   40.3040 N   0  0  0  0  0  0  0  0  0  0  0  0
   39.0750   32.7930   41.0100 C   0  0  0  0  0  3  0  0  0  0  0  0
   39.3600   31.6110   41.5390 N   0  0  0  0  0  0  0  0  0  0  0  0
   40.4520   32.6320   36.9240 N   0  0  0  0  0  0  0  0  0  0  0  0
   41.0900   32.7540   36.1110 H   0  0  0  0  0  0  0  0  0  0  0  0
   39.7670   33.3890   37.1710 H   0  0  0  0  0  0  0  0  0  0  0  0
  1  2  2  0  0  0  0
  1  6  1  0  0  0  0
  2  3  1  0  0  0  0
  3  7  1  0  0  0  0
  3  4  2  0  0  0  0
  5  4  1  0  0  0  0
  5 21  1  0  0  0  0
  6  5  2  0  0  0  0
  7  8  1  0  0  0  0
  8 13  1  0  0  0  0
  9  8  1  0  0  0  0
  9 15  1  0  0  0  0
 10 18  1  0  0  0  0
 10  9  1  0  0  0  0
 11 10  1  0  0  0  0
 11  7  1  0  0  0  0
 12  1  1  0  0  0  0
 14  8  1  0  0  0  0
 16  9  1  0  0  0  0
 17 10  1  0  0  0  0
 19 11  1  0  0  0  0
 20 11  1  0  0  0  0
 21 30  1  0  0  0  0
 22 21  2  0  0  0  0
 22 23  1  0  0  0  0
 23 24  2  0  0  0  0
 24 25  1  0  0  0  0
 25 26  1  0  0  0  0
 26 32  1  0  0  0  0
 26 27  2  0  0  0  0
 27 33  1  0  0  0  0
 28 34  1  0  0  0  0
 28 27  1  0  0  0  0
 29 28  2  0  0  0  0
 30 29  1  0  0  0  0
 30 25  2  0  0  0  0
 31 23  1  0  0  0  0
 35 41  1  0  0  0  0
 35 29  1  0  0  0  0
 36 35  2  0  0  0  0
 37 39  2  0  0  0  0
 37 36  1  0  0  0  0
 38 37  1  0  0  0  0
 39 40  1  0  0  0  0
 40 41  2  0  0  0  0
 42 44  1  0  0  0  0
 42  2  1  0  0  0  0
 43 42  1  0  0  0  0
M  END
>  <minimizedAffinity>
-6.48565388

$$$$

 OpenBabel03252502053D

 44 48  0  0  0  0  0  0  0  0999 V2000
   37.2850   32.2940   40.3340 C   0  0  0  0  0  0  0  0  0  0  0  0
   38.5450   32.8770   40.2800 C   0  0  0  0  0  0  0  0  0  0  0  0
   39.5770   32.1570   40.8150 C   0  0  0  0  0  0  0  0  0  0  0  0
   39.3520   30.9510   41.3500 N   0  0  0  0  0  0  0  0  0  0  0  0
   38.1510   30.3800   41.4010 C   0  0  0  0  0  0  0  0  0  0  0  0
   37.1280   31.0890   40.8800 N   0  0  0  0  0  0  0  0  0  0  0  0
   40.8660   32.6610   40.8350 N   0  0  0  0  0  0  0  0  0  0  0  0
   42.0010   32.0610   41.5660 C   0  0  0  0  0  0  0  0  0  0  0  0
   43.2220   32.8060   41.0880 C   0  0  0  0  0  0  0  0  0  0  0  0
   42.6690   34.1510   40.7010 C   0  0  0  0  0  0  0  0  0  0  0  0
   41.3160   33.8420   40.1580 C   0  0  0  0  0  0  0  0  0  0  0  0
   36.4500   32.8580   39.9150 H   0  0  0  0  0  0  0  0  0  0  0  0
   41.8470   32.1200   42.6540 H   0  0  0  0  0  0  0  0  0  0  0  0
   42.0800   31.0270   41.1700 H   0  0  0  0  0  0  0  0  0  0  0  0
   43.9040   32.8900   41.9700 H   0  0  0  0  0  0  0  0  0  0  0  0
   43.7480   32.2890   40.2650 H   0  0  0  0  0  0  0  0  0  0  0  0
   43.3230   34.6890   39.9870 H   0  0  0  0  0  0  0  0  0  0  0  0
   42.6730   34.7580   41.6290 H   0  0  0  0  0  0  0  0  0  0  0  0
   40.7650   34.7800   40.4740 H   0  0  0  0  0  0  0  0  0  0  0  0
   41.3680   33.7210   39.0650 H   0  0  0  0  0  0  0  0  0  0  0  0
   37.7000   29.0810   41.9100 C   0  0  0  0  0  0  0  0  0  0  0  0
   37.2100   28.9170   43.1720 N   0  0  0  0  0  0  0  0  0  0  0  0
   36.7720   27.7720   43.6780 C   0  0  0  0  0  0  0  0  0  0  0  0
   36.7950   26.6530   42.9120 N   0  0  0  0  0  0  0  0  0  0  0  0
   37.2600   26.6930   41.6430 C   0  0  0  0  0  0  0  0  0  0  0  0
   37.2900   25.5500   40.8980 C   0  0  0  0  0  0  0  0  0  0  0  0
   37.7760   25.5720   39.6210 C   0  0  0  0  0  0  0  0  0  0  0  0
   38.2330   26.7860   39.1210 C   0  0  0  0  0  0  0  0  0  0  0  0
   38.1730   27.9070   39.9320 C   0  0  0  0  0  0  0  0  0  0  0  0
   37.6930   27.9140   41.2020 C   0  0  0  0  0  0  0  0  0  0  0  0
   36.4040   27.7450   44.6880 H   0  0  0  0  0  0  0  0  0  0  0  0
   36.9140   24.6520   41.3660 H   0  0  0  0  0  0  0  0  0  0  0  0
   37.7550   24.6140   39.1210 H   0  0  0  0  0  0  0  0  0  0  0  0
   38.5830   26.6410   38.1100 H   0  0  0  0  0  0  0  0  0  0  0  0
   38.7740   28.9600   39.1170 C   0  0  0  0  0  0  0  0  0  0  0  0
   40.1860   28.8960   39.2200 C   0  0  0  0  0  3  0  0  0  0  0  0
   41.1060   29.7290   38.5700 C   0  0  0  0  0  0  0  0  0  0  0  0
   42.1750   29.6480   38.6750 H   0  0  0  0  0  0  0  0  0  0  0  0
   40.5600   30.6870   37.7650 N   0  0  0  0  0  0  0  0  0  0  0  0
   39.2010   30.7330   37.6780 C   0  0  0  0  0  3  0  0  0  0  0  0
   38.3500   29.9320   38.3040 N   0  0  0  0  0  0  0  0  0  0  0  0
   38.7040   34.0910   39.6290 N   0  0  0  0  0  0  0  0  0  0  0  0
   39.0750   34.3160   38.6820 H   0  0  0  0  0  0  0  0  0  0  0  0
   38.3760   34.8640   40.2590 H   0  0  0  0  0  0  0  0  0  0  0  0
  1  6  1  0  0  0  0
  2  1  2  0  0  0  0
  2  3  1  0  0  0  0
  3  7  1  0  0  0  0
  3  4  2  0  0  0  0
  4  5  1  0  0  0  0
  5 21  1  0  0  0  0
  6  5  2  0  0  0  0
  7  8  1  0  0  0  0
  8 13  1  0  0  0  0
  9  8  1  0  0  0  0
  9 15  1  0  0  0  0
 10  9  1  0  0  0  0
 10 18  1  0  0  0  0
 11 19  1  0  0  0  0
 11 10  1  0  0  0  0
 11  7  1  0  0  0  0
 12  1  1  0  0  0  0
 14  8  1  0  0  0  0
 16  9  1  0  0  0  0
 17 10  1  0  0  0  0
 20 11  1  0  0  0  0
 21 22  1  0  0  0  0
 22 23  2  0  0  0  0
 23 31  1  0  0  0  0
 24 23  1  0  0  0  0
 25 24  2  0  0  0  0
 26 32  1  0  0  0  0
 26 25  1  0  0  0  0
 27 26  2  0  0  0  0
 28 27  1  0  0  0  0
 28 29  2  0  0  0  0
 29 30  1  0  0  0  0
 30 25  1  0  0  0  0
 30 21  2  0  0  0  0
 33 27  1  0  0  0  0
 34 28  1  0  0  0  0
 35 36  1  0  0  0  0
 35 29  1  0  0  0  0
 37 38  1  0  0  0  0
 37 36  2  0  0  0  0
 39 37  1  0  0  0  0
 40 39  2  0  0  0  0
 40 41  1  0  0  0  0
 41 35  2  0  0  0  0
 42 44  1  0  0  0  0
 42  2  1  0  0  0  0
 43 42  1  0  0  0  0
M  END
>  <minimizedAffinity>
-6.26957512

$$$$

 OpenBabel03252502053D

 44 48  0  0  0  0  0  0  0  0999 V2000
   36.1420   30.3590   41.1960 C   0  0  0  0  0  0  0  0  0  0  0  0
   37.1130   31.1130   40.5490 C   0  0  0  0  0  0  0  0  0  0  0  0
   38.1860   30.4300   40.0470 C   0  0  0  0  0  0  0  0  0  0  0  0
   38.2630   29.1010   40.1820 N   0  0  0  0  0  0  0  0  0  0  0  0
   37.3370   28.3680   40.7930 C   0  0  0  0  0  0  0  0  0  0  0  0
   36.2790   29.0370   41.2970 N   0  0  0  0  0  0  0  0  0  0  0  0
   39.2200   31.0940   39.4090 N   0  0  0  0  0  0  0  0  0  0  0  0
   40.5080   30.4830   39.0180 C   0  0  0  0  0  0  0  0  0  0  0  0
   41.1890   31.5090   38.1480 C   0  0  0  0  0  0  0  0  0  0  0  0
   40.6250   32.8100   38.6530 C   0  0  0  0  0  0  0  0  0  0  0  0
   39.2210   32.4750   39.0240 C   0  0  0  0  0  0  0  0  0  0  0  0
   35.2820   30.8890   41.6070 H   0  0  0  0  0  0  0  0  0  0  0  0
   41.0950   30.1960   39.9030 H   0  0  0  0  0  0  0  0  0  0  0  0
   40.2310   29.6340   38.3590 H   0  0  0  0  0  0  0  0  0  0  0  0
   42.2820   31.4320   38.3690 H   0  0  0  0  0  0  0  0  0  0  0  0
   41.0190   31.3400   37.0690 H   0  0  0  0  0  0  0  0  0  0  0  0
   40.7060   33.6250   37.9070 H   0  0  0  0  0  0  0  0  0  0  0  0
   41.2730   33.1120   39.5010 H   0  0  0  0  0  0  0  0  0  0  0  0
   39.0790   33.1860   39.8950 H   0  0  0  0  0  0  0  0  0  0  0  0
   38.5470   32.6880   38.1790 H   0  0  0  0  0  0  0  0  0  0  0  0
   37.2180   26.9250   41.0220 C   0  0  0  0  0  0  0  0  0  0  0  0
   37.5940   26.3340   42.1930 N   0  0  0  0  0  0  0  0  0  0  0  0
   37.4930   25.0390   42.4620 C   0  0  0  0  0  0  0  0  0  0  0  0
   36.9790   24.2030   41.5260 N   0  0  0  0  0  0  0  0  0  0  0  0
   36.5720   24.6740   40.3260 C   0  0  0  0  0  0  0  0  0  0  0  0
   36.0750   23.8100   39.3940 C   0  0  0  0  0  0  0  0  0  0  0  0
   35.6790   24.2700   38.1690 C   0  0  0  0  0  0  0  0  0  0  0  0
   35.8030   25.6310   37.9160 C   0  0  0  0  0  0  0  0  0  0  0  0
   36.3150   26.4510   38.9070 C   0  0  0  0  0  0  0  0  0  0  0  0
   36.7140   26.0210   40.1320 C   0  0  0  0  0  0  0  0  0  0  0  0
   37.8190   24.6690   43.4180 H   0  0  0  0  0  0  0  0  0  0  0  0
   36.0140   22.7690   39.6770 H   0  0  0  0  0  0  0  0  0  0  0  0
   35.3020   23.5030   37.5070 H   0  0  0  0  0  0  0  0  0  0  0  0
   35.4520   25.8360   36.9150 H   0  0  0  0  0  0  0  0  0  0  0  0
   36.3510   27.7720   38.2840 C   0  0  0  0  0  0  0  0  0  0  0  0
   37.5050   27.8850   37.4700 C   0  0  0  0  0  3  0  0  0  0  0  0
   37.8750   28.9950   36.7000 C   0  0  0  0  0  0  0  0  0  0  0  0
   38.7630   29.0410   36.0930 H   0  0  0  0  0  0  0  0  0  0  0  0
   37.0200   30.0580   36.7600 N   0  0  0  0  0  0  0  0  0  0  0  0
   35.9150   29.9310   37.5470 C   0  0  0  0  0  3  0  0  0  0  0  0
   35.5870   28.8680   38.2680 N   0  0  0  0  0  0  0  0  0  0  0  0
   36.9110   32.4740   40.3770 N   0  0  0  0  0  0  0  0  0  0  0  0
   36.6020   33.0190   39.5450 H   0  0  0  0  0  0  0  0  0  0  0  0
   37.1280   32.9700   41.2770 H   0  0  0  0  0  0  0  0  0  0  0  0
  1  6  1  0  0  0  0
  1 12  1  0  0  0  0
  2  1  2  0  0  0  0
  3  4  2  0  0  0  0
  3  2  1  0  0  0  0
  4  5  1  0  0  0  0
  5 21  1  0  0  0  0
  5  6  2  0  0  0  0
  7  3  1  0  0  0  0
  8  7  1  0  0  0  0
  8 13  1  0  0  0  0
  9 15  1  0  0  0  0
  9 10  1  0  0  0  0
  9  8  1  0  0  0  0
 10 11  1  0  0  0  0
 10 18  1  0  0  0  0
 11  7  1  0  0  0  0
 11 19  1  0  0  0  0
 14  8  1  0  0  0  0
 16  9  1  0  0  0  0
 17 10  1  0  0  0  0
 20 11  1  0  0  0  0
 21 22  1  0  0  0  0
 22 23  2  0  0  0  0
 23 31  1  0  0  0  0
 24 23  1  0  0  0  0
 25 24  2  0  0  0  0
 26 32  1  0  0  0  0
 26 25  1  0  0  0  0
 27 26  2  0  0  0  0
 28 27  1  0  0  0  0
 28 29  2  0  0  0  0
 29 30  1  0  0  0  0
 30 25  1  0  0  0  0
 30 21  2  0  0  0  0
 33 27  1  0  0  0  0
 34 28  1  0  0  0  0
 35 29  1  0  0  0  0
 36 35  2  0  0  0  0
 37 39  2  0  0  0  0
 37 36  1  0  0  0  0
 38 37  1  0  0  0  0
 39 40  1  0  0  0  0
 40 41  2  0  0  0  0
 41 35  1  0  0  0  0
 42  2  1  0  0  0  0
 42 44  1  0  0  0  0
 43 42  1  0  0  0  0
M  END
>  <minimizedAffinity>
-6.26106024

$$$$

 OpenBabel03252502053D

 44 48  0  0  0  0  0  0  0  0999 V2000
   37.7310   24.0200   41.8800 C   0  0  0  0  0  0  0  0  0  0  0  0
   39.0510   24.3400   42.1740 C   0  0  0  0  0  0  0  0  0  0  0  0
   39.6670   25.2290   41.3380 C   0  0  0  0  0  0  0  0  0  0  0  0
   39.0030   25.7520   40.3010 N   0  0  0  0  0  0  0  0  0  0  0  0
   37.7380   25.4580   40.0130 C   0  0  0  0  0  0  0  0  0  0  0  0
   37.1270   24.5760   40.8310 N   0  0  0  0  0  0  0  0  0  0  0  0
   40.9900   25.5920   41.5300 N   0  0  0  0  0  0  0  0  0  0  0  0
   41.8020   26.3750   40.5760 C   0  0  0  0  0  0  0  0  0  0  0  0
   43.0650   26.7260   41.3220 C   0  0  0  0  0  0  0  0  0  0  0  0
   43.1980   25.6010   42.3140 C   0  0  0  0  0  0  0  0  0  0  0  0
   41.7900   25.2720   42.6760 C   0  0  0  0  0  0  0  0  0  0  0  0
   37.2260   23.3080   42.5340 H   0  0  0  0  0  0  0  0  0  0  0  0
   41.9810   25.8080   39.6510 H   0  0  0  0  0  0  0  0  0  0  0  0
   41.2390   27.3210   40.4330 H   0  0  0  0  0  0  0  0  0  0  0  0
   43.8920   26.6990   40.5700 H   0  0  0  0  0  0  0  0  0  0  0  0
   43.0250   27.7270   41.7900 H   0  0  0  0  0  0  0  0  0  0  0  0
   43.8290   25.8740   43.1820 H   0  0  0  0  0  0  0  0  0  0  0  0
   43.7450   24.7950   41.7840 H   0  0  0  0  0  0  0  0  0  0  0  0
   41.8950   24.1580   42.8550 H   0  0  0  0  0  0  0  0  0  0  0  0
   41.4940   25.8270   43.5790 H   0  0  0  0  0  0  0  0  0  0  0  0
   36.8340   25.9300   38.9600 C   0  0  0  0  0  0  0  0  0  0  0  0
   36.6600   25.2580   37.7860 N   0  0  0  0  0  0  0  0  0  0  0  0
   35.8440   25.6270   36.8080 C   0  0  0  0  0  0  0  0  0  0  0  0
   35.1050   26.7560   36.9480 N   0  0  0  0  0  0  0  0  0  0  0  0
   35.1940   27.5060   38.0690 C   0  0  0  0  0  0  0  0  0  0  0  0
   34.4530   28.6470   38.1790 C   0  0  0  0  0  0  0  0  0  0  0  0
   34.5470   29.4250   39.2990 C   0  0  0  0  0  0  0  0  0  0  0  0
   35.4160   29.0140   40.3030 C   0  0  0  0  0  0  0  0  0  0  0  0
   36.1360   27.8450   40.1260 C   0  0  0  0  0  0  0  0  0  0  0  0
   36.0600   27.0530   39.0270 C   0  0  0  0  0  0  0  0  0  0  0  0
   35.7780   25.0280   35.9170 H   0  0  0  0  0  0  0  0  0  0  0  0
   33.8040   28.8900   37.3500 H   0  0  0  0  0  0  0  0  0  0  0  0
   33.9200   30.3060   39.2830 H   0  0  0  0  0  0  0  0  0  0  0  0
   35.3790   29.7270   41.1140 H   0  0  0  0  0  0  0  0  0  0  0  0
   36.9640   27.7590   41.3280 C   0  0  0  0  0  0  0  0  0  0  0  0
   38.1280   28.5490   41.1630 C   0  0  0  0  0  3  0  0  0  0  0  0
   39.1500   28.7320   42.1040 C   0  0  0  0  0  0  0  0  0  0  0  0
   40.0210   29.3420   41.9400 H   0  0  0  0  0  0  0  0  0  0  0  0
   38.9800   28.0700   43.2860 N   0  0  0  0  0  0  0  0  0  0  0  0
   37.8530   27.3160   43.4270 C   0  0  0  0  0  3  0  0  0  0  0  0
   36.8990   27.1590   42.5200 N   0  0  0  0  0  0  0  0  0  0  0  0
   39.6360   23.8200   43.3190 N   0  0  0  0  0  0  0  0  0  0  0  0
   39.8150   24.2490   44.2500 H   0  0  0  0  0  0  0  0  0  0  0  0
   39.9190   22.8250   43.1380 H   0  0  0  0  0  0  0  0  0  0  0  0
  1  2  1  0  0  0  0
  1 12  1  0  0  0  0
  2 42  1  0  0  0  0
  3  7  1  0  0  0  0
  3  2  2  0  0  0  0
  4  3  1  0  0  0  0
  5  4  2  0  0  0  0
  5  6  1  0  0  0  0
  6  1  2  0  0  0  0
  7 11  1  0  0  0  0
  8  9  1  0  0  0  0
  8  7  1  0  0  0  0
  9 16  1  0  0  0  0
  9 10  1  0  0  0  0
 10 11  1  0  0  0  0
 10 17  1  0  0  0  0
 11 19  1  0  0  0  0
 11 20  1  0  0  0  0
 13  8  1  0  0  0  0
 14  8  1  0  0  0  0
 15  9  1  0  0  0  0
 18 10  1  0  0  0  0
 21 30  1  0  0  0  0
 21  5  1  0  0  0  0
 22 21  2  0  0  0  0
 23 24  2  0  0  0  0
 23 22  1  0  0  0  0
 24 25  1  0  0  0  0
 25 26  2  0  0  0  0
 25 30  1  0  0  0  0
 26 27  1  0  0  0  0
 27 28  2  0  0  0  0
 28 34  1  0  0  0  0
 29 28  1  0  0  0  0
 29 35  1  0  0  0  0
 30 29  2  0  0  0  0
 31 23  1  0  0  0  0
 32 26  1  0  0  0  0
 33 27  1  0  0  0  0
 35 41  1  0  0  0  0
 36 35  2  0  0  0  0
 36 37  1  0  0  0  0
 37 39  2  0  0  0  0
 38 37  1  0  0  0  0
 39 40  1  0  0  0  0
 41 40  2  0  0  0  0
 42 43  1  0  0  0  0
 44 42  1  0  0  0  0
M  END
>  <minimizedAffinity>
-6.15911961

$$$$

 OpenBabel03252502053D

 44 48  0  0  0  0  0  0  0  0999 V2000
   37.7920   31.2650   38.6070 C   0  0  0  0  0  0  0  0  0  0  0  0
   39.0560   31.4130   38.0500 C   0  0  0  0  0  0  0  0  0  0  0  0
   40.0730   30.7210   38.6470 C   0  0  0  0  0  0  0  0  0  0  0  0
   39.8290   29.9430   39.7080 N   0  0  0  0  0  0  0  0  0  0  0  0
   38.6220   29.7890   40.2460 C   0  0  0  0  0  0  0  0  0  0  0  0
   37.6160   30.4740   39.6650 N   0  0  0  0  0  0  0  0  0  0  0  0
   41.3740   30.8220   38.1840 N   0  0  0  0  0  0  0  0  0  0  0  0
   42.5650   30.2870   38.8750 C   0  0  0  0  0  0  0  0  0  0  0  0
   43.6940   30.4160   37.8830 C   0  0  0  0  0  0  0  0  0  0  0  0
   43.2690   31.5850   37.0360 C   0  0  0  0  0  0  0  0  0  0  0  0
   41.7850   31.4610   36.9680 C   0  0  0  0  0  0  0  0  0  0  0  0
   36.9700   31.8140   38.1470 H   0  0  0  0  0  0  0  0  0  0  0  0
   42.7470   30.8190   39.8210 H   0  0  0  0  0  0  0  0  0  0  0  0
   42.3620   29.2020   38.9920 H   0  0  0  0  0  0  0  0  0  0  0  0
   44.6080   30.6620   38.4780 H   0  0  0  0  0  0  0  0  0  0  0  0
   43.8690   29.4900   37.3060 H   0  0  0  0  0  0  0  0  0  0  0  0
   43.7620   31.5910   36.0440 H   0  0  0  0  0  0  0  0  0  0  0  0
   43.6380   32.4900   37.5610 H   0  0  0  0  0  0  0  0  0  0  0  0
   41.5040   32.5570   36.9170 H   0  0  0  0  0  0  0  0  0  0  0  0
   41.4960   30.9000   36.0660 H   0  0  0  0  0  0  0  0  0  0  0  0
   38.1430   28.9800   41.3700 C   0  0  0  0  0  0  0  0  0  0  0  0
   38.0040   29.4840   42.6310 N   0  0  0  0  0  0  0  0  0  0  0  0
   37.5590   28.8050   43.6790 C   0  0  0  0  0  0  0  0  0  0  0  0
   37.2020   27.5050   43.5290 N   0  0  0  0  0  0  0  0  0  0  0  0
   37.2960   26.8970   42.3250 C   0  0  0  0  0  0  0  0  0  0  0  0
   36.9470   25.5840   42.2030 C   0  0  0  0  0  0  0  0  0  0  0  0
   37.0560   24.9500   40.9960 C   0  0  0  0  0  0  0  0  0  0  0  0
   37.5310   25.6870   39.9180 C   0  0  0  0  0  0  0  0  0  0  0  0
   37.8660   27.0160   40.1130 C   0  0  0  0  0  0  0  0  0  0  0  0
   37.7660   27.6700   41.2980 C   0  0  0  0  0  0  0  0  0  0  0  0
   37.4870   29.2930   44.6350 H   0  0  0  0  0  0  0  0  0  0  0  0
   36.5870   25.0890   43.0930 H   0  0  0  0  0  0  0  0  0  0  0  0
   36.7550   23.9120   41.0100 H   0  0  0  0  0  0  0  0  0  0  0  0
   37.5600   25.0530   39.0440 H   0  0  0  0  0  0  0  0  0  0  0  0
   38.3670   27.4450   38.8080 C   0  0  0  0  0  0  0  0  0  0  0  0
   39.7270   27.0740   38.6730 C   0  0  0  0  0  3  0  0  0  0  0  0
   40.5440   27.2970   37.5580 C   0  0  0  0  0  0  0  0  0  0  0  0
   41.5770   26.9990   37.4940 H   0  0  0  0  0  0  0  0  0  0  0  0
   39.9430   27.9390   36.5130 N   0  0  0  0  0  0  0  0  0  0  0  0
   38.6340   28.2880   36.6610 C   0  0  0  0  0  3  0  0  0  0  0  0
   37.8810   28.0650   37.7290 N   0  0  0  0  0  0  0  0  0  0  0  0
   39.2050   32.1690   36.8980 N   0  0  0  0  0  0  0  0  0  0  0  0
   39.3130   31.8840   35.9020 H   0  0  0  0  0  0  0  0  0  0  0  0
   39.2000   33.1880   37.1520 H   0  0  0  0  0  0  0  0  0  0  0  0
  1  6  1  0  0  0  0
  2  1  2  0  0  0  0
  2  3  1  0  0  0  0
  3  4  2  0  0  0  0
  4  5  1  0  0  0  0
  5 21  1  0  0  0  0
  6  5  2  0  0  0  0
  7  3  1  0  0  0  0
  7  8  1  0  0  0  0
  8 14  1  0  0  0  0
  8 13  1  0  0  0  0
  9 15  1  0  0  0  0
  9  8  1  0  0  0  0
 10 18  1  0  0  0  0
 10  9  1  0  0  0  0
 11 10  1  0  0  0  0
 11  7  1  0  0  0  0
 12  1  1  0  0  0  0
 16  9  1  0  0  0  0
 17 10  1  0  0  0  0
 19 11  1  0  0  0  0
 20 11  1  0  0  0  0
 21 22  1  0  0  0  0
 22 23  2  0  0  0  0
 23 31  1  0  0  0  0
 24 23  1  0  0  0  0
 25 24  2  0  0  0  0
 26 25  1  0  0  0  0
 26 32  1  0  0  0  0
 27 33  1  0  0  0  0
 27 26  2  0  0  0  0
 28 29  2  0  0  0  0
 28 27  1  0  0  0  0
 29 30  1  0  0  0  0
 30 21  2  0  0  0  0
 30 25  1  0  0  0  0
 34 28  1  0  0  0  0
 35 29  1  0  0  0  0
 36 35  1  0  0  0  0
 37 36  2  0  0  0  0
 38 37  1  0  0  0  0
 39 40  2  0  0  0  0
 39 37  1  0  0  0  0
 40 41  1  0  0  0  0
 41 35  2  0  0  0  0
 42 44  1  0  0  0  0
 42  2  1  0  0  0  0
 43 42  1  0  0  0  0
M  END
>  <minimizedAffinity>
-6.13993502

$$$$

 OpenBabel03252502053D

 44 48  0  0  0  0  0  0  0  0999 V2000
   36.8420   30.1850   37.4270 C   0  0  0  0  0  0  0  0  0  0  0  0
   38.0530   30.8660   37.3990 C   0  0  0  0  0  0  0  0  0  0  0  0
   39.1590   30.1670   37.7950 C   0  0  0  0  0  0  0  0  0  0  0  0
   39.0480   28.8900   38.1780 N   0  0  0  0  0  0  0  0  0  0  0  0
   37.8960   28.2250   38.2030 C   0  0  0  0  0  0  0  0  0  0  0  0
   36.8000   28.9130   37.8190 N   0  0  0  0  0  0  0  0  0  0  0  0
   40.4080   30.7640   37.8280 N   0  0  0  0  0  0  0  0  0  0  0  0
   41.6180   30.1670   38.4290 C   0  0  0  0  0  0  0  0  0  0  0  0
   42.7570   31.0590   38.0030 C   0  0  0  0  0  0  0  0  0  0  0  0
   42.0900   32.3950   37.8150 C   0  0  0  0  0  0  0  0  0  0  0  0
   40.7370   32.0520   37.2920 C   0  0  0  0  0  0  0  0  0  0  0  0
   35.9490   30.7300   37.1190 H   0  0  0  0  0  0  0  0  0  0  0  0
   41.5140   30.0760   39.5210 H   0  0  0  0  0  0  0  0  0  0  0  0
   41.7510   29.2000   37.9010 H   0  0  0  0  0  0  0  0  0  0  0  0
   43.4740   31.0840   38.8610 H   0  0  0  0  0  0  0  0  0  0  0  0
   43.2770   30.6920   37.1000 H   0  0  0  0  0  0  0  0  0  0  0  0
   42.6670   33.0680   37.1520 H   0  0  0  0  0  0  0  0  0  0  0  0
   42.0950   32.8790   38.8130 H   0  0  0  0  0  0  0  0  0  0  0  0
   40.1360   32.8970   37.7480 H   0  0  0  0  0  0  0  0  0  0  0  0
   40.7430   32.0730   36.1910 H   0  0  0  0  0  0  0  0  0  0  0  0
   37.5660   26.8420   38.5570 C   0  0  0  0  0  0  0  0  0  0  0  0
   37.4570   25.8510   37.6250 N   0  0  0  0  0  0  0  0  0  0  0  0
   37.1790   24.5820   37.8890 C   0  0  0  0  0  0  0  0  0  0  0  0
   36.9810   24.1970   39.1740 N   0  0  0  0  0  0  0  0  0  0  0  0
   37.0630   25.0910   40.1850 C   0  0  0  0  0  0  0  0  0  0  0  0
   36.8430   24.6830   41.4680 C   0  0  0  0  0  0  0  0  0  0  0  0
   36.9020   25.5800   42.4980 C   0  0  0  0  0  0  0  0  0  0  0  0
   37.1900   26.9040   42.1880 C   0  0  0  0  0  0  0  0  0  0  0  0
   37.4040   27.2490   40.8640 C   0  0  0  0  0  0  0  0  0  0  0  0
   37.3530   26.3790   39.8240 C   0  0  0  0  0  0  0  0  0  0  0  0
   37.1140   23.8740   37.0820 H   0  0  0  0  0  0  0  0  0  0  0  0
   36.6260   23.6350   41.6170 H   0  0  0  0  0  0  0  0  0  0  0  0
   36.7110   25.1530   43.4720 H   0  0  0  0  0  0  0  0  0  0  0  0
   37.2010   27.4850   43.0990 H   0  0  0  0  0  0  0  0  0  0  0  0
   37.6190   28.6940   40.9100 C   0  0  0  0  0  0  0  0  0  0  0  0
   36.3700   29.3630   40.8980 C   0  0  0  0  0  3  0  0  0  0  0  0
   36.1670   30.7480   40.9500 C   0  0  0  0  0  0  0  0  0  0  0  0
   35.1990   31.2190   40.9390 H   0  0  0  0  0  0  0  0  0  0  0  0
   37.3040   31.5030   41.0160 N   0  0  0  0  0  0  0  0  0  0  0  0
   38.4960   30.8410   41.0270 C   0  0  0  0  0  3  0  0  0  0  0  0
   38.6610   29.5270   40.9770 N   0  0  0  0  0  0  0  0  0  0  0  0
   38.0910   32.1620   36.9050 N   0  0  0  0  0  0  0  0  0  0  0  0
   38.3970   32.5310   35.9810 H   0  0  0  0  0  0  0  0  0  0  0  0
   37.7390   32.8210   37.6420 H   0  0  0  0  0  0  0  0  0  0  0  0
  1  6  1  0  0  0  0
  2  1  2  0  0  0  0
  2  3  1  0  0  0  0
  3  7  1  0  0  0  0
  3  4  2  0  0  0  0
  4  5  1  0  0  0  0
  5 21  1  0  0  0  0
  6  5  2  0  0  0  0
  7  8  1  0  0  0  0
  8 13  1  0  0  0  0
  9  8  1  0  0  0  0
  9 15  1  0  0  0  0
 10  9  1  0  0  0  0
 10 18  1  0  0  0  0
 11 19  1  0  0  0  0
 11 10  1  0  0  0  0
 11  7  1  0  0  0  0
 12  1  1  0  0  0  0
 14  8  1  0  0  0  0
 16  9  1  0  0  0  0
 17 10  1  0  0  0  0
 20 11  1  0  0  0  0
 21 30  1  0  0  0  0
 22 23  1  0  0  0  0
 22 21  2  0  0  0  0
 23 24  2  0  0  0  0
 24 25  1  0  0  0  0
 25 26  1  0  0  0  0
 26 32  1  0  0  0  0
 26 27  2  0  0  0  0
 27 33  1  0  0  0  0
 28 27  1  0  0  0  0
 28 34  1  0  0  0  0
 29 35  1  0  0  0  0
 29 28  2  0  0  0  0
 30 25  2  0  0  0  0
 30 29  1  0  0  0  0
 31 23  1  0  0  0  0
 35 41  1  0  0  0  0
 36 35  2  0  0  0  0
 36 37  1  0  0  0  0
 37 39  2  0  0  0  0
 38 37  1  0  0  0  0
 39 40  1  0  0  0  0
 41 40  2  0  0  0  0
 42  2  1  0  0  0  0
 42 44  1  0  0  0  0
 43 42  1  0  0  0  0
M  END
>  <minimizedAffinity>
-6.13526773

$$$$

 OpenBabel03252502053D

 44 48  0  0  0  0  0  0  0  0999 V2000
   38.7250   28.0340   37.1410 C   0  0  0  0  0  0  0  0  0  0  0  0
   38.1380   27.0550   37.9340 C   0  0  0  0  0  0  0  0  0  0  0  0
   38.1790   27.2570   39.2860 C   0  0  0  0  0  0  0  0  0  0  0  0
   38.7550   28.3550   39.7870 N   0  0  0  0  0  0  0  0  0  0  0  0
   39.3140   29.3010   39.0380 C   0  0  0  0  0  0  0  0  0  0  0  0
   39.2830   29.1040   37.7040 N   0  0  0  0  0  0  0  0  0  0  0  0
   37.6450   26.3280   40.1630 N   0  0  0  0  0  0  0  0  0  0  0  0
   37.8180   26.3490   41.6300 C   0  0  0  0  0  0  0  0  0  0  0  0
   36.8650   25.3070   42.1590 C   0  0  0  0  0  0  0  0  0  0  0  0
   36.7550   24.3350   41.0150 C   0  0  0  0  0  0  0  0  0  0  0  0
   36.8440   25.1950   39.8020 C   0  0  0  0  0  0  0  0  0  0  0  0
   38.7060   27.8860   36.0600 H   0  0  0  0  0  0  0  0  0  0  0  0
   38.8670   26.1680   41.9080 H   0  0  0  0  0  0  0  0  0  0  0  0
   37.4250   27.3360   41.9490 H   0  0  0  0  0  0  0  0  0  0  0  0
   37.3710   24.8360   43.0390 H   0  0  0  0  0  0  0  0  0  0  0  0
   35.8950   25.7310   42.4760 H   0  0  0  0  0  0  0  0  0  0  0  0
   35.8320   23.7260   41.0640 H   0  0  0  0  0  0  0  0  0  0  0  0
   37.5940   23.6210   41.1440 H   0  0  0  0  0  0  0  0  0  0  0  0
   37.3680   24.4780   39.0970 H   0  0  0  0  0  0  0  0  0  0  0  0
   35.8340   25.4720   39.4620 H   0  0  0  0  0  0  0  0  0  0  0  0
   39.9640   30.5710   39.3790 C   0  0  0  0  0  0  0  0  0  0  0  0
   41.3120   30.6820   39.5520 N   0  0  0  0  0  0  0  0  0  0  0  0
   41.9540   31.8050   39.8430 C   0  0  0  0  0  0  0  0  0  0  0  0
   41.2520   32.9560   39.9860 N   0  0  0  0  0  0  0  0  0  0  0  0
   39.9080   32.9690   39.8380 C   0  0  0  0  0  0  0  0  0  0  0  0
   39.2220   34.1370   40.0040 C   0  0  0  0  0  0  0  0  0  0  0  0
   37.8610   34.1600   39.8770 C   0  0  0  0  0  0  0  0  0  0  0  0
   37.2160   32.9660   39.5780 C   0  0  0  0  0  0  0  0  0  0  0  0
   37.9750   31.8190   39.4210 C   0  0  0  0  0  0  0  0  0  0  0  0
   39.3260   31.7670   39.5400 C   0  0  0  0  0  0  0  0  0  0  0  0
   43.0240   31.7900   39.9610 H   0  0  0  0  0  0  0  0  0  0  0  0
   39.8030   35.0170   40.2340 H   0  0  0  0  0  0  0  0  0  0  0  0
   37.4170   35.1350   40.0290 H   0  0  0  0  0  0  0  0  0  0  0  0
   36.1530   33.1460   39.5110 H   0  0  0  0  0  0  0  0  0  0  0  0
   36.9830   30.7740   39.1750 C   0  0  0  0  0  0  0  0  0  0  0  0
   36.4580   30.3150   40.4090 C   0  0  0  0  0  3  0  0  0  0  0  0
   35.4740   29.3320   40.5800 C   0  0  0  0  0  0  0  0  0  0  0  0
   35.1000   29.0100   41.5370 H   0  0  0  0  0  0  0  0  0  0  0  0
   34.9920   28.7810   39.4270 N   0  0  0  0  0  0  0  0  0  0  0  0
   35.5090   29.2360   38.2510 C   0  0  0  0  0  3  0  0  0  0  0  0
   36.4410   30.1680   38.1150 N   0  0  0  0  0  0  0  0  0  0  0  0
   37.4850   25.9920   37.3280 N   0  0  0  0  0  0  0  0  0  0  0  0
   36.4710   25.8120   37.1740 H   0  0  0  0  0  0  0  0  0  0  0  0
   38.1970   25.2950   36.9980 H   0  0  0  0  0  0  0  0  0  0  0  0
  1  6  2  0  0  0  0
  1  2  1  0  0  0  0
  2  3  2  0  0  0  0
  3  4  1  0  0  0  0
  3  7  1  0  0  0  0
  5 21  1  0  0  0  0
  5  4  2  0  0  0  0
  6  5  1  0  0  0  0
  7  8  1  0  0  0  0
  8 13  1  0  0  0  0
  8 14  1  0  0  0  0
  8  9  1  0  0  0  0
  9 16  1  0  0  0  0
  9 15  1  0  0  0  0
 10 17  1  0  0  0  0
 10 18  1  0  0  0  0
 10  9  1  0  0  0  0
 11  7  1  0  0  0  0
 11 10  1  0  0  0  0
 12  1  1  0  0  0  0
 19 11  1  0  0  0  0
 20 11  1  0  0  0  0
 21 30  2  0  0  0  0
 21 22  1  0  0  0  0
 22 23  2  0  0  0  0
 23 31  1  0  0  0  0
 23 24  1  0  0  0  0
 25 24  2  0  0  0  0
 25 26  1  0  0  0  0
 26 32  1  0  0  0  0
 27 26  2  0  0  0  0
 27 33  1  0  0  0  0
 28 27  1  0  0  0  0
 29 30  1  0  0  0  0
 29 28  2  0  0  0  0
 30 25  1  0  0  0  0
 34 28  1  0  0  0  0
 35 29  1  0  0  0  0
 35 36  1  0  0  0  0
 36 37  2  0  0  0  0
 37 38  1  0  0  0  0
 39 37  1  0  0  0  0
 40 39  2  0  0  0  0
 41 40  1  0  0  0  0
 41 35  2  0  0  0  0
 42  2  1  0  0  0  0
 43 42  1  0  0  0  0
 44 42  1  0  0  0  0
M  END
>  <minimizedAffinity>
-6.12227964

$$$$
