
 OpenBabel03252504053D

 17 18  0  0  0  0  0  0  0  0999 V2000
   45.6550   32.1110   48.4410 C   0  0  0  0  0  0  0  0  0  0  0  0
   45.3280   33.1170   47.5150 C   0  0  0  0  0  0  0  0  0  0  0  0
   45.9720   33.0710   46.2820 C   0  0  0  0  0  0  0  0  0  0  0  0
   46.8630   32.0930   46.0240 N   0  0  0  0  0  0  0  0  0  0  0  0
   47.1600   31.1300   46.9420 C   0  0  0  0  0  0  0  0  0  0  0  0
   46.5360   31.1690   48.1430 N   0  0  0  0  0  0  0  0  0  0  0  0
   45.1120   32.2180   49.3720 H   0  0  0  0  0  0  0  0  0  0  0  0
   47.8840   30.3440   46.7210 H   0  0  0  0  0  0  0  0  0  0  0  0
   45.6780   34.0920   45.2680 C   0  0  0  0  0  0  0  0  0  0  0  0
   44.7530   35.0980   45.4520 C   0  0  0  0  0  0  0  0  0  0  0  0
   44.6050   35.9760   44.3830 C   0  0  0  0  0  0  0  0  0  0  0  0
   43.8690   36.7670   44.5440 H   0  0  0  0  0  0  0  0  0  0  0  0
   45.3250   35.8250   43.2740 N   0  0  0  0  0  0  0  0  0  0  0  0
   46.2170   34.8530   43.1010 C   0  0  0  0  0  0  0  0  0  0  0  0
   46.3790   33.9900   44.1180 N   0  0  0  0  0  0  0  0  0  0  0  0
   44.4160   34.1300   47.7600 O   0  0  0  0  0  0  0  0  0  0  0  0
   43.4490   33.8630   47.8850 H   0  0  0  0  0  0  0  0  0  0  0  0
  1  7  1  0  0  0  0
  2 16  1  0  0  0  0
  2  1  2  0  0  0  0
  3  2  1  0  0  0  0
  4  3  2  0  0  0  0
  4  5  1  0  0  0  0
  5  6  2  0  0  0  0
  6  1  1  0  0  0  0
  8  5  1  0  0  0  0
  9 10  1  0  0  0  0
  9  3  1  0  0  0  0
 11 12  1  0  0  0  0
 11 10  2  0  0  0  0
 13 11  1  0  0  0  0
 14 13  2  0  0  0  0
 14 15  1  0  0  0  0
 15  9  2  0  0  0  0
 16 17  1  0  0  0  0
M  END
>  <minimizedAffinity>
-5.03935337

>  <minimizedRMSD>
4.28692102

$$$$
