
 OpenBabel03252506183D

 21 22  0  0  0  0  0  0  0  0999 V2000
   44.8700   35.5300   43.9670 C   0  0  0  0  0  0  0  0  0  0  0  0
   44.3840   35.1250   42.7090 C   0  0  0  0  0  0  0  0  0  0  0  0
   44.4620   33.7590   42.3820 C   0  0  0  0  0  0  0  0  0  0  0  0
   45.0010   32.9130   43.2960 N   0  0  0  0  0  0  0  0  0  0  0  0
   45.4660   33.3400   44.5090 C   0  0  0  0  0  0  0  0  0  0  0  0
   45.3880   34.6540   44.8180 N   0  0  0  0  0  0  0  0  0  0  0  0
   43.9620   35.8430   42.0150 H   0  0  0  0  0  0  0  0  0  0  0  0
   44.1030   33.4040   41.4320 H   0  0  0  0  0  0  0  0  0  0  0  0
   46.0410   32.4120   45.4750 C   0  0  0  0  0  0  0  0  0  0  0  0
   46.6510   32.9270   46.6110 C   0  0  0  0  0  3  0  0  0  0  0  0
   47.2000   32.0440   47.5320 C   0  0  0  0  0  0  0  0  0  0  0  0
   47.6790   32.4330   48.4240 H   0  0  0  0  0  0  0  0  0  0  0  0
   47.0990   30.7380   47.2510 N   0  0  0  0  0  0  0  0  0  0  0  0
   46.5230   30.2160   46.1740 C   0  0  0  0  0  3  0  0  0  0  0  0
   45.9790   31.0720   45.2620 N   0  0  0  0  0  0  0  0  0  0  0  0
   44.7860   36.9440   44.3020 C   0  0  0  0  0  3  0  0  0  0  0  0
   45.4000   37.8300   43.5470 C   0  0  0  0  0  3  0  0  0  0  0  0
   45.3610   39.2830   43.8210 C   0  0  0  0  0  0  0  0  0  0  0  0
   45.1220   39.4970   44.8700 H   0  0  0  0  0  0  0  0  0  0  0  0
   44.5680   39.7290   43.2100 H   0  0  0  0  0  0  0  0  0  0  0  0
   46.3610   39.7460   43.6280 H   0  0  0  0  0  0  0  0  0  0  0  0
  1 16  1  0  0  0  0
  1  6  1  0  0  0  0
  2  1  2  0  0  0  0
  3  2  1  0  0  0  0
  3  4  2  0  0  0  0
  4  5  1  0  0  0  0
  5  6  2  0  0  0  0
  5  9  1  0  0  0  0
  7  2  1  0  0  0  0
  8  3  1  0  0  0  0
  9 10  1  0  0  0  0
 10 11  2  0  0  0  0
 11 12  1  0  0  0  0
 13 11  1  0  0  0  0
 14 13  2  0  0  0  0
 15  9  2  0  0  0  0
 15 14  1  0  0  0  0
 17 18  1  0  0  0  0
 17 16  2  0  0  0  0
 18 19  1  0  0  0  0
 20 18  1  0  0  0  0
 21 18  1  0  0  0  0
M  END
>  <minimizedAffinity>
-3.62453246

>  <minimizedRMSD>
1.42712319

$$$$
