
 OpenBabel03242510093D

 26 28  0  0  0  0  0  0  0  0999 V2000
   44.7510   33.0070   41.1640 Br  0  0  0  0  0  0  0  0  0  0  0  0
   46.4120   33.9470   40.9100 C   0  0  0  0  0  0  0  0  0  0  0  0
   46.8890   34.7480   41.9170 C   0  0  0  0  0  0  0  0  0  0  0  0
   48.0970   35.4390   41.7480 C   0  0  0  0  0  0  0  0  0  0  0  0
   48.7760   35.2950   40.5720 C   0  0  0  0  0  0  0  0  0  0  0  0
   48.2540   34.4820   39.6020 C   0  0  0  0  0  0  0  0  0  0  0  0
   47.0970   33.8040   39.7300 C   0  0  0  0  0  0  0  0  0  0  0  0
   48.4290   36.0660   42.5860 H   0  0  0  0  0  0  0  0  0  0  0  0
   49.7100   35.8250   40.4320 H   0  0  0  0  0  0  0  0  0  0  0  0
   48.8230   34.3970   38.6890 H   0  0  0  0  0  0  0  0  0  0  0  0
   45.6350   34.0480   45.2710 C   0  0  0  0  0  0  0  0  0  0  0  0
   44.7110   35.0860   45.5080 C   0  0  0  0  0  0  0  0  0  0  0  0
   44.5340   36.0280   44.4830 C   0  0  0  0  0  0  0  0  0  0  0  0
   45.2540   35.8830   43.3440 N   0  0  0  0  0  0  0  0  0  0  0  0
   46.1360   34.8720   43.1480 C   0  0  0  0  0  0  0  0  0  0  0  0
   46.3190   33.9520   44.1300 N   0  0  0  0  0  0  0  0  0  0  0  0
   45.7900   33.3170   46.0350 H   0  0  0  0  0  0  0  0  0  0  0  0
   44.1810   35.1220   46.4470 H   0  0  0  0  0  0  0  0  0  0  0  0
   43.8330   36.8310   44.6390 H   0  0  0  0  0  0  0  0  0  0  0  0
   46.5200   32.9320   38.7100 C   0  0  0  0  0  0  0  0  0  0  0  0
   45.7610   33.3990   37.6570 C   0  0  0  0  0  3  0  0  0  0  0  0
   45.2340   32.5500   36.7160 C   0  0  0  0  0  0  0  0  0  0  0  0
   44.6410   32.9040   35.8910 H   0  0  0  0  0  0  0  0  0  0  0  0
   45.4290   31.2400   36.7750 N   0  0  0  0  0  0  0  0  0  0  0  0
   46.1710   30.7630   37.8010 C   0  0  0  0  0  3  0  0  0  0  0  0
   46.6900   31.5930   38.7270 N   0  0  0  0  0  0  0  0  0  0  0  0
  2  1  1  0  0  0  0
  2  3  1  0  0  0  0
  3 15  1  0  0  0  0
  4  3  2  0  0  0  0
  4  8  1  0  0  0  0
  5  4  1  0  0  0  0
  6  7  1  0  0  0  0
  6  5  2  0  0  0  0
  7  2  2  0  0  0  0
  9  5  1  0  0  0  0
 10  6  1  0  0  0  0
 11 12  1  0  0  0  0
 11 17  1  0  0  0  0
 12 18  1  0  0  0  0
 13 19  1  0  0  0  0
 13 12  2  0  0  0  0
 14 13  1  0  0  0  0
 15 14  2  0  0  0  0
 15 16  1  0  0  0  0
 16 11  2  0  0  0  0
 20 26  1  0  0  0  0
 20  7  1  0  0  0  0
 21 20  2  0  0  0  0
 22 24  2  0  0  0  0
 22 21  1  0  0  0  0
 23 22  1  0  0  0  0
 24 25  1  0  0  0  0
 25 26  2  0  0  0  0
M  END
>  <minimizedAffinity>
-5.36412477

>  <minimizedRMSD>
0.212667525

$$$$
