
 OpenBabel03252507083D

 22 23  0  0  0  0  0  0  0  0999 V2000
   44.6280   35.6260   44.8070 C   0  0  0  0  0  0  0  0  0  0  0  0
   45.2080   35.7950   43.5380 C   0  0  0  0  0  0  0  0  0  0  0  0
   46.1810   34.8670   43.1490 C   0  0  0  0  0  0  0  0  0  0  0  0
   46.5160   33.8640   43.9980 N   0  0  0  0  0  0  0  0  0  0  0  0
   45.9400   33.7270   45.2160 C   0  0  0  0  0  0  0  0  0  0  0  0
   45.0070   34.6010   45.6110 N   0  0  0  0  0  0  0  0  0  0  0  0
   43.8740   36.3840   45.0510 H   0  0  0  0  0  0  0  0  0  0  0  0
   44.9310   36.5990   42.8710 H   0  0  0  0  0  0  0  0  0  0  0  0
   46.3420   32.6270   46.0870 C   0  0  0  0  0  0  0  0  0  0  0  0
   46.0600   31.3320   45.7230 C   0  0  0  0  0  3  0  0  0  0  0  0
   46.4700   30.3560   46.5960 C   0  0  0  0  0  0  0  0  0  0  0  0
   46.3100   29.2920   46.4300 H   0  0  0  0  0  0  0  0  0  0  0  0
   47.1080   30.5940   47.7430 N   0  0  0  0  0  0  0  0  0  0  0  0
   47.3740   31.8900   48.0780 C   0  0  0  0  0  3  0  0  0  0  0  0
   46.9830   32.8700   47.2410 N   0  0  0  0  0  0  0  0  0  0  0  0
   46.7440   35.0500   41.8900 O   0  0  0  0  0  0  0  0  0  0  0  0
   48.5280   33.2900   41.0460 O   0  0  0  0  0  0  0  0  0  0  0  0
   48.4000   34.6720   41.6600 P   0  0  0  0  0  0  0  0  0  0  0  0
   49.0760   35.8550   40.6890 O   0  0  0  0  0  0  0  0  0  0  0  0
   49.9720   35.5410   40.3850 H   0  0  0  0  0  0  0  0  0  0  0  0
   49.1270   34.6310   43.2040 O   0  0  0  0  0  0  0  0  0  0  0  0
   48.9930   35.5550   43.5750 H   0  0  0  0  0  0  0  0  0  0  0  0
  1  7  1  0  0  0  0
  1  6  1  0  0  0  0
  2  1  2  0  0  0  0
  3  2  1  0  0  0  0
  3  4  2  0  0  0  0
  4  5  1  0  0  0  0
  5  6  2  0  0  0  0
  5  9  1  0  0  0  0
  8  2  1  0  0  0  0
  9 15  1  0  0  0  0
 10  9  2  0  0  0  0
 10 11  1  0  0  0  0
 11 13  2  0  0  0  0
 12 11  1  0  0  0  0
 13 14  1  0  0  0  0
 15 14  2  0  0  0  0
 16  3  1  0  0  0  0
 17 18  2  0  0  0  0
 18 16  1  0  0  0  0
 18 21  1  0  0  0  0
 19 18  1  0  0  0  0
 20 19  1  0  0  0  0
 21 22  1  0  0  0  0
M  END
>  <minimizedAffinity>
-5.41743279

>  <minimizedRMSD>
0.529547274

$$$$
