
 OpenBabel03242516523D

 43 46  0  0  1  0  0  0  0  0999 V2000
   47.8220   32.8520   41.7240 C   0  0  1  0  0  0  0  0  0  0  0  0
   47.4530   32.1800   40.4780 C   0  0  0  0  0  0  0  0  0  0  0  0
   48.4580   32.6390   39.4270 C   0  0  0  0  0  0  0  0  0  0  0  0
   48.1560   34.0870   39.1430 C   0  0  0  0  0  0  0  0  0  0  0  0
   48.1460   34.9560   40.3630 C   0  0  0  0  0  0  0  0  0  0  0  0
   47.6630   34.3730   41.6240 C   0  0  1  0  0  0  0  0  0  0  0  0
   48.9400   32.7410   41.8730 H   0  0  0  0  0  0  0  0  0  0  0  0
   46.4510   32.3910   40.1150 H   0  0  0  0  0  0  0  0  0  0  0  0
   47.5400   31.0720   40.6440 H   0  0  0  0  0  0  0  0  0  0  0  0
   49.5020   32.5000   39.7490 H   0  0  0  0  0  0  0  0  0  0  0  0
   48.1980   32.0910   38.4850 H   0  0  0  0  0  0  0  0  0  0  0  0
   47.1890   34.1460   38.5690 H   0  0  0  0  0  0  0  0  0  0  0  0
   48.9380   34.4340   38.4330 H   0  0  0  0  0  0  0  0  0  0  0  0
   49.1880   35.3760   40.4690 H   0  0  0  0  0  0  0  0  0  0  0  0
   47.5340   35.8570   40.1140 H   0  0  0  0  0  0  0  0  0  0  0  0
   48.2920   34.7770   42.4640 H   0  0  0  0  0  0  0  0  0  0  0  0
   45.4250   31.0310   44.0020 C   0  0  0  0  0  0  0  0  0  0  0  0
   46.0860   31.5240   42.8740 C   0  0  0  0  0  0  0  0  0  0  0  0
   47.1900   32.3780   42.9360 C   0  0  0  0  0  0  0  0  0  0  0  0
   47.5930   32.7100   44.1630 N   0  0  0  0  0  0  0  0  0  0  0  0
   46.9590   32.2380   45.2670 C   0  0  0  0  0  0  0  0  0  0  0  0
   45.9050   31.4220   45.2010 N   0  0  0  0  0  0  0  0  0  0  0  0
   44.5890   30.3830   43.9080 H   0  0  0  0  0  0  0  0  0  0  0  0
   45.7140   31.2200   41.8850 H   0  0  0  0  0  0  0  0  0  0  0  0
   47.3480   32.5550   46.2270 H   0  0  0  0  0  0  0  0  0  0  0  0
   46.2990   34.7940   41.9520 C   0  0  0  0  0  0  0  0  0  0  0  0
   45.9030   35.4630   43.1130 C   0  0  0  0  0  0  0  0  0  0  0  0
   44.5450   35.7800   43.2070 C   0  0  0  0  0  0  0  0  0  0  0  0
   43.7200   35.4090   42.1580 C   0  0  0  0  0  0  0  0  0  0  0  0
   44.1300   34.7450   41.0110 C   0  0  0  0  0  0  0  0  0  0  0  0
   45.4610   34.4490   40.9490 N   0  0  0  0  0  0  0  0  0  0  0  0
   46.6630   35.6760   43.8280 H   0  0  0  0  0  0  0  0  0  0  0  0
   44.2270   36.2880   44.0830 H   0  0  0  0  0  0  0  0  0  0  0  0
   42.6740   35.6800   42.2800 H   0  0  0  0  0  0  0  0  0  0  0  0
   43.1710   34.4080   39.9670 C   0  0  0  0  0  0  0  0  0  0  0  0
   42.5880   35.3770   39.3860 O   0  0  0  0  0  0  0  0  0  0  0  0
   42.7900   33.0820   39.4960 C   0  0  0  0  0  0  0  0  0  0  0  0
   42.0150   33.0000   38.3620 C   0  0  0  0  0  3  0  0  0  0  0  0
   41.6260   31.7450   37.8820 C   0  0  0  0  0  0  0  0  0  0  0  0
   41.0160   31.6520   36.9910 H   0  0  0  0  0  0  0  0  0  0  0  0
   42.0230   30.6270   38.5490 N   0  0  0  0  0  0  0  0  0  0  0  0
   42.7690   30.7040   39.6420 C   0  0  0  0  0  3  0  0  0  0  0  0
   43.1150   31.9090   40.0610 N   0  0  0  0  0  0  0  0  0  0  0  0
  1  7  1  1  0  0  0
  1 19  1  0  0  0  0
  2  9  1  0  0  0  0
  2  1  1  0  0  0  0
  3 10  1  0  0  0  0
  3  2  1  0  0  0  0
  4  3  1  0  0  0  0
  4  5  1  0  0  0  0
  5 14  1  0  0  0  0
  5  6  1  0  0  0  0
  6  1  1  0  0  0  0
  6 26  1  0  0  0  0
  6 16  1  1  0  0  0
  8  2  1  0  0  0  0
 11  3  1  0  0  0  0
 12  4  1  0  0  0  0
 13  4  1  0  0  0  0
 15  5  1  0  0  0  0
 17 22  1  0  0  0  0
 18 19  1  0  0  0  0
 18 17  2  0  0  0  0
 19 20  2  0  0  0  0
 20 21  1  0  0  0  0
 21 25  1  0  0  0  0
 22 21  2  0  0  0  0
 23 17  1  0  0  0  0
 24 18  1  0  0  0  0
 26 27  1  0  0  0  0
 27 28  2  0  0  0  0
 27 32  1  0  0  0  0
 28 33  1  0  0  0  0
 29 34  1  0  0  0  0
 29 28  1  0  0  0  0
 30 29  2  0  0  0  0
 31 30  1  0  0  0  0
 31 26  2  0  0  0  0
 35 30  1  0  0  0  0
 36 35  2  0  0  0  0
 37 35  1  0  0  0  0
 37 43  1  0  0  0  0
 38 37  2  0  0  0  0
 39 38  1  0  0  0  0
 39 41  2  0  0  0  0
 40 39  1  0  0  0  0
 41 42  1  0  0  0  0
 42 43  2  0  0  0  0
M  END
>  <minimizedAffinity>
-5.27536917

>  <minimizedRMSD>
0.493239045

$$$$
