
     RDKit          3D

 28 30  0  0  0  0  0  0  0  0999 V2000
   45.6032   34.0393   45.3307 C   0  0  0  0  0  0  0  0  0  0  0  0
   44.7050   35.0938   45.5920 C   0  0  0  0  0  0  0  0  0  0  0  0
   44.5308   36.0480   44.5769 C   0  0  0  0  0  0  0  0  0  0  0  0
   45.2288   35.8968   43.4245 N   0  0  0  0  0  0  0  0  0  0  0  0
   46.0857   34.8687   43.2066 C   0  0  0  0  0  0  0  0  0  0  0  0
   46.2655   33.9374   44.1779 N   0  0  0  0  0  0  0  0  0  0  0  0
   44.5773   33.1373   41.1932 Br  0  0  0  0  0  0  0  0  0  0  0  0
   46.2830   33.9926   40.9411 C   0  0  0  0  0  0  0  0  0  0  0  0
   46.8148   34.7389   41.9624 C   0  0  0  0  0  0  0  0  0  0  0  0
   48.0573   35.3691   41.7948 C   0  0  0  0  0  0  0  0  0  0  0  0
   48.7122   35.2214   40.6061 C   0  0  0  0  0  0  0  0  0  0  0  0
   48.1346   34.4654   39.6221 C   0  0  0  0  0  0  0  0  0  0  0  0
   46.9438   33.8462   39.7476 C   0  0  0  0  0  0  0  0  0  0  0  0
   45.7550   33.2979   46.0871 H   0  0  0  0  0  0  0  0  0  0  0  0
   44.1918   35.1340   46.5404 H   0  0  0  0  0  0  0  0  0  0  0  0
   43.8503   36.8636   44.7513 H   0  0  0  0  0  0  0  0  0  0  0  0
   48.4331   35.9525   42.6452 H   0  0  0  0  0  0  0  0  0  0  0  0
   49.6713   35.7036   40.4673 H   0  0  0  0  0  0  0  0  0  0  0  0
   48.6859   34.3748   38.6987 H   0  0  0  0  0  0  0  0  0  0  0  0
   46.3079   33.0353   38.7133 C   0  0  0  0  0  0  0  0  0  0  0  0
   46.5100   31.6766   38.5872 C   0  0  0  0  0  0  0  0  0  0  0  0
   45.8945   30.9453   37.6011 C   0  0  0  0  0  0  0  0  0  0  0  0
   46.0454   29.8854   37.4942 H   0  0  0  0  0  0  0  0  0  0  0  0
   45.0770   31.5096   36.7236 N   0  0  0  0  0  0  0  0  0  0  0  0
   44.8670   32.8419   36.8321 C   0  0  0  0  0  0  0  0  0  0  0  0
   45.4685   33.5642   37.7980 N   0  0  0  0  0  0  0  0  0  0  0  0
   47.1621   31.1679   39.2708 H   0  0  0  0  0  0  0  0  0  0  0  0
   44.2094   33.3943   36.1541 H   0  0  0  0  0  0  0  0  0  0  0  0
  1  2  2  0
  3  2  1  0
  4  3  2  0
  5  4  1  0
  5  6  2  0
  6  1  1  0
  8  7  1  0
  8  9  2  0
  9  5  1  0
 10  9  1  0
 11 10  2  0
 12 13  2  0
 12 11  1  0
 13  8  1  0
  1 14  1  0
  2 15  1  0
  3 16  1  0
 10 17  1  0
 11 18  1  0
 12 19  1  0
 20 21  2  0
 21 22  1  0
 22 23  1  0
 22 24  2  0
 24 25  1  0
 25 26  2  0
 26 20  1  0
 21 27  1  0
 25 28  1  0
 13 20  1  0
M  ISO  7  14  14  15  14  16  14  17  14  18  14  19  14  23  14
M  END
>  <DihAtoms>  (1) 
11,12,19,20

>  <DihDeg>  (1) 
0.002662573062137086

$$$$
