
 OpenBabel03242511553D

 32 34  0  0  1  0  0  0  0  0999 V2000
   37.3000   28.4300   40.7440 C   0  0  2  0  0  0  0  0  0  0  0  0
   37.0820   27.1560   41.4610 C   0  0  0  0  0  0  0  0  0  0  0  0
   36.6430   27.3290   42.8820 C   0  0  0  0  0  0  0  0  0  0  0  0
   37.5920   28.2110   43.6750 C   0  0  0  0  0  0  0  0  0  0  0  0
   38.0560   29.4200   42.9210 C   0  0  0  0  0  0  0  0  0  0  0  0
   37.2790   29.6450   41.6530 C   0  0  1  0  0  0  0  0  0  0  0  0
   38.3090   28.4810   40.2360 H   0  0  0  0  0  0  0  0  0  0  0  0
   36.3930   26.4390   40.9820 H   0  0  0  0  0  0  0  0  0  0  0  0
   38.0790   26.6310   41.5130 H   0  0  0  0  0  0  0  0  0  0  0  0
   35.6010   27.5870   43.0450 H   0  0  0  0  0  0  0  0  0  0  0  0
   36.7520   26.3030   43.3480 H   0  0  0  0  0  0  0  0  0  0  0  0
   37.0500   28.5080   44.6040 H   0  0  0  0  0  0  0  0  0  0  0  0
   38.4610   27.6080   44.0100 H   0  0  0  0  0  0  0  0  0  0  0  0
   39.1250   29.2760   42.6070 H   0  0  0  0  0  0  0  0  0  0  0  0
   38.0290   30.3470   43.5040 H   0  0  0  0  0  0  0  0  0  0  0  0
   36.2240   29.9080   41.8330 H   0  0  0  0  0  0  0  0  0  0  0  0
   36.3040   28.6510   39.6790 C   0  0  0  0  0  0  0  0  0  0  0  0
   34.9910   28.9150   40.1130 C   0  0  0  0  0  0  0  0  0  0  0  0
   33.9770   29.1400   39.1740 C   0  0  0  0  0  0  0  0  0  0  0  0
   34.3470   29.0860   37.8530 N   0  0  0  0  0  0  0  0  0  0  0  0
   35.6210   28.8290   37.4630 C   0  0  0  0  0  0  0  0  0  0  0  0
   36.5890   28.6140   38.3790 N   0  0  0  0  0  0  0  0  0  0  0  0
   34.6130   28.9760   41.1220 H   0  0  0  0  0  0  0  0  0  0  0  0
   32.9490   29.3480   39.4340 H   0  0  0  0  0  0  0  0  0  0  0  0
   35.8700   28.7950   36.4100 H   0  0  0  0  0  0  0  0  0  0  0  0
   37.9550   30.7520   40.9250 C   0  0  0  0  0  0  0  0  0  0  0  0
   39.2850   30.6690   40.5590 C   0  0  0  0  0  3  0  0  0  0  0  0
   39.8530   31.7420   39.8810 C   0  0  0  0  0  0  0  0  0  0  0  0
   40.9030   31.7130   39.5750 H   0  0  0  0  0  0  0  0  0  0  0  0
   39.1240   32.8430   39.5820 N   0  0  0  0  0  0  0  0  0  0  0  0
   37.8140   32.8990   39.9540 C   0  0  0  0  0  3  0  0  0  0  0  0
   37.2410   31.8620   40.6180 N   0  0  0  0  0  0  0  0  0  0  0  0
  1  7  1  6  0  0  0
  1  2  1  0  0  0  0
  1  6  1  0  0  0  0
  2  9  1  0  0  0  0
  2  3  1  0  0  0  0
  3 10  1  0  0  0  0
  3 11  1  0  0  0  0
  3  4  1  0  0  0  0
  4 13  1  0  0  0  0
  4 12  1  0  0  0  0
  5 15  1  0  0  0  0
  5  4  1  0  0  0  0
  6 16  1  1  0  0  0
  6  5  1  0  0  0  0
  8  2  1  0  0  0  0
 14  5  1  0  0  0  0
 17 18  1  0  0  0  0
 17  1  1  0  0  0  0
 18 23  1  0  0  0  0
 19 24  1  0  0  0  0
 19 18  2  0  0  0  0
 20 19  1  0  0  0  0
 21 20  2  0  0  0  0
 21 22  1  0  0  0  0
 22 17  2  0  0  0  0
 25 21  1  0  0  0  0
 26  6  1  0  0  0  0
 27 26  2  0  0  0  0
 28 27  1  0  0  0  0
 29 28  1  0  0  0  0
 30 28  2  0  0  0  0
 30 31  1  0  0  0  0
 31 32  2  0  0  0  0
 32 26  1  0  0  0  0
M  END
>  <minimizedAffinity>
-4.91573381

$$$$

 OpenBabel03242511553D

 32 34  0  0  1  0  0  0  0  0999 V2000
   36.3140   29.5980   40.5590 C   0  0  2  0  0  0  0  0  0  0  0  0
   35.0650   28.9320   40.1340 C   0  0  0  0  0  0  0  0  0  0  0  0
   35.0950   28.4340   38.7220 C   0  0  0  0  0  0  0  0  0  0  0  0
   35.4570   29.5290   37.7330 C   0  0  0  0  0  0  0  0  0  0  0  0
   36.5740   30.4110   38.2000 C   0  0  0  0  0  0  0  0  0  0  0  0
   37.2740   29.8650   39.4150 C   0  0  1  0  0  0  0  0  0  0  0  0
   36.1360   30.6170   41.0140 H   0  0  0  0  0  0  0  0  0  0  0  0
   34.7120   28.1050   40.7740 H   0  0  0  0  0  0  0  0  0  0  0  0
   34.2480   29.7100   40.1650 H   0  0  0  0  0  0  0  0  0  0  0  0
   35.6360   27.5110   38.5390 H   0  0  0  0  0  0  0  0  0  0  0  0
   34.0190   28.1780   38.4810 H   0  0  0  0  0  0  0  0  0  0  0  0
   35.7280   29.0190   36.7780 H   0  0  0  0  0  0  0  0  0  0  0  0
   34.5550   30.1350   37.5080 H   0  0  0  0  0  0  0  0  0  0  0  0
   36.1580   31.4090   38.5060 H   0  0  0  0  0  0  0  0  0  0  0  0
   37.3310   30.6150   37.4350 H   0  0  0  0  0  0  0  0  0  0  0  0
   37.8220   28.9310   39.2140 H   0  0  0  0  0  0  0  0  0  0  0  0
   37.0420   28.8240   41.5820 C   0  0  0  0  0  0  0  0  0  0  0  0
   37.4420   27.5290   41.2010 C   0  0  0  0  0  0  0  0  0  0  0  0
   38.1410   26.7200   42.1050 C   0  0  0  0  0  0  0  0  0  0  0  0
   38.3950   27.2650   43.3390 N   0  0  0  0  0  0  0  0  0  0  0  0
   37.9980   28.5170   43.6800 C   0  0  0  0  0  0  0  0  0  0  0  0
   37.3240   29.2860   42.7980 N   0  0  0  0  0  0  0  0  0  0  0  0
   37.2860   27.0240   40.2600 H   0  0  0  0  0  0  0  0  0  0  0  0
   38.4780   25.7180   41.8820 H   0  0  0  0  0  0  0  0  0  0  0  0
   38.2190   28.9080   44.6640 H   0  0  0  0  0  0  0  0  0  0  0  0
   38.2240   30.9150   39.8710 C   0  0  0  0  0  0  0  0  0  0  0  0
   37.7840   32.1640   40.2640 C   0  0  0  0  0  3  0  0  0  0  0  0
   38.7280   33.0980   40.6800 C   0  0  0  0  0  0  0  0  0  0  0  0
   38.4180   34.0980   40.9990 H   0  0  0  0  0  0  0  0  0  0  0  0
   40.0470   32.7930   40.7010 N   0  0  0  0  0  0  0  0  0  0  0  0
   40.4540   31.5540   40.3090 C   0  0  0  0  0  3  0  0  0  0  0  0
   39.5480   30.6280   39.8990 N   0  0  0  0  0  0  0  0  0  0  0  0
  1  7  1  1  0  0  0
  1 17  1  0  0  0  0
  2  9  1  0  0  0  0
  2  1  1  0  0  0  0
  2  8  1  0  0  0  0
  3  2  1  0  0  0  0
  4  5  1  0  0  0  0
  4  3  1  0  0  0  0
  5 14  1  0  0  0  0
  5  6  1  0  0  0  0
  6 16  1  6  0  0  0
  6 26  1  0  0  0  0
  6  1  1  0  0  0  0
 10  3  1  0  0  0  0
 11  3  1  0  0  0  0
 12  4  1  0  0  0  0
 13  4  1  0  0  0  0
 15  5  1  0  0  0  0
 17 22  1  0  0  0  0
 18 17  2  0  0  0  0
 18 19  1  0  0  0  0
 19 20  2  0  0  0  0
 20 21  1  0  0  0  0
 21 25  1  0  0  0  0
 22 21  2  0  0  0  0
 23 18  1  0  0  0  0
 24 19  1  0  0  0  0
 26 32  2  0  0  0  0
 26 27  1  0  0  0  0
 27 28  2  0  0  0  0
 28 30  1  0  0  0  0
 28 29  1  0  0  0  0
 31 30  2  0  0  0  0
 32 31  1  0  0  0  0
M  END
>  <minimizedAffinity>
-4.85448837

$$$$

 OpenBabel03242511553D

 32 34  0  0  1  0  0  0  0  0999 V2000
   38.7070   30.9700   40.1660 C   0  0  2  0  0  0  0  0  0  0  0  0
   39.7590   31.9870   40.3750 C   0  0  0  0  0  0  0  0  0  0  0  0
   39.2390   33.3040   40.8630 C   0  0  0  0  0  0  0  0  0  0  0  0
   38.1540   33.8640   39.9600 C   0  0  0  0  0  0  0  0  0  0  0  0
   37.1650   32.8350   39.5030 C   0  0  0  0  0  0  0  0  0  0  0  0
   37.3000   31.5340   40.2460 C   0  0  1  0  0  0  0  0  0  0  0  0
   38.7560   30.4910   39.1430 H   0  0  0  0  0  0  0  0  0  0  0  0
   40.5970   31.6930   41.0310 H   0  0  0  0  0  0  0  0  0  0  0  0
   40.2210   32.1970   39.3670 H   0  0  0  0  0  0  0  0  0  0  0  0
   38.9810   33.3700   41.9150 H   0  0  0  0  0  0  0  0  0  0  0  0
   40.1070   34.0210   40.7430 H   0  0  0  0  0  0  0  0  0  0  0  0
   37.6440   34.6730   40.5380 H   0  0  0  0  0  0  0  0  0  0  0  0
   38.6210   34.3650   39.0880 H   0  0  0  0  0  0  0  0  0  0  0  0
   37.3510   32.5940   38.4220 H   0  0  0  0  0  0  0  0  0  0  0  0
   36.1210   33.1580   39.5710 H   0  0  0  0  0  0  0  0  0  0  0  0
   37.0320   31.6140   41.3110 H   0  0  0  0  0  0  0  0  0  0  0  0
   38.8000   29.8610   41.1330 C   0  0  0  0  0  0  0  0  0  0  0  0
   39.3950   28.6780   40.6540 C   0  0  0  0  0  0  0  0  0  0  0  0
   39.5290   27.5720   41.5010 C   0  0  0  0  0  0  0  0  0  0  0  0
   39.0550   27.7230   42.7810 N   0  0  0  0  0  0  0  0  0  0  0  0
   38.4860   28.8750   43.2160 C   0  0  0  0  0  0  0  0  0  0  0  0
   38.3630   29.9350   42.3880 N   0  0  0  0  0  0  0  0  0  0  0  0
   39.7910   28.4720   39.6720 H   0  0  0  0  0  0  0  0  0  0  0  0
   39.9740   26.6330   41.2020 H   0  0  0  0  0  0  0  0  0  0  0  0
   38.1260   28.9520   44.2330 H   0  0  0  0  0  0  0  0  0  0  0  0
   36.3960   30.5610   39.5740 C   0  0  0  0  0  0  0  0  0  0  0  0
   36.5110   30.2820   38.2260 C   0  0  0  0  0  3  0  0  0  0  0  0
   35.6320   29.3610   37.6640 C   0  0  0  0  0  0  0  0  0  0  0  0
   35.6920   29.1140   36.5990 H   0  0  0  0  0  0  0  0  0  0  0  0
   34.6870   28.7500   38.4160 N   0  0  0  0  0  0  0  0  0  0  0  0
   34.5960   29.0430   39.7430 C   0  0  0  0  0  3  0  0  0  0  0  0
   35.4450   29.9400   40.3110 N   0  0  0  0  0  0  0  0  0  0  0  0
  1  7  1  6  0  0  0
  1  6  1  0  0  0  0
  1  2  1  0  0  0  0
  1 17  1  0  0  0  0
  2  3  1  0  0  0  0
  2  8  1  0  0  0  0
  3 10  1  0  0  0  0
  4 12  1  0  0  0  0
  4  3  1  0  0  0  0
  5 15  1  0  0  0  0
  5  4  1  0  0  0  0
  5  6  1  0  0  0  0
  6 16  1  1  0  0  0
  9  2  1  0  0  0  0
 11  3  1  0  0  0  0
 13  4  1  0  0  0  0
 14  5  1  0  0  0  0
 17 22  1  0  0  0  0
 18 17  2  0  0  0  0
 18 19  1  0  0  0  0
 19 20  2  0  0  0  0
 20 21  1  0  0  0  0
 21 25  1  0  0  0  0
 22 21  2  0  0  0  0
 23 18  1  0  0  0  0
 24 19  1  0  0  0  0
 26  6  1  0  0  0  0
 26 32  1  0  0  0  0
 27 26  2  0  0  0  0
 28 27  1  0  0  0  0
 28 30  2  0  0  0  0
 29 28  1  0  0  0  0
 30 31  1  0  0  0  0
 31 32  2  0  0  0  0
M  END
>  <minimizedAffinity>
-4.74036074

$$$$

 OpenBabel03242511553D

 32 34  0  0  1  0  0  0  0  0999 V2000
   37.1620   31.0970   40.6860 C   0  0  2  0  0  0  0  0  0  0  0  0
   37.2880   32.5100   40.2710 C   0  0  0  0  0  0  0  0  0  0  0  0
   38.6720   32.8960   39.8510 C   0  0  0  0  0  0  0  0  0  0  0  0
   39.7080   32.5770   40.9150 C   0  0  0  0  0  0  0  0  0  0  0  0
   39.5080   31.2410   41.5630 C   0  0  0  0  0  0  0  0  0  0  0  0
   38.4970   30.3930   40.8400 C   0  0  1  0  0  0  0  0  0  0  0  0
   36.6670   30.9770   41.6950 H   0  0  0  0  0  0  0  0  0  0  0  0
   36.5910   32.8510   39.4860 H   0  0  0  0  0  0  0  0  0  0  0  0
   37.0590   33.1420   41.1770 H   0  0  0  0  0  0  0  0  0  0  0  0
   38.9870   32.5880   38.8580 H   0  0  0  0  0  0  0  0  0  0  0  0
   38.6560   34.0270   39.7990 H   0  0  0  0  0  0  0  0  0  0  0  0
   40.7050   32.6300   40.4160 H   0  0  0  0  0  0  0  0  0  0  0  0
   39.7090   33.3810   41.6800 H   0  0  0  0  0  0  0  0  0  0  0  0
   39.1030   31.3860   42.6000 H   0  0  0  0  0  0  0  0  0  0  0  0
   40.4270   30.6560   41.6710 H   0  0  0  0  0  0  0  0  0  0  0  0
   38.8310   30.0850   39.8360 H   0  0  0  0  0  0  0  0  0  0  0  0
   36.3470   30.3080   39.7440 C   0  0  0  0  0  0  0  0  0  0  0  0
   36.7810   30.3100   38.4050 C   0  0  0  0  0  0  0  0  0  0  0  0
   36.0710   29.5870   37.4390 C   0  0  0  0  0  0  0  0  0  0  0  0
   34.9660   28.9040   37.8800 N   0  0  0  0  0  0  0  0  0  0  0  0
   34.5690   28.9180   39.1780 C   0  0  0  0  0  0  0  0  0  0  0  0
   35.2640   29.6200   40.0990 N   0  0  0  0  0  0  0  0  0  0  0  0
   37.6310   30.8150   37.9730 H   0  0  0  0  0  0  0  0  0  0  0  0
   36.3460   29.5450   36.3950 H   0  0  0  0  0  0  0  0  0  0  0  0
   33.6920   28.3650   39.4830 H   0  0  0  0  0  0  0  0  0  0  0  0
   38.2670   29.1880   41.6830 C   0  0  0  0  0  0  0  0  0  0  0  0
   37.7160   29.2860   42.9460 C   0  0  0  0  0  3  0  0  0  0  0  0
   37.5280   28.1180   43.6780 C   0  0  0  0  0  0  0  0  0  0  0  0
   37.0940   28.1560   44.6820 H   0  0  0  0  0  0  0  0  0  0  0  0
   37.8740   26.9130   43.1680 N   0  0  0  0  0  0  0  0  0  0  0  0
   38.4150   26.8440   41.9200 C   0  0  0  0  0  3  0  0  0  0  0  0
   38.6070   27.9730   41.1890 N   0  0  0  0  0  0  0  0  0  0  0  0
  1  6  1  0  0  0  0
  1  7  1  1  0  0  0
  2  1  1  0  0  0  0
  2  9  1  0  0  0  0
  3  2  1  0  0  0  0
  3  4  1  0  0  0  0
  4  5  1  0  0  0  0
  4 13  1  0  0  0  0
  5 15  1  0  0  0  0
  5 14  1  0  0  0  0
  6 16  1  6  0  0  0
  6  5  1  0  0  0  0
  6 26  1  0  0  0  0
  8  2  1  0  0  0  0
 10  3  1  0  0  0  0
 11  3  1  0  0  0  0
 12  4  1  0  0  0  0
 17 22  1  0  0  0  0
 17  1  1  0  0  0  0
 18 17  2  0  0  0  0
 19 20  2  0  0  0  0
 19 18  1  0  0  0  0
 20 21  1  0  0  0  0
 21 25  1  0  0  0  0
 21 22  2  0  0  0  0
 23 18  1  0  0  0  0
 24 19  1  0  0  0  0
 26 27  1  0  0  0  0
 27 28  2  0  0  0  0
 28 29  1  0  0  0  0
 30 28  1  0  0  0  0
 31 30  2  0  0  0  0
 32 26  2  0  0  0  0
 32 31  1  0  0  0  0
M  END
>  <minimizedAffinity>
-4.73492289

$$$$

 OpenBabel03242511553D

 32 34  0  0  1  0  0  0  0  0999 V2000
   37.7650   28.2550   40.7690 C   0  0  2  0  0  0  0  0  0  0  0  0
   37.7370   26.9120   41.3860 C   0  0  0  0  0  0  0  0  0  0  0  0
   36.9580   26.8500   42.6640 C   0  0  0  0  0  0  0  0  0  0  0  0
   37.4360   27.8740   43.6790 C   0  0  0  0  0  0  0  0  0  0  0  0
   37.7200   29.2200   43.0840 C   0  0  0  0  0  0  0  0  0  0  0  0
   37.2180   29.3450   41.6720 C   0  0  1  0  0  0  0  0  0  0  0  0
   38.8120   28.6020   40.5190 H   0  0  0  0  0  0  0  0  0  0  0  0
   37.3890   26.0870   40.7410 H   0  0  0  0  0  0  0  0  0  0  0  0
   38.7990   26.6540   41.6650 H   0  0  0  0  0  0  0  0  0  0  0  0
   35.8760   26.8220   42.5780 H   0  0  0  0  0  0  0  0  0  0  0  0
   37.2270   25.8500   43.1200 H   0  0  0  0  0  0  0  0  0  0  0  0
   36.6390   27.9460   44.4580 H   0  0  0  0  0  0  0  0  0  0  0  0
   38.3350   27.4840   44.2000 H   0  0  0  0  0  0  0  0  0  0  0  0
   38.8310   29.3770   43.0330 H   0  0  0  0  0  0  0  0  0  0  0  0
   37.3170   30.0570   43.6630 H   0  0  0  0  0  0  0  0  0  0  0  0
   36.1190   29.3180   41.6000 H   0  0  0  0  0  0  0  0  0  0  0  0
   37.0140   28.3060   39.5020 C   0  0  0  0  0  0  0  0  0  0  0  0
   37.7870   28.4610   38.3350 C   0  0  0  0  0  0  0  0  0  0  0  0
   37.1610   28.5160   37.0840 C   0  0  0  0  0  0  0  0  0  0  0  0
   35.7920   28.4120   37.0830 N   0  0  0  0  0  0  0  0  0  0  0  0
   35.0710   28.2630   38.2230 C   0  0  0  0  0  0  0  0  0  0  0  0
   35.6880   28.2110   39.4230 N   0  0  0  0  0  0  0  0  0  0  0  0
   38.8580   28.5500   38.2430 H   0  0  0  0  0  0  0  0  0  0  0  0
   37.6900   28.6340   36.1500 H   0  0  0  0  0  0  0  0  0  0  0  0
   33.9930   28.1850   38.1760 H   0  0  0  0  0  0  0  0  0  0  0  0
   37.7230   30.6450   41.1510 C   0  0  0  0  0  0  0  0  0  0  0  0
   36.8850   31.5460   40.5240 C   0  0  0  0  0  3  0  0  0  0  0  0
   37.4250   32.7410   40.0630 C   0  0  0  0  0  0  0  0  0  0  0  0
   36.7920   33.4800   39.5610 H   0  0  0  0  0  0  0  0  0  0  0  0
   38.7400   33.0200   40.2230 N   0  0  0  0  0  0  0  0  0  0  0  0
   39.5450   32.1140   40.8450 C   0  0  0  0  0  3  0  0  0  0  0  0
   39.0360   30.9400   41.3030 N   0  0  0  0  0  0  0  0  0  0  0  0
  1  7  1  6  0  0  0
  1  2  1  0  0  0  0
  1  6  1  0  0  0  0
  2  9  1  0  0  0  0
  2  3  1  0  0  0  0
  3 11  1  0  0  0  0
  3  4  1  0  0  0  0
  4 13  1  0  0  0  0
  4 12  1  0  0  0  0
  5 15  1  0  0  0  0
  5  4  1  0  0  0  0
  6 16  1  6  0  0  0
  6  5  1  0  0  0  0
  8  2  1  0  0  0  0
 10  3  1  0  0  0  0
 14  5  1  0  0  0  0
 17  1  1  0  0  0  0
 18 17  2  0  0  0  0
 19 18  1  0  0  0  0
 20 19  2  0  0  0  0
 20 21  1  0  0  0  0
 21 22  2  0  0  0  0
 22 17  1  0  0  0  0
 23 18  1  0  0  0  0
 24 19  1  0  0  0  0
 25 21  1  0  0  0  0
 26 32  1  0  0  0  0
 26  6  1  0  0  0  0
 27 26  2  0  0  0  0
 28 30  2  0  0  0  0
 28 27  1  0  0  0  0
 29 28  1  0  0  0  0
 30 31  1  0  0  0  0
 31 32  2  0  0  0  0
M  END
>  <minimizedAffinity>
-4.71460295

$$$$

 OpenBabel03242511553D

 32 34  0  0  1  0  0  0  0  0999 V2000
   37.5950   26.9350   42.3990 C   0  0  2  0  0  0  0  0  0  0  0  0
   38.2730   27.3800   43.6350 C   0  0  0  0  0  0  0  0  0  0  0  0
   39.7320   27.0440   43.6800 C   0  0  0  0  0  0  0  0  0  0  0  0
   39.9890   25.5640   43.4550 C   0  0  0  0  0  0  0  0  0  0  0  0
   39.1560   24.9710   42.3590 C   0  0  0  0  0  0  0  0  0  0  0  0
   38.4460   26.0160   41.5420 C   0  0  1  0  0  0  0  0  0  0  0  0
   36.6590   26.3350   42.6030 H   0  0  0  0  0  0  0  0  0  0  0  0
   38.1670   28.4480   43.8920 H   0  0  0  0  0  0  0  0  0  0  0  0
   37.8050   26.8130   44.4920 H   0  0  0  0  0  0  0  0  0  0  0  0
   40.3980   27.6750   43.1000 H   0  0  0  0  0  0  0  0  0  0  0  0
   40.0400   27.2260   44.7540 H   0  0  0  0  0  0  0  0  0  0  0  0
   41.0770   25.4610   43.2250 H   0  0  0  0  0  0  0  0  0  0  0  0
   39.8270   25.0130   44.4040 H   0  0  0  0  0  0  0  0  0  0  0  0
   38.3500   24.3310   42.8090 H   0  0  0  0  0  0  0  0  0  0  0  0
   39.7140   24.3260   41.6730 H   0  0  0  0  0  0  0  0  0  0  0  0
   39.1340   26.6470   40.9570 H   0  0  0  0  0  0  0  0  0  0  0  0
   37.1700   28.0670   41.5550 C   0  0  0  0  0  0  0  0  0  0  0  0
   38.2070   28.8140   40.9630 C   0  0  0  0  0  0  0  0  0  0  0  0
   37.9000   29.9060   40.1430 C   0  0  0  0  0  0  0  0  0  0  0  0
   36.5670   30.1810   39.9680 N   0  0  0  0  0  0  0  0  0  0  0  0
   35.5880   29.4430   40.5500 C   0  0  0  0  0  0  0  0  0  0  0  0
   35.8980   28.3920   41.3390 N   0  0  0  0  0  0  0  0  0  0  0  0
   39.2730   28.6710   41.0460 H   0  0  0  0  0  0  0  0  0  0  0  0
   38.6430   30.5230   39.6580 H   0  0  0  0  0  0  0  0  0  0  0  0
   34.5490   29.6950   40.3850 H   0  0  0  0  0  0  0  0  0  0  0  0
   37.5260   25.2910   40.6240 C   0  0  0  0  0  0  0  0  0  0  0  0
   36.6480   24.3330   41.0910 C   0  0  0  0  0  3  0  0  0  0  0  0
   35.8170   23.6950   40.1760 C   0  0  0  0  0  0  0  0  0  0  0  0
   35.1080   22.9300   40.5080 H   0  0  0  0  0  0  0  0  0  0  0  0
   35.8630   24.0040   38.8590 N   0  0  0  0  0  0  0  0  0  0  0  0
   36.7380   24.9540   38.4250 C   0  0  0  0  0  3  0  0  0  0  0  0
   37.5590   25.5880   39.3030 N   0  0  0  0  0  0  0  0  0  0  0  0
  1  7  1  1  0  0  0
  1  2  1  0  0  0  0
  2  3  1  0  0  0  0
  2  8  1  0  0  0  0
  2  9  1  0  0  0  0
  3 11  1  0  0  0  0
  4  3  1  0  0  0  0
  4 13  1  0  0  0  0
  5 14  1  0  0  0  0
  5  4  1  0  0  0  0
  6 16  1  6  0  0  0
  6  5  1  0  0  0  0
  6  1  1  0  0  0  0
 10  3  1  0  0  0  0
 12  4  1  0  0  0  0
 15  5  1  0  0  0  0
 17  1  1  0  0  0  0
 18 23  1  0  0  0  0
 18 17  2  0  0  0  0
 19 18  1  0  0  0  0
 20 19  2  0  0  0  0
 20 21  1  0  0  0  0
 21 22  2  0  0  0  0
 22 17  1  0  0  0  0
 24 19  1  0  0  0  0
 25 21  1  0  0  0  0
 26 27  1  0  0  0  0
 26  6  1  0  0  0  0
 28 29  1  0  0  0  0
 28 27  2  0  0  0  0
 30 28  1  0  0  0  0
 31 30  2  0  0  0  0
 31 32  1  0  0  0  0
 32 26  2  0  0  0  0
M  END
>  <minimizedAffinity>
-4.71097469

$$$$

 OpenBabel03242511553D

 32 34  0  0  1  0  0  0  0  0999 V2000
   37.0940   29.2270   41.7650 C   0  0  2  0  0  0  0  0  0  0  0  0
   37.3760   28.8110   43.1550 C   0  0  0  0  0  0  0  0  0  0  0  0
   38.1490   27.5320   43.2590 C   0  0  0  0  0  0  0  0  0  0  0  0
   37.4830   26.3940   42.5060 C   0  0  0  0  0  0  0  0  0  0  0  0
   36.9490   26.7960   41.1640 C   0  0  0  0  0  0  0  0  0  0  0  0
   37.4210   28.1590   40.7380 C   0  0  1  0  0  0  0  0  0  0  0  0
   36.0010   29.4560   41.5890 H   0  0  0  0  0  0  0  0  0  0  0  0
   37.8770   29.5580   43.7950 H   0  0  0  0  0  0  0  0  0  0  0  0
   36.3820   28.6050   43.6480 H   0  0  0  0  0  0  0  0  0  0  0  0
   39.2170   27.5880   43.0700 H   0  0  0  0  0  0  0  0  0  0  0  0
   38.0750   27.2350   44.3480 H   0  0  0  0  0  0  0  0  0  0  0  0
   38.2490   25.5890   42.4010 H   0  0  0  0  0  0  0  0  0  0  0  0
   36.6730   25.9630   43.1300 H   0  0  0  0  0  0  0  0  0  0  0  0
   35.8280   26.8580   41.2130 H   0  0  0  0  0  0  0  0  0  0  0  0
   37.1820   26.0890   40.3610 H   0  0  0  0  0  0  0  0  0  0  0  0
   38.5050   28.2000   40.5470 H   0  0  0  0  0  0  0  0  0  0  0  0
   37.8250   30.4500   41.3870 C   0  0  0  0  0  0  0  0  0  0  0  0
   39.2120   30.4350   41.6310 C   0  0  0  0  0  0  0  0  0  0  0  0
   39.9900   31.5510   41.3020 C   0  0  0  0  0  0  0  0  0  0  0  0
   39.3250   32.6160   40.7470 N   0  0  0  0  0  0  0  0  0  0  0  0
   37.9870   32.6030   40.5220 C   0  0  0  0  0  0  0  0  0  0  0  0
   37.2480   31.5200   40.8440 N   0  0  0  0  0  0  0  0  0  0  0  0
   39.8130   29.6490   42.0600 H   0  0  0  0  0  0  0  0  0  0  0  0
   41.0580   31.6100   41.4610 H   0  0  0  0  0  0  0  0  0  0  0  0
   37.5030   33.4640   40.0820 H   0  0  0  0  0  0  0  0  0  0  0  0
   36.6780   28.5010   39.4940 C   0  0  0  0  0  0  0  0  0  0  0  0
   35.3020   28.6220   39.4860 C   0  0  0  0  0  3  0  0  0  0  0  0
   34.6740   28.9440   38.2870 C   0  0  0  0  0  0  0  0  0  0  0  0
   33.5860   29.0500   38.2410 H   0  0  0  0  0  0  0  0  0  0  0  0
   35.3900   29.1360   37.1540 N   0  0  0  0  0  0  0  0  0  0  0  0
   36.7460   29.0100   37.1910 C   0  0  0  0  0  3  0  0  0  0  0  0
   37.3780   28.6960   38.3510 N   0  0  0  0  0  0  0  0  0  0  0  0
  1  7  1  6  0  0  0
  1  2  1  0  0  0  0
  2  3  1  0  0  0  0
  2  9  1  0  0  0  0
  2  8  1  0  0  0  0
  3 11  1  0  0  0  0
  4 13  1  0  0  0  0
  4  3  1  0  0  0  0
  5 14  1  0  0  0  0
  5  4  1  0  0  0  0
  6 16  1  6  0  0  0
  6  5  1  0  0  0  0
  6  1  1  0  0  0  0
 10  3  1  0  0  0  0
 12  4  1  0  0  0  0
 15  5  1  0  0  0  0
 17 18  1  0  0  0  0
 17  1  1  0  0  0  0
 18 23  1  0  0  0  0
 19 24  1  0  0  0  0
 19 18  2  0  0  0  0
 20 19  1  0  0  0  0
 21 20  2  0  0  0  0
 21 22  1  0  0  0  0
 22 17  2  0  0  0  0
 25 21  1  0  0  0  0
 26  6  1  0  0  0  0
 27 26  1  0  0  0  0
 28 27  2  0  0  0  0
 29 28  1  0  0  0  0
 30 31  2  0  0  0  0
 30 28  1  0  0  0  0
 31 32  1  0  0  0  0
 32 26  2  0  0  0  0
M  END
>  <minimizedAffinity>
-4.69316387

$$$$

 OpenBabel03242511553D

 32 34  0  0  1  0  0  0  0  0999 V2000
   38.5060   30.6650   40.1250 C   0  0  2  0  0  0  0  0  0  0  0  0
   39.5310   31.6530   40.5260 C   0  0  0  0  0  0  0  0  0  0  0  0
   38.9630   32.9610   40.9820 C   0  0  0  0  0  0  0  0  0  0  0  0
   38.0300   33.5750   39.9530 C   0  0  0  0  0  0  0  0  0  0  0  0
   37.1050   32.5820   39.3160 C   0  0  0  0  0  0  0  0  0  0  0  0
   37.1110   31.2530   40.0200 C   0  0  1  0  0  0  0  0  0  0  0  0
   38.6990   30.2220   39.1030 H   0  0  0  0  0  0  0  0  0  0  0  0
   40.2590   31.3200   41.2850 H   0  0  0  0  0  0  0  0  0  0  0  0
   40.1390   31.8910   39.6050 H   0  0  0  0  0  0  0  0  0  0  0  0
   38.5540   32.9950   41.9870 H   0  0  0  0  0  0  0  0  0  0  0  0
   39.8490   33.6660   41.0190 H   0  0  0  0  0  0  0  0  0  0  0  0
   37.4520   34.3720   40.4810 H   0  0  0  0  0  0  0  0  0  0  0  0
   38.6280   34.0970   39.1780 H   0  0  0  0  0  0  0  0  0  0  0  0
   37.4450   32.3780   38.2660 H   0  0  0  0  0  0  0  0  0  0  0  0
   36.0670   32.9230   39.2430 H   0  0  0  0  0  0  0  0  0  0  0  0
   36.6910   31.3000   41.0370 H   0  0  0  0  0  0  0  0  0  0  0  0
   38.4400   29.5200   41.0520 C   0  0  0  0  0  0  0  0  0  0  0  0
   38.0270   29.8170   42.3650 C   0  0  0  0  0  0  0  0  0  0  0  0
   37.9310   28.7930   43.3150 C   0  0  0  0  0  0  0  0  0  0  0  0
   38.2580   27.5310   42.8860 N   0  0  0  0  0  0  0  0  0  0  0  0
   38.6540   27.2730   41.6130 C   0  0  0  0  0  0  0  0  0  0  0  0
   38.7410   28.2700   40.7070 N   0  0  0  0  0  0  0  0  0  0  0  0
   37.7530   30.7720   42.7860 H   0  0  0  0  0  0  0  0  0  0  0  0
   37.6220   28.9470   44.3390 H   0  0  0  0  0  0  0  0  0  0  0  0
   38.9020   26.2630   41.3170 H   0  0  0  0  0  0  0  0  0  0  0  0
   36.3030   30.3230   39.1850 C   0  0  0  0  0  0  0  0  0  0  0  0
   35.2210   29.6410   39.7070 C   0  0  0  0  0  3  0  0  0  0  0  0
   34.5100   28.7880   38.8700 C   0  0  0  0  0  0  0  0  0  0  0  0
   33.6460   28.2300   39.2470 H   0  0  0  0  0  0  0  0  0  0  0  0
   34.8650   28.6270   37.5740 N   0  0  0  0  0  0  0  0  0  0  0  0
   35.9360   29.3120   37.0840 C   0  0  0  0  0  3  0  0  0  0  0  0
   36.6440   30.1500   37.8860 N   0  0  0  0  0  0  0  0  0  0  0  0
  1  7  1  6  0  0  0
  1  2  1  0  0  0  0
  1 17  1  0  0  0  0
  2  3  1  0  0  0  0
  2  8  1  0  0  0  0
  3 11  1  0  0  0  0
  3 10  1  0  0  0  0
  4 12  1  0  0  0  0
  4  3  1  0  0  0  0
  5  4  1  0  0  0  0
  5  6  1  0  0  0  0
  6  1  1  0  0  0  0
  6 16  1  1  0  0  0
  9  2  1  0  0  0  0
 13  4  1  0  0  0  0
 14  5  1  0  0  0  0
 15  5  1  0  0  0  0
 17 18  1  0  0  0  0
 18 23  1  0  0  0  0
 18 19  2  0  0  0  0
 19 24  1  0  0  0  0
 20 19  1  0  0  0  0
 21 20  2  0  0  0  0
 22 17  2  0  0  0  0
 22 21  1  0  0  0  0
 25 21  1  0  0  0  0
 26 27  1  0  0  0  0
 26  6  1  0  0  0  0
 28 29  1  0  0  0  0
 28 27  2  0  0  0  0
 30 28  1  0  0  0  0
 31 30  2  0  0  0  0
 31 32  1  0  0  0  0
 32 26  2  0  0  0  0
M  END
>  <minimizedAffinity>
-4.63639307

$$$$

 OpenBabel03242511553D

 32 34  0  0  1  0  0  0  0  0999 V2000
   37.5420   29.7120   38.7520 C   0  0  2  0  0  0  0  0  0  0  0  0
   36.8640   29.7000   37.4390 C   0  0  0  0  0  0  0  0  0  0  0  0
   35.3900   29.4520   37.5210 C   0  0  0  0  0  0  0  0  0  0  0  0
   35.0610   28.1790   38.2820 C   0  0  0  0  0  0  0  0  0  0  0  0
   35.8840   27.9930   39.5200 C   0  0  0  0  0  0  0  0  0  0  0  0
   36.6620   29.2270   39.8890 C   0  0  1  0  0  0  0  0  0  0  0  0
   38.4420   29.0290   38.7880 H   0  0  0  0  0  0  0  0  0  0  0  0
   37.0200   30.5880   36.8020 H   0  0  0  0  0  0  0  0  0  0  0  0
   37.2860   28.8300   36.8560 H   0  0  0  0  0  0  0  0  0  0  0  0
   34.7680   30.2900   37.8230 H   0  0  0  0  0  0  0  0  0  0  0  0
   35.0710   29.2380   36.4570 H   0  0  0  0  0  0  0  0  0  0  0  0
   33.9740   28.2290   38.5330 H   0  0  0  0  0  0  0  0  0  0  0  0
   35.1770   27.3060   37.6070 H   0  0  0  0  0  0  0  0  0  0  0  0
   36.6470   27.1880   39.3430 H   0  0  0  0  0  0  0  0  0  0  0  0
   35.3070   27.6810   40.3970 H   0  0  0  0  0  0  0  0  0  0  0  0
   36.0190   30.0670   40.1960 H   0  0  0  0  0  0  0  0  0  0  0  0
   38.0410   31.0510   39.1130 C   0  0  0  0  0  0  0  0  0  0  0  0
   37.0560   32.0310   39.3440 C   0  0  0  0  0  0  0  0  0  0  0  0
   37.4340   33.3320   39.6950 C   0  0  0  0  0  0  0  0  0  0  0  0
   38.7820   33.5700   39.7920 N   0  0  0  0  0  0  0  0  0  0  0  0
   39.7110   32.6060   39.5640 C   0  0  0  0  0  0  0  0  0  0  0  0
   39.3320   31.3550   39.2270 N   0  0  0  0  0  0  0  0  0  0  0  0
   35.9820   31.9340   39.2900 H   0  0  0  0  0  0  0  0  0  0  0  0
   36.7340   34.1330   39.8860 H   0  0  0  0  0  0  0  0  0  0  0  0
   40.7640   32.8370   39.6520 H   0  0  0  0  0  0  0  0  0  0  0  0
   37.5610   28.8470   41.0130 C   0  0  0  0  0  0  0  0  0  0  0  0
   38.5550   27.9010   40.8530 C   0  0  0  0  0  3  0  0  0  0  0  0
   39.3590   27.5960   41.9460 C   0  0  0  0  0  0  0  0  0  0  0  0
   40.1570   26.8520   41.8580 H   0  0  0  0  0  0  0  0  0  0  0  0
   39.1760   28.2090   43.1390 N   0  0  0  0  0  0  0  0  0  0  0  0
   38.1890   29.1380   43.2690 C   0  0  0  0  0  3  0  0  0  0  0  0
   37.3920   29.4500   42.2140 N   0  0  0  0  0  0  0  0  0  0  0  0
  1  7  1  6  0  0  0
  1 17  1  0  0  0  0
  1  6  1  0  0  0  0
  2  3  1  0  0  0  0
  2  1  1  0  0  0  0
  3 10  1  0  0  0  0
  3  4  1  0  0  0  0
  4 12  1  0  0  0  0
  4  5  1  0  0  0  0
  5  6  1  0  0  0  0
  5 15  1  0  0  0  0
  6 16  1  1  0  0  0
  6 26  1  0  0  0  0
  8  2  1  0  0  0  0
  9  2  1  0  0  0  0
 11  3  1  0  0  0  0
 13  4  1  0  0  0  0
 14  5  1  0  0  0  0
 17 22  2  0  0  0  0
 17 18  1  0  0  0  0
 18 19  2  0  0  0  0
 19 20  1  0  0  0  0
 19 24  1  0  0  0  0
 21 25  1  0  0  0  0
 21 20  2  0  0  0  0
 22 21  1  0  0  0  0
 23 18  1  0  0  0  0
 26 32  1  0  0  0  0
 27 26  2  0  0  0  0
 27 28  1  0  0  0  0
 28 30  2  0  0  0  0
 29 28  1  0  0  0  0
 30 31  1  0  0  0  0
 32 31  2  0  0  0  0
M  END
>  <minimizedAffinity>
-4.63547993

$$$$
