
 OpenBabel03242510093D

 26 28  0  0  0  0  0  0  0  0999 V2000
   44.7520   33.0070   41.1630 Br  0  0  0  0  0  0  0  0  0  0  0  0
   46.4130   33.9470   40.9090 C   0  0  0  0  0  0  0  0  0  0  0  0
   46.8900   34.7480   41.9160 C   0  0  0  0  0  0  0  0  0  0  0  0
   48.0980   35.4390   41.7480 C   0  0  0  0  0  0  0  0  0  0  0  0
   48.7770   35.2950   40.5720 C   0  0  0  0  0  0  0  0  0  0  0  0
   48.2560   34.4830   39.6020 C   0  0  0  0  0  0  0  0  0  0  0  0
   47.0980   33.8040   39.7290 C   0  0  0  0  0  0  0  0  0  0  0  0
   48.4300   36.0660   42.5860 H   0  0  0  0  0  0  0  0  0  0  0  0
   49.7110   35.8260   40.4320 H   0  0  0  0  0  0  0  0  0  0  0  0
   48.8240   34.3980   38.6880 H   0  0  0  0  0  0  0  0  0  0  0  0
   45.6360   34.0480   45.2700 C   0  0  0  0  0  0  0  0  0  0  0  0
   44.7110   35.0850   45.5070 C   0  0  0  0  0  0  0  0  0  0  0  0
   44.5340   36.0270   44.4820 C   0  0  0  0  0  0  0  0  0  0  0  0
   45.2550   35.8820   43.3430 N   0  0  0  0  0  0  0  0  0  0  0  0
   46.1370   34.8720   43.1480 C   0  0  0  0  0  0  0  0  0  0  0  0
   46.3210   33.9510   44.1290 N   0  0  0  0  0  0  0  0  0  0  0  0
   45.7920   33.3160   46.0340 H   0  0  0  0  0  0  0  0  0  0  0  0
   44.1820   35.1210   46.4460 H   0  0  0  0  0  0  0  0  0  0  0  0
   43.8330   36.8290   44.6380 H   0  0  0  0  0  0  0  0  0  0  0  0
   46.5210   32.9320   38.7090 C   0  0  0  0  0  0  0  0  0  0  0  0
   45.7630   33.4010   37.6560 C   0  0  0  0  0  3  0  0  0  0  0  0
   45.2360   32.5510   36.7140 C   0  0  0  0  0  0  0  0  0  0  0  0
   44.6430   32.9060   35.8900 H   0  0  0  0  0  0  0  0  0  0  0  0
   45.4310   31.2410   36.7730 N   0  0  0  0  0  0  0  0  0  0  0  0
   46.1720   30.7640   37.7990 C   0  0  0  0  0  3  0  0  0  0  0  0
   46.6920   31.5940   38.7250 N   0  0  0  0  0  0  0  0  0  0  0  0
  2  1  1  0  0  0  0
  2  3  1  0  0  0  0
  3 15  1  0  0  0  0
  4  3  2  0  0  0  0
  4  8  1  0  0  0  0
  5  4  1  0  0  0  0
  6  7  1  0  0  0  0
  6  5  2  0  0  0  0
  7  2  2  0  0  0  0
  9  5  1  0  0  0  0
 10  6  1  0  0  0  0
 11 12  1  0  0  0  0
 11 17  1  0  0  0  0
 12 18  1  0  0  0  0
 13 19  1  0  0  0  0
 13 12  2  0  0  0  0
 14 13  1  0  0  0  0
 15 14  2  0  0  0  0
 15 16  1  0  0  0  0
 16 11  2  0  0  0  0
 20 26  1  0  0  0  0
 20  7  1  0  0  0  0
 21 20  2  0  0  0  0
 22 24  2  0  0  0  0
 22 21  1  0  0  0  0
 23 22  1  0  0  0  0
 24 25  1  0  0  0  0
 25 26  2  0  0  0  0
M  END
>  <minimizedAffinity>
-5.36326027

>  <minimizedRMSD>
0.713858902

$$$$
