
 OpenBabel03252508323D

 30 32  0  0  1  0  0  0  0  0999 V2000
   44.3100   34.2900   41.5320 N   0  0  0  0  0  0  0  0  0  0  0  0
   44.7410   33.1620   40.7920 C   0  0  1  0  0  0  0  0  0  0  0  0
   44.2790   33.0860   39.3890 C   0  0  0  0  0  0  0  0  0  0  0  0
   43.0410   33.6580   39.0660 N   0  0  0  0  0  0  0  0  0  0  0  0
   42.5490   34.6870   39.8780 C   0  0  0  0  0  0  0  0  0  0  0  0
   43.6360   35.2760   40.7470 C   0  0  0  0  0  0  0  0  0  0  0  0
   44.4050   32.2420   41.3350 H   0  0  0  0  0  0  0  0  0  0  0  0
   45.0620   33.5600   38.7210 H   0  0  0  0  0  0  0  0  0  0  0  0
   44.2890   32.0120   39.0600 H   0  0  0  0  0  0  0  0  0  0  0  0
   43.0300   33.9410   38.0590 H   0  0  0  0  0  0  0  0  0  0  0  0
   41.7180   34.2750   40.5040 H   0  0  0  0  0  0  0  0  0  0  0  0
   42.1070   35.5310   39.2890 H   0  0  0  0  0  0  0  0  0  0  0  0
   43.2810   36.1670   41.2670 H   0  0  0  0  0  0  0  0  0  0  0  0
   44.3880   35.6780   39.9960 H   0  0  0  0  0  0  0  0  0  0  0  0
   44.3330   35.5780   43.5390 C   0  0  0  0  0  0  0  0  0  0  0  0
   44.5810   34.3630   42.9070 C   0  0  0  0  0  0  0  0  0  0  0  0
   45.1000   33.3150   43.6780 C   0  0  0  0  0  0  0  0  0  0  0  0
   45.3510   33.4950   45.0040 N   0  0  0  0  0  0  0  0  0  0  0  0
   45.0950   34.7010   45.5860 C   0  0  0  0  0  0  0  0  0  0  0  0
   44.5950   35.7230   44.8650 N   0  0  0  0  0  0  0  0  0  0  0  0
   43.9410   36.4950   43.1340 H   0  0  0  0  0  0  0  0  0  0  0  0
   45.2890   32.3800   43.2190 H   0  0  0  0  0  0  0  0  0  0  0  0
   45.3190   34.7800   46.6500 H   0  0  0  0  0  0  0  0  0  0  0  0
   46.2490   33.0640   40.7360 C   0  0  0  0  0  0  0  0  0  0  0  0
   47.1010   32.0260   41.0420 C   0  0  0  0  0  3  0  0  0  0  0  0
   48.4500   32.2250   40.8920 C   0  0  0  0  0  0  0  0  0  0  0  0
   49.0460   31.3570   41.1570 H   0  0  0  0  0  0  0  0  0  0  0  0
   48.9200   33.4070   40.4550 N   0  0  0  0  0  0  0  0  0  0  0  0
   48.0900   34.3990   40.1630 C   0  0  0  0  0  3  0  0  0  0  0  0
   46.7500   34.2540   40.2950 N   0  0  0  0  0  0  0  0  0  0  0  0
  1 16  1  0  0  0  0
  2  7  1  1  0  0  0
  2  1  1  0  0  0  0
  3  2  1  0  0  0  0
  4  3  1  0  0  0  0
  4  5  1  0  0  0  0
  5 11  1  0  0  0  0
  5  6  1  0  0  0  0
  6 13  1  0  0  0  0
  6  1  1  0  0  0  0
  8  3  1  0  0  0  0
  9  3  1  0  0  0  0
 10  4  1  0  0  0  0
 12  5  1  0  0  0  0
 14  6  1  0  0  0  0
 15 20  1  0  0  0  0
 16 15  2  0  0  0  0
 16 17  1  0  0  0  0
 17 18  2  0  0  0  0
 18 19  1  0  0  0  0
 19 23  1  0  0  0  0
 20 19  2  0  0  0  0
 21 15  1  0  0  0  0
 22 17  1  0  0  0  0
 24  2  1  0  0  0  0
 24 25  1  0  0  0  0
 26 25  2  0  0  0  0
 26 27  1  0  0  0  0
 28 26  1  0  0  0  0
 29 30  1  0  0  0  0
 29 28  2  0  0  0  0
 30 24  2  0  0  0  0
M  END
>  <minimizedAffinity>
-4.17479467

>  <minimizedRMSD>
0.933245242

$$$$
