
 OpenBabel03252507083D

 22 23  0  0  0  0  0  0  0  0999 V2000
   44.5540   35.9780   44.5020 C   0  0  0  0  0  0  0  0  0  0  0  0
   45.1840   35.9380   43.2460 C   0  0  0  0  0  0  0  0  0  0  0  0
   46.0990   34.9020   43.0200 C   0  0  0  0  0  0  0  0  0  0  0  0
   46.3330   33.9990   44.0050 N   0  0  0  0  0  0  0  0  0  0  0  0
   45.7110   34.0650   45.2060 C   0  0  0  0  0  0  0  0  0  0  0  0
   44.8320   35.0450   45.4470 N   0  0  0  0  0  0  0  0  0  0  0  0
   43.8500   36.8100   44.6150 H   0  0  0  0  0  0  0  0  0  0  0  0
   44.9870   36.6630   42.4700 H   0  0  0  0  0  0  0  0  0  0  0  0
   46.0050   33.0650   46.2280 C   0  0  0  0  0  0  0  0  0  0  0  0
   45.2790   33.0490   47.3950 C   0  0  0  0  0  3  0  0  0  0  0  0
   45.6160   32.0780   48.3040 C   0  0  0  0  0  0  0  0  0  0  0  0
   45.1210   31.9550   49.2660 H   0  0  0  0  0  0  0  0  0  0  0  0
   46.5820   31.1770   48.1180 N   0  0  0  0  0  0  0  0  0  0  0  0
   47.2860   31.2170   46.9480 C   0  0  0  0  0  3  0  0  0  0  0  0
   46.9770   32.1600   46.0370 N   0  0  0  0  0  0  0  0  0  0  0  0
   46.7120   34.8780   41.7720 O   0  0  0  0  0  0  0  0  0  0  0  0
   48.6720   33.2450   41.0770 O   0  0  0  0  0  0  0  0  0  0  0  0
   48.4030   34.6090   41.6850 P   0  0  0  0  0  0  0  0  0  0  0  0
   49.0820   35.8430   40.7810 O   0  0  0  0  0  0  0  0  0  0  0  0
   50.0200   35.5890   40.5560 H   0  0  0  0  0  0  0  0  0  0  0  0
   48.9940   34.5970   43.2850 O   0  0  0  0  0  0  0  0  0  0  0  0
   48.7700   35.5070   43.6480 H   0  0  0  0  0  0  0  0  0  0  0  0
  1  7  1  0  0  0  0
  1  6  1  0  0  0  0
  2  1  2  0  0  0  0
  3  2  1  0  0  0  0
  3  4  2  0  0  0  0
  4  5  1  0  0  0  0
  5  6  2  0  0  0  0
  5  9  1  0  0  0  0
  8  2  1  0  0  0  0
  9 10  1  0  0  0  0
 10 11  2  0  0  0  0
 11 12  1  0  0  0  0
 13 11  1  0  0  0  0
 14 13  2  0  0  0  0
 15  9  2  0  0  0  0
 15 14  1  0  0  0  0
 16  3  1  0  0  0  0
 17 18  2  0  0  0  0
 18 16  1  0  0  0  0
 18 21  1  0  0  0  0
 19 18  1  0  0  0  0
 20 19  1  0  0  0  0
 21 22  1  0  0  0  0
M  END
>  <minimizedAffinity>
-5.63014126

>  <minimizedRMSD>
0.421208173

$$$$
