
 OpenBabel03252506183D

 21 22  0  0  0  0  0  0  0  0999 V2000
   44.8070   35.7000   43.7740 C   0  0  0  0  0  0  0  0  0  0  0  0
   44.0640   35.4290   42.6090 C   0  0  0  0  0  0  0  0  0  0  0  0
   44.0350   34.1030   42.1400 C   0  0  0  0  0  0  0  0  0  0  0  0
   44.7230   33.1640   42.8370 N   0  0  0  0  0  0  0  0  0  0  0  0
   45.4370   33.4610   43.9640 C   0  0  0  0  0  0  0  0  0  0  0  0
   45.4620   34.7360   44.4110 N   0  0  0  0  0  0  0  0  0  0  0  0
   43.5310   36.2180   42.0890 H   0  0  0  0  0  0  0  0  0  0  0  0
   43.4790   33.8500   41.2540 H   0  0  0  0  0  0  0  0  0  0  0  0
   46.1690   32.4340   44.6960 C   0  0  0  0  0  0  0  0  0  0  0  0
   47.0360   31.6090   43.9940 C   0  0  0  0  0  3  0  0  0  0  0  0
   47.7360   30.6290   44.6880 C   0  0  0  0  0  0  0  0  0  0  0  0
   48.4160   29.9780   44.1510 H   0  0  0  0  0  0  0  0  0  0  0  0
   47.5170   30.5530   46.0080 N   0  0  0  0  0  0  0  0  0  0  0  0
   46.6950   31.3270   46.7070 C   0  0  0  0  0  3  0  0  0  0  0  0
   46.0030   32.2920   46.0370 N   0  0  0  0  0  0  0  0  0  0  0  0
   44.8340   37.0720   44.2560 C   0  0  0  0  0  3  0  0  0  0  0  0
   45.3730   38.0140   43.5100 C   0  0  0  0  0  3  0  0  0  0  0  0
   45.4380   39.4310   43.9300 C   0  0  0  0  0  0  0  0  0  0  0  0
   45.3600   39.5410   45.0190 H   0  0  0  0  0  0  0  0  0  0  0  0
   44.5860   39.9620   43.4890 H   0  0  0  0  0  0  0  0  0  0  0  0
   46.4190   39.8820   43.6400 H   0  0  0  0  0  0  0  0  0  0  0  0
  1 16  1  0  0  0  0
  1  6  1  0  0  0  0
  2  1  2  0  0  0  0
  3  2  1  0  0  0  0
  3  4  2  0  0  0  0
  4  5  1  0  0  0  0
  5  6  2  0  0  0  0
  5  9  1  0  0  0  0
  7  2  1  0  0  0  0
  8  3  1  0  0  0  0
  9 15  1  0  0  0  0
 10 11  1  0  0  0  0
 10  9  2  0  0  0  0
 11 13  2  0  0  0  0
 12 11  1  0  0  0  0
 13 14  1  0  0  0  0
 15 14  2  0  0  0  0
 17 18  1  0  0  0  0
 17 16  2  0  0  0  0
 18 19  1  0  0  0  0
 20 18  1  0  0  0  0
 21 18  1  0  0  0  0
M  END
>  <minimizedAffinity>
-3.32044482

>  <minimizedRMSD>
0.683366656

$$$$
