
 OpenBabel03242514133D

 32 34  0  0  0  0  0  0  0  0999 V2000
   46.3360   31.6660   46.1930 C   0  0  0  0  0  0  0  0  0  0  0  0
   47.0600   32.2370   47.3630 C   0  0  0  0  0  0  0  0  0  0  0  0
   47.1970   31.2910   48.4310 C   0  0  0  0  0  0  0  0  0  0  0  0
   45.9780   30.4590   48.8120 C   0  0  0  0  0  0  0  0  0  0  0  0
   44.9570   30.3430   47.6990 C   0  0  0  0  0  0  0  0  0  0  0  0
   45.6790   30.3730   46.3520 C   0  0  0  0  0  0  0  0  0  0  0  0
   45.4480   32.3620   45.9910 H   0  0  0  0  0  0  0  0  0  0  0  0
   48.0640   32.5490   47.0110 H   0  0  0  0  0  0  0  0  0  0  0  0
   46.6000   33.2230   47.6950 H   0  0  0  0  0  0  0  0  0  0  0  0
   48.0530   30.6800   48.6340 H   0  0  0  0  0  0  0  0  0  0  0  0
   47.2590   31.9750   49.3770 H   0  0  0  0  0  0  0  0  0  0  0  0
   45.4100   30.8640   49.6730 H   0  0  0  0  0  0  0  0  0  0  0  0
   46.2690   29.4300   49.1260 H   0  0  0  0  0  0  0  0  0  0  0  0
   44.1860   31.1150   47.7420 H   0  0  0  0  0  0  0  0  0  0  0  0
   44.4590   29.3530   47.7630 H   0  0  0  0  0  0  0  0  0  0  0  0
   44.8460   30.2880   45.5830 H   0  0  0  0  0  0  0  0  0  0  0  0
   46.1960   29.4450   46.3160 H   0  0  0  0  0  0  0  0  0  0  0  0
   47.1000   31.7490   44.9600 C   0  0  0  0  0  0  0  0  0  0  0  0
   46.8000   32.8770   44.2200 C   0  0  0  0  0  0  0  0  0  0  0  0
   47.4280   32.9430   42.9720 C   0  0  0  0  0  0  0  0  0  0  0  0
   48.2600   31.9360   42.5920 N   0  0  0  0  0  0  0  0  0  0  0  0
   48.5280   30.8610   43.3500 C   0  0  0  0  0  0  0  0  0  0  0  0
   47.9420   30.7710   44.5410 N   0  0  0  0  0  0  0  0  0  0  0  0
   47.4250   33.6450   42.1610 H   0  0  0  0  0  0  0  0  0  0  0  0
   49.1700   30.0420   43.1180 H   0  0  0  0  0  0  0  0  0  0  0  0
   46.0320   34.1000   44.2420 C   0  0  0  0  0  0  0  0  0  0  0  0
   45.9330   35.0090   43.1940 C   0  0  0  0  0  0  0  0  0  0  0  0
   45.1480   36.1380   43.1470 C   0  0  0  0  0  0  0  0  0  0  0  0
   45.1020   36.8070   42.3290 H   0  0  0  0  0  0  0  0  0  0  0  0
   44.4300   36.3130   44.2670 N   0  0  0  0  0  0  0  0  0  0  0  0
   44.4650   35.4890   45.3180 C   0  0  0  0  0  0  0  0  0  0  0  0
   45.2480   34.4040   45.3080 N   0  0  0  0  0  0  0  0  0  0  0  0
  1  6  1  0  0  0  0
  1  2  1  0  0  0  0
  2  9  1  0  0  0  0
  2  3  1  0  0  0  0
  3 10  1  0  0  0  0
  3  4  1  0  0  0  0
  3 11  1  0  0  0  0
  4 13  1  0  0  0  0
  4 12  1  0  0  0  0
  5 14  1  0  0  0  0
  5 15  1  0  0  0  0
  5  4  1  0  0  0  0
  6  5  1  0  0  0  0
  7  1  1  0  0  0  0
  8  2  1  0  0  0  0
 16  6  1  0  0  0  0
 17  6  1  0  0  0  0
 18  1  1  0  0  0  0
 19 26  1  0  0  0  0
 19 18  2  0  0  0  0
 20 19  1  0  0  0  0
 21 20  2  0  0  0  0
 21 22  1  0  0  0  0
 22 23  2  0  0  0  0
 23 18  1  0  0  0  0
 24 20  1  0  0  0  0
 25 22  1  0  0  0  0
 26 32  1  0  0  0  0
 27 26  2  0  0  0  0
 28 27  1  0  0  0  0
 28 30  2  0  0  0  0
 29 28  1  0  0  0  0
 30 31  1  0  0  0  0
 32 31  2  0  0  0  0
M  END
>  <minimizedAffinity>
-5.00292683

>  <minimizedRMSD>
5.27674103

$$$$
