
 OpenBabel03242510103D

 26 28  0  0  0  0  0  0  0  0999 V2000
   38.2140   28.3420   39.2010 Br  0  0  0  0  0  0  0  0  0  0  0  0
   37.6970   28.0550   41.0330 C   0  0  0  0  0  0  0  0  0  0  0  0
   37.3990   26.7840   41.4540 C   0  0  0  0  0  0  0  0  0  0  0  0
   37.0200   26.5570   42.7850 C   0  0  0  0  0  0  0  0  0  0  0  0
   36.9580   27.6220   43.6380 C   0  0  0  0  0  0  0  0  0  0  0  0
   37.2660   28.8680   43.1660 C   0  0  0  0  0  0  0  0  0  0  0  0
   37.6340   29.1220   41.8930 C   0  0  0  0  0  0  0  0  0  0  0  0
   36.7930   25.5200   43.0650 H   0  0  0  0  0  0  0  0  0  0  0  0
   36.6660   27.4570   44.6680 H   0  0  0  0  0  0  0  0  0  0  0  0
   37.2030   29.6800   43.8730 H   0  0  0  0  0  0  0  0  0  0  0  0
   38.7360   23.9790   39.5420 C   0  0  0  0  0  0  0  0  0  0  0  0
   37.6560   23.5800   38.7280 C   0  0  0  0  0  0  0  0  0  0  0  0
   36.4600   24.3040   38.8580 C   0  0  0  0  0  0  0  0  0  0  0  0
   36.4200   25.3270   39.7460 N   0  0  0  0  0  0  0  0  0  0  0  0
   37.4780   25.6830   40.5150 C   0  0  0  0  0  0  0  0  0  0  0  0
   38.6430   24.9940   40.4020 N   0  0  0  0  0  0  0  0  0  0  0  0
   39.6590   23.4450   39.4650 H   0  0  0  0  0  0  0  0  0  0  0  0
   37.7800   22.7520   38.0480 H   0  0  0  0  0  0  0  0  0  0  0  0
   35.6200   24.0200   38.2470 H   0  0  0  0  0  0  0  0  0  0  0  0
   37.9670   30.4420   41.3660 C   0  0  0  0  0  0  0  0  0  0  0  0
   37.0550   31.2500   40.7190 C   0  0  0  0  0  3  0  0  0  0  0  0
   37.4040   32.4870   40.2360 C   0  0  0  0  0  0  0  0  0  0  0  0
   36.7000   33.1240   39.7300 H   0  0  0  0  0  0  0  0  0  0  0  0
   38.6330   32.9640   40.3670 N   0  0  0  0  0  0  0  0  0  0  0  0
   39.5410   32.1850   40.9990 C   0  0  0  0  0  3  0  0  0  0  0  0
   39.2050   30.9700   41.4760 N   0  0  0  0  0  0  0  0  0  0  0  0
  1  2  1  0  0  0  0
  2  3  2  0  0  0  0
  2  7  1  0  0  0  0
  3  4  1  0  0  0  0
  4  8  1  0  0  0  0
  4  5  2  0  0  0  0
  5  9  1  0  0  0  0
  6  5  1  0  0  0  0
  6 10  1  0  0  0  0
  7  6  2  0  0  0  0
 11 16  1  0  0  0  0
 12 13  1  0  0  0  0
 12 11  2  0  0  0  0
 13 14  2  0  0  0  0
 14 15  1  0  0  0  0
 15  3  1  0  0  0  0
 16 15  2  0  0  0  0
 17 11  1  0  0  0  0
 18 12  1  0  0  0  0
 19 13  1  0  0  0  0
 20 26  1  0  0  0  0
 20  7  1  0  0  0  0
 21 20  2  0  0  0  0
 22 24  2  0  0  0  0
 22 21  1  0  0  0  0
 23 22  1  0  0  0  0
 24 25  1  0  0  0  0
 25 26  2  0  0  0  0
M  END
>  <minimizedAffinity>
-4.83254433

$$$$

 OpenBabel03242510103D

 26 28  0  0  0  0  0  0  0  0999 V2000
   38.3330   28.2780   39.2320 Br  0  0  0  0  0  0  0  0  0  0  0  0
   37.7710   27.9760   41.0480 C   0  0  0  0  0  0  0  0  0  0  0  0
   37.7090   29.0380   41.9150 C   0  0  0  0  0  0  0  0  0  0  0  0
   37.3020   28.8350   43.2420 C   0  0  0  0  0  0  0  0  0  0  0  0
   36.9730   27.5710   43.6400 C   0  0  0  0  0  0  0  0  0  0  0  0
   37.0530   26.5490   42.7330 C   0  0  0  0  0  0  0  0  0  0  0  0
   37.4400   26.7080   41.4520 C   0  0  0  0  0  0  0  0  0  0  0  0
   37.2720   29.7200   43.8900 H   0  0  0  0  0  0  0  0  0  0  0  0
   36.6580   27.4040   44.6630 H   0  0  0  0  0  0  0  0  0  0  0  0
   36.7850   25.5670   43.0900 H   0  0  0  0  0  0  0  0  0  0  0  0
   37.4340   32.3450   40.4010 C   0  0  0  0  0  0  0  0  0  0  0  0
   38.7240   32.8930   40.5520 C   0  0  0  0  0  0  0  0  0  0  0  0
   39.6860   32.0920   41.1870 C   0  0  0  0  0  0  0  0  0  0  0  0
   39.3180   30.8590   41.6110 N   0  0  0  0  0  0  0  0  0  0  0  0
   38.0660   30.3620   41.4500 C   0  0  0  0  0  0  0  0  0  0  0  0
   37.1240   31.1230   40.8370 N   0  0  0  0  0  0  0  0  0  0  0  0
   36.6810   32.9340   39.9200 H   0  0  0  0  0  0  0  0  0  0  0  0
   38.9260   33.8860   40.1830 H   0  0  0  0  0  0  0  0  0  0  0  0
   40.6790   32.4870   41.3140 H   0  0  0  0  0  0  0  0  0  0  0  0
   37.5330   25.6340   40.4660 C   0  0  0  0  0  0  0  0  0  0  0  0
   36.4780   25.2500   39.6640 C   0  0  0  0  0  3  0  0  0  0  0  0
   36.6030   24.2360   38.7480 C   0  0  0  0  0  0  0  0  0  0  0  0
   35.7860   23.9290   38.1180 H   0  0  0  0  0  0  0  0  0  0  0  0
   37.7410   23.5770   38.5880 N   0  0  0  0  0  0  0  0  0  0  0  0
   38.7870   23.9400   39.3660 C   0  0  0  0  0  3  0  0  0  0  0  0
   38.6710   24.9350   40.2680 N   0  0  0  0  0  0  0  0  0  0  0  0
  1  2  1  0  0  0  0
  2  7  2  0  0  0  0
  2  3  1  0  0  0  0
  3  4  2  0  0  0  0
  4  5  1  0  0  0  0
  4  8  1  0  0  0  0
  5  9  1  0  0  0  0
  6 10  1  0  0  0  0
  6  5  2  0  0  0  0
  7  6  1  0  0  0  0
 11 12  2  0  0  0  0
 11 16  1  0  0  0  0
 12 13  1  0  0  0  0
 13 19  1  0  0  0  0
 13 14  2  0  0  0  0
 15 14  1  0  0  0  0
 15  3  1  0  0  0  0
 16 15  2  0  0  0  0
 17 11  1  0  0  0  0
 18 12  1  0  0  0  0
 20  7  1  0  0  0  0
 21 20  2  0  0  0  0
 22 21  1  0  0  0  0
 23 22  1  0  0  0  0
 24 22  2  0  0  0  0
 24 25  1  0  0  0  0
 25 26  2  0  0  0  0
 26 20  1  0  0  0  0
M  END
>  <minimizedAffinity>
-4.82619619

$$$$

 OpenBabel03242510103D

 26 28  0  0  0  0  0  0  0  0999 V2000
   40.6970   30.1420   41.3950 Br  0  0  0  0  0  0  0  0  0  0  0  0
   39.2170   31.1610   40.7020 C   0  0  0  0  0  0  0  0  0  0  0  0
   37.9400   30.6930   40.8820 C   0  0  0  0  0  0  0  0  0  0  0  0
   36.8510   31.4230   40.3830 C   0  0  0  0  0  0  0  0  0  0  0  0
   37.0940   32.5950   39.7250 C   0  0  0  0  0  0  0  0  0  0  0  0
   38.3880   33.0140   39.5760 C   0  0  0  0  0  0  0  0  0  0  0  0
   39.4570   32.3380   40.0410 C   0  0  0  0  0  0  0  0  0  0  0  0
   35.8530   31.0010   40.5560 H   0  0  0  0  0  0  0  0  0  0  0  0
   36.2600   33.1650   39.3360 H   0  0  0  0  0  0  0  0  0  0  0  0
   38.5340   33.9440   39.0490 H   0  0  0  0  0  0  0  0  0  0  0  0
   37.3860   27.1410   41.5030 C   0  0  0  0  0  0  0  0  0  0  0  0
   37.3220   27.0510   42.9090 C   0  0  0  0  0  0  0  0  0  0  0  0
   37.4740   28.2450   43.6310 C   0  0  0  0  0  0  0  0  0  0  0  0
   37.6720   29.3950   42.9400 N   0  0  0  0  0  0  0  0  0  0  0  0
   37.7280   29.4460   41.5870 C   0  0  0  0  0  0  0  0  0  0  0  0
   37.5830   28.3000   40.8720 N   0  0  0  0  0  0  0  0  0  0  0  0
   37.2730   26.2470   40.9280 H   0  0  0  0  0  0  0  0  0  0  0  0
   37.1610   26.0910   43.3740 H   0  0  0  0  0  0  0  0  0  0  0  0
   37.4290   28.2040   44.7060 H   0  0  0  0  0  0  0  0  0  0  0  0
   40.8470   32.7650   39.8930 C   0  0  0  0  0  0  0  0  0  0  0  0
   41.6320   32.4210   38.8130 C   0  0  0  0  0  3  0  0  0  0  0  0
   42.9350   32.8410   38.7080 C   0  0  0  0  0  0  0  0  0  0  0  0
   43.5560   32.5780   37.8690 H   0  0  0  0  0  0  0  0  0  0  0  0
   43.5000   33.5970   39.6370 N   0  0  0  0  0  0  0  0  0  0  0  0
   42.7450   33.9430   40.7050 C   0  0  0  0  0  3  0  0  0  0  0  0
   41.4650   33.5350   40.8140 N   0  0  0  0  0  0  0  0  0  0  0  0
  2  3  1  0  0  0  0
  2  1  1  0  0  0  0
  3 15  1  0  0  0  0
  4  8  1  0  0  0  0
  4  3  2  0  0  0  0
  5  4  1  0  0  0  0
  6  5  2  0  0  0  0
  6  7  1  0  0  0  0
  7  2  2  0  0  0  0
  9  5  1  0  0  0  0
 10  6  1  0  0  0  0
 11 12  1  0  0  0  0
 12 18  1  0  0  0  0
 12 13  2  0  0  0  0
 13 19  1  0  0  0  0
 14 13  1  0  0  0  0
 15 14  2  0  0  0  0
 16 11  2  0  0  0  0
 16 15  1  0  0  0  0
 17 11  1  0  0  0  0
 20  7  1  0  0  0  0
 20 26  1  0  0  0  0
 21 20  2  0  0  0  0
 22 21  1  0  0  0  0
 22 24  2  0  0  0  0
 23 22  1  0  0  0  0
 24 25  1  0  0  0  0
 25 26  2  0  0  0  0
M  END
>  <minimizedAffinity>
-4.74785852

$$$$

 OpenBabel03242510103D

 26 28  0  0  0  0  0  0  0  0999 V2000
   37.9010   27.1790   38.9650 Br  0  0  0  0  0  0  0  0  0  0  0  0
   37.5350   27.4680   40.8330 C   0  0  0  0  0  0  0  0  0  0  0  0
   37.5290   28.7500   41.3240 C   0  0  0  0  0  0  0  0  0  0  0  0
   37.2640   28.9780   42.6820 C   0  0  0  0  0  0  0  0  0  0  0  0
   37.0160   27.9060   43.4900 C   0  0  0  0  0  0  0  0  0  0  0  0
   37.0340   26.6500   42.9480 C   0  0  0  0  0  0  0  0  0  0  0  0
   37.2850   26.3940   41.6480 C   0  0  0  0  0  0  0  0  0  0  0  0
   37.2730   30.0230   43.0180 H   0  0  0  0  0  0  0  0  0  0  0  0
   36.8110   28.0720   44.5400 H   0  0  0  0  0  0  0  0  0  0  0  0
   36.8340   25.8320   43.6220 H   0  0  0  0  0  0  0  0  0  0  0  0
   39.3470   31.2810   39.4280 C   0  0  0  0  0  0  0  0  0  0  0  0
   38.3350   31.9720   38.7310 C   0  0  0  0  0  0  0  0  0  0  0  0
   37.0140   31.5410   38.9340 C   0  0  0  0  0  0  0  0  0  0  0  0
   36.7990   30.5010   39.7750 N   0  0  0  0  0  0  0  0  0  0  0  0
   37.7970   29.8580   40.4300 C   0  0  0  0  0  0  0  0  0  0  0  0
   39.0800   30.2620   40.2460 N   0  0  0  0  0  0  0  0  0  0  0  0
   40.3620   31.5890   39.2920 H   0  0  0  0  0  0  0  0  0  0  0  0
   38.6000   32.7900   38.0800 H   0  0  0  0  0  0  0  0  0  0  0  0
   36.2220   32.0520   38.4130 H   0  0  0  0  0  0  0  0  0  0  0  0
   37.3110   25.0630   41.0460 C   0  0  0  0  0  0  0  0  0  0  0  0
   38.3850   24.2040   41.1560 C   0  0  0  0  0  3  0  0  0  0  0  0
   38.3730   22.9600   40.5770 C   0  0  0  0  0  0  0  0  0  0  0  0
   39.2060   22.2830   40.6560 H   0  0  0  0  0  0  0  0  0  0  0  0
   37.3310   22.5230   39.8860 N   0  0  0  0  0  0  0  0  0  0  0  0
   36.2680   23.3520   39.7680 C   0  0  0  0  0  3  0  0  0  0  0  0
   36.2730   24.5750   40.3340 N   0  0  0  0  0  0  0  0  0  0  0  0
  1  2  1  0  0  0  0
  2  3  2  0  0  0  0
  2  7  1  0  0  0  0
  3  4  1  0  0  0  0
  4  8  1  0  0  0  0
  4  5  2  0  0  0  0
  5  9  1  0  0  0  0
  6  5  1  0  0  0  0
  6 10  1  0  0  0  0
  7  6  2  0  0  0  0
 11 16  1  0  0  0  0
 12 13  1  0  0  0  0
 12 11  2  0  0  0  0
 13 14  2  0  0  0  0
 14 15  1  0  0  0  0
 15  3  1  0  0  0  0
 16 15  2  0  0  0  0
 17 11  1  0  0  0  0
 18 12  1  0  0  0  0
 19 13  1  0  0  0  0
 20 21  1  0  0  0  0
 20  7  1  0  0  0  0
 22 23  1  0  0  0  0
 22 21  2  0  0  0  0
 24 22  1  0  0  0  0
 25 24  2  0  0  0  0
 25 26  1  0  0  0  0
 26 20  2  0  0  0  0
M  END
>  <minimizedAffinity>
-4.72669649

$$$$

 OpenBabel03242510103D

 26 28  0  0  0  0  0  0  0  0999 V2000
   40.6270   29.3750   40.4310 Br  0  0  0  0  0  0  0  0  0  0  0  0
   38.8020   29.9650   40.6010 C   0  0  0  0  0  0  0  0  0  0  0  0
   37.9070   29.1830   41.2860 C   0  0  0  0  0  0  0  0  0  0  0  0
   36.5740   29.5990   41.4200 C   0  0  0  0  0  0  0  0  0  0  0  0
   36.1980   30.7850   40.8570 C   0  0  0  0  0  0  0  0  0  0  0  0
   37.1330   31.5250   40.1850 C   0  0  0  0  0  0  0  0  0  0  0  0
   38.4210   31.1560   40.0370 C   0  0  0  0  0  0  0  0  0  0  0  0
   35.9030   28.9330   41.9780 H   0  0  0  0  0  0  0  0  0  0  0  0
   35.1710   31.1140   40.9540 H   0  0  0  0  0  0  0  0  0  0  0  0
   36.7930   32.4540   39.7560 H   0  0  0  0  0  0  0  0  0  0  0  0
   38.6010   25.6230   41.6750 C   0  0  0  0  0  0  0  0  0  0  0  0
   39.1840   25.5310   42.9550 C   0  0  0  0  0  0  0  0  0  0  0  0
   39.3290   26.7270   43.6760 C   0  0  0  0  0  0  0  0  0  0  0  0
   38.9050   27.8800   43.1030 N   0  0  0  0  0  0  0  0  0  0  0  0
   38.3490   27.9320   41.8670 C   0  0  0  0  0  0  0  0  0  0  0  0
   38.2010   26.7850   41.1560 N   0  0  0  0  0  0  0  0  0  0  0  0
   38.4790   24.7280   41.1030 H   0  0  0  0  0  0  0  0  0  0  0  0
   39.4920   24.5690   43.3320 H   0  0  0  0  0  0  0  0  0  0  0  0
   39.7700   26.6840   44.6580 H   0  0  0  0  0  0  0  0  0  0  0  0
   39.4370   31.9280   39.3250 C   0  0  0  0  0  0  0  0  0  0  0  0
   40.0950   33.0060   39.8790 C   0  0  0  0  0  3  0  0  0  0  0  0
   41.0440   33.7070   39.1790 C   0  0  0  0  0  0  0  0  0  0  0  0
   41.5630   34.5500   39.6030 H   0  0  0  0  0  0  0  0  0  0  0  0
   41.3750   33.3830   37.9380 N   0  0  0  0  0  0  0  0  0  0  0  0
   40.7390   32.3280   37.3780 C   0  0  0  0  0  3  0  0  0  0  0  0
   39.8060   31.6350   38.0600 N   0  0  0  0  0  0  0  0  0  0  0  0
  1  2  1  0  0  0  0
  2  3  1  0  0  0  0
  3  4  2  0  0  0  0
  3 15  1  0  0  0  0
  4  8  1  0  0  0  0
  5  9  1  0  0  0  0
  5  4  1  0  0  0  0
  6  5  2  0  0  0  0
  7  6  1  0  0  0  0
  7  2  2  0  0  0  0
 10  6  1  0  0  0  0
 11 12  1  0  0  0  0
 12 18  1  0  0  0  0
 12 13  2  0  0  0  0
 13 19  1  0  0  0  0
 14 13  1  0  0  0  0
 15 14  2  0  0  0  0
 16 11  2  0  0  0  0
 16 15  1  0  0  0  0
 17 11  1  0  0  0  0
 20 21  1  0  0  0  0
 20  7  1  0  0  0  0
 22 23  1  0  0  0  0
 22 21  2  0  0  0  0
 24 22  1  0  0  0  0
 25 24  2  0  0  0  0
 25 26  1  0  0  0  0
 26 20  2  0  0  0  0
M  END
>  <minimizedAffinity>
-4.70483112

$$$$

 OpenBabel03242510103D

 26 28  0  0  0  0  0  0  0  0999 V2000
   40.6400   29.3240   40.4350 Br  0  0  0  0  0  0  0  0  0  0  0  0
   38.8510   30.0070   40.6340 C   0  0  0  0  0  0  0  0  0  0  0  0
   38.5260   31.2090   40.0590 C   0  0  0  0  0  0  0  0  0  0  0  0
   37.2270   31.7210   40.1940 C   0  0  0  0  0  0  0  0  0  0  0  0
   36.3090   31.0000   40.9030 C   0  0  0  0  0  0  0  0  0  0  0  0
   36.6880   29.8070   41.4550 C   0  0  0  0  0  0  0  0  0  0  0  0
   37.9260   29.2850   41.3460 C   0  0  0  0  0  0  0  0  0  0  0  0
   37.0240   32.6870   39.7130 H   0  0  0  0  0  0  0  0  0  0  0  0
   35.3040   31.3870   41.0140 H   0  0  0  0  0  0  0  0  0  0  0  0
   35.9320   29.2710   42.0080 H   0  0  0  0  0  0  0  0  0  0  0  0
   41.1290   33.6360   39.2570 C   0  0  0  0  0  0  0  0  0  0  0  0
   41.4530   33.3520   37.9150 C   0  0  0  0  0  0  0  0  0  0  0  0
   40.7500   32.3050   37.2980 C   0  0  0  0  0  0  0  0  0  0  0  0
   39.8170   31.6410   38.0240 N   0  0  0  0  0  0  0  0  0  0  0  0
   39.5310   31.9400   39.3150 C   0  0  0  0  0  0  0  0  0  0  0  0
   40.2000   32.9510   39.9260 N   0  0  0  0  0  0  0  0  0  0  0  0
   41.6480   34.4290   39.7520 H   0  0  0  0  0  0  0  0  0  0  0  0
   42.2110   33.9340   37.4160 H   0  0  0  0  0  0  0  0  0  0  0  0
   40.9790   32.0680   36.2730 H   0  0  0  0  0  0  0  0  0  0  0  0
   38.3550   28.0150   41.9260 C   0  0  0  0  0  0  0  0  0  0  0  0
   38.1560   26.7970   41.3100 C   0  0  0  0  0  3  0  0  0  0  0  0
   38.5730   25.6230   41.8850 C   0  0  0  0  0  0  0  0  0  0  0  0
   38.4230   24.6680   41.4120 H   0  0  0  0  0  0  0  0  0  0  0  0
   39.1860   25.6020   43.0600 N   0  0  0  0  0  0  0  0  0  0  0  0
   39.3890   26.7880   43.6790 C   0  0  0  0  0  3  0  0  0  0  0  0
   38.9820   27.9440   43.1190 N   0  0  0  0  0  0  0  0  0  0  0  0
  1  2  1  0  0  0  0
  2  7  1  0  0  0  0
  3  4  1  0  0  0  0
  3  2  2  0  0  0  0
  4  5  2  0  0  0  0
  5  9  1  0  0  0  0
  5  6  1  0  0  0  0
  6 10  1  0  0  0  0
  7  6  2  0  0  0  0
  7 20  1  0  0  0  0
  8  4  1  0  0  0  0
 11 17  1  0  0  0  0
 11 16  1  0  0  0  0
 12 11  2  0  0  0  0
 13 12  1  0  0  0  0
 13 14  2  0  0  0  0
 14 15  1  0  0  0  0
 15 16  2  0  0  0  0
 15  3  1  0  0  0  0
 18 12  1  0  0  0  0
 19 13  1  0  0  0  0
 20 26  1  0  0  0  0
 21 22  1  0  0  0  0
 21 20  2  0  0  0  0
 22 24  2  0  0  0  0
 23 22  1  0  0  0  0
 24 25  1  0  0  0  0
 26 25  2  0  0  0  0
M  END
>  <minimizedAffinity>
-4.68548632

$$$$

 OpenBabel03242510103D

 26 28  0  0  0  0  0  0  0  0999 V2000
   36.7830   27.4770   39.3510 Br  0  0  0  0  0  0  0  0  0  0  0  0
   37.0980   29.3640   39.5710 C   0  0  0  0  0  0  0  0  0  0  0  0
   37.7160   29.8110   40.7120 C   0  0  0  0  0  0  0  0  0  0  0  0
   37.9530   31.1820   40.8880 C   0  0  0  0  0  0  0  0  0  0  0  0
   37.5590   32.0460   39.9080 C   0  0  0  0  0  0  0  0  0  0  0  0
   36.9470   31.5460   38.7900 C   0  0  0  0  0  0  0  0  0  0  0  0
   36.7040   30.2350   38.5880 C   0  0  0  0  0  0  0  0  0  0  0  0
   38.4500   31.4810   41.8200 H   0  0  0  0  0  0  0  0  0  0  0  0
   37.7370   33.1070   40.0350 H   0  0  0  0  0  0  0  0  0  0  0  0
   36.6510   32.2630   38.0420 H   0  0  0  0  0  0  0  0  0  0  0  0
   37.6070   27.6820   43.6730 C   0  0  0  0  0  0  0  0  0  0  0  0
   38.8640   27.0440   43.6760 C   0  0  0  0  0  0  0  0  0  0  0  0
   39.7450   27.3690   42.6330 C   0  0  0  0  0  0  0  0  0  0  0  0
   39.3370   28.2630   41.6990 N   0  0  0  0  0  0  0  0  0  0  0  0
   38.1190   28.8580   41.7260 C   0  0  0  0  0  0  0  0  0  0  0  0
   37.2540   28.5560   42.7290 N   0  0  0  0  0  0  0  0  0  0  0  0
   36.9150   27.4530   44.4560 H   0  0  0  0  0  0  0  0  0  0  0  0
   39.1040   26.3450   44.4610 H   0  0  0  0  0  0  0  0  0  0  0  0
   40.7130   26.8960   42.6120 H   0  0  0  0  0  0  0  0  0  0  0  0
   36.0530   29.6770   37.4060 C   0  0  0  0  0  0  0  0  0  0  0  0
   36.6980   29.5030   36.1990 C   0  0  0  0  0  3  0  0  0  0  0  0
   36.0540   28.9740   35.1080 C   0  0  0  0  0  0  0  0  0  0  0  0
   36.5490   28.8350   34.1630 H   0  0  0  0  0  0  0  0  0  0  0  0
   34.7820   28.6060   35.1610 N   0  0  0  0  0  0  0  0  0  0  0  0
   34.1330   28.7700   36.3370 C   0  0  0  0  0  3  0  0  0  0  0  0
   34.7600   29.2880   37.4120 N   0  0  0  0  0  0  0  0  0  0  0  0
  1  2  1  0  0  0  0
  2  3  1  0  0  0  0
  3  4  2  0  0  0  0
  3 15  1  0  0  0  0
  4  8  1  0  0  0  0
  5  9  1  0  0  0  0
  5  4  1  0  0  0  0
  6  5  2  0  0  0  0
  7  6  1  0  0  0  0
  7  2  2  0  0  0  0
 10  6  1  0  0  0  0
 11 12  1  0  0  0  0
 11 17  1  0  0  0  0
 12 18  1  0  0  0  0
 13 12  2  0  0  0  0
 14 15  2  0  0  0  0
 14 13  1  0  0  0  0
 15 16  1  0  0  0  0
 16 11  2  0  0  0  0
 19 13  1  0  0  0  0
 20 26  1  0  0  0  0
 20  7  1  0  0  0  0
 21 20  2  0  0  0  0
 22 24  2  0  0  0  0
 22 21  1  0  0  0  0
 23 22  1  0  0  0  0
 24 25  1  0  0  0  0
 25 26  2  0  0  0  0
M  END
>  <minimizedAffinity>
-4.6734848

$$$$

 OpenBabel03242510103D

 26 28  0  0  0  0  0  0  0  0999 V2000
   40.9180   30.2390   40.5650 Br  0  0  0  0  0  0  0  0  0  0  0  0
   39.2760   31.2100   40.3080 C   0  0  0  0  0  0  0  0  0  0  0  0
   39.3050   32.4110   39.6460 C   0  0  0  0  0  0  0  0  0  0  0  0
   38.1170   33.1310   39.4500 C   0  0  0  0  0  0  0  0  0  0  0  0
   36.9490   32.6100   39.9290 C   0  0  0  0  0  0  0  0  0  0  0  0
   36.9780   31.4080   40.5820 C   0  0  0  0  0  0  0  0  0  0  0  0
   38.1000   30.6900   40.7880 C   0  0  0  0  0  0  0  0  0  0  0  0
   38.2000   34.0850   38.9150 H   0  0  0  0  0  0  0  0  0  0  0  0
   36.0270   33.1590   39.7840 H   0  0  0  0  0  0  0  0  0  0  0  0
   36.0340   31.0340   40.9440 H   0  0  0  0  0  0  0  0  0  0  0  0
   42.0920   33.1230   37.4040 C   0  0  0  0  0  0  0  0  0  0  0  0
   42.9700   33.8950   38.1920 C   0  0  0  0  0  0  0  0  0  0  0  0
   42.5740   34.1610   39.5120 C   0  0  0  0  0  0  0  0  0  0  0  0
   41.3870   33.6650   39.9400 N   0  0  0  0  0  0  0  0  0  0  0  0
   40.5660   32.9250   39.1540 C   0  0  0  0  0  0  0  0  0  0  0  0
   40.9340   32.6580   37.8750 N   0  0  0  0  0  0  0  0  0  0  0  0
   42.3690   32.9050   36.3940 H   0  0  0  0  0  0  0  0  0  0  0  0
   43.8960   34.2490   37.7660 H   0  0  0  0  0  0  0  0  0  0  0  0
   43.2260   34.7490   40.1350 H   0  0  0  0  0  0  0  0  0  0  0  0
   38.1570   29.4050   41.4810 C   0  0  0  0  0  0  0  0  0  0  0  0
   38.2270   29.2900   42.8540 C   0  0  0  0  0  3  0  0  0  0  0  0
   38.2790   28.0650   43.4720 C   0  0  0  0  0  0  0  0  0  0  0  0
   38.3340   27.9650   44.5420 H   0  0  0  0  0  0  0  0  0  0  0  0
   38.2640   26.9350   42.7800 N   0  0  0  0  0  0  0  0  0  0  0  0
   38.1960   27.0290   41.4320 C   0  0  0  0  0  3  0  0  0  0  0  0
   38.1440   28.2290   40.8190 N   0  0  0  0  0  0  0  0  0  0  0  0
  2  1  1  0  0  0  0
  2  7  1  0  0  0  0
  3  2  2  0  0  0  0
  4  3  1  0  0  0  0
  4  5  2  0  0  0  0
  5  6  1  0  0  0  0
  6  7  2  0  0  0  0
  6 10  1  0  0  0  0
  7 20  1  0  0  0  0
  8  4  1  0  0  0  0
  9  5  1  0  0  0  0
 11 16  2  0  0  0  0
 11 12  1  0  0  0  0
 12 13  2  0  0  0  0
 13 14  1  0  0  0  0
 13 19  1  0  0  0  0
 15  3  1  0  0  0  0
 15 14  2  0  0  0  0
 16 15  1  0  0  0  0
 17 11  1  0  0  0  0
 18 12  1  0  0  0  0
 20 21  1  0  0  0  0
 21 22  2  0  0  0  0
 22 23  1  0  0  0  0
 24 22  1  0  0  0  0
 25 24  2  0  0  0  0
 26 25  1  0  0  0  0
 26 20  2  0  0  0  0
M  END
>  <minimizedAffinity>
-4.66152573

$$$$

 OpenBabel03242510103D

 26 28  0  0  0  0  0  0  0  0999 V2000
   39.1280   29.6740   41.3360 Br  0  0  0  0  0  0  0  0  0  0  0  0
   37.7690   29.6570   39.9730 C   0  0  0  0  0  0  0  0  0  0  0  0
   37.0220   28.5220   39.7860 C   0  0  0  0  0  0  0  0  0  0  0  0
   36.0280   28.4930   38.7970 C   0  0  0  0  0  0  0  0  0  0  0  0
   35.8270   29.6100   38.0370 C   0  0  0  0  0  0  0  0  0  0  0  0
   36.6010   30.7140   38.2660 C   0  0  0  0  0  0  0  0  0  0  0  0
   37.5650   30.7770   39.2070 C   0  0  0  0  0  0  0  0  0  0  0  0
   35.4620   27.5580   38.6930 H   0  0  0  0  0  0  0  0  0  0  0  0
   35.0630   29.5970   37.2710 H   0  0  0  0  0  0  0  0  0  0  0  0
   36.4100   31.5740   37.6430 H   0  0  0  0  0  0  0  0  0  0  0  0
   38.2600   25.2660   40.8710 C   0  0  0  0  0  0  0  0  0  0  0  0
   37.7510   25.1310   42.1790 C   0  0  0  0  0  0  0  0  0  0  0  0
   36.9720   26.1900   42.6720 C   0  0  0  0  0  0  0  0  0  0  0  0
   36.7620   27.2630   41.8700 N   0  0  0  0  0  0  0  0  0  0  0  0
   37.2680   27.3600   40.6160 C   0  0  0  0  0  0  0  0  0  0  0  0
   38.0230   26.3450   40.1230 N   0  0  0  0  0  0  0  0  0  0  0  0
   38.8570   24.4750   40.4710 H   0  0  0  0  0  0  0  0  0  0  0  0
   37.9700   24.2400   42.7460 H   0  0  0  0  0  0  0  0  0  0  0  0
   36.5710   26.1120   43.6690 H   0  0  0  0  0  0  0  0  0  0  0  0
   38.4040   31.9440   39.4700 C   0  0  0  0  0  0  0  0  0  0  0  0
   38.0110   32.9910   40.2780 C   0  0  0  0  0  3  0  0  0  0  0  0
   38.8270   34.0720   40.5020 C   0  0  0  0  0  0  0  0  0  0  0  0
   38.5290   34.8940   41.1300 H   0  0  0  0  0  0  0  0  0  0  0  0
   40.0300   34.1610   39.9560 N   0  0  0  0  0  0  0  0  0  0  0  0
   40.4330   33.1430   39.1610 C   0  0  0  0  0  3  0  0  0  0  0  0
   39.6370   32.0790   38.9370 N   0  0  0  0  0  0  0  0  0  0  0  0
  2  1  1  0  0  0  0
  3  2  1  0  0  0  0
  3 15  1  0  0  0  0
  4  3  2  0  0  0  0
  5  6  2  0  0  0  0
  5  4  1  0  0  0  0
  6  7  1  0  0  0  0
  7 20  1  0  0  0  0
  7  2  2  0  0  0  0
  8  4  1  0  0  0  0
  9  5  1  0  0  0  0
 10  6  1  0  0  0  0
 11 12  1  0  0  0  0
 12 13  2  0  0  0  0
 12 18  1  0  0  0  0
 13 19  1  0  0  0  0
 14 13  1  0  0  0  0
 15 14  2  0  0  0  0
 16 15  1  0  0  0  0
 16 11  2  0  0  0  0
 17 11  1  0  0  0  0
 20 21  1  0  0  0  0
 21 22  2  0  0  0  0
 22 23  1  0  0  0  0
 24 22  1  0  0  0  0
 25 24  2  0  0  0  0
 26 25  1  0  0  0  0
 26 20  2  0  0  0  0
M  END
>  <minimizedAffinity>
-4.65738535

$$$$
