REMARK  Name = 
REMARK  3 active torsions:
REMARK  status: ('A' for Active; 'I' for Inactive)
REMARK    1  A    between atoms: C_1  and  C_7
REMARK    2  A    between atoms: C_5  and  C_17
REMARK    3  A    between atoms: C_8  and  C_9
REMARK                            x       y       z     vdW  Elec       q    Type
REMARK                         _______ _______ _______ _____ _____    ______ ____
ROOT
ATOM      1  C   UNL     1      44.692  35.519  43.601  0.00  0.00    +0.000 A 
ATOM      2  C   UNL     1      43.944  35.434  42.411  0.00  0.00    +0.000 A 
ATOM      3  C   UNL     1      43.779  34.165  41.826  0.00  0.00    +0.000 A 
ATOM      4  N   UNL     1      44.350  33.099  42.442  0.00  0.00    +0.000 NA
ATOM      5  C   UNL     1      45.072  33.217  43.597  0.00  0.00    +0.000 A 
ATOM      6  N   UNL     1      45.227  34.438  44.155  0.00  0.00    +0.000 NA
ATOM      7  H   UNL     1      43.508  36.319  41.960  0.00  0.00    +0.000 HD
ATOM      8  H   UNL     1      43.215  34.053  40.917  0.00  0.00    +0.000 HD
ENDROOT
BRANCH   5   9
ATOM      9  C   UNL     1      45.676  32.056  44.240  0.00  0.00    +0.000 A 
ATOM     10  C   UNL     1      46.118  32.177  45.550  0.00  0.00    +0.000 A 
ATOM     11  C   UNL     1      46.695  31.072  46.166  0.00  0.00    +0.000 A 
ATOM     12  H   UNL     1      47.043  31.154  47.188  0.00  0.00    +0.000 HD
ATOM     13  N   UNL     1      46.782  29.953  45.435  0.00  0.00    +0.000 NA
ATOM     14  C   UNL     1      46.370  29.807  44.181  0.00  0.00    +0.000 A 
ATOM     15  N   UNL     1      45.802  30.883  43.567  0.00  0.00    +0.000 NA
ENDBRANCH   5   9
BRANCH   1  16
ATOM     16  C   UNL     1      44.859  36.833  44.204  0.00  0.00    +0.000 C 
ATOM     17  C   UNL     1      45.234  37.849  43.456  0.00  0.00    +0.000 C 
BRANCH  17  18
ATOM     18  C   UNL     1      45.425  39.214  43.994  0.00  0.00    +0.000 C 
ATOM     19  H   UNL     1      45.600  39.208  45.077  0.00  0.00    +0.000 HD
ATOM     20  H   UNL     1      44.507  39.787  43.817  0.00  0.00    +0.000 HD
ATOM     21  H   UNL     1      46.324  39.695  43.535  0.00  0.00    +0.000 HD
ENDBRANCH  17  18
ENDBRANCH   1  16
TORSDOF 3
