
 OpenBabel03252508323D

 30 32  0  0  1  0  0  0  0  0999 V2000
   44.3330   34.4620   41.8980 N   0  0  0  0  0  0  0  0  0  0  0  0
   44.7380   33.5200   40.9210 C   0  0  1  0  0  0  0  0  0  0  0  0
   44.1790   33.7060   39.5630 C   0  0  0  0  0  0  0  0  0  0  0  0
   42.9090   34.2830   39.4420 N   0  0  0  0  0  0  0  0  0  0  0  0
   42.4500   35.1110   40.4740 C   0  0  0  0  0  0  0  0  0  0  0  0
   43.5810   35.5570   41.3710 C   0  0  0  0  0  0  0  0  0  0  0  0
   44.4630   32.4990   41.2890 H   0  0  0  0  0  0  0  0  0  0  0  0
   44.9010   34.3320   38.9550 H   0  0  0  0  0  0  0  0  0  0  0  0
   44.1930   32.7190   39.0270 H   0  0  0  0  0  0  0  0  0  0  0  0
   42.8190   34.7590   38.5150 H   0  0  0  0  0  0  0  0  0  0  0  0
   41.6750   34.5520   41.0570 H   0  0  0  0  0  0  0  0  0  0  0  0
   41.9470   36.0380   40.0950 H   0  0  0  0  0  0  0  0  0  0  0  0
   43.2420   36.3140   42.0810 H   0  0  0  0  0  0  0  0  0  0  0  0
   44.2680   36.1290   40.6690 H   0  0  0  0  0  0  0  0  0  0  0  0
   44.4870   35.3350   44.1110 C   0  0  0  0  0  0  0  0  0  0  0  0
   44.6970   34.2710   43.2390 C   0  0  0  0  0  0  0  0  0  0  0  0
   45.2770   33.1030   43.7540 C   0  0  0  0  0  0  0  0  0  0  0  0
   45.6180   33.0280   45.0700 N   0  0  0  0  0  0  0  0  0  0  0  0
   45.3950   34.0920   45.8920 C   0  0  0  0  0  0  0  0  0  0  0  0
   44.8390   35.2250   45.4200 N   0  0  0  0  0  0  0  0  0  0  0  0
   44.0610   36.3050   43.9200 H   0  0  0  0  0  0  0  0  0  0  0  0
   45.4390   32.2800   43.1100 H   0  0  0  0  0  0  0  0  0  0  0  0
   45.6920   33.9660   46.9330 H   0  0  0  0  0  0  0  0  0  0  0  0
   46.2400   33.4920   40.7490 C   0  0  0  0  0  0  0  0  0  0  0  0
   47.1730   34.5040   40.7920 C   0  0  0  0  0  3  0  0  0  0  0  0
   48.4930   34.1790   40.5970 C   0  0  0  0  0  0  0  0  0  0  0  0
   49.1590   35.0350   40.6460 H   0  0  0  0  0  0  0  0  0  0  0  0
   48.8560   32.9040   40.3710 N   0  0  0  0  0  0  0  0  0  0  0  0
   47.9460   31.9400   40.3330 C   0  0  0  0  0  3  0  0  0  0  0  0
   46.6320   32.2070   40.5190 N   0  0  0  0  0  0  0  0  0  0  0  0
  1 16  1  0  0  0  0
  2  7  1  1  0  0  0
  2  1  1  0  0  0  0
  3  2  1  0  0  0  0
  4  3  1  0  0  0  0
  4  5  1  0  0  0  0
  5 11  1  0  0  0  0
  5  6  1  0  0  0  0
  6  1  1  0  0  0  0
  6 13  1  0  0  0  0
  8  3  1  0  0  0  0
  9  3  1  0  0  0  0
 10  4  1  0  0  0  0
 12  5  1  0  0  0  0
 14  6  1  0  0  0  0
 15 20  1  0  0  0  0
 16 17  1  0  0  0  0
 16 15  2  0  0  0  0
 17 18  2  0  0  0  0
 18 19  1  0  0  0  0
 19 23  1  0  0  0  0
 20 19  2  0  0  0  0
 21 15  1  0  0  0  0
 22 17  1  0  0  0  0
 24 25  1  0  0  0  0
 24  2  1  0  0  0  0
 26 27  1  0  0  0  0
 26 25  2  0  0  0  0
 28 26  1  0  0  0  0
 29 28  2  0  0  0  0
 29 30  1  0  0  0  0
 30 24  2  0  0  0  0
M  END
>  <minimizedAffinity>
-4.31395531

>  <minimizedRMSD>
0.882333517

$$$$
