
 OpenBabel03242516523D

 43 46  0  0  1  0  0  0  0  0999 V2000
   47.8340   32.8940   41.8220 C   0  0  1  0  0  0  0  0  0  0  0  0
   47.5300   32.2740   40.5320 C   0  0  0  0  0  0  0  0  0  0  0  0
   48.5530   32.8180   39.5410 C   0  0  0  0  0  0  0  0  0  0  0  0
   48.2120   34.2680   39.3190 C   0  0  0  0  0  0  0  0  0  0  0  0
   48.1320   35.0730   40.5800 C   0  0  0  0  0  0  0  0  0  0  0  0
   47.6270   34.4120   41.7920 C   0  0  1  0  0  0  0  0  0  0  0  0
   48.9490   32.8110   42.0050 H   0  0  0  0  0  0  0  0  0  0  0  0
   46.5340   32.4710   40.1460 H   0  0  0  0  0  0  0  0  0  0  0  0
   47.6480   31.1630   40.6470 H   0  0  0  0  0  0  0  0  0  0  0  0
   49.5900   32.6960   39.8920 H   0  0  0  0  0  0  0  0  0  0  0  0
   48.3430   32.3100   38.5650 H   0  0  0  0  0  0  0  0  0  0  0  0
   47.2630   34.3240   38.7150 H   0  0  0  0  0  0  0  0  0  0  0  0
   49.0050   34.6750   38.6550 H   0  0  0  0  0  0  0  0  0  0  0  0
   49.1550   35.5200   40.7430 H   0  0  0  0  0  0  0  0  0  0  0  0
   47.4980   35.9660   40.3550 H   0  0  0  0  0  0  0  0  0  0  0  0
   48.2130   34.7930   42.6730 H   0  0  0  0  0  0  0  0  0  0  0  0
   45.3950   30.9210   43.9230 C   0  0  0  0  0  0  0  0  0  0  0  0
   46.0780   31.4890   42.8450 C   0  0  0  0  0  0  0  0  0  0  0  0
   47.1780   32.3380   42.9870 C   0  0  0  0  0  0  0  0  0  0  0  0
   47.5540   32.5890   44.2420 N   0  0  0  0  0  0  0  0  0  0  0  0
   46.8990   32.0430   45.2980 C   0  0  0  0  0  0  0  0  0  0  0  0
   45.8490   31.2310   45.1550 N   0  0  0  0  0  0  0  0  0  0  0  0
   44.5630   30.2790   43.7690 H   0  0  0  0  0  0  0  0  0  0  0  0
   45.7280   31.2510   41.8300 H   0  0  0  0  0  0  0  0  0  0  0  0
   47.2670   32.2960   46.2840 H   0  0  0  0  0  0  0  0  0  0  0  0
   46.2390   34.7710   42.0930 C   0  0  0  0  0  0  0  0  0  0  0  0
   45.7730   35.3130   43.2940 C   0  0  0  0  0  0  0  0  0  0  0  0
   44.4050   35.5930   43.3520 C   0  0  0  0  0  0  0  0  0  0  0  0
   43.6400   35.3150   42.2310 C   0  0  0  0  0  0  0  0  0  0  0  0
   44.1190   34.7770   41.0460 C   0  0  0  0  0  0  0  0  0  0  0  0
   45.4580   34.5140   41.0210 N   0  0  0  0  0  0  0  0  0  0  0  0
   46.4930   35.4660   44.0640 H   0  0  0  0  0  0  0  0  0  0  0  0
   44.0340   36.0040   44.2570 H   0  0  0  0  0  0  0  0  0  0  0  0
   42.5830   35.5510   42.3280 H   0  0  0  0  0  0  0  0  0  0  0  0
   43.2190   34.5300   39.9270 C   0  0  0  0  0  0  0  0  0  0  0  0
   42.2800   35.3680   39.7460 O   0  0  0  0  0  0  0  0  0  0  0  0
   43.2580   33.4270   38.9740 C   0  0  0  0  0  0  0  0  0  0  0  0
   44.4610   33.1420   38.3690 C   0  0  0  0  0  3  0  0  0  0  0  0
   44.5360   32.0940   37.4450 C   0  0  0  0  0  0  0  0  0  0  0  0
   45.4700   31.8480   36.9550 H   0  0  0  0  0  0  0  0  0  0  0  0
   43.4150   31.3730   37.1640 N   0  0  0  0  0  0  0  0  0  0  0  0
   42.2560   31.6470   37.7480 C   0  0  0  0  0  3  0  0  0  0  0  0
   42.2280   32.6450   38.6120 N   0  0  0  0  0  0  0  0  0  0  0  0
  1  7  1  1  0  0  0
  1 19  1  0  0  0  0
  2  9  1  0  0  0  0
  2  1  1  0  0  0  0
  3 10  1  0  0  0  0
  3  2  1  0  0  0  0
  4  3  1  0  0  0  0
  4  5  1  0  0  0  0
  5 14  1  0  0  0  0
  5  6  1  0  0  0  0
  6  1  1  0  0  0  0
  6 26  1  0  0  0  0
  6 16  1  1  0  0  0
  8  2  1  0  0  0  0
 11  3  1  0  0  0  0
 12  4  1  0  0  0  0
 13  4  1  0  0  0  0
 15  5  1  0  0  0  0
 17 22  1  0  0  0  0
 18 19  1  0  0  0  0
 18 17  2  0  0  0  0
 19 20  2  0  0  0  0
 20 21  1  0  0  0  0
 21 25  1  0  0  0  0
 22 21  2  0  0  0  0
 23 17  1  0  0  0  0
 24 18  1  0  0  0  0
 26 27  1  0  0  0  0
 27 28  2  0  0  0  0
 27 32  1  0  0  0  0
 28 33  1  0  0  0  0
 29 34  1  0  0  0  0
 29 28  1  0  0  0  0
 30 29  2  0  0  0  0
 31 30  1  0  0  0  0
 31 26  2  0  0  0  0
 35 30  1  0  0  0  0
 36 35  2  0  0  0  0
 37 35  1  0  0  0  0
 38 37  2  0  0  0  0
 39 38  1  0  0  0  0
 40 39  1  0  0  0  0
 41 39  2  0  0  0  0
 41 42  1  0  0  0  0
 42 43  2  0  0  0  0
 43 37  1  0  0  0  0
M  END
>  <minimizedAffinity>
-5.40224934

>  <minimizedRMSD>
0.445608199

$$$$
