
 OpenBabel03242510093D

 26 28  0  0  0  0  0  0  0  0999 V2000
   44.7810   32.9850   41.1890 Br  0  0  0  0  0  0  0  0  0  0  0  0
   46.4300   33.9460   40.9330 C   0  0  0  0  0  0  0  0  0  0  0  0
   46.8950   34.7560   41.9370 C   0  0  0  0  0  0  0  0  0  0  0  0
   48.0950   35.4630   41.7670 C   0  0  0  0  0  0  0  0  0  0  0  0
   48.7760   35.3240   40.5920 C   0  0  0  0  0  0  0  0  0  0  0  0
   48.2660   34.5020   39.6250 C   0  0  0  0  0  0  0  0  0  0  0  0
   47.1170   33.8080   39.7540 C   0  0  0  0  0  0  0  0  0  0  0  0
   48.4180   36.0970   42.6040 H   0  0  0  0  0  0  0  0  0  0  0  0
   49.7020   35.8670   40.4510 H   0  0  0  0  0  0  0  0  0  0  0  0
   48.8360   34.4220   38.7120 H   0  0  0  0  0  0  0  0  0  0  0  0
   45.6410   34.0440   45.2880 C   0  0  0  0  0  0  0  0  0  0  0  0
   44.7100   35.0760   45.5260 C   0  0  0  0  0  0  0  0  0  0  0  0
   44.5290   36.0190   44.5020 C   0  0  0  0  0  0  0  0  0  0  0  0
   45.2520   35.8800   43.3640 N   0  0  0  0  0  0  0  0  0  0  0  0
   46.1400   34.8740   43.1680 C   0  0  0  0  0  0  0  0  0  0  0  0
   46.3270   33.9530   44.1480 N   0  0  0  0  0  0  0  0  0  0  0  0
   45.7990   33.3120   46.0520 H   0  0  0  0  0  0  0  0  0  0  0  0
   44.1790   35.1080   46.4640 H   0  0  0  0  0  0  0  0  0  0  0  0
   43.8240   36.8180   44.6580 H   0  0  0  0  0  0  0  0  0  0  0  0
   46.5530   32.9260   38.7360 C   0  0  0  0  0  0  0  0  0  0  0  0
   46.9180   31.6020   38.5970 C   0  0  0  0  0  3  0  0  0  0  0  0
   46.3660   30.8010   37.6280 C   0  0  0  0  0  0  0  0  0  0  0  0
   46.6430   29.7690   37.5110 H   0  0  0  0  0  0  0  0  0  0  0  0
   45.4570   31.2610   36.7800 N   0  0  0  0  0  0  0  0  0  0  0  0
   45.0870   32.5570   36.9010 C   0  0  0  0  0  3  0  0  0  0  0  0
   45.6260   33.3470   37.8510 N   0  0  0  0  0  0  0  0  0  0  0  0
  2  1  1  0  0  0  0
  2  3  1  0  0  0  0
  3 15  1  0  0  0  0
  4  3  2  0  0  0  0
  4  8  1  0  0  0  0
  5  4  1  0  0  0  0
  6  7  1  0  0  0  0
  6  5  2  0  0  0  0
  7  2  2  0  0  0  0
  9  5  1  0  0  0  0
 10  6  1  0  0  0  0
 11 12  1  0  0  0  0
 11 17  1  0  0  0  0
 12 18  1  0  0  0  0
 13 19  1  0  0  0  0
 13 12  2  0  0  0  0
 14 13  1  0  0  0  0
 15 14  2  0  0  0  0
 15 16  1  0  0  0  0
 16 11  2  0  0  0  0
 20  7  1  0  0  0  0
 21 20  1  0  0  0  0
 22 21  2  0  0  0  0
 23 22  1  0  0  0  0
 24 25  2  0  0  0  0
 24 22  1  0  0  0  0
 25 26  1  0  0  0  0
 26 20  2  0  0  0  0
M  END
>  <minimizedAffinity>
-5.38652563

>  <minimizedRMSD>
0.813704789

$$$$
