
 OpenBabel03242516523D

 43 46  0  0  1  0  0  0  0  0999 V2000
   47.7720   32.8120   41.7520 C   0  0  1  0  0  0  0  0  0  0  0  0
   47.4040   32.1470   40.5020 C   0  0  0  0  0  0  0  0  0  0  0  0
   48.3950   32.6310   39.4490 C   0  0  0  0  0  0  0  0  0  0  0  0
   48.0710   34.0770   39.1820 C   0  0  0  0  0  0  0  0  0  0  0  0
   48.0570   34.9340   40.4110 C   0  0  0  0  0  0  0  0  0  0  0  0
   47.5910   34.3310   41.6690 C   0  0  1  0  0  0  0  0  0  0  0  0
   48.8920   32.7150   41.8930 H   0  0  0  0  0  0  0  0  0  0  0  0
   46.3970   32.3470   40.1480 H   0  0  0  0  0  0  0  0  0  0  0  0
   47.5080   31.0390   40.6560 H   0  0  0  0  0  0  0  0  0  0  0  0
   49.4440   32.5030   39.7630 H   0  0  0  0  0  0  0  0  0  0  0  0
   48.1370   32.0880   38.5030 H   0  0  0  0  0  0  0  0  0  0  0  0
   47.0990   34.1280   38.6150 H   0  0  0  0  0  0  0  0  0  0  0  0
   48.8430   34.4420   38.4700 H   0  0  0  0  0  0  0  0  0  0  0  0
   49.0930   35.3670   40.5140 H   0  0  0  0  0  0  0  0  0  0  0  0
   47.4300   35.8280   40.1750 H   0  0  0  0  0  0  0  0  0  0  0  0
   48.2190   34.7350   42.5090 H   0  0  0  0  0  0  0  0  0  0  0  0
   45.4060   30.9470   44.0270 C   0  0  0  0  0  0  0  0  0  0  0  0
   46.0530   31.4590   42.9000 C   0  0  0  0  0  0  0  0  0  0  0  0
   47.1540   32.3160   42.9640 C   0  0  0  0  0  0  0  0  0  0  0  0
   47.5700   32.6310   44.1920 N   0  0  0  0  0  0  0  0  0  0  0  0
   46.9490   32.1390   45.2950 C   0  0  0  0  0  0  0  0  0  0  0  0
   45.8980   31.3200   45.2270 N   0  0  0  0  0  0  0  0  0  0  0  0
   44.5710   30.2970   43.9320 H   0  0  0  0  0  0  0  0  0  0  0  0
   45.6710   31.1700   41.9100 H   0  0  0  0  0  0  0  0  0  0  0  0
   47.3480   32.4420   46.2550 H   0  0  0  0  0  0  0  0  0  0  0  0
   46.2230   34.7290   42.0100 C   0  0  0  0  0  0  0  0  0  0  0  0
   45.8200   35.3520   43.1940 C   0  0  0  0  0  0  0  0  0  0  0  0
   44.4600   35.6550   43.2970 C   0  0  0  0  0  0  0  0  0  0  0  0
   43.6390   35.3170   42.2340 C   0  0  0  0  0  0  0  0  0  0  0  0
   44.0550   34.6980   41.0650 C   0  0  0  0  0  0  0  0  0  0  0  0
   45.3880   34.4150   40.9940 N   0  0  0  0  0  0  0  0  0  0  0  0
   46.5770   35.5440   43.9180 H   0  0  0  0  0  0  0  0  0  0  0  0
   44.1360   36.1280   44.1910 H   0  0  0  0  0  0  0  0  0  0  0  0
   42.5910   35.5740   42.3640 H   0  0  0  0  0  0  0  0  0  0  0  0
   43.1000   34.3920   40.0070 C   0  0  0  0  0  0  0  0  0  0  0  0
   42.8160   35.3320   39.1980 O   0  0  0  0  0  0  0  0  0  0  0  0
   42.4200   33.1280   39.7540 C   0  0  0  0  0  0  0  0  0  0  0  0
   42.1760   32.7800   38.4440 C   0  0  0  0  0  3  0  0  0  0  0  0
   41.5210   31.5760   38.1630 C   0  0  0  0  0  0  0  0  0  0  0  0
   41.3170   31.2780   37.1420 H   0  0  0  0  0  0  0  0  0  0  0  0
   41.1370   30.7710   39.1920 N   0  0  0  0  0  0  0  0  0  0  0  0
   41.3710   31.1060   40.4530 C   0  0  0  0  0  3  0  0  0  0  0  0
   41.9920   32.2520   40.6760 N   0  0  0  0  0  0  0  0  0  0  0  0
  1  7  1  1  0  0  0
  1 19  1  0  0  0  0
  2  9  1  0  0  0  0
  2  1  1  0  0  0  0
  3 10  1  0  0  0  0
  3  2  1  0  0  0  0
  4  3  1  0  0  0  0
  4  5  1  0  0  0  0
  5 14  1  0  0  0  0
  5  6  1  0  0  0  0
  6  1  1  0  0  0  0
  6 26  1  0  0  0  0
  6 16  1  1  0  0  0
  8  2  1  0  0  0  0
 11  3  1  0  0  0  0
 12  4  1  0  0  0  0
 13  4  1  0  0  0  0
 15  5  1  0  0  0  0
 17 22  1  0  0  0  0
 18 19  1  0  0  0  0
 18 17  2  0  0  0  0
 19 20  2  0  0  0  0
 20 21  1  0  0  0  0
 21 25  1  0  0  0  0
 22 21  2  0  0  0  0
 23 17  1  0  0  0  0
 24 18  1  0  0  0  0
 26 27  1  0  0  0  0
 27 28  2  0  0  0  0
 27 32  1  0  0  0  0
 28 33  1  0  0  0  0
 29 34  1  0  0  0  0
 29 28  1  0  0  0  0
 30 29  2  0  0  0  0
 31 30  1  0  0  0  0
 31 26  2  0  0  0  0
 35 30  1  0  0  0  0
 36 35  2  0  0  0  0
 37 35  1  0  0  0  0
 37 43  1  0  0  0  0
 38 37  2  0  0  0  0
 39 38  1  0  0  0  0
 39 41  2  0  0  0  0
 40 39  1  0  0  0  0
 41 42  1  0  0  0  0
 42 43  2  0  0  0  0
M  END
>  <minimizedAffinity>
-5.26502943

>  <minimizedRMSD>
0.897307217

$$$$
