
 OpenBabel03252507083D

 22 23  0  0  0  0  0  0  0  0999 V2000
   44.5480   36.0050   44.4730 C   0  0  0  0  0  0  0  0  0  0  0  0
   45.1830   35.9650   43.2190 C   0  0  0  0  0  0  0  0  0  0  0  0
   46.0920   34.9250   42.9940 C   0  0  0  0  0  0  0  0  0  0  0  0
   46.3180   34.0180   43.9760 N   0  0  0  0  0  0  0  0  0  0  0  0
   45.6910   34.0820   45.1750 C   0  0  0  0  0  0  0  0  0  0  0  0
   44.8170   35.0670   45.4160 N   0  0  0  0  0  0  0  0  0  0  0  0
   43.8480   36.8410   44.5860 H   0  0  0  0  0  0  0  0  0  0  0  0
   44.9930   36.6950   42.4450 H   0  0  0  0  0  0  0  0  0  0  0  0
   45.9740   33.0770   46.1940 C   0  0  0  0  0  0  0  0  0  0  0  0
   46.9660   32.1510   45.9820 C   0  0  0  0  0  3  0  0  0  0  0  0
   47.1700   31.2400   46.9880 C   0  0  0  0  0  0  0  0  0  0  0  0
   47.9230   30.4550   46.9470 H   0  0  0  0  0  0  0  0  0  0  0  0
   46.4760   31.2110   48.1280 N   0  0  0  0  0  0  0  0  0  0  0  0
   45.4970   32.1440   48.3110 C   0  0  0  0  0  3  0  0  0  0  0  0
   45.2740   33.0510   47.3390 N   0  0  0  0  0  0  0  0  0  0  0  0
   46.7110   34.9020   41.7480 O   0  0  0  0  0  0  0  0  0  0  0  0
   48.6740   33.2780   41.0400 O   0  0  0  0  0  0  0  0  0  0  0  0
   48.4020   34.6320   41.6670 P   0  0  0  0  0  0  0  0  0  0  0  0
   49.0880   35.8800   40.7880 O   0  0  0  0  0  0  0  0  0  0  0  0
   50.0270   35.6280   40.5640 H   0  0  0  0  0  0  0  0  0  0  0  0
   48.9830   34.5950   43.2710 O   0  0  0  0  0  0  0  0  0  0  0  0
   48.7570   35.5000   43.6460 H   0  0  0  0  0  0  0  0  0  0  0  0
  1  7  1  0  0  0  0
  1  6  1  0  0  0  0
  2  1  2  0  0  0  0
  3  2  1  0  0  0  0
  3  4  2  0  0  0  0
  4  5  1  0  0  0  0
  5  6  2  0  0  0  0
  5  9  1  0  0  0  0
  8  2  1  0  0  0  0
  9 15  1  0  0  0  0
 10  9  2  0  0  0  0
 10 11  1  0  0  0  0
 11 13  2  0  0  0  0
 12 11  1  0  0  0  0
 13 14  1  0  0  0  0
 15 14  2  0  0  0  0
 16  3  1  0  0  0  0
 17 18  2  0  0  0  0
 18 16  1  0  0  0  0
 18 21  1  0  0  0  0
 19 18  1  0  0  0  0
 20 19  1  0  0  0  0
 21 22  1  0  0  0  0
M  END
>  <minimizedAffinity>
-5.66998959

>  <minimizedRMSD>
0.297617167

$$$$
