
 OpenBabel03252504053D

 17 18  0  0  0  0  0  0  0  0999 V2000
   37.2080   32.5450   40.0380 C   0  0  0  0  0  0  0  0  0  0  0  0
   36.9260   31.3830   40.7800 C   0  0  0  0  0  0  0  0  0  0  0  0
   37.9890   30.5190   41.0230 C   0  0  0  0  0  0  0  0  0  0  0  0
   39.2180   30.8140   40.5560 N   0  0  0  0  0  0  0  0  0  0  0  0
   39.4620   31.9480   39.8400 C   0  0  0  0  0  0  0  0  0  0  0  0
   38.4320   32.7930   39.5990 N   0  0  0  0  0  0  0  0  0  0  0  0
   36.3300   33.1620   39.8930 H   0  0  0  0  0  0  0  0  0  0  0  0
   40.4610   32.1760   39.4660 H   0  0  0  0  0  0  0  0  0  0  0  0
   37.7650   29.2870   41.7910 C   0  0  0  0  0  0  0  0  0  0  0  0
   38.1300   29.1410   43.1130 C   0  0  0  0  0  3  0  0  0  0  0  0
   37.8390   27.9030   43.6790 C   0  0  0  0  0  0  0  0  0  0  0  0
   38.1340   27.8030   44.7260 H   0  0  0  0  0  0  0  0  0  0  0  0
   37.2460   26.9510   42.9640 N   0  0  0  0  0  0  0  0  0  0  0  0
   36.8950   27.0970   41.6890 C   0  0  0  0  0  3  0  0  0  0  0  0
   37.1660   28.2810   41.1180 N   0  0  0  0  0  0  0  0  0  0  0  0
   35.6720   31.0610   41.2690 O   0  0  0  0  0  0  0  0  0  0  0  0
   35.2820   31.6670   41.9780 H   0  0  0  0  0  0  0  0  0  0  0  0
  1  2  1  0  0  0  0
  2  3  2  0  0  0  0
  2 16  1  0  0  0  0
  3  9  1  0  0  0  0
  4  3  1  0  0  0  0
  5  4  2  0  0  0  0
  6  5  1  0  0  0  0
  6  1  2  0  0  0  0
  7  1  1  0  0  0  0
  8  5  1  0  0  0  0
  9 10  1  0  0  0  0
 10 11  2  0  0  0  0
 11 12  1  0  0  0  0
 13 11  1  0  0  0  0
 14 13  2  0  0  0  0
 15 14  1  0  0  0  0
 15  9  2  0  0  0  0
 16 17  1  0  0  0  0
M  END
>  <minimizedAffinity>
-4.47294235

$$$$

 OpenBabel03252504053D

 17 18  0  0  0  0  0  0  0  0999 V2000
   34.9580   29.2120   39.9370 C   0  0  0  0  0  0  0  0  0  0  0  0
   35.7830   30.2510   40.4040 C   0  0  0  0  0  0  0  0  0  0  0  0
   36.6260   30.8500   39.4730 C   0  0  0  0  0  0  0  0  0  0  0  0
   36.6260   30.4280   38.1930 N   0  0  0  0  0  0  0  0  0  0  0  0
   35.8140   29.4180   37.7700 C   0  0  0  0  0  0  0  0  0  0  0  0
   34.9910   28.8310   38.6700 N   0  0  0  0  0  0  0  0  0  0  0  0
   34.3330   28.8000   40.7220 H   0  0  0  0  0  0  0  0  0  0  0  0
   35.8240   29.0840   36.7310 H   0  0  0  0  0  0  0  0  0  0  0  0
   37.5150   31.9420   39.8930 C   0  0  0  0  0  0  0  0  0  0  0  0
   37.3020   33.2620   39.5580 C   0  0  0  0  0  3  0  0  0  0  0  0
   38.2470   34.1610   40.0440 C   0  0  0  0  0  0  0  0  0  0  0  0
   38.0650   35.2030   39.7710 H   0  0  0  0  0  0  0  0  0  0  0  0
   39.2730   33.7380   40.7790 N   0  0  0  0  0  0  0  0  0  0  0  0
   39.4740   32.4630   41.1000 C   0  0  0  0  0  3  0  0  0  0  0  0
   38.5760   31.5740   40.6430 N   0  0  0  0  0  0  0  0  0  0  0  0
   35.7990   30.7010   41.7130 O   0  0  0  0  0  0  0  0  0  0  0  0
   34.9590   31.1450   42.0610 H   0  0  0  0  0  0  0  0  0  0  0  0
  1  2  1  0  0  0  0
  1  7  1  0  0  0  0
  2 16  1  0  0  0  0
  3  9  1  0  0  0  0
  3  2  2  0  0  0  0
  4  3  1  0  0  0  0
  5  4  2  0  0  0  0
  5  6  1  0  0  0  0
  6  1  2  0  0  0  0
  8  5  1  0  0  0  0
  9 15  1  0  0  0  0
 10  9  2  0  0  0  0
 10 11  1  0  0  0  0
 11 13  2  0  0  0  0
 12 11  1  0  0  0  0
 13 14  1  0  0  0  0
 15 14  2  0  0  0  0
 16 17  1  0  0  0  0
M  END
>  <minimizedAffinity>
-4.37179089

$$$$

 OpenBabel03252504053D

 17 18  0  0  0  0  0  0  0  0999 V2000
   36.6140   28.3740   41.7560 C   0  0  0  0  0  0  0  0  0  0  0  0
   36.7320   29.7480   41.4770 C   0  0  0  0  0  0  0  0  0  0  0  0
   37.9270   30.1730   40.9050 C   0  0  0  0  0  0  0  0  0  0  0  0
   38.9040   29.2820   40.6440 N   0  0  0  0  0  0  0  0  0  0  0  0
   38.7610   27.9560   40.9250 C   0  0  0  0  0  0  0  0  0  0  0  0
   37.6010   27.5350   41.4820 N   0  0  0  0  0  0  0  0  0  0  0  0
   35.6570   28.1260   42.2000 H   0  0  0  0  0  0  0  0  0  0  0  0
   39.5590   27.2440   40.7090 H   0  0  0  0  0  0  0  0  0  0  0  0
   38.1170   31.5950   40.5880 C   0  0  0  0  0  0  0  0  0  0  0  0
   39.1910   32.3330   41.0350 C   0  0  0  0  0  3  0  0  0  0  0  0
   39.2060   33.6670   40.6360 C   0  0  0  0  0  0  0  0  0  0  0  0
   40.0640   34.2390   40.9980 H   0  0  0  0  0  0  0  0  0  0  0  0
   38.2340   34.1590   39.8730 N   0  0  0  0  0  0  0  0  0  0  0  0
   37.1990   33.4420   39.4430 C   0  0  0  0  0  3  0  0  0  0  0  0
   37.1590   32.1520   39.8150 N   0  0  0  0  0  0  0  0  0  0  0  0
   35.7420   30.6790   41.7370 O   0  0  0  0  0  0  0  0  0  0  0  0
   34.8800   30.5970   41.2150 H   0  0  0  0  0  0  0  0  0  0  0  0
  1  7  1  0  0  0  0
  2 16  1  0  0  0  0
  2  1  2  0  0  0  0
  3  2  1  0  0  0  0
  4  3  2  0  0  0  0
  4  5  1  0  0  0  0
  5  6  2  0  0  0  0
  6  1  1  0  0  0  0
  8  5  1  0  0  0  0
  9  3  1  0  0  0  0
  9 10  1  0  0  0  0
 11 12  1  0  0  0  0
 11 10  2  0  0  0  0
 13 11  1  0  0  0  0
 14 15  1  0  0  0  0
 14 13  2  0  0  0  0
 15  9  2  0  0  0  0
 17 16  1  0  0  0  0
M  END
>  <minimizedAffinity>
-4.09337139

$$$$

 OpenBabel03252504053D

 17 18  0  0  0  0  0  0  0  0999 V2000
   36.9560   26.9600   42.8590 C   0  0  0  0  0  0  0  0  0  0  0  0
   37.1870   28.3350   42.6730 C   0  0  0  0  0  0  0  0  0  0  0  0
   37.5410   28.7460   41.3920 C   0  0  0  0  0  0  0  0  0  0  0  0
   37.6480   27.8400   40.3990 N   0  0  0  0  0  0  0  0  0  0  0  0
   37.4170   26.5130   40.6090 C   0  0  0  0  0  0  0  0  0  0  0  0
   37.0720   26.1070   41.8530 N   0  0  0  0  0  0  0  0  0  0  0  0
   36.6860   26.7230   43.8810 H   0  0  0  0  0  0  0  0  0  0  0  0
   37.5080   25.7890   39.7970 H   0  0  0  0  0  0  0  0  0  0  0  0
   37.7970   30.1680   41.1280 C   0  0  0  0  0  0  0  0  0  0  0  0
   36.9030   30.9900   40.4760 C   0  0  0  0  0  3  0  0  0  0  0  0
   37.3140   32.3100   40.3150 C   0  0  0  0  0  0  0  0  0  0  0  0
   36.5950   32.9490   39.7970 H   0  0  0  0  0  0  0  0  0  0  0  0
   38.4970   32.7150   40.7720 N   0  0  0  0  0  0  0  0  0  0  0  0
   39.3560   31.9170   41.4010 C   0  0  0  0  0  3  0  0  0  0  0  0
   38.9840   30.6380   41.5690 N   0  0  0  0  0  0  0  0  0  0  0  0
   37.0830   29.2820   43.6780 O   0  0  0  0  0  0  0  0  0  0  0  0
   36.1650   29.4390   44.0720 H   0  0  0  0  0  0  0  0  0  0  0  0
  1  7  1  0  0  0  0
  2  1  1  0  0  0  0
  2 16  1  0  0  0  0
  3  2  2  0  0  0  0
  4  5  2  0  0  0  0
  4  3  1  0  0  0  0
  5  6  1  0  0  0  0
  6  1  2  0  0  0  0
  8  5  1  0  0  0  0
  9  3  1  0  0  0  0
  9 15  1  0  0  0  0
 10  9  2  0  0  0  0
 11 10  1  0  0  0  0
 11 13  2  0  0  0  0
 12 11  1  0  0  0  0
 13 14  1  0  0  0  0
 14 15  2  0  0  0  0
 16 17  1  0  0  0  0
M  END
>  <minimizedAffinity>
-4.06596661

$$$$

 OpenBabel03252504053D

 17 18  0  0  0  0  0  0  0  0999 V2000
   36.2460   30.8290   41.0650 C   0  0  0  0  0  0  0  0  0  0  0  0
   37.1560   31.7370   40.4930 C   0  0  0  0  0  0  0  0  0  0  0  0
   38.4330   31.2590   40.2170 C   0  0  0  0  0  0  0  0  0  0  0  0
   38.7480   29.9790   40.4990 N   0  0  0  0  0  0  0  0  0  0  0  0
   37.8450   29.1210   41.0530 C   0  0  0  0  0  0  0  0  0  0  0  0
   36.6010   29.5800   41.3230 N   0  0  0  0  0  0  0  0  0  0  0  0
   35.2770   31.2790   41.2480 H   0  0  0  0  0  0  0  0  0  0  0  0
   38.1130   28.0870   41.2760 H   0  0  0  0  0  0  0  0  0  0  0  0
   39.4320   32.1540   39.6200 C   0  0  0  0  0  0  0  0  0  0  0  0
   40.0300   31.9160   38.4010 C   0  0  0  0  0  3  0  0  0  0  0  0
   40.9540   32.8730   37.9920 C   0  0  0  0  0  0  0  0  0  0  0  0
   41.4190   32.6700   37.0240 H   0  0  0  0  0  0  0  0  0  0  0  0
   41.2170   33.9330   38.7520 N   0  0  0  0  0  0  0  0  0  0  0  0
   40.6360   34.1600   39.9270 C   0  0  0  0  0  3  0  0  0  0  0  0
   39.7410   33.2500   40.3460 N   0  0  0  0  0  0  0  0  0  0  0  0
   36.8530   33.0550   40.1960 O   0  0  0  0  0  0  0  0  0  0  0  0
   36.1600   33.2210   39.4780 H   0  0  0  0  0  0  0  0  0  0  0  0
  1  7  1  0  0  0  0
  1  6  1  0  0  0  0
  2  1  2  0  0  0  0
  3  2  1  0  0  0  0
  3  4  2  0  0  0  0
  4  5  1  0  0  0  0
  5  8  1  0  0  0  0
  5  6  2  0  0  0  0
  9  3  1  0  0  0  0
  9 15  1  0  0  0  0
 10  9  2  0  0  0  0
 11 10  1  0  0  0  0
 11 13  2  0  0  0  0
 12 11  1  0  0  0  0
 13 14  1  0  0  0  0
 14 15  2  0  0  0  0
 16  2  1  0  0  0  0
 17 16  1  0  0  0  0
M  END
>  <minimizedAffinity>
-3.94657564

$$$$

 OpenBabel03252504053D

 17 18  0  0  0  0  0  0  0  0999 V2000
   36.6570   27.7210   41.3360 C   0  0  0  0  0  0  0  0  0  0  0  0
   36.8860   29.1090   41.3590 C   0  0  0  0  0  0  0  0  0  0  0  0
   37.4270   29.6750   40.2080 C   0  0  0  0  0  0  0  0  0  0  0  0
   37.7050   28.9000   39.1420 N   0  0  0  0  0  0  0  0  0  0  0  0
   37.4710   27.5570   39.1490 C   0  0  0  0  0  0  0  0  0  0  0  0
   36.9450   26.9990   40.2650 N   0  0  0  0  0  0  0  0  0  0  0  0
   36.2360   27.3600   42.2670 H   0  0  0  0  0  0  0  0  0  0  0  0
   37.7010   26.9400   38.2790 H   0  0  0  0  0  0  0  0  0  0  0  0
   37.6920   31.1200   40.1640 C   0  0  0  0  0  0  0  0  0  0  0  0
   36.9850   31.9950   39.3680 C   0  0  0  0  0  3  0  0  0  0  0  0
   37.3740   33.3290   39.4550 C   0  0  0  0  0  0  0  0  0  0  0  0
   36.8040   34.0100   38.8190 H   0  0  0  0  0  0  0  0  0  0  0  0
   38.3650   33.6960   40.2630 N   0  0  0  0  0  0  0  0  0  0  0  0
   39.0440   32.8480   41.0300 C   0  0  0  0  0  3  0  0  0  0  0  0
   38.6890   31.5540   40.9640 N   0  0  0  0  0  0  0  0  0  0  0  0
   36.6080   29.9240   42.4430 O   0  0  0  0  0  0  0  0  0  0  0  0
   35.6370   30.0300   42.7050 H   0  0  0  0  0  0  0  0  0  0  0  0
  1  2  1  0  0  0  0
  1  7  1  0  0  0  0
  2 16  1  0  0  0  0
  3  2  2  0  0  0  0
  4  5  2  0  0  0  0
  4  3  1  0  0  0  0
  5  6  1  0  0  0  0
  6  1  2  0  0  0  0
  8  5  1  0  0  0  0
  9  3  1  0  0  0  0
  9 15  1  0  0  0  0
 10 11  1  0  0  0  0
 10  9  2  0  0  0  0
 11 13  2  0  0  0  0
 12 11  1  0  0  0  0
 13 14  1  0  0  0  0
 15 14  2  0  0  0  0
 16 17  1  0  0  0  0
M  END
>  <minimizedAffinity>
-3.7980926

$$$$

 OpenBabel03252504053D

 17 18  0  0  0  0  0  0  0  0999 V2000
   39.2520   32.5810   40.8580 C   0  0  0  0  0  0  0  0  0  0  0  0
   39.0310   31.3150   41.4310 C   0  0  0  0  0  0  0  0  0  0  0  0
   37.8350   30.6810   41.1120 C   0  0  0  0  0  0  0  0  0  0  0  0
   36.9520   31.2810   40.2880 N   0  0  0  0  0  0  0  0  0  0  0  0
   37.1950   32.5080   39.7460 C   0  0  0  0  0  0  0  0  0  0  0  0
   38.3570   33.1310   40.0530 N   0  0  0  0  0  0  0  0  0  0  0  0
   40.2030   33.0060   41.1560 H   0  0  0  0  0  0  0  0  0  0  0  0
   36.4720   32.9840   39.0810 H   0  0  0  0  0  0  0  0  0  0  0  0
   37.5390   29.3570   41.6760 C   0  0  0  0  0  0  0  0  0  0  0  0
   37.2240   28.2590   40.9050 C   0  0  0  0  0  3  0  0  0  0  0  0
   36.9740   27.0860   41.6120 C   0  0  0  0  0  0  0  0  0  0  0  0
   36.7250   26.2240   40.9870 H   0  0  0  0  0  0  0  0  0  0  0  0
   37.0460   27.0640   42.9400 N   0  0  0  0  0  0  0  0  0  0  0  0
   37.3520   28.1260   43.6800 C   0  0  0  0  0  3  0  0  0  0  0  0
   37.5960   29.2720   43.0230 N   0  0  0  0  0  0  0  0  0  0  0  0
   39.9230   30.6810   42.2790 O   0  0  0  0  0  0  0  0  0  0  0  0
   40.8140   30.4040   41.8900 H   0  0  0  0  0  0  0  0  0  0  0  0
  1  7  1  0  0  0  0
  1  2  1  0  0  0  0
  2 16  1  0  0  0  0
  3  2  2  0  0  0  0
  3  9  1  0  0  0  0
  4  3  1  0  0  0  0
  5  6  1  0  0  0  0
  5  4  2  0  0  0  0
  6  1  2  0  0  0  0
  8  5  1  0  0  0  0
  9 15  1  0  0  0  0
 10 11  1  0  0  0  0
 10  9  2  0  0  0  0
 11 13  2  0  0  0  0
 12 11  1  0  0  0  0
 13 14  1  0  0  0  0
 15 14  2  0  0  0  0
 17 16  1  0  0  0  0
M  END
>  <minimizedAffinity>
-3.73697972

$$$$

 OpenBabel03252504053D

 17 18  0  0  0  0  0  0  0  0999 V2000
   36.9280   27.2360   41.5080 C   0  0  0  0  0  0  0  0  0  0  0  0
   37.2990   28.4700   40.9450 C   0  0  0  0  0  0  0  0  0  0  0  0
   37.7270   29.4590   41.8240 C   0  0  0  0  0  0  0  0  0  0  0  0
   37.7720   29.2110   43.1480 N   0  0  0  0  0  0  0  0  0  0  0  0
   37.4070   28.0030   43.6660 C   0  0  0  0  0  0  0  0  0  0  0  0
   36.9890   27.0370   42.8150 N   0  0  0  0  0  0  0  0  0  0  0  0
   36.6080   26.5220   40.7580 H   0  0  0  0  0  0  0  0  0  0  0  0
   37.4480   27.8140   44.7390 H   0  0  0  0  0  0  0  0  0  0  0  0
   38.1290   30.7730   41.3030 C   0  0  0  0  0  0  0  0  0  0  0  0
   39.3880   31.3060   41.4820 C   0  0  0  0  0  3  0  0  0  0  0  0
   39.5900   32.5620   40.9190 C   0  0  0  0  0  0  0  0  0  0  0  0
   40.5920   32.9710   41.0690 H   0  0  0  0  0  0  0  0  0  0  0  0
   38.6110   33.1760   40.2580 N   0  0  0  0  0  0  0  0  0  0  0  0
   37.3980   32.6580   40.0870 C   0  0  0  0  0  3  0  0  0  0  0  0
   37.1770   31.4460   40.6220 N   0  0  0  0  0  0  0  0  0  0  0  0
   37.2600   28.7470   39.5890 O   0  0  0  0  0  0  0  0  0  0  0  0
   37.8920   28.2300   38.9920 H   0  0  0  0  0  0  0  0  0  0  0  0
  1  6  1  0  0  0  0
  2  1  2  0  0  0  0
  2  3  1  0  0  0  0
  3  4  2  0  0  0  0
  4  5  1  0  0  0  0
  5  8  1  0  0  0  0
  6  5  2  0  0  0  0
  7  1  1  0  0  0  0
  9 10  1  0  0  0  0
  9  3  1  0  0  0  0
 11 12  1  0  0  0  0
 11 10  2  0  0  0  0
 13 11  1  0  0  0  0
 14 13  2  0  0  0  0
 14 15  1  0  0  0  0
 15  9  2  0  0  0  0
 16  2  1  0  0  0  0
 17 16  1  0  0  0  0
M  END
>  <minimizedAffinity>
-3.72347736

$$$$

 OpenBabel03252504053D

 17 18  0  0  0  0  0  0  0  0999 V2000
   36.6160   30.0220   36.3970 C   0  0  0  0  0  0  0  0  0  0  0  0
   37.3780   31.0570   36.9690 C   0  0  0  0  0  0  0  0  0  0  0  0
   37.3620   31.1560   38.3560 C   0  0  0  0  0  0  0  0  0  0  0  0
   36.6400   30.2830   39.0870 N   0  0  0  0  0  0  0  0  0  0  0  0
   35.9120   29.2890   38.5040 C   0  0  0  0  0  0  0  0  0  0  0  0
   35.9220   29.1870   37.1540 N   0  0  0  0  0  0  0  0  0  0  0  0
   36.6810   30.0140   35.3150 H   0  0  0  0  0  0  0  0  0  0  0  0
   35.3300   28.5880   39.1060 H   0  0  0  0  0  0  0  0  0  0  0  0
   38.1360   32.2140   39.0190 C   0  0  0  0  0  0  0  0  0  0  0  0
   37.5560   33.2490   39.7210 C   0  0  0  0  0  3  0  0  0  0  0  0
   38.4450   34.1610   40.2840 C   0  0  0  0  0  0  0  0  0  0  0  0
   37.9700   34.9750   40.8370 H   0  0  0  0  0  0  0  0  0  0  0  0
   39.7590   34.0110   40.1330 N   0  0  0  0  0  0  0  0  0  0  0  0
   40.3140   33.0100   39.4560 C   0  0  0  0  0  3  0  0  0  0  0  0
   39.4780   32.1160   38.9020 N   0  0  0  0  0  0  0  0  0  0  0  0
   38.1260   31.9640   36.2380 O   0  0  0  0  0  0  0  0  0  0  0  0
   38.9160   31.6020   35.7210 H   0  0  0  0  0  0  0  0  0  0  0  0
  1  2  2  0  0  0  0
  1  6  1  0  0  0  0
  2  3  1  0  0  0  0
  3  9  1  0  0  0  0
  3  4  2  0  0  0  0
  5  4  1  0  0  0  0
  5  8  1  0  0  0  0
  6  5  2  0  0  0  0
  7  1  1  0  0  0  0
  9 10  1  0  0  0  0
 10 11  2  0  0  0  0
 11 12  1  0  0  0  0
 13 11  1  0  0  0  0
 14 13  2  0  0  0  0
 15  9  2  0  0  0  0
 15 14  1  0  0  0  0
 16  2  1  0  0  0  0
 17 16  1  0  0  0  0
M  END
>  <minimizedAffinity>
-3.71816087

$$$$
