REMARK  Name = 
REMARK  9 active torsions:
REMARK  status: ('A' for Active; 'I' for Inactive)
REMARK    1  A    between atoms: O_1  and  C_2
REMARK    2  A    between atoms: O_1  and  P_10
REMARK    3  A    between atoms: C_6  and  C_7
REMARK    4  A    between atoms: C_7  and  O_8
REMARK    5  A    between atoms: P_10  and  O_11
REMARK    6  A    between atoms: P_10  and  O_12
REMARK    7  A    between atoms: O_12  and  C_13
REMARK    8  A    between atoms: C_13  and  C_16
REMARK    9  A    between atoms: C_18  and  C_36
REMARK                            x       y       z     vdW  Elec       q    Type
REMARK                         _______ _______ _______ _____ _____    ______ ____
ROOT
ATOM      1  O   UNL     1      44.728  35.351  44.994  0.00  0.00    +0.000 OA
ATOM      2  P   UNL     1      45.577  34.241  44.411  0.00  0.00    +0.000 P 
ENDROOT
BRANCH   2   3
ATOM      3  O   UNL     1      44.606  33.039  43.718  0.00  0.00    +0.000 OA
ATOM      4  H   UNL     1      43.729  33.420  43.403  0.00  0.00    +0.000 HD
ENDBRANCH   2   3
BRANCH   2   5
ATOM      5  O   UNL     1      46.575  34.909  43.249  0.00  0.00    +0.000 OA
BRANCH   5   6
ATOM      6  C   UNL     1      46.803  33.975  42.230  0.00  0.00    +0.000 C 
ATOM      7  C   UNL     1      46.074  34.416  40.956  0.00  0.00    +0.000 C 
ATOM      8  C   UNL     1      46.689  33.477  39.945  0.00  0.00    +0.000 C 
ATOM      9  C   UNL     1      48.075  33.144  40.472  0.00  0.00    +0.000 C 
ATOM     10  C   UNL     1      48.218  33.959  41.742  0.00  0.00    +0.000 C 
ATOM     11  H   UNL     1      46.448  32.974  42.463  0.00  0.00    +0.000 HD
ATOM     12  H   UNL     1      45.002  34.197  41.127  0.00  0.00    +0.000 HD
ATOM     13  H   UNL     1      46.182  35.472  40.734  0.00  0.00    +0.000 HD
ATOM     14  H   UNL     1      46.094  32.530  39.964  0.00  0.00    +0.000 HD
ATOM     15  H   UNL     1      46.729  33.946  38.947  0.00  0.00    +0.000 HD
ATOM     16  H   UNL     1      48.228  32.061  40.618  0.00  0.00    +0.000 HD
ATOM     17  H   UNL     1      48.877  33.479  39.781  0.00  0.00    +0.000 HD
ATOM     18  H   UNL     1      48.812  33.402  42.504  0.00  0.00    +0.000 HD
BRANCH  10  19
ATOM     19  C   UNL     1      48.759  35.335  41.462  0.00  0.00    +0.000 C 
ATOM     20  H   UNL     1      49.332  35.269  40.496  0.00  0.00    +0.000 HD
ATOM     21  H   UNL     1      48.010  36.123  41.368  0.00  0.00    +0.000 HD
BRANCH  19  22
ATOM     22  O   UNL     1      49.659  35.748  42.419  0.00  0.00    +0.000 OA
ATOM     23  H   UNL     1      50.137  34.957  42.794  0.00  0.00    +0.000 HD
ENDBRANCH  19  22
ENDBRANCH  10  19
ENDBRANCH   5   6
ENDBRANCH   2   5
BRANCH   2  24
ATOM     24  O   UNL     1      46.472  33.492  45.603  0.00  0.00    +0.000 OA
BRANCH  24  25
ATOM     25  C   UNL     1      46.229  32.156  45.571  0.00  0.00    +0.000 C 
ATOM     26  H   UNL     1      47.202  31.653  45.290  0.00  0.00    +0.000 HD
ATOM     27  H   UNL     1      45.505  31.777  44.856  0.00  0.00    +0.000 HD
BRANCH  25  30
ATOM     28  C   UNL     1      45.645  31.903  49.237  0.00  0.00    +0.000 A 
ATOM     29  C   UNL     1      45.980  32.461  47.995  0.00  0.00    +0.000 A 
ATOM     30  C   UNL     1      45.882  31.607  46.892  0.00  0.00    +0.000 A 
ATOM     31  N   UNL     1      45.478  30.315  47.077  0.00  0.00    +0.000 NA
ATOM     32  C   UNL     1      45.165  29.815  48.291  0.00  0.00    +0.000 A 
ATOM     33  N   UNL     1      45.250  30.604  49.353  0.00  0.00    +0.000 NA
ATOM     34  H   UNL     1      45.716  32.552  50.103  0.00  0.00    +0.000 HD
ATOM     35  H   UNL     1      46.291  33.494  47.928  0.00  0.00    +0.000 HD
BRANCH  32  36
ATOM     36  C   UNL     1      44.746  28.419  48.365  0.00  0.00    +0.000 A 
ATOM     37  C   UNL     1      43.424  28.070  48.554  0.00  0.00    +0.000 A 
ATOM     38  C   UNL     1      43.095  26.717  48.616  0.00  0.00    +0.000 A 
ATOM     39  H   UNL     1      42.063  26.449  48.764  0.00  0.00    +0.000 HD
ATOM     40  N   UNL     1      44.052  25.779  48.492  0.00  0.00    +0.000 NA
ATOM     41  C   UNL     1      45.330  26.131  48.308  0.00  0.00    +0.000 A 
ATOM     42  N   UNL     1      45.673  27.451  48.245  0.00  0.00    +0.000 NA
ENDBRANCH  32  36
ENDBRANCH  25  30
ENDBRANCH  24  25
ENDBRANCH   2  24
TORSDOF 9
