
 OpenBabel03252500593D

 36 38  0  0  0  0  0  0  0  0999 V2000
   36.6110   28.9370   40.2310 O   0  0  0  0  0  0  0  0  0  0  0  0
   36.9390   30.3690   40.6470 P   0  0  1  0  0  0  0  0  0  0  0  0
   35.5520   31.0550   41.3270 O   0  0  0  0  0  0  0  0  0  0  0  0
   35.8430   31.7050   42.0250 H   0  0  0  0  0  0  0  0  0  0  0  0
   38.1470   30.3440   41.8350 O   0  0  0  0  0  0  0  0  0  0  0  0
   38.7790   28.4240   43.0410 C   0  0  0  0  0  0  0  0  0  0  0  0
   39.0700   29.3310   42.0560 C   0  0  0  0  0  0  0  0  0  0  0  0
   40.2730   29.1720   41.3440 C   0  0  0  0  0  0  0  0  0  0  0  0
   41.0600   28.1330   41.6830 N   0  0  0  0  0  0  0  0  0  0  0  0
   40.7530   27.2630   42.6450 C   0  0  0  0  0  0  0  0  0  0  0  0
   39.6080   27.4130   43.3250 N   0  0  0  0  0  0  0  0  0  0  0  0
   40.4760   29.8980   40.5760 H   0  0  0  0  0  0  0  0  0  0  0  0
   41.4320   26.4470   42.8700 H   0  0  0  0  0  0  0  0  0  0  0  0
   37.5470   28.5280   43.8190 C   0  0  0  0  0  0  0  0  0  0  0  0
   37.0030   29.4800   43.7130 H   0  0  0  0  0  0  0  0  0  0  0  0
   37.8230   28.3590   44.8860 H   0  0  0  0  0  0  0  0  0  0  0  0
   36.6080   27.4210   43.4210 C   0  0  0  0  0  0  0  0  0  0  0  0
   35.5450   27.7040   43.5800 H   0  0  0  0  0  0  0  0  0  0  0  0
   36.8500   26.4500   43.8940 H   0  0  0  0  0  0  0  0  0  0  0  0
   36.7190   27.2570   42.3270 H   0  0  0  0  0  0  0  0  0  0  0  0
   37.3700   31.2850   39.2860 O   0  0  0  0  0  0  0  0  0  0  0  0
   38.2650   32.3340   39.4650 C   0  0  0  0  0  0  0  0  0  0  0  0
   37.7570   33.5100   40.0110 C   0  0  0  0  0  0  0  0  0  0  0  0
   38.5450   34.6230   40.2380 C   0  0  0  0  0  0  0  0  0  0  0  0
   39.8670   34.5290   39.9020 N   0  0  0  0  0  0  0  0  0  0  0  0
   40.3580   33.4090   39.3800 C   0  0  0  0  0  0  0  0  0  0  0  0
   39.5680   32.3460   39.1720 N   0  0  0  0  0  0  0  0  0  0  0  0
   36.6990   33.5580   40.2710 H   0  0  0  0  0  0  0  0  0  0  0  0
   38.1600   35.5320   40.6590 H   0  0  0  0  0  0  0  0  0  0  0  0
   41.7900   33.3150   39.0190 C   0  0  0  0  0  0  0  0  0  0  0  0
   42.2510   33.9890   37.9060 C   0  0  0  0  0  3  0  0  0  0  0  0
   43.6120   33.8650   37.6090 C   0  0  0  0  0  0  0  0  0  0  0  0
   43.9600   34.3980   36.7360 H   0  0  0  0  0  0  0  0  0  0  0  0
   44.3940   33.1130   38.4040 N   0  0  0  0  0  0  0  0  0  0  0  0
   43.9460   32.4560   39.4870 C   0  0  0  0  0  3  0  0  0  0  0  0
   42.6310   32.5800   39.7680 N   0  0  0  0  0  0  0  0  0  0  0  0
  2  1  2  6  0  0  0
  2  3  1  0  0  0  0
  2  5  1  0  0  0  0
  3  4  1  0  0  0  0
  5  7  1  0  0  0  0
  6 11  1  0  0  0  0
  6 14  1  0  0  0  0
  7  6  2  0  0  0  0
  8  9  2  0  0  0  0
  8  7  1  0  0  0  0
  9 10  1  0  0  0  0
 10 13  1  0  0  0  0
 10 11  2  0  0  0  0
 12  8  1  0  0  0  0
 14 16  1  0  0  0  0
 15 14  1  0  0  0  0
 17 18  1  0  0  0  0
 17 14  1  0  0  0  0
 17 19  1  0  0  0  0
 20 17  1  0  0  0  0
 21 22  1  0  0  0  0
 21  2  1  0  0  0  0
 22 23  1  0  0  0  0
 23 24  2  0  0  0  0
 23 28  1  0  0  0  0
 24 29  1  0  0  0  0
 25 24  1  0  0  0  0
 26 25  2  0  0  0  0
 27 26  1  0  0  0  0
 27 22  2  0  0  0  0
 30 26  1  0  0  0  0
 30 36  1  0  0  0  0
 31 30  2  0  0  0  0
 32 31  1  0  0  0  0
 32 34  2  0  0  0  0
 33 32  1  0  0  0  0
 34 35  1  0  0  0  0
 35 36  2  0  0  0  0
M  END
>  <minimizedAffinity>
-5.839324

$$$$

 OpenBabel03252500593D

 36 38  0  0  0  0  0  0  0  0999 V2000
   35.7330   29.3770   39.4160 O   0  0  0  0  0  0  0  0  0  0  0  0
   36.5380   30.4860   40.0890 P   0  0  1  0  0  0  0  0  0  0  0  0
   35.6150   31.1170   41.3570 O   0  0  0  0  0  0  0  0  0  0  0  0
   36.2420   31.4150   42.0720 H   0  0  0  0  0  0  0  0  0  0  0  0
   37.9540   29.8300   40.7490 O   0  0  0  0  0  0  0  0  0  0  0  0
   38.1990   27.9610   42.1600 C   0  0  0  0  0  0  0  0  0  0  0  0
   38.2520   28.4810   40.8930 C   0  0  0  0  0  0  0  0  0  0  0  0
   38.6020   27.6190   39.8370 C   0  0  0  0  0  0  0  0  0  0  0  0
   38.8610   26.3350   40.1480 N   0  0  0  0  0  0  0  0  0  0  0  0
   38.8010   25.8530   41.3890 C   0  0  0  0  0  0  0  0  0  0  0  0
   38.4690   26.6730   42.3970 N   0  0  0  0  0  0  0  0  0  0  0  0
   38.6360   28.0540   38.8540 H   0  0  0  0  0  0  0  0  0  0  0  0
   39.0240   24.8070   41.5720 H   0  0  0  0  0  0  0  0  0  0  0  0
   37.8420   28.7990   43.3020 C   0  0  0  0  0  0  0  0  0  0  0  0
   37.3170   29.7340   43.0530 H   0  0  0  0  0  0  0  0  0  0  0  0
   38.7880   29.0220   43.8470 H   0  0  0  0  0  0  0  0  0  0  0  0
   36.9610   28.0180   44.2400 C   0  0  0  0  0  0  0  0  0  0  0  0
   36.2860   28.6820   44.8230 H   0  0  0  0  0  0  0  0  0  0  0  0
   37.5230   27.3250   44.8950 H   0  0  0  0  0  0  0  0  0  0  0  0
   36.2950   27.3730   43.6250 H   0  0  0  0  0  0  0  0  0  0  0  0
   36.8430   31.7360   38.9820 O   0  0  0  0  0  0  0  0  0  0  0  0
   37.9160   32.5810   39.2360 C   0  0  0  0  0  0  0  0  0  0  0  0
   37.6470   33.7470   39.9470 C   0  0  0  0  0  0  0  0  0  0  0  0
   38.6290   34.6680   40.2630 C   0  0  0  0  0  0  0  0  0  0  0  0
   39.9010   34.3890   39.8440 N   0  0  0  0  0  0  0  0  0  0  0  0
   40.1650   33.2770   39.1630 C   0  0  0  0  0  0  0  0  0  0  0  0
   39.1900   32.4040   38.8740 N   0  0  0  0  0  0  0  0  0  0  0  0
   36.6250   33.9450   40.2700 H   0  0  0  0  0  0  0  0  0  0  0  0
   38.4280   35.5680   40.8110 H   0  0  0  0  0  0  0  0  0  0  0  0
   41.5430   32.9820   38.7140 C   0  0  0  0  0  0  0  0  0  0  0  0
   42.2390   33.9380   38.0010 C   0  0  0  0  0  3  0  0  0  0  0  0
   43.5370   33.6070   37.6000 C   0  0  0  0  0  0  0  0  0  0  0  0
   44.0710   34.3640   37.0420 H   0  0  0  0  0  0  0  0  0  0  0  0
   44.0400   32.4010   37.9200 N   0  0  0  0  0  0  0  0  0  0  0  0
   43.3630   31.4710   38.6140 C   0  0  0  0  0  3  0  0  0  0  0  0
   42.1090   31.7960   38.9980 N   0  0  0  0  0  0  0  0  0  0  0  0
  2  1  2  6  0  0  0
  2  5  1  0  0  0  0
  2  3  1  0  0  0  0
  3  4  1  0  0  0  0
  5  7  1  0  0  0  0
  6 11  1  0  0  0  0
  6 14  1  0  0  0  0
  7  6  2  0  0  0  0
  8  9  2  0  0  0  0
  8  7  1  0  0  0  0
  9 10  1  0  0  0  0
 10 13  1  0  0  0  0
 10 11  2  0  0  0  0
 12  8  1  0  0  0  0
 14 16  1  0  0  0  0
 14 17  1  0  0  0  0
 15 14  1  0  0  0  0
 17 18  1  0  0  0  0
 17 19  1  0  0  0  0
 20 17  1  0  0  0  0
 21 22  1  0  0  0  0
 21  2  1  0  0  0  0
 22 23  1  0  0  0  0
 23 24  2  0  0  0  0
 23 28  1  0  0  0  0
 24 29  1  0  0  0  0
 25 24  1  0  0  0  0
 26 25  2  0  0  0  0
 27 26  1  0  0  0  0
 27 22  2  0  0  0  0
 30 36  1  0  0  0  0
 30 26  1  0  0  0  0
 31 30  2  0  0  0  0
 32 34  2  0  0  0  0
 32 31  1  0  0  0  0
 33 32  1  0  0  0  0
 34 35  1  0  0  0  0
 35 36  2  0  0  0  0
M  END
>  <minimizedAffinity>
-5.77040386

$$$$

 OpenBabel03252500593D

 36 38  0  0  0  0  0  0  0  0999 V2000
   34.5670   29.2890   39.7160 O   0  0  0  0  0  0  0  0  0  0  0  0
   35.8370   29.5590   40.5190 P   0  0  1  0  0  0  0  0  0  0  0  0
   35.5430   30.8630   41.5530 O   0  0  0  0  0  0  0  0  0  0  0  0
   36.0870   30.7290   42.3770 H   0  0  0  0  0  0  0  0  0  0  0  0
   36.1960   28.2060   41.4730 O   0  0  0  0  0  0  0  0  0  0  0  0
   37.8930   26.6180   41.8450 C   0  0  0  0  0  0  0  0  0  0  0  0
   37.4270   27.8920   42.0340 C   0  0  0  0  0  0  0  0  0  0  0  0
   38.2220   28.7850   42.7760 C   0  0  0  0  0  0  0  0  0  0  0  0
   39.3930   28.3210   43.2510 N   0  0  0  0  0  0  0  0  0  0  0  0
   39.8250   27.0760   43.0530 C   0  0  0  0  0  0  0  0  0  0  0  0
   39.0690   26.2230   42.3470 N   0  0  0  0  0  0  0  0  0  0  0  0
   37.8320   29.7790   42.9080 H   0  0  0  0  0  0  0  0  0  0  0  0
   40.7790   26.7650   43.4650 H   0  0  0  0  0  0  0  0  0  0  0  0
   37.1200   25.6390   41.0840 C   0  0  0  0  0  0  0  0  0  0  0  0
   37.5700   25.3230   40.1300 H   0  0  0  0  0  0  0  0  0  0  0  0
   36.1160   26.0890   40.9060 H   0  0  0  0  0  0  0  0  0  0  0  0
   36.9120   24.4050   41.9210 C   0  0  0  0  0  0  0  0  0  0  0  0
   36.7880   23.4960   41.2930 H   0  0  0  0  0  0  0  0  0  0  0  0
   36.0960   24.5090   42.6610 H   0  0  0  0  0  0  0  0  0  0  0  0
   37.8360   24.2390   42.5170 H   0  0  0  0  0  0  0  0  0  0  0  0
   37.1040   29.9860   39.4750 O   0  0  0  0  0  0  0  0  0  0  0  0
   37.8160   31.1460   39.7570 C   0  0  0  0  0  0  0  0  0  0  0  0
   37.2390   32.3520   39.3710 C   0  0  0  0  0  0  0  0  0  0  0  0
   37.8470   33.5730   39.5960 C   0  0  0  0  0  0  0  0  0  0  0  0
   39.0620   33.5560   40.2240 N   0  0  0  0  0  0  0  0  0  0  0  0
   39.6200   32.4070   40.5950 C   0  0  0  0  0  0  0  0  0  0  0  0
   39.0040   31.2400   40.3630 N   0  0  0  0  0  0  0  0  0  0  0  0
   36.2690   32.3370   38.8720 H   0  0  0  0  0  0  0  0  0  0  0  0
   37.4060   34.5060   39.3010 H   0  0  0  0  0  0  0  0  0  0  0  0
   40.9340   32.3970   41.2740 C   0  0  0  0  0  0  0  0  0  0  0  0
   41.2120   31.4050   42.1930 C   0  0  0  0  0  3  0  0  0  0  0  0
   42.4690   31.4430   42.8060 C   0  0  0  0  0  0  0  0  0  0  0  0
   42.6730   30.6600   43.5220 H   0  0  0  0  0  0  0  0  0  0  0  0
   43.3310   32.4220   42.4810 N   0  0  0  0  0  0  0  0  0  0  0  0
   43.0610   33.3890   41.5870 C   0  0  0  0  0  3  0  0  0  0  0  0
   41.8460   33.3460   40.9990 N   0  0  0  0  0  0  0  0  0  0  0  0
  2  1  2  6  0  0  0
  2  5  1  0  0  0  0
  2  3  1  0  0  0  0
  3  4  1  0  0  0  0
  5  7  1  0  0  0  0
  6  7  2  0  0  0  0
  6 11  1  0  0  0  0
  7  8  1  0  0  0  0
  8 12  1  0  0  0  0
  8  9  2  0  0  0  0
 10  9  1  0  0  0  0
 10 13  1  0  0  0  0
 11 10  2  0  0  0  0
 14  6  1  0  0  0  0
 14 17  1  0  0  0  0
 15 14  1  0  0  0  0
 16 14  1  0  0  0  0
 17 20  1  0  0  0  0
 17 19  1  0  0  0  0
 18 17  1  0  0  0  0
 21 22  1  0  0  0  0
 21  2  1  0  0  0  0
 22 27  1  0  0  0  0
 23 24  1  0  0  0  0
 23 22  2  0  0  0  0
 24 25  2  0  0  0  0
 25 26  1  0  0  0  0
 26 30  1  0  0  0  0
 27 26  2  0  0  0  0
 28 23  1  0  0  0  0
 29 24  1  0  0  0  0
 30 31  1  0  0  0  0
 31 32  2  0  0  0  0
 32 33  1  0  0  0  0
 34 32  1  0  0  0  0
 35 34  2  0  0  0  0
 36 30  2  0  0  0  0
 36 35  1  0  0  0  0
M  END
>  <minimizedAffinity>
-5.75829029

$$$$

 OpenBabel03252500593D

 36 38  0  0  0  0  0  0  0  0999 V2000
   37.9260   31.3450   38.9050 O   0  0  0  0  0  0  0  0  0  0  0  0
   37.7960   32.0470   40.2540 P   0  0  1  0  0  0  0  0  0  0  0  0
   36.9900   33.5130   40.0130 O   0  0  0  0  0  0  0  0  0  0  0  0
   36.4620   33.7100   40.8360 H   0  0  0  0  0  0  0  0  0  0  0  0
   36.8540   31.0970   41.2930 O   0  0  0  0  0  0  0  0  0  0  0  0
   36.4020   28.7900   41.4290 C   0  0  0  0  0  0  0  0  0  0  0  0
   37.1870   29.8480   41.8030 C   0  0  0  0  0  0  0  0  0  0  0  0
   38.2670   29.5980   42.6690 C   0  0  0  0  0  0  0  0  0  0  0  0
   38.4540   28.3280   43.0730 N   0  0  0  0  0  0  0  0  0  0  0  0
   37.6760   27.3140   42.6940 C   0  0  0  0  0  0  0  0  0  0  0  0
   36.6450   27.5510   41.8690 N   0  0  0  0  0  0  0  0  0  0  0  0
   38.8680   30.4470   42.9460 H   0  0  0  0  0  0  0  0  0  0  0  0
   37.8800   26.3120   43.0570 H   0  0  0  0  0  0  0  0  0  0  0  0
   35.2640   28.9780   40.5320 C   0  0  0  0  0  0  0  0  0  0  0  0
   34.8780   30.0080   40.4710 H   0  0  0  0  0  0  0  0  0  0  0  0
   34.4620   28.2860   40.8780 H   0  0  0  0  0  0  0  0  0  0  0  0
   35.6490   28.5530   39.1400 C   0  0  0  0  0  0  0  0  0  0  0  0
   35.0630   29.0940   38.3660 H   0  0  0  0  0  0  0  0  0  0  0  0
   35.6140   27.4570   38.9910 H   0  0  0  0  0  0  0  0  0  0  0  0
   36.7100   28.8430   38.9760 H   0  0  0  0  0  0  0  0  0  0  0  0
   39.3350   32.3860   40.8830 O   0  0  0  0  0  0  0  0  0  0  0  0
   40.2930   32.8990   40.0160 C   0  0  0  0  0  0  0  0  0  0  0  0
   40.4890   34.2770   40.0360 C   0  0  0  0  0  0  0  0  0  0  0  0
   41.4130   34.9070   39.2220 C   0  0  0  0  0  0  0  0  0  0  0  0
   42.1410   34.1150   38.3780 N   0  0  0  0  0  0  0  0  0  0  0  0
   41.9580   32.7970   38.3530 C   0  0  0  0  0  0  0  0  0  0  0  0
   41.0540   32.2170   39.1560 N   0  0  0  0  0  0  0  0  0  0  0  0
   39.8960   34.8850   40.7190 H   0  0  0  0  0  0  0  0  0  0  0  0
   41.5690   35.9680   39.2340 H   0  0  0  0  0  0  0  0  0  0  0  0
   42.7500   31.9480   37.4380 C   0  0  0  0  0  0  0  0  0  0  0  0
   44.0930   32.2130   37.2640 C   0  0  0  0  0  3  0  0  0  0  0  0
   44.7950   31.3790   36.3870 C   0  0  0  0  0  0  0  0  0  0  0  0
   45.8460   31.5980   36.2590 H   0  0  0  0  0  0  0  0  0  0  0  0
   44.1450   30.3790   35.7670 N   0  0  0  0  0  0  0  0  0  0  0  0
   42.8370   30.1200   35.9360 C   0  0  0  0  0  3  0  0  0  0  0  0
   42.1660   30.9280   36.7840 N   0  0  0  0  0  0  0  0  0  0  0  0
  2  1  2  6  0  0  0
  2 21  1  0  0  0  0
  2  5  1  0  0  0  0
  3  2  1  0  0  0  0
  3  4  1  0  0  0  0
  5  7  1  0  0  0  0
  6  7  2  0  0  0  0
  6 11  1  0  0  0  0
  7  8  1  0  0  0  0
  8 12  1  0  0  0  0
  8  9  2  0  0  0  0
 10 13  1  0  0  0  0
 10  9  1  0  0  0  0
 11 10  2  0  0  0  0
 14 16  1  0  0  0  0
 14  6  1  0  0  0  0
 15 14  1  0  0  0  0
 17 14  1  0  0  0  0
 18 17  1  0  0  0  0
 19 17  1  0  0  0  0
 20 17  1  0  0  0  0
 22 23  1  0  0  0  0
 22 21  1  0  0  0  0
 23 28  1  0  0  0  0
 24 29  1  0  0  0  0
 24 23  2  0  0  0  0
 25 24  1  0  0  0  0
 26 25  2  0  0  0  0
 26 27  1  0  0  0  0
 27 22  2  0  0  0  0
 30 26  1  0  0  0  0
 31 30  1  0  0  0  0
 32 31  2  0  0  0  0
 33 32  1  0  0  0  0
 34 35  2  0  0  0  0
 34 32  1  0  0  0  0
 35 36  1  0  0  0  0
 36 30  2  0  0  0  0
M  END
>  <minimizedAffinity>
-5.74689722

$$$$

 OpenBabel03252500593D

 36 38  0  0  0  0  0  0  0  0999 V2000
   37.2240   29.8660   39.5650 O   0  0  0  0  0  0  0  0  0  0  0  0
   37.0620   30.9850   40.5910 P   0  0  1  0  0  0  0  0  0  0  0  0
   35.5190   30.8640   41.2700 O   0  0  0  0  0  0  0  0  0  0  0  0
   35.5730   31.1850   42.2120 H   0  0  0  0  0  0  0  0  0  0  0  0
   38.1970   30.7780   41.8310 O   0  0  0  0  0  0  0  0  0  0  0  0
   39.8220   29.1370   42.2870 C   0  0  0  0  0  0  0  0  0  0  0  0
   38.5360   29.5830   42.4510 C   0  0  0  0  0  0  0  0  0  0  0  0
   37.6600   28.8050   43.2290 C   0  0  0  0  0  0  0  0  0  0  0  0
   38.1480   27.6690   43.7610 N   0  0  0  0  0  0  0  0  0  0  0  0
   39.4040   27.2570   43.5880 C   0  0  0  0  0  0  0  0  0  0  0  0
   40.2410   27.9970   42.8460 N   0  0  0  0  0  0  0  0  0  0  0  0
   36.6570   29.1780   43.3410 H   0  0  0  0  0  0  0  0  0  0  0  0
   39.7360   26.3300   44.0450 H   0  0  0  0  0  0  0  0  0  0  0  0
   40.7850   29.8950   41.4930 C   0  0  0  0  0  0  0  0  0  0  0  0
   41.8040   29.9410   41.9070 H   0  0  0  0  0  0  0  0  0  0  0  0
   40.3700   30.9230   41.3770 H   0  0  0  0  0  0  0  0  0  0  0  0
   40.8800   29.2960   40.1150 C   0  0  0  0  0  0  0  0  0  0  0  0
   41.8750   29.4780   39.6530 H   0  0  0  0  0  0  0  0  0  0  0  0
   40.0530   29.6020   39.4460 H   0  0  0  0  0  0  0  0  0  0  0  0
   40.7890   28.1920   40.2170 H   0  0  0  0  0  0  0  0  0  0  0  0
   37.1870   32.4960   39.8270 O   0  0  0  0  0  0  0  0  0  0  0  0
   38.4530   33.0510   39.6880 C   0  0  0  0  0  0  0  0  0  0  0  0
   38.6880   34.2590   40.3380 C   0  0  0  0  0  0  0  0  0  0  0  0
   39.9050   34.9110   40.2770 C   0  0  0  0  0  0  0  0  0  0  0  0
   40.8930   34.3170   39.5410 N   0  0  0  0  0  0  0  0  0  0  0  0
   40.6760   33.1620   38.9180 C   0  0  0  0  0  0  0  0  0  0  0  0
   39.4830   32.5550   38.9970 N   0  0  0  0  0  0  0  0  0  0  0  0
   37.8830   34.7120   40.9180 H   0  0  0  0  0  0  0  0  0  0  0  0
   40.0920   35.8430   40.7760 H   0  0  0  0  0  0  0  0  0  0  0  0
   41.7490   32.5250   38.1240 C   0  0  0  0  0  0  0  0  0  0  0  0
   41.4350   31.4770   37.2820 C   0  0  0  0  0  3  0  0  0  0  0  0
   42.4880   30.9110   36.5560 C   0  0  0  0  0  0  0  0  0  0  0  0
   42.2280   30.0920   35.9010 H   0  0  0  0  0  0  0  0  0  0  0  0
   43.7310   31.4020   36.7060 N   0  0  0  0  0  0  0  0  0  0  0  0
   44.0380   32.4210   37.5260 C   0  0  0  0  0  3  0  0  0  0  0  0
   43.0170   32.9630   38.2240 N   0  0  0  0  0  0  0  0  0  0  0  0
  2  1  2  6  0  0  0
  2  3  1  0  0  0  0
  2  5  1  0  0  0  0
  3  4  1  0  0  0  0
  5  7  1  0  0  0  0
  6  7  2  0  0  0  0
  6 11  1  0  0  0  0
  7  8  1  0  0  0  0
  8 12  1  0  0  0  0
  8  9  2  0  0  0  0
 10  9  1  0  0  0  0
 10 13  1  0  0  0  0
 11 10  2  0  0  0  0
 14 15  1  0  0  0  0
 14  6  1  0  0  0  0
 16 14  1  0  0  0  0
 17 20  1  0  0  0  0
 17 14  1  0  0  0  0
 18 17  1  0  0  0  0
 19 17  1  0  0  0  0
 21  2  1  0  0  0  0
 22 21  1  0  0  0  0
 22 23  1  0  0  0  0
 23 28  1  0  0  0  0
 24 23  2  0  0  0  0
 24 29  1  0  0  0  0
 25 24  1  0  0  0  0
 26 27  1  0  0  0  0
 26 25  2  0  0  0  0
 27 22  2  0  0  0  0
 30 36  1  0  0  0  0
 30 26  1  0  0  0  0
 31 30  2  0  0  0  0
 32 34  2  0  0  0  0
 32 31  1  0  0  0  0
 33 32  1  0  0  0  0
 34 35  1  0  0  0  0
 35 36  2  0  0  0  0
M  END
>  <minimizedAffinity>
-5.59646034

$$$$

 OpenBabel03252500593D

 36 38  0  0  0  0  0  0  0  0999 V2000
   35.2020   29.4610   39.2320 O   0  0  0  0  0  0  0  0  0  0  0  0
   36.2910   30.3230   39.8650 P   0  0  1  0  0  0  0  0  0  0  0  0
   35.7040   30.9320   41.3270 O   0  0  0  0  0  0  0  0  0  0  0  0
   36.4760   31.0260   41.9520 H   0  0  0  0  0  0  0  0  0  0  0  0
   37.6420   29.3590   40.2040 O   0  0  0  0  0  0  0  0  0  0  0  0
   39.0280   28.8890   42.0490 C   0  0  0  0  0  0  0  0  0  0  0  0
   37.8690   28.6310   41.3650 C   0  0  0  0  0  0  0  0  0  0  0  0
   36.9980   27.6560   41.8830 C   0  0  0  0  0  0  0  0  0  0  0  0
   37.3670   27.0400   43.0220 N   0  0  0  0  0  0  0  0  0  0  0  0
   38.5000   27.3100   43.6700 C   0  0  0  0  0  0  0  0  0  0  0  0
   39.3320   28.2390   43.1770 N   0  0  0  0  0  0  0  0  0  0  0  0
   36.0950   27.4730   41.3270 H   0  0  0  0  0  0  0  0  0  0  0  0
   38.7390   26.7760   44.5840 H   0  0  0  0  0  0  0  0  0  0  0  0
   39.9770   29.8900   41.5680 C   0  0  0  0  0  0  0  0  0  0  0  0
   39.8860   30.1500   40.5020 H   0  0  0  0  0  0  0  0  0  0  0  0
   40.9980   29.4960   41.7820 H   0  0  0  0  0  0  0  0  0  0  0  0
   39.8130   31.1590   42.3620 C   0  0  0  0  0  0  0  0  0  0  0  0
   40.1130   32.0540   41.7760 H   0  0  0  0  0  0  0  0  0  0  0  0
   40.3130   31.1260   43.3490 H   0  0  0  0  0  0  0  0  0  0  0  0
   38.7300   31.2860   42.5800 H   0  0  0  0  0  0  0  0  0  0  0  0
   36.6540   31.6350   38.8520 O   0  0  0  0  0  0  0  0  0  0  0  0
   37.8040   32.3680   39.1250 C   0  0  0  0  0  0  0  0  0  0  0  0
   37.6540   33.5120   39.9040 C   0  0  0  0  0  0  0  0  0  0  0  0
   38.7200   34.3240   40.2440 C   0  0  0  0  0  0  0  0  0  0  0  0
   39.9520   33.9580   39.7790 N   0  0  0  0  0  0  0  0  0  0  0  0
   40.1030   32.8670   39.0340 C   0  0  0  0  0  0  0  0  0  0  0  0
   39.0490   32.1000   38.7220 N   0  0  0  0  0  0  0  0  0  0  0  0
   36.6590   33.7800   40.2620 H   0  0  0  0  0  0  0  0  0  0  0  0
   38.6100   35.2060   40.8450 H   0  0  0  0  0  0  0  0  0  0  0  0
   41.4410   32.4780   38.5360 C   0  0  0  0  0  0  0  0  0  0  0  0
   41.5610   31.9550   37.2640 C   0  0  0  0  0  3  0  0  0  0  0  0
   42.8480   31.6040   36.8430 C   0  0  0  0  0  0  0  0  0  0  0  0
   42.9280   31.1960   35.8450 H   0  0  0  0  0  0  0  0  0  0  0  0
   43.8870   31.7870   37.6760 N   0  0  0  0  0  0  0  0  0  0  0  0
   43.7710   32.2960   38.9150 C   0  0  0  0  0  3  0  0  0  0  0  0
   42.5260   32.6330   39.3150 N   0  0  0  0  0  0  0  0  0  0  0  0
  2  1  2  6  0  0  0
  2  5  1  0  0  0  0
  2  3  1  0  0  0  0
  3  4  1  0  0  0  0
  5  7  1  0  0  0  0
  6 11  1  0  0  0  0
  7  8  1  0  0  0  0
  7  6  2  0  0  0  0
  8  9  2  0  0  0  0
  9 10  1  0  0  0  0
 10 13  1  0  0  0  0
 11 10  2  0  0  0  0
 12  8  1  0  0  0  0
 14 16  1  0  0  0  0
 14  6  1  0  0  0  0
 14 17  1  0  0  0  0
 15 14  1  0  0  0  0
 17 20  1  0  0  0  0
 17 19  1  0  0  0  0
 18 17  1  0  0  0  0
 21 22  1  0  0  0  0
 21  2  1  0  0  0  0
 22 23  1  0  0  0  0
 23 24  2  0  0  0  0
 23 28  1  0  0  0  0
 24 29  1  0  0  0  0
 25 24  1  0  0  0  0
 26 25  2  0  0  0  0
 27 26  1  0  0  0  0
 27 22  2  0  0  0  0
 30 26  1  0  0  0  0
 30 36  1  0  0  0  0
 31 30  2  0  0  0  0
 32 31  1  0  0  0  0
 32 34  2  0  0  0  0
 33 32  1  0  0  0  0
 34 35  1  0  0  0  0
 35 36  2  0  0  0  0
M  END
>  <minimizedAffinity>
-5.56045389

$$$$

 OpenBabel03252500593D

 36 38  0  0  0  0  0  0  0  0999 V2000
   35.0470   28.9000   40.5680 O   0  0  0  0  0  0  0  0  0  0  0  0
   36.4340   28.8590   41.2030 P   0  0  1  0  0  0  0  0  0  0  0  0
   37.5350   28.3240   40.0390 O   0  0  0  0  0  0  0  0  0  0  0  0
   38.4120   28.7600   40.2230 H   0  0  0  0  0  0  0  0  0  0  0  0
   36.8840   30.4250   41.6680 O   0  0  0  0  0  0  0  0  0  0  0  0
   38.9960   31.4190   41.3580 C   0  0  0  0  0  0  0  0  0  0  0  0
   37.6920   31.3000   40.9530 C   0  0  0  0  0  0  0  0  0  0  0  0
   37.2680   32.0660   39.8530 C   0  0  0  0  0  0  0  0  0  0  0  0
   38.1780   32.8680   39.2700 N   0  0  0  0  0  0  0  0  0  0  0  0
   39.4420   32.9660   39.6810 C   0  0  0  0  0  0  0  0  0  0  0  0
   39.8490   32.2370   40.7310 N   0  0  0  0  0  0  0  0  0  0  0  0
   36.2400   31.9530   39.5560 H   0  0  0  0  0  0  0  0  0  0  0  0
   40.1270   33.6320   39.1680 H   0  0  0  0  0  0  0  0  0  0  0  0
   39.5040   30.6530   42.4940 C   0  0  0  0  0  0  0  0  0  0  0  0
   39.4620   29.5590   42.3790 H   0  0  0  0  0  0  0  0  0  0  0  0
   38.9150   30.9690   43.3850 H   0  0  0  0  0  0  0  0  0  0  0  0
   40.9380   31.0300   42.7510 C   0  0  0  0  0  0  0  0  0  0  0  0
   41.5050   30.2000   43.2260 H   0  0  0  0  0  0  0  0  0  0  0  0
   41.0490   31.9780   43.3120 H   0  0  0  0  0  0  0  0  0  0  0  0
   41.4260   31.2070   41.7670 H   0  0  0  0  0  0  0  0  0  0  0  0
   36.4500   27.7570   42.4930 O   0  0  0  0  0  0  0  0  0  0  0  0
   37.4290   26.7710   42.4940 C   0  0  0  0  0  0  0  0  0  0  0  0
   37.0500   25.5040   42.0600 C   0  0  0  0  0  0  0  0  0  0  0  0
   37.9310   24.4400   42.0140 C   0  0  0  0  0  0  0  0  0  0  0  0
   39.2160   24.6790   42.4180 N   0  0  0  0  0  0  0  0  0  0  0  0
   39.5850   25.8870   42.8340 C   0  0  0  0  0  0  0  0  0  0  0  0
   38.7060   26.8980   42.8660 N   0  0  0  0  0  0  0  0  0  0  0  0
   36.0190   25.3410   41.7430 H   0  0  0  0  0  0  0  0  0  0  0  0
   37.6450   23.4610   41.6800 H   0  0  0  0  0  0  0  0  0  0  0  0
   40.9770   26.1370   43.2680 C   0  0  0  0  0  0  0  0  0  0  0  0
   41.2950   27.3480   43.8490 C   0  0  0  0  0  3  0  0  0  0  0  0
   42.6250   27.5330   44.2410 C   0  0  0  0  0  0  0  0  0  0  0  0
   42.8600   28.4850   44.6940 H   0  0  0  0  0  0  0  0  0  0  0  0
   43.5150   26.5440   44.0390 N   0  0  0  0  0  0  0  0  0  0  0  0
   43.2060   25.3660   43.4730 C   0  0  0  0  0  3  0  0  0  0  0  0
   41.9200   25.1940   43.0980 N   0  0  0  0  0  0  0  0  0  0  0  0
  2  1  2  6  0  0  0
  2  5  1  0  0  0  0
  2 21  1  0  0  0  0
  3  4  1  0  0  0  0
  3  2  1  0  0  0  0
  6 14  1  0  0  0  0
  7  6  1  0  0  0  0
  7  5  1  0  0  0  0
  8  7  2  0  0  0  0
  9 10  2  0  0  0  0
  9  8  1  0  0  0  0
 10 11  1  0  0  0  0
 11  6  2  0  0  0  0
 12  8  1  0  0  0  0
 13 10  1  0  0  0  0
 14 17  1  0  0  0  0
 14 16  1  0  0  0  0
 15 14  1  0  0  0  0
 17 18  1  0  0  0  0
 17 19  1  0  0  0  0
 20 17  1  0  0  0  0
 21 22  1  0  0  0  0
 22 27  1  0  0  0  0
 23 22  2  0  0  0  0
 24 23  1  0  0  0  0
 24 25  2  0  0  0  0
 25 26  1  0  0  0  0
 26 27  2  0  0  0  0
 26 30  1  0  0  0  0
 28 23  1  0  0  0  0
 29 24  1  0  0  0  0
 30 31  1  0  0  0  0
 31 32  2  0  0  0  0
 32 33  1  0  0  0  0
 34 32  1  0  0  0  0
 35 34  2  0  0  0  0
 36 30  2  0  0  0  0
 36 35  1  0  0  0  0
M  END
>  <minimizedAffinity>
-5.30261707

$$$$

 OpenBabel03252500593D

 36 38  0  0  0  0  0  0  0  0999 V2000
   35.8150   27.9730   40.3730 O   0  0  0  0  0  0  0  0  0  0  0  0
   36.8120   28.6400   41.3170 P   0  0  1  0  0  0  0  0  0  0  0  0
   36.3400   28.3120   42.9060 O   0  0  0  0  0  0  0  0  0  0  0  0
   37.1640   28.2630   43.4650 H   0  0  0  0  0  0  0  0  0  0  0  0
   38.3480   27.9680   41.0770 O   0  0  0  0  0  0  0  0  0  0  0  0
   39.0620   25.9900   42.1360 C   0  0  0  0  0  0  0  0  0  0  0  0
   39.1420   27.3540   42.0380 C   0  0  0  0  0  0  0  0  0  0  0  0
   40.0150   28.0310   42.9090 C   0  0  0  0  0  0  0  0  0  0  0  0
   40.7150   27.2850   43.7840 N   0  0  0  0  0  0  0  0  0  0  0  0
   40.6210   25.9570   43.8590 C   0  0  0  0  0  0  0  0  0  0  0  0
   39.7880   25.3110   43.0300 N   0  0  0  0  0  0  0  0  0  0  0  0
   40.0590   29.1010   42.8100 H   0  0  0  0  0  0  0  0  0  0  0  0
   41.2130   25.4150   44.5890 H   0  0  0  0  0  0  0  0  0  0  0  0
   38.1760   25.2240   41.2620 C   0  0  0  0  0  0  0  0  0  0  0  0
   38.6460   24.3740   40.7440 H   0  0  0  0  0  0  0  0  0  0  0  0
   37.7550   25.9420   40.5210 H   0  0  0  0  0  0  0  0  0  0  0  0
   37.0220   24.6860   42.0660 C   0  0  0  0  0  0  0  0  0  0  0  0
   36.6130   23.7510   41.6260 H   0  0  0  0  0  0  0  0  0  0  0  0
   36.2290   25.4360   42.2510 H   0  0  0  0  0  0  0  0  0  0  0  0
   37.4080   24.4060   43.0710 H   0  0  0  0  0  0  0  0  0  0  0  0
   36.7850   30.3220   41.0940 O   0  0  0  0  0  0  0  0  0  0  0  0
   37.4360   30.8410   39.9800 C   0  0  0  0  0  0  0  0  0  0  0  0
   36.8610   30.5880   38.7380 C   0  0  0  0  0  0  0  0  0  0  0  0
   37.4120   31.0490   37.5570 C   0  0  0  0  0  0  0  0  0  0  0  0
   38.5650   31.7770   37.6510 N   0  0  0  0  0  0  0  0  0  0  0  0
   39.1210   32.0220   38.8350 C   0  0  0  0  0  0  0  0  0  0  0  0
   38.5620   31.5600   39.9620 N   0  0  0  0  0  0  0  0  0  0  0  0
   35.9400   30.0060   38.6910 H   0  0  0  0  0  0  0  0  0  0  0  0
   36.9720   30.8590   36.5970 H   0  0  0  0  0  0  0  0  0  0  0  0
   40.3690   32.8100   38.9280 C   0  0  0  0  0  0  0  0  0  0  0  0
   41.1630   32.9520   37.8080 C   0  0  0  0  0  3  0  0  0  0  0  0
   42.3320   33.7070   37.9510 C   0  0  0  0  0  0  0  0  0  0  0  0
   42.9440   33.8100   37.0670 H   0  0  0  0  0  0  0  0  0  0  0  0
   42.6240   34.2480   39.1480 N   0  0  0  0  0  0  0  0  0  0  0  0
   41.8520   34.1090   40.2390 C   0  0  0  0  0  3  0  0  0  0  0  0
   40.7250   33.3800   40.0930 N   0  0  0  0  0  0  0  0  0  0  0  0
  2  1  2  6  0  0  0
  2  3  1  0  0  0  0
  3  4  1  0  0  0  0
  5  2  1  0  0  0  0
  5  7  1  0  0  0  0
  6 11  1  0  0  0  0
  7  6  2  0  0  0  0
  7  8  1  0  0  0  0
  8  9  2  0  0  0  0
  9 10  1  0  0  0  0
 10 13  1  0  0  0  0
 11 10  2  0  0  0  0
 12  8  1  0  0  0  0
 14 17  1  0  0  0  0
 14  6  1  0  0  0  0
 15 14  1  0  0  0  0
 16 14  1  0  0  0  0
 17 19  1  0  0  0  0
 17 20  1  0  0  0  0
 18 17  1  0  0  0  0
 21  2  1  0  0  0  0
 22 21  1  0  0  0  0
 23 22  2  0  0  0  0
 24 25  2  0  0  0  0
 24 23  1  0  0  0  0
 25 26  1  0  0  0  0
 26 30  1  0  0  0  0
 26 27  2  0  0  0  0
 27 22  1  0  0  0  0
 28 23  1  0  0  0  0
 29 24  1  0  0  0  0
 30 36  1  0  0  0  0
 31 32  1  0  0  0  0
 31 30  2  0  0  0  0
 32 34  2  0  0  0  0
 33 32  1  0  0  0  0
 34 35  1  0  0  0  0
 36 35  2  0  0  0  0
M  END
>  <minimizedAffinity>
-5.25302029

$$$$

 OpenBabel03252500593D

 36 38  0  0  0  0  0  0  0  0999 V2000
   36.5920   31.1570   38.8730 O   0  0  0  0  0  0  0  0  0  0  0  0
   37.0020   31.0780   40.3420 P   0  0  1  0  0  0  0  0  0  0  0  0
   35.6020   30.9220   41.2760 O   0  0  0  0  0  0  0  0  0  0  0  0
   35.8300   30.3780   42.0800 H   0  0  0  0  0  0  0  0  0  0  0  0
   37.9500   29.6950   40.5850 O   0  0  0  0  0  0  0  0  0  0  0  0
   37.4130   27.6120   41.5430 C   0  0  0  0  0  0  0  0  0  0  0  0
   37.5510   28.3760   40.4140 C   0  0  0  0  0  0  0  0  0  0  0  0
   37.2790   27.7760   39.1710 C   0  0  0  0  0  0  0  0  0  0  0  0
   36.9010   26.4840   39.1780 N   0  0  0  0  0  0  0  0  0  0  0  0
   36.7730   25.7620   40.2910 C   0  0  0  0  0  0  0  0  0  0  0  0
   37.0320   26.3320   41.4770 N   0  0  0  0  0  0  0  0  0  0  0  0
   37.3950   28.3980   38.3010 H   0  0  0  0  0  0  0  0  0  0  0  0
   36.4640   24.7230   40.2280 H   0  0  0  0  0  0  0  0  0  0  0  0
   37.6780   28.1730   42.8660 C   0  0  0  0  0  0  0  0  0  0  0  0
   36.8280   28.1470   43.5660 H   0  0  0  0  0  0  0  0  0  0  0  0
   38.0170   29.2230   42.7100 H   0  0  0  0  0  0  0  0  0  0  0  0
   38.8180   27.4270   43.5070 C   0  0  0  0  0  0  0  0  0  0  0  0
   38.7540   27.4480   44.6160 H   0  0  0  0  0  0  0  0  0  0  0  0
   39.8120   27.7520   43.1450 H   0  0  0  0  0  0  0  0  0  0  0  0
   38.7300   26.3570   43.2170 H   0  0  0  0  0  0  0  0  0  0  0  0
   37.7890   32.5080   40.8020 O   0  0  0  0  0  0  0  0  0  0  0  0
   39.1770   32.4900   40.8810 C   0  0  0  0  0  0  0  0  0  0  0  0
   39.8680   33.3670   40.0490 C   0  0  0  0  0  0  0  0  0  0  0  0
   41.2480   33.4440   40.0350 C   0  0  0  0  0  0  0  0  0  0  0  0
   41.9270   32.6110   40.8810 N   0  0  0  0  0  0  0  0  0  0  0  0
   41.2730   31.7700   41.6780 C   0  0  0  0  0  0  0  0  0  0  0  0
   39.9330   31.7200   41.6680 N   0  0  0  0  0  0  0  0  0  0  0  0
   39.3030   34.0210   39.3840 H   0  0  0  0  0  0  0  0  0  0  0  0
   41.7870   34.1190   39.3970 H   0  0  0  0  0  0  0  0  0  0  0  0
   42.0140   30.8730   42.5910 C   0  0  0  0  0  0  0  0  0  0  0  0
   43.0020   31.3990   43.3990 C   0  0  0  0  0  3  0  0  0  0  0  0
   43.6720   30.5070   44.2420 C   0  0  0  0  0  0  0  0  0  0  0  0
   44.4430   30.9320   44.8690 H   0  0  0  0  0  0  0  0  0  0  0  0
   43.3310   29.2060   44.2300 N   0  0  0  0  0  0  0  0  0  0  0  0
   42.3700   28.6930   43.4430 C   0  0  0  0  0  3  0  0  0  0  0  0
   41.7270   29.5600   42.6310 N   0  0  0  0  0  0  0  0  0  0  0  0
  2  1  2  6  0  0  0
  2  5  1  0  0  0  0
  2 21  1  0  0  0  0
  2  3  1  0  0  0  0
  3  4  1  0  0  0  0
  6 14  1  0  0  0  0
  7  5  1  0  0  0  0
  7  6  2  0  0  0  0
  8  9  2  0  0  0  0
  8  7  1  0  0  0  0
  9 10  1  0  0  0  0
 10 11  2  0  0  0  0
 11  6  1  0  0  0  0
 12  8  1  0  0  0  0
 13 10  1  0  0  0  0
 14 17  1  0  0  0  0
 14 15  1  0  0  0  0
 16 14  1  0  0  0  0
 17 18  1  0  0  0  0
 19 17  1  0  0  0  0
 20 17  1  0  0  0  0
 21 22  1  0  0  0  0
 22 27  1  0  0  0  0
 23 22  2  0  0  0  0
 24 23  1  0  0  0  0
 24 25  2  0  0  0  0
 25 26  1  0  0  0  0
 26 30  1  0  0  0  0
 27 26  2  0  0  0  0
 28 23  1  0  0  0  0
 29 24  1  0  0  0  0
 30 36  2  0  0  0  0
 30 31  1  0  0  0  0
 31 32  2  0  0  0  0
 32 33  1  0  0  0  0
 34 32  1  0  0  0  0
 35 34  2  0  0  0  0
 36 35  1  0  0  0  0
M  END
>  <minimizedAffinity>
-5.19054508

$$$$
