REMARK  Name = 
REMARK  2 active torsions:
REMARK  status: ('A' for Active; 'I' for Inactive)
REMARK    1  A    between atoms: C_2  and  N_7
REMARK    2  A    between atoms: C_8  and  C_24
REMARK                            x       y       z     vdW  Elec       q    Type
REMARK                         _______ _______ _______ _____ _____    ______ ____
ROOT
ATOM      1  N   UNL     1      44.275  34.375  41.983  0.00  0.00    +0.000 N 
ATOM      2  C   UNL     1      44.445  33.404  40.966  0.00  0.00    +0.000 C 
ATOM      3  C   UNL     1      43.790  33.692  39.671  0.00  0.00    +0.000 C 
ATOM      4  N   UNL     1      42.609  34.445  39.678  0.00  0.00    +0.000 NA
ATOM      5  C   UNL     1      42.375  35.311  40.754  0.00  0.00    +0.000 C 
ATOM      6  C   UNL     1      43.640  35.575  41.538  0.00  0.00    +0.000 C 
ATOM      7  H   UNL     1      44.065  32.425  41.355  0.00  0.00    +0.000 HD
ATOM      8  H   UNL     1      44.532  34.221  38.998  0.00  0.00    +0.000 HD
ATOM      9  H   UNL     1      43.611  32.724  39.131  0.00  0.00    +0.000 HD
ATOM     10  H   UNL     1      42.499  34.947  38.767  0.00  0.00    +0.000 HD
ATOM     11  H   UNL     1      41.589  34.856  41.408  0.00  0.00    +0.000 HD
ATOM     12  H   UNL     1      41.975  36.306  40.431  0.00  0.00    +0.000 HD
ATOM     13  H   UNL     1      43.482  36.359  42.281  0.00  0.00    +0.000 HD
ATOM     14  H   UNL     1      44.330  36.057  40.774  0.00  0.00    +0.000 HD
ENDROOT
BRANCH   1  16
ATOM     15  C   UNL     1      44.617  35.131  44.218  0.00  0.00    +0.000 A 
ATOM     16  C   UNL     1      44.737  34.110  43.281  0.00  0.00    +0.000 A 
ATOM     17  C   UNL     1      45.328  32.907  43.691  0.00  0.00    +0.000 A 
ATOM     18  N   UNL     1      45.767  32.758  44.971  0.00  0.00    +0.000 NA
ATOM     19  C   UNL     1      45.631  33.783  45.859  0.00  0.00    +0.000 A 
ATOM     20  N   UNL     1      45.066  34.948  45.488  0.00  0.00    +0.000 NA
ATOM     21  H   UNL     1      44.199  36.117  44.109  0.00  0.00    +0.000 HD
ATOM     22  H   UNL     1      45.423  32.115  42.996  0.00  0.00    +0.000 HD
ATOM     23  H   UNL     1      46.004  33.599  46.867  0.00  0.00    +0.000 HD
ENDBRANCH   1  16
BRANCH   2  24
ATOM     24  C   UNL     1      45.904  33.167  40.647  0.00  0.00    +0.000 A 
ATOM     25  C   UNL     1      46.931  32.673  41.420  0.00  0.00    +0.000 A 
ATOM     26  C   UNL     1      48.177  32.566  40.855  0.00  0.00    +0.000 A 
ATOM     27  H   UNL     1      48.925  32.169  41.534  0.00  0.00    +0.000 HD
ATOM     28  N   UNL     1      48.381  32.936  39.578  0.00  0.00    +0.000 NA
ATOM     29  C   UNL     1      47.384  33.410  38.844  0.00  0.00    +0.000 A 
ATOM     30  N   UNL     1      46.136  33.536  39.354  0.00  0.00    +0.000 NA
ENDBRANCH   2  24
TORSDOF 2
