
 OpenBabel03252508323D

 30 32  0  0  1  0  0  0  0  0999 V2000
   44.3670   34.3570   41.9800 N   0  0  0  0  0  0  0  0  0  0  0  0
   44.6060   33.3880   40.9750 C   0  0  1  0  0  0  0  0  0  0  0  0
   44.0070   33.6590   39.6490 C   0  0  0  0  0  0  0  0  0  0  0  0
   42.8110   34.3860   39.5980 N   0  0  0  0  0  0  0  0  0  0  0  0
   42.5070   35.2490   40.6590 C   0  0  0  0  0  0  0  0  0  0  0  0
   43.7280   35.5420   41.5020 C   0  0  0  0  0  0  0  0  0  0  0  0
   44.2290   32.4020   41.3480 H   0  0  0  0  0  0  0  0  0  0  0  0
   44.7680   34.2030   39.0110 H   0  0  0  0  0  0  0  0  0  0  0  0
   43.8740   32.6870   39.1040 H   0  0  0  0  0  0  0  0  0  0  0  0
   42.7330   34.8840   38.6810 H   0  0  0  0  0  0  0  0  0  0  0  0
   41.7010   34.7780   41.2770 H   0  0  0  0  0  0  0  0  0  0  0  0
   42.1020   36.2350   40.3150 H   0  0  0  0  0  0  0  0  0  0  0  0
   43.5180   36.3240   42.2340 H   0  0  0  0  0  0  0  0  0  0  0  0
   44.4420   36.0380   40.7700 H   0  0  0  0  0  0  0  0  0  0  0  0
   44.6420   35.1450   44.2130 C   0  0  0  0  0  0  0  0  0  0  0  0
   44.7720   34.1050   43.2990 C   0  0  0  0  0  0  0  0  0  0  0  0
   45.3170   32.8960   43.7520 C   0  0  0  0  0  0  0  0  0  0  0  0
   45.7030   32.7590   45.0500 N   0  0  0  0  0  0  0  0  0  0  0  0
   45.5590   33.8030   45.9150 C   0  0  0  0  0  0  0  0  0  0  0  0
   45.0380   34.9750   45.5020 N   0  0  0  0  0  0  0  0  0  0  0  0
   44.2530   36.1390   44.0710 H   0  0  0  0  0  0  0  0  0  0  0  0
   45.4190   32.0890   43.0750 H   0  0  0  0  0  0  0  0  0  0  0  0
   45.8890   33.6290   46.9390 H   0  0  0  0  0  0  0  0  0  0  0  0
   46.0830   33.1820   40.7260 C   0  0  0  0  0  0  0  0  0  0  0  0
   46.8290   32.0300   40.6150 C   0  0  0  0  0  3  0  0  0  0  0  0
   48.1770   32.1480   40.3830 C   0  0  0  0  0  0  0  0  0  0  0  0
   48.6860   31.1930   40.3100 H   0  0  0  0  0  0  0  0  0  0  0  0
   48.7450   33.3620   40.2670 N   0  0  0  0  0  0  0  0  0  0  0  0
   48.0150   34.4630   40.3750 C   0  0  0  0  0  3  0  0  0  0  0  0
   46.6820   34.4010   40.6050 N   0  0  0  0  0  0  0  0  0  0  0  0
  1 16  1  0  0  0  0
  2  7  1  1  0  0  0
  2  1  1  0  0  0  0
  3  2  1  0  0  0  0
  4  3  1  0  0  0  0
  4  5  1  0  0  0  0
  5 11  1  0  0  0  0
  5  6  1  0  0  0  0
  6  1  1  0  0  0  0
  6 13  1  0  0  0  0
  8  3  1  0  0  0  0
  9  3  1  0  0  0  0
 10  4  1  0  0  0  0
 12  5  1  0  0  0  0
 14  6  1  0  0  0  0
 15 20  1  0  0  0  0
 16 17  1  0  0  0  0
 16 15  2  0  0  0  0
 17 18  2  0  0  0  0
 18 19  1  0  0  0  0
 19 23  1  0  0  0  0
 20 19  2  0  0  0  0
 21 15  1  0  0  0  0
 22 17  1  0  0  0  0
 24  2  1  0  0  0  0
 25 24  1  0  0  0  0
 26 25  2  0  0  0  0
 27 26  1  0  0  0  0
 28 29  2  0  0  0  0
 28 26  1  0  0  0  0
 29 30  1  0  0  0  0
 30 24  2  0  0  0  0
M  END
>  <minimizedAffinity>
-4.21188927

>  <minimizedRMSD>
0.250903815

$$$$
