
 OpenBabel03242517093D

 32 34  0  0  1  0  0  0  0  0999 V2000
   36.5450   30.2210   40.1920 C   0  0  2  0  0  0  0  0  0  0  0  0
   36.9850   29.6130   38.9190 C   0  0  2  0  0  0  0  0  0  0  0  0
   38.0780   30.3730   38.2360 C   0  0  0  0  0  0  0  0  0  0  0  0
   37.7470   31.8420   38.0340 C   0  0  0  0  0  0  0  0  0  0  0  0
   37.0200   32.4620   39.1940 C   0  0  0  0  0  0  0  0  0  0  0  0
   37.1200   31.6090   40.4380 C   0  0  0  0  0  0  0  0  0  0  0  0
   35.4340   30.3620   40.2490 H   0  0  0  0  0  0  0  0  0  0  0  0
   37.4240   28.6020   39.1490 H   0  0  0  0  0  0  0  0  0  0  0  0
   39.0870   30.2240   38.6080 H   0  0  0  0  0  0  0  0  0  0  0  0
   38.1060   29.9630   37.1810 H   0  0  0  0  0  0  0  0  0  0  0  0
   38.7490   32.3610   37.9690 H   0  0  0  0  0  0  0  0  0  0  0  0
   37.2400   32.0420   37.0760 H   0  0  0  0  0  0  0  0  0  0  0  0
   37.3330   33.4800   39.4230 H   0  0  0  0  0  0  0  0  0  0  0  0
   35.9350   32.5290   38.9270 H   0  0  0  0  0  0  0  0  0  0  0  0
   36.5330   32.0690   41.2420 H   0  0  0  0  0  0  0  0  0  0  0  0
   38.2030   31.5100   40.6640 H   0  0  0  0  0  0  0  0  0  0  0  0
   36.8960   29.3900   41.3590 C   0  0  0  0  0  0  0  0  0  0  0  0
   38.0090   29.8190   42.1070 C   0  0  0  0  0  0  0  0  0  0  0  0
   38.4340   29.1090   43.2350 C   0  0  0  0  0  0  0  0  0  0  0  0
   37.7000   27.9870   43.5490 N   0  0  0  0  0  0  0  0  0  0  0  0
   36.6310   27.5950   42.8120 C   0  0  0  0  0  0  0  0  0  0  0  0
   36.2290   28.2930   41.7210 N   0  0  0  0  0  0  0  0  0  0  0  0
   38.6390   30.6790   41.9340 H   0  0  0  0  0  0  0  0  0  0  0  0
   39.2610   29.3690   43.8460 H   0  0  0  0  0  0  0  0  0  0  0  0
   36.1060   26.6930   43.1360 H   0  0  0  0  0  0  0  0  0  0  0  0
   35.8470   29.3330   38.0040 C   0  0  0  0  0  0  0  0  0  0  0  0
   34.5810   29.0940   38.5510 C   0  0  0  0  0  3  0  0  0  0  0  0
   33.5630   28.8390   37.6260 C   0  0  0  0  0  0  0  0  0  0  0  0
   32.5540   28.6470   38.0060 H   0  0  0  0  0  0  0  0  0  0  0  0
   33.7020   28.8070   36.2910 N   0  0  0  0  0  0  0  0  0  0  0  0
   34.9530   29.0450   35.8160 C   0  0  0  0  0  3  0  0  0  0  0  0
   35.9670   29.2960   36.6630 N   0  0  0  0  0  0  0  0  0  0  0  0
  1  7  1  6  0  0  0
  1  6  1  0  0  0  0
  1 17  1  0  0  0  0
  2  8  1  1  0  0  0
  2  1  1  0  0  0  0
  3  9  1  0  0  0  0
  3  2  1  0  0  0  0
  4  3  1  0  0  0  0
  4  5  1  0  0  0  0
  5 13  1  0  0  0  0
  5  6  1  0  0  0  0
  6 16  1  0  0  0  0
  6 15  1  0  0  0  0
 10  3  1  0  0  0  0
 11  4  1  0  0  0  0
 12  4  1  0  0  0  0
 14  5  1  0  0  0  0
 17 22  2  0  0  0  0
 17 18  1  0  0  0  0
 18 19  2  0  0  0  0
 19 20  1  0  0  0  0
 19 24  1  0  0  0  0
 21 25  1  0  0  0  0
 21 20  2  0  0  0  0
 22 21  1  0  0  0  0
 23 18  1  0  0  0  0
 26 27  1  0  0  0  0
 26  2  1  0  0  0  0
 28 29  1  0  0  0  0
 28 27  2  0  0  0  0
 30 28  1  0  0  0  0
 31 30  2  0  0  0  0
 31 32  1  0  0  0  0
 32 26  2  0  0  0  0
M  END
>  <minimizedAffinity>
-4.98075628

$$$$

 OpenBabel03242517093D

 32 34  0  0  1  0  0  0  0  0999 V2000
   37.3920   30.2130   40.9900 C   0  0  2  0  0  0  0  0  0  0  0  0
   38.1140   29.0670   40.4000 C   0  0  2  0  0  0  0  0  0  0  0  0
   37.3800   28.4090   39.2730 C   0  0  0  0  0  0  0  0  0  0  0  0
   35.9600   28.0110   39.6380 C   0  0  0  0  0  0  0  0  0  0  0  0
   35.2530   29.0170   40.5020 C   0  0  0  0  0  0  0  0  0  0  0  0
   35.9590   30.3540   40.4960 C   0  0  0  0  0  0  0  0  0  0  0  0
   37.3010   30.1460   42.1050 H   0  0  0  0  0  0  0  0  0  0  0  0
   39.0700   29.4510   39.9470 H   0  0  0  0  0  0  0  0  0  0  0  0
   37.4370   28.8920   38.3030 H   0  0  0  0  0  0  0  0  0  0  0  0
   37.9010   27.4160   39.1230 H   0  0  0  0  0  0  0  0  0  0  0  0
   35.4020   27.9840   38.6560 H   0  0  0  0  0  0  0  0  0  0  0  0
   35.8920   26.9910   40.0530 H   0  0  0  0  0  0  0  0  0  0  0  0
   34.2020   29.1570   40.2540 H   0  0  0  0  0  0  0  0  0  0  0  0
   35.2700   28.6400   41.5570 H   0  0  0  0  0  0  0  0  0  0  0  0
   35.4440   31.0390   41.1790 H   0  0  0  0  0  0  0  0  0  0  0  0
   35.9790   30.6930   39.4390 H   0  0  0  0  0  0  0  0  0  0  0  0
   38.0720   31.4960   40.7260 C   0  0  0  0  0  0  0  0  0  0  0  0
   37.2880   32.4940   40.1190 C   0  0  0  0  0  0  0  0  0  0  0  0
   37.8260   33.7510   39.8230 C   0  0  0  0  0  0  0  0  0  0  0  0
   39.1490   33.9320   40.1610 N   0  0  0  0  0  0  0  0  0  0  0  0
   39.8830   32.9520   40.7460 C   0  0  0  0  0  0  0  0  0  0  0  0
   39.3480   31.7390   41.0280 N   0  0  0  0  0  0  0  0  0  0  0  0
   36.2500   32.4410   39.8200 H   0  0  0  0  0  0  0  0  0  0  0  0
   37.3000   34.5510   39.3670 H   0  0  0  0  0  0  0  0  0  0  0  0
   40.9250   33.1840   40.9810 H   0  0  0  0  0  0  0  0  0  0  0  0
   38.5480   28.0840   41.4270 C   0  0  0  0  0  0  0  0  0  0  0  0
   38.2110   28.3110   42.7660 C   0  0  0  0  0  3  0  0  0  0  0  0
   38.6550   27.3420   43.6730 C   0  0  0  0  0  0  0  0  0  0  0  0
   38.4150   27.4760   44.7330 H   0  0  0  0  0  0  0  0  0  0  0  0
   39.3600   26.2410   43.3670 N   0  0  0  0  0  0  0  0  0  0  0  0
   39.6600   26.0720   42.0510 C   0  0  0  0  0  3  0  0  0  0  0  0
   39.2560   26.9750   41.1390 N   0  0  0  0  0  0  0  0  0  0  0  0
  1  7  1  1  0  0  0
  2  8  1  6  0  0  0
  2  1  1  0  0  0  0
  2 26  1  0  0  0  0
  3  4  1  0  0  0  0
  3  2  1  0  0  0  0
  4 12  1  0  0  0  0
  4  5  1  0  0  0  0
  5 14  1  0  0  0  0
  6  5  1  0  0  0  0
  6  1  1  0  0  0  0
  6 15  1  0  0  0  0
  9  3  1  0  0  0  0
 10  3  1  0  0  0  0
 11  4  1  0  0  0  0
 13  5  1  0  0  0  0
 16  6  1  0  0  0  0
 17  1  1  0  0  0  0
 17 22  1  0  0  0  0
 18 17  2  0  0  0  0
 19 18  1  0  0  0  0
 19 20  2  0  0  0  0
 20 21  1  0  0  0  0
 21 25  1  0  0  0  0
 21 22  2  0  0  0  0
 23 18  1  0  0  0  0
 24 19  1  0  0  0  0
 26 27  1  0  0  0  0
 27 28  2  0  0  0  0
 28 29  1  0  0  0  0
 30 28  1  0  0  0  0
 31 30  2  0  0  0  0
 32 26  2  0  0  0  0
 32 31  1  0  0  0  0
M  END
>  <minimizedAffinity>
-4.83474207

$$$$

 OpenBabel03242517093D

 32 34  0  0  1  0  0  0  0  0999 V2000
   39.2160   27.4090   42.2260 C   0  0  2  0  0  0  0  0  0  0  0  0
   38.4890   28.6180   42.6670 C   0  0  2  0  0  0  0  0  0  0  0  0
   37.4220   28.3410   43.6800 C   0  0  0  0  0  0  0  0  0  0  0  0
   36.4440   27.2650   43.2380 C   0  0  0  0  0  0  0  0  0  0  0  0
   37.0920   26.1230   42.5060 C   0  0  0  0  0  0  0  0  0  0  0  0
   38.5910   26.1080   42.7070 C   0  0  0  0  0  0  0  0  0  0  0  0
   39.2580   27.3070   41.1100 H   0  0  0  0  0  0  0  0  0  0  0  0
   39.2210   29.2970   43.1850 H   0  0  0  0  0  0  0  0  0  0  0  0
   37.7440   28.2090   44.7080 H   0  0  0  0  0  0  0  0  0  0  0  0
   36.7880   29.2780   43.7030 H   0  0  0  0  0  0  0  0  0  0  0  0
   36.0280   26.8360   44.1970 H   0  0  0  0  0  0  0  0  0  0  0  0
   35.5790   27.6690   42.6870 H   0  0  0  0  0  0  0  0  0  0  0  0
   36.6800   25.1460   42.7510 H   0  0  0  0  0  0  0  0  0  0  0  0
   36.9080   26.2660   41.4110 H   0  0  0  0  0  0  0  0  0  0  0  0
   39.0280   25.2960   42.1150 H   0  0  0  0  0  0  0  0  0  0  0  0
   38.7590   26.0160   43.8010 H   0  0  0  0  0  0  0  0  0  0  0  0
   40.6220   27.4090   42.6740 C   0  0  0  0  0  0  0  0  0  0  0  0
   41.0940   26.2000   43.2180 C   0  0  0  0  0  0  0  0  0  0  0  0
   42.4110   26.0840   43.6750 C   0  0  0  0  0  0  0  0  0  0  0  0
   43.1900   27.2130   43.5560 N   0  0  0  0  0  0  0  0  0  0  0  0
   42.7100   28.3670   43.0290 C   0  0  0  0  0  0  0  0  0  0  0  0
   41.4320   28.4660   42.5890 N   0  0  0  0  0  0  0  0  0  0  0  0
   40.5580   25.2710   43.3490 H   0  0  0  0  0  0  0  0  0  0  0  0
   42.8380   25.2080   44.0960 H   0  0  0  0  0  0  0  0  0  0  0  0
   43.3990   29.2130   42.9720 H   0  0  0  0  0  0  0  0  0  0  0  0
   37.9740   29.4160   41.5240 C   0  0  0  0  0  0  0  0  0  0  0  0
   38.4660   29.1550   40.2400 C   0  0  0  0  0  3  0  0  0  0  0  0
   37.9340   29.9470   39.2170 C   0  0  0  0  0  0  0  0  0  0  0  0
   38.2870   29.7790   38.1940 H   0  0  0  0  0  0  0  0  0  0  0  0
   37.0120   30.9120   39.3670 N   0  0  0  0  0  0  0  0  0  0  0  0
   36.5710   31.1230   40.6350 C   0  0  0  0  0  3  0  0  0  0  0  0
   37.0510   30.3880   41.6540 N   0  0  0  0  0  0  0  0  0  0  0  0
  1  7  1  6  0  0  0
  1  2  1  0  0  0  0
  1 17  1  0  0  0  0
  1  6  1  0  0  0  0
  2  8  1  1  0  0  0
  2  3  1  0  0  0  0
  3 10  1  0  0  0  0
  3  9  1  0  0  0  0
  4  3  1  0  0  0  0
  4 11  1  0  0  0  0
  5  6  1  0  0  0  0
  5 13  1  0  0  0  0
  5  4  1  0  0  0  0
  6 16  1  0  0  0  0
 12  4  1  0  0  0  0
 14  5  1  0  0  0  0
 15  6  1  0  0  0  0
 17 18  1  0  0  0  0
 18 23  1  0  0  0  0
 18 19  2  0  0  0  0
 19 24  1  0  0  0  0
 20 19  1  0  0  0  0
 21 20  2  0  0  0  0
 22 17  2  0  0  0  0
 22 21  1  0  0  0  0
 25 21  1  0  0  0  0
 26 32  1  0  0  0  0
 26  2  1  0  0  0  0
 27 26  2  0  0  0  0
 28 30  2  0  0  0  0
 28 27  1  0  0  0  0
 29 28  1  0  0  0  0
 30 31  1  0  0  0  0
 31 32  2  0  0  0  0
M  END
>  <minimizedAffinity>
-4.78090906

$$$$

 OpenBabel03242517093D

 32 34  0  0  1  0  0  0  0  0999 V2000
   37.3430   26.6450   41.3770 C   0  0  2  0  0  0  0  0  0  0  0  0
   38.2840   27.7830   41.3230 C   0  0  2  0  0  0  0  0  0  0  0  0
   38.7730   28.2230   42.6670 C   0  0  0  0  0  0  0  0  0  0  0  0
   37.6470   28.5120   43.6460 C   0  0  0  0  0  0  0  0  0  0  0  0
   36.5000   27.5450   43.5500 C   0  0  0  0  0  0  0  0  0  0  0  0
   36.8810   26.2980   42.7850 C   0  0  0  0  0  0  0  0  0  0  0  0
   36.3960   26.8320   40.8070 H   0  0  0  0  0  0  0  0  0  0  0  0
   39.2040   27.4500   40.7660 H   0  0  0  0  0  0  0  0  0  0  0  0
   39.5700   27.6380   43.1150 H   0  0  0  0  0  0  0  0  0  0  0  0
   39.2360   29.2410   42.4930 H   0  0  0  0  0  0  0  0  0  0  0  0
   38.1050   28.3650   44.6690 H   0  0  0  0  0  0  0  0  0  0  0  0
   37.3070   29.5600   43.6150 H   0  0  0  0  0  0  0  0  0  0  0  0
   36.0690   27.2690   44.5100 H   0  0  0  0  0  0  0  0  0  0  0  0
   35.6760   28.0430   42.9780 H   0  0  0  0  0  0  0  0  0  0  0  0
   36.0040   25.6480   42.6910 H   0  0  0  0  0  0  0  0  0  0  0  0
   37.7310   25.8410   43.3350 H   0  0  0  0  0  0  0  0  0  0  0  0
   37.9170   25.4180   40.7920 C   0  0  0  0  0  0  0  0  0  0  0  0
   37.2940   24.2110   41.1600 C   0  0  0  0  0  0  0  0  0  0  0  0
   37.7520   22.9850   40.6660 C   0  0  0  0  0  0  0  0  0  0  0  0
   38.8330   23.0470   39.8150 N   0  0  0  0  0  0  0  0  0  0  0  0
   39.4170   24.2240   39.4770 C   0  0  0  0  0  0  0  0  0  0  0  0
   38.9620   25.4050   39.9620 N   0  0  0  0  0  0  0  0  0  0  0  0
   36.4470   24.0680   41.8160 H   0  0  0  0  0  0  0  0  0  0  0  0
   37.3350   22.0370   40.8970 H   0  0  0  0  0  0  0  0  0  0  0  0
   40.2700   24.1800   38.7950 H   0  0  0  0  0  0  0  0  0  0  0  0
   37.7500   28.9200   40.5270 C   0  0  0  0  0  0  0  0  0  0  0  0
   36.5420   28.7560   39.8390 C   0  0  0  0  0  3  0  0  0  0  0  0
   36.1050   29.8700   39.1140 C   0  0  0  0  0  0  0  0  0  0  0  0
   35.1640   29.7900   38.5600 H   0  0  0  0  0  0  0  0  0  0  0  0
   36.7370   31.0510   39.0290 N   0  0  0  0  0  0  0  0  0  0  0  0
   37.9060   31.1530   39.7160 C   0  0  0  0  0  3  0  0  0  0  0  0
   38.3700   30.1110   40.4290 N   0  0  0  0  0  0  0  0  0  0  0  0
  1  7  1  6  0  0  0
  1  6  1  0  0  0  0
  2  8  1  6  0  0  0
  2  1  1  0  0  0  0
  2  3  1  0  0  0  0
  3  9  1  0  0  0  0
  3  4  1  0  0  0  0
  4 11  1  0  0  0  0
  5  4  1  0  0  0  0
  5 13  1  0  0  0  0
  6 16  1  0  0  0  0
  6  5  1  0  0  0  0
 10  3  1  0  0  0  0
 12  4  1  0  0  0  0
 14  5  1  0  0  0  0
 15  6  1  0  0  0  0
 17 18  1  0  0  0  0
 17  1  1  0  0  0  0
 18 23  1  0  0  0  0
 19 24  1  0  0  0  0
 19 18  2  0  0  0  0
 20 19  1  0  0  0  0
 21 20  2  0  0  0  0
 21 22  1  0  0  0  0
 22 17  2  0  0  0  0
 25 21  1  0  0  0  0
 26  2  1  0  0  0  0
 27 26  2  0  0  0  0
 28 27  1  0  0  0  0
 29 28  1  0  0  0  0
 30 28  2  0  0  0  0
 30 31  1  0  0  0  0
 31 32  2  0  0  0  0
 32 26  1  0  0  0  0
M  END
>  <minimizedAffinity>
-4.75971746

$$$$

 OpenBabel03242517093D

 32 34  0  0  1  0  0  0  0  0999 V2000
   38.3150   29.2860   41.5410 C   0  0  2  0  0  0  0  0  0  0  0  0
   37.1840   28.4960   41.0110 C   0  0  2  0  0  0  0  0  0  0  0  0
   36.2090   28.0640   42.0610 C   0  0  0  0  0  0  0  0  0  0  0  0
   36.8660   27.3360   43.2220 C   0  0  0  0  0  0  0  0  0  0  0  0
   38.1910   27.9190   43.6290 C   0  0  0  0  0  0  0  0  0  0  0  0
   38.3900   29.3060   43.0600 C   0  0  0  0  0  0  0  0  0  0  0  0
   39.3140   28.8930   41.2140 H   0  0  0  0  0  0  0  0  0  0  0  0
   36.5950   29.1540   40.3130 H   0  0  0  0  0  0  0  0  0  0  0  0
   35.4860   28.8020   42.3940 H   0  0  0  0  0  0  0  0  0  0  0  0
   35.5830   27.2610   41.5690 H   0  0  0  0  0  0  0  0  0  0  0  0
   36.1670   27.4890   44.0970 H   0  0  0  0  0  0  0  0  0  0  0  0
   36.9250   26.2460   43.0690 H   0  0  0  0  0  0  0  0  0  0  0  0
   38.3590   27.9360   44.7040 H   0  0  0  0  0  0  0  0  0  0  0  0
   38.9990   27.2700   43.2040 H   0  0  0  0  0  0  0  0  0  0  0  0
   39.3870   29.6700   43.3340 H   0  0  0  0  0  0  0  0  0  0  0  0
   37.5550   29.9260   43.4500 H   0  0  0  0  0  0  0  0  0  0  0  0
   38.2770   30.6890   41.0870 C   0  0  0  0  0  0  0  0  0  0  0  0
   37.2340   31.0220   40.2030 C   0  0  0  0  0  0  0  0  0  0  0  0
   37.0990   32.3240   39.7090 C   0  0  0  0  0  0  0  0  0  0  0  0
   38.0400   33.2310   40.1410 N   0  0  0  0  0  0  0  0  0  0  0  0
   39.0370   32.8840   40.9940 C   0  0  0  0  0  0  0  0  0  0  0  0
   39.1560   31.6190   41.4660 N   0  0  0  0  0  0  0  0  0  0  0  0
   36.4570   30.3800   39.8140 H   0  0  0  0  0  0  0  0  0  0  0  0
   36.3410   32.6500   39.0420 H   0  0  0  0  0  0  0  0  0  0  0  0
   39.7390   33.6690   41.2850 H   0  0  0  0  0  0  0  0  0  0  0  0
   37.6340   27.3560   40.1700 C   0  0  0  0  0  0  0  0  0  0  0  0
   36.6810   26.6340   39.4420 C   0  0  0  0  0  3  0  0  0  0  0  0
   37.1810   25.5770   38.6750 C   0  0  0  0  0  0  0  0  0  0  0  0
   36.4740   24.9830   38.0880 H   0  0  0  0  0  0  0  0  0  0  0  0
   38.4700   25.2100   38.5860 N   0  0  0  0  0  0  0  0  0  0  0  0
   39.3510   25.9460   39.3140 C   0  0  0  0  0  3  0  0  0  0  0  0
   38.9210   26.9740   40.0680 N   0  0  0  0  0  0  0  0  0  0  0  0
  1  7  1  6  0  0  0
  1  6  1  0  0  0  0
  2  8  1  6  0  0  0
  2  1  1  0  0  0  0
  2  3  1  0  0  0  0
  3  9  1  0  0  0  0
  3  4  1  0  0  0  0
  4  5  1  0  0  0  0
  4 11  1  0  0  0  0
  5 13  1  0  0  0  0
  6 15  1  0  0  0  0
  6 16  1  0  0  0  0
  6  5  1  0  0  0  0
 10  3  1  0  0  0  0
 12  4  1  0  0  0  0
 14  5  1  0  0  0  0
 17 22  1  0  0  0  0
 17  1  1  0  0  0  0
 18 17  2  0  0  0  0
 19 20  2  0  0  0  0
 19 18  1  0  0  0  0
 20 21  1  0  0  0  0
 21 25  1  0  0  0  0
 21 22  2  0  0  0  0
 23 18  1  0  0  0  0
 24 19  1  0  0  0  0
 26  2  1  0  0  0  0
 27 26  2  0  0  0  0
 28 27  1  0  0  0  0
 29 28  1  0  0  0  0
 30 28  2  0  0  0  0
 30 31  1  0  0  0  0
 31 32  2  0  0  0  0
 32 26  1  0  0  0  0
M  END
>  <minimizedAffinity>
-4.71286154

$$$$

 OpenBabel03242517093D

 32 34  0  0  1  0  0  0  0  0999 V2000
   37.0850   27.6720   39.8290 C   0  0  2  0  0  0  0  0  0  0  0  0
   36.5280   28.8600   40.5100 C   0  0  2  0  0  0  0  0  0  0  0  0
   35.0470   29.0040   40.3540 C   0  0  0  0  0  0  0  0  0  0  0  0
   34.5940   28.9630   38.9040 C   0  0  0  0  0  0  0  0  0  0  0  0
   35.3390   27.9620   38.0660 C   0  0  0  0  0  0  0  0  0  0  0  0
   36.0900   26.9660   38.9200 C   0  0  0  0  0  0  0  0  0  0  0  0
   37.9530   27.9160   39.1630 H   0  0  0  0  0  0  0  0  0  0  0  0
   36.7000   28.7410   41.6170 H   0  0  0  0  0  0  0  0  0  0  0  0
   34.4230   28.3930   40.9980 H   0  0  0  0  0  0  0  0  0  0  0  0
   34.8200   30.0670   40.6700 H   0  0  0  0  0  0  0  0  0  0  0  0
   33.5200   28.6130   38.9430 H   0  0  0  0  0  0  0  0  0  0  0  0
   34.5700   29.9590   38.4310 H   0  0  0  0  0  0  0  0  0  0  0  0
   34.7160   27.4320   37.3470 H   0  0  0  0  0  0  0  0  0  0  0  0
   36.1000   28.5160   37.4600 H   0  0  0  0  0  0  0  0  0  0  0  0
   36.6610   26.2910   38.2720 H   0  0  0  0  0  0  0  0  0  0  0  0
   35.3300   26.4580   39.5500 H   0  0  0  0  0  0  0  0  0  0  0  0
   37.5920   26.6680   40.7840 C   0  0  0  0  0  0  0  0  0  0  0  0
   36.9110   25.4360   40.8000 C   0  0  0  0  0  0  0  0  0  0  0  0
   37.3050   24.4080   41.6640 C   0  0  0  0  0  0  0  0  0  0  0  0
   38.3800   24.6880   42.4780 N   0  0  0  0  0  0  0  0  0  0  0  0
   39.0180   25.8840   42.4440 C   0  0  0  0  0  0  0  0  0  0  0  0
   38.6270   26.8710   41.6010 N   0  0  0  0  0  0  0  0  0  0  0  0
   36.0650   25.1310   40.2010 H   0  0  0  0  0  0  0  0  0  0  0  0
   36.8430   23.4560   41.7330 H   0  0  0  0  0  0  0  0  0  0  0  0
   39.8620   26.0180   43.1250 H   0  0  0  0  0  0  0  0  0  0  0  0
   37.2480   30.1090   40.1470 C   0  0  0  0  0  0  0  0  0  0  0  0
   36.7750   31.3300   40.6400 C   0  0  0  0  0  3  0  0  0  0  0  0
   37.5050   32.4600   40.2540 C   0  0  0  0  0  0  0  0  0  0  0  0
   37.1740   33.4390   40.6160 H   0  0  0  0  0  0  0  0  0  0  0  0
   38.5940   32.4630   39.4690 N   0  0  0  0  0  0  0  0  0  0  0  0
   39.0080   31.2490   39.0180 C   0  0  0  0  0  3  0  0  0  0  0  0
   38.3410   30.1320   39.3610 N   0  0  0  0  0  0  0  0  0  0  0  0
  1  7  1  6  0  0  0
  1  2  1  0  0  0  0
  1 17  1  0  0  0  0
  2  8  1  1  0  0  0
  3  2  1  0  0  0  0
  3 10  1  0  0  0  0
  3  9  1  0  0  0  0
  4 11  1  0  0  0  0
  4  3  1  0  0  0  0
  5  4  1  0  0  0  0
  5  6  1  0  0  0  0
  6 16  1  0  0  0  0
  6  1  1  0  0  0  0
 12  4  1  0  0  0  0
 13  5  1  0  0  0  0
 14  5  1  0  0  0  0
 15  6  1  0  0  0  0
 17 18  2  0  0  0  0
 17 22  1  0  0  0  0
 18 19  1  0  0  0  0
 19 24  1  0  0  0  0
 19 20  2  0  0  0  0
 21 20  1  0  0  0  0
 21 25  1  0  0  0  0
 22 21  2  0  0  0  0
 23 18  1  0  0  0  0
 26  2  1  0  0  0  0
 26 27  1  0  0  0  0
 28 29  1  0  0  0  0
 28 27  2  0  0  0  0
 30 28  1  0  0  0  0
 31 32  1  0  0  0  0
 31 30  2  0  0  0  0
 32 26  2  0  0  0  0
M  END
>  <minimizedAffinity>
-4.6779151

$$$$

 OpenBabel03242517093D

 32 34  0  0  1  0  0  0  0  0999 V2000
   37.1080   27.1260   41.3670 C   0  0  2  0  0  0  0  0  0  0  0  0
   38.2370   27.9340   40.8610 C   0  0  2  0  0  0  0  0  0  0  0  0
   39.4880   27.7920   41.6700 C   0  0  0  0  0  0  0  0  0  0  0  0
   39.2740   28.0500   43.1520 C   0  0  0  0  0  0  0  0  0  0  0  0
   37.9780   27.5010   43.6800 C   0  0  0  0  0  0  0  0  0  0  0  0
   37.3670   26.4970   42.7290 C   0  0  0  0  0  0  0  0  0  0  0  0
   36.1690   27.7240   41.5070 H   0  0  0  0  0  0  0  0  0  0  0  0
   38.5030   27.5580   39.8340 H   0  0  0  0  0  0  0  0  0  0  0  0
   40.0920   26.9080   41.4890 H   0  0  0  0  0  0  0  0  0  0  0  0
   40.1470   28.6530   41.3460 H   0  0  0  0  0  0  0  0  0  0  0  0
   40.0990   27.4790   43.6710 H   0  0  0  0  0  0  0  0  0  0  0  0
   39.4160   29.1080   43.4300 H   0  0  0  0  0  0  0  0  0  0  0  0
   38.0510   27.0660   44.6750 H   0  0  0  0  0  0  0  0  0  0  0  0
   37.2540   28.3510   43.7710 H   0  0  0  0  0  0  0  0  0  0  0  0
   36.4010   26.1640   43.1240 H   0  0  0  0  0  0  0  0  0  0  0  0
   38.1150   25.6850   42.6090 H   0  0  0  0  0  0  0  0  0  0  0  0
   36.7440   26.0340   40.4440 C   0  0  0  0  0  0  0  0  0  0  0  0
   36.8380   24.7310   40.9670 C   0  0  0  0  0  0  0  0  0  0  0  0
   36.5170   23.6170   40.1820 C   0  0  0  0  0  0  0  0  0  0  0  0
   36.1160   23.8870   38.8940 N   0  0  0  0  0  0  0  0  0  0  0  0
   36.0350   25.1530   38.4140 C   0  0  0  0  0  0  0  0  0  0  0  0
   36.3470   26.2240   39.1850 N   0  0  0  0  0  0  0  0  0  0  0  0
   37.1410   24.4280   41.9580 H   0  0  0  0  0  0  0  0  0  0  0  0
   36.5630   22.6080   40.5050 H   0  0  0  0  0  0  0  0  0  0  0  0
   35.7060   25.2740   37.3780 H   0  0  0  0  0  0  0  0  0  0  0  0
   37.8660   29.3590   40.6600 C   0  0  0  0  0  0  0  0  0  0  0  0
   36.5810   29.7820   41.0180 C   0  0  0  0  0  3  0  0  0  0  0  0
   36.3070   31.1360   40.7980 C   0  0  0  0  0  0  0  0  0  0  0  0
   35.3140   31.5140   41.0640 H   0  0  0  0  0  0  0  0  0  0  0  0
   37.1590   32.0380   40.2850 N   0  0  0  0  0  0  0  0  0  0  0  0
   38.3930   31.5720   39.9550 C   0  0  0  0  0  3  0  0  0  0  0  0
   38.7060   30.2780   40.1460 N   0  0  0  0  0  0  0  0  0  0  0  0
  1  7  1  1  0  0  0
  1  6  1  0  0  0  0
  2  8  1  6  0  0  0
  2  1  1  0  0  0  0
  2  3  1  0  0  0  0
  3  4  1  0  0  0  0
  4 12  1  0  0  0  0
  4 11  1  0  0  0  0
  4  5  1  0  0  0  0
  5 14  1  0  0  0  0
  5 13  1  0  0  0  0
  6 15  1  0  0  0  0
  6  5  1  0  0  0  0
  9  3  1  0  0  0  0
 10  3  1  0  0  0  0
 16  6  1  0  0  0  0
 17 18  1  0  0  0  0
 17  1  1  0  0  0  0
 18 23  1  0  0  0  0
 19 24  1  0  0  0  0
 19 18  2  0  0  0  0
 20 19  1  0  0  0  0
 21 20  2  0  0  0  0
 21 22  1  0  0  0  0
 22 17  2  0  0  0  0
 25 21  1  0  0  0  0
 26  2  1  0  0  0  0
 26 27  1  0  0  0  0
 28 27  2  0  0  0  0
 28 29  1  0  0  0  0
 30 28  1  0  0  0  0
 31 32  1  0  0  0  0
 31 30  2  0  0  0  0
 32 26  2  0  0  0  0
M  END
>  <minimizedAffinity>
-4.67573023

$$$$

 OpenBabel03242517093D

 32 34  0  0  1  0  0  0  0  0999 V2000
   38.0980   28.9080   41.1030 C   0  0  2  0  0  0  0  0  0  0  0  0
   37.1370   27.7860   41.0430 C   0  0  2  0  0  0  0  0  0  0  0  0
   36.2190   27.7180   42.2230 C   0  0  0  0  0  0  0  0  0  0  0  0
   36.9530   27.7170   43.5530 C   0  0  0  0  0  0  0  0  0  0  0  0
   38.1430   28.6350   43.5860 C   0  0  0  0  0  0  0  0  0  0  0  0
   38.1180   29.6250   42.4450 C   0  0  0  0  0  0  0  0  0  0  0  0
   39.1590   28.5840   40.9390 H   0  0  0  0  0  0  0  0  0  0  0  0
   36.4670   27.9460   40.1530 H   0  0  0  0  0  0  0  0  0  0  0  0
   35.3680   28.3930   42.2220 H   0  0  0  0  0  0  0  0  0  0  0  0
   35.7570   26.6860   42.1770 H   0  0  0  0  0  0  0  0  0  0  0  0
   36.2100   28.1280   44.2980 H   0  0  0  0  0  0  0  0  0  0  0  0
   37.2050   26.7030   43.9050 H   0  0  0  0  0  0  0  0  0  0  0  0
   38.2710   29.1650   44.5290 H   0  0  0  0  0  0  0  0  0  0  0  0
   39.0650   28.0110   43.4610 H   0  0  0  0  0  0  0  0  0  0  0  0
   39.0280   30.2370   42.4750 H   0  0  0  0  0  0  0  0  0  0  0  0
   37.1770   30.2040   42.5530 H   0  0  0  0  0  0  0  0  0  0  0  0
   37.8320   29.9250   40.0680 C   0  0  0  0  0  0  0  0  0  0  0  0
   37.4190   31.1860   40.5370 C   0  0  0  0  0  0  0  0  0  0  0  0
   37.1390   32.2280   39.6460 C   0  0  0  0  0  0  0  0  0  0  0  0
   37.2950   31.9340   38.3110 N   0  0  0  0  0  0  0  0  0  0  0  0
   37.6950   30.7090   37.8840 C   0  0  0  0  0  0  0  0  0  0  0  0
   37.9630   29.7080   38.7580 N   0  0  0  0  0  0  0  0  0  0  0  0
   37.2710   31.5040   41.5590 H   0  0  0  0  0  0  0  0  0  0  0  0
   36.8240   33.2030   39.9240 H   0  0  0  0  0  0  0  0  0  0  0  0
   37.7930   30.5650   36.8050 H   0  0  0  0  0  0  0  0  0  0  0  0
   37.8050   26.4830   40.7860 C   0  0  0  0  0  0  0  0  0  0  0  0
   37.0200   25.3290   40.6830 C   0  0  0  0  0  3  0  0  0  0  0  0
   37.7200   24.1420   40.4400 C   0  0  0  0  0  0  0  0  0  0  0  0
   37.1490   23.2130   40.3510 H   0  0  0  0  0  0  0  0  0  0  0  0
   39.0510   24.0280   40.3010 N   0  0  0  0  0  0  0  0  0  0  0  0
   39.7630   25.1810   40.4110 C   0  0  0  0  0  3  0  0  0  0  0  0
   39.1370   26.3480   40.6440 N   0  0  0  0  0  0  0  0  0  0  0  0
  1  7  1  6  0  0  0
  1  6  1  0  0  0  0
  2  8  1  6  0  0  0
  2  1  1  0  0  0  0
  2  3  1  0  0  0  0
  3  4  1  0  0  0  0
  4  5  1  0  0  0  0
  4 12  1  0  0  0  0
  4 11  1  0  0  0  0
  5 13  1  0  0  0  0
  6 15  1  0  0  0  0
  6 16  1  0  0  0  0
  6  5  1  0  0  0  0
  9  3  1  0  0  0  0
 10  3  1  0  0  0  0
 14  5  1  0  0  0  0
 17 18  1  0  0  0  0
 17  1  1  0  0  0  0
 18 23  1  0  0  0  0
 19 24  1  0  0  0  0
 19 18  2  0  0  0  0
 20 19  1  0  0  0  0
 21 20  2  0  0  0  0
 21 22  1  0  0  0  0
 22 17  2  0  0  0  0
 25 21  1  0  0  0  0
 26  2  1  0  0  0  0
 27 26  1  0  0  0  0
 28 27  2  0  0  0  0
 29 28  1  0  0  0  0
 30 31  2  0  0  0  0
 30 28  1  0  0  0  0
 31 32  1  0  0  0  0
 32 26  2  0  0  0  0
M  END
>  <minimizedAffinity>
-4.66079283

$$$$

 OpenBabel03242517093D

 32 34  0  0  1  0  0  0  0  0999 V2000
   38.2260   30.2410   40.2440 C   0  0  2  0  0  0  0  0  0  0  0  0
   38.4390   31.6250   40.7160 C   0  0  2  0  0  0  0  0  0  0  0  0
   37.4230   32.5980   40.2060 C   0  0  0  0  0  0  0  0  0  0  0  0
   37.2780   32.5710   38.6930 C   0  0  0  0  0  0  0  0  0  0  0  0
   37.3500   31.1900   38.1040 C   0  0  0  0  0  0  0  0  0  0  0  0
   37.1660   30.1210   39.1580 C   0  0  0  0  0  0  0  0  0  0  0  0
   39.1460   29.7860   39.7920 H   0  0  0  0  0  0  0  0  0  0  0  0
   38.3230   31.6340   41.8360 H   0  0  0  0  0  0  0  0  0  0  0  0
   36.4630   32.6170   40.7120 H   0  0  0  0  0  0  0  0  0  0  0  0
   37.8660   33.6200   40.4080 H   0  0  0  0  0  0  0  0  0  0  0  0
   36.2330   32.9500   38.4930 H   0  0  0  0  0  0  0  0  0  0  0  0
   37.9580   33.2720   38.1820 H   0  0  0  0  0  0  0  0  0  0  0  0
   36.6550   31.0180   37.2840 H   0  0  0  0  0  0  0  0  0  0  0  0
   38.3730   31.0520   37.6710 H   0  0  0  0  0  0  0  0  0  0  0  0
   37.2800   29.1340   38.6970 H   0  0  0  0  0  0  0  0  0  0  0  0
   36.1690   30.3000   39.6140 H   0  0  0  0  0  0  0  0  0  0  0  0
   37.8340   29.3320   41.3380 C   0  0  0  0  0  0  0  0  0  0  0  0
   37.2040   28.1360   40.9480 C   0  0  0  0  0  0  0  0  0  0  0  0
   36.7890   27.1980   41.8990 C   0  0  0  0  0  0  0  0  0  0  0  0
   37.0380   27.5260   43.2130 N   0  0  0  0  0  0  0  0  0  0  0  0
   37.6470   28.6870   43.5630 C   0  0  0  0  0  0  0  0  0  0  0  0
   38.0450   29.5870   42.6310 N   0  0  0  0  0  0  0  0  0  0  0  0
   36.9700   27.7980   39.9480 H   0  0  0  0  0  0  0  0  0  0  0  0
   36.3090   26.2770   41.6830 H   0  0  0  0  0  0  0  0  0  0  0  0
   37.8060   28.8650   44.6300 H   0  0  0  0  0  0  0  0  0  0  0  0
   39.8280   32.0970   40.4750 C   0  0  0  0  0  0  0  0  0  0  0  0
   40.8090   31.1610   40.1260 C   0  0  0  0  0  3  0  0  0  0  0  0
   42.0910   31.6810   39.9160 C   0  0  0  0  0  0  0  0  0  0  0  0
   42.8920   30.9880   39.6390 H   0  0  0  0  0  0  0  0  0  0  0  0
   42.4440   32.9720   40.0200 N   0  0  0  0  0  0  0  0  0  0  0  0
   41.4510   33.8360   40.3630 C   0  0  0  0  0  3  0  0  0  0  0  0
   40.2010   33.3860   40.5760 N   0  0  0  0  0  0  0  0  0  0  0  0
  1  7  1  6  0  0  0
  1  2  1  0  0  0  0
  1 17  1  0  0  0  0
  2  8  1  1  0  0  0
  3 10  1  0  0  0  0
  3  9  1  0  0  0  0
  3  2  1  0  0  0  0
  4  3  1  0  0  0  0
  5  4  1  0  0  0  0
  5  6  1  0  0  0  0
  6 16  1  0  0  0  0
  6  1  1  0  0  0  0
 11  4  1  0  0  0  0
 12  4  1  0  0  0  0
 13  5  1  0  0  0  0
 14  5  1  0  0  0  0
 15  6  1  0  0  0  0
 17 22  1  0  0  0  0
 18 17  2  0  0  0  0
 18 19  1  0  0  0  0
 19 20  2  0  0  0  0
 20 21  1  0  0  0  0
 21 25  1  0  0  0  0
 22 21  2  0  0  0  0
 23 18  1  0  0  0  0
 24 19  1  0  0  0  0
 26 32  1  0  0  0  0
 26  2  1  0  0  0  0
 27 26  2  0  0  0  0
 28 30  2  0  0  0  0
 28 27  1  0  0  0  0
 29 28  1  0  0  0  0
 30 31  1  0  0  0  0
 31 32  2  0  0  0  0
M  END
>  <minimizedAffinity>
-4.65240288

$$$$
