
 OpenBabel03242515023D

 35 37  0  0  0  0  0  0  0  0999 V2000
   35.7850   28.8280   40.7630 S   0  0  0  0  0  0  0  0  0  0  0  0
   36.4670   30.0320   39.6290 C   0  0  0  0  0  0  0  0  0  0  0  0
   36.5640   29.6440   38.2870 C   0  0  0  0  0  0  0  0  0  0  0  0
   37.0890   30.5520   37.3730 C   0  0  0  0  0  0  0  0  0  0  0  0
   37.4870   31.7830   37.8290 N   0  0  0  0  0  0  0  0  0  0  0  0
   37.3830   32.1240   39.1100 C   0  0  0  0  0  0  0  0  0  0  0  0
   36.8800   31.2620   40.0010 N   0  0  0  0  0  0  0  0  0  0  0  0
   36.2680   28.6920   37.8690 H   0  0  0  0  0  0  0  0  0  0  0  0
   37.1990   30.3320   36.3220 H   0  0  0  0  0  0  0  0  0  0  0  0
   37.8250   33.4440   39.5190 C   0  0  0  0  0  0  0  0  0  0  0  0
   37.0050   34.3960   39.4680 O   0  0  0  0  0  0  0  0  0  0  0  0
   39.1940   33.6560   39.9780 C   0  0  0  0  0  0  0  0  0  0  0  0
   39.7090   34.9320   40.0660 C   0  0  0  0  0  3  0  0  0  0  0  0
   41.0220   35.0970   40.5090 C   0  0  0  0  0  0  0  0  0  0  0  0
   41.4680   36.0950   40.5920 H   0  0  0  0  0  0  0  0  0  0  0  0
   41.7280   33.9940   40.8320 N   0  0  0  0  0  0  0  0  0  0  0  0
   41.2340   32.7500   40.7490 C   0  0  0  0  0  3  0  0  0  0  0  0
   39.9530   32.6070   40.3150 N   0  0  0  0  0  0  0  0  0  0  0  0
   36.7660   28.6570   42.2580 C   0  0  0  0  0  0  0  0  0  0  0  0
   36.3520   29.3180   43.0600 H   0  0  0  0  0  0  0  0  0  0  0  0
   37.8300   28.9960   42.1130 H   0  0  0  0  0  0  0  0  0  0  0  0
   36.7770   27.2690   42.8080 C   0  0  0  0  0  0  0  0  0  0  0  0
   36.2900   27.2180   43.8160 H   0  0  0  0  0  0  0  0  0  0  0  0
   36.1940   26.6230   42.1080 H   0  0  0  0  0  0  0  0  0  0  0  0
   37.2370   24.4010   41.8810 Cl  0  0  0  0  0  0  0  0  0  0  0  0
   38.4690   25.4250   42.5270 C   0  0  0  0  0  0  0  0  0  0  0  0
   38.1570   26.7390   42.9300 C   0  0  0  0  0  0  0  0  0  0  0  0
   39.1840   27.4910   43.4320 C   0  0  0  0  0  0  0  0  0  0  0  0
   40.5120   27.0850   43.5870 C   0  0  0  0  0  0  0  0  0  0  0  0
   40.7910   25.7860   43.1830 C   0  0  0  0  0  0  0  0  0  0  0  0
   42.4360   25.1770   43.3370 Cl  0  0  0  0  0  0  0  0  0  0  0  0
   39.7890   24.9950   42.6720 C   0  0  0  0  0  0  0  0  0  0  0  0
   38.9360   28.5020   43.7400 H   0  0  0  0  0  0  0  0  0  0  0  0
   41.2520   27.7570   43.9960 H   0  0  0  0  0  0  0  0  0  0  0  0
   39.9970   23.9820   42.3550 H   0  0  0  0  0  0  0  0  0  0  0  0
  1 19  1  0  0  0  0
  2  7  1  0  0  0  0
  2  1  1  0  0  0  0
  3  2  2  0  0  0  0
  4  5  2  0  0  0  0
  4  3  1  0  0  0  0
  5  6  1  0  0  0  0
  6 10  1  0  0  0  0
  6  7  2  0  0  0  0
  8  3  1  0  0  0  0
  9  4  1  0  0  0  0
 10 12  1  0  0  0  0
 11 10  2  0  0  0  0
 12 13  2  0  0  0  0
 12 18  1  0  0  0  0
 13 14  1  0  0  0  0
 14 15  1  0  0  0  0
 14 16  2  0  0  0  0
 17 16  1  0  0  0  0
 18 17  2  0  0  0  0
 19 22  1  0  0  0  0
 19 20  1  0  0  0  0
 21 19  1  0  0  0  0
 22 27  1  0  0  0  0
 22 23  1  0  0  0  0
 24 22  1  0  0  0  0
 25 26  1  0  0  0  0
 26 32  2  0  0  0  0
 26 27  1  0  0  0  0
 27 28  2  0  0  0  0
 28 29  1  0  0  0  0
 28 33  1  0  0  0  0
 29 34  1  0  0  0  0
 30 31  1  0  0  0  0
 30 29  2  0  0  0  0
 32 30  1  0  0  0  0
 35 32  1  0  0  0  0
M  END
>  <minimizedAffinity>
-6.03040314

$$$$

 OpenBabel03242515023D

 35 37  0  0  0  0  0  0  0  0999 V2000
   38.0160   30.9490   39.8240 S   0  0  0  0  0  0  0  0  0  0  0  0
   38.7890   32.5600   39.9030 C   0  0  0  0  0  0  0  0  0  0  0  0
   37.9330   33.6580   40.0540 C   0  0  0  0  0  0  0  0  0  0  0  0
   38.4950   34.9300   40.1190 C   0  0  0  0  0  0  0  0  0  0  0  0
   39.8580   35.0470   40.0320 N   0  0  0  0  0  0  0  0  0  0  0  0
   40.6470   33.9860   39.8880 C   0  0  0  0  0  0  0  0  0  0  0  0
   40.1220   32.7570   39.8240 N   0  0  0  0  0  0  0  0  0  0  0  0
   36.8550   33.6290   40.1280 H   0  0  0  0  0  0  0  0  0  0  0  0
   37.9070   35.8270   40.2340 H   0  0  0  0  0  0  0  0  0  0  0  0
   42.0810   34.1880   39.8030 C   0  0  0  0  0  0  0  0  0  0  0  0
   42.5920   34.4010   38.6740 O   0  0  0  0  0  0  0  0  0  0  0  0
   42.9070   34.1440   41.0050 C   0  0  0  0  0  0  0  0  0  0  0  0
   43.4290   32.9480   41.4480 C   0  0  0  0  0  3  0  0  0  0  0  0
   44.2140   32.9430   42.6010 C   0  0  0  0  0  0  0  0  0  0  0  0
   44.6470   32.0120   42.9850 H   0  0  0  0  0  0  0  0  0  0  0  0
   44.4260   34.1170   43.2310 N   0  0  0  0  0  0  0  0  0  0  0  0
   43.9220   35.2850   42.8070 C   0  0  0  0  0  3  0  0  0  0  0  0
   43.1580   35.2710   41.6810 N   0  0  0  0  0  0  0  0  0  0  0  0
   36.5790   30.8210   40.8940 C   0  0  0  0  0  0  0  0  0  0  0  0
   35.9840   31.7660   40.8440 H   0  0  0  0  0  0  0  0  0  0  0  0
   36.8620   30.7050   41.9780 H   0  0  0  0  0  0  0  0  0  0  0  0
   35.6550   29.7100   40.5200 C   0  0  0  0  0  0  0  0  0  0  0  0
   34.6430   29.8360   40.9880 H   0  0  0  0  0  0  0  0  0  0  0  0
   35.5290   29.7330   39.4110 H   0  0  0  0  0  0  0  0  0  0  0  0
   36.0530   27.6490   38.3090 Cl  0  0  0  0  0  0  0  0  0  0  0  0
   36.4130   27.3710   39.9760 C   0  0  0  0  0  0  0  0  0  0  0  0
   36.1930   28.3890   40.9260 C   0  0  0  0  0  0  0  0  0  0  0  0
   36.5010   28.0960   42.2270 C   0  0  0  0  0  0  0  0  0  0  0  0
   37.0110   26.8870   42.7070 C   0  0  0  0  0  0  0  0  0  0  0  0
   37.2170   25.9010   41.7500 C   0  0  0  0  0  0  0  0  0  0  0  0
   37.8570   24.3400   42.2530 Cl  0  0  0  0  0  0  0  0  0  0  0  0
   36.9210   26.1530   40.4300 C   0  0  0  0  0  0  0  0  0  0  0  0
   36.3290   28.8840   42.9520 H   0  0  0  0  0  0  0  0  0  0  0  0
   37.2220   26.7540   43.7580 H   0  0  0  0  0  0  0  0  0  0  0  0
   37.0780   25.3920   39.6790 H   0  0  0  0  0  0  0  0  0  0  0  0
  1  2  1  0  0  0  0
  1 19  1  0  0  0  0
  2  3  1  0  0  0  0
  3  4  2  0  0  0  0
  3  8  1  0  0  0  0
  4  9  1  0  0  0  0
  5  4  1  0  0  0  0
  6  5  2  0  0  0  0
  7  6  1  0  0  0  0
  7  2  2  0  0  0  0
 10  6  1  0  0  0  0
 10 12  1  0  0  0  0
 11 10  2  0  0  0  0
 12 13  2  0  0  0  0
 12 18  1  0  0  0  0
 13 14  1  0  0  0  0
 14 15  1  0  0  0  0
 14 16  2  0  0  0  0
 17 16  1  0  0  0  0
 18 17  2  0  0  0  0
 19 21  1  0  0  0  0
 20 19  1  0  0  0  0
 22 19  1  0  0  0  0
 22 27  1  0  0  0  0
 22 23  1  0  0  0  0
 24 22  1  0  0  0  0
 25 26  1  0  0  0  0
 26 32  2  0  0  0  0
 26 27  1  0  0  0  0
 27 28  2  0  0  0  0
 28 29  1  0  0  0  0
 28 33  1  0  0  0  0
 29 34  1  0  0  0  0
 30 31  1  0  0  0  0
 30 29  2  0  0  0  0
 32 30  1  0  0  0  0
 35 32  1  0  0  0  0
M  END
>  <minimizedAffinity>
-5.84424305

$$$$

 OpenBabel03242515023D

 35 37  0  0  0  0  0  0  0  0999 V2000
   38.8060   29.3150   41.7420 S   0  0  0  0  0  0  0  0  0  0  0  0
   38.4250   30.7880   40.8030 C   0  0  0  0  0  0  0  0  0  0  0  0
   37.3010   30.7270   39.9700 C   0  0  0  0  0  0  0  0  0  0  0  0
   36.9700   31.8520   39.2210 C   0  0  0  0  0  0  0  0  0  0  0  0
   37.7600   32.9670   39.3330 N   0  0  0  0  0  0  0  0  0  0  0  0
   38.8230   32.9970   40.1320 C   0  0  0  0  0  0  0  0  0  0  0  0
   39.1540   31.9230   40.8580 N   0  0  0  0  0  0  0  0  0  0  0  0
   36.6410   29.8790   39.8400 H   0  0  0  0  0  0  0  0  0  0  0  0
   36.1210   31.8870   38.5560 H   0  0  0  0  0  0  0  0  0  0  0  0
   39.6130   34.2120   40.1980 C   0  0  0  0  0  0  0  0  0  0  0  0
   39.0390   35.2860   40.5130 O   0  0  0  0  0  0  0  0  0  0  0  0
   41.0420   34.1830   39.9050 C   0  0  0  0  0  0  0  0  0  0  0  0
   41.4830   34.0750   38.6030 C   0  0  0  0  0  3  0  0  0  0  0  0
   42.8570   34.0500   38.3590 C   0  0  0  0  0  0  0  0  0  0  0  0
   43.2470   33.9650   37.3390 H   0  0  0  0  0  0  0  0  0  0  0  0
   43.6920   34.1320   39.4150 N   0  0  0  0  0  0  0  0  0  0  0  0
   43.2700   34.2360   40.6840 C   0  0  0  0  0  3  0  0  0  0  0  0
   41.9280   34.2590   40.9040 N   0  0  0  0  0  0  0  0  0  0  0  0
   37.5510   28.9370   42.9700 C   0  0  0  0  0  0  0  0  0  0  0  0
   36.5870   28.6870   42.4620 H   0  0  0  0  0  0  0  0  0  0  0  0
   37.3190   29.8200   43.6300 H   0  0  0  0  0  0  0  0  0  0  0  0
   37.8960   27.7720   43.8360 C   0  0  0  0  0  0  0  0  0  0  0  0
   38.8640   27.9300   44.3800 H   0  0  0  0  0  0  0  0  0  0  0  0
   37.0860   27.6630   44.5960 H   0  0  0  0  0  0  0  0  0  0  0  0
   40.5890   26.3430   43.8830 Cl  0  0  0  0  0  0  0  0  0  0  0  0
   39.2060   25.7850   43.0110 C   0  0  0  0  0  0  0  0  0  0  0  0
   38.0030   26.5180   43.0510 C   0  0  0  0  0  0  0  0  0  0  0  0
   36.9500   26.0150   42.3350 C   0  0  0  0  0  0  0  0  0  0  0  0
   36.9500   24.8480   41.5680 C   0  0  0  0  0  0  0  0  0  0  0  0
   38.1490   24.1460   41.5450 C   0  0  0  0  0  0  0  0  0  0  0  0
   38.2530   22.6600   40.6070 Cl  0  0  0  0  0  0  0  0  0  0  0  0
   39.2330   24.6150   42.2500 C   0  0  0  0  0  0  0  0  0  0  0  0
   36.0270   26.5840   42.3710 H   0  0  0  0  0  0  0  0  0  0  0  0
   36.0630   24.5340   41.0370 H   0  0  0  0  0  0  0  0  0  0  0  0
   40.1690   24.0760   42.2390 H   0  0  0  0  0  0  0  0  0  0  0  0
  1 19  1  0  0  0  0
  2  7  1  0  0  0  0
  2  1  1  0  0  0  0
  3  2  2  0  0  0  0
  4  5  2  0  0  0  0
  4  3  1  0  0  0  0
  5  6  1  0  0  0  0
  6 10  1  0  0  0  0
  6  7  2  0  0  0  0
  8  3  1  0  0  0  0
  9  4  1  0  0  0  0
 10 11  2  0  0  0  0
 12 10  1  0  0  0  0
 12 18  1  0  0  0  0
 13 12  2  0  0  0  0
 14 13  1  0  0  0  0
 14 16  2  0  0  0  0
 15 14  1  0  0  0  0
 16 17  1  0  0  0  0
 17 18  2  0  0  0  0
 19 21  1  0  0  0  0
 19 22  1  0  0  0  0
 20 19  1  0  0  0  0
 22 23  1  0  0  0  0
 22 24  1  0  0  0  0
 26 27  1  0  0  0  0
 26 25  1  0  0  0  0
 27 22  1  0  0  0  0
 28 33  1  0  0  0  0
 28 27  2  0  0  0  0
 29 28  1  0  0  0  0
 30 29  2  0  0  0  0
 30 32  1  0  0  0  0
 31 30  1  0  0  0  0
 32 26  2  0  0  0  0
 34 29  1  0  0  0  0
 35 32  1  0  0  0  0
M  END
>  <minimizedAffinity>
-5.78625154

$$$$

 OpenBabel03242515023D

 35 37  0  0  0  0  0  0  0  0999 V2000
   38.1990   31.2850   40.0440 S   0  0  0  0  0  0  0  0  0  0  0  0
   39.0430   32.8550   40.1900 C   0  0  0  0  0  0  0  0  0  0  0  0
   38.2470   34.0050   40.1120 C   0  0  0  0  0  0  0  0  0  0  0  0
   38.8660   35.2460   40.2210 C   0  0  0  0  0  0  0  0  0  0  0  0
   40.2250   35.2860   40.3990 N   0  0  0  0  0  0  0  0  0  0  0  0
   40.9570   34.1770   40.4690 C   0  0  0  0  0  0  0  0  0  0  0  0
   40.3770   32.9760   40.3650 N   0  0  0  0  0  0  0  0  0  0  0  0
   37.1750   34.0370   39.9740 H   0  0  0  0  0  0  0  0  0  0  0  0
   38.3260   36.1790   40.1720 H   0  0  0  0  0  0  0  0  0  0  0  0
   42.3900   34.2970   40.6570 C   0  0  0  0  0  0  0  0  0  0  0  0
   42.8150   34.9810   41.6230 O   0  0  0  0  0  0  0  0  0  0  0  0
   43.3140   33.6360   39.7420 C   0  0  0  0  0  0  0  0  0  0  0  0
   43.4570   34.0910   38.4480 C   0  0  0  0  0  3  0  0  0  0  0  0
   44.3500   33.4340   37.6000 C   0  0  0  0  0  0  0  0  0  0  0  0
   44.4920   33.7650   36.5650 H   0  0  0  0  0  0  0  0  0  0  0  0
   45.0340   32.3800   38.0900 N   0  0  0  0  0  0  0  0  0  0  0  0
   44.9000   31.9320   39.3470 C   0  0  0  0  0  3  0  0  0  0  0  0
   44.0260   32.5830   40.1600 N   0  0  0  0  0  0  0  0  0  0  0  0
   38.2340   30.3390   41.5700 C   0  0  0  0  0  0  0  0  0  0  0  0
   38.4910   31.0110   42.4270 H   0  0  0  0  0  0  0  0  0  0  0  0
   39.0340   29.5470   41.5640 H   0  0  0  0  0  0  0  0  0  0  0  0
   36.9290   29.6970   41.9040 C   0  0  0  0  0  0  0  0  0  0  0  0
   36.6230   29.9030   42.9630 H   0  0  0  0  0  0  0  0  0  0  0  0
   36.1540   30.1330   41.2280 H   0  0  0  0  0  0  0  0  0  0  0  0
   36.9460   27.9770   44.4210 Cl  0  0  0  0  0  0  0  0  0  0  0  0
   36.9860   27.3490   42.8120 C   0  0  0  0  0  0  0  0  0  0  0  0
   36.9750   28.2270   41.7100 C   0  0  0  0  0  0  0  0  0  0  0  0
   37.0090   27.6570   40.4670 C   0  0  0  0  0  0  0  0  0  0  0  0
   37.0540   26.2900   40.1810 C   0  0  0  0  0  0  0  0  0  0  0  0
   37.0640   25.4470   41.2850 C   0  0  0  0  0  0  0  0  0  0  0  0
   37.1190   23.7060   41.0330 Cl  0  0  0  0  0  0  0  0  0  0  0  0
   37.0310   25.9780   42.5540 C   0  0  0  0  0  0  0  0  0  0  0  0
   37.0000   28.3390   39.6230 H   0  0  0  0  0  0  0  0  0  0  0  0
   37.0780   25.9380   39.1600 H   0  0  0  0  0  0  0  0  0  0  0  0
   37.0390   25.3300   43.4190 H   0  0  0  0  0  0  0  0  0  0  0  0
  1  2  1  0  0  0  0
  1 19  1  0  0  0  0
  2  7  1  0  0  0  0
  3  2  2  0  0  0  0
  3  4  1  0  0  0  0
  4  5  2  0  0  0  0
  5  6  1  0  0  0  0
  6 10  1  0  0  0  0
  7  6  2  0  0  0  0
  8  3  1  0  0  0  0
  9  4  1  0  0  0  0
 10 11  2  0  0  0  0
 12 18  1  0  0  0  0
 12 10  1  0  0  0  0
 13 12  2  0  0  0  0
 14 16  2  0  0  0  0
 14 13  1  0  0  0  0
 15 14  1  0  0  0  0
 16 17  1  0  0  0  0
 17 18  2  0  0  0  0
 19 22  1  0  0  0  0
 19 20  1  0  0  0  0
 21 19  1  0  0  0  0
 22 23  1  0  0  0  0
 24 22  1  0  0  0  0
 26 25  1  0  0  0  0
 27 22  1  0  0  0  0
 27 26  2  0  0  0  0
 28 27  1  0  0  0  0
 29 28  2  0  0  0  0
 29 30  1  0  0  0  0
 30 32  2  0  0  0  0
 31 30  1  0  0  0  0
 32 26  1  0  0  0  0
 32 35  1  0  0  0  0
 33 28  1  0  0  0  0
 34 29  1  0  0  0  0
M  END
>  <minimizedAffinity>
-5.74936438

$$$$

 OpenBabel03242515023D

 35 37  0  0  0  0  0  0  0  0999 V2000
   37.4130   26.5770   38.8630 S   0  0  0  0  0  0  0  0  0  0  0  0
   37.0560   28.0720   39.7780 C   0  0  0  0  0  0  0  0  0  0  0  0
   35.7110   28.4560   39.8510 C   0  0  0  0  0  0  0  0  0  0  0  0
   35.3910   29.6140   40.5540 C   0  0  0  0  0  0  0  0  0  0  0  0
   36.4060   30.3230   41.1410 N   0  0  0  0  0  0  0  0  0  0  0  0
   37.6760   29.9350   41.0550 C   0  0  0  0  0  0  0  0  0  0  0  0
   37.9990   28.8250   40.3830 N   0  0  0  0  0  0  0  0  0  0  0  0
   34.8690   27.9390   39.4100 H   0  0  0  0  0  0  0  0  0  0  0  0
   34.3810   29.9780   40.6570 H   0  0  0  0  0  0  0  0  0  0  0  0
   38.6970   30.7380   41.7020 C   0  0  0  0  0  0  0  0  0  0  0  0
   39.1700   30.3410   42.7970 O   0  0  0  0  0  0  0  0  0  0  0  0
   39.1600   31.9790   41.0890 C   0  0  0  0  0  0  0  0  0  0  0  0
   40.5080   32.2070   40.9130 C   0  0  0  0  0  3  0  0  0  0  0  0
   40.9150   33.4050   40.3240 C   0  0  0  0  0  0  0  0  0  0  0  0
   41.9770   33.6240   40.1660 H   0  0  0  0  0  0  0  0  0  0  0  0
   39.9640   34.2870   39.9530 N   0  0  0  0  0  0  0  0  0  0  0  0
   38.6510   34.0720   40.1210 C   0  0  0  0  0  3  0  0  0  0  0  0
   38.2710   32.9000   40.6980 N   0  0  0  0  0  0  0  0  0  0  0  0
   37.4320   25.1170   39.9090 C   0  0  0  0  0  0  0  0  0  0  0  0
   38.4560   24.6670   39.9120 H   0  0  0  0  0  0  0  0  0  0  0  0
   36.7530   24.3060   39.5240 H   0  0  0  0  0  0  0  0  0  0  0  0
   37.0820   25.3990   41.3320 C   0  0  0  0  0  0  0  0  0  0  0  0
   36.3800   26.2690   41.4230 H   0  0  0  0  0  0  0  0  0  0  0  0
   36.5680   24.4950   41.7390 H   0  0  0  0  0  0  0  0  0  0  0  0
   36.7960   27.5050   43.5180 Cl  0  0  0  0  0  0  0  0  0  0  0  0
   38.2550   26.6420   43.1820 C   0  0  0  0  0  0  0  0  0  0  0  0
   38.2880   25.6860   42.1470 C   0  0  0  0  0  0  0  0  0  0  0  0
   39.4780   25.0430   41.9390 C   0  0  0  0  0  0  0  0  0  0  0  0
   40.6640   25.2420   42.6490 C   0  0  0  0  0  0  0  0  0  0  0  0
   40.6040   26.1900   43.6620 C   0  0  0  0  0  0  0  0  0  0  0  0
   42.0470   26.5150   44.6170 Cl  0  0  0  0  0  0  0  0  0  0  0  0
   39.4280   26.8610   43.9060 C   0  0  0  0  0  0  0  0  0  0  0  0
   39.4950   24.3080   41.1410 H   0  0  0  0  0  0  0  0  0  0  0  0
   41.5550   24.6810   42.4070 H   0  0  0  0  0  0  0  0  0  0  0  0
   39.3710   27.6000   44.6920 H   0  0  0  0  0  0  0  0  0  0  0  0
  1  2  1  0  0  0  0
  1 19  1  0  0  0  0
  2  3  2  0  0  0  0
  2  7  1  0  0  0  0
  3  4  1  0  0  0  0
  4  9  1  0  0  0  0
  4  5  2  0  0  0  0
  6  5  1  0  0  0  0
  6 10  1  0  0  0  0
  7  6  2  0  0  0  0
  8  3  1  0  0  0  0
 10 11  2  0  0  0  0
 12 10  1  0  0  0  0
 13 12  1  0  0  0  0
 14 13  2  0  0  0  0
 15 14  1  0  0  0  0
 16 17  2  0  0  0  0
 16 14  1  0  0  0  0
 17 18  1  0  0  0  0
 18 12  2  0  0  0  0
 19 20  1  0  0  0  0
 19 22  1  0  0  0  0
 21 19  1  0  0  0  0
 22 23  1  0  0  0  0
 22 24  1  0  0  0  0
 22 27  1  0  0  0  0
 26 25  1  0  0  0  0
 26 32  1  0  0  0  0
 27 26  2  0  0  0  0
 28 27  1  0  0  0  0
 28 29  2  0  0  0  0
 29 30  1  0  0  0  0
 30 32  2  0  0  0  0
 30 31  1  0  0  0  0
 32 35  1  0  0  0  0
 33 28  1  0  0  0  0
 34 29  1  0  0  0  0
M  END
>  <minimizedAffinity>
-5.61499643

$$$$

 OpenBabel03242515023D

 35 37  0  0  0  0  0  0  0  0999 V2000
   37.5840   31.0100   38.8130 S   0  0  0  0  0  0  0  0  0  0  0  0
   38.4630   32.4870   39.3080 C   0  0  0  0  0  0  0  0  0  0  0  0
   37.6830   33.5560   39.7680 C   0  0  0  0  0  0  0  0  0  0  0  0
   38.3280   34.7240   40.1630 C   0  0  0  0  0  0  0  0  0  0  0  0
   39.6960   34.7740   40.0830 N   0  0  0  0  0  0  0  0  0  0  0  0
   40.4120   33.7430   39.6420 C   0  0  0  0  0  0  0  0  0  0  0  0
   39.8060   32.6140   39.2590 N   0  0  0  0  0  0  0  0  0  0  0  0
   36.6050   33.5760   39.8540 H   0  0  0  0  0  0  0  0  0  0  0  0
   37.8010   35.5920   40.5290 H   0  0  0  0  0  0  0  0  0  0  0  0
   41.8560   33.8700   39.5850 C   0  0  0  0  0  0  0  0  0  0  0  0
   42.3960   34.1050   38.4740 O   0  0  0  0  0  0  0  0  0  0  0  0
   42.6590   33.7260   40.7950 C   0  0  0  0  0  0  0  0  0  0  0  0
   42.8780   32.4790   41.3410 C   0  0  0  0  0  3  0  0  0  0  0  0
   43.6510   32.3790   42.4980 C   0  0  0  0  0  0  0  0  0  0  0  0
   43.8480   31.4060   42.9630 H   0  0  0  0  0  0  0  0  0  0  0  0
   44.1490   33.5140   43.0300 N   0  0  0  0  0  0  0  0  0  0  0  0
   43.9410   34.7300   42.5050 C   0  0  0  0  0  3  0  0  0  0  0  0
   43.1850   34.8100   41.3770 N   0  0  0  0  0  0  0  0  0  0  0  0
   36.3590   30.4990   40.0220 C   0  0  0  0  0  0  0  0  0  0  0  0
   36.1620   29.4030   39.9230 H   0  0  0  0  0  0  0  0  0  0  0  0
   35.3610   30.9960   39.8570 H   0  0  0  0  0  0  0  0  0  0  0  0
   36.7800   30.7340   41.4350 C   0  0  0  0  0  0  0  0  0  0  0  0
   37.4550   31.6250   41.5240 H   0  0  0  0  0  0  0  0  0  0  0  0
   35.8600   30.9350   42.0340 H   0  0  0  0  0  0  0  0  0  0  0  0
   39.6230   31.1850   42.4400 Cl  0  0  0  0  0  0  0  0  0  0  0  0
   38.8020   29.6660   42.4900 C   0  0  0  0  0  0  0  0  0  0  0  0
   37.4860   29.5570   41.9990 C   0  0  0  0  0  0  0  0  0  0  0  0
   36.9000   28.3230   42.0710 C   0  0  0  0  0  0  0  0  0  0  0  0
   37.4780   27.1580   42.5830 C   0  0  0  0  0  0  0  0  0  0  0  0
   38.7760   27.2930   43.0590 C   0  0  0  0  0  0  0  0  0  0  0  0
   39.5950   25.8840   43.7250 Cl  0  0  0  0  0  0  0  0  0  0  0  0
   39.4030   28.5170   43.0060 C   0  0  0  0  0  0  0  0  0  0  0  0
   35.8870   28.2470   41.6920 H   0  0  0  0  0  0  0  0  0  0  0  0
   36.9300   26.2270   42.5960 H   0  0  0  0  0  0  0  0  0  0  0  0
   40.4130   28.6310   43.3740 H   0  0  0  0  0  0  0  0  0  0  0  0
  1  2  1  0  0  0  0
  1 19  1  0  0  0  0
  2  3  1  0  0  0  0
  3  8  1  0  0  0  0
  3  4  2  0  0  0  0
  4  9  1  0  0  0  0
  5  4  1  0  0  0  0
  6  5  2  0  0  0  0
  7  2  2  0  0  0  0
  7  6  1  0  0  0  0
 10  6  1  0  0  0  0
 10 12  1  0  0  0  0
 11 10  2  0  0  0  0
 12 13  2  0  0  0  0
 12 18  1  0  0  0  0
 13 14  1  0  0  0  0
 14 15  1  0  0  0  0
 14 16  2  0  0  0  0
 17 16  1  0  0  0  0
 18 17  2  0  0  0  0
 19 22  1  0  0  0  0
 20 19  1  0  0  0  0
 21 19  1  0  0  0  0
 22 23  1  0  0  0  0
 22 27  1  0  0  0  0
 22 24  1  0  0  0  0
 25 26  1  0  0  0  0
 26 32  1  0  0  0  0
 27 28  1  0  0  0  0
 27 26  2  0  0  0  0
 28 29  2  0  0  0  0
 29 34  1  0  0  0  0
 29 30  1  0  0  0  0
 30 31  1  0  0  0  0
 32 30  2  0  0  0  0
 32 35  1  0  0  0  0
 33 28  1  0  0  0  0
M  END
>  <minimizedAffinity>
-5.60973549

$$$$

 OpenBabel03242515023D

 35 37  0  0  0  0  0  0  0  0999 V2000
   36.1610   26.3530   38.0430 S   0  0  0  0  0  0  0  0  0  0  0  0
   36.5750   25.9240   39.7290 C   0  0  0  0  0  0  0  0  0  0  0  0
   36.6300   24.5570   40.0320 C   0  0  0  0  0  0  0  0  0  0  0  0
   36.9490   24.1810   41.3330 C   0  0  0  0  0  0  0  0  0  0  0  0
   37.1930   25.1640   42.2560 N   0  0  0  0  0  0  0  0  0  0  0  0
   37.1340   26.4550   41.9410 C   0  0  0  0  0  0  0  0  0  0  0  0
   36.8280   26.8330   40.6940 N   0  0  0  0  0  0  0  0  0  0  0  0
   36.4480   23.7390   39.3490 H   0  0  0  0  0  0  0  0  0  0  0  0
   37.0120   23.1510   41.6490 H   0  0  0  0  0  0  0  0  0  0  0  0
   37.4040   27.4390   42.9720 C   0  0  0  0  0  0  0  0  0  0  0  0
   36.6010   27.5390   43.9340 O   0  0  0  0  0  0  0  0  0  0  0  0
   38.5850   28.2930   42.8870 C   0  0  0  0  0  0  0  0  0  0  0  0
   38.4490   29.6610   42.7820 C   0  0  0  0  0  3  0  0  0  0  0  0
   39.6000   30.4460   42.7030 C   0  0  0  0  0  0  0  0  0  0  0  0
   39.5340   31.5370   42.6190 H   0  0  0  0  0  0  0  0  0  0  0  0
   40.7970   29.8250   42.7330 N   0  0  0  0  0  0  0  0  0  0  0  0
   40.9370   28.4950   42.8350 C   0  0  0  0  0  3  0  0  0  0  0  0
   39.8050   27.7440   42.9100 N   0  0  0  0  0  0  0  0  0  0  0  0
   36.8960   27.9090   37.5280 C   0  0  0  0  0  0  0  0  0  0  0  0
   37.2310   27.8360   36.4640 H   0  0  0  0  0  0  0  0  0  0  0  0
   37.8240   28.1590   38.1150 H   0  0  0  0  0  0  0  0  0  0  0  0
   35.9560   29.0660   37.6040 C   0  0  0  0  0  0  0  0  0  0  0  0
   35.6450   29.4170   36.5850 H   0  0  0  0  0  0  0  0  0  0  0  0
   35.0420   28.7250   38.1460 H   0  0  0  0  0  0  0  0  0  0  0  0
   35.0740   29.4860   40.4920 Cl  0  0  0  0  0  0  0  0  0  0  0  0
   36.2120   30.4890   39.6660 C   0  0  0  0  0  0  0  0  0  0  0  0
   36.5560   30.2140   38.3270 C   0  0  0  0  0  0  0  0  0  0  0  0
   37.4640   31.0510   37.7380 C   0  0  0  0  0  0  0  0  0  0  0  0
   38.0830   32.1540   38.3330 C   0  0  0  0  0  0  0  0  0  0  0  0
   37.7260   32.4030   39.6520 C   0  0  0  0  0  0  0  0  0  0  0  0
   38.4500   33.7690   40.4920 Cl  0  0  0  0  0  0  0  0  0  0  0  0
   36.8160   31.5850   40.2830 C   0  0  0  0  0  0  0  0  0  0  0  0
   37.7240   30.8330   36.7080 H   0  0  0  0  0  0  0  0  0  0  0  0
   38.7900   32.7560   37.7810 H   0  0  0  0  0  0  0  0  0  0  0  0
   36.5320   31.7710   41.3090 H   0  0  0  0  0  0  0  0  0  0  0  0
  1  2  1  0  0  0  0
  2  3  2  0  0  0  0
  2  7  1  0  0  0  0
  3  4  1  0  0  0  0
  4  9  1  0  0  0  0
  4  5  2  0  0  0  0
  6  5  1  0  0  0  0
  6 10  1  0  0  0  0
  7  6  2  0  0  0  0
  8  3  1  0  0  0  0
 10 11  2  0  0  0  0
 12 18  1  0  0  0  0
 12 10  1  0  0  0  0
 13 12  2  0  0  0  0
 14 16  2  0  0  0  0
 14 13  1  0  0  0  0
 15 14  1  0  0  0  0
 16 17  1  0  0  0  0
 17 18  2  0  0  0  0
 19 22  1  0  0  0  0
 19  1  1  0  0  0  0
 19 21  1  0  0  0  0
 20 19  1  0  0  0  0
 22 24  1  0  0  0  0
 22 27  1  0  0  0  0
 23 22  1  0  0  0  0
 26 32  1  0  0  0  0
 26 25  1  0  0  0  0
 27 26  2  0  0  0  0
 28 27  1  0  0  0  0
 28 29  2  0  0  0  0
 29 30  1  0  0  0  0
 30 32  2  0  0  0  0
 30 31  1  0  0  0  0
 32 35  1  0  0  0  0
 33 28  1  0  0  0  0
 34 29  1  0  0  0  0
M  END
>  <minimizedAffinity>
-5.60833025

$$$$

 OpenBabel03242515023D

 35 37  0  0  0  0  0  0  0  0999 V2000
   36.3820   29.7640   40.9310 S   0  0  0  0  0  0  0  0  0  0  0  0
   37.8670   30.7250   41.1950 C   0  0  0  0  0  0  0  0  0  0  0  0
   38.7350   30.2740   42.1970 C   0  0  0  0  0  0  0  0  0  0  0  0
   39.9020   30.9940   42.4340 C   0  0  0  0  0  0  0  0  0  0  0  0
   40.1470   32.1100   41.6760 N   0  0  0  0  0  0  0  0  0  0  0  0
   39.3040   32.5160   40.7310 C   0  0  0  0  0  0  0  0  0  0  0  0
   38.1780   31.8340   40.4910 N   0  0  0  0  0  0  0  0  0  0  0  0
   38.5970   29.4040   42.8250 H   0  0  0  0  0  0  0  0  0  0  0  0
   40.6230   30.7150   43.1870 H   0  0  0  0  0  0  0  0  0  0  0  0
   39.6290   33.7070   39.9690 C   0  0  0  0  0  0  0  0  0  0  0  0
   38.9710   34.7570   40.1840 O   0  0  0  0  0  0  0  0  0  0  0  0
   40.6980   33.6810   38.9760 C   0  0  0  0  0  0  0  0  0  0  0  0
   40.8430   32.5960   38.1370 C   0  0  0  0  0  3  0  0  0  0  0  0
   41.8760   32.6050   37.2000 C   0  0  0  0  0  0  0  0  0  0  0  0
   42.0240   31.7620   36.5150 H   0  0  0  0  0  0  0  0  0  0  0  0
   42.6890   33.6810   37.1590 N   0  0  0  0  0  0  0  0  0  0  0  0
   42.5550   34.7390   37.9720 C   0  0  0  0  0  3  0  0  0  0  0  0
   41.5430   34.7140   38.8800 N   0  0  0  0  0  0  0  0  0  0  0  0
   36.6890   28.2640   39.9930 C   0  0  0  0  0  0  0  0  0  0  0  0
   37.7070   28.3080   39.5300 H   0  0  0  0  0  0  0  0  0  0  0  0
   35.9760   28.1450   39.1290 H   0  0  0  0  0  0  0  0  0  0  0  0
   36.6480   27.0230   40.8220 C   0  0  0  0  0  0  0  0  0  0  0  0
   35.7400   26.9940   41.4800 H   0  0  0  0  0  0  0  0  0  0  0  0
   36.5980   26.1520   40.1250 H   0  0  0  0  0  0  0  0  0  0  0  0
   36.2300   27.3120   43.8280 Cl  0  0  0  0  0  0  0  0  0  0  0  0
   37.7590   27.0140   43.0810 C   0  0  0  0  0  0  0  0  0  0  0  0
   37.8510   26.8970   41.6800 C   0  0  0  0  0  0  0  0  0  0  0  0
   39.0940   26.6610   41.1600 C   0  0  0  0  0  0  0  0  0  0  0  0
   40.2830   26.5260   41.8820 C   0  0  0  0  0  0  0  0  0  0  0  0
   40.1650   26.6470   43.2600 C   0  0  0  0  0  0  0  0  0  0  0  0
   41.6050   26.4930   44.2600 Cl  0  0  0  0  0  0  0  0  0  0  0  0
   38.9330   26.8840   43.8250 C   0  0  0  0  0  0  0  0  0  0  0  0
   39.1570   26.5710   40.0810 H   0  0  0  0  0  0  0  0  0  0  0  0
   41.2200   26.3400   41.3760 H   0  0  0  0  0  0  0  0  0  0  0  0
   38.8310   26.9800   44.8970 H   0  0  0  0  0  0  0  0  0  0  0  0
  1  2  1  0  0  0  0
  2  3  1  0  0  0  0
  3  4  2  0  0  0  0
  3  8  1  0  0  0  0
  4  9  1  0  0  0  0
  5  4  1  0  0  0  0
  6  5  2  0  0  0  0
  7  6  1  0  0  0  0
  7  2  2  0  0  0  0
 10 11  2  0  0  0  0
 10  6  1  0  0  0  0
 12 10  1  0  0  0  0
 13 12  2  0  0  0  0
 14 13  1  0  0  0  0
 15 14  1  0  0  0  0
 16 14  2  0  0  0  0
 16 17  1  0  0  0  0
 17 18  2  0  0  0  0
 18 12  1  0  0  0  0
 19 22  1  0  0  0  0
 19  1  1  0  0  0  0
 20 19  1  0  0  0  0
 21 19  1  0  0  0  0
 22 23  1  0  0  0  0
 22 27  1  0  0  0  0
 24 22  1  0  0  0  0
 26 32  1  0  0  0  0
 26 25  1  0  0  0  0
 27 26  2  0  0  0  0
 28 27  1  0  0  0  0
 28 29  2  0  0  0  0
 29 30  1  0  0  0  0
 30 32  2  0  0  0  0
 30 31  1  0  0  0  0
 32 35  1  0  0  0  0
 33 28  1  0  0  0  0
 34 29  1  0  0  0  0
M  END
>  <minimizedAffinity>
-5.59341955

$$$$

 OpenBabel03242515023D

 35 37  0  0  0  0  0  0  0  0999 V2000
   37.4820   28.5150   40.7870 S   0  0  0  0  0  0  0  0  0  0  0  0
   38.5390   29.8980   41.1980 C   0  0  0  0  0  0  0  0  0  0  0  0
   39.3300   29.7630   42.3450 C   0  0  0  0  0  0  0  0  0  0  0  0
   40.1670   30.8170   42.7000 C   0  0  0  0  0  0  0  0  0  0  0  0
   40.1760   31.9370   41.9110 N   0  0  0  0  0  0  0  0  0  0  0  0
   39.4140   32.0390   40.8250 C   0  0  0  0  0  0  0  0  0  0  0  0
   38.6050   31.0340   40.4710 N   0  0  0  0  0  0  0  0  0  0  0  0
   39.3660   28.9070   43.0060 H   0  0  0  0  0  0  0  0  0  0  0  0
   40.8070   30.7930   43.5690 H   0  0  0  0  0  0  0  0  0  0  0  0
   39.4770   33.2560   40.0380 C   0  0  0  0  0  0  0  0  0  0  0  0
   38.5930   34.1330   40.2130 O   0  0  0  0  0  0  0  0  0  0  0  0
   40.5480   33.4530   39.0660 C   0  0  0  0  0  0  0  0  0  0  0  0
   41.3110   34.6010   39.0930 C   0  0  0  0  0  3  0  0  0  0  0  0
   42.3250   34.7550   38.1480 C   0  0  0  0  0  0  0  0  0  0  0  0
   42.9540   35.6530   38.1370 H   0  0  0  0  0  0  0  0  0  0  0  0
   42.5120   33.7680   37.2480 N   0  0  0  0  0  0  0  0  0  0  0  0
   41.7750   32.6490   37.2160 C   0  0  0  0  0  3  0  0  0  0  0  0
   40.7890   32.5140   38.1440 N   0  0  0  0  0  0  0  0  0  0  0  0
   36.4340   28.0170   42.1580 C   0  0  0  0  0  0  0  0  0  0  0  0
   35.5070   27.5280   41.7680 H   0  0  0  0  0  0  0  0  0  0  0  0
   36.0740   28.8970   42.7620 H   0  0  0  0  0  0  0  0  0  0  0  0
   37.0820   27.0380   43.0780 C   0  0  0  0  0  0  0  0  0  0  0  0
   38.0130   27.4570   43.5430 H   0  0  0  0  0  0  0  0  0  0  0  0
   36.3580   26.8130   43.8970 H   0  0  0  0  0  0  0  0  0  0  0  0
   39.9550   26.0610   43.3760 Cl  0  0  0  0  0  0  0  0  0  0  0  0
   38.7400   25.2470   42.4560 C   0  0  0  0  0  0  0  0  0  0  0  0
   37.4370   25.7790   42.3780 C   0  0  0  0  0  0  0  0  0  0  0  0
   36.5280   25.0800   41.6320 C   0  0  0  0  0  0  0  0  0  0  0  0
   36.7640   23.8900   40.9380 C   0  0  0  0  0  0  0  0  0  0  0  0
   38.0550   23.3880   41.0310 C   0  0  0  0  0  0  0  0  0  0  0  0
   38.4550   21.8930   40.1930 Cl  0  0  0  0  0  0  0  0  0  0  0  0
   39.0010   24.0590   41.7710 C   0  0  0  0  0  0  0  0  0  0  0  0
   35.5280   25.4950   41.5770 H   0  0  0  0  0  0  0  0  0  0  0  0
   35.9750   23.4130   40.3740 H   0  0  0  0  0  0  0  0  0  0  0  0
   40.0090   23.6760   41.8490 H   0  0  0  0  0  0  0  0  0  0  0  0
  1  2  1  0  0  0  0
  1 19  1  0  0  0  0
  2  3  1  0  0  0  0
  3  4  2  0  0  0  0
  3  8  1  0  0  0  0
  4  9  1  0  0  0  0
  5  4  1  0  0  0  0
  6  5  2  0  0  0  0
  7  6  1  0  0  0  0
  7  2  2  0  0  0  0
 10 11  2  0  0  0  0
 10  6  1  0  0  0  0
 12 13  1  0  0  0  0
 12 10  1  0  0  0  0
 14 13  2  0  0  0  0
 15 14  1  0  0  0  0
 16 14  1  0  0  0  0
 17 16  2  0  0  0  0
 17 18  1  0  0  0  0
 18 12  2  0  0  0  0
 19 21  1  0  0  0  0
 19 22  1  0  0  0  0
 20 19  1  0  0  0  0
 22 23  1  0  0  0  0
 22 24  1  0  0  0  0
 26 25  1  0  0  0  0
 27 26  1  0  0  0  0
 27 22  1  0  0  0  0
 28 27  2  0  0  0  0
 29 30  2  0  0  0  0
 29 28  1  0  0  0  0
 30 32  1  0  0  0  0
 31 30  1  0  0  0  0
 32 35  1  0  0  0  0
 32 26  2  0  0  0  0
 33 28  1  0  0  0  0
 34 29  1  0  0  0  0
M  END
>  <minimizedAffinity>
-5.5329814

$$$$
