
 OpenBabel03252502163D

 22 23  0  0  0  0  0  0  0  0999 V2000
   46.7940   34.8510   42.7130 C   0  0  0  0  0  0  0  0  0  0  0  0
   47.1920   33.8320   43.5970 C   0  0  0  0  0  0  0  0  0  0  0  0
   46.4050   33.5900   44.7370 C   0  0  0  0  0  0  0  0  0  0  0  0
   45.2940   34.3540   44.9340 N   0  0  0  0  0  0  0  0  0  0  0  0
   44.9570   35.3210   44.0520 C   0  0  0  0  0  0  0  0  0  0  0  0
   45.6840   35.5830   42.9510 N   0  0  0  0  0  0  0  0  0  0  0  0
   47.3930   35.0430   41.8370 H   0  0  0  0  0  0  0  0  0  0  0  0
   44.0680   35.8940   44.2580 H   0  0  0  0  0  0  0  0  0  0  0  0
   46.8430   32.5280   45.6340 C   0  0  0  0  0  0  0  0  0  0  0  0
   46.9980   32.7450   47.0050 C   0  0  0  0  0  0  0  0  0  0  0  0
   47.4190   31.7050   47.8400 C   0  0  0  0  0  0  0  0  0  0  0  0
   47.5260   31.9220   48.9030 H   0  0  0  0  0  0  0  0  0  0  0  0
   47.6660   30.5120   47.2950 N   0  0  0  0  0  0  0  0  0  0  0  0
   47.5270   30.2740   45.9920 C   0  0  0  0  0  0  0  0  0  0  0  0
   47.1200   31.2940   45.2110 N   0  0  0  0  0  0  0  0  0  0  0  0
   48.3400   33.1340   43.2780 O   0  0  0  0  0  0  0  0  0  0  0  0
   50.8220   32.9740   42.4010 O   0  0  0  0  0  0  0  0  0  0  0  0
   49.6410   33.8850   42.4560 P   0  0  0  0  0  0  0  0  0  0  0  0
   49.2000   34.2500   40.8520 O   0  0  0  0  0  0  0  0  0  0  0  0
   48.8590   33.4750   40.3750 H   0  0  0  0  0  0  0  0  0  0  0  0
   50.0760   35.3190   43.2350 O   0  0  0  0  0  0  0  0  0  0  0  0
   50.0710   36.0910   42.5850 H   0  0  0  0  0  0  0  0  0  0  0  0
  1  6  2  0  0  0  0
  1  2  1  0  0  0  0
  2  3  2  0  0  0  0
  3  4  1  0  0  0  0
  3  9  1  0  0  0  0
  5  8  1  0  0  0  0
  5  4  2  0  0  0  0
  6  5  1  0  0  0  0
  7  1  1  0  0  0  0
  9 10  1  0  0  0  0
 10 11  2  0  0  0  0
 11 12  1  0  0  0  0
 13 11  1  0  0  0  0
 14 13  2  0  0  0  0
 15  9  2  0  0  0  0
 15 14  1  0  0  0  0
 16  2  1  0  0  0  0
 17 18  2  0  0  0  0
 18 21  1  0  0  0  0
 18 16  1  0  0  0  0
 19 18  1  0  0  0  0
 20 19  1  0  0  0  0
 22 21  1  0  0  0  0
M  END
>  <minimizedAffinity>
-5.32339716

>  <minimizedRMSD>
0.669533968

$$$$
