
 OpenBabel03242516203D

 26 28  0  0  0  0  0  0  0  0999 V2000
   45.8950   32.7970   47.0600 C   0  0  0  0  0  0  0  0  0  0  0  0
   47.1620   32.3540   47.4040 C   0  0  0  0  0  0  0  0  0  0  0  0
   47.3760   31.5230   48.4840 C   0  0  0  0  0  0  0  0  0  0  0  0
   46.3250   31.1070   49.2580 C   0  0  0  0  0  0  0  0  0  0  0  0
   45.0500   31.5310   48.9400 C   0  0  0  0  0  0  0  0  0  0  0  0
   44.8610   32.3650   47.8520 C   0  0  0  0  0  0  0  0  0  0  0  0
   47.9680   32.7070   46.7660 H   0  0  0  0  0  0  0  0  0  0  0  0
   46.4820   30.4600   50.1020 H   0  0  0  0  0  0  0  0  0  0  0  0
   44.2030   31.2210   49.5290 H   0  0  0  0  0  0  0  0  0  0  0  0
   43.8580   32.6930   47.6090 H   0  0  0  0  0  0  0  0  0  0  0  0
   44.5630   35.5220   45.0320 C   0  0  0  0  0  0  0  0  0  0  0  0
   45.2470   35.4080   43.8170 C   0  0  0  0  0  0  0  0  0  0  0  0
   46.1840   34.3760   43.6900 C   0  0  0  0  0  0  0  0  0  0  0  0
   46.3970   33.5250   44.7420 N   0  0  0  0  0  0  0  0  0  0  0  0
   45.7040   33.6780   45.9060 C   0  0  0  0  0  0  0  0  0  0  0  0
   44.8040   34.6660   46.0350 N   0  0  0  0  0  0  0  0  0  0  0  0
   43.8580   36.3280   45.0770 H   0  0  0  0  0  0  0  0  0  0  0  0
   45.1200   36.0500   42.9520 H   0  0  0  0  0  0  0  0  0  0  0  0
   46.7820   34.1600   42.8300 H   0  0  0  0  0  0  0  0  0  0  0  0
   48.7550   31.1270   48.7430 C   0  0  0  0  0  0  0  0  0  0  0  0
   49.3240   29.9480   48.3120 C   0  0  0  0  0  0  0  0  0  0  0  0
   50.6380   29.6210   48.5850 C   0  0  0  0  0  0  0  0  0  0  0  0
   51.0750   28.7020   48.2470 H   0  0  0  0  0  0  0  0  0  0  0  0
   51.3960   30.4890   49.3000 N   0  0  0  0  0  0  0  0  0  0  0  0
   50.8510   31.6430   49.7240 C   0  0  0  0  0  0  0  0  0  0  0  0
   49.5520   31.9490   49.4470 N   0  0  0  0  0  0  0  0  0  0  0  0
  1  2  2  0  0  0  0
  1  6  1  0  0  0  0
  2  3  1  0  0  0  0
  3 20  1  0  0  0  0
  3  4  2  0  0  0  0
  4  8  1  0  0  0  0
  5  4  1  0  0  0  0
  5  9  1  0  0  0  0
  6  5  2  0  0  0  0
  7  2  1  0  0  0  0
 10  6  1  0  0  0  0
 11 17  1  0  0  0  0
 11 16  1  0  0  0  0
 12 11  2  0  0  0  0
 13 12  1  0  0  0  0
 13 14  2  0  0  0  0
 14 15  1  0  0  0  0
 15 16  2  0  0  0  0
 15  1  1  0  0  0  0
 18 12  1  0  0  0  0
 19 13  1  0  0  0  0
 20 26  1  0  0  0  0
 21 22  1  0  0  0  0
 21 20  2  0  0  0  0
 22 24  2  0  0  0  0
 23 22  1  0  0  0  0
 24 25  1  0  0  0  0
 26 25  2  0  0  0  0
M  END
>  <minimizedAffinity>
-5.66690731

>  <minimizedRMSD>
0.732510805

$$$$
