
 OpenBabel03242516523D

 43 46  0  0  1  0  0  0  0  0999 V2000
   47.8410   32.9030   41.8300 C   0  0  1  0  0  0  0  0  0  0  0  0
   47.5410   32.2940   40.5350 C   0  0  0  0  0  0  0  0  0  0  0  0
   48.5700   32.8420   39.5520 C   0  0  0  0  0  0  0  0  0  0  0  0
   48.2350   34.2940   39.3390 C   0  0  0  0  0  0  0  0  0  0  0  0
   48.1520   35.0910   40.6050 C   0  0  0  0  0  0  0  0  0  0  0  0
   47.6390   34.4220   41.8100 C   0  0  1  0  0  0  0  0  0  0  0  0
   48.9550   32.8160   42.0180 H   0  0  0  0  0  0  0  0  0  0  0  0
   46.5470   32.4970   40.1450 H   0  0  0  0  0  0  0  0  0  0  0  0
   47.6560   31.1810   40.6410 H   0  0  0  0  0  0  0  0  0  0  0  0
   49.6050   32.7140   39.9070 H   0  0  0  0  0  0  0  0  0  0  0  0
   48.3640   32.3410   38.5710 H   0  0  0  0  0  0  0  0  0  0  0  0
   47.2890   34.3580   38.7310 H   0  0  0  0  0  0  0  0  0  0  0  0
   49.0320   34.7040   38.6820 H   0  0  0  0  0  0  0  0  0  0  0  0
   49.1750   35.5330   40.7760 H   0  0  0  0  0  0  0  0  0  0  0  0
   47.5210   35.9870   40.3840 H   0  0  0  0  0  0  0  0  0  0  0  0
   48.2220   34.7950   42.6970 H   0  0  0  0  0  0  0  0  0  0  0  0
   45.3920   30.9160   43.9050 C   0  0  0  0  0  0  0  0  0  0  0  0
   46.0810   31.4900   42.8340 C   0  0  0  0  0  0  0  0  0  0  0  0
   47.1770   32.3410   42.9880 C   0  0  0  0  0  0  0  0  0  0  0  0
   47.5440   32.5870   44.2460 N   0  0  0  0  0  0  0  0  0  0  0  0
   46.8820   32.0350   45.2950 C   0  0  0  0  0  0  0  0  0  0  0  0
   45.8350   31.2220   45.1420 N   0  0  0  0  0  0  0  0  0  0  0  0
   44.5630   30.2730   43.7420 H   0  0  0  0  0  0  0  0  0  0  0  0
   45.7390   31.2560   41.8150 H   0  0  0  0  0  0  0  0  0  0  0  0
   47.2420   32.2850   46.2860 H   0  0  0  0  0  0  0  0  0  0  0  0
   46.2510   34.7840   42.1070 C   0  0  0  0  0  0  0  0  0  0  0  0
   45.7830   35.3320   43.3040 C   0  0  0  0  0  0  0  0  0  0  0  0
   44.4150   35.6130   43.3590 C   0  0  0  0  0  0  0  0  0  0  0  0
   43.6520   35.3280   42.2390 C   0  0  0  0  0  0  0  0  0  0  0  0
   44.1320   34.7830   41.0580 C   0  0  0  0  0  0  0  0  0  0  0  0
   45.4700   34.5200   41.0350 N   0  0  0  0  0  0  0  0  0  0  0  0
   46.5020   35.4910   44.0740 H   0  0  0  0  0  0  0  0  0  0  0  0
   44.0420   36.0290   44.2610 H   0  0  0  0  0  0  0  0  0  0  0  0
   42.5950   35.5660   42.3330 H   0  0  0  0  0  0  0  0  0  0  0  0
   43.2330   34.5290   39.9390 C   0  0  0  0  0  0  0  0  0  0  0  0
   42.2540   35.3290   39.7930 O   0  0  0  0  0  0  0  0  0  0  0  0
   43.3140   33.4600   38.9510 C   0  0  0  0  0  0  0  0  0  0  0  0
   42.1740   32.7320   38.6990 C   0  0  0  0  0  3  0  0  0  0  0  0
   42.2140   31.6950   37.7590 C   0  0  0  0  0  0  0  0  0  0  0  0
   41.3300   31.1060   37.5410 H   0  0  0  0  0  0  0  0  0  0  0  0
   43.3820   31.4280   37.1130 N   0  0  0  0  0  0  0  0  0  0  0  0
   44.4810   32.1280   37.3560 C   0  0  0  0  0  3  0  0  0  0  0  0
   44.4000   33.0990   38.2500 N   0  0  0  0  0  0  0  0  0  0  0  0
  1  7  1  1  0  0  0
  1 19  1  0  0  0  0
  2  9  1  0  0  0  0
  2  1  1  0  0  0  0
  3 10  1  0  0  0  0
  3  2  1  0  0  0  0
  4  3  1  0  0  0  0
  4  5  1  0  0  0  0
  5 14  1  0  0  0  0
  5  6  1  0  0  0  0
  6  1  1  0  0  0  0
  6 26  1  0  0  0  0
  6 16  1  1  0  0  0
  8  2  1  0  0  0  0
 11  3  1  0  0  0  0
 12  4  1  0  0  0  0
 13  4  1  0  0  0  0
 15  5  1  0  0  0  0
 17 22  1  0  0  0  0
 18 19  1  0  0  0  0
 18 17  2  0  0  0  0
 19 20  2  0  0  0  0
 20 21  1  0  0  0  0
 21 25  1  0  0  0  0
 22 21  2  0  0  0  0
 23 17  1  0  0  0  0
 24 18  1  0  0  0  0
 26 27  1  0  0  0  0
 27 28  2  0  0  0  0
 27 32  1  0  0  0  0
 28 33  1  0  0  0  0
 29 34  1  0  0  0  0
 29 28  1  0  0  0  0
 30 29  2  0  0  0  0
 31 30  1  0  0  0  0
 31 26  2  0  0  0  0
 35 30  1  0  0  0  0
 36 35  2  0  0  0  0
 37 35  1  0  0  0  0
 38 37  1  0  0  0  0
 39 38  2  0  0  0  0
 40 39  1  0  0  0  0
 41 42  2  0  0  0  0
 41 39  1  0  0  0  0
 42 43  1  0  0  0  0
 43 37  2  0  0  0  0
M  END
>  <minimizedAffinity>
-5.46221972

>  <minimizedRMSD>
0.498462111

$$$$
