
 OpenBabel03252507093D

 22 23  0  0  0  0  0  0  0  0999 V2000
   38.8410   27.8570   43.3490 C   0  0  0  0  0  0  0  0  0  0  0  0
   38.8540   29.1790   42.8730 C   0  0  0  0  0  0  0  0  0  0  0  0
   38.2350   29.4240   41.6400 C   0  0  0  0  0  0  0  0  0  0  0  0
   37.6610   28.3920   40.9720 N   0  0  0  0  0  0  0  0  0  0  0  0
   37.6650   27.1280   41.4570 C   0  0  0  0  0  0  0  0  0  0  0  0
   38.2490   26.8680   42.6320 N   0  0  0  0  0  0  0  0  0  0  0  0
   39.3400   27.7320   44.3170 H   0  0  0  0  0  0  0  0  0  0  0  0
   39.3150   29.9920   43.4160 H   0  0  0  0  0  0  0  0  0  0  0  0
   37.0300   26.0590   40.6920 C   0  0  0  0  0  0  0  0  0  0  0  0
   36.9080   24.8060   41.2430 C   0  0  0  0  0  3  0  0  0  0  0  0
   36.3000   23.8570   40.4590 C   0  0  0  0  0  0  0  0  0  0  0  0
   36.1400   22.8270   40.7750 H   0  0  0  0  0  0  0  0  0  0  0  0
   35.8370   24.0830   39.2280 N   0  0  0  0  0  0  0  0  0  0  0  0
   35.9740   25.3380   38.7060 C   0  0  0  0  0  3  0  0  0  0  0  0
   36.5660   26.2890   39.4530 N   0  0  0  0  0  0  0  0  0  0  0  0
   38.2580   30.7380   41.1850 O   0  0  0  0  0  0  0  0  0  0  0  0
   36.7960   30.9190   38.9890 O   0  0  0  0  0  0  0  0  0  0  0  0
   36.8570   31.3790   40.4340 P   0  0  0  0  0  0  0  0  0  0  0  0
   35.5210   30.8780   41.3080 O   0  0  0  0  0  0  0  0  0  0  0  0
   34.7020   31.0720   40.7710 H   0  0  0  0  0  0  0  0  0  0  0  0
   37.0150   33.0780   40.4380 O   0  0  0  0  0  0  0  0  0  0  0  0
   37.0760   33.3270   41.4090 H   0  0  0  0  0  0  0  0  0  0  0  0
  1  7  1  0  0  0  0
  2  1  1  0  0  0  0
  2  8  1  0  0  0  0
  3  2  2  0  0  0  0
  4  5  2  0  0  0  0
  4  3  1  0  0  0  0
  5  6  1  0  0  0  0
  6  1  2  0  0  0  0
  9 10  1  0  0  0  0
  9  5  1  0  0  0  0
 11 12  1  0  0  0  0
 11 10  2  0  0  0  0
 13 11  1  0  0  0  0
 14 13  2  0  0  0  0
 14 15  1  0  0  0  0
 15  9  2  0  0  0  0
 16  3  1  0  0  0  0
 17 18  2  0  0  0  0
 18 21  1  0  0  0  0
 18 16  1  0  0  0  0
 18 19  1  0  0  0  0
 20 19  1  0  0  0  0
 21 22  1  0  0  0  0
M  END
>  <minimizedAffinity>
-5.21567249

$$$$

 OpenBabel03252507093D

 22 23  0  0  0  0  0  0  0  0999 V2000
   35.3240   27.9830   37.1880 C   0  0  0  0  0  0  0  0  0  0  0  0
   35.6790   29.3300   37.3850 C   0  0  0  0  0  0  0  0  0  0  0  0
   36.3670   29.6460   38.5630 C   0  0  0  0  0  0  0  0  0  0  0  0
   36.6550   28.6580   39.4470 N   0  0  0  0  0  0  0  0  0  0  0  0
   36.2990   27.3700   39.2290 C   0  0  0  0  0  0  0  0  0  0  0  0
   35.6410   27.0410   38.1110 N   0  0  0  0  0  0  0  0  0  0  0  0
   34.7890   27.8020   36.2480 H   0  0  0  0  0  0  0  0  0  0  0  0
   35.4430   30.1070   36.6720 H   0  0  0  0  0  0  0  0  0  0  0  0
   36.6370   26.3500   40.2170 C   0  0  0  0  0  0  0  0  0  0  0  0
   37.1720   26.7230   41.4260 C   0  0  0  0  0  3  0  0  0  0  0  0
   37.4620   25.7040   42.3000 C   0  0  0  0  0  0  0  0  0  0  0  0
   37.8880   25.8620   43.2900 H   0  0  0  0  0  0  0  0  0  0  0  0
   37.2560   24.4110   42.0420 N   0  0  0  0  0  0  0  0  0  0  0  0
   36.7230   24.0720   40.8310 C   0  0  0  0  0  3  0  0  0  0  0  0
   36.4290   25.0500   39.9540 N   0  0  0  0  0  0  0  0  0  0  0  0
   36.7090   30.9820   38.7400 O   0  0  0  0  0  0  0  0  0  0  0  0
   38.2540   31.0290   40.8860 O   0  0  0  0  0  0  0  0  0  0  0  0
   36.9490   31.5710   40.3320 P   0  0  0  0  0  0  0  0  0  0  0  0
   36.9390   33.2440   40.2770 O   0  0  0  0  0  0  0  0  0  0  0  0
   37.2770   33.5900   41.1490 H   0  0  0  0  0  0  0  0  0  0  0  0
   35.6770   30.9620   41.2920 O   0  0  0  0  0  0  0  0  0  0  0  0
   34.8410   31.3270   40.8720 H   0  0  0  0  0  0  0  0  0  0  0  0
  1  2  2  0  0  0  0
  1  6  1  0  0  0  0
  2  3  1  0  0  0  0
  3 16  1  0  0  0  0
  3  4  2  0  0  0  0
  5  4  1  0  0  0  0
  5  9  1  0  0  0  0
  6  5  2  0  0  0  0
  7  1  1  0  0  0  0
  8  2  1  0  0  0  0
  9 10  1  0  0  0  0
 10 11  2  0  0  0  0
 11 12  1  0  0  0  0
 13 11  1  0  0  0  0
 14 13  2  0  0  0  0
 15  9  2  0  0  0  0
 15 14  1  0  0  0  0
 16 18  1  0  0  0  0
 18 17  2  0  0  0  0
 18 21  1  0  0  0  0
 19 18  1  0  0  0  0
 19 20  1  0  0  0  0
 22 21  1  0  0  0  0
M  END
>  <minimizedAffinity>
-4.9860363

$$$$

 OpenBabel03252507093D

 22 23  0  0  0  0  0  0  0  0999 V2000
   35.7450   29.0200   37.4750 C   0  0  0  0  0  0  0  0  0  0  0  0
   36.4870   30.2060   37.6090 C   0  0  0  0  0  0  0  0  0  0  0  0
   37.3420   30.3070   38.7140 C   0  0  0  0  0  0  0  0  0  0  0  0
   37.4140   29.2750   39.5910 N   0  0  0  0  0  0  0  0  0  0  0  0
   36.6860   28.1440   39.4350 C   0  0  0  0  0  0  0  0  0  0  0  0
   35.8620   28.0230   38.3880 N   0  0  0  0  0  0  0  0  0  0  0  0
   35.0980   29.0030   36.5910 H   0  0  0  0  0  0  0  0  0  0  0  0
   36.4200   31.0210   36.9020 H   0  0  0  0  0  0  0  0  0  0  0  0
   36.8060   27.0670   40.4130 C   0  0  0  0  0  0  0  0  0  0  0  0
   36.9110   27.3670   41.7490 C   0  0  0  0  0  3  0  0  0  0  0  0
   37.0200   26.2980   42.6030 C   0  0  0  0  0  0  0  0  0  0  0  0
   37.1090   26.3960   43.6840 H   0  0  0  0  0  0  0  0  0  0  0  0
   37.0290   25.0220   42.2130 N   0  0  0  0  0  0  0  0  0  0  0  0
   36.9230   24.7550   40.8770 C   0  0  0  0  0  3  0  0  0  0  0  0
   36.8150   25.7840   40.0160 N   0  0  0  0  0  0  0  0  0  0  0  0
   38.0670   31.4880   38.8300 O   0  0  0  0  0  0  0  0  0  0  0  0
   38.6890   33.0760   40.8510 O   0  0  0  0  0  0  0  0  0  0  0  0
   37.5390   32.6790   39.9450 P   0  0  0  0  0  0  0  0  0  0  0  0
   36.9470   33.9810   39.0760 O   0  0  0  0  0  0  0  0  0  0  0  0
   36.8290   34.7490   39.7000 H   0  0  0  0  0  0  0  0  0  0  0  0
   36.3300   31.9620   40.9120 O   0  0  0  0  0  0  0  0  0  0  0  0
   35.6080   31.6960   40.2650 H   0  0  0  0  0  0  0  0  0  0  0  0
  1  2  2  0  0  0  0
  1  6  1  0  0  0  0
  2  3  1  0  0  0  0
  3 16  1  0  0  0  0
  3  4  2  0  0  0  0
  5  4  1  0  0  0  0
  5  9  1  0  0  0  0
  6  5  2  0  0  0  0
  7  1  1  0  0  0  0
  8  2  1  0  0  0  0
  9 10  1  0  0  0  0
 10 11  2  0  0  0  0
 11 12  1  0  0  0  0
 13 11  1  0  0  0  0
 14 13  2  0  0  0  0
 15  9  2  0  0  0  0
 15 14  1  0  0  0  0
 16 18  1  0  0  0  0
 18 17  2  0  0  0  0
 18 21  1  0  0  0  0
 19 20  1  0  0  0  0
 19 18  1  0  0  0  0
 22 21  1  0  0  0  0
M  END
>  <minimizedAffinity>
-4.62903595

$$$$

 OpenBabel03252507093D

 22 23  0  0  0  0  0  0  0  0999 V2000
   40.3040   28.5940   38.7860 C   0  0  0  0  0  0  0  0  0  0  0  0
   39.8010   29.7760   39.3570 C   0  0  0  0  0  0  0  0  0  0  0  0
   38.8240   29.6420   40.3530 C   0  0  0  0  0  0  0  0  0  0  0  0
   38.4140   28.4000   40.7140 N   0  0  0  0  0  0  0  0  0  0  0  0
   38.9180   27.2800   40.1450 C   0  0  0  0  0  0  0  0  0  0  0  0
   39.8510   27.3810   39.1920 N   0  0  0  0  0  0  0  0  0  0  0  0
   41.0640   28.7670   38.0150 H   0  0  0  0  0  0  0  0  0  0  0  0
   40.1370   30.7590   39.0600 H   0  0  0  0  0  0  0  0  0  0  0  0
   38.4370   25.9710   40.5760 C   0  0  0  0  0  0  0  0  0  0  0  0
   37.3760   25.8870   41.4450 C   0  0  0  0  0  3  0  0  0  0  0  0
   36.9850   24.6200   41.8010 C   0  0  0  0  0  0  0  0  0  0  0  0
   36.1590   24.4120   42.4800 H   0  0  0  0  0  0  0  0  0  0  0  0
   37.5650   23.5020   41.3590 N   0  0  0  0  0  0  0  0  0  0  0  0
   38.6170   23.6180   40.4970 C   0  0  0  0  0  3  0  0  0  0  0  0
   39.0230   24.8480   40.1300 N   0  0  0  0  0  0  0  0  0  0  0  0
   38.3380   30.8220   40.9060 O   0  0  0  0  0  0  0  0  0  0  0  0
   36.5700   30.9370   38.9430 O   0  0  0  0  0  0  0  0  0  0  0  0
   36.8400   31.4420   40.3490 P   0  0  0  0  0  0  0  0  0  0  0  0
   35.6480   30.9710   41.4240 O   0  0  0  0  0  0  0  0  0  0  0  0
   34.7590   31.1490   41.0080 H   0  0  0  0  0  0  0  0  0  0  0  0
   36.9930   33.1390   40.2770 O   0  0  0  0  0  0  0  0  0  0  0  0
   37.1950   33.4180   41.2210 H   0  0  0  0  0  0  0  0  0  0  0  0
  1  6  2  0  0  0  0
  1  2  1  0  0  0  0
  2  3  2  0  0  0  0
  3  4  1  0  0  0  0
  3 16  1  0  0  0  0
  5  9  1  0  0  0  0
  5  4  2  0  0  0  0
  6  5  1  0  0  0  0
  7  1  1  0  0  0  0
  8  2  1  0  0  0  0
  9 10  1  0  0  0  0
 10 11  2  0  0  0  0
 11 12  1  0  0  0  0
 13 11  1  0  0  0  0
 14 13  2  0  0  0  0
 15 14  1  0  0  0  0
 15  9  2  0  0  0  0
 17 18  2  0  0  0  0
 18 16  1  0  0  0  0
 18 19  1  0  0  0  0
 20 19  1  0  0  0  0
 21 18  1  0  0  0  0
 21 22  1  0  0  0  0
M  END
>  <minimizedAffinity>
-4.59696627

$$$$

 OpenBabel03252507093D

 22 23  0  0  0  0  0  0  0  0999 V2000
   36.9640   32.2690   40.2760 C   0  0  0  0  0  0  0  0  0  0  0  0
   38.0810   32.8530   39.6530 C   0  0  0  0  0  0  0  0  0  0  0  0
   39.2920   32.1530   39.7210 C   0  0  0  0  0  0  0  0  0  0  0  0
   39.3340   30.9650   40.3730 N   0  0  0  0  0  0  0  0  0  0  0  0
   38.2400   30.4280   40.9640 C   0  0  0  0  0  0  0  0  0  0  0  0
   37.0710   31.0760   40.9130 N   0  0  0  0  0  0  0  0  0  0  0  0
   36.0480   32.8650   40.1860 H   0  0  0  0  0  0  0  0  0  0  0  0
   38.0330   33.8010   39.1360 H   0  0  0  0  0  0  0  0  0  0  0  0
   38.3470   29.1450   41.6520 C   0  0  0  0  0  0  0  0  0  0  0  0
   39.2600   28.9890   42.6670 C   0  0  0  0  0  3  0  0  0  0  0  0
   39.2980   27.7530   43.2620 C   0  0  0  0  0  0  0  0  0  0  0  0
   39.9730   27.4970   44.0770 H   0  0  0  0  0  0  0  0  0  0  0  0
   38.5170   26.7270   42.9160 N   0  0  0  0  0  0  0  0  0  0  0  0
   37.6190   26.9120   41.9030 C   0  0  0  0  0  3  0  0  0  0  0  0
   37.5600   28.1150   41.3010 N   0  0  0  0  0  0  0  0  0  0  0  0
   40.3860   32.7470   39.1000 O   0  0  0  0  0  0  0  0  0  0  0  0
   42.0870   32.9550   37.0850 O   0  0  0  0  0  0  0  0  0  0  0  0
   40.9050   32.1420   37.5820 P   0  0  0  0  0  0  0  0  0  0  0  0
   41.2910   30.5250   37.7680 O   0  0  0  0  0  0  0  0  0  0  0  0
   41.7800   30.2210   36.9540 H   0  0  0  0  0  0  0  0  0  0  0  0
   39.6170   32.3630   36.4850 O   0  0  0  0  0  0  0  0  0  0  0  0
   38.8580   31.8290   36.8700 H   0  0  0  0  0  0  0  0  0  0  0  0
  1  6  1  0  0  0  0
  2  3  1  0  0  0  0
  2  1  2  0  0  0  0
  3  4  2  0  0  0  0
  4  5  1  0  0  0  0
  5  9  1  0  0  0  0
  6  5  2  0  0  0  0
  7  1  1  0  0  0  0
  8  2  1  0  0  0  0
  9 10  1  0  0  0  0
 10 11  2  0  0  0  0
 11 12  1  0  0  0  0
 13 11  1  0  0  0  0
 14 13  2  0  0  0  0
 15  9  2  0  0  0  0
 15 14  1  0  0  0  0
 16  3  1  0  0  0  0
 17 18  2  0  0  0  0
 18 19  1  0  0  0  0
 18 16  1  0  0  0  0
 20 19  1  0  0  0  0
 21 22  1  0  0  0  0
 21 18  1  0  0  0  0
M  END
>  <minimizedAffinity>
-4.54631281

$$$$

 OpenBabel03252507093D

 22 23  0  0  0  0  0  0  0  0999 V2000
   40.8220   28.5300   39.7320 C   0  0  0  0  0  0  0  0  0  0  0  0
   40.1870   29.6850   40.2220 C   0  0  0  0  0  0  0  0  0  0  0  0
   38.9590   29.5130   40.8750 C   0  0  0  0  0  0  0  0  0  0  0  0
   38.4460   28.2640   41.0020 N   0  0  0  0  0  0  0  0  0  0  0  0
   39.0820   27.1710   40.5190 C   0  0  0  0  0  0  0  0  0  0  0  0
   40.2560   27.3070   39.8920 N   0  0  0  0  0  0  0  0  0  0  0  0
   41.7770   28.7310   39.2340 H   0  0  0  0  0  0  0  0  0  0  0  0
   40.6070   30.6740   40.1140 H   0  0  0  0  0  0  0  0  0  0  0  0
   38.4800   25.8520   40.6870 C   0  0  0  0  0  0  0  0  0  0  0  0
   39.2600   24.7270   40.5770 C   0  0  0  0  0  3  0  0  0  0  0  0
   38.6180   23.5260   40.7470 C   0  0  0  0  0  0  0  0  0  0  0  0
   39.1190   22.5610   40.6870 H   0  0  0  0  0  0  0  0  0  0  0  0
   37.3150   23.4000   41.0060 N   0  0  0  0  0  0  0  0  0  0  0  0
   36.5650   24.5360   41.1100 C   0  0  0  0  0  3  0  0  0  0  0  0
   37.1680   25.7290   40.9470 N   0  0  0  0  0  0  0  0  0  0  0  0
   38.3460   30.6670   41.3520 O   0  0  0  0  0  0  0  0  0  0  0  0
   36.9300   30.7320   39.1200 O   0  0  0  0  0  0  0  0  0  0  0  0
   36.9590   31.2640   40.5410 P   0  0  0  0  0  0  0  0  0  0  0  0
   35.6060   30.8010   41.4110 O   0  0  0  0  0  0  0  0  0  0  0  0
   34.7990   30.9640   40.8480 H   0  0  0  0  0  0  0  0  0  0  0  0
   37.1110   32.9610   40.4640 O   0  0  0  0  0  0  0  0  0  0  0  0
   37.1510   33.2590   41.4230 H   0  0  0  0  0  0  0  0  0  0  0  0
  1  6  2  0  0  0  0
  1  2  1  0  0  0  0
  2  3  2  0  0  0  0
  3  4  1  0  0  0  0
  3 16  1  0  0  0  0
  5  9  1  0  0  0  0
  5  4  2  0  0  0  0
  6  5  1  0  0  0  0
  7  1  1  0  0  0  0
  8  2  1  0  0  0  0
  9 15  1  0  0  0  0
 10  9  2  0  0  0  0
 10 11  1  0  0  0  0
 11 13  2  0  0  0  0
 12 11  1  0  0  0  0
 13 14  1  0  0  0  0
 15 14  2  0  0  0  0
 17 18  2  0  0  0  0
 18 16  1  0  0  0  0
 18 19  1  0  0  0  0
 20 19  1  0  0  0  0
 21 18  1  0  0  0  0
 21 22  1  0  0  0  0
M  END
>  <minimizedAffinity>
-4.35950232

$$$$

 OpenBabel03252507093D

 22 23  0  0  0  0  0  0  0  0999 V2000
   40.5710   28.6360   42.9300 C   0  0  0  0  0  0  0  0  0  0  0  0
   40.1800   29.9180   42.5020 C   0  0  0  0  0  0  0  0  0  0  0  0
   39.0380   30.0040   41.6970 C   0  0  0  0  0  0  0  0  0  0  0  0
   38.3700   28.8700   41.3700 N   0  0  0  0  0  0  0  0  0  0  0  0
   38.7710   27.6490   41.7980 C   0  0  0  0  0  0  0  0  0  0  0  0
   39.8600   27.5390   42.5680 N   0  0  0  0  0  0  0  0  0  0  0  0
   41.4700   28.6370   43.5560 H   0  0  0  0  0  0  0  0  0  0  0  0
   40.7220   30.8140   42.7700 H   0  0  0  0  0  0  0  0  0  0  0  0
   38.0120   26.4630   41.4130 C   0  0  0  0  0  0  0  0  0  0  0  0
   37.2580   26.4790   40.2650 C   0  0  0  0  0  3  0  0  0  0  0  0
   36.5750   25.3240   39.9750 C   0  0  0  0  0  0  0  0  0  0  0  0
   35.9420   25.2030   39.0960 H   0  0  0  0  0  0  0  0  0  0  0  0
   36.6040   24.2230   40.7270 N   0  0  0  0  0  0  0  0  0  0  0  0
   37.3630   24.2380   41.8640 C   0  0  0  0  0  3  0  0  0  0  0  0
   38.0440   25.3570   42.1740 N   0  0  0  0  0  0  0  0  0  0  0  0
   38.6670   31.2800   41.2830 O   0  0  0  0  0  0  0  0  0  0  0  0
   36.0500   30.9060   41.3300 O   0  0  0  0  0  0  0  0  0  0  0  0
   37.1660   31.4870   40.4810 P   0  0  0  0  0  0  0  0  0  0  0  0
   36.9490   33.1210   40.1930 O   0  0  0  0  0  0  0  0  0  0  0  0
   36.0020   33.2690   39.9170 H   0  0  0  0  0  0  0  0  0  0  0  0
   37.2420   30.5930   39.0300 O   0  0  0  0  0  0  0  0  0  0  0  0
   38.0070   30.9980   38.5200 H   0  0  0  0  0  0  0  0  0  0  0  0
  1  7  1  0  0  0  0
  2  8  1  0  0  0  0
  2  1  2  0  0  0  0
  3  2  1  0  0  0  0
  4  3  2  0  0  0  0
  4  5  1  0  0  0  0
  5  6  2  0  0  0  0
  6  1  1  0  0  0  0
  9  5  1  0  0  0  0
  9 15  1  0  0  0  0
 10  9  2  0  0  0  0
 11 10  1  0  0  0  0
 11 13  2  0  0  0  0
 12 11  1  0  0  0  0
 13 14  1  0  0  0  0
 14 15  2  0  0  0  0
 16  3  1  0  0  0  0
 18 16  1  0  0  0  0
 18 17  2  0  0  0  0
 19 18  1  0  0  0  0
 20 19  1  0  0  0  0
 21 18  1  0  0  0  0
 22 21  1  0  0  0  0
M  END
>  <minimizedAffinity>
-4.34043121

$$$$

 OpenBabel03252507093D

 22 23  0  0  0  0  0  0  0  0999 V2000
   37.4860   29.2850   42.6230 C   0  0  0  0  0  0  0  0  0  0  0  0
   38.4110   28.2610   42.8890 C   0  0  0  0  0  0  0  0  0  0  0  0
   38.4290   27.1690   42.0120 C   0  0  0  0  0  0  0  0  0  0  0  0
   37.5690   27.1480   40.9640 N   0  0  0  0  0  0  0  0  0  0  0  0
   36.6880   28.1510   40.7340 C   0  0  0  0  0  0  0  0  0  0  0  0
   36.6510   29.2050   41.5570 N   0  0  0  0  0  0  0  0  0  0  0  0
   37.5230   30.1100   43.3450 H   0  0  0  0  0  0  0  0  0  0  0  0
   39.0920   28.2900   43.7290 H   0  0  0  0  0  0  0  0  0  0  0  0
   35.7860   28.0720   39.5890 C   0  0  0  0  0  0  0  0  0  0  0  0
   34.8020   29.0170   39.4310 C   0  0  0  0  0  3  0  0  0  0  0  0
   33.9960   28.8720   38.3290 C   0  0  0  0  0  0  0  0  0  0  0  0
   33.1790   29.5510   38.0860 H   0  0  0  0  0  0  0  0  0  0  0  0
   34.1170   27.8910   37.4320 N   0  0  0  0  0  0  0  0  0  0  0  0
   35.1050   26.9660   37.6170 C   0  0  0  0  0  3  0  0  0  0  0  0
   35.9110   27.0830   38.6890 N   0  0  0  0  0  0  0  0  0  0  0  0
   39.3510   26.1650   42.2910 O   0  0  0  0  0  0  0  0  0  0  0  0
   39.2290   24.0510   40.7070 O   0  0  0  0  0  0  0  0  0  0  0  0
   38.8750   24.5290   42.1030 P   0  0  0  0  0  0  0  0  0  0  0  0
   39.6380   23.6250   43.2870 O   0  0  0  0  0  0  0  0  0  0  0  0
   39.5310   22.6590   43.0640 H   0  0  0  0  0  0  0  0  0  0  0  0
   37.1780   24.4760   42.2630 O   0  0  0  0  0  0  0  0  0  0  0  0
   36.9960   24.8240   43.1880 H   0  0  0  0  0  0  0  0  0  0  0  0
  1  2  1  0  0  0  0
  1  7  1  0  0  0  0
  2  8  1  0  0  0  0
  3 16  1  0  0  0  0
  3  2  2  0  0  0  0
  4  3  1  0  0  0  0
  5  4  2  0  0  0  0
  5  6  1  0  0  0  0
  6  1  2  0  0  0  0
  9  5  1  0  0  0  0
 10  9  1  0  0  0  0
 11 10  2  0  0  0  0
 12 11  1  0  0  0  0
 13 14  2  0  0  0  0
 13 11  1  0  0  0  0
 14 15  1  0  0  0  0
 15  9  2  0  0  0  0
 17 18  2  0  0  0  0
 18 21  1  0  0  0  0
 18 16  1  0  0  0  0
 18 19  1  0  0  0  0
 20 19  1  0  0  0  0
 21 22  1  0  0  0  0
M  END
>  <minimizedAffinity>
-4.28472376

$$$$

 OpenBabel03252507093D

 22 23  0  0  0  0  0  0  0  0999 V2000
   36.9890   29.5780   37.7590 C   0  0  0  0  0  0  0  0  0  0  0  0
   37.6310   30.8280   37.7010 C   0  0  0  0  0  0  0  0  0  0  0  0
   38.1590   31.3330   38.8960 C   0  0  0  0  0  0  0  0  0  0  0  0
   38.0290   30.6100   40.0350 N   0  0  0  0  0  0  0  0  0  0  0  0
   37.4050   29.4080   40.0590 C   0  0  0  0  0  0  0  0  0  0  0  0
   36.8920   28.9030   38.9310 N   0  0  0  0  0  0  0  0  0  0  0  0
   36.6000   29.2390   36.7920 H   0  0  0  0  0  0  0  0  0  0  0  0
   37.7270   31.3940   36.7860 H   0  0  0  0  0  0  0  0  0  0  0  0
   37.2960   28.6750   41.3170 C   0  0  0  0  0  0  0  0  0  0  0  0
   37.5370   29.3200   42.5050 C   0  0  0  0  0  3  0  0  0  0  0  0
   37.4140   28.5610   43.6420 C   0  0  0  0  0  0  0  0  0  0  0  0
   37.5760   28.9480   44.6470 H   0  0  0  0  0  0  0  0  0  0  0  0
   37.0820   27.2680   43.6500 N   0  0  0  0  0  0  0  0  0  0  0  0
   36.8490   26.6540   42.4520 C   0  0  0  0  0  3  0  0  0  0  0  0
   36.9630   27.3740   41.3210 N   0  0  0  0  0  0  0  0  0  0  0  0
   38.7900   32.5710   38.8190 O   0  0  0  0  0  0  0  0  0  0  0  0
   40.7670   34.1470   39.5930 O   0  0  0  0  0  0  0  0  0  0  0  0
   39.8540   33.0370   40.0800 P   0  0  0  0  0  0  0  0  0  0  0  0
   38.9310   33.5140   41.3920 O   0  0  0  0  0  0  0  0  0  0  0  0
   39.5270   33.9740   42.0460 H   0  0  0  0  0  0  0  0  0  0  0  0
   40.8230   31.6820   40.4480 O   0  0  0  0  0  0  0  0  0  0  0  0
   40.1740   30.9740   40.7390 H   0  0  0  0  0  0  0  0  0  0  0  0
  1  6  1  0  0  0  0
  2  1  2  0  0  0  0
  2  3  1  0  0  0  0
  3  4  2  0  0  0  0
  4  5  1  0  0  0  0
  5  9  1  0  0  0  0
  6  5  2  0  0  0  0
  7  1  1  0  0  0  0
  8  2  1  0  0  0  0
  9 15  2  0  0  0  0
  9 10  1  0  0  0  0
 10 11  2  0  0  0  0
 11 13  1  0  0  0  0
 11 12  1  0  0  0  0
 14 13  2  0  0  0  0
 15 14  1  0  0  0  0
 16  3  1  0  0  0  0
 16 18  1  0  0  0  0
 17 18  2  0  0  0  0
 18 21  1  0  0  0  0
 18 19  1  0  0  0  0
 19 20  1  0  0  0  0
 21 22  1  0  0  0  0
M  END
>  <minimizedAffinity>
-4.17128229

$$$$
