
 OpenBabel03252506193D

 21 22  0  0  0  0  0  0  0  0999 V2000
   44.9000   35.3760   44.0370 C   0  0  0  0  0  0  0  0  0  0  0  0
   44.4320   34.9080   42.7940 C   0  0  0  0  0  0  0  0  0  0  0  0
   44.5450   33.5320   42.5230 C   0  0  0  0  0  0  0  0  0  0  0  0
   45.1000   32.7380   43.4740 N   0  0  0  0  0  0  0  0  0  0  0  0
   45.5470   33.2260   44.6710 C   0  0  0  0  0  0  0  0  0  0  0  0
   45.4340   34.5480   44.9260 N   0  0  0  0  0  0  0  0  0  0  0  0
   43.9960   35.5870   42.0690 H   0  0  0  0  0  0  0  0  0  0  0  0
   44.2000   33.1300   41.5870 H   0  0  0  0  0  0  0  0  0  0  0  0
   46.1390   32.3520   45.6760 C   0  0  0  0  0  0  0  0  0  0  0  0
   46.0540   30.9770   45.4970 C   0  0  0  0  0  3  0  0  0  0  0  0
   46.6180   30.1420   46.4540 C   0  0  0  0  0  0  0  0  0  0  0  0
   46.5590   29.0690   46.3260 H   0  0  0  0  0  0  0  0  0  0  0  0
   47.2110   30.7370   47.4980 N   0  0  0  0  0  0  0  0  0  0  0  0
   47.3080   32.0470   47.6970 C   0  0  0  0  0  3  0  0  0  0  0  0
   46.7590   32.8760   46.7650 N   0  0  0  0  0  0  0  0  0  0  0  0
   44.7790   36.7990   44.3140 C   0  0  0  0  0  3  0  0  0  0  0  0
   45.3900   37.6680   43.5360 C   0  0  0  0  0  3  0  0  0  0  0  0
   45.3160   39.1300   43.7520 C   0  0  0  0  0  0  0  0  0  0  0  0
   45.0490   39.3790   44.7870 H   0  0  0  0  0  0  0  0  0  0  0  0
   44.5260   39.5340   43.1070 H   0  0  0  0  0  0  0  0  0  0  0  0
   46.3090   39.6060   43.5620 H   0  0  0  0  0  0  0  0  0  0  0  0
  1 16  1  0  0  0  0
  1  6  1  0  0  0  0
  2  1  2  0  0  0  0
  3  2  1  0  0  0  0
  3  4  2  0  0  0  0
  4  5  1  0  0  0  0
  5  6  2  0  0  0  0
  5  9  1  0  0  0  0
  7  2  1  0  0  0  0
  8  3  1  0  0  0  0
  9 15  1  0  0  0  0
 10  9  2  0  0  0  0
 10 11  1  0  0  0  0
 11 13  2  0  0  0  0
 12 11  1  0  0  0  0
 13 14  1  0  0  0  0
 15 14  2  0  0  0  0
 17 18  1  0  0  0  0
 17 16  2  0  0  0  0
 18 19  1  0  0  0  0
 20 18  1  0  0  0  0
 21 18  1  0  0  0  0
M  END
>  <minimizedAffinity>
-3.6155951

>  <minimizedRMSD>
1.50054288

$$$$
