
 OpenBabel03252507073D

 22 23  0  0  0  0  0  0  0  0999 V2000
   44.6280   35.6300   44.8050 C   0  0  0  0  0  0  0  0  0  0  0  0
   45.2090   35.7970   43.5360 C   0  0  0  0  0  0  0  0  0  0  0  0
   46.1810   34.8660   43.1480 C   0  0  0  0  0  0  0  0  0  0  0  0
   46.5130   33.8630   43.9980 N   0  0  0  0  0  0  0  0  0  0  0  0
   45.9360   33.7280   45.2150 C   0  0  0  0  0  0  0  0  0  0  0  0
   45.0050   34.6050   45.6100 N   0  0  0  0  0  0  0  0  0  0  0  0
   43.8770   36.3900   45.0480 H   0  0  0  0  0  0  0  0  0  0  0  0
   44.9350   36.6010   42.8680 H   0  0  0  0  0  0  0  0  0  0  0  0
   46.3350   32.6280   46.0870 C   0  0  0  0  0  0  0  0  0  0  0  0
   46.0430   31.3340   45.7280 C   0  0  0  0  0  3  0  0  0  0  0  0
   46.4520   30.3570   46.6020 C   0  0  0  0  0  0  0  0  0  0  0  0
   46.2840   29.2940   46.4380 H   0  0  0  0  0  0  0  0  0  0  0  0
   47.0960   30.5930   47.7450 N   0  0  0  0  0  0  0  0  0  0  0  0
   47.3720   31.8900   48.0750 C   0  0  0  0  0  3  0  0  0  0  0  0
   46.9830   32.8700   47.2370 N   0  0  0  0  0  0  0  0  0  0  0  0
   46.7440   35.0470   41.8890 O   0  0  0  0  0  0  0  0  0  0  0  0
   48.5320   33.2900   41.0460 O   0  0  0  0  0  0  0  0  0  0  0  0
   48.4020   34.6710   41.6620 P   0  0  0  0  0  0  0  0  0  0  0  0
   49.0770   35.8560   40.6920 O   0  0  0  0  0  0  0  0  0  0  0  0
   49.9750   35.5430   40.3900 H   0  0  0  0  0  0  0  0  0  0  0  0
   49.1250   34.6290   43.2060 O   0  0  0  0  0  0  0  0  0  0  0  0
   48.9900   35.5530   43.5780 H   0  0  0  0  0  0  0  0  0  0  0  0
  1  7  1  0  0  0  0
  1  6  1  0  0  0  0
  2  1  2  0  0  0  0
  3  2  1  0  0  0  0
  3  4  2  0  0  0  0
  4  5  1  0  0  0  0
  5  6  2  0  0  0  0
  5  9  1  0  0  0  0
  8  2  1  0  0  0  0
  9 15  1  0  0  0  0
 10  9  2  0  0  0  0
 10 11  1  0  0  0  0
 11 13  2  0  0  0  0
 12 11  1  0  0  0  0
 13 14  1  0  0  0  0
 15 14  2  0  0  0  0
 16  3  1  0  0  0  0
 17 18  2  0  0  0  0
 18 16  1  0  0  0  0
 18 21  1  0  0  0  0
 19 18  1  0  0  0  0
 20 19  1  0  0  0  0
 21 22  1  0  0  0  0
M  END
>  <minimizedAffinity>
-5.41518736

>  <minimizedRMSD>
0.460565597

$$$$
