
 OpenBabel03242516513D

 43 46  0  0  1  0  0  0  0  0999 V2000
   47.8190   32.8120   41.7080 C   0  0  1  0  0  0  0  0  0  0  0  0
   47.4780   32.1950   40.4260 C   0  0  0  0  0  0  0  0  0  0  0  0
   48.4940   32.7150   39.4150 C   0  0  0  0  0  0  0  0  0  0  0  0
   48.1790   34.1710   39.1940 C   0  0  0  0  0  0  0  0  0  0  0  0
   48.1390   34.9810   40.4530 C   0  0  0  0  0  0  0  0  0  0  0  0
   47.6440   34.3340   41.6770 C   0  0  1  0  0  0  0  0  0  0  0  0
   48.9360   32.7070   41.8700 H   0  0  0  0  0  0  0  0  0  0  0  0
   46.4790   32.4120   40.0570 H   0  0  0  0  0  0  0  0  0  0  0  0
   47.5760   31.0820   40.5420 H   0  0  0  0  0  0  0  0  0  0  0  0
   49.5340   32.5720   39.7460 H   0  0  0  0  0  0  0  0  0  0  0  0
   48.2550   32.2080   38.4440 H   0  0  0  0  0  0  0  0  0  0  0  0
   47.2200   34.2450   38.6080 H   0  0  0  0  0  0  0  0  0  0  0  0
   48.9680   34.5600   38.5140 H   0  0  0  0  0  0  0  0  0  0  0  0
   49.1740   35.4080   40.5960 H   0  0  0  0  0  0  0  0  0  0  0  0
   47.5200   35.8860   40.2370 H   0  0  0  0  0  0  0  0  0  0  0  0
   48.2540   34.7050   42.5450 H   0  0  0  0  0  0  0  0  0  0  0  0
   45.3660   30.9150   43.8610 C   0  0  0  0  0  0  0  0  0  0  0  0
   46.0420   31.4640   42.7690 C   0  0  0  0  0  0  0  0  0  0  0  0
   47.1740   32.2740   42.8870 C   0  0  0  0  0  0  0  0  0  0  0  0
   47.5900   32.5040   44.1320 N   0  0  0  0  0  0  0  0  0  0  0  0
   46.9430   31.9750   45.2030 C   0  0  0  0  0  0  0  0  0  0  0  0
   45.8620   31.2020   45.0830 N   0  0  0  0  0  0  0  0  0  0  0  0
   44.5090   30.3040   43.7260 H   0  0  0  0  0  0  0  0  0  0  0  0
   45.6570   31.2450   41.7620 H   0  0  0  0  0  0  0  0  0  0  0  0
   47.3440   32.2100   46.1800 H   0  0  0  0  0  0  0  0  0  0  0  0
   46.2690   34.7230   42.0030 C   0  0  0  0  0  0  0  0  0  0  0  0
   45.8390   35.2880   43.2060 C   0  0  0  0  0  0  0  0  0  0  0  0
   44.4780   35.5940   43.2890 C   0  0  0  0  0  0  0  0  0  0  0  0
   43.6840   35.3170   42.1880 C   0  0  0  0  0  0  0  0  0  0  0  0
   44.1270   34.7550   41.0010 C   0  0  0  0  0  0  0  0  0  0  0  0
   45.4600   34.4670   40.9500 N   0  0  0  0  0  0  0  0  0  0  0  0
   46.5780   35.4380   43.9580 H   0  0  0  0  0  0  0  0  0  0  0  0
   44.1330   36.0230   44.1970 H   0  0  0  0  0  0  0  0  0  0  0  0
   42.6340   35.5740   42.3050 H   0  0  0  0  0  0  0  0  0  0  0  0
   43.1990   34.5110   39.9040 C   0  0  0  0  0  0  0  0  0  0  0  0
   42.2500   35.3440   39.7550 O   0  0  0  0  0  0  0  0  0  0  0  0
   43.2210   33.4160   38.9410 C   0  0  0  0  0  0  0  0  0  0  0  0
   44.4080   33.1470   38.2990 C   0  0  0  0  0  3  0  0  0  0  0  0
   44.4650   32.1070   37.3650 C   0  0  0  0  0  0  0  0  0  0  0  0
   45.3860   31.8730   36.8460 H   0  0  0  0  0  0  0  0  0  0  0  0
   43.3430   31.3790   37.1110 N   0  0  0  0  0  0  0  0  0  0  0  0
   42.1990   31.6380   37.7290 C   0  0  0  0  0  3  0  0  0  0  0  0
   42.1870   32.6290   38.6030 N   0  0  0  0  0  0  0  0  0  0  0  0
  1  7  1  1  0  0  0
  1 19  1  0  0  0  0
  2  9  1  0  0  0  0
  2  1  1  0  0  0  0
  3 10  1  0  0  0  0
  3  2  1  0  0  0  0
  4  3  1  0  0  0  0
  4  5  1  0  0  0  0
  5 14  1  0  0  0  0
  5  6  1  0  0  0  0
  6  1  1  0  0  0  0
  6 26  1  0  0  0  0
  6 16  1  1  0  0  0
  8  2  1  0  0  0  0
 11  3  1  0  0  0  0
 12  4  1  0  0  0  0
 13  4  1  0  0  0  0
 15  5  1  0  0  0  0
 17 22  1  0  0  0  0
 18 19  1  0  0  0  0
 18 17  2  0  0  0  0
 19 20  2  0  0  0  0
 20 21  1  0  0  0  0
 21 25  1  0  0  0  0
 22 21  2  0  0  0  0
 23 17  1  0  0  0  0
 24 18  1  0  0  0  0
 26 27  1  0  0  0  0
 27 28  2  0  0  0  0
 27 32  1  0  0  0  0
 28 33  1  0  0  0  0
 29 34  1  0  0  0  0
 29 28  1  0  0  0  0
 30 29  2  0  0  0  0
 31 30  1  0  0  0  0
 31 26  2  0  0  0  0
 35 30  1  0  0  0  0
 36 35  2  0  0  0  0
 37 35  1  0  0  0  0
 38 37  2  0  0  0  0
 39 38  1  0  0  0  0
 40 39  1  0  0  0  0
 41 39  2  0  0  0  0
 41 42  1  0  0  0  0
 42 43  2  0  0  0  0
 43 37  1  0  0  0  0
M  END
>  <minimizedAffinity>
-5.40645075

>  <minimizedRMSD>
0.50525403

$$$$
