
 OpenBabel03252502453D

 29 31  0  0  1  0  0  0  0  0999 V2000
   36.2010   28.1080   41.6270 C   0  0  0  0  0  0  0  0  0  0  0  0
   36.2600   27.1220   41.1510 H   0  0  0  0  0  0  0  0  0  0  0  0
   35.1280   28.4050   41.7670 H   0  0  0  0  0  0  0  0  0  0  0  0
   36.7990   29.1960   40.7960 C   0  0  1  0  0  0  0  0  0  0  0  0
   35.8940   29.9180   39.8500 C   0  0  0  0  0  0  0  0  0  0  0  0
   36.3670   30.5730   41.0890 C   0  0  2  0  0  0  0  0  0  0  0  0
   37.8520   28.9410   40.4830 H   0  0  0  0  0  0  0  0  0  0  0  0
   34.8530   29.6000   39.6580 H   0  0  0  0  0  0  0  0  0  0  0  0
   36.3820   30.1350   38.8750 H   0  0  0  0  0  0  0  0  0  0  0  0
   35.8350   30.9610   41.9290 H   0  0  0  0  0  0  0  0  0  0  0  0
   37.4800   31.5540   40.8140 C   0  0  0  0  0  0  0  0  0  0  0  0
   37.3330   32.6960   40.0430 C   0  0  0  0  0  3  0  0  0  0  0  0
   38.4030   33.5470   39.8370 C   0  0  0  0  0  0  0  0  0  0  0  0
   38.1820   34.4090   39.2200 H   0  0  0  0  0  0  0  0  0  0  0  0
   39.5930   33.2880   40.3710 N   0  0  0  0  0  0  0  0  0  0  0  0
   39.7420   32.1800   41.1210 C   0  0  0  0  0  3  0  0  0  0  0  0
   38.7070   31.3450   41.3280 N   0  0  0  0  0  0  0  0  0  0  0  0
   36.9760   28.0990   42.9250 C   0  0  0  0  0  0  0  0  0  0  0  0
   37.4250   29.0430   43.1900 H   0  0  0  0  0  0  0  0  0  0  0  0
   36.2670   27.6740   43.7020 H   0  0  0  0  0  0  0  0  0  0  0  0
   39.9050   25.8630   43.6230 C   0  0  0  0  0  0  0  0  0  0  0  0
   39.0350   26.9840   43.6780 C   0  0  0  0  0  0  0  0  0  0  0  0
   37.8870   26.9230   42.9350 C   0  0  0  0  0  0  0  0  0  0  0  0
   37.6200   25.8140   42.1870 N   0  0  0  0  0  0  0  0  0  0  0  0
   38.4440   24.7800   42.1510 C   0  0  0  0  0  0  0  0  0  0  0  0
   39.5810   24.7890   42.8570 N   0  0  0  0  0  0  0  0  0  0  0  0
   40.8390   25.7900   44.1620 H   0  0  0  0  0  0  0  0  0  0  0  0
   39.4320   27.7250   44.3330 H   0  0  0  0  0  0  0  0  0  0  0  0
   38.0690   23.9940   41.5050 H   0  0  0  0  0  0  0  0  0  0  0  0
  1  3  1  0  0  0  0
  1 18  1  0  0  0  0
  2  1  1  0  0  0  0
  4  7  1  6  0  0  0
  4  6  1  0  0  0  0
  4  1  1  0  0  0  0
  5  4  1  0  0  0  0
  5  6  1  0  0  0  0
  6 10  1  1  0  0  0
  8  5  1  0  0  0  0
  9  5  1  0  0  0  0
 11  6  1  0  0  0  0
 11 17  1  0  0  0  0
 12 11  2  0  0  0  0
 13 12  1  0  0  0  0
 13 15  2  0  0  0  0
 14 13  1  0  0  0  0
 15 16  1  0  0  0  0
 16 17  2  0  0  0  0
 18 23  1  0  0  0  0
 18 19  1  0  0  0  0
 18 20  1  0  0  0  0
 21 22  1  0  0  0  0
 21 27  1  0  0  0  0
 22 28  1  0  0  0  0
 23 22  2  0  0  0  0
 24 23  1  0  0  0  0
 25 24  2  0  0  0  0
 25 26  1  0  0  0  0
 26 21  2  0  0  0  0
 29 25  1  0  0  0  0
M  END
>  <minimizedAffinity>
-4.74599552

$$$$

 OpenBabel03252502453D

 29 31  0  0  1  0  0  0  0  0999 V2000
   35.9960   28.6620   39.2930 C   0  0  0  0  0  0  0  0  0  0  0  0
   36.3750   27.6430   39.1580 H   0  0  0  0  0  0  0  0  0  0  0  0
   35.1970   28.8810   38.5360 H   0  0  0  0  0  0  0  0  0  0  0  0
   37.0380   29.7100   39.0710 C   0  0  1  0  0  0  0  0  0  0  0  0
   36.9680   30.4910   37.7970 C   0  0  0  0  0  0  0  0  0  0  0  0
   36.5870   31.1120   39.0850 C   0  0  2  0  0  0  0  0  0  0  0  0
   38.0380   29.3870   39.4790 H   0  0  0  0  0  0  0  0  0  0  0  0
   36.2660   30.2430   36.9810 H   0  0  0  0  0  0  0  0  0  0  0  0
   37.9720   30.6770   37.3570 H   0  0  0  0  0  0  0  0  0  0  0  0
   35.6650   31.5330   39.4200 H   0  0  0  0  0  0  0  0  0  0  0  0
   37.6730   32.0180   39.6130 C   0  0  0  0  0  0  0  0  0  0  0  0
   37.5540   33.3950   39.7080 C   0  0  0  0  0  3  0  0  0  0  0  0
   38.5960   34.1570   40.2040 C   0  0  0  0  0  0  0  0  0  0  0  0
   38.4000   35.2220   40.2350 H   0  0  0  0  0  0  0  0  0  0  0  0
   39.7310   33.5870   40.5970 N   0  0  0  0  0  0  0  0  0  0  0  0
   39.8510   32.2500   40.5080 C   0  0  0  0  0  3  0  0  0  0  0  0
   38.8440   31.4980   40.0270 N   0  0  0  0  0  0  0  0  0  0  0  0
   35.5150   28.8470   40.7150 C   0  0  0  0  0  0  0  0  0  0  0  0
   35.0560   29.8020   40.9170 H   0  0  0  0  0  0  0  0  0  0  0  0
   34.8580   27.9470   40.9350 H   0  0  0  0  0  0  0  0  0  0  0  0
   37.9420   26.7530   42.6620 C   0  0  0  0  0  0  0  0  0  0  0  0
   36.9390   27.1140   41.7230 C   0  0  0  0  0  0  0  0  0  0  0  0
   36.5980   28.4370   41.6480 C   0  0  0  0  0  0  0  0  0  0  0  0
   37.2190   29.3450   42.4550 N   0  0  0  0  0  0  0  0  0  0  0  0
   38.1520   28.9880   43.3220 C   0  0  0  0  0  0  0  0  0  0  0  0
   38.5210   27.7070   43.4370 N   0  0  0  0  0  0  0  0  0  0  0  0
   38.2970   25.7440   42.8160 H   0  0  0  0  0  0  0  0  0  0  0  0
   36.6060   26.2510   41.1930 H   0  0  0  0  0  0  0  0  0  0  0  0
   38.5290   29.8410   43.8750 H   0  0  0  0  0  0  0  0  0  0  0  0
  1 18  1  0  0  0  0
  2  1  1  0  0  0  0
  3  1  1  0  0  0  0
  4  6  1  0  0  0  0
  4  1  1  0  0  0  0
  4  7  1  1  0  0  0
  5  4  1  0  0  0  0
  5  6  1  0  0  0  0
  6 10  1  1  0  0  0
  6 11  1  0  0  0  0
  8  5  1  0  0  0  0
  9  5  1  0  0  0  0
 11 12  2  0  0  0  0
 11 17  1  0  0  0  0
 12 13  1  0  0  0  0
 13 14  1  0  0  0  0
 13 15  2  0  0  0  0
 16 15  1  0  0  0  0
 17 16  2  0  0  0  0
 18 19  1  0  0  0  0
 18 20  1  0  0  0  0
 18 23  1  0  0  0  0
 21 27  1  0  0  0  0
 21 26  1  0  0  0  0
 22 21  2  0  0  0  0
 23 22  1  0  0  0  0
 23 24  2  0  0  0  0
 24 25  1  0  0  0  0
 25 26  2  0  0  0  0
 25 29  1  0  0  0  0
 28 22  1  0  0  0  0
M  END
>  <minimizedAffinity>
-4.68691063

$$$$

 OpenBabel03252502453D

 29 31  0  0  1  0  0  0  0  0999 V2000
   38.1150   29.2580   43.3160 C   0  0  0  0  0  0  0  0  0  0  0  0
   38.5500   29.5930   44.2640 H   0  0  0  0  0  0  0  0  0  0  0  0
   37.1050   29.7240   43.1680 H   0  0  0  0  0  0  0  0  0  0  0  0
   37.8720   27.7840   43.2690 C   0  0  1  0  0  0  0  0  0  0  0  0
   36.4740   27.3090   43.5090 C   0  0  0  0  0  0  0  0  0  0  0  0
   37.0600   27.2760   42.1500 C   0  0  2  0  0  0  0  0  0  0  0  0
   38.7420   27.2110   43.7000 H   0  0  0  0  0  0  0  0  0  0  0  0
   35.6600   27.9820   43.8320 H   0  0  0  0  0  0  0  0  0  0  0  0
   36.4390   26.3870   44.1290 H   0  0  0  0  0  0  0  0  0  0  0  0
   36.7660   27.7560   41.2430 H   0  0  0  0  0  0  0  0  0  0  0  0
   37.4960   25.8850   41.7610 C   0  0  0  0  0  0  0  0  0  0  0  0
   38.6720   25.2930   42.1920 C   0  0  0  0  0  3  0  0  0  0  0  0
   39.0020   24.0110   41.7900 C   0  0  0  0  0  0  0  0  0  0  0  0
   39.9420   23.6440   42.1830 H   0  0  0  0  0  0  0  0  0  0  0  0
   38.2000   23.3220   40.9840 N   0  0  0  0  0  0  0  0  0  0  0  0
   37.0560   23.8920   40.5630 C   0  0  0  0  0  3  0  0  0  0  0  0
   36.7250   25.1380   40.9480 N   0  0  0  0  0  0  0  0  0  0  0  0
   39.0660   29.5600   42.1790 C   0  0  0  0  0  0  0  0  0  0  0  0
   40.1120   29.5130   42.4400 H   0  0  0  0  0  0  0  0  0  0  0  0
   38.7560   28.8740   41.3300 H   0  0  0  0  0  0  0  0  0  0  0  0
   37.0600   31.9940   40.1510 C   0  0  0  0  0  0  0  0  0  0  0  0
   37.4260   30.8040   40.8340 C   0  0  0  0  0  0  0  0  0  0  0  0
   38.6230   30.8050   41.4970 C   0  0  0  0  0  0  0  0  0  0  0  0
   39.4050   31.9220   41.4840 N   0  0  0  0  0  0  0  0  0  0  0  0
   39.0450   33.0210   40.8420 C   0  0  0  0  0  0  0  0  0  0  0  0
   37.8860   33.0720   40.1770 N   0  0  0  0  0  0  0  0  0  0  0  0
   36.1430   32.1190   39.5920 H   0  0  0  0  0  0  0  0  0  0  0  0
   36.6630   30.0680   40.7230 H   0  0  0  0  0  0  0  0  0  0  0  0
   39.7900   33.8030   40.9420 H   0  0  0  0  0  0  0  0  0  0  0  0
  1  2  1  0  0  0  0
  3  1  1  0  0  0  0
  4  1  1  0  0  0  0
  4  5  1  0  0  0  0
  4  7  1  1  0  0  0
  5  8  1  0  0  0  0
  5  9  1  0  0  0  0
  6 10  1  6  0  0  0
  6  4  1  0  0  0  0
  6  5  1  0  0  0  0
 11  6  1  0  0  0  0
 11 12  1  0  0  0  0
 13 14  1  0  0  0  0
 13 12  2  0  0  0  0
 15 13  1  0  0  0  0
 16 17  1  0  0  0  0
 16 15  2  0  0  0  0
 17 11  2  0  0  0  0
 18 19  1  0  0  0  0
 18  1  1  0  0  0  0
 20 18  1  0  0  0  0
 21 26  2  0  0  0  0
 21 22  1  0  0  0  0
 22 23  2  0  0  0  0
 23 18  1  0  0  0  0
 24 23  1  0  0  0  0
 25 29  1  0  0  0  0
 25 24  2  0  0  0  0
 26 25  1  0  0  0  0
 27 21  1  0  0  0  0
 28 22  1  0  0  0  0
M  END
>  <minimizedAffinity>
-4.64957523

$$$$

 OpenBabel03252502453D

 29 31  0  0  1  0  0  0  0  0999 V2000
   35.9480   28.5630   41.2410 C   0  0  0  0  0  0  0  0  0  0  0  0
   35.8010   29.6490   41.2460 H   0  0  0  0  0  0  0  0  0  0  0  0
   34.9940   28.0420   41.5190 H   0  0  0  0  0  0  0  0  0  0  0  0
   36.9500   28.1020   42.2490 C   0  0  1  0  0  0  0  0  0  0  0  0
   36.4280   27.4350   43.4820 C   0  0  0  0  0  0  0  0  0  0  0  0
   37.0990   26.6470   42.4240 C   0  0  2  0  0  0  0  0  0  0  0  0
   37.8180   28.8170   42.3210 H   0  0  0  0  0  0  0  0  0  0  0  0
   35.3520   27.3830   43.7260 H   0  0  0  0  0  0  0  0  0  0  0  0
   36.9830   27.7380   44.3970 H   0  0  0  0  0  0  0  0  0  0  0  0
   36.7500   25.8440   41.8150 H   0  0  0  0  0  0  0  0  0  0  0  0
   38.5180   26.2960   42.8010 C   0  0  0  0  0  0  0  0  0  0  0  0
   39.4240   27.2000   43.3310 C   0  0  0  0  0  3  0  0  0  0  0  0
   40.7090   26.8010   43.6510 C   0  0  0  0  0  0  0  0  0  0  0  0
   41.3360   27.5840   44.0580 H   0  0  0  0  0  0  0  0  0  0  0  0
   41.1000   25.5450   43.4570 N   0  0  0  0  0  0  0  0  0  0  0  0
   40.2240   24.6630   42.9430 C   0  0  0  0  0  3  0  0  0  0  0  0
   38.9720   25.0410   42.6280 N   0  0  0  0  0  0  0  0  0  0  0  0
   36.4780   28.1240   39.8950 C   0  0  0  0  0  0  0  0  0  0  0  0
   37.0250   27.1940   39.9060 H   0  0  0  0  0  0  0  0  0  0  0  0
   35.5860   28.1430   39.1930 H   0  0  0  0  0  0  0  0  0  0  0  0
   37.1930   31.5440   38.5310 C   0  0  0  0  0  0  0  0  0  0  0  0
   36.5270   30.4830   39.2020 C   0  0  0  0  0  0  0  0  0  0  0  0
   37.1660   29.2730   39.2490 C   0  0  0  0  0  0  0  0  0  0  0  0
   38.3920   29.1300   38.6670 N   0  0  0  0  0  0  0  0  0  0  0  0
   38.9940   30.1310   38.0490 C   0  0  0  0  0  0  0  0  0  0  0  0
   38.4130   31.3340   37.9720 N   0  0  0  0  0  0  0  0  0  0  0  0
   36.7940   32.5430   38.4260 H   0  0  0  0  0  0  0  0  0  0  0  0
   35.5950   30.8220   39.5900 H   0  0  0  0  0  0  0  0  0  0  0  0
   39.9570   29.8310   37.6490 H   0  0  0  0  0  0  0  0  0  0  0  0
  1  2  1  0  0  0  0
  1  3  1  0  0  0  0
  1  4  1  0  0  0  0
  4  7  1  1  0  0  0
  4  6  1  0  0  0  0
  4  5  1  0  0  0  0
  5  8  1  0  0  0  0
  5  9  1  0  0  0  0
  6 10  1  6  0  0  0
  6 11  1  0  0  0  0
  6  5  1  0  0  0  0
 11 12  1  0  0  0  0
 12 13  2  0  0  0  0
 13 14  1  0  0  0  0
 15 13  1  0  0  0  0
 16 15  2  0  0  0  0
 17 11  2  0  0  0  0
 17 16  1  0  0  0  0
 18 19  1  0  0  0  0
 18  1  1  0  0  0  0
 20 18  1  0  0  0  0
 21 22  1  0  0  0  0
 22 23  2  0  0  0  0
 22 28  1  0  0  0  0
 23 18  1  0  0  0  0
 24 23  1  0  0  0  0
 25 24  2  0  0  0  0
 26 25  1  0  0  0  0
 26 21  2  0  0  0  0
 27 21  1  0  0  0  0
 29 25  1  0  0  0  0
M  END
>  <minimizedAffinity>
-4.57625389

$$$$

 OpenBabel03252502453D

 29 31  0  0  1  0  0  0  0  0999 V2000
   37.4310   27.2230   42.6780 C   0  0  0  0  0  0  0  0  0  0  0  0
   38.2860   27.8570   42.9430 H   0  0  0  0  0  0  0  0  0  0  0  0
   36.9610   26.7990   43.6040 H   0  0  0  0  0  0  0  0  0  0  0  0
   37.8140   26.0340   41.8580 C   0  0  1  0  0  0  0  0  0  0  0  0
   38.7060   25.0170   42.4960 C   0  0  0  0  0  0  0  0  0  0  0  0
   37.2710   24.7310   42.2780 C   0  0  2  0  0  0  0  0  0  0  0  0
   37.9630   26.3130   40.7760 H   0  0  0  0  0  0  0  0  0  0  0  0
   39.1790   25.1700   43.4820 H   0  0  0  0  0  0  0  0  0  0  0  0
   39.4720   24.6230   41.7930 H   0  0  0  0  0  0  0  0  0  0  0  0
   36.4840   24.5050   42.9630 H   0  0  0  0  0  0  0  0  0  0  0  0
   37.0530   23.8330   41.0850 C   0  0  0  0  0  0  0  0  0  0  0  0
   35.9520   23.9110   40.2470 C   0  0  0  0  0  3  0  0  0  0  0  0
   35.8250   23.0500   39.1720 C   0  0  0  0  0  0  0  0  0  0  0  0
   34.9290   23.1960   38.5820 H   0  0  0  0  0  0  0  0  0  0  0  0
   36.7530   22.1310   38.9220 N   0  0  0  0  0  0  0  0  0  0  0  0
   37.8240   22.0510   39.7320 C   0  0  0  0  0  3  0  0  0  0  0  0
   37.9580   22.8830   40.7810 N   0  0  0  0  0  0  0  0  0  0  0  0
   36.4510   28.0110   41.8380 C   0  0  0  0  0  0  0  0  0  0  0  0
   36.0420   27.4730   40.9960 H   0  0  0  0  0  0  0  0  0  0  0  0
   35.6780   28.4140   42.5660 H   0  0  0  0  0  0  0  0  0  0  0  0
   36.8490   31.5410   40.6360 C   0  0  0  0  0  0  0  0  0  0  0  0
   36.2420   30.2980   40.9600 C   0  0  0  0  0  0  0  0  0  0  0  0
   37.0370   29.3430   41.5330 C   0  0  0  0  0  0  0  0  0  0  0  0
   38.3530   29.6100   41.7720 N   0  0  0  0  0  0  0  0  0  0  0  0
   38.8980   30.7740   41.4640 C   0  0  0  0  0  0  0  0  0  0  0  0
   38.1660   31.7420   40.9000 N   0  0  0  0  0  0  0  0  0  0  0  0
   36.3290   32.3730   40.1810 H   0  0  0  0  0  0  0  0  0  0  0  0
   35.2080   30.3170   40.7010 H   0  0  0  0  0  0  0  0  0  0  0  0
   39.9510   30.8030   41.7250 H   0  0  0  0  0  0  0  0  0  0  0  0
  1  2  1  0  0  0  0
  1  3  1  0  0  0  0
  4  7  1  6  0  0  0
  4  6  1  0  0  0  0
  4  5  1  0  0  0  0
  4  1  1  0  0  0  0
  5  8  1  0  0  0  0
  6  5  1  0  0  0  0
  6 10  1  1  0  0  0
  9  5  1  0  0  0  0
 11  6  1  0  0  0  0
 12 11  2  0  0  0  0
 13 12  1  0  0  0  0
 14 13  1  0  0  0  0
 15 13  2  0  0  0  0
 15 16  1  0  0  0  0
 16 17  2  0  0  0  0
 17 11  1  0  0  0  0
 18 20  1  0  0  0  0
 18  1  1  0  0  0  0
 19 18  1  0  0  0  0
 21 26  2  0  0  0  0
 21 22  1  0  0  0  0
 22 23  2  0  0  0  0
 23 24  1  0  0  0  0
 23 18  1  0  0  0  0
 25 29  1  0  0  0  0
 25 24  2  0  0  0  0
 26 25  1  0  0  0  0
 27 21  1  0  0  0  0
 28 22  1  0  0  0  0
M  END
>  <minimizedAffinity>
-4.27379036

$$$$

 OpenBabel03252502453D

 29 31  0  0  1  0  0  0  0  0999 V2000
   36.8730   31.0330   38.7230 C   0  0  0  0  0  0  0  0  0  0  0  0
   35.9660   30.9920   38.1100 H   0  0  0  0  0  0  0  0  0  0  0  0
   37.7080   30.4800   38.2160 H   0  0  0  0  0  0  0  0  0  0  0  0
   36.7160   30.3650   40.0500 C   0  0  1  0  0  0  0  0  0  0  0  0
   35.4100   29.6930   40.3320 C   0  0  0  0  0  0  0  0  0  0  0  0
   36.6230   28.8950   40.0500 C   0  0  2  0  0  0  0  0  0  0  0  0
   37.2380   30.9430   40.8650 H   0  0  0  0  0  0  0  0  0  0  0  0
   34.5360   29.7770   39.6610 H   0  0  0  0  0  0  0  0  0  0  0  0
   35.0680   29.8490   41.3780 H   0  0  0  0  0  0  0  0  0  0  0  0
   36.8430   28.1940   39.2760 H   0  0  0  0  0  0  0  0  0  0  0  0
   37.2220   28.3220   41.3120 C   0  0  0  0  0  0  0  0  0  0  0  0
   37.6950   27.0240   41.4240 C   0  0  0  0  0  3  0  0  0  0  0  0
   38.2300   26.5720   42.6160 C   0  0  0  0  0  0  0  0  0  0  0  0
   38.5700   25.5450   42.5960 H   0  0  0  0  0  0  0  0  0  0  0  0
   38.3010   27.3700   43.6770 N   0  0  0  0  0  0  0  0  0  0  0  0
   37.8430   28.6320   43.5740 C   0  0  0  0  0  3  0  0  0  0  0  0
   37.3200   29.0820   42.4190 N   0  0  0  0  0  0  0  0  0  0  0  0
   37.2280   32.4730   39.0200 C   0  0  0  0  0  0  0  0  0  0  0  0
   36.7900   33.1940   38.3470 H   0  0  0  0  0  0  0  0  0  0  0  0
   36.9770   32.6300   40.1160 H   0  0  0  0  0  0  0  0  0  0  0  0
   40.5810   33.3620   40.4450 C   0  0  0  0  0  0  0  0  0  0  0  0
   39.1720   33.2370   40.3180 C   0  0  0  0  0  0  0  0  0  0  0  0
   38.6980   32.5780   39.2160 C   0  0  0  0  0  0  0  0  0  0  0  0
   39.5730   32.0710   38.2990 N   0  0  0  0  0  0  0  0  0  0  0  0
   40.8820   32.1980   38.4380 C   0  0  0  0  0  0  0  0  0  0  0  0
   41.3970   32.8360   39.4950 N   0  0  0  0  0  0  0  0  0  0  0  0
   41.0760   33.8600   41.2660 H   0  0  0  0  0  0  0  0  0  0  0  0
   38.6870   33.6910   41.1510 H   0  0  0  0  0  0  0  0  0  0  0  0
   41.4160   31.7360   37.6150 H   0  0  0  0  0  0  0  0  0  0  0  0
  1 18  1  0  0  0  0
  1  4  1  0  0  0  0
  2  1  1  0  0  0  0
  3  1  1  0  0  0  0
  4  6  1  0  0  0  0
  4  5  1  0  0  0  0
  4  7  1  1  0  0  0
  5  9  1  0  0  0  0
  6 10  1  6  0  0  0
  6  5  1  0  0  0  0
  6 11  1  0  0  0  0
  8  5  1  0  0  0  0
 11 12  2  0  0  0  0
 11 17  1  0  0  0  0
 12 13  1  0  0  0  0
 13 15  2  0  0  0  0
 14 13  1  0  0  0  0
 16 15  1  0  0  0  0
 17 16  2  0  0  0  0
 18 23  1  0  0  0  0
 18 20  1  0  0  0  0
 19 18  1  0  0  0  0
 21 27  1  0  0  0  0
 22 21  1  0  0  0  0
 22 28  1  0  0  0  0
 23 22  2  0  0  0  0
 24 25  2  0  0  0  0
 24 23  1  0  0  0  0
 25 26  1  0  0  0  0
 26 21  2  0  0  0  0
 29 25  1  0  0  0  0
M  END
>  <minimizedAffinity>
-4.27065277

$$$$

 OpenBabel03252502453D

 29 31  0  0  1  0  0  0  0  0999 V2000
   37.1690   29.4140   42.3830 C   0  0  0  0  0  0  0  0  0  0  0  0
   37.4230   30.0240   43.2570 H   0  0  0  0  0  0  0  0  0  0  0  0
   36.0930   29.1020   42.4280 H   0  0  0  0  0  0  0  0  0  0  0  0
   37.9410   28.1360   42.3140 C   0  0  1  0  0  0  0  0  0  0  0  0
   38.3340   27.4990   43.6090 C   0  0  0  0  0  0  0  0  0  0  0  0
   37.2570   26.9180   42.7790 C   0  0  2  0  0  0  0  0  0  0  0  0
   38.6620   28.1380   41.4470 H   0  0  0  0  0  0  0  0  0  0  0  0
   38.1860   27.9900   44.5870 H   0  0  0  0  0  0  0  0  0  0  0  0
   39.3610   27.0740   43.5790 H   0  0  0  0  0  0  0  0  0  0  0  0
   36.2230   26.7470   42.9820 H   0  0  0  0  0  0  0  0  0  0  0  0
   37.7330   25.7100   42.0090 C   0  0  0  0  0  0  0  0  0  0  0  0
   36.9710   24.5710   41.8060 C   0  0  0  0  0  3  0  0  0  0  0  0
   37.4790   23.5040   41.0880 C   0  0  0  0  0  0  0  0  0  0  0  0
   36.8020   22.6650   40.9880 H   0  0  0  0  0  0  0  0  0  0  0  0
   38.7060   23.5490   40.5790 N   0  0  0  0  0  0  0  0  0  0  0  0
   39.4510   24.6530   40.7720 C   0  0  0  0  0  3  0  0  0  0  0  0
   38.9660   25.6960   41.4690 N   0  0  0  0  0  0  0  0  0  0  0  0
   37.5010   30.1700   41.1160 C   0  0  0  0  0  0  0  0  0  0  0  0
   37.6440   31.2320   41.2470 H   0  0  0  0  0  0  0  0  0  0  0  0
   38.3850   29.6250   40.6560 H   0  0  0  0  0  0  0  0  0  0  0  0
   35.9960   29.4770   37.7510 C   0  0  0  0  0  0  0  0  0  0  0  0
   36.9530   29.8160   38.7450 C   0  0  0  0  0  0  0  0  0  0  0  0
   36.5440   29.7710   40.0500 C   0  0  0  0  0  0  0  0  0  0  0  0
   35.2630   29.4080   40.3480 N   0  0  0  0  0  0  0  0  0  0  0  0
   34.3880   29.0950   39.4070 C   0  0  0  0  0  0  0  0  0  0  0  0
   34.7360   29.1250   38.1160 N   0  0  0  0  0  0  0  0  0  0  0  0
   36.1960   29.4750   36.6890 H   0  0  0  0  0  0  0  0  0  0  0  0
   37.8870   30.0520   38.2890 H   0  0  0  0  0  0  0  0  0  0  0  0
   33.4240   28.8340   39.8310 H   0  0  0  0  0  0  0  0  0  0  0  0
  1  3  1  0  0  0  0
  1  2  1  0  0  0  0
  4  7  1  6  0  0  0
  4  1  1  0  0  0  0
  4  6  1  0  0  0  0
  4  5  1  0  0  0  0
  5  8  1  0  0  0  0
  6 10  1  1  0  0  0
  6  5  1  0  0  0  0
  9  5  1  0  0  0  0
 11  6  1  0  0  0  0
 12 11  1  0  0  0  0
 13 12  2  0  0  0  0
 14 13  1  0  0  0  0
 15 16  2  0  0  0  0
 15 13  1  0  0  0  0
 16 17  1  0  0  0  0
 17 11  2  0  0  0  0
 18 19  1  0  0  0  0
 18  1  1  0  0  0  0
 20 18  1  0  0  0  0
 21 26  2  0  0  0  0
 21 22  1  0  0  0  0
 22 23  2  0  0  0  0
 23 24  1  0  0  0  0
 23 18  1  0  0  0  0
 25 29  1  0  0  0  0
 25 24  2  0  0  0  0
 26 25  1  0  0  0  0
 27 21  1  0  0  0  0
 28 22  1  0  0  0  0
M  END
>  <minimizedAffinity>
-4.24803162

$$$$

 OpenBabel03252502453D

 29 31  0  0  1  0  0  0  0  0999 V2000
   38.9560   30.0160   42.5680 C   0  0  0  0  0  0  0  0  0  0  0  0
   39.8310   30.6540   42.7380 H   0  0  0  0  0  0  0  0  0  0  0  0
   38.2970   30.0130   43.4760 H   0  0  0  0  0  0  0  0  0  0  0  0
   39.3110   28.5820   42.3420 C   0  0  1  0  0  0  0  0  0  0  0  0
   40.3030   27.9630   43.2740 C   0  0  0  0  0  0  0  0  0  0  0  0
   38.8670   27.6160   43.3610 C   0  0  2  0  0  0  0  0  0  0  0  0
   39.3430   28.3360   41.2420 H   0  0  0  0  0  0  0  0  0  0  0  0
   40.8610   28.5470   44.0280 H   0  0  0  0  0  0  0  0  0  0  0  0
   41.0150   27.2890   42.7500 H   0  0  0  0  0  0  0  0  0  0  0  0
   38.1610   27.7310   44.1530 H   0  0  0  0  0  0  0  0  0  0  0  0
   38.5760   26.2740   42.7360 C   0  0  0  0  0  0  0  0  0  0  0  0
   39.4730   25.2170   42.7180 C   0  0  0  0  0  3  0  0  0  0  0  0
   39.1310   24.0160   42.1250 C   0  0  0  0  0  0  0  0  0  0  0  0
   39.9020   23.2580   42.1650 H   0  0  0  0  0  0  0  0  0  0  0  0
   37.9380   23.8500   41.5600 N   0  0  0  0  0  0  0  0  0  0  0  0
   37.0640   24.8730   41.5750 C   0  0  0  0  0  3  0  0  0  0  0  0
   37.3860   26.0460   42.1490 N   0  0  0  0  0  0  0  0  0  0  0  0
   38.2260   30.4670   41.3220 C   0  0  0  0  0  0  0  0  0  0  0  0
   38.1030   29.7040   40.5690 H   0  0  0  0  0  0  0  0  0  0  0  0
   37.2590   30.9360   41.6870 H   0  0  0  0  0  0  0  0  0  0  0  0
   40.7050   33.0940   40.3140 C   0  0  0  0  0  0  0  0  0  0  0  0
   40.1740   31.8390   40.7120 C   0  0  0  0  0  0  0  0  0  0  0  0
   38.8150   31.7500   40.8550 C   0  0  0  0  0  0  0  0  0  0  0  0
   38.0350   32.8420   40.6150 N   0  0  0  0  0  0  0  0  0  0  0  0
   38.5500   34.0020   40.2440 C   0  0  0  0  0  0  0  0  0  0  0  0
   39.8710   34.1440   40.0910 N   0  0  0  0  0  0  0  0  0  0  0  0
   41.7570   33.2920   40.1670 H   0  0  0  0  0  0  0  0  0  0  0  0
   40.9600   31.1290   40.8290 H   0  0  0  0  0  0  0  0  0  0  0  0
   37.7790   34.7520   40.1000 H   0  0  0  0  0  0  0  0  0  0  0  0
  1  2  1  0  0  0  0
  1  3  1  0  0  0  0
  4  7  1  6  0  0  0
  4  1  1  0  0  0  0
  4  5  1  0  0  0  0
  4  6  1  0  0  0  0
  5  6  1  0  0  0  0
  5  8  1  0  0  0  0
  6 10  1  1  0  0  0
  9  5  1  0  0  0  0
 11  6  1  0  0  0  0
 12 11  1  0  0  0  0
 13 14  1  0  0  0  0
 13 12  2  0  0  0  0
 15 16  2  0  0  0  0
 15 13  1  0  0  0  0
 16 17  1  0  0  0  0
 17 11  2  0  0  0  0
 18 20  1  0  0  0  0
 18  1  1  0  0  0  0
 19 18  1  0  0  0  0
 21 22  1  0  0  0  0
 22 28  1  0  0  0  0
 22 23  2  0  0  0  0
 23 18  1  0  0  0  0
 24 23  1  0  0  0  0
 25 24  2  0  0  0  0
 26 25  1  0  0  0  0
 26 21  2  0  0  0  0
 27 21  1  0  0  0  0
 29 25  1  0  0  0  0
M  END
>  <minimizedAffinity>
-4.24262428

$$$$

 OpenBabel03252502453D

 29 31  0  0  1  0  0  0  0  0999 V2000
   34.2800   28.6830   37.9640 C   0  0  0  0  0  0  0  0  0  0  0  0
   34.2680   27.5980   38.1140 H   0  0  0  0  0  0  0  0  0  0  0  0
   33.8560   29.2030   38.8630 H   0  0  0  0  0  0  0  0  0  0  0  0
   33.4260   29.1270   36.8200 C   0  0  1  0  0  0  0  0  0  0  0  0
   32.4190   28.1540   36.2950 C   0  0  0  0  0  0  0  0  0  0  0  0
   31.9930   29.3230   37.0960 C   0  0  2  0  0  0  0  0  0  0  0  0
   34.0050   29.7790   36.1060 H   0  0  0  0  0  0  0  0  0  0  0  0
   32.3700   27.1030   36.6310 H   0  0  0  0  0  0  0  0  0  0  0  0
   32.3480   28.1740   35.1860 H   0  0  0  0  0  0  0  0  0  0  0  0
   31.4760   29.3890   38.0270 H   0  0  0  0  0  0  0  0  0  0  0  0
   31.4260   30.4200   36.2270 C   0  0  0  0  0  0  0  0  0  0  0  0
   30.5900   31.4220   36.6930 C   0  0  0  0  0  3  0  0  0  0  0  0
   30.1110   32.3930   35.8330 C   0  0  0  0  0  0  0  0  0  0  0  0
   29.4660   33.1280   36.2980 H   0  0  0  0  0  0  0  0  0  0  0  0
   30.4420   32.3860   34.5450 N   0  0  0  0  0  0  0  0  0  0  0  0
   31.2540   31.4160   34.0880 C   0  0  0  0  0  3  0  0  0  0  0  0
   31.7250   30.4660   34.9160 N   0  0  0  0  0  0  0  0  0  0  0  0
   35.6840   29.1400   37.6370 C   0  0  0  0  0  0  0  0  0  0  0  0
   36.3720   28.3470   37.3890 H   0  0  0  0  0  0  0  0  0  0  0  0
   35.5690   29.9380   36.8380 H   0  0  0  0  0  0  0  0  0  0  0  0
   37.4550   31.9480   39.3830 C   0  0  0  0  0  0  0  0  0  0  0  0
   37.0010   31.0940   38.3430 C   0  0  0  0  0  0  0  0  0  0  0  0
   36.1400   30.0870   38.6890 C   0  0  0  0  0  0  0  0  0  0  0  0
   35.7540   29.9420   39.9890 N   0  0  0  0  0  0  0  0  0  0  0  0
   36.1880   30.7500   40.9420 C   0  0  0  0  0  0  0  0  0  0  0  0
   37.0330   31.7480   40.6580 N   0  0  0  0  0  0  0  0  0  0  0  0
   38.1350   32.7750   39.2380 H   0  0  0  0  0  0  0  0  0  0  0  0
   37.4170   31.3980   37.4100 H   0  0  0  0  0  0  0  0  0  0  0  0
   35.7760   30.4820   41.9100 H   0  0  0  0  0  0  0  0  0  0  0  0
  1  2  1  0  0  0  0
  1  3  1  0  0  0  0
  4  7  1  6  0  0  0
  4  6  1  0  0  0  0
  4  1  1  0  0  0  0
  5  8  1  0  0  0  0
  5  4  1  0  0  0  0
  5  6  1  0  0  0  0
  6 10  1  1  0  0  0
  9  5  1  0  0  0  0
 11 12  1  0  0  0  0
 11  6  1  0  0  0  0
 13 14  1  0  0  0  0
 13 12  2  0  0  0  0
 15 13  1  0  0  0  0
 16 15  2  0  0  0  0
 16 17  1  0  0  0  0
 17 11  2  0  0  0  0
 18  1  1  0  0  0  0
 18 23  1  0  0  0  0
 19 18  1  0  0  0  0
 20 18  1  0  0  0  0
 21 26  1  0  0  0  0
 22 23  1  0  0  0  0
 22 21  2  0  0  0  0
 23 24  2  0  0  0  0
 24 25  1  0  0  0  0
 25 29  1  0  0  0  0
 26 25  2  0  0  0  0
 27 21  1  0  0  0  0
 28 22  1  0  0  0  0
M  END
>  <minimizedAffinity>
-4.24133348

$$$$
