
 OpenBabel03242516523D

 43 46  0  0  1  0  0  0  0  0999 V2000
   47.8340   32.8940   41.8150 C   0  0  1  0  0  0  0  0  0  0  0  0
   47.5270   32.2820   40.5220 C   0  0  0  0  0  0  0  0  0  0  0  0
   48.5510   32.8270   39.5340 C   0  0  0  0  0  0  0  0  0  0  0  0
   48.2160   34.2800   39.3200 C   0  0  0  0  0  0  0  0  0  0  0  0
   48.1400   35.0790   40.5850 C   0  0  0  0  0  0  0  0  0  0  0  0
   47.6330   34.4130   41.7940 C   0  0  1  0  0  0  0  0  0  0  0  0
   48.9490   32.8060   41.9970 H   0  0  0  0  0  0  0  0  0  0  0  0
   46.5310   32.4850   40.1370 H   0  0  0  0  0  0  0  0  0  0  0  0
   47.6410   31.1700   40.6300 H   0  0  0  0  0  0  0  0  0  0  0  0
   49.5880   32.7000   39.8840 H   0  0  0  0  0  0  0  0  0  0  0  0
   48.3390   32.3260   38.5540 H   0  0  0  0  0  0  0  0  0  0  0  0
   47.2670   34.3440   38.7170 H   0  0  0  0  0  0  0  0  0  0  0  0
   49.0110   34.6880   38.6570 H   0  0  0  0  0  0  0  0  0  0  0  0
   49.1640   35.5210   40.7500 H   0  0  0  0  0  0  0  0  0  0  0  0
   47.5100   35.9750   40.3650 H   0  0  0  0  0  0  0  0  0  0  0  0
   48.2210   34.7860   42.6760 H   0  0  0  0  0  0  0  0  0  0  0  0
   45.3930   30.9130   43.9060 C   0  0  0  0  0  0  0  0  0  0  0  0
   46.0780   31.4840   42.8310 C   0  0  0  0  0  0  0  0  0  0  0  0
   47.1760   32.3340   42.9770 C   0  0  0  0  0  0  0  0  0  0  0  0
   47.5500   32.5820   44.2330 N   0  0  0  0  0  0  0  0  0  0  0  0
   46.8930   32.0320   45.2870 C   0  0  0  0  0  0  0  0  0  0  0  0
   45.8440   31.2200   45.1400 N   0  0  0  0  0  0  0  0  0  0  0  0
   44.5620   30.2710   43.7490 H   0  0  0  0  0  0  0  0  0  0  0  0
   45.7290   31.2490   41.8140 H   0  0  0  0  0  0  0  0  0  0  0  0
   47.2590   32.2830   46.2750 H   0  0  0  0  0  0  0  0  0  0  0  0
   46.2470   34.7760   42.0970 C   0  0  0  0  0  0  0  0  0  0  0  0
   45.7870   35.3310   43.2940 C   0  0  0  0  0  0  0  0  0  0  0  0
   44.4190   35.6120   43.3550 C   0  0  0  0  0  0  0  0  0  0  0  0
   43.6490   35.3220   42.2420 C   0  0  0  0  0  0  0  0  0  0  0  0
   44.1220   34.7710   41.0600 C   0  0  0  0  0  0  0  0  0  0  0  0
   45.4600   34.5070   41.0310 N   0  0  0  0  0  0  0  0  0  0  0  0
   46.5100   35.4930   44.0590 H   0  0  0  0  0  0  0  0  0  0  0  0
   44.0520   36.0330   44.2580 H   0  0  0  0  0  0  0  0  0  0  0  0
   42.5920   35.5600   42.3410 H   0  0  0  0  0  0  0  0  0  0  0  0
   43.2160   34.5110   39.9480 C   0  0  0  0  0  0  0  0  0  0  0  0
   42.3610   35.4130   39.6790 O   0  0  0  0  0  0  0  0  0  0  0  0
   43.1660   33.3320   39.0920 C   0  0  0  0  0  0  0  0  0  0  0  0
   44.2370   33.0930   38.2630 C   0  0  0  0  0  3  0  0  0  0  0  0
   44.2220   31.9730   37.4250 C   0  0  0  0  0  0  0  0  0  0  0  0
   45.0520   31.7610   36.7620 H   0  0  0  0  0  0  0  0  0  0  0  0
   43.1440   31.1400   37.4460 N   0  0  0  0  0  0  0  0  0  0  0  0
   42.1110   31.3710   38.2450 C   0  0  0  0  0  3  0  0  0  0  0  0
   42.1660   32.4390   39.0200 N   0  0  0  0  0  0  0  0  0  0  0  0
  1  7  1  1  0  0  0
  1 19  1  0  0  0  0
  2  9  1  0  0  0  0
  2  1  1  0  0  0  0
  3 10  1  0  0  0  0
  3  2  1  0  0  0  0
  4  3  1  0  0  0  0
  4  5  1  0  0  0  0
  5 14  1  0  0  0  0
  5  6  1  0  0  0  0
  6  1  1  0  0  0  0
  6 26  1  0  0  0  0
  6 16  1  1  0  0  0
  8  2  1  0  0  0  0
 11  3  1  0  0  0  0
 12  4  1  0  0  0  0
 13  4  1  0  0  0  0
 15  5  1  0  0  0  0
 17 22  1  0  0  0  0
 18 19  1  0  0  0  0
 18 17  2  0  0  0  0
 19 20  2  0  0  0  0
 20 21  1  0  0  0  0
 21 25  1  0  0  0  0
 22 21  2  0  0  0  0
 23 17  1  0  0  0  0
 24 18  1  0  0  0  0
 26 27  1  0  0  0  0
 27 28  2  0  0  0  0
 27 32  1  0  0  0  0
 28 33  1  0  0  0  0
 29 34  1  0  0  0  0
 29 28  1  0  0  0  0
 30 29  2  0  0  0  0
 31 30  1  0  0  0  0
 31 26  2  0  0  0  0
 35 30  1  0  0  0  0
 36 35  2  0  0  0  0
 37 35  1  0  0  0  0
 38 37  2  0  0  0  0
 39 41  2  0  0  0  0
 39 38  1  0  0  0  0
 40 39  1  0  0  0  0
 41 42  1  0  0  0  0
 42 43  2  0  0  0  0
 43 37  1  0  0  0  0
M  END
>  <minimizedAffinity>
-5.31910324

>  <minimizedRMSD>
0.339041829

$$$$
