
 OpenBabel03242510093D

 26 28  0  0  0  0  0  0  0  0999 V2000
   44.7830   32.9870   41.1880 Br  0  0  0  0  0  0  0  0  0  0  0  0
   46.4320   33.9480   40.9330 C   0  0  0  0  0  0  0  0  0  0  0  0
   46.8970   34.7580   41.9380 C   0  0  0  0  0  0  0  0  0  0  0  0
   48.0960   35.4650   41.7690 C   0  0  0  0  0  0  0  0  0  0  0  0
   48.7780   35.3260   40.5940 C   0  0  0  0  0  0  0  0  0  0  0  0
   48.2690   34.5040   39.6260 C   0  0  0  0  0  0  0  0  0  0  0  0
   47.1200   33.8110   39.7540 C   0  0  0  0  0  0  0  0  0  0  0  0
   48.4190   36.0980   42.6060 H   0  0  0  0  0  0  0  0  0  0  0  0
   49.7050   35.8690   40.4540 H   0  0  0  0  0  0  0  0  0  0  0  0
   48.8390   34.4250   38.7140 H   0  0  0  0  0  0  0  0  0  0  0  0
   45.6410   34.0440   45.2880 C   0  0  0  0  0  0  0  0  0  0  0  0
   44.7100   35.0760   45.5260 C   0  0  0  0  0  0  0  0  0  0  0  0
   44.5290   36.0190   44.5020 C   0  0  0  0  0  0  0  0  0  0  0  0
   45.2520   35.8800   43.3640 N   0  0  0  0  0  0  0  0  0  0  0  0
   46.1410   34.8750   43.1690 C   0  0  0  0  0  0  0  0  0  0  0  0
   46.3280   33.9540   44.1490 N   0  0  0  0  0  0  0  0  0  0  0  0
   45.7990   33.3120   46.0520 H   0  0  0  0  0  0  0  0  0  0  0  0
   44.1780   35.1070   46.4640 H   0  0  0  0  0  0  0  0  0  0  0  0
   43.8230   36.8170   44.6580 H   0  0  0  0  0  0  0  0  0  0  0  0
   46.5560   32.9280   38.7360 C   0  0  0  0  0  0  0  0  0  0  0  0
   46.9180   31.6040   38.5980 C   0  0  0  0  0  0  0  0  0  0  0  0
   46.3660   30.8050   37.6290 C   0  0  0  0  0  0  0  0  0  0  0  0
   46.6420   29.7710   37.5130 H   0  0  0  0  0  0  0  0  0  0  0  0
   45.4590   31.2650   36.7790 N   0  0  0  0  0  0  0  0  0  0  0  0
   45.0930   32.5620   36.8990 C   0  0  0  0  0  0  0  0  0  0  0  0
   45.6300   33.3520   37.8490 N   0  0  0  0  0  0  0  0  0  0  0  0
  2  1  1  0  0  0  0
  2  3  1  0  0  0  0
  3 15  1  0  0  0  0
  4  3  2  0  0  0  0
  4  8  1  0  0  0  0
  5  4  1  0  0  0  0
  6  7  1  0  0  0  0
  6  5  2  0  0  0  0
  7  2  2  0  0  0  0
  9  5  1  0  0  0  0
 10  6  1  0  0  0  0
 11 12  1  0  0  0  0
 11 17  1  0  0  0  0
 12 18  1  0  0  0  0
 13 19  1  0  0  0  0
 13 12  2  0  0  0  0
 14 13  1  0  0  0  0
 15 14  2  0  0  0  0
 15 16  1  0  0  0  0
 16 11  2  0  0  0  0
 20  7  1  0  0  0  0
 21 20  1  0  0  0  0
 22 21  2  0  0  0  0
 23 22  1  0  0  0  0
 24 25  2  0  0  0  0
 24 22  1  0  0  0  0
 25 26  1  0  0  0  0
 26 20  2  0  0  0  0
M  END
>  <minimizedAffinity>
-5.38735247

>  <minimizedRMSD>
0.32200259

$$$$
