REMARK  Name = 
REMARK  4 active torsions:
REMARK  status: ('A' for Active; 'I' for Inactive)
REMARK    1  A    between atoms: C_1  and  C_9
REMARK    2  A    between atoms: C_6  and  N_19
REMARK    3  A    between atoms: C_7  and  C_13
REMARK    4  A    between atoms: C_17  and  C_27
REMARK                            x       y       z     vdW  Elec       q    Type
REMARK                         _______ _______ _______ _____ _____    ______ ____
ROOT
ATOM      1  C   UNL     1      45.133  34.419  41.186  0.00  0.00    +0.000 A 
ATOM      2  C   UNL     1      45.544  35.022  42.370  0.00  0.00    +0.000 A 
ATOM      3  C   UNL     1      46.907  35.245  42.561  0.00  0.00    +0.000 A 
ATOM      4  C   UNL     1      47.801  34.863  41.577  0.00  0.00    +0.000 A 
ATOM      5  C   UNL     1      47.410  34.266  40.403  0.00  0.00    +0.000 A 
ATOM      6  C   UNL     1      46.039  34.058  40.243  0.00  0.00    +0.000 A 
ATOM      7  H   UNL     1      44.840  35.317  43.133  0.00  0.00    +0.000 HD
ATOM      8  H   UNL     1      47.179  35.717  43.496  0.00  0.00    +0.000 HD
ATOM      9  H   UNL     1      48.850  35.063  41.782  0.00  0.00    +0.000 HD
ATOM     10  H   UNL     1      48.103  33.970  39.640  0.00  0.00    +0.000 HD
ENDROOT
BRANCH   1  13
ATOM     11  C   UNL     1      41.437  34.849  40.582  0.00  0.00    +0.000 A 
ATOM     12  C   UNL     1      42.802  35.177  40.665  0.00  0.00    +0.000 A 
ATOM     13  C   UNL     1      43.693  34.217  41.056  0.00  0.00    +0.000 A 
ATOM     14  N   UNL     1      43.200  32.984  41.345  0.00  0.00    +0.000 NA
ATOM     15  C   UNL     1      41.889  32.670  41.265  0.00  0.00    +0.000 A 
ATOM     16  N   UNL     1      41.002  33.612  40.880  0.00  0.00    +0.000 NA
ATOM     17  H   UNL     1      43.167  36.155  40.432  0.00  0.00    +0.000 HD
ATOM     18  H   UNL     1      41.570  31.666  41.511  0.00  0.00    +0.000 HD
BRANCH  11  19
ATOM     19  C   UNL     1      40.455  35.867  40.162  0.00  0.00    +0.000 C 
ATOM     20  F   UNL     1      39.227  35.218  39.953  0.00  0.00    +0.000 F 
ATOM     21  F   UNL     1      40.842  36.294  38.890  0.00  0.00    +0.000 F 
ATOM     22  F   UNL     1      40.314  36.898  41.038  0.00  0.00    +0.000 F 
ENDBRANCH  11  19
ENDBRANCH   1  13
BRANCH   6  25
ATOM     23  C   UNL     1      45.446  32.141  38.550  0.00  0.00    +0.000 C 
ATOM     24  O   UNL     1      45.933  31.138  39.102  0.00  0.00    +0.000 OA
ATOM     25  N   UNL     1      45.502  33.465  39.080  0.00  0.00    +0.000 N 
ATOM     26  H   UNL     1      45.064  34.281  38.547  0.00  0.00    +0.000 HD
BRANCH  23  27
ATOM     27  C   UNL     1      44.755  32.023  37.266  0.00  0.00    +0.000 A 
ATOM     28  C   UNL     1      43.433  32.401  37.189  0.00  0.00    +0.000 A 
ATOM     29  C   UNL     1      42.739  32.303  35.980  0.00  0.00    +0.000 A 
ATOM     30  H   UNL     1      41.703  32.602  35.929  0.00  0.00    +0.000 HD
ATOM     31  N   UNL     1      43.343  31.835  34.852  0.00  0.00    +0.000 NA
ATOM     32  C   UNL     1      44.635  31.476  34.972  0.00  0.00    +0.000 A 
ATOM     33  N   UNL     1      45.311  31.566  36.129  0.00  0.00    +0.000 NA
ENDBRANCH  23  27
ENDBRANCH   6  25
TORSDOF 4
