
 OpenBabel03252507593D

 27 29  0  0  1  0  0  0  0  0999 V2000
   46.2790   34.7560   43.2380 C   0  0  0  0  0  0  0  0  0  0  0  0
   45.3400   35.7940   43.5210 C   0  0  0  0  0  0  0  0  0  0  0  0
   44.6360   35.6890   44.7280 C   0  0  0  0  0  0  0  0  0  0  0  0
   44.8880   34.6270   45.5320 N   0  0  0  0  0  0  0  0  0  0  0  0
   45.8060   33.6670   45.1910 C   0  0  0  0  0  0  0  0  0  0  0  0
   46.5050   33.7040   44.0700 N   0  0  0  0  0  0  0  0  0  0  0  0
   45.1940   36.5980   42.8440 H   0  0  0  0  0  0  0  0  0  0  0  0
   43.9130   36.4330   45.0070 H   0  0  0  0  0  0  0  0  0  0  0  0
   46.0360   32.5360   46.1400 C   0  0  1  0  0  0  0  0  0  0  0  0
   46.8270   32.7840   47.4040 C   0  0  0  0  0  0  0  0  0  0  0  0
   45.3290   32.6600   47.4320 C   0  0  1  0  0  0  0  0  0  0  0  0
   46.1070   31.5370   45.6770 H   0  0  0  0  0  0  0  0  0  0  0  0
   47.3160   33.7890   47.4150 H   0  0  0  0  0  0  0  0  0  0  0  0
   47.4800   31.9340   47.6880 H   0  0  0  0  0  0  0  0  0  0  0  0
   44.9720   31.7700   47.9940 H   0  0  0  0  0  0  0  0  0  0  0  0
   44.6900   33.9380   47.7780 N   0  0  0  0  0  0  0  0  0  0  0  0
   43.7020   33.8000   48.0940 H   0  0  0  0  0  0  0  0  0  0  0  0
   45.2810   34.4150   48.4890 H   0  0  0  0  0  0  0  0  0  0  0  0
   46.9860   34.9090   41.9930 C   0  0  0  0  0  0  0  0  0  0  0  0
   48.0390   35.6250   41.8640 O   0  0  0  0  0  0  0  0  0  0  0  0
   46.5180   34.2330   40.7860 C   0  0  0  0  0  0  0  0  0  0  0  0
   45.1990   33.8600   40.6510 C   0  0  0  0  0  3  0  0  0  0  0  0
   44.8040   33.2270   39.5000 C   0  0  0  0  0  0  0  0  0  0  0  0
   43.7710   32.9300   39.3840 H   0  0  0  0  0  0  0  0  0  0  0  0
   45.7140   32.9950   38.5500 N   0  0  0  0  0  0  0  0  0  0  0  0
   47.0070   33.3420   38.6470 C   0  0  0  0  0  3  0  0  0  0  0  0
   47.3740   33.9630   39.7830 N   0  0  0  0  0  0  0  0  0  0  0  0
  1  2  2  0  0  0  0
  1  6  1  0  0  0  0
  2  3  1  0  0  0  0
  3  8  1  0  0  0  0
  3  4  2  0  0  0  0
  5  4  1  0  0  0  0
  5  9  1  0  0  0  0
  6  5  2  0  0  0  0
  7  2  1  0  0  0  0
  9 12  1  6  0  0  0
  9 10  1  0  0  0  0
  9 11  1  0  0  0  0
 10 13  1  0  0  0  0
 10 11  1  0  0  0  0
 10 14  1  0  0  0  0
 11 16  1  0  0  0  0
 11 15  1  1  0  0  0
 16 17  1  0  0  0  0
 16 18  1  0  0  0  0
 19  1  1  0  0  0  0
 20 19  2  0  0  0  0
 21 19  1  0  0  0  0
 22 21  1  0  0  0  0
 23 22  2  0  0  0  0
 24 23  1  0  0  0  0
 25 26  2  0  0  0  0
 25 23  1  0  0  0  0
 26 27  1  0  0  0  0
 27 21  2  0  0  0  0
M  END
>  <minimizedAffinity>
-5.54317808

>  <minimizedRMSD>
0.451345295

$$$$
