
     RDKit          3D

 35 37  0  0  0  0  0  0  0  0999 V2000
   45.1327   34.4186   41.1863 C   0  0  0  0  0  0  0  0  0  0  0  0
   45.5440   35.0223   42.3703 C   0  0  0  0  0  0  0  0  0  0  0  0
   46.9067   35.2455   42.5614 C   0  0  0  0  0  0  0  0  0  0  0  0
   47.8008   34.8634   41.5773 C   0  0  0  0  0  0  0  0  0  0  0  0
   47.4102   34.2662   40.4028 C   0  0  0  0  0  0  0  0  0  0  0  0
   46.0387   34.0576   40.2433 C   0  0  0  0  0  0  0  0  0  0  0  0
   41.4374   34.8485   40.5817 C   0  0  0  0  0  0  0  0  0  0  0  0
   42.8023   35.1773   40.6649 C   0  0  0  0  0  0  0  0  0  0  0  0
   43.6933   34.2169   41.0560 C   0  0  0  0  0  0  0  0  0  0  0  0
   43.1995   32.9844   41.3450 N   0  0  0  0  0  0  0  0  0  0  0  0
   41.8895   32.6696   41.2650 C   0  0  0  0  0  0  0  0  0  0  0  0
   41.0019   33.6120   40.8795 N   0  0  0  0  0  0  0  0  0  0  0  0
   40.4547   35.8671   40.1617 C   0  0  0  0  0  0  0  0  0  0  0  0
   39.2270   35.2182   39.9534 F   0  0  0  0  0  0  0  0  0  0  0  0
   40.8420   36.2942   38.8900 F   0  0  0  0  0  0  0  0  0  0  0  0
   40.3143   36.8977   41.0381 F   0  0  0  0  0  0  0  0  0  0  0  0
   45.4464   32.1411   38.5499 C   0  0  0  0  0  0  0  0  0  0  0  0
   45.9333   31.1378   39.1022 O   0  0  0  0  0  0  0  0  0  0  0  0
   45.5024   33.4649   39.0804 N   0  0  0  0  0  0  0  0  0  0  0  0
   44.8399   35.3171   43.1328 H   0  0  0  0  0  0  0  0  0  0  0  0
   47.1791   35.7170   43.4957 H   0  0  0  0  0  0  0  0  0  0  0  0
   48.8496   35.0626   41.7824 H   0  0  0  0  0  0  0  0  0  0  0  0
   48.1028   33.9699   39.6402 H   0  0  0  0  0  0  0  0  0  0  0  0
   43.1674   36.1552   40.4320 H   0  0  0  0  0  0  0  0  0  0  0  0
   41.5703   31.6658   41.5112 H   0  0  0  0  0  0  0  0  0  0  0  0
   45.0644   34.2807   38.5470 H   0  0  0  0  0  0  0  0  0  0  0  0
   44.7554   32.0228   37.2658 C   0  0  0  0  0  0  0  0  0  0  0  0
   43.5551   32.6777   37.0976 C   0  0  0  0  0  0  0  0  0  0  0  0
   42.8655   32.5888   35.8860 C   0  0  0  0  0  0  0  0  0  0  0  0
   41.9250   33.1055   35.7626 H   0  0  0  0  0  0  0  0  0  0  0  0
   43.3539   31.8590   34.8437 N   0  0  0  0  0  0  0  0  0  0  0  0
   44.5285   31.2359   35.0512 C   0  0  0  0  0  0  0  0  0  0  0  0
   45.1997   31.3145   36.2116 N   0  0  0  0  0  0  0  0  0  0  0  0
   43.1662   33.2527   37.9129 H   0  0  0  0  0  0  0  0  0  0  0  0
   45.0920   30.6047   34.3541 H   0  0  0  0  0  0  0  0  0  0  0  0
  1  2  2  0
  2  3  1  0
  4  3  2  0
  5  4  1  0
  6  5  2  0
  6  1  1  0
  7  8  2  0
  7 12  1  0
  8  9  1  0
  9  1  1  0
  9 10  2  0
 11 10  1  0
 12 11  2  0
 13  7  1  0
 13 16  1  0
 14 13  1  0
 15 13  1  0
 17 18  2  0
 17 19  1  0
 19  6  1  0
  2 20  1  0
  3 21  1  0
  4 22  1  0
  5 23  1  0
  8 24  1  0
 11 25  1  0
 19 26  1  0
 27 28  2  0
 28 29  1  0
 29 30  1  0
 29 31  2  0
 31 32  1  0
 32 33  2  0
 33 27  1  0
 28 34  1  0
 32 35  1  0
 17 27  1  0
M  ISO  7  20  14  21  14  22  14  23  14  24  14  25  14  30  14
M  END
>  <DihAtoms>  (1) 
17,16,26,27

>  <DihDeg>  (1) 
0.00044430879716687394

$$$$
