REMARK  Name = 
REMARK  2 active torsions:
REMARK  status: ('A' for Active; 'I' for Inactive)
REMARK    1  A    between atoms: C_3  and  C_10
REMARK    2  A    between atoms: C_7  and  C_17
REMARK                            x       y       z     vdW  Elec       q    Type
REMARK                         _______ _______ _______ _____ _____    ______ ____
ROOT
ATOM      1  C   UNL     1      45.421  35.200  43.100  0.00  0.00    +0.000 A 
ATOM      2  C   UNL     1      46.459  35.557  42.212  0.00  0.00    +0.000 A 
ATOM      3  C   UNL     1      47.682  34.885  42.376  0.00  0.00    +0.000 A 
ATOM      4  N   UNL     1      47.774  33.957  43.361  0.00  0.00    +0.000 NA
ATOM      5  C   UNL     1      46.737  33.654  44.187  0.00  0.00    +0.000 A 
ATOM      6  N   UNL     1      45.567  34.279  44.051  0.00  0.00    +0.000 NA
ATOM      7  C   UNL     1      43.399  35.342  41.891  0.00  0.00    +0.000 C 
ATOM      8  O   UNL     1      43.956  34.462  41.150  0.00  0.00    +0.000 OA
ATOM      9  N   UNL     1      44.147  35.836  42.999  0.00  0.00    +0.000 N 
ATOM     10  H   UNL     1      46.317  36.306  41.450  0.00  0.00    +0.000 HD
ATOM     11  H   UNL     1      46.845  32.908  44.963  0.00  0.00    +0.000 HD
ATOM     12  H   UNL     1      43.765  36.570  43.626  0.00  0.00    +0.000 HD
ENDROOT
BRANCH   7  13
ATOM     13  C   UNL     1      42.044  35.846  41.638  0.00  0.00    +0.000 A 
ATOM     14  C   UNL     1      41.000  34.942  41.648  0.00  0.00    +0.000 A 
ATOM     15  C   UNL     1      39.733  35.487  41.399  0.00  0.00    +0.000 A 
ATOM     16  H   UNL     1      38.902  34.807  41.401  0.00  0.00    +0.000 HD
ATOM     17  N   UNL     1      39.572  36.803  41.169  0.00  0.00    +0.000 NA
ATOM     18  C   UNL     1      40.610  37.654  41.167  0.00  0.00    +0.000 A 
ATOM     19  N   UNL     1      41.859  37.159  41.405  0.00  0.00    +0.000 NA
ENDBRANCH   7  13
BRANCH   3  20
ATOM     20  C   UNL     1      48.740  35.264  41.454  0.00  0.00    +0.000 C 
ATOM     21  F   UNL     1      49.849  34.444  41.662  0.00  0.00    +0.000 F 
ATOM     22  F   UNL     1      49.153  36.538  41.816  0.00  0.00    +0.000 F 
ATOM     23  F   UNL     1      48.388  35.154  40.136  0.00  0.00    +0.000 F 
ENDBRANCH   3  20
TORSDOF 2
