
 OpenBabel03252503273D

 23 24  0  0  0  0  0  0  0  0999 V2000
   45.1060   34.7170   42.7720 C   0  0  0  0  0  0  0  0  0  0  0  0
   46.1670   35.1240   41.9340 C   0  0  0  0  0  0  0  0  0  0  0  0
   47.4610   34.7600   42.3420 C   0  0  0  0  0  0  0  0  0  0  0  0
   47.5940   34.0550   43.4930 N   0  0  0  0  0  0  0  0  0  0  0  0
   46.5320   33.6900   44.2600 C   0  0  0  0  0  0  0  0  0  0  0  0
   45.2950   34.0250   43.8950 N   0  0  0  0  0  0  0  0  0  0  0  0
   43.2710   34.2250   41.3730 C   0  0  0  0  0  0  0  0  0  0  0  0
   44.0750   33.3650   40.8740 O   0  0  0  0  0  0  0  0  0  0  0  0
   43.7600   35.0470   42.4290 N   0  0  0  0  0  0  0  0  0  0  0  0
   45.9890   35.6840   41.0310 H   0  0  0  0  0  0  0  0  0  0  0  0
   46.6740   33.1280   45.1740 H   0  0  0  0  0  0  0  0  0  0  0  0
   43.1690   35.7830   42.8610 H   0  0  0  0  0  0  0  0  0  0  0  0
   41.8910   34.3840   40.8990 C   0  0  0  0  0  0  0  0  0  0  0  0
   41.6520   35.2820   39.8760 C   0  0  0  0  0  3  0  0  0  0  0  0
   40.3150   35.3860   39.4710 C   0  0  0  0  0  0  0  0  0  0  0  0
   40.0990   36.0770   38.6780 H   0  0  0  0  0  0  0  0  0  0  0  0
   39.3490   34.6520   40.0520 N   0  0  0  0  0  0  0  0  0  0  0  0
   39.6170   33.7870   41.0450 C   0  0  0  0  0  3  0  0  0  0  0  0
   40.9080   33.6600   41.4660 N   0  0  0  0  0  0  0  0  0  0  0  0
   48.5420   35.1850   41.4680 C   0  0  0  0  0  0  0  0  0  0  0  0
   49.6490   34.3600   41.6660 F   0  0  0  0  0  0  0  0  0  0  0  0
   48.9400   36.4420   41.9020 F   0  0  0  0  0  0  0  0  0  0  0  0
   48.2260   35.1380   40.1370 F   0  0  0  0  0  0  0  0  0  0  0  0
  1  6  1  0  0  0  0
  2  3  1  0  0  0  0
  2  1  2  0  0  0  0
  3  4  2  0  0  0  0
  4  5  1  0  0  0  0
  5 11  1  0  0  0  0
  6  5  2  0  0  0  0
  7  9  1  0  0  0  0
  8  7  2  0  0  0  0
  9  1  1  0  0  0  0
  9 12  1  0  0  0  0
 10  2  1  0  0  0  0
 13  7  1  0  0  0  0
 13 19  1  0  0  0  0
 14 13  2  0  0  0  0
 15 14  1  0  0  0  0
 15 17  2  0  0  0  0
 16 15  1  0  0  0  0
 17 18  1  0  0  0  0
 18 19  2  0  0  0  0
 20 21  1  0  0  0  0
 20 22  1  0  0  0  0
 20  3  1  0  0  0  0
 23 20  1  0  0  0  0
M  END
>  <minimizedAffinity>
-5.8700223

>  <minimizedRMSD>
1.2607286

$$$$
