REMARK  Name = 
REMARK  3 active torsions:
REMARK  status: ('A' for Active; 'I' for Inactive)
REMARK    1  A    between atoms: C_3  and  C_18
REMARK    2  A    between atoms: C_14  and  N_17
REMARK    3  A    between atoms: C_15  and  C_33
REMARK                            x       y       z     vdW  Elec       q    Type
REMARK                         _______ _______ _______ _____ _____    ______ ____
ROOT
ATOM      1  C   UNL     1      45.346  34.681  42.351  0.00  0.00    +0.000 A 
ATOM      2  C   UNL     1      46.469  35.211  41.655  0.00  0.00    +0.000 A 
ATOM      3  C   UNL     1      47.732  34.922  42.200  0.00  0.00    +0.000 A 
ATOM      4  N   UNL     1      47.782  34.179  43.320  0.00  0.00    +0.000 NA
ATOM      5  C   UNL     1      46.684  33.699  43.945  0.00  0.00    +0.000 A 
ATOM      6  N   UNL     1      45.458  33.957  43.448  0.00  0.00    +0.000 NA
ATOM      7  C   UNL     1      43.738  34.144  40.726  0.00  0.00    +0.000 C 
ATOM      8  O   UNL     1      44.648  33.372  40.270  0.00  0.00    +0.000 OA
ATOM      9  N   UNL     1      44.023  34.932  41.857  0.00  0.00    +0.000 N 
ATOM     10  N   UNL     1      42.494  34.147  40.051  0.00  0.00    +0.000 N 
ATOM     11  C   UNL     1      42.388  33.538  38.712  0.00  0.00    +0.000 C 
ATOM     12  C   UNL     1      41.319  34.367  38.071  0.00  0.00    +0.000 C 
ATOM     13  C   UNL     1      40.822  35.306  39.129  0.00  0.00    +0.000 C 
ATOM     14  C   UNL     1      41.198  34.633  40.427  0.00  0.00    +0.000 C 
ATOM     15  H   UNL     1      46.237  35.779  40.782  0.00  0.00    +0.000 HD
ATOM     16  H   UNL     1      46.787  33.103  44.848  0.00  0.00    +0.000 HD
ATOM     17  H   UNL     1      43.287  35.581  42.202  0.00  0.00    +0.000 HD
ATOM     18  H   UNL     1      43.338  33.553  38.165  0.00  0.00    +0.000 HD
ATOM     19  H   UNL     1      42.011  32.489  38.817  0.00  0.00    +0.000 HD
ATOM     20  H   UNL     1      40.498  33.734  37.634  0.00  0.00    +0.000 HD
ATOM     21  H   UNL     1      41.748  34.898  37.195  0.00  0.00    +0.000 HD
ATOM     22  H   UNL     1      41.626  36.124  39.093  0.00  0.00    +0.000 HD
ATOM     23  H   UNL     1      39.948  35.853  38.993  0.00  0.00    +0.000 HD
ATOM     24  H   UNL     1      41.105  35.419  41.167  0.00  0.00    +0.000 HD
ENDROOT
BRANCH  14  27
ATOM     25  C   UNL     1      38.899  33.522  40.760  0.00  0.00    +0.000 C 
ATOM     26  O   UNL     1      38.501  34.518  40.120  0.00  0.00    +0.000 OA
ATOM     27  N   UNL     1      40.349  33.507  40.792  0.00  0.00    +0.000 N 
ATOM     28  H   UNL     1      40.835  32.608  41.105  0.00  0.00    +0.000 HD
BRANCH  25  29
ATOM     29  C   UNL     1      38.089  32.516  41.387  0.00  0.00    +0.000 A 
ATOM     30  C   UNL     1      36.723  32.677  41.263  0.00  0.00    +0.000 A 
ATOM     31  C   UNL     1      35.900  31.727  41.856  0.00  0.00    +0.000 A 
ATOM     32  H   UNL     1      34.821  31.808  41.787  0.00  0.00    +0.000 HD
ATOM     33  N   UNL     1      36.342  30.671  42.534  0.00  0.00    +0.000 NA
ATOM     34  C   UNL     1      37.697  30.544  42.636  0.00  0.00    +0.000 A 
ATOM     35  N   UNL     1      38.549  31.450  42.073  0.00  0.00    +0.000 NA
ENDBRANCH  25  29
ENDBRANCH  14  27
BRANCH   3  36
ATOM     36  C   UNL     1      48.864  35.477  41.468  0.00  0.00    +0.000 C 
ATOM     37  F   UNL     1      50.002  34.737  41.762  0.00  0.00    +0.000 F 
ATOM     38  F   UNL     1      49.105  36.758  41.998  0.00  0.00    +0.000 F 
ATOM     39  F   UNL     1      48.690  35.501  40.112  0.00  0.00    +0.000 F 
ENDBRANCH   3  36
TORSDOF 3
