
 OpenBabel03252503313D

 39 41  0  0  1  0  0  0  0  0999 V2000
   46.2240   32.9070   41.9290 C   0  0  0  0  0  0  0  0  0  0  0  0
   45.3300   33.9670   42.2520 C   0  0  0  0  0  0  0  0  0  0  0  0
   45.5740   34.6410   43.4600 C   0  0  0  0  0  0  0  0  0  0  0  0
   46.6170   34.2400   44.2090 N   0  0  0  0  0  0  0  0  0  0  0  0
   47.4380   33.2250   43.8580 C   0  0  0  0  0  0  0  0  0  0  0  0
   47.2320   32.5580   42.7050 N   0  0  0  0  0  0  0  0  0  0  0  0
   46.4630   32.9140   39.5930 C   0  0  0  0  0  0  0  0  0  0  0  0
   46.8960   34.1020   39.7730 O   0  0  0  0  0  0  0  0  0  0  0  0
   46.0410   32.1710   40.7120 N   0  0  0  0  0  0  0  0  0  0  0  0
   46.4410   32.4260   38.2650 N   0  0  0  0  0  0  0  0  0  0  0  0
   46.6010   33.3660   37.1390 C   0  0  0  0  0  0  0  0  0  0  0  0
   45.7910   32.7120   36.0640 C   0  0  0  0  0  0  0  0  0  0  0  0
   45.3290   31.4000   36.6220 C   0  0  0  0  0  0  0  0  0  0  0  0
   46.3110   31.1020   37.7290 C   0  0  1  0  0  0  0  0  0  0  0  0
   44.5580   34.1440   41.5370 H   0  0  0  0  0  0  0  0  0  0  0  0
   48.2660   32.9450   44.5040 H   0  0  0  0  0  0  0  0  0  0  0  0
   45.6600   31.2160   40.5530 H   0  0  0  0  0  0  0  0  0  0  0  0
   46.2630   34.3800   37.3840 H   0  0  0  0  0  0  0  0  0  0  0  0
   47.6750   33.3750   36.8210 H   0  0  0  0  0  0  0  0  0  0  0  0
   46.3740   32.5940   35.1080 H   0  0  0  0  0  0  0  0  0  0  0  0
   44.9490   33.3800   35.7870 H   0  0  0  0  0  0  0  0  0  0  0  0
   44.4260   31.7330   37.2470 H   0  0  0  0  0  0  0  0  0  0  0  0
   44.9120   30.6720   36.0070 H   0  0  0  0  0  0  0  0  0  0  0  0
   45.8270   30.3250   38.3090 H   0  0  0  0  0  0  0  0  0  0  0  0
   48.6940   30.2190   38.1440 C   0  0  0  0  0  0  0  0  0  0  0  0
   48.2590   30.0490   39.3030 O   0  0  0  0  0  0  0  0  0  0  0  0
   47.6140   30.6380   37.2720 N   0  0  0  0  0  0  0  0  0  0  0  0
   47.7800   30.6050   36.2160 H   0  0  0  0  0  0  0  0  0  0  0  0
   50.0450   30.0420   37.6920 C   0  0  0  0  0  0  0  0  0  0  0  0
   50.7570   29.0260   38.3000 C   0  0  0  0  0  3  0  0  0  0  0  0
   52.0700   28.8180   37.8930 C   0  0  0  0  0  0  0  0  0  0  0  0
   52.6710   28.0330   38.3390 H   0  0  0  0  0  0  0  0  0  0  0  0
   52.6870   29.5340   36.9560 N   0  0  0  0  0  0  0  0  0  0  0  0
   51.9520   30.5300   36.3780 C   0  0  0  0  0  3  0  0  0  0  0  0
   50.6590   30.7750   36.7420 N   0  0  0  0  0  0  0  0  0  0  0  0
   44.6430   35.7210   43.7660 C   0  0  0  0  0  0  0  0  0  0  0  0
   44.2170   35.5950   45.0820 F   0  0  0  0  0  0  0  0  0  0  0  0
   43.4960   35.5070   42.9800 F   0  0  0  0  0  0  0  0  0  0  0  0
   45.1670   36.9720   43.5880 F   0  0  0  0  0  0  0  0  0  0  0  0
  1  2  2  0  0  0  0
  1  6  1  0  0  0  0
  2  3  1  0  0  0  0
  3 36  1  0  0  0  0
  3  4  2  0  0  0  0
  5  4  1  0  0  0  0
  5 16  1  0  0  0  0
  6  5  2  0  0  0  0
  7  8  2  0  0  0  0
  7  9  1  0  0  0  0
  9  1  1  0  0  0  0
 10  7  1  0  0  0  0
 11 18  1  0  0  0  0
 11 10  1  0  0  0  0
 12 13  1  0  0  0  0
 12 11  1  0  0  0  0
 13 22  1  0  0  0  0
 13 14  1  0  0  0  0
 14 10  1  0  0  0  0
 14 24  1  1  0  0  0
 15  2  1  0  0  0  0
 17  9  1  0  0  0  0
 19 11  1  0  0  0  0
 20 12  1  0  0  0  0
 21 12  1  0  0  0  0
 23 13  1  0  0  0  0
 25 26  2  0  0  0  0
 27 14  1  0  0  0  0
 27 25  1  0  0  0  0
 28 27  1  0  0  0  0
 29 25  1  0  0  0  0
 29 30  1  0  0  0  0
 31 30  2  0  0  0  0
 31 32  1  0  0  0  0
 33 31  1  0  0  0  0
 34 35  1  0  0  0  0
 34 33  2  0  0  0  0
 35 29  2  0  0  0  0
 36 37  1  0  0  0  0
 38 36  1  0  0  0  0
 39 36  1  0  0  0  0
M  END
>  <minimizedAffinity>
-4.58619213

>  <minimizedRMSD>
8.63813972

$$$$
