
 OpenBabel03242523173D

 25 27  0  0  0  0  0  0  0  0999 V2000
   36.3600   27.8440   40.0030 C   0  0  0  0  0  0  0  0  0  0  0  0
   36.9430   27.4450   41.1580 C   0  0  0  0  0  0  0  0  0  0  0  0
   37.8890   26.4570   41.0200 C   0  0  0  0  0  0  0  0  0  0  0  0
   38.1670   25.9550   39.7560 N   0  0  0  0  0  0  0  0  0  0  0  0
   37.5500   26.3960   38.6540 C   0  0  0  0  0  0  0  0  0  0  0  0
   36.6190   27.3660   38.7640 N   0  0  0  0  0  0  0  0  0  0  0  0
   38.4310   26.0480   41.8710 H   0  0  0  0  0  0  0  0  0  0  0  0
   37.8660   25.9160   37.7390 H   0  0  0  0  0  0  0  0  0  0  0  0
   36.6210   27.9130   42.4480 C   0  0  0  0  0  0  0  0  0  0  0  0
   37.0240   27.5100   43.6800 C   0  0  0  0  0  0  0  0  0  0  0  0
   37.6620   28.8220   43.2290 C   0  0  0  0  0  0  0  0  0  0  0  0
   35.7690   28.7300   42.3220 H   0  0  0  0  0  0  0  0  0  0  0  0
   36.3520   27.5460   44.5880 H   0  0  0  0  0  0  0  0  0  0  0  0
   37.8130   26.7290   43.8540 H   0  0  0  0  0  0  0  0  0  0  0  0
   38.6660   28.8300   42.8080 H   0  0  0  0  0  0  0  0  0  0  0  0
   37.2920   29.6770   43.7670 H   0  0  0  0  0  0  0  0  0  0  0  0
   35.4130   28.9680   39.8640 C   0  0  0  0  0  0  0  0  0  0  0  0
   34.2230   29.2730   39.9110 O   0  0  0  0  0  0  0  0  0  0  0  0
   36.2040   30.1930   39.5490 C   0  0  0  0  0  0  0  0  0  0  0  0
   36.5600   31.1190   40.5290 C   0  0  0  0  0  3  0  0  0  0  0  0
   37.2920   32.2730   40.2990 C   0  0  0  0  0  0  0  0  0  0  0  0
   37.5370   32.9500   41.1040 H   0  0  0  0  0  0  0  0  0  0  0  0
   37.6910   32.5350   39.0680 N   0  0  0  0  0  0  0  0  0  0  0  0
   37.3750   31.6830   38.0990 C   0  0  0  0  0  3  0  0  0  0  0  0
   36.6700   30.5760   38.3380 N   0  0  0  0  0  0  0  0  0  0  0  0
  1  2  1  0  0  0  0
  2  9  1  0  0  0  0
  3  2  2  0  0  0  0
  3  7  1  0  0  0  0
  4  3  1  0  0  0  0
  5  6  1  0  0  0  0
  5  4  2  0  0  0  0
  6  1  2  0  0  0  0
  8  5  1  0  0  0  0
  9 11  1  0  0  0  0
  9 10  1  0  0  0  0
 10 14  1  0  0  0  0
 10 13  1  0  0  0  0
 11 10  1  0  0  0  0
 11 16  1  0  0  0  0
 12  9  1  0  0  0  0
 15 11  1  0  0  0  0
 17 18  2  0  0  0  0
 17  1  1  0  0  0  0
 19 17  1  0  0  0  0
 19 20  1  0  0  0  0
 21 20  2  0  0  0  0
 21 22  1  0  0  0  0
 23 21  1  0  0  0  0
 24 25  1  0  0  0  0
 24 23  2  0  0  0  0
 25 19  2  0  0  0  0
M  END
>  <minimizedAffinity>
-4.5562458

$$$$

 OpenBabel03242523173D

 25 27  0  0  0  0  0  0  0  0999 V2000
   38.3530   26.7260   42.7090 C   0  0  0  0  0  0  0  0  0  0  0  0
   38.5500   25.7580   41.7820 C   0  0  0  0  0  0  0  0  0  0  0  0
   39.8040   25.1950   41.7900 C   0  0  0  0  0  0  0  0  0  0  0  0
   40.7430   25.6410   42.7100 N   0  0  0  0  0  0  0  0  0  0  0  0
   40.4800   26.6060   43.5980 C   0  0  0  0  0  0  0  0  0  0  0  0
   39.2560   27.1740   43.6100 N   0  0  0  0  0  0  0  0  0  0  0  0
   40.0920   24.4060   41.0970 H   0  0  0  0  0  0  0  0  0  0  0  0
   41.3040   26.8530   44.2520 H   0  0  0  0  0  0  0  0  0  0  0  0
   37.6160   25.3430   40.8110 C   0  0  0  0  0  0  0  0  0  0  0  0
   37.6310   24.3110   39.9300 C   0  0  0  0  0  0  0  0  0  0  0  0
   36.6870   24.0920   41.1100 C   0  0  0  0  0  0  0  0  0  0  0  0
   36.7600   26.1650   40.7750 H   0  0  0  0  0  0  0  0  0  0  0  0
   37.1670   24.3760   38.9020 H   0  0  0  0  0  0  0  0  0  0  0  0
   38.4260   23.5170   39.9110 H   0  0  0  0  0  0  0  0  0  0  0  0
   36.9980   23.4850   41.9590 H   0  0  0  0  0  0  0  0  0  0  0  0
   35.6480   24.1480   40.8350 H   0  0  0  0  0  0  0  0  0  0  0  0
   37.0660   27.3940   42.9880 C   0  0  0  0  0  0  0  0  0  0  0  0
   36.0510   27.3410   43.6790 O   0  0  0  0  0  0  0  0  0  0  0  0
   36.9650   28.5810   42.0890 C   0  0  0  0  0  0  0  0  0  0  0  0
   35.9870   28.6810   41.1000 C   0  0  0  0  0  3  0  0  0  0  0  0
   35.8420   29.7550   40.2370 C   0  0  0  0  0  0  0  0  0  0  0  0
   35.0600   29.7720   39.4910 H   0  0  0  0  0  0  0  0  0  0  0  0
   36.6810   30.7680   40.3390 N   0  0  0  0  0  0  0  0  0  0  0  0
   37.6320   30.7190   41.2670 C   0  0  0  0  0  3  0  0  0  0  0  0
   37.7580   29.6770   42.0900 N   0  0  0  0  0  0  0  0  0  0  0  0
  1 17  1  0  0  0  0
  1  6  1  0  0  0  0
  2  3  1  0  0  0  0
  2  1  2  0  0  0  0
  3  4  2  0  0  0  0
  4  5  1  0  0  0  0
  5  6  2  0  0  0  0
  5  8  1  0  0  0  0
  7  3  1  0  0  0  0
  9 11  1  0  0  0  0
  9  2  1  0  0  0  0
 10  9  1  0  0  0  0
 10 11  1  0  0  0  0
 11 15  1  0  0  0  0
 12  9  1  0  0  0  0
 13 10  1  0  0  0  0
 14 10  1  0  0  0  0
 16 11  1  0  0  0  0
 17 18  2  0  0  0  0
 19 25  1  0  0  0  0
 19 17  1  0  0  0  0
 20 19  2  0  0  0  0
 21 23  2  0  0  0  0
 21 20  1  0  0  0  0
 22 21  1  0  0  0  0
 23 24  1  0  0  0  0
 24 25  2  0  0  0  0
M  END
>  <minimizedAffinity>
-4.44095802

$$$$

 OpenBabel03242523173D

 25 27  0  0  0  0  0  0  0  0999 V2000
   37.5290   29.1530   42.2520 C   0  0  0  0  0  0  0  0  0  0  0  0
   36.9320   29.6150   41.1280 C   0  0  0  0  0  0  0  0  0  0  0  0
   37.5390   30.7090   40.5560 C   0  0  0  0  0  0  0  0  0  0  0  0
   38.6760   31.2410   41.1490 N   0  0  0  0  0  0  0  0  0  0  0  0
   39.2120   30.7330   42.2640 C   0  0  0  0  0  0  0  0  0  0  0  0
   38.6350   29.6610   42.8430 N   0  0  0  0  0  0  0  0  0  0  0  0
   37.1600   31.1760   39.6490 H   0  0  0  0  0  0  0  0  0  0  0  0
   40.0950   31.2490   42.6150 H   0  0  0  0  0  0  0  0  0  0  0  0
   35.7460   29.1100   40.5570 C   0  0  0  0  0  0  0  0  0  0  0  0
   35.1630   29.3290   39.3520 C   0  0  0  0  0  0  0  0  0  0  0  0
   35.8360   27.9640   39.4630 C   0  0  0  0  0  0  0  0  0  0  0  0
   35.1940   28.4780   41.3970 H   0  0  0  0  0  0  0  0  0  0  0  0
   34.0420   29.3430   39.2060 H   0  0  0  0  0  0  0  0  0  0  0  0
   35.6340   29.9340   38.5290 H   0  0  0  0  0  0  0  0  0  0  0  0
   36.8310   27.8050   39.0500 H   0  0  0  0  0  0  0  0  0  0  0  0
   35.1340   27.1510   39.5160 H   0  0  0  0  0  0  0  0  0  0  0  0
   37.1500   27.9260   42.9800 C   0  0  0  0  0  0  0  0  0  0  0  0
   36.2770   27.4170   43.6800 O   0  0  0  0  0  0  0  0  0  0  0  0
   38.2460   26.9300   42.7940 C   0  0  0  0  0  0  0  0  0  0  0  0
   38.3840   26.1890   41.6210 C   0  0  0  0  0  3  0  0  0  0  0  0
   39.3780   25.2530   41.3880 C   0  0  0  0  0  0  0  0  0  0  0  0
   39.4290   24.7120   40.4540 H   0  0  0  0  0  0  0  0  0  0  0  0
   40.2690   25.0270   42.3340 N   0  0  0  0  0  0  0  0  0  0  0  0
   40.1800   25.7080   43.4720 C   0  0  0  0  0  3  0  0  0  0  0  0
   39.2160   26.6070   43.6790 N   0  0  0  0  0  0  0  0  0  0  0  0
  1  6  1  0  0  0  0
  1 17  1  0  0  0  0
  2  1  2  0  0  0  0
  3  2  1  0  0  0  0
  3  4  2  0  0  0  0
  4  5  1  0  0  0  0
  5  8  1  0  0  0  0
  5  6  2  0  0  0  0
  7  3  1  0  0  0  0
  9  2  1  0  0  0  0
  9 12  1  0  0  0  0
 10 11  1  0  0  0  0
 10  9  1  0  0  0  0
 11 16  1  0  0  0  0
 11  9  1  0  0  0  0
 13 10  1  0  0  0  0
 14 10  1  0  0  0  0
 15 11  1  0  0  0  0
 17 18  2  0  0  0  0
 19 17  1  0  0  0  0
 19 25  1  0  0  0  0
 20 19  2  0  0  0  0
 21 20  1  0  0  0  0
 21 23  2  0  0  0  0
 22 21  1  0  0  0  0
 23 24  1  0  0  0  0
 24 25  2  0  0  0  0
M  END
>  <minimizedAffinity>
-4.41687346

$$$$

 OpenBabel03242523173D

 25 27  0  0  0  0  0  0  0  0999 V2000
   38.1150   28.4580   42.5990 C   0  0  0  0  0  0  0  0  0  0  0  0
   37.9750   29.6240   41.9260 C   0  0  0  0  0  0  0  0  0  0  0  0
   39.1520   30.2790   41.6470 C   0  0  0  0  0  0  0  0  0  0  0  0
   40.3530   29.7200   42.0610 N   0  0  0  0  0  0  0  0  0  0  0  0
   40.4180   28.5620   42.7260 C   0  0  0  0  0  0  0  0  0  0  0  0
   39.2770   27.9010   43.0110 N   0  0  0  0  0  0  0  0  0  0  0  0
   39.1780   31.2250   41.1100 H   0  0  0  0  0  0  0  0  0  0  0  0
   41.4190   28.2470   42.9860 H   0  0  0  0  0  0  0  0  0  0  0  0
   36.7520   30.2200   41.5550 C   0  0  0  0  0  0  0  0  0  0  0  0
   36.4700   31.2560   40.7250 C   0  0  0  0  0  0  0  0  0  0  0  0
   36.1250   29.8910   40.1340 C   0  0  0  0  0  0  0  0  0  0  0  0
   35.9030   29.7200   42.2170 H   0  0  0  0  0  0  0  0  0  0  0  0
   35.6160   31.9730   40.9060 H   0  0  0  0  0  0  0  0  0  0  0  0
   37.2390   31.7760   40.0900 H   0  0  0  0  0  0  0  0  0  0  0  0
   36.8060   29.4050   39.4370 H   0  0  0  0  0  0  0  0  0  0  0  0
   35.0660   29.7150   40.0710 H   0  0  0  0  0  0  0  0  0  0  0  0
   37.0260   27.5100   42.9070 C   0  0  0  0  0  0  0  0  0  0  0  0
   36.0960   27.2860   43.6780 O   0  0  0  0  0  0  0  0  0  0  0  0
   37.0790   26.4130   41.8980 C   0  0  0  0  0  0  0  0  0  0  0  0
   37.1180   25.0680   42.2650 C   0  0  0  0  0  3  0  0  0  0  0  0
   37.1670   24.0060   41.3770 C   0  0  0  0  0  0  0  0  0  0  0  0
   37.1950   22.9840   41.7270 H   0  0  0  0  0  0  0  0  0  0  0  0
   37.1810   24.2630   40.0820 N   0  0  0  0  0  0  0  0  0  0  0  0
   37.1460   25.5300   39.6820 C   0  0  0  0  0  3  0  0  0  0  0  0
   37.0980   26.5410   40.5510 N   0  0  0  0  0  0  0  0  0  0  0  0
  1 17  1  0  0  0  0
  1  6  1  0  0  0  0
  2  1  2  0  0  0  0
  3  2  1  0  0  0  0
  3  4  2  0  0  0  0
  4  5  1  0  0  0  0
  5  8  1  0  0  0  0
  5  6  2  0  0  0  0
  7  3  1  0  0  0  0
  9  2  1  0  0  0  0
  9 12  1  0  0  0  0
 10 13  1  0  0  0  0
 10  9  1  0  0  0  0
 11 10  1  0  0  0  0
 11  9  1  0  0  0  0
 14 10  1  0  0  0  0
 15 11  1  0  0  0  0
 16 11  1  0  0  0  0
 17 18  2  0  0  0  0
 19 20  1  0  0  0  0
 19 17  1  0  0  0  0
 21 22  1  0  0  0  0
 21 20  2  0  0  0  0
 23 21  1  0  0  0  0
 24 23  2  0  0  0  0
 24 25  1  0  0  0  0
 25 19  2  0  0  0  0
M  END
>  <minimizedAffinity>
-4.39866018

$$$$

 OpenBabel03242523173D

 25 27  0  0  0  0  0  0  0  0999 V2000
   36.7330   27.2290   41.1520 C   0  0  0  0  0  0  0  0  0  0  0  0
   36.1390   28.1330   40.3370 C   0  0  0  0  0  0  0  0  0  0  0  0
   35.9610   27.7160   39.0390 C   0  0  0  0  0  0  0  0  0  0  0  0
   36.3870   26.4480   38.6690 N   0  0  0  0  0  0  0  0  0  0  0  0
   36.9700   25.6040   39.5280 C   0  0  0  0  0  0  0  0  0  0  0  0
   37.1550   25.9910   40.8070 N   0  0  0  0  0  0  0  0  0  0  0  0
   35.4960   28.3470   38.2840 H   0  0  0  0  0  0  0  0  0  0  0  0
   37.2510   24.6510   39.1030 H   0  0  0  0  0  0  0  0  0  0  0  0
   35.7580   29.4420   40.6970 C   0  0  0  0  0  0  0  0  0  0  0  0
   36.4340   30.4360   41.3260 C   0  0  0  0  0  0  0  0  0  0  0  0
   36.2650   30.6680   39.8260 C   0  0  0  0  0  0  0  0  0  0  0  0
   34.6010   29.5500   40.4540 H   0  0  0  0  0  0  0  0  0  0  0  0
   35.9350   31.1720   42.0230 H   0  0  0  0  0  0  0  0  0  0  0  0
   37.5250   30.3780   41.5940 H   0  0  0  0  0  0  0  0  0  0  0  0
   37.0760   30.4330   39.1380 H   0  0  0  0  0  0  0  0  0  0  0  0
   35.5690   31.4550   39.5970 H   0  0  0  0  0  0  0  0  0  0  0  0
   36.9220   27.3820   42.6080 C   0  0  0  0  0  0  0  0  0  0  0  0
   36.3290   27.4830   43.6800 O   0  0  0  0  0  0  0  0  0  0  0  0
   38.3890   27.4370   42.8730 C   0  0  0  0  0  0  0  0  0  0  0  0
   39.1670   28.5380   42.5180 C   0  0  0  0  0  3  0  0  0  0  0  0
   40.5310   28.6480   42.7370 C   0  0  0  0  0  0  0  0  0  0  0  0
   41.0760   29.5310   42.4380 H   0  0  0  0  0  0  0  0  0  0  0  0
   41.1610   27.6470   43.3220 N   0  0  0  0  0  0  0  0  0  0  0  0
   40.4620   26.5740   43.6790 C   0  0  0  0  0  3  0  0  0  0  0  0
   39.1490   26.4850   43.4610 N   0  0  0  0  0  0  0  0  0  0  0  0
  1 17  1  0  0  0  0
  2  9  1  0  0  0  0
  2  1  2  0  0  0  0
  3  2  1  0  0  0  0
  4  3  2  0  0  0  0
  4  5  1  0  0  0  0
  5  6  2  0  0  0  0
  6  1  1  0  0  0  0
  7  3  1  0  0  0  0
  8  5  1  0  0  0  0
  9 10  1  0  0  0  0
 10 14  1  0  0  0  0
 10 13  1  0  0  0  0
 11  9  1  0  0  0  0
 11 10  1  0  0  0  0
 12  9  1  0  0  0  0
 15 11  1  0  0  0  0
 16 11  1  0  0  0  0
 17 19  1  0  0  0  0
 17 18  2  0  0  0  0
 19 25  1  0  0  0  0
 20 21  1  0  0  0  0
 20 19  2  0  0  0  0
 21 23  2  0  0  0  0
 22 21  1  0  0  0  0
 23 24  1  0  0  0  0
 25 24  2  0  0  0  0
M  END
>  <minimizedAffinity>
-4.35974741

$$$$

 OpenBabel03242523173D

 25 27  0  0  0  0  0  0  0  0999 V2000
   38.0100   30.4530   39.4570 C   0  0  0  0  0  0  0  0  0  0  0  0
   38.5640   31.6890   39.4290 C   0  0  0  0  0  0  0  0  0  0  0  0
   39.6920   31.8010   38.6510 C   0  0  0  0  0  0  0  0  0  0  0  0
   40.1650   30.6850   37.9760 N   0  0  0  0  0  0  0  0  0  0  0  0
   39.5660   29.4910   38.0500 C   0  0  0  0  0  0  0  0  0  0  0  0
   38.4580   29.3550   38.8070 N   0  0  0  0  0  0  0  0  0  0  0  0
   40.2330   32.7400   38.5430 H   0  0  0  0  0  0  0  0  0  0  0  0
   40.0440   28.7110   37.4730 H   0  0  0  0  0  0  0  0  0  0  0  0
   38.1180   32.8090   40.1600 C   0  0  0  0  0  0  0  0  0  0  0  0
   38.4970   34.1120   40.1320 C   0  0  0  0  0  0  0  0  0  0  0  0
   37.1480   33.8550   39.4630 C   0  0  0  0  0  0  0  0  0  0  0  0
   37.3540   32.4130   40.9780 H   0  0  0  0  0  0  0  0  0  0  0  0
   38.5020   34.7690   41.0510 H   0  0  0  0  0  0  0  0  0  0  0  0
   39.2290   34.5340   39.3900 H   0  0  0  0  0  0  0  0  0  0  0  0
   37.0790   33.7620   38.3810 H   0  0  0  0  0  0  0  0  0  0  0  0
   36.3180   34.2390   40.0290 H   0  0  0  0  0  0  0  0  0  0  0  0
   36.7340   30.1020   40.1110 C   0  0  0  0  0  0  0  0  0  0  0  0
   35.5120   30.1970   40.0170 O   0  0  0  0  0  0  0  0  0  0  0  0
   37.0540   29.3460   41.3570 C   0  0  0  0  0  0  0  0  0  0  0  0
   36.3860   28.1740   41.7070 C   0  0  0  0  0  3  0  0  0  0  0  0
   36.6380   27.4290   42.8470 C   0  0  0  0  0  0  0  0  0  0  0  0
   36.0840   26.5260   43.0600 H   0  0  0  0  0  0  0  0  0  0  0  0
   37.5750   27.8420   43.6800 N   0  0  0  0  0  0  0  0  0  0  0  0
   38.2400   28.9560   43.3910 C   0  0  0  0  0  3  0  0  0  0  0  0
   37.9850   29.6610   42.2870 N   0  0  0  0  0  0  0  0  0  0  0  0
  1 17  1  0  0  0  0
  2  1  1  0  0  0  0
  2  9  1  0  0  0  0
  3  2  2  0  0  0  0
  4  5  2  0  0  0  0
  4  3  1  0  0  0  0
  5  6  1  0  0  0  0
  6  1  2  0  0  0  0
  7  3  1  0  0  0  0
  8  5  1  0  0  0  0
  9 12  1  0  0  0  0
 10  9  1  0  0  0  0
 10 13  1  0  0  0  0
 11 16  1  0  0  0  0
 11 10  1  0  0  0  0
 11  9  1  0  0  0  0
 14 10  1  0  0  0  0
 15 11  1  0  0  0  0
 17 19  1  0  0  0  0
 18 17  2  0  0  0  0
 19 20  2  0  0  0  0
 19 25  1  0  0  0  0
 20 21  1  0  0  0  0
 21 22  1  0  0  0  0
 21 23  2  0  0  0  0
 24 23  1  0  0  0  0
 25 24  2  0  0  0  0
M  END
>  <minimizedAffinity>
-4.333992

$$$$

 OpenBabel03242523173D

 25 27  0  0  0  0  0  0  0  0999 V2000
   36.4740   30.6010   39.7190 C   0  0  0  0  0  0  0  0  0  0  0  0
   36.8190   30.7400   38.4170 C   0  0  0  0  0  0  0  0  0  0  0  0
   37.6320   31.8150   38.1440 C   0  0  0  0  0  0  0  0  0  0  0  0
   38.0250   32.6490   39.1810 N   0  0  0  0  0  0  0  0  0  0  0  0
   37.6440   32.4530   40.4480 C   0  0  0  0  0  0  0  0  0  0  0  0
   36.8460   31.4050   40.7410 N   0  0  0  0  0  0  0  0  0  0  0  0
   37.9810   32.0380   37.1380 H   0  0  0  0  0  0  0  0  0  0  0  0
   38.0240   33.1800   41.1510 H   0  0  0  0  0  0  0  0  0  0  0  0
   36.3740   29.9270   37.3550 C   0  0  0  0  0  0  0  0  0  0  0  0
   36.7540   29.8560   36.0540 C   0  0  0  0  0  0  0  0  0  0  0  0
   37.2580   28.6890   36.9000 C   0  0  0  0  0  0  0  0  0  0  0  0
   35.4400   29.3100   37.7520 H   0  0  0  0  0  0  0  0  0  0  0  0
   36.0340   29.6160   35.2170 H   0  0  0  0  0  0  0  0  0  0  0  0
   37.6190   30.4320   35.6240 H   0  0  0  0  0  0  0  0  0  0  0  0
   38.2760   28.6890   37.2880 H   0  0  0  0  0  0  0  0  0  0  0  0
   36.7620   27.7610   36.6760 H   0  0  0  0  0  0  0  0  0  0  0  0
   35.7180   29.4670   40.2890 C   0  0  0  0  0  0  0  0  0  0  0  0
   34.5920   28.9920   40.4210 O   0  0  0  0  0  0  0  0  0  0  0  0
   36.6960   28.5570   40.9540 C   0  0  0  0  0  0  0  0  0  0  0  0
   36.4990   28.0740   42.2470 C   0  0  0  0  0  3  0  0  0  0  0  0
   37.3680   27.2280   42.9170 C   0  0  0  0  0  0  0  0  0  0  0  0
   37.1550   26.8880   43.9200 H   0  0  0  0  0  0  0  0  0  0  0  0
   38.4710   26.8400   42.3060 N   0  0  0  0  0  0  0  0  0  0  0  0
   38.7040   27.2740   41.0710 C   0  0  0  0  0  3  0  0  0  0  0  0
   37.8560   28.0880   40.4400 N   0  0  0  0  0  0  0  0  0  0  0  0
  1 17  1  0  0  0  0
  1  6  1  0  0  0  0
  2  1  2  0  0  0  0
  3  2  1  0  0  0  0
  3  4  2  0  0  0  0
  4  5  1  0  0  0  0
  5  6  2  0  0  0  0
  5  8  1  0  0  0  0
  7  3  1  0  0  0  0
  9 12  1  0  0  0  0
  9  2  1  0  0  0  0
 10 11  1  0  0  0  0
 10  9  1  0  0  0  0
 11 15  1  0  0  0  0
 11  9  1  0  0  0  0
 13 10  1  0  0  0  0
 14 10  1  0  0  0  0
 16 11  1  0  0  0  0
 17 18  2  0  0  0  0
 17 19  1  0  0  0  0
 19 20  1  0  0  0  0
 20 21  2  0  0  0  0
 21 22  1  0  0  0  0
 23 21  1  0  0  0  0
 24 23  2  0  0  0  0
 25 19  2  0  0  0  0
 25 24  1  0  0  0  0
M  END
>  <minimizedAffinity>
-4.29853201

$$$$

 OpenBabel03242523173D

 25 27  0  0  0  0  0  0  0  0999 V2000
   37.9460   26.3960   42.0170 C   0  0  0  0  0  0  0  0  0  0  0  0
   39.2760   26.4720   42.2560 C   0  0  0  0  0  0  0  0  0  0  0  0
   40.0590   25.6970   41.4340 C   0  0  0  0  0  0  0  0  0  0  0  0
   39.4540   24.9210   40.4550 N   0  0  0  0  0  0  0  0  0  0  0  0
   38.1290   24.8920   40.2750 C   0  0  0  0  0  0  0  0  0  0  0  0
   37.3400   25.6440   41.0690 N   0  0  0  0  0  0  0  0  0  0  0  0
   41.1440   25.6690   41.5210 H   0  0  0  0  0  0  0  0  0  0  0  0
   37.7970   24.2430   39.4770 H   0  0  0  0  0  0  0  0  0  0  0  0
   39.8870   27.2170   43.2860 C   0  0  0  0  0  0  0  0  0  0  0  0
   41.1820   27.3160   43.6790 C   0  0  0  0  0  0  0  0  0  0  0  0
   40.6790   28.5440   42.9230 C   0  0  0  0  0  0  0  0  0  0  0  0
   39.0180   27.7240   43.9160 H   0  0  0  0  0  0  0  0  0  0  0  0
   41.4870   27.4620   44.7570 H   0  0  0  0  0  0  0  0  0  0  0  0
   42.0410   26.8410   43.1290 H   0  0  0  0  0  0  0  0  0  0  0  0
   40.9000   28.6670   41.8640 H   0  0  0  0  0  0  0  0  0  0  0  0
   40.5510   29.4050   43.5550 H   0  0  0  0  0  0  0  0  0  0  0  0
   36.9090   27.2180   42.6720 C   0  0  0  0  0  0  0  0  0  0  0  0
   36.1960   27.3050   43.6700 O   0  0  0  0  0  0  0  0  0  0  0  0
   36.6210   28.3810   41.7830 C   0  0  0  0  0  0  0  0  0  0  0  0
   37.3020   29.5920   41.9020 C   0  0  0  0  0  3  0  0  0  0  0  0
   37.0800   30.7060   41.1080 C   0  0  0  0  0  0  0  0  0  0  0  0
   37.6440   31.6160   41.2510 H   0  0  0  0  0  0  0  0  0  0  0  0
   36.1610   30.6380   40.1640 N   0  0  0  0  0  0  0  0  0  0  0  0
   35.4840   29.5040   40.0110 C   0  0  0  0  0  3  0  0  0  0  0  0
   35.7100   28.4410   40.7850 N   0  0  0  0  0  0  0  0  0  0  0  0
  1  2  1  0  0  0  0
  1 17  1  0  0  0  0
  2  9  1  0  0  0  0
  3  7  1  0  0  0  0
  3  2  2  0  0  0  0
  4  3  1  0  0  0  0
  5  4  2  0  0  0  0
  5  6  1  0  0  0  0
  6  1  2  0  0  0  0
  8  5  1  0  0  0  0
  9 10  1  0  0  0  0
  9 12  1  0  0  0  0
 10 13  1  0  0  0  0
 11  9  1  0  0  0  0
 11 16  1  0  0  0  0
 11 10  1  0  0  0  0
 14 10  1  0  0  0  0
 15 11  1  0  0  0  0
 17 18  2  0  0  0  0
 19 20  1  0  0  0  0
 19 17  1  0  0  0  0
 21 22  1  0  0  0  0
 21 20  2  0  0  0  0
 23 21  1  0  0  0  0
 24 23  2  0  0  0  0
 24 25  1  0  0  0  0
 25 19  2  0  0  0  0
M  END
>  <minimizedAffinity>
-4.28299618

$$$$

 OpenBabel03242523173D

 25 27  0  0  0  0  0  0  0  0999 V2000
   36.6470   28.7150   41.4700 C   0  0  0  0  0  0  0  0  0  0  0  0
   36.6050   28.1620   40.2340 C   0  0  0  0  0  0  0  0  0  0  0  0
   36.4940   29.0610   39.2000 C   0  0  0  0  0  0  0  0  0  0  0  0
   36.4350   30.4190   39.4840 N   0  0  0  0  0  0  0  0  0  0  0  0
   36.4800   30.8960   40.7330 C   0  0  0  0  0  0  0  0  0  0  0  0
   36.5890   30.0340   41.7640 N   0  0  0  0  0  0  0  0  0  0  0  0
   36.4510   28.7470   38.1590 H   0  0  0  0  0  0  0  0  0  0  0  0
   36.4240   31.9730   40.8050 H   0  0  0  0  0  0  0  0  0  0  0  0
   36.6080   26.7820   39.9480 C   0  0  0  0  0  0  0  0  0  0  0  0
   36.7610   26.1040   38.7830 C   0  0  0  0  0  0  0  0  0  0  0  0
   37.9890   26.0440   39.6880 C   0  0  0  0  0  0  0  0  0  0  0  0
   36.3190   26.2150   40.9510 H   0  0  0  0  0  0  0  0  0  0  0  0
   36.2300   25.1300   38.5660 H   0  0  0  0  0  0  0  0  0  0  0  0
   37.0170   26.5940   37.8040 H   0  0  0  0  0  0  0  0  0  0  0  0
   38.8340   26.7080   39.5130 H   0  0  0  0  0  0  0  0  0  0  0  0
   38.1420   25.0740   40.1270 H   0  0  0  0  0  0  0  0  0  0  0  0
   36.8880   27.9810   42.7290 C   0  0  0  0  0  0  0  0  0  0  0  0
   36.3320   27.4350   43.6800 O   0  0  0  0  0  0  0  0  0  0  0  0
   38.3640   27.8610   42.9100 C   0  0  0  0  0  0  0  0  0  0  0  0
   38.9590   26.7020   43.4060 C   0  0  0  0  0  3  0  0  0  0  0  0
   40.3200   26.5300   43.5960 C   0  0  0  0  0  0  0  0  0  0  0  0
   40.7180   25.6030   43.9840 H   0  0  0  0  0  0  0  0  0  0  0  0
   41.1320   27.5240   43.2940 N   0  0  0  0  0  0  0  0  0  0  0  0
   40.6130   28.6510   42.8180 C   0  0  0  0  0  3  0  0  0  0  0  0
   39.2990   28.8000   42.6410 N   0  0  0  0  0  0  0  0  0  0  0  0
  1  6  1  0  0  0  0
  1 17  1  0  0  0  0
  2  1  2  0  0  0  0
  3  4  2  0  0  0  0
  3  2  1  0  0  0  0
  4  5  1  0  0  0  0
  5  8  1  0  0  0  0
  5  6  2  0  0  0  0
  7  3  1  0  0  0  0
  9  2  1  0  0  0  0
  9 12  1  0  0  0  0
 10 11  1  0  0  0  0
 10  9  1  0  0  0  0
 11  9  1  0  0  0  0
 11 16  1  0  0  0  0
 13 10  1  0  0  0  0
 14 10  1  0  0  0  0
 15 11  1  0  0  0  0
 17 19  1  0  0  0  0
 17 18  2  0  0  0  0
 19 20  1  0  0  0  0
 20 21  2  0  0  0  0
 21 22  1  0  0  0  0
 23 21  1  0  0  0  0
 24 23  2  0  0  0  0
 25 24  1  0  0  0  0
 25 19  2  0  0  0  0
M  END
>  <minimizedAffinity>
-4.27811956

$$$$
