
 OpenBabel03252503273D

 23 24  0  0  0  0  0  0  0  0999 V2000
   45.2370   34.7550   42.9350 C   0  0  0  0  0  0  0  0  0  0  0  0
   46.2660   35.1900   42.0720 C   0  0  0  0  0  0  0  0  0  0  0  0
   47.5700   34.7770   42.3950 C   0  0  0  0  0  0  0  0  0  0  0  0
   47.7410   34.0040   43.4960 N   0  0  0  0  0  0  0  0  0  0  0  0
   46.7090   33.6140   44.2910 C   0  0  0  0  0  0  0  0  0  0  0  0
   45.4630   33.9940   44.0050 N   0  0  0  0  0  0  0  0  0  0  0  0
   43.3280   34.3810   41.5990 C   0  0  0  0  0  0  0  0  0  0  0  0
   44.0890   33.5380   41.0130 O   0  0  0  0  0  0  0  0  0  0  0  0
   43.8840   35.1300   42.6770 N   0  0  0  0  0  0  0  0  0  0  0  0
   46.0590   35.8060   41.2120 H   0  0  0  0  0  0  0  0  0  0  0  0
   46.8810   32.9970   45.1620 H   0  0  0  0  0  0  0  0  0  0  0  0
   43.3300   35.8500   43.1790 H   0  0  0  0  0  0  0  0  0  0  0  0
   41.9310   34.5950   41.2020 C   0  0  0  0  0  0  0  0  0  0  0  0
   41.1060   33.4920   41.1000 C   0  0  0  0  0  3  0  0  0  0  0  0
   39.7860   33.7640   40.7170 C   0  0  0  0  0  0  0  0  0  0  0  0
   39.1220   32.9250   40.6300 H   0  0  0  0  0  0  0  0  0  0  0  0
   39.3760   35.0220   40.4710 N   0  0  0  0  0  0  0  0  0  0  0  0
   40.2050   36.0720   40.5800 C   0  0  0  0  0  3  0  0  0  0  0  0
   41.4980   35.8450   40.9510 N   0  0  0  0  0  0  0  0  0  0  0  0
   48.6180   35.2340   41.4970 C   0  0  0  0  0  0  0  0  0  0  0  0
   49.7610   34.4570   41.6890 F   0  0  0  0  0  0  0  0  0  0  0  0
   48.9700   36.5120   41.9050 F   0  0  0  0  0  0  0  0  0  0  0  0
   48.2820   35.1520   40.1720 F   0  0  0  0  0  0  0  0  0  0  0  0
  1  6  1  0  0  0  0
  2  3  1  0  0  0  0
  2  1  2  0  0  0  0
  3  4  2  0  0  0  0
  4  5  1  0  0  0  0
  5 11  1  0  0  0  0
  6  5  2  0  0  0  0
  7  9  1  0  0  0  0
  8  7  2  0  0  0  0
  9  1  1  0  0  0  0
  9 12  1  0  0  0  0
 10  2  1  0  0  0  0
 13  7  1  0  0  0  0
 14 13  1  0  0  0  0
 15 14  2  0  0  0  0
 16 15  1  0  0  0  0
 17 18  2  0  0  0  0
 17 15  1  0  0  0  0
 18 19  1  0  0  0  0
 19 13  2  0  0  0  0
 20 21  1  0  0  0  0
 20 22  1  0  0  0  0
 20  3  1  0  0  0  0
 23 20  1  0  0  0  0
M  END
>  <minimizedAffinity>
-5.9683609

>  <minimizedRMSD>
1.01711464

$$$$
