
 OpenBabel03242514223D

 32 35  0  0  0  0  0  0  0  0999 V2000
   44.7850   33.1400   41.1150 Cl  0  0  0  0  0  0  0  0  0  0  0  0
   46.3160   33.9530   40.9010 C   0  0  0  0  0  0  0  0  0  0  0  0
   46.8350   34.7060   41.9130 C   0  0  0  0  0  0  0  0  0  0  0  0
   48.0530   35.3600   41.7590 C   0  0  0  0  0  0  0  0  0  0  0  0
   48.6920   35.2120   40.5600 C   0  0  0  0  0  0  0  0  0  0  0  0
   48.1590   34.4450   39.5390 C   0  0  0  0  0  0  0  0  0  0  0  0
   46.9610   33.8100   39.7070 C   0  0  0  0  0  0  0  0  0  0  0  0
   48.4810   35.9650   42.5580 H   0  0  0  0  0  0  0  0  0  0  0  0
   49.6430   35.6800   40.3440 H   0  0  0  0  0  0  0  0  0  0  0  0
   48.6580   34.3220   38.5860 H   0  0  0  0  0  0  0  0  0  0  0  0
   45.5980   34.0390   45.3190 C   0  0  0  0  0  0  0  0  0  0  0  0
   44.7170   35.1010   45.5330 C   0  0  0  0  0  0  0  0  0  0  0  0
   44.5510   36.0360   44.5190 C   0  0  0  0  0  0  0  0  0  0  0  0
   45.2550   35.8680   43.3680 N   0  0  0  0  0  0  0  0  0  0  0  0
   46.1060   34.8300   43.1760 C   0  0  0  0  0  0  0  0  0  0  0  0
   46.2690   33.9250   44.1550 N   0  0  0  0  0  0  0  0  0  0  0  0
   45.6910   33.3410   46.1380 H   0  0  0  0  0  0  0  0  0  0  0  0
   44.1330   35.2990   46.4060 H   0  0  0  0  0  0  0  0  0  0  0  0
   43.9340   36.9100   44.4840 H   0  0  0  0  0  0  0  0  0  0  0  0
   46.3830   33.0010   38.6470 C   0  0  0  0  0  0  0  0  0  0  0  0
   45.4320   33.3700   37.7680 N   0  0  0  0  0  0  0  0  0  0  0  0
   45.1810   32.3230   36.9530 C   0  0  0  0  0  0  0  0  0  0  0  0
   45.9760   31.2910   37.3170 N   0  0  0  0  0  0  0  0  0  0  0  0
   46.6980   31.7270   38.3490 N   0  0  0  0  0  0  0  0  0  0  0  0
   44.4580   32.3150   36.1380 H   0  0  0  0  0  0  0  0  0  0  0  0
   45.9700   30.0300   36.6680 C   0  0  0  0  0  0  0  0  0  0  0  0
   46.7890   29.9210   35.5430 C   0  0  0  0  0  0  0  0  0  0  0  0
   46.8330   28.7060   34.8530 C   0  0  0  0  0  0  0  0  0  0  0  0
   47.4640   28.6090   33.9790 H   0  0  0  0  0  0  0  0  0  0  0  0
   46.0890   27.6580   35.2770 N   0  0  0  0  0  0  0  0  0  0  0  0
   45.2960   27.7890   36.3790 C   0  0  0  0  0  0  0  0  0  0  0  0
   45.2350   28.9580   37.0680 N   0  0  0  0  0  0  0  0  0  0  0  0
  2  1  1  0  0  0  0
  2  3  1  0  0  0  0
  3 15  1  0  0  0  0
  4  3  2  0  0  0  0
  4  8  1  0  0  0  0
  5  4  1  0  0  0  0
  6  7  1  0  0  0  0
  6  5  2  0  0  0  0
  7  2  2  0  0  0  0
  9  5  1  0  0  0  0
 10  6  1  0  0  0  0
 11 12  1  0  0  0  0
 11 17  1  0  0  0  0
 12 18  1  0  0  0  0
 13 12  2  0  0  0  0
 14 13  1  0  0  0  0
 15 14  2  0  0  0  0
 15 16  1  0  0  0  0
 16 11  2  0  0  0  0
 19 13  1  0  0  0  0
 20  7  1  0  0  0  0
 21 20  1  0  0  0  0
 22 23  1  0  0  0  0
 22 21  2  0  0  0  0
 23 24  1  0  0  0  0
 24 20  2  0  0  0  0
 25 22  1  0  0  0  0
 26 32  1  0  0  0  0
 26 23  1  0  0  0  0
 27 26  2  0  0  0  0
 28 30  2  0  0  0  0
 28 27  1  0  0  0  0
 29 28  1  0  0  0  0
 30 31  1  0  0  0  0
 31 32  2  0  0  0  0
M  END
>  <minimizedAffinity>
-5.44105959

>  <minimizedRMSD>
0.222559854

$$$$
