
 OpenBabel03252508023D

 40 43  0  0  1  0  0  0  0  0999 V2000
   44.2580   34.4200   41.5810 C   0  0  0  0  0  0  0  0  0  0  0  0
   45.1450   34.3820   40.6600 O   0  0  0  0  0  0  0  0  0  0  0  0
   42.1110   33.2480   41.1790 C   0  0  0  0  0  0  0  0  0  0  0  0
   42.8190   34.4020   41.3450 C   0  0  0  0  0  0  0  0  0  0  0  0
   42.1150   35.6190   41.2730 C   0  0  0  0  0  0  0  0  0  0  0  0
   40.7660   35.6980   41.0470 C   0  0  0  0  0  0  0  0  0  0  0  0
   40.0610   34.5330   40.8830 C   0  0  0  0  0  0  0  0  0  0  0  0
   40.7330   33.3500   40.9500 C   0  0  0  0  0  0  0  0  0  0  0  0
   42.5930   36.5830   41.3840 H   0  0  0  0  0  0  0  0  0  0  0  0
   40.2360   36.6300   40.9930 H   0  0  0  0  0  0  0  0  0  0  0  0
   39.0130   34.5090   40.7030 H   0  0  0  0  0  0  0  0  0  0  0  0
   40.1650   32.4130   40.8170 H   0  0  0  0  0  0  0  0  0  0  0  0
   42.8240   31.7210   41.2920 S   0  0  0  0  0  0  0  0  0  0  0  0
   41.9410   30.8850   40.3370 O   0  0  0  0  0  0  0  0  0  0  0  0
   42.6810   31.1290   42.6550 O   0  0  0  0  0  0  0  0  0  0  0  0
   44.1880   31.1060   40.5230 C   0  0  0  0  0  0  0  0  0  0  0  0
   44.1240   31.0820   39.1070 C   0  0  0  0  0  3  0  0  0  0  0  0
   45.1570   30.6870   38.2980 C   0  0  0  0  0  0  0  0  0  0  0  0
   45.0960   30.6760   37.2350 H   0  0  0  0  0  0  0  0  0  0  0  0
   46.2740   30.3110   38.9170 N   0  0  0  0  0  0  0  0  0  0  0  0
   46.4200   30.3000   40.2260 C   0  0  0  0  0  3  0  0  0  0  0  0
   45.3920   30.6910   40.9610 N   0  0  0  0  0  0  0  0  0  0  0  0
   44.5960   34.4870   42.9730 C   0  0  0  0  0  0  0  0  0  0  0  0
   44.3060   35.7320   43.6240 C   0  0  0  0  0  0  0  0  0  0  0  0
   44.6180   35.8130   44.9700 C   0  0  0  0  0  0  0  0  0  0  0  0
   45.1680   34.7320   45.5800 N   0  0  0  0  0  0  0  0  0  0  0  0
   45.4270   33.5610   44.9140 C   0  0  0  0  0  0  0  0  0  0  0  0
   45.1380   33.4860   43.6630 N   0  0  0  0  0  0  0  0  0  0  0  0
   43.8840   36.6170   43.2270 H   0  0  0  0  0  0  0  0  0  0  0  0
   44.4420   36.7120   45.5700 H   0  0  0  0  0  0  0  0  0  0  0  0
   46.0150   32.4390   45.6630 C   0  0  1  0  0  0  0  0  0  0  0  0
   46.9670   32.7350   46.8030 C   0  0  0  0  0  0  0  0  0  0  0  0
   45.5530   32.3100   47.0720 C   0  0  1  0  0  0  0  0  0  0  0  0
   46.1420   31.4940   45.1160 H   0  0  0  0  0  0  0  0  0  0  0  0
   47.2940   33.7820   46.9320 H   0  0  0  0  0  0  0  0  0  0  0  0
   47.7110   31.9330   46.9820 H   0  0  0  0  0  0  0  0  0  0  0  0
   45.3660   31.3220   47.5380 H   0  0  0  0  0  0  0  0  0  0  0  0
   44.7780   33.3830   47.6770 N   0  0  0  0  0  0  0  0  0  0  0  0
   43.9110   33.0440   48.1170 H   0  0  0  0  0  0  0  0  0  0  0  0
   45.3350   33.9980   48.2890 H   0  0  0  0  0  0  0  0  0  0  0  0
  1 23  1  0  0  0  0
  2  1  2  0  0  0  0
  3 13  1  0  0  0  0
  3  4  1  0  0  0  0
  4  1  1  0  0  0  0
  5  4  2  0  0  0  0
  5  9  1  0  0  0  0
  6  5  1  0  0  0  0
  7  8  1  0  0  0  0
  7  6  2  0  0  0  0
  8  3  2  0  0  0  0
 10  6  1  0  0  0  0
 11  7  1  0  0  0  0
 12  8  1  0  0  0  0
 13 15  2  0  0  0  0
 14 13  2  0  0  0  0
 16 22  1  0  0  0  0
 16 13  1  0  0  0  0
 17 16  2  0  0  0  0
 18 20  2  0  0  0  0
 18 17  1  0  0  0  0
 19 18  1  0  0  0  0
 20 21  1  0  0  0  0
 21 22  2  0  0  0  0
 23 24  2  0  0  0  0
 23 28  1  0  0  0  0
 24 25  1  0  0  0  0
 25 30  1  0  0  0  0
 25 26  2  0  0  0  0
 27 26  1  0  0  0  0
 27 31  1  0  0  0  0
 28 27  2  0  0  0  0
 29 24  1  0  0  0  0
 31 34  1  6  0  0  0
 31 32  1  0  0  0  0
 31 33  1  0  0  0  0
 32 35  1  0  0  0  0
 32 36  1  0  0  0  0
 32 33  1  0  0  0  0
 33 37  1  1  0  0  0
 33 38  1  0  0  0  0
 38 39  1  0  0  0  0
 38 40  1  0  0  0  0
M  END
>  <minimizedAffinity>
-5.73362923

>  <minimizedRMSD>
1.01310754

$$$$
