
 OpenBabel03242514223D

 32 35  0  0  0  0  0  0  0  0999 V2000
   44.7770   33.1380   41.1180 Cl  0  0  0  0  0  0  0  0  0  0  0  0
   46.3090   33.9490   40.9020 C   0  0  0  0  0  0  0  0  0  0  0  0
   46.8300   34.7020   41.9120 C   0  0  0  0  0  0  0  0  0  0  0  0
   48.0490   35.3540   41.7560 C   0  0  0  0  0  0  0  0  0  0  0  0
   48.6870   35.2040   40.5570 C   0  0  0  0  0  0  0  0  0  0  0  0
   48.1510   34.4370   39.5370 C   0  0  0  0  0  0  0  0  0  0  0  0
   46.9530   33.8030   39.7070 C   0  0  0  0  0  0  0  0  0  0  0  0
   48.4780   35.9590   42.5540 H   0  0  0  0  0  0  0  0  0  0  0  0
   49.6380   35.6700   40.3390 H   0  0  0  0  0  0  0  0  0  0  0  0
   48.6490   34.3110   38.5840 H   0  0  0  0  0  0  0  0  0  0  0  0
   45.5950   34.0410   45.3200 C   0  0  0  0  0  0  0  0  0  0  0  0
   44.7160   35.1050   45.5340 C   0  0  0  0  0  0  0  0  0  0  0  0
   44.5500   36.0390   44.5190 C   0  0  0  0  0  0  0  0  0  0  0  0
   45.2530   35.8680   43.3680 N   0  0  0  0  0  0  0  0  0  0  0  0
   46.1020   34.8290   43.1760 C   0  0  0  0  0  0  0  0  0  0  0  0
   46.2650   33.9240   44.1560 N   0  0  0  0  0  0  0  0  0  0  0  0
   45.6870   33.3440   46.1400 H   0  0  0  0  0  0  0  0  0  0  0  0
   44.1320   35.3040   46.4070 H   0  0  0  0  0  0  0  0  0  0  0  0
   43.9350   36.9130   44.4840 H   0  0  0  0  0  0  0  0  0  0  0  0
   46.3730   32.9940   38.6480 C   0  0  0  0  0  0  0  0  0  0  0  0
   45.4360   33.3700   37.7570 N   0  0  0  0  0  0  0  0  0  0  0  0
   45.1770   32.3200   36.9480 C   0  0  0  0  0  0  0  0  0  0  0  0
   45.9520   31.2790   37.3300 N   0  0  0  0  0  0  0  0  0  0  0  0
   46.6710   31.7130   38.3650 N   0  0  0  0  0  0  0  0  0  0  0  0
   44.4620   32.3150   36.1270 H   0  0  0  0  0  0  0  0  0  0  0  0
   45.9330   30.0120   36.6920 C   0  0  0  0  0  0  0  0  0  0  0  0
   45.2060   29.9410   35.5030 C   0  0  0  0  0  3  0  0  0  0  0  0
   45.1440   28.7230   34.8200 C   0  0  0  0  0  0  0  0  0  0  0  0
   44.5830   28.6550   33.8970 H   0  0  0  0  0  0  0  0  0  0  0  0
   45.7830   27.6360   35.3110 N   0  0  0  0  0  0  0  0  0  0  0  0
   46.4880   27.7290   36.4750 C   0  0  0  0  0  3  0  0  0  0  0  0
   46.5650   28.9020   37.1590 N   0  0  0  0  0  0  0  0  0  0  0  0
  2  1  1  0  0  0  0
  2  3  1  0  0  0  0
  3 15  1  0  0  0  0
  4  3  2  0  0  0  0
  4  8  1  0  0  0  0
  5  4  1  0  0  0  0
  6  7  1  0  0  0  0
  6  5  2  0  0  0  0
  7  2  2  0  0  0  0
  9  5  1  0  0  0  0
 10  6  1  0  0  0  0
 11 12  1  0  0  0  0
 11 17  1  0  0  0  0
 12 18  1  0  0  0  0
 13 12  2  0  0  0  0
 14 13  1  0  0  0  0
 15 14  2  0  0  0  0
 15 16  1  0  0  0  0
 16 11  2  0  0  0  0
 19 13  1  0  0  0  0
 20  7  1  0  0  0  0
 21 20  1  0  0  0  0
 22 23  1  0  0  0  0
 22 21  2  0  0  0  0
 23 24  1  0  0  0  0
 24 20  2  0  0  0  0
 25 22  1  0  0  0  0
 26 32  1  0  0  0  0
 26 23  1  0  0  0  0
 27 26  2  0  0  0  0
 28 30  2  0  0  0  0
 28 27  1  0  0  0  0
 29 28  1  0  0  0  0
 30 31  1  0  0  0  0
 31 32  2  0  0  0  0
M  END
>  <minimizedAffinity>
-5.40500975

>  <minimizedRMSD>
0.197550356

$$$$
