
     RDKit          3D

 34 37  0  0  0  0  0  0  0  0999 V2000
   44.8465   33.0782   41.1435 Cl  0  0  0  0  0  0  0  0  0  0  0  0
   46.3552   33.9295   40.9205 C   0  0  0  0  0  0  0  0  0  0  0  0
   46.8496   34.7140   41.9194 C   0  0  0  0  0  0  0  0  0  0  0  0
   48.0496   35.3980   41.7565 C   0  0  0  0  0  0  0  0  0  0  0  0
   48.6972   35.2456   40.5627 C   0  0  0  0  0  0  0  0  0  0  0  0
   48.1880   34.4472   39.5543 C   0  0  0  0  0  0  0  0  0  0  0  0
   47.0080   33.7820   39.7301 C   0  0  0  0  0  0  0  0  0  0  0  0
   45.5958   34.0571   45.3214 C   0  0  0  0  0  0  0  0  0  0  0  0
   44.7103   35.1167   45.5263 C   0  0  0  0  0  0  0  0  0  0  0  0
   44.5460   36.0467   44.5065 C   0  0  0  0  0  0  0  0  0  0  0  0
   45.2573   35.8756   43.3608 N   0  0  0  0  0  0  0  0  0  0  0  0
   46.1133   34.8408   43.1778 C   0  0  0  0  0  0  0  0  0  0  0  0
   46.2740   33.9404   44.1621 N   0  0  0  0  0  0  0  0  0  0  0  0
   46.4565   32.9386   38.6832 C   0  0  0  0  0  0  0  0  0  0  0  0
   45.6023   33.3053   37.7093 N   0  0  0  0  0  0  0  0  0  0  0  0
   45.3397   32.2209   36.9465 C   0  0  0  0  0  0  0  0  0  0  0  0
   46.0309   31.1683   37.4421 N   0  0  0  0  0  0  0  0  0  0  0  0
   46.7018   31.6292   38.4970 N   0  0  0  0  0  0  0  0  0  0  0  0
   48.4576   36.0292   42.5463 H   0  0  0  0  0  0  0  0  0  0  0  0
   49.6350   35.7355   40.3407 H   0  0  0  0  0  0  0  0  0  0  0  0
   48.6938   34.3203   38.6053 H   0  0  0  0  0  0  0  0  0  0  0  0
   45.6872   33.3629   46.1439 H   0  0  0  0  0  0  0  0  0  0  0  0
   44.1200   35.3156   46.3949 H   0  0  0  0  0  0  0  0  0  0  0  0
   43.9256   36.9177   44.4645 H   0  0  0  0  0  0  0  0  0  0  0  0
   44.6818   32.2014   36.0795 H   0  0  0  0  0  0  0  0  0  0  0  0
   45.9853   29.8671   36.8790 C   0  0  0  0  0  0  0  0  0  0  0  0
   45.4309   29.7747   35.6021 C   0  0  0  0  0  0  0  0  0  0  0  0
   45.3539   28.5225   34.9861 C   0  0  0  0  0  0  0  0  0  0  0  0
   44.9256   28.4387   33.9951 H   0  0  0  0  0  0  0  0  0  0  0  0
   45.8126   27.4218   35.6262 N   0  0  0  0  0  0  0  0  0  0  0  0
   46.3506   27.5363   36.8741 C   0  0  0  0  0  0  0  0  0  0  0  0
   46.4375   28.7419   37.4959 N   0  0  0  0  0  0  0  0  0  0  0  0
   45.0604   30.6375   35.0759 H   0  0  0  0  0  0  0  0  0  0  0  0
   46.7414   26.7123   37.4595 H   0  0  0  0  0  0  0  0  0  0  0  0
  2  1  1  0
  2  3  2  0
  3 12  1  0
  4  3  1  0
  5  4  2  0
  6  7  2  0
  6  5  1  0
  7  2  1  0
  8  9  2  0
 10  9  1  0
 11 10  2  0
 12 11  1  0
 12 13  2  0
 13  8  1  0
 14  7  1  0
 15 14  1  0
 16 17  1  0
 16 15  2  0
 17 18  1  0
 18 14  2  0
  4 19  1  0
  5 20  1  0
  6 21  1  0
  8 22  1  0
  9 23  1  0
 10 24  1  0
 16 25  1  0
 26 27  2  0
 27 28  1  0
 28 29  1  0
 28 30  2  0
 30 31  1  0
 31 32  2  0
 32 26  1  0
 27 33  1  0
 31 34  1  0
 17 26  1  0
M  ISO  8  19  14  20  14  21  14  22  14  23  14  24  14  25  14  29  14
M  END
>  <DihAtoms>  (1) 
15,16,25,26

>  <DihDeg>  (1) 
89.10615642181423

$$$$
