REMARK  Name = 
REMARK  3 active torsions:
REMARK  status: ('A' for Active; 'I' for Inactive)
REMARK    1  A    between atoms: C_3  and  C_12
REMARK    2  A    between atoms: C_7  and  C_14
REMARK    3  A    between atoms: N_17  and  C_26
REMARK                            x       y       z     vdW  Elec       q    Type
REMARK                         _______ _______ _______ _____ _____    ______ ____
ROOT
ATOM      1 CL   UNL     1      44.846  33.078  41.144  0.00  0.00    +0.000 Cl
ATOM      2  C   UNL     1      46.355  33.929  40.920  0.00  0.00    +0.000 A 
ATOM      3  C   UNL     1      46.850  34.714  41.919  0.00  0.00    +0.000 A 
ATOM      4  C   UNL     1      48.050  35.398  41.757  0.00  0.00    +0.000 A 
ATOM      5  C   UNL     1      48.697  35.246  40.563  0.00  0.00    +0.000 A 
ATOM      6  C   UNL     1      48.188  34.447  39.554  0.00  0.00    +0.000 A 
ATOM      7  C   UNL     1      47.008  33.782  39.730  0.00  0.00    +0.000 A 
ATOM      8  H   UNL     1      48.458  36.029  42.546  0.00  0.00    +0.000 HD
ATOM      9  H   UNL     1      49.635  35.736  40.341  0.00  0.00    +0.000 HD
ATOM     10  H   UNL     1      48.694  34.320  38.605  0.00  0.00    +0.000 HD
ENDROOT
BRANCH   3  15
ATOM     11  C   UNL     1      45.596  34.057  45.321  0.00  0.00    +0.000 A 
ATOM     12  C   UNL     1      44.710  35.117  45.526  0.00  0.00    +0.000 A 
ATOM     13  C   UNL     1      44.546  36.047  44.507  0.00  0.00    +0.000 A 
ATOM     14  N   UNL     1      45.257  35.876  43.361  0.00  0.00    +0.000 NA
ATOM     15  C   UNL     1      46.113  34.841  43.178  0.00  0.00    +0.000 A 
ATOM     16  N   UNL     1      46.274  33.940  44.162  0.00  0.00    +0.000 NA
ATOM     17  H   UNL     1      45.687  33.363  46.144  0.00  0.00    +0.000 HD
ATOM     18  H   UNL     1      44.120  35.316  46.395  0.00  0.00    +0.000 HD
ATOM     19  H   UNL     1      43.926  36.918  44.465  0.00  0.00    +0.000 HD
ENDBRANCH   3  15
BRANCH   7  20
ATOM     20  C   UNL     1      46.456  32.939  38.683  0.00  0.00    +0.000 A 
ATOM     21  N   UNL     1      45.602  33.305  37.709  0.00  0.00    +0.000 NA
ATOM     22  C   UNL     1      45.340  32.221  36.947  0.00  0.00    +0.000 A 
ATOM     23  N   UNL     1      46.031  31.168  37.442  0.00  0.00    +0.000 N 
ATOM     24  N   UNL     1      46.702  31.629  38.497  0.00  0.00    +0.000 NA
ATOM     25  H   UNL     1      44.682  32.201  36.080  0.00  0.00    +0.000 HD
BRANCH  23  26
ATOM     26  C   UNL     1      45.985  29.867  36.879  0.00  0.00    +0.000 A 
ATOM     27  C   UNL     1      45.431  29.775  35.602  0.00  0.00    +0.000 A 
ATOM     28  C   UNL     1      45.354  28.523  34.986  0.00  0.00    +0.000 A 
ATOM     29  H   UNL     1      44.926  28.439  33.995  0.00  0.00    +0.000 HD
ATOM     30  N   UNL     1      45.813  27.422  35.626  0.00  0.00    +0.000 NA
ATOM     31  C   UNL     1      46.351  27.536  36.874  0.00  0.00    +0.000 A 
ATOM     32  N   UNL     1      46.438  28.742  37.496  0.00  0.00    +0.000 NA
ENDBRANCH  23  26
ENDBRANCH   7  20
TORSDOF 3
