REMARK  Name = 
REMARK  6 active torsions:
REMARK  status: ('A' for Active; 'I' for Inactive)
REMARK    1  A    between atoms: C_1  and  C_11
REMARK    2  A    between atoms: C_5  and  C_7
REMARK    3  A    between atoms: C_9  and  N_10
REMARK    4  A    between atoms: C_11  and  C_14
REMARK    5  A    between atoms: C_13  and  S_19
REMARK    6  A    between atoms: S_19  and  C_34
REMARK                            x       y       z     vdW  Elec       q    Type
REMARK                         _______ _______ _______ _____ _____    ______ ____
ROOT
ATOM      1  C   UNL     1      44.242  34.313  41.550  0.00  0.00    +0.000 C 
ATOM      2  O   UNL     1      45.118  34.150  40.631  0.00  0.00    +0.000 OA
ENDROOT
BRANCH   1   4
ATOM      3  C   UNL     1      41.983  33.319  41.318  0.00  0.00    +0.000 A 
ATOM      4  C   UNL     1      42.806  34.407  41.316  0.00  0.00    +0.000 A 
ATOM      5  C   UNL     1      42.227  35.666  41.068  0.00  0.00    +0.000 A 
ATOM      6  C   UNL     1      40.890  35.848  40.831  0.00  0.00    +0.000 A 
ATOM      7  C   UNL     1      40.069  34.749  40.835  0.00  0.00    +0.000 A 
ATOM      8  C   UNL     1      40.620  33.526  41.074  0.00  0.00    +0.000 A 
ATOM      9  H   UNL     1      42.801  36.582  41.039  0.00  0.00    +0.000 HD
ATOM     10  H   UNL     1      40.455  36.811  40.642  0.00  0.00    +0.000 HD
ATOM     11  H   UNL     1      39.022  34.806  40.659  0.00  0.00    +0.000 HD
ATOM     12  H   UNL     1      39.959  32.642  41.077  0.00  0.00    +0.000 HD
BRANCH   3  13
ATOM     13  S   UNL     1      42.541  31.760  41.651  0.00  0.00    +0.000 S 
ATOM     14  O   UNL     1      42.400  31.070  40.274  0.00  0.00    +0.000 OA
ATOM     15  O   UNL     1      41.650  31.031  42.602  0.00  0.00    +0.000 OA
BRANCH  13  16
ATOM     16  C   UNL     1      44.114  31.173  41.752  0.00  0.00    +0.000 A 
ATOM     17  C   UNL     1      44.227  29.813  42.136  0.00  0.00    +0.000 A 
ATOM     18  C   UNL     1      45.413  29.129  42.203  0.00  0.00    +0.000 A 
ATOM     19  H   UNL     1      45.484  28.107  42.492  0.00  0.00    +0.000 HD
ATOM     20  N   UNL     1      46.505  29.820  41.880  0.00  0.00    +0.000 NA
ATOM     21  C   UNL     1      46.493  31.085  41.514  0.00  0.00    +0.000 A 
ATOM     22  N   UNL     1      45.321  31.698  41.465  0.00  0.00    +0.000 NA
ENDBRANCH  13  16
ENDBRANCH   3  13
ENDBRANCH   1   4
BRANCH   1  23
ATOM     23  C   UNL     1      44.593  34.425  42.936  0.00  0.00    +0.000 A 
ATOM     24  C   UNL     1      44.315  35.692  43.547  0.00  0.00    +0.000 A 
ATOM     25  C   UNL     1      44.639  35.816  44.887  0.00  0.00    +0.000 A 
ATOM     26  N   UNL     1      45.188  34.753  45.528  0.00  0.00    +0.000 NA
ATOM     27  C   UNL     1      45.435  33.559  44.900  0.00  0.00    +0.000 A 
ATOM     28  N   UNL     1      45.135  33.444  43.654  0.00  0.00    +0.000 NA
ATOM     29  H   UNL     1      43.894  36.566  43.125  0.00  0.00    +0.000 HD
ATOM     30  H   UNL     1      44.472  36.736  45.458  0.00  0.00    +0.000 HD
BRANCH  27  31
ATOM     31  C   UNL     1      46.024  32.459  45.681  0.00  0.00    +0.000 C 
ATOM     32  C   UNL     1      46.956  32.789  46.828  0.00  0.00    +0.000 C 
ATOM     33  C   UNL     1      45.542  32.355  47.085  0.00  0.00    +0.000 C 
ATOM     34  H   UNL     1      46.169  31.505  45.156  0.00  0.00    +0.000 HD
ATOM     35  H   UNL     1      47.270  33.842  46.939  0.00  0.00    +0.000 HD
ATOM     36  H   UNL     1      47.705  31.999  47.034  0.00  0.00    +0.000 HD
ATOM     37  H   UNL     1      45.359  31.375  47.569  0.00  0.00    +0.000 HD
BRANCH  33  38
ATOM     38  N   UNL     1      44.748  33.432  47.656  0.00  0.00    +0.000 NA
ATOM     39  H   UNL     1      43.878  33.093  48.091  0.00  0.00    +0.000 HD
ATOM     40  H   UNL     1      45.289  34.066  48.263  0.00  0.00    +0.000 HD
ENDBRANCH  33  38
ENDBRANCH  27  31
ENDBRANCH   1  23
TORSDOF 6
