
 OpenBabel03242514243D

 32 35  0  0  0  0  0  0  0  0999 V2000
   37.7750   26.4230   39.8410 Cl  0  0  0  0  0  0  0  0  0  0  0  0
   38.6030   26.1350   41.3520 C   0  0  0  0  0  0  0  0  0  0  0  0
   39.1020   24.8980   41.6320 C   0  0  0  0  0  0  0  0  0  0  0  0
   39.7640   24.6520   42.8300 C   0  0  0  0  0  0  0  0  0  0  0  0
   39.8840   25.6990   43.7000 C   0  0  0  0  0  0  0  0  0  0  0  0
   39.3750   26.9520   43.4090 C   0  0  0  0  0  0  0  0  0  0  0  0
   38.7280   27.1760   42.2270 C   0  0  0  0  0  0  0  0  0  0  0  0
   40.1680   23.6690   43.0670 H   0  0  0  0  0  0  0  0  0  0  0  0
   40.3810   25.6080   44.6570 H   0  0  0  0  0  0  0  0  0  0  0  0
   39.4660   27.7880   44.0920 H   0  0  0  0  0  0  0  0  0  0  0  0
   37.8780   21.8500   39.9610 C   0  0  0  0  0  0  0  0  0  0  0  0
   38.6750   21.7930   38.8160 C   0  0  0  0  0  0  0  0  0  0  0  0
   39.6220   22.7900   38.6200 C   0  0  0  0  0  0  0  0  0  0  0  0
   39.7240   23.7720   39.5550 N   0  0  0  0  0  0  0  0  0  0  0  0
   38.9420   23.8120   40.6620 C   0  0  0  0  0  0  0  0  0  0  0  0
   38.0260   22.8490   40.8540 N   0  0  0  0  0  0  0  0  0  0  0  0
   37.1580   21.0510   40.0650 H   0  0  0  0  0  0  0  0  0  0  0  0
   38.6530   21.0570   38.0410 H   0  0  0  0  0  0  0  0  0  0  0  0
   40.3200   22.9280   37.8210 H   0  0  0  0  0  0  0  0  0  0  0  0
   38.1850   28.4840   41.9030 C   0  0  0  0  0  0  0  0  0  0  0  0
   36.8940   28.8640   41.9500 N   0  0  0  0  0  0  0  0  0  0  0  0
   36.8210   30.1590   41.5710 C   0  0  0  0  0  0  0  0  0  0  0  0
   38.0690   30.5960   41.2840 N   0  0  0  0  0  0  0  0  0  0  0  0
   38.8810   29.5610   41.4930 N   0  0  0  0  0  0  0  0  0  0  0  0
   35.9080   30.7480   41.5080 H   0  0  0  0  0  0  0  0  0  0  0  0
   38.3550   31.9170   40.8520 C   0  0  0  0  0  0  0  0  0  0  0  0
   37.3410   32.5590   40.1420 C   0  0  0  0  0  3  0  0  0  0  0  0
   37.5540   33.8630   39.6850 C   0  0  0  0  0  0  0  0  0  0  0  0
   36.7740   34.3710   39.1330 H   0  0  0  0  0  0  0  0  0  0  0  0
   38.7300   34.4840   39.9340 N   0  0  0  0  0  0  0  0  0  0  0  0
   39.7070   33.8370   40.6310 C   0  0  0  0  0  3  0  0  0  0  0  0
   39.5260   32.5690   41.0860 N   0  0  0  0  0  0  0  0  0  0  0  0
  1  2  1  0  0  0  0
  2  3  2  0  0  0  0
  2  7  1  0  0  0  0
  3  4  1  0  0  0  0
  4  8  1  0  0  0  0
  4  5  2  0  0  0  0
  5  9  1  0  0  0  0
  6  5  1  0  0  0  0
  6 10  1  0  0  0  0
  7  6  2  0  0  0  0
 11 17  1  0  0  0  0
 11 16  1  0  0  0  0
 12 11  2  0  0  0  0
 13 12  1  0  0  0  0
 13 14  2  0  0  0  0
 14 15  1  0  0  0  0
 15 16  2  0  0  0  0
 15  3  1  0  0  0  0
 18 12  1  0  0  0  0
 19 13  1  0  0  0  0
 20 21  1  0  0  0  0
 20  7  1  0  0  0  0
 22 21  2  0  0  0  0
 23 24  1  0  0  0  0
 23 22  1  0  0  0  0
 24 20  2  0  0  0  0
 25 22  1  0  0  0  0
 26 32  1  0  0  0  0
 26 23  1  0  0  0  0
 27 26  2  0  0  0  0
 28 30  2  0  0  0  0
 28 27  1  0  0  0  0
 29 28  1  0  0  0  0
 30 31  1  0  0  0  0
 31 32  2  0  0  0  0
M  END
>  <minimizedAffinity>
-5.80449533

$$$$

 OpenBabel03242514243D

 32 35  0  0  0  0  0  0  0  0999 V2000
   38.2670   27.6960   39.4120 Cl  0  0  0  0  0  0  0  0  0  0  0  0
   37.9210   27.9840   41.1000 C   0  0  0  0  0  0  0  0  0  0  0  0
   37.6580   26.9350   41.9300 C   0  0  0  0  0  0  0  0  0  0  0  0
   37.3810   27.1460   43.2760 C   0  0  0  0  0  0  0  0  0  0  0  0
   37.3850   28.4400   43.7170 C   0  0  0  0  0  0  0  0  0  0  0  0
   37.6530   29.4990   42.8680 C   0  0  0  0  0  0  0  0  0  0  0  0
   37.9240   29.2730   41.5480 C   0  0  0  0  0  0  0  0  0  0  0  0
   37.1680   26.3180   43.9520 H   0  0  0  0  0  0  0  0  0  0  0  0
   37.1810   28.7070   44.7450 H   0  0  0  0  0  0  0  0  0  0  0  0
   37.6590   30.5270   43.2080 H   0  0  0  0  0  0  0  0  0  0  0  0
   38.7860   23.5600   40.9730 C   0  0  0  0  0  0  0  0  0  0  0  0
   37.6380   23.0090   40.4000 C   0  0  0  0  0  0  0  0  0  0  0  0
   36.4890   23.7880   40.3440 C   0  0  0  0  0  0  0  0  0  0  0  0
   36.5430   25.0490   40.8490 N   0  0  0  0  0  0  0  0  0  0  0  0
   37.6660   25.5690   41.4020 C   0  0  0  0  0  0  0  0  0  0  0  0
   38.7780   24.8170   41.4590 N   0  0  0  0  0  0  0  0  0  0  0  0
   39.6510   22.9130   40.9930 H   0  0  0  0  0  0  0  0  0  0  0  0
   37.5200   22.0310   39.9840 H   0  0  0  0  0  0  0  0  0  0  0  0
   35.5200   23.5570   39.9520 H   0  0  0  0  0  0  0  0  0  0  0  0
   38.2070   30.3710   40.6400 C   0  0  0  0  0  0  0  0  0  0  0  0
   37.3170   31.1010   39.9420 N   0  0  0  0  0  0  0  0  0  0  0  0
   37.9950   32.0200   39.2210 C   0  0  0  0  0  0  0  0  0  0  0  0
   39.3180   31.8690   39.4650 N   0  0  0  0  0  0  0  0  0  0  0  0
   39.4220   30.8610   40.3300 N   0  0  0  0  0  0  0  0  0  0  0  0
   37.5500   32.7570   38.5550 H   0  0  0  0  0  0  0  0  0  0  0  0
   40.3210   32.6750   38.8680 C   0  0  0  0  0  0  0  0  0  0  0  0
   40.6020   33.8780   39.5170 C   0  0  0  0  0  3  0  0  0  0  0  0
   41.5800   34.7230   38.9840 C   0  0  0  0  0  0  0  0  0  0  0  0
   41.8070   35.6580   39.4780 H   0  0  0  0  0  0  0  0  0  0  0  0
   42.2390   34.3700   37.8560 N   0  0  0  0  0  0  0  0  0  0  0  0
   41.9470   33.1890   37.2390 C   0  0  0  0  0  3  0  0  0  0  0  0
   41.0010   32.3500   37.7350 N   0  0  0  0  0  0  0  0  0  0  0  0
  1  2  1  0  0  0  0
  2  7  2  0  0  0  0
  2  3  1  0  0  0  0
  3  4  2  0  0  0  0
  4  5  1  0  0  0  0
  4  8  1  0  0  0  0
  5  9  1  0  0  0  0
  6 10  1  0  0  0  0
  6  5  2  0  0  0  0
  7  6  1  0  0  0  0
 11 17  1  0  0  0  0
 11 16  1  0  0  0  0
 12 11  2  0  0  0  0
 13 12  1  0  0  0  0
 13 14  2  0  0  0  0
 14 15  1  0  0  0  0
 15 16  2  0  0  0  0
 15  3  1  0  0  0  0
 18 12  1  0  0  0  0
 19 13  1  0  0  0  0
 20  7  1  0  0  0  0
 21 20  1  0  0  0  0
 22 23  1  0  0  0  0
 22 21  2  0  0  0  0
 23 24  1  0  0  0  0
 24 20  2  0  0  0  0
 25 22  1  0  0  0  0
 26 23  1  0  0  0  0
 26 27  1  0  0  0  0
 28 29  1  0  0  0  0
 28 27  2  0  0  0  0
 30 28  1  0  0  0  0
 31 32  1  0  0  0  0
 31 30  2  0  0  0  0
 32 26  2  0  0  0  0
M  END
>  <minimizedAffinity>
-5.6483407

$$$$

 OpenBabel03242514243D

 32 35  0  0  0  0  0  0  0  0999 V2000
   39.5580   27.1700   40.5890 Cl  0  0  0  0  0  0  0  0  0  0  0  0
   38.4570   27.4450   41.9170 C   0  0  0  0  0  0  0  0  0  0  0  0
   37.4580   26.5530   42.1710 C   0  0  0  0  0  0  0  0  0  0  0  0
   36.5730   26.7570   43.2240 C   0  0  0  0  0  0  0  0  0  0  0  0
   36.7530   27.8820   43.9790 C   0  0  0  0  0  0  0  0  0  0  0  0
   37.7700   28.7830   43.7150 C   0  0  0  0  0  0  0  0  0  0  0  0
   38.6300   28.5670   42.6760 C   0  0  0  0  0  0  0  0  0  0  0  0
   35.7700   26.0530   43.4390 H   0  0  0  0  0  0  0  0  0  0  0  0
   36.1170   28.1290   44.8180 H   0  0  0  0  0  0  0  0  0  0  0  0
   37.9200   29.6770   44.3080 H   0  0  0  0  0  0  0  0  0  0  0  0
   37.7800   23.1160   40.8820 C   0  0  0  0  0  0  0  0  0  0  0  0
   37.0110   23.1570   39.7170 C   0  0  0  0  0  0  0  0  0  0  0  0
   36.3880   24.3520   39.3790 C   0  0  0  0  0  0  0  0  0  0  0  0
   36.5610   25.4210   40.2010 N   0  0  0  0  0  0  0  0  0  0  0  0
   37.3120   25.3650   41.3280 C   0  0  0  0  0  0  0  0  0  0  0  0
   37.9150   24.2100   41.6570 N   0  0  0  0  0  0  0  0  0  0  0  0
   38.2420   22.1640   41.0990 H   0  0  0  0  0  0  0  0  0  0  0  0
   36.8300   22.3620   39.0260 H   0  0  0  0  0  0  0  0  0  0  0  0
   35.7640   24.5890   38.5420 H   0  0  0  0  0  0  0  0  0  0  0  0
   39.7040   29.5010   42.3820 C   0  0  0  0  0  0  0  0  0  0  0  0
   40.9700   29.4540   42.8350 N   0  0  0  0  0  0  0  0  0  0  0  0
   41.6420   30.5080   42.3230 C   0  0  0  0  0  0  0  0  0  0  0  0
   40.7960   31.2220   41.5440 N   0  0  0  0  0  0  0  0  0  0  0  0
   39.6240   30.5900   41.5950 N   0  0  0  0  0  0  0  0  0  0  0  0
   42.6890   30.7420   42.5080 H   0  0  0  0  0  0  0  0  0  0  0  0
   41.1760   32.3990   40.8490 C   0  0  0  0  0  0  0  0  0  0  0  0
   40.1290   33.1940   40.3820 C   0  0  0  0  0  3  0  0  0  0  0  0
   40.4300   34.3700   39.6880 C   0  0  0  0  0  0  0  0  0  0  0  0
   39.6270   34.9950   39.3210 H   0  0  0  0  0  0  0  0  0  0  0  0
   41.7200   34.7230   39.4790 N   0  0  0  0  0  0  0  0  0  0  0  0
   42.7260   33.9290   39.9450 C   0  0  0  0  0  3  0  0  0  0  0  0
   42.4610   32.7810   40.6220 N   0  0  0  0  0  0  0  0  0  0  0  0
  1  2  1  0  0  0  0
  2  3  2  0  0  0  0
  2  7  1  0  0  0  0
  3  4  1  0  0  0  0
  4  8  1  0  0  0  0
  4  5  2  0  0  0  0
  5  9  1  0  0  0  0
  6  5  1  0  0  0  0
  6 10  1  0  0  0  0
  7  6  2  0  0  0  0
 11 17  1  0  0  0  0
 11 16  1  0  0  0  0
 12 11  2  0  0  0  0
 13 12  1  0  0  0  0
 13 14  2  0  0  0  0
 14 15  1  0  0  0  0
 15 16  2  0  0  0  0
 15  3  1  0  0  0  0
 18 12  1  0  0  0  0
 19 13  1  0  0  0  0
 20  7  1  0  0  0  0
 20 21  1  0  0  0  0
 22 25  1  0  0  0  0
 22 21  2  0  0  0  0
 23 24  1  0  0  0  0
 23 22  1  0  0  0  0
 24 20  2  0  0  0  0
 26 23  1  0  0  0  0
 27 26  2  0  0  0  0
 28 27  1  0  0  0  0
 29 28  1  0  0  0  0
 30 28  2  0  0  0  0
 30 31  1  0  0  0  0
 31 32  2  0  0  0  0
 32 26  1  0  0  0  0
M  END
>  <minimizedAffinity>
-5.58644485

$$$$

 OpenBabel03242514243D

 32 35  0  0  0  0  0  0  0  0999 V2000
   36.9130   27.2060   38.7230 Cl  0  0  0  0  0  0  0  0  0  0  0  0
   36.9170   26.5710   40.3500 C   0  0  0  0  0  0  0  0  0  0  0  0
   36.9100   25.2230   40.5560 C   0  0  0  0  0  0  0  0  0  0  0  0
   36.9130   24.7010   41.8450 C   0  0  0  0  0  0  0  0  0  0  0  0
   36.9220   25.5950   42.8790 C   0  0  0  0  0  0  0  0  0  0  0  0
   36.9290   26.9610   42.6610 C   0  0  0  0  0  0  0  0  0  0  0  0
   36.9260   27.4570   41.3890 C   0  0  0  0  0  0  0  0  0  0  0  0
   36.9080   23.6260   42.0260 H   0  0  0  0  0  0  0  0  0  0  0  0
   36.9250   25.2880   43.9160 H   0  0  0  0  0  0  0  0  0  0  0  0
   36.9370   27.6770   43.4740 H   0  0  0  0  0  0  0  0  0  0  0  0
   35.7300   23.0720   37.8070 C   0  0  0  0  0  0  0  0  0  0  0  0
   36.9250   22.6000   37.2590 C   0  0  0  0  0  0  0  0  0  0  0  0
   38.1220   23.0160   37.8280 C   0  0  0  0  0  0  0  0  0  0  0  0
   38.0680   23.8620   38.8900 N   0  0  0  0  0  0  0  0  0  0  0  0
   36.9000   24.3120   39.4100 C   0  0  0  0  0  0  0  0  0  0  0  0
   35.7400   23.9110   38.8620 N   0  0  0  0  0  0  0  0  0  0  0  0
   34.8290   22.7190   37.3270 H   0  0  0  0  0  0  0  0  0  0  0  0
   37.0450   21.9370   36.4290 H   0  0  0  0  0  0  0  0  0  0  0  0
   39.1300   22.7740   37.5620 H   0  0  0  0  0  0  0  0  0  0  0  0
   36.9330   28.8890   41.1390 C   0  0  0  0  0  0  0  0  0  0  0  0
   35.8650   29.6890   40.9630 N   0  0  0  0  0  0  0  0  0  0  0  0
   36.3090   30.9480   40.7590 C   0  0  0  0  0  0  0  0  0  0  0  0
   37.6610   30.9420   40.8050 N   0  0  0  0  0  0  0  0  0  0  0  0
   38.0170   29.6790   41.0380 N   0  0  0  0  0  0  0  0  0  0  0  0
   35.6810   31.8200   40.5850 H   0  0  0  0  0  0  0  0  0  0  0  0
   38.4560   32.1030   40.6290 C   0  0  0  0  0  0  0  0  0  0  0  0
   37.7710   33.2580   40.2510 C   0  0  0  0  0  3  0  0  0  0  0  0
   38.4910   34.4410   40.0590 C   0  0  0  0  0  0  0  0  0  0  0  0
   37.9700   35.3430   39.7660 H   0  0  0  0  0  0  0  0  0  0  0  0
   39.8320   34.4550   40.2410 N   0  0  0  0  0  0  0  0  0  0  0  0
   40.4800   33.3140   40.6110 C   0  0  0  0  0  3  0  0  0  0  0  0
   39.8040   32.1510   40.8030 N   0  0  0  0  0  0  0  0  0  0  0  0
  1  2  1  0  0  0  0
  2  3  2  0  0  0  0
  2  7  1  0  0  0  0
  3  4  1  0  0  0  0
  4  8  1  0  0  0  0
  4  5  2  0  0  0  0
  5  9  1  0  0  0  0
  6  5  1  0  0  0  0
  6 10  1  0  0  0  0
  7  6  2  0  0  0  0
 11 16  1  0  0  0  0
 12 11  2  0  0  0  0
 12 13  1  0  0  0  0
 13 14  2  0  0  0  0
 14 15  1  0  0  0  0
 15  3  1  0  0  0  0
 16 15  2  0  0  0  0
 17 11  1  0  0  0  0
 18 12  1  0  0  0  0
 19 13  1  0  0  0  0
 20  7  1  0  0  0  0
 21 20  1  0  0  0  0
 22 23  1  0  0  0  0
 22 21  2  0  0  0  0
 23 24  1  0  0  0  0
 24 20  2  0  0  0  0
 25 22  1  0  0  0  0
 26 32  1  0  0  0  0
 26 23  1  0  0  0  0
 27 26  2  0  0  0  0
 28 30  2  0  0  0  0
 28 27  1  0  0  0  0
 29 28  1  0  0  0  0
 30 31  1  0  0  0  0
 31 32  2  0  0  0  0
M  END
>  <minimizedAffinity>
-5.49813938

$$$$

 OpenBabel03242514243D

 32 35  0  0  0  0  0  0  0  0999 V2000
   40.7950   30.5320   40.4740 Cl  0  0  0  0  0  0  0  0  0  0  0  0
   39.3430   31.4720   40.2350 C   0  0  0  0  0  0  0  0  0  0  0  0
   39.4060   32.6710   39.5880 C   0  0  0  0  0  0  0  0  0  0  0  0
   38.2590   33.4320   39.3890 C   0  0  0  0  0  0  0  0  0  0  0  0
   37.0840   32.9250   39.8690 C   0  0  0  0  0  0  0  0  0  0  0  0
   37.0290   31.7080   40.5250 C   0  0  0  0  0  0  0  0  0  0  0  0
   38.1650   30.9730   40.7110 C   0  0  0  0  0  0  0  0  0  0  0  0
   38.2940   34.3920   38.8750 H   0  0  0  0  0  0  0  0  0  0  0  0
   36.1400   33.4420   39.7650 H   0  0  0  0  0  0  0  0  0  0  0  0
   36.1030   31.2980   40.9070 H   0  0  0  0  0  0  0  0  0  0  0  0
   42.6980   34.3210   39.4460 C   0  0  0  0  0  0  0  0  0  0  0  0
   43.1010   34.0770   38.1320 C   0  0  0  0  0  0  0  0  0  0  0  0
   42.2520   33.3530   37.3040 C   0  0  0  0  0  0  0  0  0  0  0  0
   41.0700   32.9200   37.8170 N   0  0  0  0  0  0  0  0  0  0  0  0
   40.6930   33.1660   39.0960 C   0  0  0  0  0  0  0  0  0  0  0  0
   41.5130   33.8650   39.8990 N   0  0  0  0  0  0  0  0  0  0  0  0
   43.3940   34.8870   40.0470 H   0  0  0  0  0  0  0  0  0  0  0  0
   44.0100   34.3830   37.6600 H   0  0  0  0  0  0  0  0  0  0  0  0
   42.3720   33.0630   36.2810 H   0  0  0  0  0  0  0  0  0  0  0  0
   38.1290   29.6920   41.3970 C   0  0  0  0  0  0  0  0  0  0  0  0
   38.1750   29.4790   42.7260 N   0  0  0  0  0  0  0  0  0  0  0  0
   38.1150   28.1470   42.9420 C   0  0  0  0  0  0  0  0  0  0  0  0
   38.0310   27.5180   41.7470 N   0  0  0  0  0  0  0  0  0  0  0  0
   38.0410   28.4780   40.8230 N   0  0  0  0  0  0  0  0  0  0  0  0
   38.1320   27.6630   43.9170 H   0  0  0  0  0  0  0  0  0  0  0  0
   37.9530   26.1090   41.6080 C   0  0  0  0  0  0  0  0  0  0  0  0
   36.9040   25.6330   40.8210 C   0  0  0  0  0  3  0  0  0  0  0  0
   36.7660   24.2530   40.6390 C   0  0  0  0  0  0  0  0  0  0  0  0
   35.9560   23.8720   40.0310 H   0  0  0  0  0  0  0  0  0  0  0  0
   37.6410   23.4020   41.2220 N   0  0  0  0  0  0  0  0  0  0  0  0
   38.6590   23.8910   41.9870 C   0  0  0  0  0  3  0  0  0  0  0  0
   38.8160   25.2270   42.1790 N   0  0  0  0  0  0  0  0  0  0  0  0
  2  1  1  0  0  0  0
  2  7  1  0  0  0  0
  3  2  2  0  0  0  0
  4  3  1  0  0  0  0
  4  5  2  0  0  0  0
  5  6  1  0  0  0  0
  6  7  2  0  0  0  0
  6 10  1  0  0  0  0
  7 20  1  0  0  0  0
  8  4  1  0  0  0  0
  9  5  1  0  0  0  0
 11 16  1  0  0  0  0
 11 17  1  0  0  0  0
 12 11  2  0  0  0  0
 13 14  2  0  0  0  0
 13 12  1  0  0  0  0
 14 15  1  0  0  0  0
 15  3  1  0  0  0  0
 15 16  2  0  0  0  0
 18 12  1  0  0  0  0
 19 13  1  0  0  0  0
 20 21  1  0  0  0  0
 21 22  2  0  0  0  0
 22 25  1  0  0  0  0
 23 22  1  0  0  0  0
 24 20  2  0  0  0  0
 24 23  1  0  0  0  0
 26 23  1  0  0  0  0
 26 32  1  0  0  0  0
 27 26  2  0  0  0  0
 28 27  1  0  0  0  0
 28 30  2  0  0  0  0
 29 28  1  0  0  0  0
 30 31  1  0  0  0  0
 31 32  2  0  0  0  0
M  END
>  <minimizedAffinity>
-5.44179153

$$$$

 OpenBabel03242514243D

 32 35  0  0  0  0  0  0  0  0999 V2000
   36.2820   27.1830   38.4040 Cl  0  0  0  0  0  0  0  0  0  0  0  0
   36.5950   26.3630   39.9140 C   0  0  0  0  0  0  0  0  0  0  0  0
   36.6010   25.0000   39.9610 C   0  0  0  0  0  0  0  0  0  0  0  0
   36.8500   24.3310   41.1550 C   0  0  0  0  0  0  0  0  0  0  0  0
   37.0830   25.0980   42.2620 C   0  0  0  0  0  0  0  0  0  0  0  0
   37.0750   26.4810   42.2060 C   0  0  0  0  0  0  0  0  0  0  0  0
   36.8300   27.1220   41.0250 C   0  0  0  0  0  0  0  0  0  0  0  0
   36.8580   23.2430   41.2080 H   0  0  0  0  0  0  0  0  0  0  0  0
   37.2850   24.6720   43.2350 H   0  0  0  0  0  0  0  0  0  0  0  0
   37.2590   27.0970   43.0770 H   0  0  0  0  0  0  0  0  0  0  0  0
   37.1180   23.1500   36.8160 C   0  0  0  0  0  0  0  0  0  0  0  0
   35.8170   22.7800   36.4670 C   0  0  0  0  0  0  0  0  0  0  0  0
   34.7750   23.1620   37.3020 C   0  0  0  0  0  0  0  0  0  0  0  0
   35.0760   23.8780   38.4180 N   0  0  0  0  0  0  0  0  0  0  0  0
   36.3440   24.2280   38.7430 C   0  0  0  0  0  0  0  0  0  0  0  0
   37.3540   23.8600   37.9370 N   0  0  0  0  0  0  0  0  0  0  0  0
   37.8910   22.8280   36.1340 H   0  0  0  0  0  0  0  0  0  0  0  0
   35.5050   22.2220   35.6100 H   0  0  0  0  0  0  0  0  0  0  0  0
   33.7240   22.9820   37.2160 H   0  0  0  0  0  0  0  0  0  0  0  0
   36.8160   28.5730   40.9450 C   0  0  0  0  0  0  0  0  0  0  0  0
   35.7420   29.3810   41.0100 N   0  0  0  0  0  0  0  0  0  0  0  0
   36.1670   30.6580   40.8950 C   0  0  0  0  0  0  0  0  0  0  0  0
   37.5130   30.6550   40.7570 N   0  0  0  0  0  0  0  0  0  0  0  0
   37.8850   29.3760   40.7900 N   0  0  0  0  0  0  0  0  0  0  0  0
   35.5300   31.5410   40.9110 H   0  0  0  0  0  0  0  0  0  0  0  0
   38.2880   31.8340   40.6110 C   0  0  0  0  0  0  0  0  0  0  0  0
   39.6610   31.6890   40.8150 C   0  0  0  0  0  3  0  0  0  0  0  0
   40.4870   32.8100   40.6870 C   0  0  0  0  0  0  0  0  0  0  0  0
   41.5530   32.7100   40.8430 H   0  0  0  0  0  0  0  0  0  0  0  0
   39.9530   34.0120   40.3700 N   0  0  0  0  0  0  0  0  0  0  0  0
   38.6080   34.1300   40.1750 C   0  0  0  0  0  3  0  0  0  0  0  0
   37.7830   33.0570   40.2930 N   0  0  0  0  0  0  0  0  0  0  0  0
  1  2  1  0  0  0  0
  2  3  2  0  0  0  0
  2  7  1  0  0  0  0
  3  4  1  0  0  0  0
  4  8  1  0  0  0  0
  4  5  2  0  0  0  0
  5  9  1  0  0  0  0
  6  5  1  0  0  0  0
  6 10  1  0  0  0  0
  7  6  2  0  0  0  0
 11 16  1  0  0  0  0
 12 11  2  0  0  0  0
 12 13  1  0  0  0  0
 13 14  2  0  0  0  0
 14 15  1  0  0  0  0
 15  3  1  0  0  0  0
 16 15  2  0  0  0  0
 17 11  1  0  0  0  0
 18 12  1  0  0  0  0
 19 13  1  0  0  0  0
 20 21  1  0  0  0  0
 20  7  1  0  0  0  0
 22 25  1  0  0  0  0
 22 21  2  0  0  0  0
 23 24  1  0  0  0  0
 23 22  1  0  0  0  0
 24 20  2  0  0  0  0
 26 23  1  0  0  0  0
 26 27  1  0  0  0  0
 28 27  2  0  0  0  0
 28 29  1  0  0  0  0
 30 28  1  0  0  0  0
 31 32  1  0  0  0  0
 31 30  2  0  0  0  0
 32 26  2  0  0  0  0
M  END
>  <minimizedAffinity>
-5.43942404

$$$$

 OpenBabel03242514243D

 32 35  0  0  0  0  0  0  0  0999 V2000
   39.5470   28.0830   40.8960 Cl  0  0  0  0  0  0  0  0  0  0  0  0
   37.9860   28.8590   40.7880 C   0  0  0  0  0  0  0  0  0  0  0  0
   36.8490   28.1060   40.7720 C   0  0  0  0  0  0  0  0  0  0  0  0
   35.5990   28.7080   40.6870 C   0  0  0  0  0  0  0  0  0  0  0  0
   35.5680   30.0730   40.6190 C   0  0  0  0  0  0  0  0  0  0  0  0
   36.7260   30.8300   40.6360 C   0  0  0  0  0  0  0  0  0  0  0  0
   37.9470   30.2220   40.7210 C   0  0  0  0  0  0  0  0  0  0  0  0
   34.6820   28.1200   40.6730 H   0  0  0  0  0  0  0  0  0  0  0  0
   34.6460   30.6330   40.5510 H   0  0  0  0  0  0  0  0  0  0  0  0
   36.7120   31.9120   40.5840 H   0  0  0  0  0  0  0  0  0  0  0  0
   37.0060   24.5560   39.7970 C   0  0  0  0  0  0  0  0  0  0  0  0
   37.1190   23.9090   41.0290 C   0  0  0  0  0  0  0  0  0  0  0  0
   37.1420   24.6840   42.1820 C   0  0  0  0  0  0  0  0  0  0  0  0
   37.0520   26.0340   42.0500 N   0  0  0  0  0  0  0  0  0  0  0  0
   36.9420   26.6460   40.8460 C   0  0  0  0  0  0  0  0  0  0  0  0
   36.9200   25.9000   39.7290 N   0  0  0  0  0  0  0  0  0  0  0  0
   36.9930   23.9080   38.9320 H   0  0  0  0  0  0  0  0  0  0  0  0
   37.1950   22.8580   41.2100 H   0  0  0  0  0  0  0  0  0  0  0  0
   37.2220   24.3880   43.2070 H   0  0  0  0  0  0  0  0  0  0  0  0
   39.1750   30.9990   40.7390 C   0  0  0  0  0  0  0  0  0  0  0  0
   39.8980   31.3520   41.8180 N   0  0  0  0  0  0  0  0  0  0  0  0
   40.9630   32.0680   41.3970 C   0  0  0  0  0  0  0  0  0  0  0  0
   40.9110   32.1670   40.0480 N   0  0  0  0  0  0  0  0  0  0  0  0
   39.8150   31.5090   39.6710 N   0  0  0  0  0  0  0  0  0  0  0  0
   41.7330   32.4940   42.0380 H   0  0  0  0  0  0  0  0  0  0  0  0
   41.8800   32.8570   39.2750 C   0  0  0  0  0  0  0  0  0  0  0  0
   43.1770   32.8620   39.7890 C   0  0  0  0  0  3  0  0  0  0  0  0
   44.1840   33.5240   39.0800 C   0  0  0  0  0  0  0  0  0  0  0  0
   45.1940   33.5350   39.4680 H   0  0  0  0  0  0  0  0  0  0  0  0
   43.8950   34.1460   37.9130 N   0  0  0  0  0  0  0  0  0  0  0  0
   42.6200   34.1270   37.4300 C   0  0  0  0  0  3  0  0  0  0  0  0
   41.6220   33.4920   38.1000 N   0  0  0  0  0  0  0  0  0  0  0  0
  2  1  1  0  0  0  0
  3  2  1  0  0  0  0
  3 15  1  0  0  0  0
  4  3  2  0  0  0  0
  5  6  2  0  0  0  0
  5  4  1  0  0  0  0
  6  7  1  0  0  0  0
  7 20  1  0  0  0  0
  7  2  2  0  0  0  0
  8  4  1  0  0  0  0
  9  5  1  0  0  0  0
 10  6  1  0  0  0  0
 11 12  1  0  0  0  0
 12 18  1  0  0  0  0
 12 13  2  0  0  0  0
 13 19  1  0  0  0  0
 14 13  1  0  0  0  0
 15 14  2  0  0  0  0
 16 11  2  0  0  0  0
 16 15  1  0  0  0  0
 17 11  1  0  0  0  0
 20 21  1  0  0  0  0
 22 21  2  0  0  0  0
 22 25  1  0  0  0  0
 23 22  1  0  0  0  0
 24 23  1  0  0  0  0
 24 20  2  0  0  0  0
 26 27  1  0  0  0  0
 26 23  1  0  0  0  0
 28 29  1  0  0  0  0
 28 27  2  0  0  0  0
 30 28  1  0  0  0  0
 31 30  2  0  0  0  0
 31 32  1  0  0  0  0
 32 26  2  0  0  0  0
M  END
>  <minimizedAffinity>
-5.34350538

$$$$

 OpenBabel03242514243D

 32 35  0  0  0  0  0  0  0  0999 V2000
   39.3100   27.7040   40.3170 Cl  0  0  0  0  0  0  0  0  0  0  0  0
   38.3240   27.7580   41.7580 C   0  0  0  0  0  0  0  0  0  0  0  0
   37.5150   26.7070   42.0710 C   0  0  0  0  0  0  0  0  0  0  0  0
   36.7250   26.7340   43.2150 C   0  0  0  0  0  0  0  0  0  0  0  0
   36.7990   27.8530   43.9970 C   0  0  0  0  0  0  0  0  0  0  0  0
   37.6230   28.9160   43.6720 C   0  0  0  0  0  0  0  0  0  0  0  0
   38.3930   28.8720   42.5450 C   0  0  0  0  0  0  0  0  0  0  0  0
   36.0730   25.9010   43.4790 H   0  0  0  0  0  0  0  0  0  0  0  0
   36.2240   27.9690   44.9050 H   0  0  0  0  0  0  0  0  0  0  0  0
   37.6890   29.8060   44.2860 H   0  0  0  0  0  0  0  0  0  0  0  0
   36.5890   24.4020   39.3500 C   0  0  0  0  0  0  0  0  0  0  0  0
   37.4320   23.3110   39.5780 C   0  0  0  0  0  0  0  0  0  0  0  0
   38.3080   23.3680   40.6540 C   0  0  0  0  0  0  0  0  0  0  0  0
   38.2990   24.4830   41.4320 N   0  0  0  0  0  0  0  0  0  0  0  0
   37.4750   25.5330   41.1960 C   0  0  0  0  0  0  0  0  0  0  0  0
   36.6260   25.4820   40.1560 N   0  0  0  0  0  0  0  0  0  0  0  0
   35.9280   24.3070   38.5000 H   0  0  0  0  0  0  0  0  0  0  0  0
   37.4950   22.4060   39.0130 H   0  0  0  0  0  0  0  0  0  0  0  0
   39.0250   22.6500   40.9960 H   0  0  0  0  0  0  0  0  0  0  0  0
   39.2640   29.9780   42.1850 C   0  0  0  0  0  0  0  0  0  0  0  0
   39.0190   30.9480   41.2850 N   0  0  0  0  0  0  0  0  0  0  0  0
   40.0850   31.7770   41.2550 C   0  0  0  0  0  0  0  0  0  0  0  0
   41.0050   31.3290   42.1400 N   0  0  0  0  0  0  0  0  0  0  0  0
   40.4840   30.2350   42.6930 N   0  0  0  0  0  0  0  0  0  0  0  0
   40.1840   32.6580   40.6240 H   0  0  0  0  0  0  0  0  0  0  0  0
   42.2520   31.9670   42.3640 C   0  0  0  0  0  0  0  0  0  0  0  0
   43.0920   31.3530   43.2930 C   0  0  0  0  0  3  0  0  0  0  0  0
   44.3380   31.9270   43.5640 C   0  0  0  0  0  0  0  0  0  0  0  0
   44.9980   31.4600   44.2820 H   0  0  0  0  0  0  0  0  0  0  0  0
   44.7130   33.0620   42.9300 N   0  0  0  0  0  0  0  0  0  0  0  0
   43.8750   33.6450   42.0250 C   0  0  0  0  0  3  0  0  0  0  0  0
   42.6590   33.1070   41.7440 N   0  0  0  0  0  0  0  0  0  0  0  0
  1  2  1  0  0  0  0
  2  3  2  0  0  0  0
  2  7  1  0  0  0  0
  3  4  1  0  0  0  0
  4  8  1  0  0  0  0
  4  5  2  0  0  0  0
  5  9  1  0  0  0  0
  6  5  1  0  0  0  0
  6 10  1  0  0  0  0
  7  6  2  0  0  0  0
 11 12  2  0  0  0  0
 11 16  1  0  0  0  0
 12 13  1  0  0  0  0
 13 19  1  0  0  0  0
 13 14  2  0  0  0  0
 15 14  1  0  0  0  0
 15  3  1  0  0  0  0
 16 15  2  0  0  0  0
 17 11  1  0  0  0  0
 18 12  1  0  0  0  0
 20  7  1  0  0  0  0
 20 24  2  0  0  0  0
 21 20  1  0  0  0  0
 22 21  2  0  0  0  0
 22 23  1  0  0  0  0
 23 26  1  0  0  0  0
 23 24  1  0  0  0  0
 25 22  1  0  0  0  0
 26 27  1  0  0  0  0
 27 28  2  0  0  0  0
 28 29  1  0  0  0  0
 30 28  1  0  0  0  0
 31 30  2  0  0  0  0
 32 31  1  0  0  0  0
 32 26  2  0  0  0  0
M  END
>  <minimizedAffinity>
-5.33993483

$$$$

 OpenBabel03242514243D

 32 35  0  0  0  0  0  0  0  0999 V2000
   40.5170   30.5680   38.6660 Cl  0  0  0  0  0  0  0  0  0  0  0  0
   39.4260   31.8200   39.2090 C   0  0  0  0  0  0  0  0  0  0  0  0
   39.8810   33.0940   39.3800 C   0  0  0  0  0  0  0  0  0  0  0  0
   39.0260   34.1020   39.8110 C   0  0  0  0  0  0  0  0  0  0  0  0
   37.7270   33.7550   40.0530 C   0  0  0  0  0  0  0  0  0  0  0  0
   37.2730   32.4600   39.8770 C   0  0  0  0  0  0  0  0  0  0  0  0
   38.1260   31.4820   39.4520 C   0  0  0  0  0  0  0  0  0  0  0  0
   39.3750   35.1240   39.9520 H   0  0  0  0  0  0  0  0  0  0  0  0
   36.9860   34.4670   40.3910 H   0  0  0  0  0  0  0  0  0  0  0  0
   36.2440   32.1760   40.0650 H   0  0  0  0  0  0  0  0  0  0  0  0
   42.9660   34.1040   37.6350 C   0  0  0  0  0  0  0  0  0  0  0  0
   43.9310   33.9880   38.6370 C   0  0  0  0  0  0  0  0  0  0  0  0
   43.5270   33.5680   39.8980 C   0  0  0  0  0  0  0  0  0  0  0  0
   42.2100   33.2900   40.0910 N   0  0  0  0  0  0  0  0  0  0  0  0
   41.2850   33.4080   39.1070 C   0  0  0  0  0  0  0  0  0  0  0  0
   41.6730   33.8140   37.8860 N   0  0  0  0  0  0  0  0  0  0  0  0
   43.3320   34.4340   36.6740 H   0  0  0  0  0  0  0  0  0  0  0  0
   44.9790   34.1870   38.5610 H   0  0  0  0  0  0  0  0  0  0  0  0
   44.1000   33.4170   40.7890 H   0  0  0  0  0  0  0  0  0  0  0  0
   37.6690   30.1150   39.2620 C   0  0  0  0  0  0  0  0  0  0  0  0
   37.1450   29.5810   38.1430 N   0  0  0  0  0  0  0  0  0  0  0  0
   36.8540   28.2850   38.3900 C   0  0  0  0  0  0  0  0  0  0  0  0
   37.1960   28.0020   39.6680 N   0  0  0  0  0  0  0  0  0  0  0  0
   37.6890   29.1300   40.1780 N   0  0  0  0  0  0  0  0  0  0  0  0
   36.4170   27.5880   37.6780 H   0  0  0  0  0  0  0  0  0  0  0  0
   37.0240   26.7240   40.2600 C   0  0  0  0  0  0  0  0  0  0  0  0
   37.2350   26.6580   41.6370 C   0  0  0  0  0  3  0  0  0  0  0  0
   37.0830   25.4290   42.2880 C   0  0  0  0  0  0  0  0  0  0  0  0
   37.2450   25.3660   43.3560 H   0  0  0  0  0  0  0  0  0  0  0  0
   36.7350   24.3280   41.5830 N   0  0  0  0  0  0  0  0  0  0  0  0
   36.5340   24.4170   40.2370 C   0  0  0  0  0  3  0  0  0  0  0  0
   36.6750   25.5980   39.5810 N   0  0  0  0  0  0  0  0  0  0  0  0
  1  2  1  0  0  0  0
  2  3  2  0  0  0  0
  2  7  1  0  0  0  0
  3  4  1  0  0  0  0
  4  8  1  0  0  0  0
  4  5  2  0  0  0  0
  5  9  1  0  0  0  0
  6  5  1  0  0  0  0
  6 10  1  0  0  0  0
  7  6  2  0  0  0  0
 11 16  2  0  0  0  0
 11 12  1  0  0  0  0
 12 13  2  0  0  0  0
 13 14  1  0  0  0  0
 13 19  1  0  0  0  0
 15  3  1  0  0  0  0
 15 14  2  0  0  0  0
 16 15  1  0  0  0  0
 17 11  1  0  0  0  0
 18 12  1  0  0  0  0
 20  7  1  0  0  0  0
 20 24  2  0  0  0  0
 21 22  2  0  0  0  0
 21 20  1  0  0  0  0
 22 23  1  0  0  0  0
 23 24  1  0  0  0  0
 23 26  1  0  0  0  0
 25 22  1  0  0  0  0
 26 27  1  0  0  0  0
 27 28  2  0  0  0  0
 28 29  1  0  0  0  0
 30 28  1  0  0  0  0
 31 30  2  0  0  0  0
 32 31  1  0  0  0  0
 32 26  2  0  0  0  0
M  END
>  <minimizedAffinity>
-5.31399822

$$$$
