
 OpenBabel03252508033D

 40 43  0  0  1  0  0  0  0  0999 V2000
   44.2840   34.4720   41.6140 C   0  0  0  0  0  0  0  0  0  0  0  0
   45.1810   34.4650   40.7010 O   0  0  0  0  0  0  0  0  0  0  0  0
   42.1530   33.2740   41.2050 C   0  0  0  0  0  0  0  0  0  0  0  0
   42.8490   34.4370   41.3630 C   0  0  0  0  0  0  0  0  0  0  0  0
   42.1330   35.6460   41.2700 C   0  0  0  0  0  0  0  0  0  0  0  0
   40.7860   35.7090   41.0290 C   0  0  0  0  0  0  0  0  0  0  0  0
   40.0940   34.5350   40.8720 C   0  0  0  0  0  0  0  0  0  0  0  0
   40.7770   33.3590   40.9610 C   0  0  0  0  0  0  0  0  0  0  0  0
   42.6010   36.6150   41.3730 H   0  0  0  0  0  0  0  0  0  0  0  0
   40.2470   36.6340   40.9590 H   0  0  0  0  0  0  0  0  0  0  0  0
   39.0480   34.4990   40.6820 H   0  0  0  0  0  0  0  0  0  0  0  0
   40.2200   32.4150   40.8340 H   0  0  0  0  0  0  0  0  0  0  0  0
   42.8800   31.7560   41.3440 S   0  0  0  0  0  0  0  0  0  0  0  0
   42.1740   30.9600   40.2210 O   0  0  0  0  0  0  0  0  0  0  0  0
   42.5470   31.0840   42.6350 O   0  0  0  0  0  0  0  0  0  0  0  0
   44.3600   31.2090   40.7610 C   0  0  0  0  0  0  0  0  0  0  0  0
   44.5060   31.2440   39.3510 C   0  0  0  0  0  3  0  0  0  0  0  0
   45.6580   30.9120   38.6890 C   0  0  0  0  0  0  0  0  0  0  0  0
   45.7540   30.9450   37.6290 H   0  0  0  0  0  0  0  0  0  0  0  0
   46.6830   30.5360   39.4500 N   0  0  0  0  0  0  0  0  0  0  0  0
   46.6370   30.4730   40.7650 C   0  0  0  0  0  3  0  0  0  0  0  0
   45.4990   30.8050   41.3560 N   0  0  0  0  0  0  0  0  0  0  0  0
   44.6090   34.5180   43.0110 C   0  0  0  0  0  0  0  0  0  0  0  0
   44.2990   35.7480   43.6800 C   0  0  0  0  0  0  0  0  0  0  0  0
   44.5970   35.8080   45.0300 C   0  0  0  0  0  0  0  0  0  0  0  0
   45.1520   34.7220   45.6270 N   0  0  0  0  0  0  0  0  0  0  0  0
   45.4300   33.5660   44.9430 C   0  0  0  0  0  0  0  0  0  0  0  0
   45.1540   33.5100   43.6880 N   0  0  0  0  0  0  0  0  0  0  0  0
   43.8710   36.6350   43.2950 H   0  0  0  0  0  0  0  0  0  0  0  0
   44.4040   36.6950   45.6440 H   0  0  0  0  0  0  0  0  0  0  0  0
   46.0240   32.4370   45.6780 C   0  0  1  0  0  0  0  0  0  0  0  0
   46.9740   32.7230   46.8220 C   0  0  0  0  0  0  0  0  0  0  0  0
   45.5620   32.2890   47.0850 C   0  0  1  0  0  0  0  0  0  0  0  0
   46.1550   31.5000   45.1190 H   0  0  0  0  0  0  0  0  0  0  0  0
   47.2970   33.7700   46.9630 H   0  0  0  0  0  0  0  0  0  0  0  0
   47.7210   31.9220   46.9900 H   0  0  0  0  0  0  0  0  0  0  0  0
   45.3800   31.2940   47.5380 H   0  0  0  0  0  0  0  0  0  0  0  0
   44.7830   33.3500   47.7030 N   0  0  0  0  0  0  0  0  0  0  0  0
   43.9170   33.0020   48.1400 H   0  0  0  0  0  0  0  0  0  0  0  0
   45.3370   33.9600   48.3230 H   0  0  0  0  0  0  0  0  0  0  0  0
  1 23  1  0  0  0  0
  2  1  2  0  0  0  0
  3 13  1  0  0  0  0
  3  4  1  0  0  0  0
  4  1  1  0  0  0  0
  5  4  2  0  0  0  0
  5  9  1  0  0  0  0
  6  5  1  0  0  0  0
  7  8  1  0  0  0  0
  7  6  2  0  0  0  0
  8  3  2  0  0  0  0
 10  6  1  0  0  0  0
 11  7  1  0  0  0  0
 12  8  1  0  0  0  0
 13 15  2  0  0  0  0
 14 13  2  0  0  0  0
 16 13  1  0  0  0  0
 16 22  1  0  0  0  0
 17 16  2  0  0  0  0
 18 17  1  0  0  0  0
 18 20  2  0  0  0  0
 19 18  1  0  0  0  0
 20 21  1  0  0  0  0
 21 22  2  0  0  0  0
 23 24  2  0  0  0  0
 23 28  1  0  0  0  0
 24 25  1  0  0  0  0
 25 26  2  0  0  0  0
 25 30  1  0  0  0  0
 27 26  1  0  0  0  0
 27 31  1  0  0  0  0
 28 27  2  0  0  0  0
 29 24  1  0  0  0  0
 31 34  1  6  0  0  0
 31 32  1  0  0  0  0
 31 33  1  0  0  0  0
 32 35  1  0  0  0  0
 32 36  1  0  0  0  0
 32 33  1  0  0  0  0
 33 37  1  1  0  0  0
 33 38  1  0  0  0  0
 38 39  1  0  0  0  0
 38 40  1  0  0  0  0
M  END
>  <minimizedAffinity>
-5.75276423

>  <minimizedRMSD>
0.862682164

$$$$
