
 OpenBabel03242519373D

 25 26  0  0  0  0  0  0  0  0999 V2000
   48.1620   32.8670   41.5740 O   0  0  0  0  0  0  0  0  0  0  0  0
   47.2160   34.0000   41.2150 P   0  0  2  0  0  0  0  0  0  0  0  0
   45.6660   33.6650   41.9080 O   0  0  0  0  0  0  0  0  0  0  0  0
   44.4150   35.8400   44.5730 C   0  0  0  0  0  0  0  0  0  0  0  0
   44.7070   35.3570   43.2720 C   0  0  0  0  0  0  0  0  0  0  0  0
   45.3760   34.1430   43.1810 C   0  0  0  0  0  0  0  0  0  0  0  0
   45.7200   33.4750   44.3140 N   0  0  0  0  0  0  0  0  0  0  0  0
   45.4150   33.9830   45.5410 C   0  0  0  0  0  0  0  0  0  0  0  0
   44.7750   35.1420   45.6740 N   0  0  0  0  0  0  0  0  0  0  0  0
   43.9000   36.7720   44.7400 H   0  0  0  0  0  0  0  0  0  0  0  0
   44.3980   35.9530   42.4350 H   0  0  0  0  0  0  0  0  0  0  0  0
   45.6860   33.4540   46.4500 H   0  0  0  0  0  0  0  0  0  0  0  0
   47.0230   34.1760   39.5680 O   0  0  0  0  0  0  0  0  0  0  0  0
   47.4740   33.1780   38.7080 C   0  0  0  0  0  0  0  0  0  0  0  0
   46.6790   32.1000   38.3820 C   0  0  0  0  0  0  0  0  0  0  0  0
   47.2280   31.1720   37.5230 C   0  0  0  0  0  0  0  0  0  0  0  0
   46.6800   30.2840   37.2040 H   0  0  0  0  0  0  0  0  0  0  0  0
   48.4680   31.2840   37.0120 N   0  0  0  0  0  0  0  0  0  0  0  0
   49.2420   32.3550   37.3430 C   0  0  0  0  0  0  0  0  0  0  0  0
   48.7070   33.2460   38.1730 N   0  0  0  0  0  0  0  0  0  0  0  0
   47.7950   35.4060   41.9410 O   0  0  0  0  0  0  0  0  0  0  0  0
   49.0240   35.7750   41.4520 C   0  0  0  0  0  0  0  0  0  0  0  0
   49.4150   37.0480   41.8630 F   0  0  0  0  0  0  0  0  0  0  0  0
   49.9620   34.8140   41.7660 F   0  0  0  0  0  0  0  0  0  0  0  0
   48.9190   35.8240   40.0710 F   0  0  0  0  0  0  0  0  0  0  0  0
  2  1  2  1  0  0  0
  2  3  1  0  0  0  0
  2 21  1  0  0  0  0
  3  6  1  0  0  0  0
  4 10  1  0  0  0  0
  4  9  1  0  0  0  0
  5  4  2  0  0  0  0
  6  5  1  0  0  0  0
  6  7  2  0  0  0  0
  7  8  1  0  0  0  0
  8  9  2  0  0  0  0
  8 12  1  0  0  0  0
 11  5  1  0  0  0  0
 13  2  1  0  0  0  0
 14 13  1  0  0  0  0
 15 14  1  0  0  0  0
 16 15  2  0  0  0  0
 17 16  1  0  0  0  0
 18 19  2  0  0  0  0
 18 16  1  0  0  0  0
 19 20  1  0  0  0  0
 20 14  2  0  0  0  0
 22 24  1  0  0  0  0
 22 23  1  0  0  0  0
 22 21  1  0  0  0  0
 25 22  1  0  0  0  0
M  END
>  <minimizedAffinity>
-5.05244541

>  <minimizedRMSD>
1.15759456

$$$$
