
 OpenBabel03252503153D

 34 37  0  0  0  0  0  0  0  0999 V2000
   45.9860   34.6090   41.6100 C   0  0  0  0  0  0  0  0  0  0  0  0
   47.2190   34.7910   41.3940 O   0  0  0  0  0  0  0  0  0  0  0  0
   44.9910   34.2180   40.5600 C   0  0  0  0  0  0  0  0  0  0  0  0
   43.6440   34.5680   40.5380 C   0  0  0  0  0  0  0  0  0  0  0  0
   43.1410   34.0030   39.4210 N   0  0  0  0  0  0  0  0  0  0  0  0
   44.1350   33.3400   38.7910 C   0  0  0  0  0  0  0  0  0  0  0  0
   45.2850   33.4710   39.4940 N   0  0  0  0  0  0  0  0  0  0  0  0
   44.1290   32.5810   37.5770 N   0  0  0  0  0  0  0  0  0  0  0  0
   43.1230   35.1580   41.2570 H   0  0  0  0  0  0  0  0  0  0  0  0
   44.1970   31.5440   37.5380 H   0  0  0  0  0  0  0  0  0  0  0  0
   44.0470   33.1810   36.7120 H   0  0  0  0  0  0  0  0  0  0  0  0
   41.8050   34.0600   38.9370 C   0  0  0  0  0  0  0  0  0  0  0  0
   41.3830   35.0810   38.1120 C   0  0  0  0  0  3  0  0  0  0  0  0
   40.0470   34.9860   37.7280 C   0  0  0  0  0  0  0  0  0  0  0  0
   39.6240   35.7480   37.0760 H   0  0  0  0  0  0  0  0  0  0  0  0
   39.2060   34.0030   38.1060 N   0  0  0  0  0  0  0  0  0  0  0  0
   39.6680   33.0460   38.9010 C   0  0  0  0  0  3  0  0  0  0  0  0
   40.9470   33.0950   39.2970 N   0  0  0  0  0  0  0  0  0  0  0  0
   45.0040   36.0290   43.3550 C   0  0  0  0  0  0  0  0  0  0  0  0
   45.5640   34.7990   42.9550 C   0  0  0  0  0  0  0  0  0  0  0  0
   45.6490   33.8600   43.9570 C   0  0  0  0  0  0  0  0  0  0  0  0
   45.2320   34.0970   45.2080 N   0  0  0  0  0  0  0  0  0  0  0  0
   44.6990   35.3010   45.5460 C   0  0  0  0  0  0  0  0  0  0  0  0
   44.5910   36.2540   44.6130 N   0  0  0  0  0  0  0  0  0  0  0  0
   44.9140   36.8050   42.6060 H   0  0  0  0  0  0  0  0  0  0  0  0
   44.3790   35.4380   46.5710 H   0  0  0  0  0  0  0  0  0  0  0  0
   46.2010   32.5930   43.6460 C   0  0  0  0  0  0  0  0  0  0  0  0
   47.4520   32.0530   43.6750 C   0  0  0  0  0  0  0  0  0  0  0  0
   47.6670   30.8030   43.3170 C   0  0  0  0  0  0  0  0  0  0  0  0
   46.6150   30.0570   42.9160 C   0  0  0  0  0  0  0  0  0  0  0  0
   45.2270   31.2230   43.0620 S   0  0  0  0  0  0  0  0  0  0  0  0
   48.2400   32.7530   44.0200 H   0  0  0  0  0  0  0  0  0  0  0  0
   48.6270   30.3030   43.3120 H   0  0  0  0  0  0  0  0  0  0  0  0
   46.4970   29.0350   42.5770 H   0  0  0  0  0  0  0  0  0  0  0  0
  1 20  1  0  0  0  0
  2  1  2  0  0  0  0
  3  1  1  0  0  0  0
  4  3  2  0  0  0  0
  4  9  1  0  0  0  0
  5  4  1  0  0  0  0
  6  5  1  0  0  0  0
  6  7  2  0  0  0  0
  7  3  1  0  0  0  0
  8  6  1  0  0  0  0
 10  8  1  0  0  0  0
 11  8  1  0  0  0  0
 12 18  1  0  0  0  0
 12  5  1  0  0  0  0
 13 12  2  0  0  0  0
 14 16  2  0  0  0  0
 14 13  1  0  0  0  0
 15 14  1  0  0  0  0
 16 17  1  0  0  0  0
 17 18  2  0  0  0  0
 19 24  1  0  0  0  0
 20 19  2  0  0  0  0
 20 21  1  0  0  0  0
 21 22  2  0  0  0  0
 22 23  1  0  0  0  0
 23 26  1  0  0  0  0
 24 23  2  0  0  0  0
 25 19  1  0  0  0  0
 27 28  2  0  0  0  0
 27 21  1  0  0  0  0
 28 32  1  0  0  0  0
 29 28  1  0  0  0  0
 30 31  1  0  0  0  0
 30 29  2  0  0  0  0
 31 27  1  0  0  0  0
 33 29  1  0  0  0  0
 34 30  1  0  0  0  0
M  END
>  <minimizedAffinity>
-5.53786707

>  <minimizedRMSD>
1.08922172

$$$$
