
 OpenBabel03252503173D

 34 37  0  0  0  0  0  0  0  0999 V2000
   35.7680   29.1840   39.5530 C   0  0  0  0  0  0  0  0  0  0  0  0
   34.7660   29.4760   40.2680 O   0  0  0  0  0  0  0  0  0  0  0  0
   36.7360   30.1860   39.0010 C   0  0  0  0  0  0  0  0  0  0  0  0
   37.7300   30.8450   39.7180 C   0  0  0  0  0  0  0  0  0  0  0  0
   38.3530   31.6430   38.8260 N   0  0  0  0  0  0  0  0  0  0  0  0
   37.7660   31.4780   37.6210 C   0  0  0  0  0  0  0  0  0  0  0  0
   36.7620   30.5740   37.7250 N   0  0  0  0  0  0  0  0  0  0  0  0
   38.0460   32.0840   36.3540 N   0  0  0  0  0  0  0  0  0  0  0  0
   37.9490   30.7390   40.7560 H   0  0  0  0  0  0  0  0  0  0  0  0
   37.4400   32.7990   35.9040 H   0  0  0  0  0  0  0  0  0  0  0  0
   38.9380   31.7320   35.9130 H   0  0  0  0  0  0  0  0  0  0  0  0
   39.4440   32.5270   39.0530 C   0  0  0  0  0  0  0  0  0  0  0  0
   39.4920   33.3340   40.1710 C   0  0  0  0  0  3  0  0  0  0  0  0
   40.6260   34.1390   40.2410 C   0  0  0  0  0  0  0  0  0  0  0  0
   40.7510   34.8110   41.0900 H   0  0  0  0  0  0  0  0  0  0  0  0
   41.6130   34.1610   39.3250 N   0  0  0  0  0  0  0  0  0  0  0  0
   41.5120   33.3630   38.2690 C   0  0  0  0  0  3  0  0  0  0  0  0
   40.4380   32.5690   38.1570 N   0  0  0  0  0  0  0  0  0  0  0  0
   35.4500   27.2400   38.0890 C   0  0  0  0  0  0  0  0  0  0  0  0
   35.9480   27.7990   39.2830 C   0  0  0  0  0  0  0  0  0  0  0  0
   36.5880   26.9030   40.1080 C   0  0  0  0  0  0  0  0  0  0  0  0
   36.7260   25.6070   39.7990 N   0  0  0  0  0  0  0  0  0  0  0  0
   36.2280   25.1130   38.6330 C   0  0  0  0  0  0  0  0  0  0  0  0
   35.5960   25.9380   37.7910 N   0  0  0  0  0  0  0  0  0  0  0  0
   34.9360   27.9000   37.4030 H   0  0  0  0  0  0  0  0  0  0  0  0
   36.3690   24.0590   38.4350 H   0  0  0  0  0  0  0  0  0  0  0  0
   37.1180   27.3770   41.3330 C   0  0  0  0  0  0  0  0  0  0  0  0
   36.6070   27.6350   42.5690 C   0  0  0  0  0  0  0  0  0  0  0  0
   37.3700   28.0830   43.5460 C   0  0  0  0  0  0  0  0  0  0  0  0
   38.6820   28.2850   43.2980 C   0  0  0  0  0  0  0  0  0  0  0  0
   38.8320   27.8000   41.5520 S   0  0  0  0  0  0  0  0  0  0  0  0
   35.5200   27.4340   42.6610 H   0  0  0  0  0  0  0  0  0  0  0  0
   37.0400   28.3120   44.5510 H   0  0  0  0  0  0  0  0  0  0  0  0
   39.5190   28.6350   43.8900 H   0  0  0  0  0  0  0  0  0  0  0  0
  1  2  2  0  0  0  0
  3  1  1  0  0  0  0
  3  4  2  0  0  0  0
  4  9  1  0  0  0  0
  5 12  1  0  0  0  0
  5  4  1  0  0  0  0
  6  7  2  0  0  0  0
  6  5  1  0  0  0  0
  7  3  1  0  0  0  0
  8  6  1  0  0  0  0
 10  8  1  0  0  0  0
 11  8  1  0  0  0  0
 12 13  1  0  0  0  0
 13 14  2  0  0  0  0
 14 15  1  0  0  0  0
 16 14  1  0  0  0  0
 17 16  2  0  0  0  0
 18 17  1  0  0  0  0
 18 12  2  0  0  0  0
 19 20  1  0  0  0  0
 20  1  1  0  0  0  0
 20 21  2  0  0  0  0
 21 27  1  0  0  0  0
 22 21  1  0  0  0  0
 23 22  2  0  0  0  0
 24 19  2  0  0  0  0
 24 23  1  0  0  0  0
 25 19  1  0  0  0  0
 26 23  1  0  0  0  0
 27 31  1  0  0  0  0
 27 28  2  0  0  0  0
 28 32  1  0  0  0  0
 28 29  1  0  0  0  0
 29 33  1  0  0  0  0
 30 29  2  0  0  0  0
 30 34  1  0  0  0  0
 31 30  1  0  0  0  0
M  END
>  <minimizedAffinity>
-5.85245514

$$$$

 OpenBabel03252503173D

 34 37  0  0  0  0  0  0  0  0999 V2000
   35.1860   28.9530   39.2660 C   0  0  0  0  0  0  0  0  0  0  0  0
   33.9640   29.2650   39.3600 O   0  0  0  0  0  0  0  0  0  0  0  0
   36.0440   28.5300   40.4200 C   0  0  0  0  0  0  0  0  0  0  0  0
   36.8470   27.3940   40.4700 C   0  0  0  0  0  0  0  0  0  0  0  0
   37.4320   27.4180   41.6860 N   0  0  0  0  0  0  0  0  0  0  0  0
   37.0050   28.5160   42.3460 C   0  0  0  0  0  0  0  0  0  0  0  0
   36.1440   29.2100   41.5640 N   0  0  0  0  0  0  0  0  0  0  0  0
   37.3210   29.0000   43.6560 N   0  0  0  0  0  0  0  0  0  0  0  0
   36.9700   26.6620   39.7050 H   0  0  0  0  0  0  0  0  0  0  0  0
   36.6640   28.9710   44.4610 H   0  0  0  0  0  0  0  0  0  0  0  0
   38.2980   29.3960   43.7290 H   0  0  0  0  0  0  0  0  0  0  0  0
   38.3470   26.4770   42.2350 C   0  0  0  0  0  0  0  0  0  0  0  0
   38.2710   25.1360   41.9230 C   0  0  0  0  0  3  0  0  0  0  0  0
   39.2410   24.3530   42.5460 C   0  0  0  0  0  0  0  0  0  0  0  0
   39.2590   23.2790   42.3580 H   0  0  0  0  0  0  0  0  0  0  0  0
   40.1860   24.8190   43.3830 N   0  0  0  0  0  0  0  0  0  0  0  0
   40.2090   26.1200   43.6480 C   0  0  0  0  0  3  0  0  0  0  0  0
   39.2970   26.9150   43.0720 N   0  0  0  0  0  0  0  0  0  0  0  0
   35.2800   28.1510   36.9480 C   0  0  0  0  0  0  0  0  0  0  0  0
   35.7390   29.0210   37.9570 C   0  0  0  0  0  0  0  0  0  0  0  0
   36.7250   29.8910   37.5530 C   0  0  0  0  0  0  0  0  0  0  0  0
   37.2060   29.9080   36.3020 N   0  0  0  0  0  0  0  0  0  0  0  0
   36.7310   29.0470   35.3630 C   0  0  0  0  0  0  0  0  0  0  0  0
   35.7710   28.1780   35.6980 N   0  0  0  0  0  0  0  0  0  0  0  0
   34.5030   27.4440   37.2110 H   0  0  0  0  0  0  0  0  0  0  0  0
   37.1560   29.1050   34.3690 H   0  0  0  0  0  0  0  0  0  0  0  0
   37.2490   30.8020   38.5020 C   0  0  0  0  0  0  0  0  0  0  0  0
   36.8150   31.9650   39.0630 C   0  0  0  0  0  0  0  0  0  0  0  0
   37.5440   32.6120   39.9500 C   0  0  0  0  0  0  0  0  0  0  0  0
   38.7420   32.0950   40.3000 C   0  0  0  0  0  0  0  0  0  0  0  0
   38.8300   30.5860   39.2900 S   0  0  0  0  0  0  0  0  0  0  0  0
   35.8190   32.2970   38.7050 H   0  0  0  0  0  0  0  0  0  0  0  0
   37.2710   33.5380   40.4390 H   0  0  0  0  0  0  0  0  0  0  0  0
   39.5280   32.3990   40.9800 H   0  0  0  0  0  0  0  0  0  0  0  0
  1  2  2  0  0  0  0
  1  3  1  0  0  0  0
  3  4  2  0  0  0  0
  3  7  1  0  0  0  0
  4  5  1  0  0  0  0
  5 12  1  0  0  0  0
  5  6  1  0  0  0  0
  6  8  1  0  0  0  0
  7  6  2  0  0  0  0
  8 11  1  0  0  0  0
  8 10  1  0  0  0  0
  9  4  1  0  0  0  0
 12 18  1  0  0  0  0
 13 12  2  0  0  0  0
 13 14  1  0  0  0  0
 14 16  2  0  0  0  0
 15 14  1  0  0  0  0
 16 17  1  0  0  0  0
 18 17  2  0  0  0  0
 19 25  1  0  0  0  0
 19 20  1  0  0  0  0
 20  1  1  0  0  0  0
 21 20  2  0  0  0  0
 21 27  1  0  0  0  0
 22 21  1  0  0  0  0
 23 24  1  0  0  0  0
 23 22  2  0  0  0  0
 24 19  2  0  0  0  0
 26 23  1  0  0  0  0
 27 28  2  0  0  0  0
 27 31  1  0  0  0  0
 28 29  1  0  0  0  0
 29 30  2  0  0  0  0
 29 33  1  0  0  0  0
 30 34  1  0  0  0  0
 31 30  1  0  0  0  0
 32 28  1  0  0  0  0
M  END
>  <minimizedAffinity>
-5.72608852

$$$$

 OpenBabel03252503173D

 34 37  0  0  0  0  0  0  0  0999 V2000
   36.5250   29.0590   41.0080 C   0  0  0  0  0  0  0  0  0  0  0  0
   35.2970   28.7680   40.9190 O   0  0  0  0  0  0  0  0  0  0  0  0
   37.1400   30.3150   40.4710 C   0  0  0  0  0  0  0  0  0  0  0  0
   38.4010   30.4260   39.8920 C   0  0  0  0  0  0  0  0  0  0  0  0
   38.5320   31.7270   39.5560 N   0  0  0  0  0  0  0  0  0  0  0  0
   37.4040   32.3780   39.9130 C   0  0  0  0  0  0  0  0  0  0  0  0
   36.5370   31.5050   40.4810 N   0  0  0  0  0  0  0  0  0  0  0  0
   37.0370   33.7550   39.7790 N   0  0  0  0  0  0  0  0  0  0  0  0
   39.1110   29.6450   39.7470 H   0  0  0  0  0  0  0  0  0  0  0  0
   36.9830   34.4230   40.5740 H   0  0  0  0  0  0  0  0  0  0  0  0
   36.8240   34.0340   38.7830 H   0  0  0  0  0  0  0  0  0  0  0  0
   39.6410   32.3630   38.9330 C   0  0  0  0  0  0  0  0  0  0  0  0
   40.2100   31.8500   37.7850 C   0  0  0  0  0  3  0  0  0  0  0  0
   41.2860   32.5920   37.3050 C   0  0  0  0  0  0  0  0  0  0  0  0
   41.7990   32.2630   36.4020 H   0  0  0  0  0  0  0  0  0  0  0  0
   41.7630   33.7150   37.8750 N   0  0  0  0  0  0  0  0  0  0  0  0
   41.1760   34.1610   38.9790 C   0  0  0  0  0  3  0  0  0  0  0  0
   40.1360   33.4800   39.4800 N   0  0  0  0  0  0  0  0  0  0  0  0
   37.7610   28.3250   42.9980 C   0  0  0  0  0  0  0  0  0  0  0  0
   37.3370   28.0980   41.6730 C   0  0  0  0  0  0  0  0  0  0  0  0
   37.7740   26.9120   41.1310 C   0  0  0  0  0  0  0  0  0  0  0  0
   38.5380   26.0450   41.8080 N   0  0  0  0  0  0  0  0  0  0  0  0
   38.9220   26.3080   43.0860 C   0  0  0  0  0  0  0  0  0  0  0  0
   38.5270   27.4470   43.6660 N   0  0  0  0  0  0  0  0  0  0  0  0
   37.4460   29.2440   43.4750 H   0  0  0  0  0  0  0  0  0  0  0  0
   39.5390   25.5730   43.5850 H   0  0  0  0  0  0  0  0  0  0  0  0
   37.3970   26.6010   39.8010 C   0  0  0  0  0  0  0  0  0  0  0  0
   36.3440   25.9580   39.2230 C   0  0  0  0  0  0  0  0  0  0  0  0
   36.2610   25.8190   37.9150 C   0  0  0  0  0  0  0  0  0  0  0  0
   37.2490   26.3310   37.1480 C   0  0  0  0  0  0  0  0  0  0  0  0
   38.3680   27.0590   38.3820 S   0  0  0  0  0  0  0  0  0  0  0  0
   35.5930   25.5790   39.9440 H   0  0  0  0  0  0  0  0  0  0  0  0
   35.4610   25.3230   37.3810 H   0  0  0  0  0  0  0  0  0  0  0  0
   37.4390   26.3660   36.0820 H   0  0  0  0  0  0  0  0  0  0  0  0
  1 20  1  0  0  0  0
  2  1  2  0  0  0  0
  3  7  1  0  0  0  0
  3  1  1  0  0  0  0
  4  3  2  0  0  0  0
  5  4  1  0  0  0  0
  5  6  1  0  0  0  0
  6  7  2  0  0  0  0
  8  6  1  0  0  0  0
  8 10  1  0  0  0  0
  9  4  1  0  0  0  0
 11  8  1  0  0  0  0
 12 18  1  0  0  0  0
 12  5  1  0  0  0  0
 13 12  2  0  0  0  0
 14 13  1  0  0  0  0
 14 16  2  0  0  0  0
 15 14  1  0  0  0  0
 16 17  1  0  0  0  0
 17 18  2  0  0  0  0
 19 25  1  0  0  0  0
 19 24  1  0  0  0  0
 20 19  2  0  0  0  0
 21 20  1  0  0  0  0
 21 22  2  0  0  0  0
 22 23  1  0  0  0  0
 23 26  1  0  0  0  0
 23 24  2  0  0  0  0
 27 21  1  0  0  0  0
 28 27  2  0  0  0  0
 28 32  1  0  0  0  0
 29 28  1  0  0  0  0
 30 29  2  0  0  0  0
 30 31  1  0  0  0  0
 31 27  1  0  0  0  0
 33 29  1  0  0  0  0
 34 30  1  0  0  0  0
M  END
>  <minimizedAffinity>
-5.71552229

$$$$

 OpenBabel03252503173D

 34 37  0  0  0  0  0  0  0  0999 V2000
   36.6060   28.7020   40.6390 C   0  0  0  0  0  0  0  0  0  0  0  0
   35.8270   28.5290   41.6200 O   0  0  0  0  0  0  0  0  0  0  0  0
   37.1830   30.0250   40.2380 C   0  0  0  0  0  0  0  0  0  0  0  0
   38.4380   30.2330   39.6720 C   0  0  0  0  0  0  0  0  0  0  0  0
   38.5310   31.5650   39.4770 N   0  0  0  0  0  0  0  0  0  0  0  0
   37.3880   32.1430   39.9050 C   0  0  0  0  0  0  0  0  0  0  0  0
   36.5480   31.1900   40.3770 N   0  0  0  0  0  0  0  0  0  0  0  0
   36.9830   33.5160   39.9200 N   0  0  0  0  0  0  0  0  0  0  0  0
   39.1680   29.4920   39.4420 H   0  0  0  0  0  0  0  0  0  0  0  0
   36.9140   34.0920   40.7830 H   0  0  0  0  0  0  0  0  0  0  0  0
   36.7570   33.8930   38.9610 H   0  0  0  0  0  0  0  0  0  0  0  0
   39.6190   32.2950   38.9230 C   0  0  0  0  0  0  0  0  0  0  0  0
   40.2220   31.9000   37.7460 C   0  0  0  0  0  3  0  0  0  0  0  0
   41.2710   32.7230   37.3430 C   0  0  0  0  0  0  0  0  0  0  0  0
   41.8080   32.4900   36.4240 H   0  0  0  0  0  0  0  0  0  0  0  0
   41.6940   33.8150   38.0080 N   0  0  0  0  0  0  0  0  0  0  0  0
   41.0760   34.1450   39.1360 C   0  0  0  0  0  3  0  0  0  0  0  0
   40.0600   33.3840   39.5650 N   0  0  0  0  0  0  0  0  0  0  0  0
   36.2510   27.2460   38.6950 C   0  0  0  0  0  0  0  0  0  0  0  0
   36.9280   27.5310   39.8980 C   0  0  0  0  0  0  0  0  0  0  0  0
   37.8790   26.6010   40.2500 C   0  0  0  0  0  0  0  0  0  0  0  0
   38.1390   25.5160   39.5090 N   0  0  0  0  0  0  0  0  0  0  0  0
   37.4580   25.2840   38.3550 C   0  0  0  0  0  0  0  0  0  0  0  0
   36.5210   26.1540   37.9610 N   0  0  0  0  0  0  0  0  0  0  0  0
   35.4910   27.9450   38.3700 H   0  0  0  0  0  0  0  0  0  0  0  0
   37.7090   24.3910   37.7960 H   0  0  0  0  0  0  0  0  0  0  0  0
   38.6080   26.8060   41.4470 C   0  0  0  0  0  0  0  0  0  0  0  0
   38.4130   26.4960   42.7590 C   0  0  0  0  0  0  0  0  0  0  0  0
   39.2970   26.8260   43.6800 C   0  0  0  0  0  0  0  0  0  0  0  0
   40.4130   27.4830   43.2960 C   0  0  0  0  0  0  0  0  0  0  0  0
   40.1790   27.6400   41.4990 S   0  0  0  0  0  0  0  0  0  0  0  0
   37.4660   25.9560   42.9620 H   0  0  0  0  0  0  0  0  0  0  0  0
   39.2160   26.6160   44.7380 H   0  0  0  0  0  0  0  0  0  0  0  0
   41.2820   27.8680   43.8160 H   0  0  0  0  0  0  0  0  0  0  0  0
  1  2  2  0  0  0  0
  3  7  1  0  0  0  0
  3  1  1  0  0  0  0
  4  3  2  0  0  0  0
  5  4  1  0  0  0  0
  5  6  1  0  0  0  0
  6  8  1  0  0  0  0
  6  7  2  0  0  0  0
  8 10  1  0  0  0  0
  9  4  1  0  0  0  0
 11  8  1  0  0  0  0
 12  5  1  0  0  0  0
 12 18  1  0  0  0  0
 13 12  2  0  0  0  0
 14 13  1  0  0  0  0
 14 16  2  0  0  0  0
 15 14  1  0  0  0  0
 16 17  1  0  0  0  0
 17 18  2  0  0  0  0
 19 20  1  0  0  0  0
 20 21  2  0  0  0  0
 20  1  1  0  0  0  0
 21 27  1  0  0  0  0
 22 21  1  0  0  0  0
 23 22  2  0  0  0  0
 24 23  1  0  0  0  0
 24 19  2  0  0  0  0
 25 19  1  0  0  0  0
 26 23  1  0  0  0  0
 27 31  1  0  0  0  0
 27 28  2  0  0  0  0
 28 32  1  0  0  0  0
 28 29  1  0  0  0  0
 29 33  1  0  0  0  0
 30 29  2  0  0  0  0
 30 34  1  0  0  0  0
 31 30  1  0  0  0  0
M  END
>  <minimizedAffinity>
-5.64206886

$$$$

 OpenBabel03252503173D

 34 37  0  0  0  0  0  0  0  0999 V2000
   37.2180   30.7410   40.8070 C   0  0  0  0  0  0  0  0  0  0  0  0
   36.1620   31.3750   41.0950 O   0  0  0  0  0  0  0  0  0  0  0  0
   38.3460   31.2980   39.9930 C   0  0  0  0  0  0  0  0  0  0  0  0
   39.5840   31.7050   40.4800 C   0  0  0  0  0  0  0  0  0  0  0  0
   40.2760   32.1310   39.4020 N   0  0  0  0  0  0  0  0  0  0  0  0
   39.4950   31.9900   38.3090 C   0  0  0  0  0  0  0  0  0  0  0  0
   38.2970   31.4720   38.6710 N   0  0  0  0  0  0  0  0  0  0  0  0
   39.7520   32.2900   36.9330 N   0  0  0  0  0  0  0  0  0  0  0  0
   39.9130   31.6840   41.4940 H   0  0  0  0  0  0  0  0  0  0  0  0
   39.3230   33.0880   36.4220 H   0  0  0  0  0  0  0  0  0  0  0  0
   40.4260   31.6160   36.4790 H   0  0  0  0  0  0  0  0  0  0  0  0
   41.6000   32.6500   39.3600 C   0  0  0  0  0  0  0  0  0  0  0  0
   42.0250   33.6050   40.2600 C   0  0  0  0  0  3  0  0  0  0  0  0
   43.3470   34.0050   40.0800 C   0  0  0  0  0  0  0  0  0  0  0  0
   43.7710   34.7570   40.7450 H   0  0  0  0  0  0  0  0  0  0  0  0
   44.1730   33.5290   39.1290 N   0  0  0  0  0  0  0  0  0  0  0  0
   43.7080   32.6110   38.2910 C   0  0  0  0  0  3  0  0  0  0  0  0
   42.4410   32.1940   38.4230 N   0  0  0  0  0  0  0  0  0  0  0  0
   37.9320   29.1620   42.5450 C   0  0  0  0  0  0  0  0  0  0  0  0
   37.2950   29.4140   41.3140 C   0  0  0  0  0  0  0  0  0  0  0  0
   36.7880   28.2940   40.6960 C   0  0  0  0  0  0  0  0  0  0  0  0
   36.8910   27.0670   41.2240 N   0  0  0  0  0  0  0  0  0  0  0  0
   37.5160   26.8740   42.4160 C   0  0  0  0  0  0  0  0  0  0  0  0
   38.0290   27.9260   43.0640 N   0  0  0  0  0  0  0  0  0  0  0  0
   38.3510   30.0080   43.0760 H   0  0  0  0  0  0  0  0  0  0  0  0
   37.5700   25.8620   42.7950 H   0  0  0  0  0  0  0  0  0  0  0  0
   36.1320   28.4530   39.4500 C   0  0  0  0  0  0  0  0  0  0  0  0
   34.8790   28.8190   39.0610 C   0  0  0  0  0  0  0  0  0  0  0  0
   34.5480   28.8800   37.7870 C   0  0  0  0  0  0  0  0  0  0  0  0
   35.4830   28.5700   36.8620 C   0  0  0  0  0  0  0  0  0  0  0  0
   36.9300   28.1640   37.8870 S   0  0  0  0  0  0  0  0  0  0  0  0
   34.1930   29.0520   39.9010 H   0  0  0  0  0  0  0  0  0  0  0  0
   33.5780   29.1610   37.3980 H   0  0  0  0  0  0  0  0  0  0  0  0
   35.4940   28.5330   35.7800 H   0  0  0  0  0  0  0  0  0  0  0  0
  1  2  2  0  0  0  0
  1 20  1  0  0  0  0
  3  4  2  0  0  0  0
  3  1  1  0  0  0  0
  4  9  1  0  0  0  0
  5  4  1  0  0  0  0
  6  7  2  0  0  0  0
  6  5  1  0  0  0  0
  7  3  1  0  0  0  0
  8  6  1  0  0  0  0
 10  8  1  0  0  0  0
 11  8  1  0  0  0  0
 12  5  1  0  0  0  0
 12 13  1  0  0  0  0
 14 13  2  0  0  0  0
 14 15  1  0  0  0  0
 16 14  1  0  0  0  0
 17 18  1  0  0  0  0
 17 16  2  0  0  0  0
 18 12  2  0  0  0  0
 19 24  1  0  0  0  0
 19 25  1  0  0  0  0
 20 19  2  0  0  0  0
 21 22  2  0  0  0  0
 21 20  1  0  0  0  0
 22 23  1  0  0  0  0
 23 26  1  0  0  0  0
 23 24  2  0  0  0  0
 27 21  1  0  0  0  0
 28 27  2  0  0  0  0
 28 32  1  0  0  0  0
 29 28  1  0  0  0  0
 30 29  2  0  0  0  0
 30 31  1  0  0  0  0
 31 27  1  0  0  0  0
 33 29  1  0  0  0  0
 34 30  1  0  0  0  0
M  END
>  <minimizedAffinity>
-5.57605648

$$$$

 OpenBabel03252503173D

 34 37  0  0  0  0  0  0  0  0999 V2000
   37.5850   30.8700   40.6150 C   0  0  0  0  0  0  0  0  0  0  0  0
   36.7220   31.7780   40.7840 O   0  0  0  0  0  0  0  0  0  0  0  0
   38.6810   30.9200   39.5940 C   0  0  0  0  0  0  0  0  0  0  0  0
   39.7290   30.0120   39.4720 C   0  0  0  0  0  0  0  0  0  0  0  0
   40.4650   30.4470   38.4280 N   0  0  0  0  0  0  0  0  0  0  0  0
   39.8920   31.5660   37.9360 C   0  0  0  0  0  0  0  0  0  0  0  0
   38.7850   31.8640   38.6560 N   0  0  0  0  0  0  0  0  0  0  0  0
   40.2730   32.4070   36.8420 N   0  0  0  0  0  0  0  0  0  0  0  0
   39.9090   29.1550   40.0800 H   0  0  0  0  0  0  0  0  0  0  0  0
   40.6770   33.3590   36.9530 H   0  0  0  0  0  0  0  0  0  0  0  0
   40.1040   31.9650   35.8980 H   0  0  0  0  0  0  0  0  0  0  0  0
   41.6480   29.8680   37.8900 C   0  0  0  0  0  0  0  0  0  0  0  0
   42.5380   29.1810   38.6890 C   0  0  0  0  0  3  0  0  0  0  0  0
   43.6430   28.6790   38.0060 C   0  0  0  0  0  0  0  0  0  0  0  0
   44.4010   28.1220   38.5560 H   0  0  0  0  0  0  0  0  0  0  0  0
   43.8650   28.8260   36.6860 N   0  0  0  0  0  0  0  0  0  0  0  0
   42.9740   29.4980   35.9670 C   0  0  0  0  0  3  0  0  0  0  0  0
   41.8930   30.0000   36.5800 N   0  0  0  0  0  0  0  0  0  0  0  0
   38.2250   29.6800   42.6650 C   0  0  0  0  0  0  0  0  0  0  0  0
   37.4690   29.7440   41.4780 C   0  0  0  0  0  0  0  0  0  0  0  0
   36.6540   28.6570   41.2620 C   0  0  0  0  0  0  0  0  0  0  0  0
   36.5860   27.6240   42.1130 N   0  0  0  0  0  0  0  0  0  0  0  0
   37.3370   27.6080   43.2470 C   0  0  0  0  0  0  0  0  0  0  0  0
   38.1480   28.6390   43.5100 N   0  0  0  0  0  0  0  0  0  0  0  0
   38.8840   30.5100   42.8840 H   0  0  0  0  0  0  0  0  0  0  0  0
   37.2430   26.7480   43.8980 H   0  0  0  0  0  0  0  0  0  0  0  0
   35.8580   28.6340   40.0910 C   0  0  0  0  0  0  0  0  0  0  0  0
   34.6150   29.0850   39.7610 C   0  0  0  0  0  0  0  0  0  0  0  0
   34.1240   28.9150   38.5500 C   0  0  0  0  0  0  0  0  0  0  0  0
   34.8810   28.2790   37.6300 C   0  0  0  0  0  0  0  0  0  0  0  0
   36.3960   27.9000   38.5620 S   0  0  0  0  0  0  0  0  0  0  0  0
   34.0820   29.5920   40.5910 H   0  0  0  0  0  0  0  0  0  0  0  0
   33.1500   29.2430   38.2120 H   0  0  0  0  0  0  0  0  0  0  0  0
   34.7410   28.0070   36.5910 H   0  0  0  0  0  0  0  0  0  0  0  0
  1  2  2  0  0  0  0
  1 20  1  0  0  0  0
  3  1  1  0  0  0  0
  4  3  2  0  0  0  0
  4  9  1  0  0  0  0
  5  4  1  0  0  0  0
  6  5  1  0  0  0  0
  6  7  2  0  0  0  0
  7  3  1  0  0  0  0
  8 10  1  0  0  0  0
  8  6  1  0  0  0  0
 11  8  1  0  0  0  0
 12  5  1  0  0  0  0
 12 13  1  0  0  0  0
 14 15  1  0  0  0  0
 14 13  2  0  0  0  0
 16 14  1  0  0  0  0
 17 18  1  0  0  0  0
 17 16  2  0  0  0  0
 18 12  2  0  0  0  0
 19 25  1  0  0  0  0
 19 24  1  0  0  0  0
 20 19  2  0  0  0  0
 21 20  1  0  0  0  0
 21 22  2  0  0  0  0
 22 23  1  0  0  0  0
 23 24  2  0  0  0  0
 23 26  1  0  0  0  0
 27 21  1  0  0  0  0
 28 27  2  0  0  0  0
 28 32  1  0  0  0  0
 29 28  1  0  0  0  0
 30 29  2  0  0  0  0
 30 31  1  0  0  0  0
 31 27  1  0  0  0  0
 33 29  1  0  0  0  0
 34 30  1  0  0  0  0
M  END
>  <minimizedAffinity>
-5.54523182

$$$$

 OpenBabel03252503173D

 34 37  0  0  0  0  0  0  0  0999 V2000
   38.2890   31.4510   40.7070 C   0  0  0  0  0  0  0  0  0  0  0  0
   37.4050   32.3540   40.6480 O   0  0  0  0  0  0  0  0  0  0  0  0
   38.1100   30.1340   41.3980 C   0  0  0  0  0  0  0  0  0  0  0  0
   39.0590   29.1200   41.4840 C   0  0  0  0  0  0  0  0  0  0  0  0
   38.4700   28.1320   42.1900 N   0  0  0  0  0  0  0  0  0  0  0  0
   37.2210   28.5250   42.5190 C   0  0  0  0  0  0  0  0  0  0  0  0
   36.9940   29.7680   42.0300 N   0  0  0  0  0  0  0  0  0  0  0  0
   36.1940   27.8550   43.2580 N   0  0  0  0  0  0  0  0  0  0  0  0
   40.0440   29.1260   41.0760 H   0  0  0  0  0  0  0  0  0  0  0  0
   35.3330   27.4600   42.8290 H   0  0  0  0  0  0  0  0  0  0  0  0
   36.3960   27.7980   44.2920 H   0  0  0  0  0  0  0  0  0  0  0  0
   39.0190   26.8710   42.5570 C   0  0  0  0  0  0  0  0  0  0  0  0
   40.1790   26.7810   43.2980 C   0  0  0  0  0  3  0  0  0  0  0  0
   40.5790   25.4750   43.5700 C   0  0  0  0  0  0  0  0  0  0  0  0
   41.4860   25.3060   44.1500 H   0  0  0  0  0  0  0  0  0  0  0  0
   39.9240   24.3690   43.1670 N   0  0  0  0  0  0  0  0  0  0  0  0
   38.8130   24.5180   42.4560 C   0  0  0  0  0  3  0  0  0  0  0  0
   38.3880   25.7550   42.1690 N   0  0  0  0  0  0  0  0  0  0  0  0
   40.5480   32.4100   40.7590 C   0  0  0  0  0  0  0  0  0  0  0  0
   39.5180   31.7520   40.0570 C   0  0  0  0  0  0  0  0  0  0  0  0
   39.8220   31.4540   38.7480 C   0  0  0  0  0  0  0  0  0  0  0  0
   41.0000   31.7630   38.1910 N   0  0  0  0  0  0  0  0  0  0  0  0
   41.9640   32.3990   38.9100 C   0  0  0  0  0  0  0  0  0  0  0  0
   41.7250   32.7140   40.1880 N   0  0  0  0  0  0  0  0  0  0  0  0
   40.3630   32.6690   41.7930 H   0  0  0  0  0  0  0  0  0  0  0  0
   42.8960   32.6240   38.4090 H   0  0  0  0  0  0  0  0  0  0  0  0
   38.8440   30.7940   37.9650 C   0  0  0  0  0  0  0  0  0  0  0  0
   37.7510   31.1900   37.2540 C   0  0  0  0  0  0  0  0  0  0  0  0
   37.0060   30.3200   36.6020 C   0  0  0  0  0  0  0  0  0  0  0  0
   37.3480   29.0140   36.6510 C   0  0  0  0  0  0  0  0  0  0  0  0
   38.8330   29.0350   37.7000 S   0  0  0  0  0  0  0  0  0  0  0  0
   37.5640   32.2830   37.2810 H   0  0  0  0  0  0  0  0  0  0  0  0
   36.1260   30.5540   36.0170 H   0  0  0  0  0  0  0  0  0  0  0  0
   36.9340   28.1070   36.2280 H   0  0  0  0  0  0  0  0  0  0  0  0
  1  3  1  0  0  0  0
  2  1  2  0  0  0  0
  3  4  2  0  0  0  0
  3  7  1  0  0  0  0
  4  5  1  0  0  0  0
  5  6  1  0  0  0  0
  5 12  1  0  0  0  0
  6  8  1  0  0  0  0
  7  6  2  0  0  0  0
  8 11  1  0  0  0  0
  9  4  1  0  0  0  0
 10  8  1  0  0  0  0
 12 13  1  0  0  0  0
 13 14  2  0  0  0  0
 14 15  1  0  0  0  0
 16 14  1  0  0  0  0
 17 16  2  0  0  0  0
 18 17  1  0  0  0  0
 18 12  2  0  0  0  0
 19 25  1  0  0  0  0
 20  1  1  0  0  0  0
 20 19  2  0  0  0  0
 21 20  1  0  0  0  0
 22 21  2  0  0  0  0
 22 23  1  0  0  0  0
 23 24  2  0  0  0  0
 24 19  1  0  0  0  0
 26 23  1  0  0  0  0
 27 21  1  0  0  0  0
 28 32  1  0  0  0  0
 28 27  2  0  0  0  0
 29 30  2  0  0  0  0
 29 28  1  0  0  0  0
 30 31  1  0  0  0  0
 31 27  1  0  0  0  0
 33 29  1  0  0  0  0
 34 30  1  0  0  0  0
M  END
>  <minimizedAffinity>
-5.5091815

$$$$

 OpenBabel03252503173D

 34 37  0  0  0  0  0  0  0  0999 V2000
   36.7650   30.5910   40.4320 C   0  0  0  0  0  0  0  0  0  0  0  0
   35.8910   31.0300   41.2330 O   0  0  0  0  0  0  0  0  0  0  0  0
   38.1110   31.2140   40.2220 C   0  0  0  0  0  0  0  0  0  0  0  0
   38.8710   31.1490   39.0570 C   0  0  0  0  0  0  0  0  0  0  0  0
   39.9960   31.8460   39.3190 N   0  0  0  0  0  0  0  0  0  0  0  0
   39.9260   32.3150   40.5830 C   0  0  0  0  0  0  0  0  0  0  0  0
   38.7580   31.9260   41.1480 N   0  0  0  0  0  0  0  0  0  0  0  0
   40.8500   33.1050   41.3400 N   0  0  0  0  0  0  0  0  0  0  0  0
   38.6130   30.6500   38.1510 H   0  0  0  0  0  0  0  0  0  0  0  0
   41.4240   32.7360   42.1250 H   0  0  0  0  0  0  0  0  0  0  0  0
   40.8950   34.1100   41.0220 H   0  0  0  0  0  0  0  0  0  0  0  0
   41.1010   32.0820   38.4540 C   0  0  0  0  0  0  0  0  0  0  0  0
   41.7200   31.0480   37.7830 C   0  0  0  0  0  3  0  0  0  0  0  0
   42.7840   31.4510   36.9790 C   0  0  0  0  0  0  0  0  0  0  0  0
   43.3340   30.7020   36.4100 H   0  0  0  0  0  0  0  0  0  0  0  0
   43.2050   32.7220   36.8370 N   0  0  0  0  0  0  0  0  0  0  0  0
   42.5700   33.6750   37.5090 C   0  0  0  0  0  3  0  0  0  0  0  0
   41.5400   33.3370   38.2960 N   0  0  0  0  0  0  0  0  0  0  0  0
   35.7930   29.5380   38.4400 C   0  0  0  0  0  0  0  0  0  0  0  0
   36.4010   29.4230   39.7060 C   0  0  0  0  0  0  0  0  0  0  0  0
   36.5890   28.1290   40.1320 C   0  0  0  0  0  0  0  0  0  0  0  0
   36.2250   27.0670   39.4010 N   0  0  0  0  0  0  0  0  0  0  0  0
   35.6400   27.2280   38.1840 C   0  0  0  0  0  0  0  0  0  0  0  0
   35.4320   28.4650   37.7170 N   0  0  0  0  0  0  0  0  0  0  0  0
   35.6190   30.5350   38.0560 H   0  0  0  0  0  0  0  0  0  0  0  0
   35.3660   26.3360   37.6370 H   0  0  0  0  0  0  0  0  0  0  0  0
   37.1930   27.9180   41.3960 C   0  0  0  0  0  0  0  0  0  0  0  0
   36.7360   27.7890   42.6720 C   0  0  0  0  0  0  0  0  0  0  0  0
   37.5630   27.5920   43.6790 C   0  0  0  0  0  0  0  0  0  0  0  0
   38.8870   27.5200   43.4220 C   0  0  0  0  0  0  0  0  0  0  0  0
   38.9500   27.7490   41.6190 S   0  0  0  0  0  0  0  0  0  0  0  0
   35.6340   27.8630   42.7690 H   0  0  0  0  0  0  0  0  0  0  0  0
   37.2790   27.4800   44.7180 H   0  0  0  0  0  0  0  0  0  0  0  0
   39.7700   27.3700   44.0320 H   0  0  0  0  0  0  0  0  0  0  0  0
  1  2  2  0  0  0  0
  3  1  1  0  0  0  0
  3  7  1  0  0  0  0
  4  5  1  0  0  0  0
  4  3  2  0  0  0  0
  5  6  1  0  0  0  0
  6  7  2  0  0  0  0
  6  8  1  0  0  0  0
  8 10  1  0  0  0  0
  9  4  1  0  0  0  0
 11  8  1  0  0  0  0
 12  5  1  0  0  0  0
 13 12  2  0  0  0  0
 14 13  1  0  0  0  0
 15 14  1  0  0  0  0
 16 14  2  0  0  0  0
 16 17  1  0  0  0  0
 17 18  2  0  0  0  0
 18 12  1  0  0  0  0
 19 20  1  0  0  0  0
 20 21  2  0  0  0  0
 20  1  1  0  0  0  0
 21 27  1  0  0  0  0
 22 21  1  0  0  0  0
 23 22  2  0  0  0  0
 24 23  1  0  0  0  0
 24 19  2  0  0  0  0
 25 19  1  0  0  0  0
 26 23  1  0  0  0  0
 27 31  1  0  0  0  0
 27 28  2  0  0  0  0
 28 32  1  0  0  0  0
 28 29  1  0  0  0  0
 29 33  1  0  0  0  0
 30 29  2  0  0  0  0
 30 34  1  0  0  0  0
 31 30  1  0  0  0  0
M  END
>  <minimizedAffinity>
-5.35200787

$$$$

 OpenBabel03252503173D

 34 37  0  0  0  0  0  0  0  0999 V2000
   38.1970   28.6040   42.8200 C   0  0  0  0  0  0  0  0  0  0  0  0
   37.2820   28.4600   43.6800 O   0  0  0  0  0  0  0  0  0  0  0  0
   38.3890   29.8330   41.9840 C   0  0  0  0  0  0  0  0  0  0  0  0
   39.6050   30.3270   41.5220 C   0  0  0  0  0  0  0  0  0  0  0  0
   39.3010   31.4380   40.8180 N   0  0  0  0  0  0  0  0  0  0  0  0
   37.9620   31.6120   40.8480 C   0  0  0  0  0  0  0  0  0  0  0  0
   37.3920   30.6170   41.5700 N   0  0  0  0  0  0  0  0  0  0  0  0
   37.1380   32.6260   40.2630 N   0  0  0  0  0  0  0  0  0  0  0  0
   40.5720   29.9130   41.6920 H   0  0  0  0  0  0  0  0  0  0  0  0
   36.6660   33.3760   40.8060 H   0  0  0  0  0  0  0  0  0  0  0  0
   37.0540   32.5390   39.2150 H   0  0  0  0  0  0  0  0  0  0  0  0
   40.1920   32.3140   40.1380 C   0  0  0  0  0  0  0  0  0  0  0  0
   41.0710   33.1210   40.8290 C   0  0  0  0  0  3  0  0  0  0  0  0
   41.8710   33.9180   40.0140 C   0  0  0  0  0  0  0  0  0  0  0  0
   42.5970   34.5890   40.4720 H   0  0  0  0  0  0  0  0  0  0  0  0
   41.8260   33.9330   38.6680 N   0  0  0  0  0  0  0  0  0  0  0  0
   40.9580   33.1350   38.0570 C   0  0  0  0  0  3  0  0  0  0  0  0
   40.1660   32.3490   38.7990 N   0  0  0  0  0  0  0  0  0  0  0  0
   40.0350   27.2170   43.6710 C   0  0  0  0  0  0  0  0  0  0  0  0
   39.0810   27.4990   42.6720 C   0  0  0  0  0  0  0  0  0  0  0  0
   39.1040   26.6340   41.6030 C   0  0  0  0  0  0  0  0  0  0  0  0
   39.9620   25.6080   41.5200 N   0  0  0  0  0  0  0  0  0  0  0  0
   40.8650   25.3770   42.5100 C   0  0  0  0  0  0  0  0  0  0  0  0
   40.8900   26.1850   43.5760 N   0  0  0  0  0  0  0  0  0  0  0  0
   40.0620   27.8670   44.5360 H   0  0  0  0  0  0  0  0  0  0  0  0
   41.5340   24.5340   42.3910 H   0  0  0  0  0  0  0  0  0  0  0  0
   38.1800   26.8430   40.5490 C   0  0  0  0  0  0  0  0  0  0  0  0
   36.8590   26.5710   40.3570 C   0  0  0  0  0  0  0  0  0  0  0  0
   36.2490   26.8950   39.2350 C   0  0  0  0  0  0  0  0  0  0  0  0
   36.9630   27.5100   38.2670 C   0  0  0  0  0  0  0  0  0  0  0  0
   38.6170   27.6300   39.0140 S   0  0  0  0  0  0  0  0  0  0  0  0
   36.3710   26.0660   41.2160 H   0  0  0  0  0  0  0  0  0  0  0  0
   35.2070   26.7140   39.0070 H   0  0  0  0  0  0  0  0  0  0  0  0
   36.7320   27.8800   37.2760 H   0  0  0  0  0  0  0  0  0  0  0  0
  1  2  2  0  0  0  0
  3  1  1  0  0  0  0
  4  9  1  0  0  0  0
  4  3  2  0  0  0  0
  5  6  1  0  0  0  0
  5  4  1  0  0  0  0
  6  7  2  0  0  0  0
  7  3  1  0  0  0  0
  8 10  1  0  0  0  0
  8  6  1  0  0  0  0
 11  8  1  0  0  0  0
 12  5  1  0  0  0  0
 12 13  1  0  0  0  0
 14 15  1  0  0  0  0
 14 13  2  0  0  0  0
 16 14  1  0  0  0  0
 17 16  2  0  0  0  0
 17 18  1  0  0  0  0
 18 12  2  0  0  0  0
 19 25  1  0  0  0  0
 20  1  1  0  0  0  0
 20 19  2  0  0  0  0
 21 20  1  0  0  0  0
 22 21  2  0  0  0  0
 22 23  1  0  0  0  0
 23 24  2  0  0  0  0
 24 19  1  0  0  0  0
 26 23  1  0  0  0  0
 27 21  1  0  0  0  0
 28 27  2  0  0  0  0
 28 32  1  0  0  0  0
 29 28  1  0  0  0  0
 30 31  1  0  0  0  0
 30 29  2  0  0  0  0
 31 27  1  0  0  0  0
 33 29  1  0  0  0  0
 34 30  1  0  0  0  0
M  END
>  <minimizedAffinity>
-5.25294924

$$$$
