
 OpenBabel03252503153D

 34 37  0  0  0  0  0  0  0  0999 V2000
   45.6090   34.4940   41.6270 C   0  0  0  0  0  0  0  0  0  0  0  0
   46.8070   34.6890   41.2710 O   0  0  0  0  0  0  0  0  0  0  0  0
   44.5100   34.0630   40.7030 C   0  0  0  0  0  0  0  0  0  0  0  0
   43.1470   34.0970   40.9820 C   0  0  0  0  0  0  0  0  0  0  0  0
   42.5390   33.6230   39.8740 N   0  0  0  0  0  0  0  0  0  0  0  0
   43.4870   33.3140   38.9640 C   0  0  0  0  0  0  0  0  0  0  0  0
   44.7120   33.5860   39.4740 N   0  0  0  0  0  0  0  0  0  0  0  0
   43.3720   32.7820   37.6390 N   0  0  0  0  0  0  0  0  0  0  0  0
   42.6840   34.4290   41.8830 H   0  0  0  0  0  0  0  0  0  0  0  0
   43.6280   31.8080   37.3800 H   0  0  0  0  0  0  0  0  0  0  0  0
   42.9990   33.4800   36.9410 H   0  0  0  0  0  0  0  0  0  0  0  0
   41.1450   33.4530   39.6450 C   0  0  0  0  0  0  0  0  0  0  0  0
   40.5280   32.2340   39.8400 C   0  0  0  0  0  3  0  0  0  0  0  0
   39.1620   32.2410   39.5710 C   0  0  0  0  0  0  0  0  0  0  0  0
   38.5900   31.3220   39.6970 H   0  0  0  0  0  0  0  0  0  0  0  0
   38.4630   33.3160   39.1580 N   0  0  0  0  0  0  0  0  0  0  0  0
   39.1090   34.4630   38.9880 C   0  0  0  0  0  3  0  0  0  0  0  0
   40.4270   34.5060   39.2340 N   0  0  0  0  0  0  0  0  0  0  0  0
   44.7730   35.9270   43.4350 C   0  0  0  0  0  0  0  0  0  0  0  0
   45.3350   34.7090   43.0060 C   0  0  0  0  0  0  0  0  0  0  0  0
   45.5750   33.8060   44.0160 C   0  0  0  0  0  0  0  0  0  0  0  0
   45.2950   34.0660   45.3000 N   0  0  0  0  0  0  0  0  0  0  0  0
   44.7520   35.2580   45.6650 C   0  0  0  0  0  0  0  0  0  0  0  0
   44.4960   36.1760   44.7260 N   0  0  0  0  0  0  0  0  0  0  0  0
   44.5630   36.6750   42.6810 H   0  0  0  0  0  0  0  0  0  0  0  0
   44.5460   35.4150   46.7160 H   0  0  0  0  0  0  0  0  0  0  0  0
   46.1420   32.5530   43.6770 C   0  0  0  0  0  0  0  0  0  0  0  0
   47.4090   32.0560   43.6060 C   0  0  0  0  0  0  0  0  0  0  0  0
   47.6350   30.8080   43.2490 C   0  0  0  0  0  0  0  0  0  0  0  0
   46.5790   30.0190   42.9530 C   0  0  0  0  0  0  0  0  0  0  0  0
   45.1700   31.1410   43.2010 S   0  0  0  0  0  0  0  0  0  0  0  0
   48.1980   32.7880   43.8700 H   0  0  0  0  0  0  0  0  0  0  0  0
   48.6080   30.3400   43.1680 H   0  0  0  0  0  0  0  0  0  0  0  0
   46.4680   28.9880   42.6410 H   0  0  0  0  0  0  0  0  0  0  0  0
  1 20  1  0  0  0  0
  2  1  2  0  0  0  0
  3  4  2  0  0  0  0
  3  1  1  0  0  0  0
  4  9  1  0  0  0  0
  5  4  1  0  0  0  0
  6  7  2  0  0  0  0
  6  5  1  0  0  0  0
  7  3  1  0  0  0  0
  8  6  1  0  0  0  0
 10  8  1  0  0  0  0
 11  8  1  0  0  0  0
 12 13  1  0  0  0  0
 12  5  1  0  0  0  0
 14 15  1  0  0  0  0
 14 13  2  0  0  0  0
 16 14  1  0  0  0  0
 17 16  2  0  0  0  0
 17 18  1  0  0  0  0
 18 12  2  0  0  0  0
 19 24  1  0  0  0  0
 20 19  2  0  0  0  0
 20 21  1  0  0  0  0
 21 22  2  0  0  0  0
 22 23  1  0  0  0  0
 23 26  1  0  0  0  0
 24 23  2  0  0  0  0
 25 19  1  0  0  0  0
 27 21  1  0  0  0  0
 28 27  2  0  0  0  0
 28 32  1  0  0  0  0
 29 28  1  0  0  0  0
 30 31  1  0  0  0  0
 30 29  2  0  0  0  0
 31 27  1  0  0  0  0
 33 29  1  0  0  0  0
 34 30  1  0  0  0  0
M  END
>  <minimizedAffinity>
-5.28238106

>  <minimizedRMSD>
1.64979172

$$$$
