
 OpenBabel03252503153D

 34 37  0  0  0  0  0  0  0  0999 V2000
   46.1180   34.7300   41.9130 C   0  0  0  0  0  0  0  0  0  0  0  0
   47.3310   35.0460   41.7470 O   0  0  0  0  0  0  0  0  0  0  0  0
   45.2000   34.2870   40.8140 C   0  0  0  0  0  0  0  0  0  0  0  0
   43.8840   34.7000   40.6310 C   0  0  0  0  0  0  0  0  0  0  0  0
   43.4510   34.0540   39.5290 N   0  0  0  0  0  0  0  0  0  0  0  0
   44.4560   33.2830   39.0610 C   0  0  0  0  0  0  0  0  0  0  0  0
   45.5440   33.4260   39.8550 N   0  0  0  0  0  0  0  0  0  0  0  0
   44.5140   32.4110   37.9270 N   0  0  0  0  0  0  0  0  0  0  0  0
   43.3360   35.3840   41.2390 H   0  0  0  0  0  0  0  0  0  0  0  0
   44.5250   31.3730   37.9920 H   0  0  0  0  0  0  0  0  0  0  0  0
   44.5460   32.9260   37.0070 H   0  0  0  0  0  0  0  0  0  0  0  0
   42.1690   34.1300   38.9160 C   0  0  0  0  0  0  0  0  0  0  0  0
   41.2730   33.0840   38.9950 C   0  0  0  0  0  3  0  0  0  0  0  0
   40.0650   33.3200   38.3430 C   0  0  0  0  0  0  0  0  0  0  0  0
   39.2950   32.5500   38.3510 H   0  0  0  0  0  0  0  0  0  0  0  0
   39.7560   34.4520   37.6820 N   0  0  0  0  0  0  0  0  0  0  0  0
   40.6580   35.4250   37.6400 C   0  0  0  0  0  3  0  0  0  0  0  0
   41.8360   35.2440   38.2530 N   0  0  0  0  0  0  0  0  0  0  0  0
   44.9910   35.9820   43.6970 C   0  0  0  0  0  0  0  0  0  0  0  0
   45.6390   34.8130   43.2490 C   0  0  0  0  0  0  0  0  0  0  0  0
   45.7470   33.8230   44.1980 C   0  0  0  0  0  0  0  0  0  0  0  0
   45.2740   33.9600   45.4440 N   0  0  0  0  0  0  0  0  0  0  0  0
   44.6560   35.1080   45.8300 C   0  0  0  0  0  0  0  0  0  0  0  0
   44.5220   36.1070   44.9500 N   0  0  0  0  0  0  0  0  0  0  0  0
   44.8790   36.7950   42.9920 H   0  0  0  0  0  0  0  0  0  0  0  0
   44.2940   35.1650   46.8480 H   0  0  0  0  0  0  0  0  0  0  0  0
   46.3860   32.6120   43.8360 C   0  0  0  0  0  0  0  0  0  0  0  0
   47.6710   32.1570   43.8540 C   0  0  0  0  0  0  0  0  0  0  0  0
   47.9730   30.9420   43.4420 C   0  0  0  0  0  0  0  0  0  0  0  0
   46.9770   30.1460   42.9970 C   0  0  0  0  0  0  0  0  0  0  0  0
   45.5120   31.2080   43.1800 S   0  0  0  0  0  0  0  0  0  0  0  0
   48.4060   32.8920   44.2390 H   0  0  0  0  0  0  0  0  0  0  0  0
   48.9650   30.5090   43.4250 H   0  0  0  0  0  0  0  0  0  0  0  0
   46.9320   29.1350   42.6100 H   0  0  0  0  0  0  0  0  0  0  0  0
  1 20  1  0  0  0  0
  2  1  2  0  0  0  0
  3  1  1  0  0  0  0
  4  3  2  0  0  0  0
  4  9  1  0  0  0  0
  5  4  1  0  0  0  0
  6  5  1  0  0  0  0
  6  7  2  0  0  0  0
  7  3  1  0  0  0  0
  8 10  1  0  0  0  0
  8  6  1  0  0  0  0
 11  8  1  0  0  0  0
 12 13  1  0  0  0  0
 12  5  1  0  0  0  0
 14 15  1  0  0  0  0
 14 13  2  0  0  0  0
 16 14  1  0  0  0  0
 17 16  2  0  0  0  0
 17 18  1  0  0  0  0
 18 12  2  0  0  0  0
 19 24  1  0  0  0  0
 20 19  2  0  0  0  0
 20 21  1  0  0  0  0
 21 22  2  0  0  0  0
 22 23  1  0  0  0  0
 23 26  1  0  0  0  0
 24 23  2  0  0  0  0
 25 19  1  0  0  0  0
 27 28  2  0  0  0  0
 27 21  1  0  0  0  0
 28 32  1  0  0  0  0
 29 28  1  0  0  0  0
 30 31  1  0  0  0  0
 30 29  2  0  0  0  0
 31 27  1  0  0  0  0
 33 29  1  0  0  0  0
 34 30  1  0  0  0  0
M  END
>  <minimizedAffinity>
-5.53405952

>  <minimizedRMSD>
0.83136797

$$$$
