
 OpenBabel03252501223D

 31 32  0  0  0  0  0  0  0  0999 V2000
   44.9820   33.7530   44.6520 N   0  0  0  0  0  0  0  0  0  0  0  0
   45.4810   34.4190   45.2920 H   0  0  0  0  0  0  0  0  0  0  0  0
   45.7430   32.5110   44.5330 C   0  0  0  0  0  0  0  0  0  0  0  0
   44.9540   31.7430   44.2650 H   0  0  0  0  0  0  0  0  0  0  0  0
   46.3860   32.5730   43.6790 H   0  0  0  0  0  0  0  0  0  0  0  0
   45.7690   32.7440   46.9530 C   0  0  0  0  0  0  0  0  0  0  0  0
   46.2760   32.1210   45.8210 C   0  0  0  0  0  0  0  0  0  0  0  0
   47.2510   31.1780   46.0220 C   0  0  0  0  0  0  0  0  0  0  0  0
   47.6780   30.8910   47.2900 N   0  0  0  0  0  0  0  0  0  0  0  0
   47.1740   31.5030   48.3670 C   0  0  0  0  0  0  0  0  0  0  0  0
   46.1940   32.4560   48.1970 N   0  0  0  0  0  0  0  0  0  0  0  0
   44.9990   33.5050   46.9520 H   0  0  0  0  0  0  0  0  0  0  0  0
   47.5900   31.1940   49.3160 H   0  0  0  0  0  0  0  0  0  0  0  0
   47.7630   30.5360   44.8040 C   0  0  0  0  0  0  0  0  0  0  0  0
   48.8090   29.6880   45.1450 F   0  0  0  0  0  0  0  0  0  0  0  0
   48.2810   31.5300   44.0310 F   0  0  0  0  0  0  0  0  0  0  0  0
   46.8250   29.7440   44.2280 F   0  0  0  0  0  0  0  0  0  0  0  0
   44.9150   34.3120   43.3480 C   0  0  0  0  0  0  0  0  0  0  0  0
   44.8550   33.5350   42.5470 H   0  0  0  0  0  0  0  0  0  0  0  0
   43.9670   34.9090   43.2010 H   0  0  0  0  0  0  0  0  0  0  0  0
   46.0730   35.1910   42.9910 C   0  0  0  0  0  0  0  0  0  0  0  0
   45.7600   36.2420   42.9060 H   0  0  0  0  0  0  0  0  0  0  0  0
   46.8120   35.0640   43.8400 H   0  0  0  0  0  0  0  0  0  0  0  0
   46.8780   34.5940   41.5030 S   0  0  0  0  0  0  0  0  0  0  0  0
   48.5080   33.9790   41.7070 C   0  0  0  0  0  0  0  0  0  0  0  0
   49.5860   34.3780   42.4430 C   0  0  0  0  0  0  0  0  0  0  0  0
   50.7760   33.7280   42.4830 C   0  0  0  0  0  0  0  0  0  0  0  0
   51.5440   34.1750   43.1250 H   0  0  0  0  0  0  0  0  0  0  0  0
   50.9310   32.5910   41.7410 N   0  0  0  0  0  0  0  0  0  0  0  0
   49.8550   32.1880   41.0000 C   0  0  0  0  0  0  0  0  0  0  0  0
   48.6670   32.8420   40.9640 N   0  0  0  0  0  0  0  0  0  0  0  0
  1  2  1  0  0  0  0
  3  1  1  0  0  0  0
  3  7  1  0  0  0  0
  4  3  1  0  0  0  0
  5  3  1  0  0  0  0
  6 11  1  0  0  0  0
  7  8  1  0  0  0  0
  7  6  2  0  0  0  0
  8  9  2  0  0  0  0
  9 10  1  0  0  0  0
 10 13  1  0  0  0  0
 11 10  2  0  0  0  0
 12  6  1  0  0  0  0
 14 15  1  0  0  0  0
 14  8  1  0  0  0  0
 16 14  1  0  0  0  0
 17 14  1  0  0  0  0
 18  1  1  0  0  0  0
 19 18  1  0  0  0  0
 20 18  1  0  0  0  0
 21 18  1  0  0  0  0
 21 23  1  0  0  0  0
 22 21  1  0  0  0  0
 24 25  1  0  0  0  0
 24 21  1  0  0  0  0
 25 26  1  0  0  0  0
 26 27  2  0  0  0  0
 27 28  1  0  0  0  0
 29 27  1  0  0  0  0
 30 29  2  0  0  0  0
 31 30  1  0  0  0  0
 31 25  2  0  0  0  0
M  END
>  <minimizedAffinity>
-4.09392548

>  <minimizedRMSD>
6.62871361

$$$$
