REMARK  Name = 
REMARK  7 active torsions:
REMARK  status: ('A' for Active; 'I' for Inactive)
REMARK    1  A    between atoms: C_3  and  C_12
REMARK    2  A    between atoms: C_7  and  O_15
REMARK    3  A    between atoms: C_8  and  N_14
REMARK    4  A    between atoms: O_15  and  P_17
REMARK    5  A    between atoms: P_17  and  O_18
REMARK    6  A    between atoms: P_17  and  O_19
REMARK    7  A    between atoms: O_19  and  C_28
REMARK                            x       y       z     vdW  Elec       q    Type
REMARK                         _______ _______ _______ _____ _____    ______ ____
ROOT
ATOM      1  F   UNL     1      45.136  33.514  41.158  0.00  0.00    +0.000 F 
ATOM      2  C   UNL     1      46.331  34.090  41.045  0.00  0.00    +0.000 A 
ATOM      3  C   UNL     1      46.829  34.798  42.114  0.00  0.00    +0.000 A 
ATOM      4  C   UNL     1      48.075  35.434  42.083  0.00  0.00    +0.000 A 
ATOM      5  C   UNL     1      48.852  35.353  40.932  0.00  0.00    +0.000 A 
ATOM      6  C   UNL     1      48.312  34.631  39.884  0.00  0.00    +0.000 A 
ATOM      7  C   UNL     1      47.104  34.008  39.894  0.00  0.00    +0.000 A 
ATOM      8  H   UNL     1      48.420  35.986  42.969  0.00  0.00    +0.000 HD
ATOM      9  H   UNL     1      49.795  35.856  40.963  0.00  0.00    +0.000 HD
ATOM     10  H   UNL     1      49.020  34.642  39.058  0.00  0.00    +0.000 HD
ENDROOT
BRANCH   3  15
ATOM     11  C   UNL     1      45.457  34.012  45.425  0.00  0.00    +0.000 A 
ATOM     12  C   UNL     1      44.615  35.116  45.661  0.00  0.00    +0.000 A 
ATOM     13  C   UNL     1      44.518  36.145  44.671  0.00  0.00    +0.000 A 
ATOM     14  N   UNL     1      45.266  35.981  43.536  0.00  0.00    +0.000 NA
ATOM     15  C   UNL     1      46.054  34.911  43.356  0.00  0.00    +0.000 A 
ATOM     16  N   UNL     1      46.142  33.950  44.287  0.00  0.00    +0.000 NA
ATOM     17  H   UNL     1      44.014  35.270  46.547  0.00  0.00    +0.000 HD
ATOM     18  H   UNL     1      43.898  37.000  44.799  0.00  0.00    +0.000 HD
BRANCH  11  19
ATOM     19  N   UNL     1      45.526  33.026  46.423  0.00  0.00    +0.000 N 
ATOM     20  H   UNL     1      46.522  33.099  46.777  0.00  0.00    +0.000 HD
ATOM     21  H   UNL     1      44.782  32.366  46.754  0.00  0.00    +0.000 HD
ENDBRANCH  11  19
ENDBRANCH   3  15
BRANCH   7  22
ATOM     22  O   UNL     1      46.665  33.321  38.797  0.00  0.00    +0.000 OA
BRANCH  22  24
ATOM     23  O   UNL     1      48.082  34.661  36.998  0.00  0.00    +0.000 OA
ATOM     24  P   UNL     1      47.337  33.376  37.260  0.00  0.00    +0.000 P 
BRANCH  24  25
ATOM     25  O   UNL     1      46.064  33.194  36.118  0.00  0.00    +0.000 OA
ATOM     26  H   UNL     1      45.871  34.040  35.649  0.00  0.00    +0.000 HD
ENDBRANCH  24  25
BRANCH  24  27
ATOM     27  O   UNL     1      48.375  32.081  36.935  0.00  0.00    +0.000 OA
BRANCH  27  28
ATOM     28  C   UNL     1      49.553  32.223  36.218  0.00  0.00    +0.000 A 
ATOM     29  C   UNL     1      50.748  32.510  36.842  0.00  0.00    +0.000 A 
ATOM     30  C   UNL     1      51.852  32.624  36.003  0.00  0.00    +0.000 A 
ATOM     31  H   UNL     1      52.828  32.847  36.400  0.00  0.00    +0.000 HD
ATOM     32  N   UNL     1      51.755  32.463  34.654  0.00  0.00    +0.000 NA
ATOM     33  C   UNL     1      50.574  32.184  34.080  0.00  0.00    +0.000 A 
ATOM     34  N   UNL     1      49.519  32.073  34.872  0.00  0.00    +0.000 NA
ENDBRANCH  27  28
ENDBRANCH  24  27
ENDBRANCH  22  24
ENDBRANCH   7  22
TORSDOF 7
