
 OpenBabel03252503033D

 32 33  0  0  0  0  0  0  0  0999 V2000
   43.5100   34.1060   40.8520 S   0  0  0  0  0  0  0  0  0  0  0  0
   40.7540   34.0850   40.6630 C   0  0  0  0  0  0  0  0  0  0  0  0
   41.8790   33.3680   41.0040 C   0  0  0  0  0  0  0  0  0  0  0  0
   41.7600   32.0630   41.4670 C   0  0  0  0  0  0  0  0  0  0  0  0
   40.4960   31.5490   41.5630 N   0  0  0  0  0  0  0  0  0  0  0  0
   39.4230   32.2860   41.2200 C   0  0  0  0  0  0  0  0  0  0  0  0
   39.5220   33.5290   40.7770 N   0  0  0  0  0  0  0  0  0  0  0  0
   40.8150   35.1020   40.3000 H   0  0  0  0  0  0  0  0  0  0  0  0
   42.6480   31.5080   41.7310 H   0  0  0  0  0  0  0  0  0  0  0  0
   38.1550   31.7360   41.3280 O   0  0  0  0  0  0  0  0  0  0  0  0
   37.8740   30.4110   41.0630 C   0  0  0  0  0  0  0  0  0  0  0  0
   37.7470   30.1560   39.7040 C   0  0  0  0  0  0  0  0  0  0  0  0
   37.4650   28.8740   39.2550 C   0  0  0  0  0  0  0  0  0  0  0  0
   37.3450   28.5590   38.2340 H   0  0  0  0  0  0  0  0  0  0  0  0
   37.3250   27.9100   40.1960 N   0  0  0  0  0  0  0  0  0  0  0  0
   37.4520   28.1790   41.4960 C   0  0  0  0  0  0  0  0  0  0  0  0
   37.7280   29.4220   41.9820 N   0  0  0  0  0  0  0  0  0  0  0  0
   43.5020   35.7260   41.6140 C   0  0  0  0  0  0  0  0  0  0  0  0
   42.6620   36.3210   41.1970 H   0  0  0  0  0  0  0  0  0  0  0  0
   44.4580   36.2740   41.4840 H   0  0  0  0  0  0  0  0  0  0  0  0
   43.3330   35.5340   43.0520 N   0  0  0  0  0  0  0  0  0  0  0  0
   42.5800   36.2030   43.3880 H   0  0  0  0  0  0  0  0  0  0  0  0
   44.7760   35.8540   43.9200 S   0  0  0  0  0  0  0  0  0  0  0  0
   45.9880   35.3220   43.2290 O   0  0  0  0  0  0  0  0  0  0  0  0
   46.8280   35.7760   42.9940 H   0  0  0  0  0  0  0  0  0  0  0  0
   44.8730   37.3700   44.0240 O   0  0  0  0  0  0  0  0  0  0  0  0
   44.0700   37.9420   44.1180 H   0  0  0  0  0  0  0  0  0  0  0  0
   44.6460   35.2630   45.4740 O   0  0  0  0  0  0  0  0  0  0  0  0
   45.3800   34.1180   45.6640 C   0  0  0  0  0  0  0  0  0  0  0  0
   46.1150   34.3210   46.4900 H   0  0  0  0  0  0  0  0  0  0  0  0
   44.7560   33.2290   45.8730 H   0  0  0  0  0  0  0  0  0  0  0  0
   45.9170   33.8810   44.7170 H   0  0  0  0  0  0  0  0  0  0  0  0
  1  3  1  0  0  0  0
  1 18  1  0  0  0  0
  2  7  2  0  0  0  0
  2  3  1  0  0  0  0
  3  4  2  0  0  0  0
  4  5  1  0  0  0  0
  4  9  1  0  0  0  0
  6 10  1  0  0  0  0
  6  5  2  0  0  0  0
  7  6  1  0  0  0  0
  8  2  1  0  0  0  0
 11 10  1  0  0  0  0
 11 17  1  0  0  0  0
 12 11  2  0  0  0  0
 13 12  1  0  0  0  0
 13 15  2  0  0  0  0
 14 13  1  0  0  0  0
 15 16  1  0  0  0  0
 16 17  2  0  0  0  0
 18 21  1  0  0  0  0
 19 18  1  0  0  0  0
 20 18  1  0  0  0  0
 21 22  1  0  0  0  0
 21 23  1  0  0  0  0
 23 26  1  0  0  0  0
 23 28  1  0  0  0  0
 24 23  1  0  0  0  0
 25 24  1  0  0  0  0
 26 27  1  0  0  0  0
 28 29  1  0  0  0  0
 29 31  1  0  0  0  0
 29 30  1  0  0  0  0
 32 29  1  0  0  0  0
M  END
>  <minimizedAffinity>
-5.11495256

>  <minimizedRMSD>
2.1640985

$$$$
