
     RDKit          3D

 36 38  0  0  0  0  0  0  0  0999 V2000
   45.1363   33.5135   41.1585 F   0  0  0  0  0  0  0  0  0  0  0  0
   46.3305   34.0899   41.0455 C   0  0  0  0  0  0  0  0  0  0  0  0
   46.8290   34.7980   42.1137 C   0  0  0  0  0  0  0  0  0  0  0  0
   48.0755   35.4336   42.0830 C   0  0  0  0  0  0  0  0  0  0  0  0
   48.8515   35.3529   40.9316 C   0  0  0  0  0  0  0  0  0  0  0  0
   48.3119   34.6314   39.8838 C   0  0  0  0  0  0  0  0  0  0  0  0
   47.1041   34.0085   39.8944 C   0  0  0  0  0  0  0  0  0  0  0  0
   45.4573   34.0116   45.4251 C   0  0  0  0  0  0  0  0  0  0  0  0
   44.6155   35.1162   45.6611 C   0  0  0  0  0  0  0  0  0  0  0  0
   44.5180   36.1446   44.6708 C   0  0  0  0  0  0  0  0  0  0  0  0
   45.2660   35.9811   43.5364 N   0  0  0  0  0  0  0  0  0  0  0  0
   46.0540   34.9107   43.3563 C   0  0  0  0  0  0  0  0  0  0  0  0
   46.1421   33.9501   44.2866 N   0  0  0  0  0  0  0  0  0  0  0  0
   45.5260   33.0258   46.4231 N   0  0  0  0  0  0  0  0  0  0  0  0
   46.6652   33.3210   38.7973 O   0  0  0  0  0  0  0  0  0  0  0  0
   48.0820   34.6614   36.9980 O   0  0  0  0  0  0  0  0  0  0  0  0
   47.3367   33.3762   37.2596 P   0  0  2  0  0  0  0  0  0  0  0  0
   46.0642   33.1939   36.1185 O   0  0  0  0  0  0  0  0  0  0  0  0
   48.3751   32.0814   36.9349 O   0  0  0  0  0  0  0  0  0  0  0  0
   48.4202   35.9864   42.9695 H   0  0  0  0  0  0  0  0  0  0  0  0
   49.7952   35.8565   40.9626 H   0  0  0  0  0  0  0  0  0  0  0  0
   49.0198   34.6417   39.0582 H   0  0  0  0  0  0  0  0  0  0  0  0
   44.0141   35.2701   46.5470 H   0  0  0  0  0  0  0  0  0  0  0  0
   43.8977   36.9996   44.7988 H   0  0  0  0  0  0  0  0  0  0  0  0
   46.5219   33.0986   46.7768 H   0  0  0  0  0  0  0  0  0  0  0  0
   44.7820   32.3658   46.7538 H   0  0  0  0  0  0  0  0  0  0  0  0
   45.8711   34.0400   35.6493 H   0  0  0  0  0  0  0  0  0  0  0  0
   49.5531   32.2228   36.2181 C   0  0  0  0  0  0  0  0  0  0  0  0
   50.7477   32.5095   36.8422 C   0  0  0  0  0  0  0  0  0  0  0  0
   51.8524   32.6243   36.0028 C   0  0  0  0  0  0  0  0  0  0  0  0
   52.8277   32.8466   36.4003 H   0  0  0  0  0  0  0  0  0  0  0  0
   51.7555   32.4632   34.6543 N   0  0  0  0  0  0  0  0  0  0  0  0
   50.5738   32.1839   34.0795 C   0  0  0  0  0  0  0  0  0  0  0  0
   49.5190   32.0734   34.8718 N   0  0  0  0  0  0  0  0  0  0  0  0
   50.8098   32.6330   37.8965 H   0  0  0  0  0  0  0  0  0  0  0  0
   50.3785   32.0361   33.0268 H   0  0  0  0  0  0  0  0  0  0  0  0
  2  1  1  0
  2  3  2  0
  3 12  1  0
  4  3  1  0
  5  4  2  0
  6  7  2  0
  6  5  1  0
  7  2  1  0
  8  9  2  0
  8 14  1  0
 10  9  1  0
 11 10  2  0
 12 11  1  0
 12 13  2  0
 13  8  1  0
 15  7  1  0
 16 17  2  0
 17 15  1  1
 18 17  1  0
 19 17  1  0
  4 20  1  0
  5 21  1  0
  6 22  1  0
  9 23  1  0
 10 24  1  0
 14 25  1  0
 14 26  1  0
 18 27  1  0
 28 29  2  0
 29 30  1  0
 30 31  1  0
 30 32  2  0
 32 33  1  0
 33 34  2  0
 34 28  1  0
 29 35  1  0
 33 36  1  0
 19 28  1  0
M  ISO  7  20  14  21  14  22  14  23  14  24  14  27   3  31  14
M  END
>  <DihAtoms>  (1) 
16,18,27,28

>  <DihDeg>  (1) 
-179.86864062490247

$$$$
