REMARK  Name = 
REMARK  3 active torsions:
REMARK  status: ('A' for Active; 'I' for Inactive)
REMARK    1  A    between atoms: C_1  and  C_7
REMARK    2  A    between atoms: C_11  and  C_13
REMARK    3  A    between atoms: N_16  and  C_32
REMARK                            x       y       z     vdW  Elec       q    Type
REMARK                         _______ _______ _______ _____ _____    ______ ____
ROOT
ATOM      1  C   UNL     1      47.873  33.703  42.890  0.00  0.00    +0.000 A 
ATOM      2  C   UNL     1      48.578  34.898  42.715  0.00  0.00    +0.000 A 
ATOM      3  C   UNL     1      49.947  34.861  42.383  0.00  0.00    +0.000 A 
ATOM      4  N   UNL     1      50.504  33.615  42.253  0.00  0.00    +0.000 NA
ATOM      5  C   UNL     1      49.776  32.468  42.433  0.00  0.00    +0.000 A 
ATOM      6  N   UNL     1      48.489  32.530  42.744  0.00  0.00    +0.000 NA
ATOM      7  H   UNL     1      48.227  35.917  42.797  0.00  0.00    +0.000 HD
ATOM      8  H   UNL     1      50.553  35.742  42.234  0.00  0.00    +0.000 HD
ENDROOT
BRANCH   1   9
ATOM      9  C   UNL     1      46.447  33.866  43.240  0.00  0.00    +0.000 C 
ATOM     10  C   UNL     1      45.746  34.865  42.435  0.00  0.00    +0.000 C 
ATOM     11  C   UNL     1      45.333  36.079  43.183  0.00  0.00    +0.000 C 
ATOM     12  C   UNL     1      44.554  35.771  44.456  0.00  0.00    +0.000 C 
ATOM     13  C   UNL     1      44.983  34.516  45.153  0.00  0.00    +0.000 C 
ATOM     14  C   UNL     1      46.406  34.151  44.752  0.00  0.00    +0.000 C 
ATOM     15  H   UNL     1      45.978  32.850  43.158  0.00  0.00    +0.000 HD
ATOM     16  H   UNL     1      44.807  34.411  42.011  0.00  0.00    +0.000 HD
ATOM     17  H   UNL     1      46.367  35.173  41.594  0.00  0.00    +0.000 HD
ATOM     18  H   UNL     1      44.577  36.608  42.530  0.00  0.00    +0.000 HD
ATOM     19  H   UNL     1      46.095  36.828  43.386  0.00  0.00    +0.000 HD
ATOM     20  H   UNL     1      43.453  35.752  44.287  0.00  0.00    +0.000 HD
ATOM     21  H   UNL     1      44.719  36.607  45.185  0.00  0.00    +0.000 HD
ATOM     22  H   UNL     1      44.948  34.566  46.241  0.00  0.00    +0.000 HD
ATOM     23  H   UNL     1      44.353  33.681  44.729  0.00  0.00    +0.000 HD
ATOM     24  H   UNL     1      47.046  35.041  44.985  0.00  0.00    +0.000 HD
ATOM     25  H   UNL     1      46.718  33.261  45.309  0.00  0.00    +0.000 HD
ENDBRANCH   1   9
BRANCH   5  26
ATOM     26  C   UNL     1      50.525  31.231  42.265  0.00  0.00    +0.000 A 
ATOM     27  N   UNL     1      51.576  31.250  41.417  0.00  0.00    +0.000 NA
ATOM     28  C   UNL     1      52.152  30.035  41.384  0.00  0.00    +0.000 A 
ATOM     29  N   UNL     1      51.439  29.253  42.230  0.00  0.00    +0.000 N 
ATOM     30  N   UNL     1      50.442  29.978  42.772  0.00  0.00    +0.000 NA
ATOM     31  H   UNL     1      53.022  29.694  40.809  0.00  0.00    +0.000 HD
BRANCH  29  32
ATOM     32  C   UNL     1      51.641  27.881  42.552  0.00  0.00    +0.000 A 
ATOM     33  C   UNL     1      52.897  27.419  42.893  0.00  0.00    +0.000 A 
ATOM     34  C   UNL     1      53.209  26.120  43.221  0.00  0.00    +0.000 A 
ATOM     35  H   UNL     1      54.257  25.907  43.470  0.00  0.00    +0.000 HD
ATOM     36  N   UNL     1      52.200  25.233  43.206  0.00  0.00    +0.000 NA
ATOM     37  C   UNL     1      50.956  25.656  42.875  0.00  0.00    +0.000 A 
ATOM     38  N   UNL     1      50.674  26.944  42.555  0.00  0.00    +0.000 NA
ENDBRANCH  29  32
ENDBRANCH   5  26
TORSDOF 3
