
 OpenBabel03252509073D

 39 42  0  0  0  0  0  0  0  0999 V2000
   47.8910   31.8820   38.8650 C   0  0  0  0  0  0  0  0  0  0  0  0
   47.2960   33.1010   38.7140 C   0  0  0  0  0  0  0  0  0  0  0  0
   47.9520   34.1080   38.0260 C   0  0  0  0  0  0  0  0  0  0  0  0
   49.1990   33.8850   37.4930 C   0  0  0  0  0  0  0  0  0  0  0  0
   49.8420   32.6550   37.6240 C   0  0  0  0  0  0  0  0  0  0  0  0
   49.1580   31.6530   38.3250 C   0  0  0  0  0  0  0  0  0  0  0  0
   47.5190   35.0850   37.8840 H   0  0  0  0  0  0  0  0  0  0  0  0
   49.8000   34.5900   36.9430 H   0  0  0  0  0  0  0  0  0  0  0  0
   50.8010   32.4040   37.2440 H   0  0  0  0  0  0  0  0  0  0  0  0
   49.6290   30.6750   38.4490 H   0  0  0  0  0  0  0  0  0  0  0  0
   42.3300   34.2110   37.8450 Cl  0  0  0  0  0  0  0  0  0  0  0  0
   43.7210   33.9470   38.8670 C   0  0  0  0  0  0  0  0  0  0  0  0
   44.9270   33.6160   38.3400 C   0  0  0  0  0  0  0  0  0  0  0  0
   45.9740   33.4420   39.2350 C   0  0  0  0  0  0  0  0  0  0  0  0
   45.8070   33.5930   40.5900 C   0  0  0  0  0  0  0  0  0  0  0  0
   44.5920   33.9240   41.0970 C   0  0  0  0  0  0  0  0  0  0  0  0
   43.5480   34.1000   40.2230 C   0  0  0  0  0  0  0  0  0  0  0  0
   46.6500   33.4480   41.2620 H   0  0  0  0  0  0  0  0  0  0  0  0
   44.4990   34.0330   42.1690 H   0  0  0  0  0  0  0  0  0  0  0  0
   42.5900   34.3650   40.6740 H   0  0  0  0  0  0  0  0  0  0  0  0
   44.8940   32.1940   34.8440 C   0  0  0  0  0  0  0  0  0  0  0  0
   44.7620   32.3130   36.2350 C   0  0  0  0  0  0  0  0  0  0  0  0
   45.0590   33.4810   36.9030 C   0  0  0  0  0  0  0  0  0  0  0  0
   45.4850   34.4970   36.1050 N   0  0  0  0  0  0  0  0  0  0  0  0
   45.6120   34.3930   34.7820 C   0  0  0  0  0  0  0  0  0  0  0  0
   45.3180   33.2490   34.1620 N   0  0  0  0  0  0  0  0  0  0  0  0
   44.6290   31.2300   34.4490 H   0  0  0  0  0  0  0  0  0  0  0  0
   44.4210   31.4820   36.8320 H   0  0  0  0  0  0  0  0  0  0  0  0
   45.9570   35.2450   34.2140 H   0  0  0  0  0  0  0  0  0  0  0  0
   47.1090   30.6210   39.6570 S   0  0  0  0  0  0  0  0  0  0  0  0
   45.6960   30.4320   39.1430 O   0  0  0  0  0  0  0  0  0  0  0  0
   47.8370   29.3310   39.1390 O   0  0  0  0  0  0  0  0  0  0  0  0
   46.9730   30.4310   41.3550 C   0  0  0  0  0  0  0  0  0  0  0  0
   46.3620   29.2400   41.8420 C   0  0  0  0  0  3  0  0  0  0  0  0
   46.1160   28.8070   43.1510 C   0  0  0  0  0  0  0  0  0  0  0  0
   45.6360   27.8660   43.3450 H   0  0  0  0  0  0  0  0  0  0  0  0
   46.5500   29.7020   44.0530 N   0  0  0  0  0  0  0  0  0  0  0  0
   47.1380   30.8500   43.6970 C   0  0  0  0  0  3  0  0  0  0  0  0
   47.3210   31.1630   42.4240 N   0  0  0  0  0  0  0  0  0  0  0  0
  1 30  1  0  0  0  0
  2  1  1  0  0  0  0
  2 14  1  0  0  0  0
  3  2  2  0  0  0  0
  4  5  2  0  0  0  0
  4  3  1  0  0  0  0
  5  6  1  0  0  0  0
  6 10  1  0  0  0  0
  6  1  2  0  0  0  0
  7  3  1  0  0  0  0
  8  4  1  0  0  0  0
  9  5  1  0  0  0  0
 11 12  1  0  0  0  0
 12 17  1  0  0  0  0
 13 12  2  0  0  0  0
 13 14  1  0  0  0  0
 14 15  2  0  0  0  0
 15 16  1  0  0  0  0
 15 18  1  0  0  0  0
 16 19  1  0  0  0  0
 17 20  1  0  0  0  0
 17 16  2  0  0  0  0
 21 22  1  0  0  0  0
 22 28  1  0  0  0  0
 22 23  2  0  0  0  0
 23 13  1  0  0  0  0
 24 23  1  0  0  0  0
 25 24  2  0  0  0  0
 26 25  1  0  0  0  0
 26 21  2  0  0  0  0
 27 21  1  0  0  0  0
 29 25  1  0  0  0  0
 30 33  1  0  0  0  0
 31 30  2  0  0  0  0
 32 30  2  0  0  0  0
 33 34  2  0  0  0  0
 33 39  1  0  0  0  0
 34 35  1  0  0  0  0
 35 36  1  0  0  0  0
 35 37  2  0  0  0  0
 38 37  1  0  0  0  0
 39 38  2  0  0  0  0
M  END
>  <minimizedAffinity>
3.61023021

>  <minimizedRMSD>
4.27563429

$$$$
