
 OpenBabel03252509083D

 39 42  0  0  0  0  0  0  0  0999 V2000
   47.7570   31.8690   38.9920 C   0  0  0  0  0  0  0  0  0  0  0  0
   47.2120   33.1160   38.8990 C   0  0  0  0  0  0  0  0  0  0  0  0
   47.7610   34.0470   38.0330 C   0  0  0  0  0  0  0  0  0  0  0  0
   48.8540   33.7180   37.2650 C   0  0  0  0  0  0  0  0  0  0  0  0
   49.4410   32.4550   37.3290 C   0  0  0  0  0  0  0  0  0  0  0  0
   48.8660   31.5330   38.2140 C   0  0  0  0  0  0  0  0  0  0  0  0
   47.3630   35.0430   37.9280 H   0  0  0  0  0  0  0  0  0  0  0  0
   49.3620   34.3560   36.5620 H   0  0  0  0  0  0  0  0  0  0  0  0
   50.2810   32.1250   36.7720 H   0  0  0  0  0  0  0  0  0  0  0  0
   49.2970   30.5320   38.2930 H   0  0  0  0  0  0  0  0  0  0  0  0
   45.2740   35.3280   43.1420 Cl  0  0  0  0  0  0  0  0  0  0  0  0
   45.1500   34.5670   41.5760 C   0  0  0  0  0  0  0  0  0  0  0  0
   46.2570   34.1770   40.8950 C   0  0  0  0  0  0  0  0  0  0  0  0
   46.0510   33.5670   39.6640 C   0  0  0  0  0  0  0  0  0  0  0  0
   44.7920   33.3660   39.1520 C   0  0  0  0  0  0  0  0  0  0  0  0
   43.6980   33.7630   39.8490 C   0  0  0  0  0  0  0  0  0  0  0  0
   43.8870   34.3660   41.0680 C   0  0  0  0  0  0  0  0  0  0  0  0
   44.6700   32.8850   38.1840 H   0  0  0  0  0  0  0  0  0  0  0  0
   42.7240   33.5870   39.4140 H   0  0  0  0  0  0  0  0  0  0  0  0
   42.9800   34.6700   41.5950 H   0  0  0  0  0  0  0  0  0  0  0  0
   49.5510   35.7550   41.8440 C   0  0  0  0  0  0  0  0  0  0  0  0
   48.2870   35.5520   41.2720 C   0  0  0  0  0  0  0  0  0  0  0  0
   47.5640   34.3990   41.4810 C   0  0  0  0  0  0  0  0  0  0  0  0
   48.1740   33.4850   42.2810 N   0  0  0  0  0  0  0  0  0  0  0  0
   49.3750   33.6700   42.8310 C   0  0  0  0  0  0  0  0  0  0  0  0
   50.0530   34.7970   42.6100 N   0  0  0  0  0  0  0  0  0  0  0  0
   50.0080   36.6980   41.6020 H   0  0  0  0  0  0  0  0  0  0  0  0
   47.8370   36.3040   40.6410 H   0  0  0  0  0  0  0  0  0  0  0  0
   49.7970   32.8970   43.4570 H   0  0  0  0  0  0  0  0  0  0  0  0
   47.0910   30.6990   40.0010 S   0  0  0  0  0  0  0  0  0  0  0  0
   47.5300   29.3040   39.6010 O   0  0  0  0  0  0  0  0  0  0  0  0
   47.8280   30.9090   41.3710 O   0  0  0  0  0  0  0  0  0  0  0  0
   45.4300   30.5290   40.3850 C   0  0  0  0  0  0  0  0  0  0  0  0
   45.0260   30.8020   41.7230 C   0  0  0  0  0  3  0  0  0  0  0  0
   43.7630   30.7540   42.3250 C   0  0  0  0  0  0  0  0  0  0  0  0
   43.6330   30.9940   43.3640 H   0  0  0  0  0  0  0  0  0  0  0  0
   42.8160   30.3850   41.4500 N   0  0  0  0  0  0  0  0  0  0  0  0
   43.0920   30.1050   40.1700 C   0  0  0  0  0  3  0  0  0  0  0  0
   44.3280   30.1830   39.7020 N   0  0  0  0  0  0  0  0  0  0  0  0
  1 30  1  0  0  0  0
  2  1  1  0  0  0  0
  2 14  1  0  0  0  0
  3  2  2  0  0  0  0
  4  5  2  0  0  0  0
  4  3  1  0  0  0  0
  5  6  1  0  0  0  0
  6 10  1  0  0  0  0
  6  1  2  0  0  0  0
  7  3  1  0  0  0  0
  8  4  1  0  0  0  0
  9  5  1  0  0  0  0
 12 11  1  0  0  0  0
 13 23  1  0  0  0  0
 13 12  2  0  0  0  0
 14 13  1  0  0  0  0
 15 14  2  0  0  0  0
 15 16  1  0  0  0  0
 16 17  2  0  0  0  0
 17 12  1  0  0  0  0
 17 20  1  0  0  0  0
 18 15  1  0  0  0  0
 19 16  1  0  0  0  0
 21 26  1  0  0  0  0
 22 23  1  0  0  0  0
 22 21  2  0  0  0  0
 23 24  2  0  0  0  0
 24 25  1  0  0  0  0
 25 29  1  0  0  0  0
 26 25  2  0  0  0  0
 27 21  1  0  0  0  0
 28 22  1  0  0  0  0
 30 33  1  0  0  0  0
 30 32  2  0  0  0  0
 31 30  2  0  0  0  0
 33 34  1  0  0  0  0
 34 35  2  0  0  0  0
 35 36  1  0  0  0  0
 37 35  1  0  0  0  0
 38 37  2  0  0  0  0
 39 38  1  0  0  0  0
 39 33  2  0  0  0  0
M  END
>  <minimizedAffinity>
-4.64000654

>  <minimizedRMSD>
0.907312691

$$$$
