
 OpenBabel03252509073D

 39 42  0  0  0  0  0  0  0  0999 V2000
   47.5450   31.7690   38.9330 C   0  0  0  0  0  0  0  0  0  0  0  0
   47.1460   33.0730   38.9580 C   0  0  0  0  0  0  0  0  0  0  0  0
   47.8240   34.0170   38.2040 C   0  0  0  0  0  0  0  0  0  0  0  0
   48.8980   33.6430   37.4300 C   0  0  0  0  0  0  0  0  0  0  0  0
   49.3380   32.3220   37.3760 C   0  0  0  0  0  0  0  0  0  0  0  0
   48.6350   31.3870   38.1480 C   0  0  0  0  0  0  0  0  0  0  0  0
   47.5440   35.0570   38.1940 H   0  0  0  0  0  0  0  0  0  0  0  0
   49.4970   34.2860   36.8070 H   0  0  0  0  0  0  0  0  0  0  0  0
   50.1540   31.9550   36.8060 H   0  0  0  0  0  0  0  0  0  0  0  0
   48.9490   30.3410   38.1340 H   0  0  0  0  0  0  0  0  0  0  0  0
   45.3780   35.4230   43.2000 Cl  0  0  0  0  0  0  0  0  0  0  0  0
   45.1940   34.6390   41.6520 C   0  0  0  0  0  0  0  0  0  0  0  0
   46.2720   34.2010   40.9530 C   0  0  0  0  0  0  0  0  0  0  0  0
   46.0180   33.5760   39.7400 C   0  0  0  0  0  0  0  0  0  0  0  0
   44.7420   33.4060   39.2600 C   0  0  0  0  0  0  0  0  0  0  0  0
   43.6780   33.8510   39.9740 C   0  0  0  0  0  0  0  0  0  0  0  0
   43.9140   34.4700   41.1770 C   0  0  0  0  0  0  0  0  0  0  0  0
   44.5820   32.9120   38.3040 H   0  0  0  0  0  0  0  0  0  0  0  0
   42.6880   33.6990   39.5640 H   0  0  0  0  0  0  0  0  0  0  0  0
   43.0290   34.8120   41.7170 H   0  0  0  0  0  0  0  0  0  0  0  0
   49.5770   35.7440   41.9190 C   0  0  0  0  0  0  0  0  0  0  0  0
   48.2940   35.5730   41.3810 C   0  0  0  0  0  0  0  0  0  0  0  0
   47.5980   34.3910   41.5060 C   0  0  0  0  0  0  0  0  0  0  0  0
   48.2560   33.4160   42.1890 N   0  0  0  0  0  0  0  0  0  0  0  0
   49.4760   33.5710   42.7050 C   0  0  0  0  0  0  0  0  0  0  0  0
   50.1260   34.7270   42.5680 N   0  0  0  0  0  0  0  0  0  0  0  0
   50.0090   36.7150   41.7510 H   0  0  0  0  0  0  0  0  0  0  0  0
   47.8070   36.3720   40.8440 H   0  0  0  0  0  0  0  0  0  0  0  0
   49.9350   32.7490   43.2360 H   0  0  0  0  0  0  0  0  0  0  0  0
   46.7200   30.5880   39.8020 S   0  0  0  0  0  0  0  0  0  0  0  0
   45.4330   30.1860   39.1110 O   0  0  0  0  0  0  0  0  0  0  0  0
   47.6090   29.3040   39.6440 O   0  0  0  0  0  0  0  0  0  0  0  0
   46.3050   30.6670   41.4630 C   0  0  0  0  0  0  0  0  0  0  0  0
   47.2690   30.2180   42.4100 C   0  0  0  0  0  3  0  0  0  0  0  0
   47.2210   30.1640   43.8080 C   0  0  0  0  0  0  0  0  0  0  0  0
   48.0510   29.7900   44.3790 H   0  0  0  0  0  0  0  0  0  0  0  0
   46.0520   30.6250   44.2770 N   0  0  0  0  0  0  0  0  0  0  0  0
   45.0810   31.0690   43.4700 C   0  0  0  0  0  3  0  0  0  0  0  0
   45.2310   31.0760   42.1550 N   0  0  0  0  0  0  0  0  0  0  0  0
  1  2  1  0  0  0  0
  1 30  1  0  0  0  0
  2 14  1  0  0  0  0
  3  2  2  0  0  0  0
  4  3  1  0  0  0  0
  5  4  2  0  0  0  0
  5  6  1  0  0  0  0
  6  1  2  0  0  0  0
  7  3  1  0  0  0  0
  8  4  1  0  0  0  0
  9  5  1  0  0  0  0
 10  6  1  0  0  0  0
 12 11  1  0  0  0  0
 13 23  1  0  0  0  0
 13 12  2  0  0  0  0
 14 13  1  0  0  0  0
 15 14  2  0  0  0  0
 15 16  1  0  0  0  0
 16 17  2  0  0  0  0
 17 12  1  0  0  0  0
 17 20  1  0  0  0  0
 18 15  1  0  0  0  0
 19 16  1  0  0  0  0
 21 26  1  0  0  0  0
 22 23  1  0  0  0  0
 22 21  2  0  0  0  0
 23 24  2  0  0  0  0
 24 25  1  0  0  0  0
 25 29  1  0  0  0  0
 26 25  2  0  0  0  0
 27 21  1  0  0  0  0
 28 22  1  0  0  0  0
 30 33  1  0  0  0  0
 31 30  2  0  0  0  0
 32 30  2  0  0  0  0
 33 39  2  0  0  0  0
 33 34  1  0  0  0  0
 34 35  2  0  0  0  0
 35 37  1  0  0  0  0
 35 36  1  0  0  0  0
 38 37  2  0  0  0  0
 39 38  1  0  0  0  0
M  END
>  <minimizedAffinity>
-4.75717878

>  <minimizedRMSD>
1.12686229

$$$$
