
 OpenBabel03252509083D

 39 42  0  0  0  0  0  0  0  0999 V2000
   47.5630   31.8120   38.8040 C   0  0  0  0  0  0  0  0  0  0  0  0
   47.1630   33.1140   38.8840 C   0  0  0  0  0  0  0  0  0  0  0  0
   47.8350   34.0880   38.1640 C   0  0  0  0  0  0  0  0  0  0  0  0
   48.9040   33.7480   37.3690 C   0  0  0  0  0  0  0  0  0  0  0  0
   49.3450   32.4300   37.2590 C   0  0  0  0  0  0  0  0  0  0  0  0
   48.6490   31.4640   37.9970 C   0  0  0  0  0  0  0  0  0  0  0  0
   47.5530   35.1270   38.1980 H   0  0  0  0  0  0  0  0  0  0  0  0
   49.4980   34.4170   36.7690 H   0  0  0  0  0  0  0  0  0  0  0  0
   50.1580   32.0880   36.6690 H   0  0  0  0  0  0  0  0  0  0  0  0
   48.9640   30.4200   37.9380 H   0  0  0  0  0  0  0  0  0  0  0  0
   45.4220   35.2940   43.2270 Cl  0  0  0  0  0  0  0  0  0  0  0  0
   45.2270   34.5690   41.6510 C   0  0  0  0  0  0  0  0  0  0  0  0
   46.3010   34.1610   40.9280 C   0  0  0  0  0  0  0  0  0  0  0  0
   46.0400   33.5820   39.6930 C   0  0  0  0  0  0  0  0  0  0  0  0
   44.7610   33.4270   39.2170 C   0  0  0  0  0  0  0  0  0  0  0  0
   43.7000   33.8400   39.9560 C   0  0  0  0  0  0  0  0  0  0  0  0
   43.9450   34.4140   41.1800 C   0  0  0  0  0  0  0  0  0  0  0  0
   44.5950   32.9690   38.2440 H   0  0  0  0  0  0  0  0  0  0  0  0
   42.7090   33.7010   39.5480 H   0  0  0  0  0  0  0  0  0  0  0  0
   43.0630   34.7320   41.7400 H   0  0  0  0  0  0  0  0  0  0  0  0
   49.5960   35.6870   41.9550 C   0  0  0  0  0  0  0  0  0  0  0  0
   48.3100   35.5320   41.4210 C   0  0  0  0  0  0  0  0  0  0  0  0
   47.6310   34.3350   41.4770 C   0  0  0  0  0  0  0  0  0  0  0  0
   48.3100   33.3270   42.0880 N   0  0  0  0  0  0  0  0  0  0  0  0
   49.5340   33.4660   42.6000 C   0  0  0  0  0  0  0  0  0  0  0  0
   50.1670   34.6380   42.5310 N   0  0  0  0  0  0  0  0  0  0  0  0
   50.0120   36.6730   41.8460 H   0  0  0  0  0  0  0  0  0  0  0  0
   47.8050   36.3570   40.9430 H   0  0  0  0  0  0  0  0  0  0  0  0
   50.0110   32.6190   43.0720 H   0  0  0  0  0  0  0  0  0  0  0  0
   46.7460   30.5950   39.6290 S   0  0  0  0  0  0  0  0  0  0  0  0
   45.3880   30.3220   39.0150 O   0  0  0  0  0  0  0  0  0  0  0  0
   47.5480   29.2910   39.2830 O   0  0  0  0  0  0  0  0  0  0  0  0
   46.4690   30.5380   41.3200 C   0  0  0  0  0  0  0  0  0  0  0  0
   45.1500   30.8110   41.7840 C   0  0  0  0  0  3  0  0  0  0  0  0
   44.6250   30.8370   43.0830 C   0  0  0  0  0  0  0  0  0  0  0  0
   43.5910   31.0650   43.2590 H   0  0  0  0  0  0  0  0  0  0  0  0
   45.5640   30.5520   43.9970 N   0  0  0  0  0  0  0  0  0  0  0  0
   46.8320   30.2810   43.6630 C   0  0  0  0  0  3  0  0  0  0  0  0
   47.2240   30.2840   42.3990 N   0  0  0  0  0  0  0  0  0  0  0  0
  1  2  1  0  0  0  0
  1 30  1  0  0  0  0
  2 14  1  0  0  0  0
  3  7  1  0  0  0  0
  3  2  2  0  0  0  0
  4  3  1  0  0  0  0
  5  4  2  0  0  0  0
  5  6  1  0  0  0  0
  6  1  2  0  0  0  0
  8  4  1  0  0  0  0
  9  5  1  0  0  0  0
 10  6  1  0  0  0  0
 12 11  1  0  0  0  0
 13 23  1  0  0  0  0
 13 12  2  0  0  0  0
 14 13  1  0  0  0  0
 15 14  2  0  0  0  0
 15 16  1  0  0  0  0
 16 17  2  0  0  0  0
 17 12  1  0  0  0  0
 17 20  1  0  0  0  0
 18 15  1  0  0  0  0
 19 16  1  0  0  0  0
 21 26  1  0  0  0  0
 22 23  1  0  0  0  0
 22 21  2  0  0  0  0
 23 24  2  0  0  0  0
 24 25  1  0  0  0  0
 25 29  1  0  0  0  0
 26 25  2  0  0  0  0
 27 21  1  0  0  0  0
 28 22  1  0  0  0  0
 30 33  1  0  0  0  0
 31 30  2  0  0  0  0
 32 30  2  0  0  0  0
 33 34  2  0  0  0  0
 33 39  1  0  0  0  0
 34 35  1  0  0  0  0
 35 36  1  0  0  0  0
 35 37  2  0  0  0  0
 38 37  1  0  0  0  0
 39 38  2  0  0  0  0
M  END
>  <minimizedAffinity>
-4.74796486

>  <minimizedRMSD>
1.07530594

$$$$
