
 OpenBabel03252503043D

 32 33  0  0  0  0  0  0  0  0999 V2000
   38.9570   32.9400   39.8470 S   0  0  0  0  0  0  0  0  0  0  0  0
   39.5880   31.1200   41.8260 C   0  0  0  0  0  0  0  0  0  0  0  0
   38.6160   31.5760   40.9650 C   0  0  0  0  0  0  0  0  0  0  0  0
   37.3590   30.9820   40.9550 C   0  0  0  0  0  0  0  0  0  0  0  0
   37.1520   29.9470   41.8260 N   0  0  0  0  0  0  0  0  0  0  0  0
   38.1320   29.5330   42.6510 C   0  0  0  0  0  0  0  0  0  0  0  0
   39.3320   30.0900   42.6710 N   0  0  0  0  0  0  0  0  0  0  0  0
   40.5750   31.5620   41.8570 H   0  0  0  0  0  0  0  0  0  0  0  0
   36.6030   31.3460   40.2760 H   0  0  0  0  0  0  0  0  0  0  0  0
   37.8900   28.4820   43.5230 O   0  0  0  0  0  0  0  0  0  0  0  0
   38.4040   27.2130   43.3460 C   0  0  0  0  0  0  0  0  0  0  0  0
   37.5940   26.4170   42.5470 C   0  0  0  0  0  3  0  0  0  0  0  0
   37.9580   25.1090   42.2640 C   0  0  0  0  0  0  0  0  0  0  0  0
   37.4140   24.4030   41.6620 H   0  0  0  0  0  0  0  0  0  0  0  0
   39.1210   24.6650   42.7980 N   0  0  0  0  0  0  0  0  0  0  0  0
   39.8820   25.4480   43.5630 C   0  0  0  0  0  3  0  0  0  0  0  0
   39.5640   26.7380   43.8670 N   0  0  0  0  0  0  0  0  0  0  0  0
   40.6810   33.4020   39.9820 C   0  0  0  0  0  0  0  0  0  0  0  0
   41.3010   32.4840   40.0400 H   0  0  0  0  0  0  0  0  0  0  0  0
   40.8890   34.0590   40.8520 H   0  0  0  0  0  0  0  0  0  0  0  0
   41.0210   34.1800   38.7930 N   0  0  0  0  0  0  0  0  0  0  0  0
   40.1350   34.6480   38.4410 H   0  0  0  0  0  0  0  0  0  0  0  0
   41.6570   33.1990   37.5400 S   0  0  0  0  0  0  0  0  0  0  0  0
   40.5890   32.5350   36.7360 O   0  0  0  0  0  0  0  0  0  0  0  0
   40.4550   32.5160   35.7620 H   0  0  0  0  0  0  0  0  0  0  0  0
   42.4620   34.1330   36.6470 O   0  0  0  0  0  0  0  0  0  0  0  0
   42.9650   34.9040   37.0120 H   0  0  0  0  0  0  0  0  0  0  0  0
   42.7260   32.0880   38.1780 O   0  0  0  0  0  0  0  0  0  0  0  0
   42.4440   30.8020   37.7850 C   0  0  0  0  0  0  0  0  0  0  0  0
   43.3500   30.4060   37.2520 H   0  0  0  0  0  0  0  0  0  0  0  0
   42.1360   30.1480   38.6230 H   0  0  0  0  0  0  0  0  0  0  0  0
   41.5680   30.8270   37.0980 H   0  0  0  0  0  0  0  0  0  0  0  0
  1 18  1  0  0  0  0
  1  3  1  0  0  0  0
  2  8  1  0  0  0  0
  2  7  1  0  0  0  0
  3  2  2  0  0  0  0
  4  3  1  0  0  0  0
  4  5  2  0  0  0  0
  5  6  1  0  0  0  0
  6  7  2  0  0  0  0
  6 10  1  0  0  0  0
  9  4  1  0  0  0  0
 11 10  1  0  0  0  0
 11 17  1  0  0  0  0
 12 11  2  0  0  0  0
 13 12  1  0  0  0  0
 13 15  2  0  0  0  0
 14 13  1  0  0  0  0
 15 16  1  0  0  0  0
 16 17  2  0  0  0  0
 18 19  1  0  0  0  0
 18 20  1  0  0  0  0
 21 18  1  0  0  0  0
 22 21  1  0  0  0  0
 23 28  1  0  0  0  0
 23 21  1  0  0  0  0
 24 23  1  0  0  0  0
 25 24  1  0  0  0  0
 26 27  1  0  0  0  0
 26 23  1  0  0  0  0
 29 28  1  0  0  0  0
 29 31  1  0  0  0  0
 30 29  1  0  0  0  0
 32 29  1  0  0  0  0
M  END
>  <minimizedAffinity>
-5.43975258

$$$$

 OpenBabel03252503043D

 32 33  0  0  0  0  0  0  0  0999 V2000
   38.8490   33.0370   40.0740 S   0  0  0  0  0  0  0  0  0  0  0  0
   37.3110   30.9370   40.9970 C   0  0  0  0  0  0  0  0  0  0  0  0
   38.5050   31.6120   41.1130 C   0  0  0  0  0  0  0  0  0  0  0  0
   39.4560   31.1940   42.0350 C   0  0  0  0  0  0  0  0  0  0  0  0
   39.1440   30.1040   42.8020 N   0  0  0  0  0  0  0  0  0  0  0  0
   37.9630   29.4730   42.6560 C   0  0  0  0  0  0  0  0  0  0  0  0
   37.0490   29.8610   41.7810 N   0  0  0  0  0  0  0  0  0  0  0  0
   36.5510   31.2390   40.2880 H   0  0  0  0  0  0  0  0  0  0  0  0
   40.3900   31.7300   42.1190 H   0  0  0  0  0  0  0  0  0  0  0  0
   37.6770   28.3710   43.4470 O   0  0  0  0  0  0  0  0  0  0  0  0
   38.2950   27.1460   43.2980 C   0  0  0  0  0  0  0  0  0  0  0  0
   37.5810   26.2860   42.4730 C   0  0  0  0  0  3  0  0  0  0  0  0
   38.0580   25.0100   42.2120 C   0  0  0  0  0  0  0  0  0  0  0  0
   37.5950   24.2620   41.5940 H   0  0  0  0  0  0  0  0  0  0  0  0
   39.2300   24.6600   42.7940 N   0  0  0  0  0  0  0  0  0  0  0  0
   39.8970   25.5030   43.5830 C   0  0  0  0  0  3  0  0  0  0  0  0
   39.4670   26.7650   43.8670 N   0  0  0  0  0  0  0  0  0  0  0  0
   40.6170   33.3000   39.9910 C   0  0  0  0  0  0  0  0  0  0  0  0
   41.1300   32.3170   39.9420 H   0  0  0  0  0  0  0  0  0  0  0  0
   41.0100   33.8930   40.8430 H   0  0  0  0  0  0  0  0  0  0  0  0
   40.8890   34.0830   38.7880 N   0  0  0  0  0  0  0  0  0  0  0  0
   39.9610   34.4320   38.4060 H   0  0  0  0  0  0  0  0  0  0  0  0
   41.6670   33.1550   37.5760 S   0  0  0  0  0  0  0  0  0  0  0  0
   40.7070   32.3350   36.7800 O   0  0  0  0  0  0  0  0  0  0  0  0
   40.5930   32.2710   35.8050 H   0  0  0  0  0  0  0  0  0  0  0  0
   42.3610   34.1580   36.6640 O   0  0  0  0  0  0  0  0  0  0  0  0
   42.7540   34.9980   37.0100 H   0  0  0  0  0  0  0  0  0  0  0  0
   42.8590   32.2110   38.2630 O   0  0  0  0  0  0  0  0  0  0  0  0
   44.0260   32.9060   38.4670 C   0  0  0  0  0  0  0  0  0  0  0  0
   44.2550   32.8640   39.5660 H   0  0  0  0  0  0  0  0  0  0  0  0
   44.8680   32.5350   37.8530 H   0  0  0  0  0  0  0  0  0  0  0  0
   43.8720   33.9600   38.1420 H   0  0  0  0  0  0  0  0  0  0  0  0
  1  3  1  0  0  0  0
  2  3  2  0  0  0  0
  2  7  1  0  0  0  0
  3  4  1  0  0  0  0
  4  9  1  0  0  0  0
  4  5  2  0  0  0  0
  6  5  1  0  0  0  0
  6 10  1  0  0  0  0
  7  6  2  0  0  0  0
  8  2  1  0  0  0  0
 11 10  1  0  0  0  0
 11 17  1  0  0  0  0
 12 11  2  0  0  0  0
 13 12  1  0  0  0  0
 13 15  2  0  0  0  0
 14 13  1  0  0  0  0
 15 16  1  0  0  0  0
 16 17  2  0  0  0  0
 18  1  1  0  0  0  0
 18 20  1  0  0  0  0
 19 18  1  0  0  0  0
 21 18  1  0  0  0  0
 22 21  1  0  0  0  0
 23 28  1  0  0  0  0
 23 21  1  0  0  0  0
 24 23  1  0  0  0  0
 25 24  1  0  0  0  0
 26 27  1  0  0  0  0
 26 23  1  0  0  0  0
 28 29  1  0  0  0  0
 29 30  1  0  0  0  0
 31 29  1  0  0  0  0
 32 29  1  0  0  0  0
M  END
>  <minimizedAffinity>
-5.42523956

$$$$

 OpenBabel03252503043D

 32 33  0  0  0  0  0  0  0  0999 V2000
   41.1570   31.9800   39.9070 S   0  0  0  0  0  0  0  0  0  0  0  0
   39.8720   29.5670   40.3020 C   0  0  0  0  0  0  0  0  0  0  0  0
   40.2260   30.7750   40.8600 C   0  0  0  0  0  0  0  0  0  0  0  0
   39.8650   31.0700   42.1700 C   0  0  0  0  0  0  0  0  0  0  0  0
   39.1560   30.1180   42.8500 N   0  0  0  0  0  0  0  0  0  0  0  0
   38.8310   28.9500   42.2650 C   0  0  0  0  0  0  0  0  0  0  0  0
   39.1690   28.6560   41.0200 N   0  0  0  0  0  0  0  0  0  0  0  0
   40.1380   29.3090   39.2850 H   0  0  0  0  0  0  0  0  0  0  0  0
   40.1470   32.0200   42.5990 H   0  0  0  0  0  0  0  0  0  0  0  0
   38.1130   28.0050   42.9820 O   0  0  0  0  0  0  0  0  0  0  0  0
   38.2490   26.6440   42.7970 C   0  0  0  0  0  0  0  0  0  0  0  0
   37.0910   26.0550   42.3070 C   0  0  0  0  0  3  0  0  0  0  0  0
   37.0490   24.6910   42.0600 C   0  0  0  0  0  0  0  0  0  0  0  0
   36.2140   24.1280   41.6840 H   0  0  0  0  0  0  0  0  0  0  0  0
   38.1750   23.9840   42.3200 N   0  0  0  0  0  0  0  0  0  0  0  0
   39.2760   24.5720   42.7910 C   0  0  0  0  0  3  0  0  0  0  0  0
   39.3620   25.9080   43.0470 N   0  0  0  0  0  0  0  0  0  0  0  0
   40.0510   32.8370   38.7900 C   0  0  0  0  0  0  0  0  0  0  0  0
   39.4890   32.0910   38.1910 H   0  0  0  0  0  0  0  0  0  0  0  0
   40.5760   33.5490   38.1190 H   0  0  0  0  0  0  0  0  0  0  0  0
   39.1400   33.6380   39.6030 N   0  0  0  0  0  0  0  0  0  0  0  0
   39.4230   33.5270   40.6210 H   0  0  0  0  0  0  0  0  0  0  0  0
   37.5100   33.1370   39.4290 S   0  0  0  0  0  0  0  0  0  0  0  0
   36.9620   32.5310   40.6780 O   0  0  0  0  0  0  0  0  0  0  0  0
   36.1370   32.7420   41.1700 H   0  0  0  0  0  0  0  0  0  0  0  0
   36.7220   34.3930   39.0830 O   0  0  0  0  0  0  0  0  0  0  0  0
   37.1070   35.1180   38.5300 H   0  0  0  0  0  0  0  0  0  0  0  0
   37.3720   32.0990   38.1300 O   0  0  0  0  0  0  0  0  0  0  0  0
   36.8460   30.8810   38.4850 C   0  0  0  0  0  0  0  0  0  0  0  0
   35.9100   30.7290   37.8840 H   0  0  0  0  0  0  0  0  0  0  0  0
   37.5600   30.0440   38.3610 H   0  0  0  0  0  0  0  0  0  0  0  0
   36.6100   30.9020   39.5740 H   0  0  0  0  0  0  0  0  0  0  0  0
  1  3  1  0  0  0  0
  2  3  2  0  0  0  0
  2  7  1  0  0  0  0
  3  4  1  0  0  0  0
  4  9  1  0  0  0  0
  4  5  2  0  0  0  0
  6  5  1  0  0  0  0
  6 10  1  0  0  0  0
  7  6  2  0  0  0  0
  8  2  1  0  0  0  0
 11 10  1  0  0  0  0
 11 17  1  0  0  0  0
 12 11  2  0  0  0  0
 13 12  1  0  0  0  0
 13 15  2  0  0  0  0
 14 13  1  0  0  0  0
 15 16  1  0  0  0  0
 16 17  2  0  0  0  0
 18 21  1  0  0  0  0
 18  1  1  0  0  0  0
 19 18  1  0  0  0  0
 20 18  1  0  0  0  0
 21 22  1  0  0  0  0
 23 21  1  0  0  0  0
 23 24  1  0  0  0  0
 24 25  1  0  0  0  0
 26 23  1  0  0  0  0
 27 26  1  0  0  0  0
 28 29  1  0  0  0  0
 28 23  1  0  0  0  0
 29 32  1  0  0  0  0
 30 29  1  0  0  0  0
 31 29  1  0  0  0  0
M  END
>  <minimizedAffinity>
-4.92241096

$$$$

 OpenBabel03252503043D

 32 33  0  0  0  0  0  0  0  0999 V2000
   37.2790   32.2160   39.0850 S   0  0  0  0  0  0  0  0  0  0  0  0
   36.4090   30.0390   40.5450 C   0  0  0  0  0  0  0  0  0  0  0  0
   37.3980   30.9840   40.3860 C   0  0  0  0  0  0  0  0  0  0  0  0
   38.4990   30.9890   41.2340 C   0  0  0  0  0  0  0  0  0  0  0  0
   38.5410   30.0290   42.2090 N   0  0  0  0  0  0  0  0  0  0  0  0
   37.5510   29.1240   42.3280 C   0  0  0  0  0  0  0  0  0  0  0  0
   36.4970   29.1080   41.5270 N   0  0  0  0  0  0  0  0  0  0  0  0
   35.5410   30.0090   39.9000 H   0  0  0  0  0  0  0  0  0  0  0  0
   39.2700   31.7340   41.1020 H   0  0  0  0  0  0  0  0  0  0  0  0
   37.6220   28.1640   43.3250 O   0  0  0  0  0  0  0  0  0  0  0  0
   38.2070   26.9260   43.1500 C   0  0  0  0  0  0  0  0  0  0  0  0
   39.4080   26.8020   43.8360 C   0  0  0  0  0  3  0  0  0  0  0  0
   40.1320   25.6210   43.7720 C   0  0  0  0  0  0  0  0  0  0  0  0
   41.0680   25.4110   44.2570 H   0  0  0  0  0  0  0  0  0  0  0  0
   39.6130   24.6210   43.0210 N   0  0  0  0  0  0  0  0  0  0  0  0
   38.4570   24.7630   42.3710 C   0  0  0  0  0  3  0  0  0  0  0  0
   37.7120   25.9040   42.4050 N   0  0  0  0  0  0  0  0  0  0  0  0
   37.7740   31.4850   37.5270 C   0  0  0  0  0  0  0  0  0  0  0  0
   38.0980   32.2890   36.8340 H   0  0  0  0  0  0  0  0  0  0  0  0
   36.9730   30.8770   37.0580 H   0  0  0  0  0  0  0  0  0  0  0  0
   38.8760   30.5670   37.8030 N   0  0  0  0  0  0  0  0  0  0  0  0
   38.8180   30.2820   38.8250 H   0  0  0  0  0  0  0  0  0  0  0  0
   40.4040   31.2900   37.5210 S   0  0  0  0  0  0  0  0  0  0  0  0
   41.3230   30.3990   36.7520 O   0  0  0  0  0  0  0  0  0  0  0  0
   41.8400   30.5840   35.9360 H   0  0  0  0  0  0  0  0  0  0  0  0
   40.1260   32.5520   36.7170 O   0  0  0  0  0  0  0  0  0  0  0  0
   39.3110   33.0960   36.8590 H   0  0  0  0  0  0  0  0  0  0  0  0
   41.0800   31.7680   38.9680 O   0  0  0  0  0  0  0  0  0  0  0  0
   40.9690   33.1220   39.1780 C   0  0  0  0  0  0  0  0  0  0  0  0
   40.3970   33.2690   40.1330 H   0  0  0  0  0  0  0  0  0  0  0  0
   41.9450   33.6420   39.1930 H   0  0  0  0  0  0  0  0  0  0  0  0
   40.4150   33.5680   38.3200 H   0  0  0  0  0  0  0  0  0  0  0  0
  1  3  1  0  0  0  0
  2  7  1  0  0  0  0
  3  2  2  0  0  0  0
  3  4  1  0  0  0  0
  4  5  2  0  0  0  0
  5  6  1  0  0  0  0
  6 10  1  0  0  0  0
  7  6  2  0  0  0  0
  8  2  1  0  0  0  0
  9  4  1  0  0  0  0
 11 10  1  0  0  0  0
 11 12  1  0  0  0  0
 13 12  2  0  0  0  0
 13 14  1  0  0  0  0
 15 13  1  0  0  0  0
 16 17  1  0  0  0  0
 16 15  2  0  0  0  0
 17 11  2  0  0  0  0
 18 21  1  0  0  0  0
 18  1  1  0  0  0  0
 19 18  1  0  0  0  0
 20 18  1  0  0  0  0
 21 22  1  0  0  0  0
 23 21  1  0  0  0  0
 23 28  1  0  0  0  0
 24 23  1  0  0  0  0
 25 24  1  0  0  0  0
 26 27  1  0  0  0  0
 26 23  1  0  0  0  0
 28 29  1  0  0  0  0
 29 31  1  0  0  0  0
 29 30  1  0  0  0  0
 32 29  1  0  0  0  0
M  END
>  <minimizedAffinity>
-4.89807415

$$$$

 OpenBabel03252503043D

 32 33  0  0  0  0  0  0  0  0999 V2000
   39.8960   30.7740   42.7340 S   0  0  0  0  0  0  0  0  0  0  0  0
   37.7720   29.0460   43.0990 C   0  0  0  0  0  0  0  0  0  0  0  0
   39.0580   29.1880   42.6270 C   0  0  0  0  0  0  0  0  0  0  0  0
   39.7170   28.1030   42.0630 C   0  0  0  0  0  0  0  0  0  0  0  0
   39.0330   26.9180   42.0070 N   0  0  0  0  0  0  0  0  0  0  0  0
   37.7770   26.8240   42.4810 C   0  0  0  0  0  0  0  0  0  0  0  0
   37.1380   27.8500   43.0200 N   0  0  0  0  0  0  0  0  0  0  0  0
   37.2330   29.8730   43.5430 H   0  0  0  0  0  0  0  0  0  0  0  0
   40.7250   28.2230   41.6960 H   0  0  0  0  0  0  0  0  0  0  0  0
   37.1100   25.6100   42.4090 O   0  0  0  0  0  0  0  0  0  0  0  0
   37.2860   24.7050   41.3820 C   0  0  0  0  0  0  0  0  0  0  0  0
   36.5840   25.0580   40.2360 C   0  0  0  0  0  3  0  0  0  0  0  0
   36.6470   24.2600   39.1040 C   0  0  0  0  0  0  0  0  0  0  0  0
   36.1500   24.4310   38.1660 H   0  0  0  0  0  0  0  0  0  0  0  0
   37.4120   23.1450   39.1780 N   0  0  0  0  0  0  0  0  0  0  0  0
   38.0770   22.8270   40.2900 C   0  0  0  0  0  3  0  0  0  0  0  0
   38.0450   23.5810   41.4250 N   0  0  0  0  0  0  0  0  0  0  0  0
   39.2390   31.8780   41.4880 C   0  0  0  0  0  0  0  0  0  0  0  0
   40.0760   32.4290   41.0110 H   0  0  0  0  0  0  0  0  0  0  0  0
   38.4920   32.5940   41.8910 H   0  0  0  0  0  0  0  0  0  0  0  0
   38.5320   31.0610   40.5050 N   0  0  0  0  0  0  0  0  0  0  0  0
   39.1180   31.0330   39.6190 H   0  0  0  0  0  0  0  0  0  0  0  0
   36.9890   31.7000   40.1230 S   0  0  0  0  0  0  0  0  0  0  0  0
   35.9170   31.1850   41.0250 O   0  0  0  0  0  0  0  0  0  0  0  0
   35.2440   31.6770   41.5470 H   0  0  0  0  0  0  0  0  0  0  0  0
   37.1110   33.2090   40.2850 O   0  0  0  0  0  0  0  0  0  0  0  0
   37.9450   33.6950   40.0660 H   0  0  0  0  0  0  0  0  0  0  0  0
   36.6360   31.4070   38.5190 O   0  0  0  0  0  0  0  0  0  0  0  0
   37.3370   30.3390   38.0140 C   0  0  0  0  0  0  0  0  0  0  0  0
   36.5880   29.5840   37.6520 H   0  0  0  0  0  0  0  0  0  0  0  0
   38.0560   30.6230   37.2230 H   0  0  0  0  0  0  0  0  0  0  0  0
   37.9590   29.9070   38.8310 H   0  0  0  0  0  0  0  0  0  0  0  0
  2  8  1  0  0  0  0
  3  1  1  0  0  0  0
  3  2  2  0  0  0  0
  4  3  1  0  0  0  0
  5  4  2  0  0  0  0
  5  6  1  0  0  0  0
  6  7  2  0  0  0  0
  7  2  1  0  0  0  0
  9  4  1  0  0  0  0
 10  6  1  0  0  0  0
 11 17  1  0  0  0  0
 11 10  1  0  0  0  0
 12 11  2  0  0  0  0
 13 15  2  0  0  0  0
 13 12  1  0  0  0  0
 14 13  1  0  0  0  0
 15 16  1  0  0  0  0
 16 17  2  0  0  0  0
 18 20  1  0  0  0  0
 18  1  1  0  0  0  0
 19 18  1  0  0  0  0
 21 18  1  0  0  0  0
 22 21  1  0  0  0  0
 23 26  1  0  0  0  0
 23 21  1  0  0  0  0
 23 24  1  0  0  0  0
 24 25  1  0  0  0  0
 27 26  1  0  0  0  0
 28 23  1  0  0  0  0
 29 28  1  0  0  0  0
 29 32  1  0  0  0  0
 30 29  1  0  0  0  0
 31 29  1  0  0  0  0
M  END
>  <minimizedAffinity>
-4.76718616

$$$$

 OpenBabel03252503043D

 32 33  0  0  0  0  0  0  0  0999 V2000
   41.5290   34.2370   39.1570 S   0  0  0  0  0  0  0  0  0  0  0  0
   39.0020   33.6140   40.0800 C   0  0  0  0  0  0  0  0  0  0  0  0
   40.2680   33.1410   39.8170 C   0  0  0  0  0  0  0  0  0  0  0  0
   40.5790   31.8090   40.0600 C   0  0  0  0  0  0  0  0  0  0  0  0
   39.5820   31.0180   40.5640 N   0  0  0  0  0  0  0  0  0  0  0  0
   38.3570   31.5220   40.8060 C   0  0  0  0  0  0  0  0  0  0  0  0
   38.0480   32.7880   40.5790 N   0  0  0  0  0  0  0  0  0  0  0  0
   38.7290   34.6460   39.9010 H   0  0  0  0  0  0  0  0  0  0  0  0
   41.5750   31.4470   39.8510 H   0  0  0  0  0  0  0  0  0  0  0  0
   37.3680   30.6940   41.3160 O   0  0  0  0  0  0  0  0  0  0  0  0
   37.5790   29.3720   41.6500 C   0  0  0  0  0  0  0  0  0  0  0  0
   37.9050   29.2060   42.9890 C   0  0  0  0  0  3  0  0  0  0  0  0
   38.1500   27.9400   43.4990 C   0  0  0  0  0  0  0  0  0  0  0  0
   38.4100   27.6910   44.5130 H   0  0  0  0  0  0  0  0  0  0  0  0
   38.0550   26.9010   42.6360 N   0  0  0  0  0  0  0  0  0  0  0  0
   37.7400   27.0840   41.3530 C   0  0  0  0  0  3  0  0  0  0  0  0
   37.4910   28.3090   40.8100 N   0  0  0  0  0  0  0  0  0  0  0  0
   41.9290   33.7420   37.4830 C   0  0  0  0  0  0  0  0  0  0  0  0
   41.1320   34.0960   36.7980 H   0  0  0  0  0  0  0  0  0  0  0  0
   42.0680   32.6460   37.3740 H   0  0  0  0  0  0  0  0  0  0  0  0
   43.2120   34.3520   37.1400 N   0  0  0  0  0  0  0  0  0  0  0  0
   43.1460   34.7200   36.1460 H   0  0  0  0  0  0  0  0  0  0  0  0
   44.5040   33.2290   37.2240 S   0  0  0  0  0  0  0  0  0  0  0  0
   44.1580   31.9140   36.6090 O   0  0  0  0  0  0  0  0  0  0  0  0
   44.6410   31.3910   35.9300 H   0  0  0  0  0  0  0  0  0  0  0  0
   45.6580   33.8630   36.4600 O   0  0  0  0  0  0  0  0  0  0  0  0
   45.8160   34.8400   36.4640 H   0  0  0  0  0  0  0  0  0  0  0  0
   45.0000   33.0550   38.8070 O   0  0  0  0  0  0  0  0  0  0  0  0
   44.5990   31.8610   39.3560 C   0  0  0  0  0  0  0  0  0  0  0  0
   45.5230   31.3110   39.6790 H   0  0  0  0  0  0  0  0  0  0  0  0
   43.8760   31.9830   40.1840 H   0  0  0  0  0  0  0  0  0  0  0  0
   44.0530   31.2800   38.5770 H   0  0  0  0  0  0  0  0  0  0  0  0
  1  3  1  0  0  0  0
  2  7  1  0  0  0  0
  3  4  1  0  0  0  0
  3  2  2  0  0  0  0
  4  5  2  0  0  0  0
  5  6  1  0  0  0  0
  6 10  1  0  0  0  0
  7  6  2  0  0  0  0
  8  2  1  0  0  0  0
  9  4  1  0  0  0  0
 10 11  1  0  0  0  0
 11 12  1  0  0  0  0
 12 13  2  0  0  0  0
 13 14  1  0  0  0  0
 15 13  1  0  0  0  0
 16 15  2  0  0  0  0
 17 16  1  0  0  0  0
 17 11  2  0  0  0  0
 18  1  1  0  0  0  0
 19 18  1  0  0  0  0
 20 18  1  0  0  0  0
 21 23  1  0  0  0  0
 21 18  1  0  0  0  0
 22 21  1  0  0  0  0
 23 28  1  0  0  0  0
 24 23  1  0  0  0  0
 25 24  1  0  0  0  0
 26 27  1  0  0  0  0
 26 23  1  0  0  0  0
 28 29  1  0  0  0  0
 29 30  1  0  0  0  0
 29 31  1  0  0  0  0
 32 29  1  0  0  0  0
M  END
>  <minimizedAffinity>
-4.76332712

$$$$

 OpenBabel03252503043D

 32 33  0  0  0  0  0  0  0  0999 V2000
   37.8680   31.5440   37.9820 S   0  0  0  0  0  0  0  0  0  0  0  0
   37.5720   30.6750   40.5870 C   0  0  0  0  0  0  0  0  0  0  0  0
   37.5990   30.3100   39.2590 C   0  0  0  0  0  0  0  0  0  0  0  0
   37.4160   28.9800   38.8980 C   0  0  0  0  0  0  0  0  0  0  0  0
   37.2160   28.0810   39.9100 N   0  0  0  0  0  0  0  0  0  0  0  0
   37.1980   28.4820   41.1950 C   0  0  0  0  0  0  0  0  0  0  0  0
   37.3700   29.7440   41.5530 N   0  0  0  0  0  0  0  0  0  0  0  0
   37.7110   31.7010   40.8990 H   0  0  0  0  0  0  0  0  0  0  0  0
   37.4390   28.7030   37.8550 H   0  0  0  0  0  0  0  0  0  0  0  0
   36.9910   27.5460   42.1980 O   0  0  0  0  0  0  0  0  0  0  0  0
   37.9640   26.6690   42.6320 C   0  0  0  0  0  0  0  0  0  0  0  0
   37.7710   25.3800   42.1520 C   0  0  0  0  0  3  0  0  0  0  0  0
   38.6570   24.3670   42.4890 C   0  0  0  0  0  0  0  0  0  0  0  0
   38.6090   23.3390   42.1790 H   0  0  0  0  0  0  0  0  0  0  0  0
   39.6940   24.7000   43.2930 N   0  0  0  0  0  0  0  0  0  0  0  0
   39.8590   25.9440   43.7430 C   0  0  0  0  0  3  0  0  0  0  0  0
   39.0140   26.9700   43.4370 N   0  0  0  0  0  0  0  0  0  0  0  0
   39.4430   32.3490   38.2550 C   0  0  0  0  0  0  0  0  0  0  0  0
   39.9870   31.8200   39.0640 H   0  0  0  0  0  0  0  0  0  0  0  0
   39.3440   33.4260   38.5020 H   0  0  0  0  0  0  0  0  0  0  0  0
   40.1920   32.2840   37.0020 N   0  0  0  0  0  0  0  0  0  0  0  0
   39.7320   31.5550   36.3810 H   0  0  0  0  0  0  0  0  0  0  0  0
   41.8280   31.8390   37.2500 S   0  0  0  0  0  0  0  0  0  0  0  0
   42.7830   32.8440   36.6980 O   0  0  0  0  0  0  0  0  0  0  0  0
   43.5450   33.2920   37.1310 H   0  0  0  0  0  0  0  0  0  0  0  0
   42.0080   31.7380   38.7580 O   0  0  0  0  0  0  0  0  0  0  0  0
   41.2850   31.4170   39.3530 H   0  0  0  0  0  0  0  0  0  0  0  0
   42.1030   30.3190   36.6200 O   0  0  0  0  0  0  0  0  0  0  0  0
   43.1910   30.2870   35.7820 C   0  0  0  0  0  0  0  0  0  0  0  0
   43.9190   29.5430   36.2020 H   0  0  0  0  0  0  0  0  0  0  0  0
   42.9250   30.0610   34.7310 H   0  0  0  0  0  0  0  0  0  0  0  0
   43.6460   31.3040   35.7540 H   0  0  0  0  0  0  0  0  0  0  0  0
  1 18  1  0  0  0  0
  1  3  1  0  0  0  0
  2  8  1  0  0  0  0
  2  7  1  0  0  0  0
  3  2  2  0  0  0  0
  4  3  1  0  0  0  0
  4  5  2  0  0  0  0
  5  6  1  0  0  0  0
  6  7  2  0  0  0  0
  6 10  1  0  0  0  0
  9  4  1  0  0  0  0
 10 11  1  0  0  0  0
 11 17  1  0  0  0  0
 12 13  1  0  0  0  0
 12 11  2  0  0  0  0
 13 15  2  0  0  0  0
 14 13  1  0  0  0  0
 15 16  1  0  0  0  0
 17 16  2  0  0  0  0
 18 20  1  0  0  0  0
 18 19  1  0  0  0  0
 21 23  1  0  0  0  0
 21 18  1  0  0  0  0
 22 21  1  0  0  0  0
 23 26  1  0  0  0  0
 24 25  1  0  0  0  0
 24 23  1  0  0  0  0
 26 27  1  0  0  0  0
 28 23  1  0  0  0  0
 29 30  1  0  0  0  0
 29 28  1  0  0  0  0
 31 29  1  0  0  0  0
 32 29  1  0  0  0  0
M  END
>  <minimizedAffinity>
-4.58997393

$$$$

 OpenBabel03252503043D

 32 33  0  0  0  0  0  0  0  0999 V2000
   36.2760   29.6010   39.3540 S   0  0  0  0  0  0  0  0  0  0  0  0
   38.8770   30.3800   39.8630 C   0  0  0  0  0  0  0  0  0  0  0  0
   37.5600   30.7770   39.7990 C   0  0  0  0  0  0  0  0  0  0  0  0
   37.2140   32.0940   40.0780 C   0  0  0  0  0  0  0  0  0  0  0  0
   38.2300   32.9470   40.4120 N   0  0  0  0  0  0  0  0  0  0  0  0
   39.5040   32.5170   40.4630 C   0  0  0  0  0  0  0  0  0  0  0  0
   39.8470   31.2660   40.1990 N   0  0  0  0  0  0  0  0  0  0  0  0
   39.1770   29.3620   39.6510 H   0  0  0  0  0  0  0  0  0  0  0  0
   36.1780   32.3950   40.0250 H   0  0  0  0  0  0  0  0  0  0  0  0
   40.5110   33.4070   40.8040 O   0  0  0  0  0  0  0  0  0  0  0  0
   41.6430   33.6060   40.0390 C   0  0  0  0  0  0  0  0  0  0  0  0
   41.3690   34.2520   38.8410 C   0  0  0  0  0  3  0  0  0  0  0  0
   42.3920   34.5350   37.9480 C   0  0  0  0  0  0  0  0  0  0  0  0
   42.3010   35.0270   36.9960 H   0  0  0  0  0  0  0  0  0  0  0  0
   43.6420   34.1520   38.3030 N   0  0  0  0  0  0  0  0  0  0  0  0
   43.8810   33.5320   39.4600 C   0  0  0  0  0  3  0  0  0  0  0  0
   42.9070   33.2350   40.3670 N   0  0  0  0  0  0  0  0  0  0  0  0
   35.5780   28.8920   40.8420 C   0  0  0  0  0  0  0  0  0  0  0  0
   34.5750   28.4750   40.6110 H   0  0  0  0  0  0  0  0  0  0  0  0
   35.5060   29.6180   41.6780 H   0  0  0  0  0  0  0  0  0  0  0  0
   36.4830   27.8380   41.2930 N   0  0  0  0  0  0  0  0  0  0  0  0
   35.9510   26.9190   41.2780 H   0  0  0  0  0  0  0  0  0  0  0  0
   37.0550   28.1150   42.8840 S   0  0  0  0  0  0  0  0  0  0  0  0
   37.2460   29.5660   43.1780 O   0  0  0  0  0  0  0  0  0  0  0  0
   36.9110   30.1050   43.9290 H   0  0  0  0  0  0  0  0  0  0  0  0
   35.9960   27.5410   43.8140 O   0  0  0  0  0  0  0  0  0  0  0  0
   35.4750   26.7320   43.5810 H   0  0  0  0  0  0  0  0  0  0  0  0
   38.4560   27.2460   43.1410 O   0  0  0  0  0  0  0  0  0  0  0  0
   39.0790   26.8940   41.9680 C   0  0  0  0  0  0  0  0  0  0  0  0
   40.1110   27.3370   41.9880 H   0  0  0  0  0  0  0  0  0  0  0  0
   39.0980   25.8020   41.7950 H   0  0  0  0  0  0  0  0  0  0  0  0
   38.4930   27.3130   41.1180 H   0  0  0  0  0  0  0  0  0  0  0  0
  1  3  1  0  0  0  0
  1 18  1  0  0  0  0
  2  7  1  0  0  0  0
  3  2  2  0  0  0  0
  3  4  1  0  0  0  0
  4  5  2  0  0  0  0
  5  6  1  0  0  0  0
  6 10  1  0  0  0  0
  7  6  2  0  0  0  0
  8  2  1  0  0  0  0
  9  4  1  0  0  0  0
 11 17  1  0  0  0  0
 11 10  1  0  0  0  0
 12 11  2  0  0  0  0
 13 15  2  0  0  0  0
 13 12  1  0  0  0  0
 14 13  1  0  0  0  0
 15 16  1  0  0  0  0
 16 17  2  0  0  0  0
 18 21  1  0  0  0  0
 18 20  1  0  0  0  0
 19 18  1  0  0  0  0
 21 23  1  0  0  0  0
 22 21  1  0  0  0  0
 23 28  1  0  0  0  0
 23 24  1  0  0  0  0
 23 26  1  0  0  0  0
 24 25  1  0  0  0  0
 27 26  1  0  0  0  0
 29 30  1  0  0  0  0
 29 28  1  0  0  0  0
 31 29  1  0  0  0  0
 32 29  1  0  0  0  0
M  END
>  <minimizedAffinity>
-4.5835743

$$$$

 OpenBabel03252503043D

 32 33  0  0  0  0  0  0  0  0999 V2000
   39.9290   29.7560   42.0400 S   0  0  0  0  0  0  0  0  0  0  0  0
   37.9050   28.0560   41.2390 C   0  0  0  0  0  0  0  0  0  0  0  0
   39.0110   28.2110   42.0430 C   0  0  0  0  0  0  0  0  0  0  0  0
   39.4280   27.1710   42.8650 C   0  0  0  0  0  0  0  0  0  0  0  0
   38.6940   26.0160   42.8290 N   0  0  0  0  0  0  0  0  0  0  0  0
   37.6180   25.9070   42.0270 C   0  0  0  0  0  0  0  0  0  0  0  0
   37.2110   26.8900   41.2400 N   0  0  0  0  0  0  0  0  0  0  0  0
   37.5570   28.8470   40.5880 H   0  0  0  0  0  0  0  0  0  0  0  0
   40.2970   27.3020   43.4930 H   0  0  0  0  0  0  0  0  0  0  0  0
   36.8960   24.7240   42.0130 O   0  0  0  0  0  0  0  0  0  0  0  0
   37.0150   23.7700   41.0220 C   0  0  0  0  0  0  0  0  0  0  0  0
   35.8920   23.7060   40.2070 C   0  0  0  0  0  3  0  0  0  0  0  0
   35.8410   22.8020   39.1570 C   0  0  0  0  0  0  0  0  0  0  0  0
   35.0300   22.6620   38.4650 H   0  0  0  0  0  0  0  0  0  0  0  0
   36.9210   22.0050   38.9770 N   0  0  0  0  0  0  0  0  0  0  0  0
   37.9880   22.0850   39.7730 C   0  0  0  0  0  3  0  0  0  0  0  0
   38.0830   22.9580   40.8160 N   0  0  0  0  0  0  0  0  0  0  0  0
   38.8590   31.0820   41.4900 C   0  0  0  0  0  0  0  0  0  0  0  0
   38.2760   31.4620   42.3550 H   0  0  0  0  0  0  0  0  0  0  0  0
   38.1730   30.7770   40.6720 H   0  0  0  0  0  0  0  0  0  0  0  0
   39.7100   32.1330   40.9400 N   0  0  0  0  0  0  0  0  0  0  0  0
   40.4130   32.4130   41.6860 H   0  0  0  0  0  0  0  0  0  0  0  0
   38.8120   33.5200   40.4860 S   0  0  0  0  0  0  0  0  0  0  0  0
   38.7370   34.5350   41.5780 O   0  0  0  0  0  0  0  0  0  0  0  0
   38.9460   35.4960   41.5590 H   0  0  0  0  0  0  0  0  0  0  0  0
   39.5380   34.1140   39.2870 O   0  0  0  0  0  0  0  0  0  0  0  0
   39.9950   33.5470   38.6170 H   0  0  0  0  0  0  0  0  0  0  0  0
   37.2940   33.0660   39.9640 O   0  0  0  0  0  0  0  0  0  0  0  0
   37.3090   32.5480   38.6910 C   0  0  0  0  0  0  0  0  0  0  0  0
   36.9000   31.5040   38.7470 H   0  0  0  0  0  0  0  0  0  0  0  0
   36.7600   33.1720   37.9600 H   0  0  0  0  0  0  0  0  0  0  0  0
   38.3630   32.5340   38.3280 H   0  0  0  0  0  0  0  0  0  0  0  0
  1  3  1  0  0  0  0
  2  7  2  0  0  0  0
  2  3  1  0  0  0  0
  3  4  2  0  0  0  0
  4  9  1  0  0  0  0
  5  4  1  0  0  0  0
  6  5  2  0  0  0  0
  7  6  1  0  0  0  0
  8  2  1  0  0  0  0
 10  6  1  0  0  0  0
 11 10  1  0  0  0  0
 12 11  2  0  0  0  0
 13 12  1  0  0  0  0
 14 13  1  0  0  0  0
 15 13  2  0  0  0  0
 15 16  1  0  0  0  0
 16 17  2  0  0  0  0
 17 11  1  0  0  0  0
 18  1  1  0  0  0  0
 18 19  1  0  0  0  0
 20 18  1  0  0  0  0
 21 18  1  0  0  0  0
 21 22  1  0  0  0  0
 23 21  1  0  0  0  0
 23 24  1  0  0  0  0
 25 24  1  0  0  0  0
 26 23  1  0  0  0  0
 27 26  1  0  0  0  0
 28 23  1  0  0  0  0
 29 30  1  0  0  0  0
 29 28  1  0  0  0  0
 31 29  1  0  0  0  0
 32 29  1  0  0  0  0
M  END
>  <minimizedAffinity>
-4.56666994

$$$$
