
     RDKit          3D

 40 43  0  0  0  0  0  0  0  0999 V2000
   46.4470   33.8664   43.2399 C   0  0  0  0  0  0  0  0  0  0  0  0
   45.7463   34.8655   42.4347 C   0  0  0  0  0  0  0  0  0  0  0  0
   45.3328   36.0787   43.1830 C   0  0  0  0  0  0  0  0  0  0  0  0
   44.5536   35.7714   44.4560 C   0  0  0  0  0  0  0  0  0  0  0  0
   44.9827   34.5159   45.1530 C   0  0  0  0  0  0  0  0  0  0  0  0
   46.4058   34.1505   44.7523 C   0  0  0  0  0  0  0  0  0  0  0  0
   47.8727   33.7029   42.8897 C   0  0  0  0  0  0  0  0  0  0  0  0
   48.5784   34.8978   42.7148 C   0  0  0  0  0  0  0  0  0  0  0  0
   49.9471   34.8612   42.3834 C   0  0  0  0  0  0  0  0  0  0  0  0
   50.5043   33.6148   42.2529 N   0  0  0  0  0  0  0  0  0  0  0  0
   49.7759   32.4681   42.4334 C   0  0  0  0  0  0  0  0  0  0  0  0
   48.4891   32.5300   42.7444 N   0  0  0  0  0  0  0  0  0  0  0  0
   50.5247   31.2306   42.2646 C   0  0  0  0  0  0  0  0  0  0  0  0
   51.5761   31.2500   41.4169 N   0  0  0  0  0  0  0  0  0  0  0  0
   52.1523   30.0354   41.3841 C   0  0  0  0  0  0  0  0  0  0  0  0
   51.4393   29.2527   42.2301 N   0  0  0  0  0  0  0  0  0  0  0  0
   50.4418   29.9781   42.7719 N   0  0  0  0  0  0  0  0  0  0  0  0
   45.9778   32.8499   43.1585 H   0  0  0  0  0  0  0  0  0  0  0  0
   44.8067   34.4115   42.0111 H   0  0  0  0  0  0  0  0  0  0  0  0
   46.3666   35.1730   41.5939 H   0  0  0  0  0  0  0  0  0  0  0  0
   44.5767   36.6081   42.5300 H   0  0  0  0  0  0  0  0  0  0  0  0
   46.0948   36.8280   43.3856 H   0  0  0  0  0  0  0  0  0  0  0  0
   43.4525   35.7520   44.2869 H   0  0  0  0  0  0  0  0  0  0  0  0
   44.7193   36.6068   45.1852 H   0  0  0  0  0  0  0  0  0  0  0  0
   44.9481   34.5657   46.2412 H   0  0  0  0  0  0  0  0  0  0  0  0
   44.3532   33.6815   44.7290 H   0  0  0  0  0  0  0  0  0  0  0  0
   47.0458   35.0414   44.9849 H   0  0  0  0  0  0  0  0  0  0  0  0
   46.7176   33.2609   45.3085 H   0  0  0  0  0  0  0  0  0  0  0  0
   48.2268   35.9168   42.7966 H   0  0  0  0  0  0  0  0  0  0  0  0
   50.5527   35.7417   42.2337 H   0  0  0  0  0  0  0  0  0  0  0  0
   53.0216   29.6935   40.8094 H   0  0  0  0  0  0  0  0  0  0  0  0
   51.6413   27.8809   42.5519 C   0  0  0  0  0  0  0  0  0  0  0  0
   52.8973   27.4194   42.8927 C   0  0  0  0  0  0  0  0  0  0  0  0
   53.2088   26.1199   43.2210 C   0  0  0  0  0  0  0  0  0  0  0  0
   54.2572   25.9071   43.4701 H   0  0  0  0  0  0  0  0  0  0  0  0
   52.1997   25.2325   43.2059 N   0  0  0  0  0  0  0  0  0  0  0  0
   50.9565   25.6562   42.8753 C   0  0  0  0  0  0  0  0  0  0  0  0
   50.6743   26.9440   42.5552 N   0  0  0  0  0  0  0  0  0  0  0  0
   53.6968   28.1739   42.8941 H   0  0  0  0  0  0  0  0  0  0  0  0
   50.1589   24.9149   42.8716 H   0  0  0  0  0  0  0  0  0  0  0  0
  1  6  1  0
  2  3  1  0
  2  1  1  0
  3  4  1  0
  4  5  1  0
  6  5  1  0
  7  1  1  0
  8  7  2  0
  9  8  1  0
 10  9  2  0
 10 11  1  0
 11 12  2  0
 12  7  1  0
 13 11  1  0
 13 17  2  0
 14 13  1  0
 15 14  2  0
 15 16  1  0
 16 17  1  0
  1 18  1  0
  2 19  1  0
  2 20  1  0
  3 21  1  0
  3 22  1  0
  4 23  1  0
  4 24  1  0
  5 25  1  0
  5 26  1  0
  6 27  1  0
  6 28  1  0
  8 29  1  0
  9 30  1  0
 15 31  1  0
 32 33  2  0
 33 34  1  0
 34 35  1  0
 34 36  2  0
 36 37  1  0
 37 38  2  0
 38 32  1  0
 33 39  1  0
 37 40  1  0
 16 32  1  0
M  ISO  8  18  13  19  13  20  13  21  13  22  13  23  13  24  13  25  13
M  ISO  7  26  13  27  13  28  13  29  14  30  14  31  14  35  14
M  END
>  <DihAtoms>  (1) 
14,15,31,32

>  <DihDeg>  (1) 
153.43640148168586

$$$$
