
 OpenBabel03252509073D

 39 42  0  0  0  0  0  0  0  0999 V2000
   47.7660   31.8790   39.0010 C   0  0  0  0  0  0  0  0  0  0  0  0
   47.2110   33.1210   38.8920 C   0  0  0  0  0  0  0  0  0  0  0  0
   47.7520   34.0430   38.0110 C   0  0  0  0  0  0  0  0  0  0  0  0
   48.8450   33.7110   37.2450 C   0  0  0  0  0  0  0  0  0  0  0  0
   49.4410   32.4540   37.3250 C   0  0  0  0  0  0  0  0  0  0  0  0
   48.8760   31.5400   38.2240 C   0  0  0  0  0  0  0  0  0  0  0  0
   47.3460   35.0350   37.8930 H   0  0  0  0  0  0  0  0  0  0  0  0
   49.3460   34.3430   36.5310 H   0  0  0  0  0  0  0  0  0  0  0  0
   50.2830   32.1220   36.7710 H   0  0  0  0  0  0  0  0  0  0  0  0
   49.3150   30.5440   38.3170 H   0  0  0  0  0  0  0  0  0  0  0  0
   45.2640   35.3260   43.1340 Cl  0  0  0  0  0  0  0  0  0  0  0  0
   45.1440   34.5710   41.5640 C   0  0  0  0  0  0  0  0  0  0  0  0
   46.2520   34.1790   40.8860 C   0  0  0  0  0  0  0  0  0  0  0  0
   46.0490   33.5750   39.6530 C   0  0  0  0  0  0  0  0  0  0  0  0
   44.7920   33.3800   39.1340 C   0  0  0  0  0  0  0  0  0  0  0  0
   43.6960   33.7790   39.8280 C   0  0  0  0  0  0  0  0  0  0  0  0
   43.8830   34.3780   41.0500 C   0  0  0  0  0  0  0  0  0  0  0  0
   44.6720   32.9030   38.1640 H   0  0  0  0  0  0  0  0  0  0  0  0
   42.7230   33.6090   39.3880 H   0  0  0  0  0  0  0  0  0  0  0  0
   42.9740   34.6830   41.5740 H   0  0  0  0  0  0  0  0  0  0  0  0
   49.5530   35.7360   41.8470 C   0  0  0  0  0  0  0  0  0  0  0  0
   48.2910   35.5400   41.2690 C   0  0  0  0  0  0  0  0  0  0  0  0
   47.5570   34.3930   41.4790 C   0  0  0  0  0  0  0  0  0  0  0  0
   48.1560   33.4780   42.2870 N   0  0  0  0  0  0  0  0  0  0  0  0
   49.3560   33.6560   42.8430 C   0  0  0  0  0  0  0  0  0  0  0  0
   50.0440   34.7770   42.6210 N   0  0  0  0  0  0  0  0  0  0  0  0
   50.0190   36.6740   41.6040 H   0  0  0  0  0  0  0  0  0  0  0  0
   47.8510   36.2920   40.6320 H   0  0  0  0  0  0  0  0  0  0  0  0
   49.7680   32.8830   43.4750 H   0  0  0  0  0  0  0  0  0  0  0  0
   47.1120   30.7190   40.0280 S   0  0  0  0  0  0  0  0  0  0  0  0
   47.4520   29.3150   39.5700 O   0  0  0  0  0  0  0  0  0  0  0  0
   47.9480   30.8600   41.3480 O   0  0  0  0  0  0  0  0  0  0  0  0
   45.4740   30.6210   40.5210 C   0  0  0  0  0  0  0  0  0  0  0  0
   44.5250   30.1410   39.5740 C   0  0  0  0  0  3  0  0  0  0  0  0
   43.1410   29.9500   39.6820 C   0  0  0  0  0  0  0  0  0  0  0  0
   42.5650   29.5730   38.8570 H   0  0  0  0  0  0  0  0  0  0  0  0
   42.6920   30.2910   40.9000 N   0  0  0  0  0  0  0  0  0  0  0  0
   43.5030   30.7530   41.8590 C   0  0  0  0  0  3  0  0  0  0  0  0
   44.8020   30.8960   41.6490 N   0  0  0  0  0  0  0  0  0  0  0  0
  1 30  1  0  0  0  0
  2  1  1  0  0  0  0
  2 14  1  0  0  0  0
  3  2  2  0  0  0  0
  4  5  2  0  0  0  0
  4  3  1  0  0  0  0
  5  6  1  0  0  0  0
  6 10  1  0  0  0  0
  6  1  2  0  0  0  0
  7  3  1  0  0  0  0
  8  4  1  0  0  0  0
  9  5  1  0  0  0  0
 12 11  1  0  0  0  0
 13 23  1  0  0  0  0
 13 12  2  0  0  0  0
 14 13  1  0  0  0  0
 15 14  2  0  0  0  0
 15 16  1  0  0  0  0
 16 17  2  0  0  0  0
 17 12  1  0  0  0  0
 17 20  1  0  0  0  0
 18 15  1  0  0  0  0
 19 16  1  0  0  0  0
 21 26  1  0  0  0  0
 22 23  1  0  0  0  0
 22 21  2  0  0  0  0
 23 24  2  0  0  0  0
 24 25  1  0  0  0  0
 25 29  1  0  0  0  0
 26 25  2  0  0  0  0
 27 21  1  0  0  0  0
 28 22  1  0  0  0  0
 30 33  1  0  0  0  0
 30 32  2  0  0  0  0
 31 30  2  0  0  0  0
 33 39  1  0  0  0  0
 34 35  1  0  0  0  0
 34 33  2  0  0  0  0
 35 37  2  0  0  0  0
 36 35  1  0  0  0  0
 37 38  1  0  0  0  0
 39 38  2  0  0  0  0
M  END
>  <minimizedAffinity>
-4.61271954

>  <minimizedRMSD>
0.826393664

$$$$
