
 OpenBabel03242523543D

 38 40  0  0  1  0  0  0  0  0999 V2000
   42.8250   34.4950   38.7690 C   0  0  1  0  0  0  0  0  0  0  0  0
   42.9560   35.1780   40.1230 C   0  0  1  0  0  0  0  0  0  0  0  0
   41.6610   35.3910   40.6380 O   0  0  0  0  0  0  0  0  0  0  0  0
   40.7360   35.7130   39.6420 C   0  0  0  0  0  0  0  0  0  0  0  0
   40.4430   34.5350   38.7360 C   0  0  2  0  0  0  0  0  0  0  0  0
   41.6670   33.5570   38.8750 C   0  0  1  0  0  0  0  0  0  0  0  0
   43.7620   33.9380   38.5480 H   0  0  0  0  0  0  0  0  0  0  0  0
   43.5350   36.1080   40.0930 H   0  0  0  0  0  0  0  0  0  0  0  0
   41.0010   36.6350   39.0980 H   0  0  0  0  0  0  0  0  0  0  0  0
   39.7960   35.9210   40.1900 H   0  0  0  0  0  0  0  0  0  0  0  0
   39.5280   33.9970   39.0150 H   0  0  0  0  0  0  0  0  0  0  0  0
   41.4520   33.2700   39.9530 H   0  0  0  0  0  0  0  0  0  0  0  0
   42.6050   35.4440   37.7600 O   0  0  0  0  0  0  0  0  0  0  0  0
   43.3940   36.0110   37.7060 H   0  0  0  0  0  0  0  0  0  0  0  0
   40.4580   34.9520   37.4130 O   0  0  0  0  0  0  0  0  0  0  0  0
   39.8990   35.7410   37.2480 H   0  0  0  0  0  0  0  0  0  0  0  0
   43.4920   34.1960   40.9780 O   0  0  0  0  0  0  0  0  0  0  0  0
   44.5990   34.3450   41.7110 C   0  0  0  0  0  0  0  0  0  0  0  0
   45.8600   34.4470   41.1060 C   0  0  0  0  0  0  0  0  0  0  0  0
   46.9760   34.6020   41.9080 C   0  0  0  0  0  0  0  0  0  0  0  0
   46.8180   34.6530   43.2810 N   0  0  0  0  0  0  0  0  0  0  0  0
   45.5870   34.5520   43.8340 C   0  0  0  0  0  0  0  0  0  0  0  0
   44.4860   34.3990   43.0520 N   0  0  0  0  0  0  0  0  0  0  0  0
   45.9580   34.4040   40.0240 H   0  0  0  0  0  0  0  0  0  0  0  0
   45.4730   34.5920   44.9010 H   0  0  0  0  0  0  0  0  0  0  0  0
   48.3520   34.6970   41.3300 C   0  0  0  0  0  0  0  0  0  0  0  0
   49.0810   36.0270   41.5050 C   0  0  0  0  0  0  0  0  0  0  0  0
   49.5060   34.7020   42.1720 C   0  0  0  0  0  0  0  0  0  0  0  0
   48.3790   34.3450   40.2650 H   0  0  0  0  0  0  0  0  0  0  0  0
   49.7320   36.3870   40.6930 H   0  0  0  0  0  0  0  0  0  0  0  0
   48.6300   36.7530   42.1990 H   0  0  0  0  0  0  0  0  0  0  0  0
   49.4030   34.6260   43.2680 H   0  0  0  0  0  0  0  0  0  0  0  0
   50.4570   34.2540   41.7990 H   0  0  0  0  0  0  0  0  0  0  0  0
   41.5480   32.6260   37.9110 O   0  0  0  0  0  0  0  0  0  0  0  0
   40.8940   31.4410   37.9710 C   0  0  0  0  0  0  0  0  0  0  0  0
   39.6950   31.2760   37.4850 O   0  0  0  0  0  0  0  0  0  0  0  0
   40.8550   30.0960   38.3510 O   0  0  0  0  0  0  0  0  0  0  0  0
   40.9900   29.3430   37.6880 H   0  0  0  0  0  0  0  0  0  0  0  0
  1  7  1  6  0  0  0
  1  6  1  0  0  0  0
  1  2  1  0  0  0  0
  2  8  1  6  0  0  0
  2  3  1  0  0  0  0
  2 17  1  0  0  0  0
  4 10  1  0  0  0  0
  4  3  1  0  0  0  0
  5  6  1  0  0  0  0
  5 11  1  1  0  0  0
  5  4  1  0  0  0  0
  6 12  1  1  0  0  0
  9  4  1  0  0  0  0
 13  1  1  0  0  0  0
 14 13  1  0  0  0  0
 15  5  1  0  0  0  0
 16 15  1  0  0  0  0
 17 18  1  0  0  0  0
 18 23  1  0  0  0  0
 19 18  2  0  0  0  0
 19 20  1  0  0  0  0
 20 21  2  0  0  0  0
 21 22  1  0  0  0  0
 22 25  1  0  0  0  0
 23 22  2  0  0  0  0
 24 19  1  0  0  0  0
 26 27  1  0  0  0  0
 26 20  1  0  0  0  0
 26 28  1  0  0  0  0
 27 28  1  0  0  0  0
 27 31  1  0  0  0  0
 28 32  1  0  0  0  0
 29 26  1  0  0  0  0
 30 27  1  0  0  0  0
 33 28  1  0  0  0  0
 34 35  1  0  0  0  0
 34  6  1  0  0  0  0
 35 37  1  0  0  0  0
 36 35  2  0  0  0  0
 38 37  1  0  0  0  0
M  END
>  <minimizedAffinity>
-5.69835043

>  <minimizedRMSD>
0.0326800495

$$$$
