REMARK  Name = 
REMARK  4 active torsions:
REMARK  status: ('A' for Active; 'I' for Inactive)
REMARK    1  A    between atoms: C_1  and  C_10
REMARK    2  A    between atoms: C_6  and  C_18
REMARK    3  A    between atoms: C_7  and  C_16
REMARK    4  A    between atoms: C_18  and  O_35
REMARK                            x       y       z     vdW  Elec       q    Type
REMARK                         _______ _______ _______ _____ _____    ______ ____
ROOT
ATOM      1  C   UNL     1      47.579  29.983  48.257  0.00  0.00    +0.000 C 
ATOM      2  C   UNL     1      47.449  28.780  47.372  0.00  0.00    +0.000 C 
ATOM      3  C   UNL     1      48.715  28.005  47.172  0.00  0.00    +0.000 C 
ATOM      4  C   UNL     1      49.502  27.830  48.457  0.00  0.00    +0.000 C 
ATOM      5  C   UNL     1      49.601  29.111  49.261  0.00  0.00    +0.000 C 
ATOM      6  C   UNL     1      49.084  30.272  48.406  0.00  0.00    +0.000 C 
ATOM      7  H   UNL     1      47.215  29.732  49.255  0.00  0.00    +0.000 HD
ATOM      8  H   UNL     1      47.093  29.109  46.365  0.00  0.00    +0.000 HD
ATOM      9  H   UNL     1      46.675  28.107  47.780  0.00  0.00    +0.000 HD
ATOM     10  H   UNL     1      48.473  27.004  46.791  0.00  0.00    +0.000 HD
ATOM     11  H   UNL     1      49.341  28.505  46.392  0.00  0.00    +0.000 HD
ATOM     12  H   UNL     1      50.519  27.536  48.172  0.00  0.00    +0.000 HD
ATOM     13  H   UNL     1      49.068  27.026  49.064  0.00  0.00    +0.000 HD
ATOM     14  H   UNL     1      50.635  29.336  49.580  0.00  0.00    +0.000 HD
ATOM     15  H   UNL     1      48.963  29.065  50.158  0.00  0.00    +0.000 HD
ATOM     16  H   UNL     1      49.590  30.332  47.435  0.00  0.00    +0.000 HD
ENDROOT
BRANCH   1  20
ATOM     17  C   UNL     1      45.922  33.153  46.251  0.00  0.00    +0.000 A 
ATOM     18  C   UNL     1      45.352  32.949  47.504  0.00  0.00    +0.000 A 
ATOM     19  C   UNL     1      45.816  31.941  48.247  0.00  0.00    +0.000 A 
ATOM     20  C   UNL     1      46.843  31.119  47.776  0.00  0.00    +0.000 A 
ATOM     21  S   UNL     1      47.178  31.832  46.148  0.00  0.00    +0.000 S 
ATOM     22  H   UNL     1      44.559  33.596  47.853  0.00  0.00    +0.000 HD
ATOM     23  H   UNL     1      45.489  31.647  49.231  0.00  0.00    +0.000 HD
BRANCH  17  28
ATOM     24  C   UNL     1      44.415  36.098  44.544  0.00  0.00    +0.000 A 
ATOM     25  C   UNL     1      45.050  36.013  43.285  0.00  0.00    +0.000 A 
ATOM     26  C   UNL     1      45.966  34.948  43.081  0.00  0.00    +0.000 A 
ATOM     27  N   UNL     1      46.167  34.086  44.111  0.00  0.00    +0.000 NA
ATOM     28  C   UNL     1      45.537  34.211  45.289  0.00  0.00    +0.000 A 
ATOM     29  N   UNL     1      44.655  35.219  45.515  0.00  0.00    +0.000 NA
ATOM     30  H   UNL     1      43.722  36.899  44.705  0.00  0.00    +0.000 HD
ATOM     31  H   UNL     1      44.878  36.709  42.474  0.00  0.00    +0.000 HD
ATOM     32  H   UNL     1      46.497  34.805  42.152  0.00  0.00    +0.000 HD
ENDBRANCH  17  28
ENDBRANCH   1  20
BRANCH   6  33
ATOM     33  C   UNL     1      49.224  31.518  49.223  0.00  0.00    +0.000 C 
ATOM     34  O   UNL     1      49.904  31.598  50.258  0.00  0.00    +0.000 OA
BRANCH  33  35
ATOM     35  O   UNL     1      48.596  32.713  48.889  0.00  0.00    +0.000 OA
ATOM     36  H   UNL     1      47.787  32.721  48.247  0.00  0.00    +0.000 HD
ENDBRANCH  33  35
ENDBRANCH   6  33
TORSDOF 4
