
     RDKit          3D

 22 23  0  0  0  0  0  0  0  0999 V2000
   46.2644   34.7526   43.2418 C   0  0  0  0  0  0  0  0  0  0  0  0
   45.3030   35.7467   43.5916 C   0  0  0  0  0  0  0  0  0  0  0  0
   44.6594   35.5753   44.8171 C   0  0  0  0  0  0  0  0  0  0  0  0
   44.9796   34.5005   45.5818 N   0  0  0  0  0  0  0  0  0  0  0  0
   45.9171   33.5839   45.1772 C   0  0  0  0  0  0  0  0  0  0  0  0
   46.5643   33.6833   44.0308 N   0  0  0  0  0  0  0  0  0  0  0  0
   46.2250   32.4335   46.0821 C   0  0  1  0  0  0  0  0  0  0  0  0
   47.0339   32.6860   47.3342 C   0  0  0  0  0  0  0  0  0  0  0  0
   45.5446   32.4842   47.3931 C   0  0  1  0  0  0  0  0  0  0  0  0
   44.8445   33.7114   47.7927 N   0  0  0  0  0  0  0  0  0  0  0  0
   46.9253   34.9564   41.9723 C   0  0  0  0  0  0  0  0  0  0  0  0
   48.0740   35.5063   41.8534 O   0  0  0  0  0  0  0  0  0  0  0  0
   45.1128   36.5643   42.9251 H   0  0  0  0  0  0  0  0  0  0  0  0
   43.9320   36.2942   45.1211 H   0  0  0  0  0  0  0  0  0  0  0  0
   46.4059   31.4659   45.5937 H   0  0  0  0  0  0  0  0  0  0  0  0
   47.6579   31.8626   47.7004 H   0  0  0  0  0  0  0  0  0  0  0  0
   47.4735   33.7051   47.3632 H   0  0  0  0  0  0  0  0  0  0  0  0
   45.1948   31.5844   47.8974 H   0  0  0  0  0  0  0  0  0  0  0  0
   45.1586   33.9734   48.7318 H   0  0  0  0  0  0  0  0  0  0  0  0
   43.8278   33.6719   47.6318 H   0  0  0  0  0  0  0  0  0  0  0  0
   46.3259   34.5504   40.7643 O   0  0  0  0  0  0  0  0  0  0  0  0
   46.5882   34.9967   39.8871 H   0  0  0  0  0  0  0  0  0  0  0  0
  1  2  2  0
  1  6  1  0
  2  3  1  0
  3  4  2  0
  5  4  1  0
  5  7  1  0
  6  5  2  0
  7  8  1  0
  7  9  1  0
  8  9  1  0
  9 10  1  0
 11  1  1  0
 12 11  2  0
  2 13  1  0
  3 14  1  0
  7 15  1  6
  8 16  1  0
  8 17  1  0
  9 18  1  1
 10 19  1  0
 10 20  1  0
 21 22  1  0
 11 21  1  0
M  ISO  8  13  14  14  14  15  13  16  13  17  13  18  13  19   5  20   5
M  ISO  1  22   3
M  END
>  <DihAtoms>  (1) 
0,10,20,21

>  <DihDeg>  (1) 
-144.0298651459738

$$$$
