
     RDKit          3D

 17 17  0  0  0  0  0  0  0  0999 V2000
   45.3086   34.5574   45.0295 C   0  0  0  0  0  0  0  0  0  0  0  0
   45.2648   33.9403   46.2674 C   0  0  0  0  0  0  0  0  0  0  0  0
   46.1628   32.9079   46.4766 C   0  0  0  0  0  0  0  0  0  0  0  0
   46.9999   32.5823   45.4803 N   0  0  0  0  0  0  0  0  0  0  0  0
   47.0209   33.2003   44.2842 C   0  0  0  0  0  0  0  0  0  0  0  0
   46.1583   34.2155   44.0396 N   0  0  0  0  0  0  0  0  0  0  0  0
   43.9682   35.3816   43.3006 C   0  0  0  0  0  0  0  0  0  0  0  0
   44.4083   34.2858   42.8395 O   0  0  0  0  0  0  0  0  0  0  0  0
   44.4538   35.6553   44.6153 N   0  0  0  0  0  0  0  0  0  0  0  0
   44.3084   34.4245   47.1959 N   0  0  0  0  0  0  0  0  0  0  0  0
   46.1216   32.4346   47.4407 H   0  0  0  0  0  0  0  0  0  0  0  0
   47.7467   32.8226   43.5988 H   0  0  0  0  0  0  0  0  0  0  0  0
   44.1953   36.5120   45.1211 H   0  0  0  0  0  0  0  0  0  0  0  0
   43.3082   34.1719   47.3036 H   0  0  0  0  0  0  0  0  0  0  0  0
   44.7449   35.1375   47.8346 H   0  0  0  0  0  0  0  0  0  0  0  0
   43.1006   36.2722   42.6483 O   0  0  0  0  0  0  0  0  0  0  0  0
   43.1936   36.2751   41.6202 H   0  0  0  0  0  0  0  0  0  0  0  0
  1  2  2  0
  2  3  1  0
  2 10  1  0
  4  3  2  0
  5  4  1  0
  6  5  2  0
  6  1  1  0
  7  9  1  0
  8  7  2  0
  9  1  1  0
  3 11  1  0
  5 12  1  0
  9 13  1  0
 10 14  1  0
 10 15  1  0
 16 17  1  0
  7 16  1  0
M  ISO  3  11  14  12  14  17   3
M  END
>  <DihAtoms>  (1) 
8,6,15,16

>  <DihDeg>  (1) 
-165.31912044622953

$$$$
