
 OpenBabel03242510183D

 22 23  0  0  1  0  0  0  0  0999 V2000
   46.1830   33.5990   41.7120 C   0  0  1  0  0  0  0  0  0  0  0  0
   46.9470   34.3500   40.7650 C   0  0  0  0  0  0  0  0  0  0  0  0
   47.6750   33.3800   41.6570 C   0  0  1  0  0  0  0  0  0  0  0  0
   45.5240   32.7760   41.4120 H   0  0  0  0  0  0  0  0  0  0  0  0
   46.8920   34.0910   39.6920 H   0  0  0  0  0  0  0  0  0  0  0  0
   47.2550   35.4160   40.9020 H   0  0  0  0  0  0  0  0  0  0  0  0
   48.1020   32.5380   41.1110 H   0  0  0  0  0  0  0  0  0  0  0  0
   45.2950   35.6880   42.9310 C   0  0  0  0  0  0  0  0  0  0  0  0
   45.6490   34.3100   42.9480 C   0  0  0  0  0  0  0  0  0  0  0  0
   45.5070   33.6160   44.1210 C   0  0  0  0  0  0  0  0  0  0  0  0
   45.0420   34.2520   45.2140 N   0  0  0  0  0  0  0  0  0  0  0  0
   44.7010   35.5700   45.2070 C   0  0  0  0  0  0  0  0  0  0  0  0
   44.8330   36.2980   44.0340 N   0  0  0  0  0  0  0  0  0  0  0  0
   45.4110   36.2150   42.0120 H   0  0  0  0  0  0  0  0  0  0  0  0
   45.7720   32.5710   44.1480 H   0  0  0  0  0  0  0  0  0  0  0  0
   44.3430   35.9520   46.1510 H   0  0  0  0  0  0  0  0  0  0  0  0
   48.4230   33.8770   42.7640 N   0  0  0  0  0  0  0  0  0  0  0  0
   49.7820   34.1500   42.6750 C   0  0  0  0  0  0  0  0  0  0  0  0
   50.7370   33.4540   42.2440 O   0  0  0  0  0  0  0  0  0  0  0  0
   47.9880   34.0710   43.7180 H   0  0  0  0  0  0  0  0  0  0  0  0
   50.3130   35.3880   43.1120 O   0  0  0  0  0  0  0  0  0  0  0  0
   49.8460   36.0270   43.7070 H   0  0  0  0  0  0  0  0  0  0  0  0
  1  4  1  6  0  0  0
  1  9  1  0  0  0  0
  2  6  1  0  0  0  0
  2  3  1  0  0  0  0
  2  1  1  0  0  0  0
  3  7  1  6  0  0  0
  3  1  1  0  0  0  0
  3 17  1  0  0  0  0
  5  2  1  0  0  0  0
  8  9  2  0  0  0  0
  8 13  1  0  0  0  0
  9 10  1  0  0  0  0
 10 15  1  0  0  0  0
 10 11  2  0  0  0  0
 12 11  1  0  0  0  0
 12 16  1  0  0  0  0
 13 12  2  0  0  0  0
 14  8  1  0  0  0  0
 17 20  1  0  0  0  0
 18 17  1  0  0  0  0
 18 21  1  0  0  0  0
 19 18  2  0  0  0  0
 21 22  1  0  0  0  0
M  END
>  <minimizedAffinity>
-4.62223482

>  <minimizedRMSD>
0.497758597

$$$$
