REMARK  Name = 
REMARK  4 active torsions:
REMARK  status: ('A' for Active; 'I' for Inactive)
REMARK    1  A    between atoms: C_1  and  O_12
REMARK    2  A    between atoms: C_2  and  C_7
REMARK    3  A    between atoms: O_12  and  C_13
REMARK    4  A    between atoms: C_13  and  O_20
REMARK                            x       y       z     vdW  Elec       q    Type
REMARK                         _______ _______ _______ _____ _____    ______ ____
ROOT
ATOM      1  C   UNL     1      46.084  34.150  41.004  0.00  0.00    +0.000 A 
ATOM      2  C   UNL     1      46.618  34.826  42.098  0.00  0.00    +0.000 A 
ATOM      3  C   UNL     1      47.935  35.278  41.983  0.00  0.00    +0.000 A 
ATOM      4  N   UNL     1      48.606  35.034  40.828  0.00  0.00    +0.000 NA
ATOM      5  C   UNL     1      48.052  34.381  39.807  0.00  0.00    +0.000 A 
ATOM      6  N   UNL     1      46.780  33.931  39.884  0.00  0.00    +0.000 NA
ATOM      7  H   UNL     1      48.379  35.813  42.830  0.00  0.00    +0.000 HD
ATOM      8  H   UNL     1      48.575  34.179  38.881  0.00  0.00    +0.000 HD
ENDROOT
BRANCH   2   9
ATOM      9  C   UNL     1      45.811  35.036  43.294  0.00  0.00    +0.000 A 
ATOM     10  C   UNL     1      45.051  36.177  43.494  0.00  0.00    +0.000 A 
ATOM     11  C   UNL     1      44.461  35.973  44.721  0.00  0.00    +0.000 A 
ATOM     12  N   UNL     1      44.842  34.774  45.235  0.00  0.00    +0.000 N 
ATOM     13  N   UNL     1      45.651  34.237  44.357  0.00  0.00    +0.000 NA
ATOM     14  H   UNL     1      44.946  37.029  42.840  0.00  0.00    +0.000 HD
ATOM     15  H   UNL     1      43.788  36.730  45.147  0.00  0.00    +0.000 HD
ATOM     16  H   UNL     1      44.473  34.481  46.165  0.00  0.00    +0.000 HD
ENDBRANCH   2   9
BRANCH   1  17
ATOM     17  O   UNL     1      44.774  33.700  41.117  0.00  0.00    +0.000 OA
BRANCH  17  18
ATOM     18  C   UNL     1      43.704  34.205  40.410  0.00  0.00    +0.000 C 
ATOM     19  O   UNL     1      43.240  35.389  40.431  0.00  0.00    +0.000 OA
BRANCH  18  20
ATOM     20  O   UNL     1      42.727  33.812  39.477  0.00  0.00    +0.000 OA
ATOM     21  H   UNL     1      42.014  34.446  39.126  0.00  0.00    +0.000 HD
ENDBRANCH  18  20
ENDBRANCH  17  18
ENDBRANCH   1  17
TORSDOF 4
