
 OpenBabel03252502123D

 30 32  0  0  0  0  0  0  0  0999 V2000
   42.4640   33.9240   41.0790 Cl  0  0  0  0  0  0  0  0  0  0  0  0
   44.0350   33.6890   40.3550 C   0  0  0  0  0  0  0  0  0  0  0  0
   45.1820   33.9400   41.0290 C   0  0  0  0  0  0  0  0  0  0  0  0
   46.3480   33.7150   40.3480 C   0  0  0  0  0  0  0  0  0  0  0  0
   46.4030   33.2650   39.0680 C   0  0  0  0  0  0  0  0  0  0  0  0
   45.2310   33.0150   38.3950 C   0  0  0  0  0  0  0  0  0  0  0  0
   44.0530   33.2310   39.0510 C   0  0  0  0  0  0  0  0  0  0  0  0
   47.3560   33.1020   38.5680 H   0  0  0  0  0  0  0  0  0  0  0  0
   45.2270   32.6530   37.3670 H   0  0  0  0  0  0  0  0  0  0  0  0
   43.1350   33.0300   38.5140 H   0  0  0  0  0  0  0  0  0  0  0  0
   44.7780   36.1720   44.0550 C   0  0  0  0  0  0  0  0  0  0  0  0
   44.8530   35.7410   42.7240 C   0  0  0  0  0  0  0  0  0  0  0  0
   45.0990   34.4200   42.3980 C   0  0  0  0  0  0  0  0  0  0  0  0
   45.2640   33.5620   43.4510 N   0  0  0  0  0  0  0  0  0  0  0  0
   45.1910   33.9840   44.7270 C   0  0  0  0  0  0  0  0  0  0  0  0
   44.9540   35.2550   45.0370 N   0  0  0  0  0  0  0  0  0  0  0  0
   44.5880   37.1960   44.3060 H   0  0  0  0  0  0  0  0  0  0  0  0
   44.7130   36.4680   41.9430 H   0  0  0  0  0  0  0  0  0  0  0  0
   45.3400   33.2040   45.4610 H   0  0  0  0  0  0  0  0  0  0  0  0
   47.6250   33.9830   41.0650 C   0  0  0  0  0  0  0  0  0  0  0  0
   48.2860   32.8860   41.6080 C   0  0  0  0  0  0  0  0  0  0  0  0
   49.4430   33.2390   42.2420 C   0  0  0  0  0  0  0  0  0  0  0  0
   49.9620   34.4930   42.3720 C   0  0  0  0  0  0  0  0  0  0  0  0
   49.2290   35.5340   41.7930 C   0  0  0  0  0  0  0  0  0  0  0  0
   48.0860   35.2100   41.1650 N   0  0  0  0  0  0  0  0  0  0  0  0
   47.9310   31.8630   41.5420 H   0  0  0  0  0  0  0  0  0  0  0  0
   50.0280   32.4040   42.7030 H   0  0  0  0  0  0  0  0  0  0  0  0
   50.8700   34.7520   42.8710 H   0  0  0  0  0  0  0  0  0  0  0  0
   49.5920   36.8590   41.8220 O   0  0  0  0  0  0  0  0  0  0  0  0
   50.1450   37.1670   42.6170 H   0  0  0  0  0  0  0  0  0  0  0  0
  2  3  1  0  0  0  0
  2  1  1  0  0  0  0
  3 13  1  0  0  0  0
  4  3  2  0  0  0  0
  4 20  1  0  0  0  0
  5  4  1  0  0  0  0
  6  7  1  0  0  0  0
  6  5  2  0  0  0  0
  7  2  2  0  0  0  0
  8  5  1  0  0  0  0
  9  6  1  0  0  0  0
 10  7  1  0  0  0  0
 11 17  1  0  0  0  0
 11 16  1  0  0  0  0
 12 11  2  0  0  0  0
 13 12  1  0  0  0  0
 13 14  2  0  0  0  0
 14 15  1  0  0  0  0
 15 16  2  0  0  0  0
 15 19  1  0  0  0  0
 18 12  1  0  0  0  0
 20 25  2  0  0  0  0
 20 21  1  0  0  0  0
 21 22  2  0  0  0  0
 22 23  1  0  0  0  0
 22 27  1  0  0  0  0
 23 28  1  0  0  0  0
 24 29  1  0  0  0  0
 24 23  2  0  0  0  0
 25 24  1  0  0  0  0
 26 21  1  0  0  0  0
 29 30  1  0  0  0  0
M  END
>  <minimizedAffinity>
-5.45623684

>  <minimizedRMSD>
0.2479534

$$$$
