
 OpenBabel03252507353D

 24 26  0  0  0  0  0  0  0  0999 V2000
   48.1780   35.0600   41.9330 C   0  0  0  0  0  0  0  0  0  0  0  0
   47.0610   34.2550   42.0960 C   0  0  0  0  0  0  0  0  0  0  0  0
   46.5120   33.6620   40.9860 C   0  0  0  0  0  0  0  0  0  0  0  0
   47.0280   33.8370   39.7180 C   0  0  0  0  0  0  0  0  0  0  0  0
   46.6610   33.3620   38.5050 N   0  0  0  0  0  0  0  0  0  0  0  0
   47.5430   33.8670   37.5780 C   0  0  0  0  0  0  0  0  0  0  0  0
   48.4380   34.6420   38.2380 N   0  0  0  0  0  0  0  0  0  0  0  0
   48.1400   34.6380   39.5470 C   0  0  0  0  0  0  0  0  0  0  0  0
   48.7080   35.2450   40.6540 C   0  0  0  0  0  0  0  0  0  0  0  0
   48.7080   35.5860   42.7240 H   0  0  0  0  0  0  0  0  0  0  0  0
   45.6470   33.0450   41.1460 H   0  0  0  0  0  0  0  0  0  0  0  0
   45.8330   32.7280   38.3910 H   0  0  0  0  0  0  0  0  0  0  0  0
   47.3800   33.5750   36.5470 H   0  0  0  0  0  0  0  0  0  0  0  0
   49.5690   35.8520   40.4500 H   0  0  0  0  0  0  0  0  0  0  0  0
   45.1140   34.6230   45.3110 C   0  0  0  0  0  0  0  0  0  0  0  0
   45.5290   34.8690   43.9790 C   0  0  0  0  0  0  0  0  0  0  0  0
   46.5500   34.0980   43.4480 C   0  0  0  0  0  0  0  0  0  0  0  0
   47.1080   33.1450   44.2230 N   0  0  0  0  0  0  0  0  0  0  0  0
   46.7030   32.9200   45.4970 C   0  0  0  0  0  0  0  0  0  0  0  0
   45.7210   33.6530   46.0230 N   0  0  0  0  0  0  0  0  0  0  0  0
   45.0990   35.6140   43.3580 H   0  0  0  0  0  0  0  0  0  0  0  0
   47.1450   32.1580   46.1260 H   0  0  0  0  0  0  0  0  0  0  0  0
   44.0910   35.3960   45.8410 O   0  0  0  0  0  0  0  0  0  0  0  0
   43.8510   35.4100   46.8170 H   0  0  0  0  0  0  0  0  0  0  0  0
  1  2  1  0  0  0  0
  1 10  1  0  0  0  0
  2 17  1  0  0  0  0
  3 11  1  0  0  0  0
  3  2  2  0  0  0  0
  4  3  1  0  0  0  0
  5  4  1  0  0  0  0
  6  7  2  0  0  0  0
  6  5  1  0  0  0  0
  7  8  1  0  0  0  0
  8  4  2  0  0  0  0
  8  9  1  0  0  0  0
  9  1  2  0  0  0  0
 12  5  1  0  0  0  0
 13  6  1  0  0  0  0
 14  9  1  0  0  0  0
 15 23  1  0  0  0  0
 15 20  1  0  0  0  0
 16 15  2  0  0  0  0
 17 16  1  0  0  0  0
 17 18  2  0  0  0  0
 18 19  1  0  0  0  0
 19 20  2  0  0  0  0
 19 22  1  0  0  0  0
 21 16  1  0  0  0  0
 23 24  1  0  0  0  0
M  END
>  <minimizedAffinity>
-5.60776663

>  <minimizedRMSD>
1.01608479

$$$$
