
 OpenBabel03252507353D

 24 26  0  0  0  0  0  0  0  0999 V2000
   37.6600   28.9900   42.9040 C   0  0  0  0  0  0  0  0  0  0  0  0
   37.8170   29.2500   41.5500 C   0  0  0  0  0  0  0  0  0  0  0  0
   37.6530   28.2170   40.6600 C   0  0  0  0  0  0  0  0  0  0  0  0
   37.3410   26.9340   41.0600 C   0  0  0  0  0  0  0  0  0  0  0  0
   37.1360   25.7840   40.3760 N   0  0  0  0  0  0  0  0  0  0  0  0
   36.8520   24.8000   41.2950 C   0  0  0  0  0  0  0  0  0  0  0  0
   36.8860   25.3630   42.5280 N   0  0  0  0  0  0  0  0  0  0  0  0
   37.1840   26.6660   42.4070 C   0  0  0  0  0  0  0  0  0  0  0  0
   37.3440   27.6940   43.3190 C   0  0  0  0  0  0  0  0  0  0  0  0
   37.7610   29.7130   43.7100 H   0  0  0  0  0  0  0  0  0  0  0  0
   37.7810   28.4520   39.6200 H   0  0  0  0  0  0  0  0  0  0  0  0
   37.2050   25.7480   39.3300 H   0  0  0  0  0  0  0  0  0  0  0  0
   36.6620   23.8090   40.8980 H   0  0  0  0  0  0  0  0  0  0  0  0
   37.2080   27.4170   44.3480 H   0  0  0  0  0  0  0  0  0  0  0  0
   37.6750   32.8050   40.2830 C   0  0  0  0  0  0  0  0  0  0  0  0
   37.2380   31.4980   40.6110 C   0  0  0  0  0  0  0  0  0  0  0  0
   38.1460   30.6150   41.1730 C   0  0  0  0  0  0  0  0  0  0  0  0
   39.4100   31.0370   41.3840 N   0  0  0  0  0  0  0  0  0  0  0  0
   39.8170   32.2900   41.0660 C   0  0  0  0  0  0  0  0  0  0  0  0
   38.9550   33.1530   40.5250 N   0  0  0  0  0  0  0  0  0  0  0  0
   36.2480   31.1530   40.4510 H   0  0  0  0  0  0  0  0  0  0  0  0
   40.8280   32.6370   41.2320 H   0  0  0  0  0  0  0  0  0  0  0  0
   36.7650   33.6880   39.7210 O   0  0  0  0  0  0  0  0  0  0  0  0
   37.0240   34.5650   39.3040 H   0  0  0  0  0  0  0  0  0  0  0  0
  1  9  1  0  0  0  0
  1 10  1  0  0  0  0
  2  1  2  0  0  0  0
  3  4  2  0  0  0  0
  3  2  1  0  0  0  0
  4  8  1  0  0  0  0
  5  4  1  0  0  0  0
  5  6  1  0  0  0  0
  6  7  2  0  0  0  0
  8  7  1  0  0  0  0
  8  9  2  0  0  0  0
  9 14  1  0  0  0  0
 11  3  1  0  0  0  0
 12  5  1  0  0  0  0
 13  6  1  0  0  0  0
 15 20  2  0  0  0  0
 15 16  1  0  0  0  0
 16 17  2  0  0  0  0
 17 18  1  0  0  0  0
 17  2  1  0  0  0  0
 19 22  1  0  0  0  0
 19 18  2  0  0  0  0
 20 19  1  0  0  0  0
 21 16  1  0  0  0  0
 23 15  1  0  0  0  0
 24 23  1  0  0  0  0
M  END
>  <minimizedAffinity>
-5.08411407

$$$$

 OpenBabel03252507353D

 24 26  0  0  0  0  0  0  0  0999 V2000
   40.2430   29.7140   42.0000 C   0  0  0  0  0  0  0  0  0  0  0  0
   39.3070   30.3490   41.1980 C   0  0  0  0  0  0  0  0  0  0  0  0
   37.9930   29.9610   41.2900 C   0  0  0  0  0  0  0  0  0  0  0  0
   37.5710   28.9660   42.1470 C   0  0  0  0  0  0  0  0  0  0  0  0
   36.3540   28.4290   42.4010 N   0  0  0  0  0  0  0  0  0  0  0  0
   36.5210   27.4570   43.3600 C   0  0  0  0  0  0  0  0  0  0  0  0
   37.8380   27.4140   43.6800 N   0  0  0  0  0  0  0  0  0  0  0  0
   38.4970   28.3270   42.9490 C   0  0  0  0  0  0  0  0  0  0  0  0
   39.8260   28.7040   42.8710 C   0  0  0  0  0  0  0  0  0  0  0  0
   41.3110   29.9240   42.0260 H   0  0  0  0  0  0  0  0  0  0  0  0
   37.2930   30.4720   40.6550 H   0  0  0  0  0  0  0  0  0  0  0  0
   35.4930   28.7610   41.9020 H   0  0  0  0  0  0  0  0  0  0  0  0
   35.6280   26.9290   43.6740 H   0  0  0  0  0  0  0  0  0  0  0  0
   40.4920   28.1690   43.5220 H   0  0  0  0  0  0  0  0  0  0  0  0
   40.1700   32.4320   38.1680 C   0  0  0  0  0  0  0  0  0  0  0  0
   39.6530   31.3560   38.9320 C   0  0  0  0  0  0  0  0  0  0  0  0
   39.7950   31.3910   40.3090 C   0  0  0  0  0  0  0  0  0  0  0  0
   40.4200   32.4490   40.8670 N   0  0  0  0  0  0  0  0  0  0  0  0
   40.9120   33.4720   40.1250 C   0  0  0  0  0  0  0  0  0  0  0  0
   40.7830   33.4540   38.7980 N   0  0  0  0  0  0  0  0  0  0  0  0
   39.1590   30.5190   38.5080 H   0  0  0  0  0  0  0  0  0  0  0  0
   41.4140   34.3240   40.5630 H   0  0  0  0  0  0  0  0  0  0  0  0
   40.0270   32.3950   36.7890 O   0  0  0  0  0  0  0  0  0  0  0  0
   40.5060   33.0180   36.1620 H   0  0  0  0  0  0  0  0  0  0  0  0
  1 10  1  0  0  0  0
  1  9  1  0  0  0  0
  2  3  1  0  0  0  0
  2  1  2  0  0  0  0
  3  4  2  0  0  0  0
  4  5  1  0  0  0  0
  4  8  1  0  0  0  0
  5  6  1  0  0  0  0
  6 13  1  0  0  0  0
  6  7  2  0  0  0  0
  8  7  1  0  0  0  0
  9  8  2  0  0  0  0
  9 14  1  0  0  0  0
 11  3  1  0  0  0  0
 12  5  1  0  0  0  0
 15 20  2  0  0  0  0
 15 16  1  0  0  0  0
 16 17  2  0  0  0  0
 17 18  1  0  0  0  0
 17  2  1  0  0  0  0
 19 22  1  0  0  0  0
 19 18  2  0  0  0  0
 20 19  1  0  0  0  0
 21 16  1  0  0  0  0
 23 15  1  0  0  0  0
 24 23  1  0  0  0  0
M  END
>  <minimizedAffinity>
-5.06342554

$$$$

 OpenBabel03252507353D

 24 26  0  0  0  0  0  0  0  0999 V2000
   36.8330   28.5060   41.8010 C   0  0  0  0  0  0  0  0  0  0  0  0
   37.1070   28.4780   40.4420 C   0  0  0  0  0  0  0  0  0  0  0  0
   37.3090   27.2620   39.8380 C   0  0  0  0  0  0  0  0  0  0  0  0
   37.2500   26.0700   40.5300 C   0  0  0  0  0  0  0  0  0  0  0  0
   37.4110   24.7800   40.1510 N   0  0  0  0  0  0  0  0  0  0  0  0
   37.2410   23.9950   41.2680 C   0  0  0  0  0  0  0  0  0  0  0  0
   36.9760   24.8170   42.3140 N   0  0  0  0  0  0  0  0  0  0  0  0
   36.9780   26.0880   41.8840 C   0  0  0  0  0  0  0  0  0  0  0  0
   36.7720   27.3040   42.5120 C   0  0  0  0  0  0  0  0  0  0  0  0
   36.6540   29.3970   42.4000 H   0  0  0  0  0  0  0  0  0  0  0  0
   37.5190   27.2750   38.7840 H   0  0  0  0  0  0  0  0  0  0  0  0
   37.6280   24.5230   39.1580 H   0  0  0  0  0  0  0  0  0  0  0  0
   37.3410   22.9250   41.1260 H   0  0  0  0  0  0  0  0  0  0  0  0
   36.5650   27.2460   43.5630 H   0  0  0  0  0  0  0  0  0  0  0  0
   37.1190   32.1620   39.6100 C   0  0  0  0  0  0  0  0  0  0  0  0
   37.0530   30.9810   40.3900 C   0  0  0  0  0  0  0  0  0  0  0  0
   37.1600   29.7560   39.7520 C   0  0  0  0  0  0  0  0  0  0  0  0
   37.3220   29.7400   38.4120 N   0  0  0  0  0  0  0  0  0  0  0  0
   37.3820   30.8760   37.6760 C   0  0  0  0  0  0  0  0  0  0  0  0
   37.2820   32.0640   38.2760 N   0  0  0  0  0  0  0  0  0  0  0  0
   36.9270   30.9790   41.4430 H   0  0  0  0  0  0  0  0  0  0  0  0
   37.5120   30.8730   36.6020 H   0  0  0  0  0  0  0  0  0  0  0  0
   37.0120   33.3870   40.2520 O   0  0  0  0  0  0  0  0  0  0  0  0
   36.8770   34.2590   39.7700 H   0  0  0  0  0  0  0  0  0  0  0  0
  1 10  1  0  0  0  0
  1  9  1  0  0  0  0
  2  1  2  0  0  0  0
  3  2  1  0  0  0  0
  3  4  2  0  0  0  0
  4  8  1  0  0  0  0
  5  4  1  0  0  0  0
  5  6  1  0  0  0  0
  6  7  2  0  0  0  0
  8  7  1  0  0  0  0
  8  9  2  0  0  0  0
  9 14  1  0  0  0  0
 11  3  1  0  0  0  0
 12  5  1  0  0  0  0
 13  6  1  0  0  0  0
 15 23  1  0  0  0  0
 15 16  1  0  0  0  0
 16 21  1  0  0  0  0
 17 16  2  0  0  0  0
 17  2  1  0  0  0  0
 18 17  1  0  0  0  0
 19 20  1  0  0  0  0
 19 18  2  0  0  0  0
 20 15  2  0  0  0  0
 22 19  1  0  0  0  0
 24 23  1  0  0  0  0
M  END
>  <minimizedAffinity>
-4.90023088

$$$$

 OpenBabel03252507353D

 24 26  0  0  0  0  0  0  0  0999 V2000
   36.4410   26.0830   39.5410 C   0  0  0  0  0  0  0  0  0  0  0  0
   37.2470   26.2890   40.6510 C   0  0  0  0  0  0  0  0  0  0  0  0
   37.8900   25.2080   41.2030 C   0  0  0  0  0  0  0  0  0  0  0  0
   37.7650   23.9310   40.6980 C   0  0  0  0  0  0  0  0  0  0  0  0
   38.2930   22.7410   41.0700 N   0  0  0  0  0  0  0  0  0  0  0  0
   37.8220   21.7870   40.1990 C   0  0  0  0  0  0  0  0  0  0  0  0
   37.0130   22.4080   39.3050 N   0  0  0  0  0  0  0  0  0  0  0  0
   36.9640   23.7170   39.5930 C   0  0  0  0  0  0  0  0  0  0  0  0
   36.3070   24.7930   39.0210 C   0  0  0  0  0  0  0  0  0  0  0  0
   35.8790   26.8480   39.0090 H   0  0  0  0  0  0  0  0  0  0  0  0
   38.5060   25.4010   42.0620 H   0  0  0  0  0  0  0  0  0  0  0  0
   38.9370   22.6600   41.8940 H   0  0  0  0  0  0  0  0  0  0  0  0
   38.1580   20.7700   40.3670 H   0  0  0  0  0  0  0  0  0  0  0  0
   35.7030   24.5580   38.1660 H   0  0  0  0  0  0  0  0  0  0  0  0
   36.5860   29.9080   41.5020 C   0  0  0  0  0  0  0  0  0  0  0  0
   36.3730   28.6130   40.9670 C   0  0  0  0  0  0  0  0  0  0  0  0
   37.3510   27.6490   41.1510 C   0  0  0  0  0  0  0  0  0  0  0  0
   38.4670   27.9850   41.8310 N   0  0  0  0  0  0  0  0  0  0  0  0
   38.6600   29.2270   42.3370 C   0  0  0  0  0  0  0  0  0  0  0  0
   37.7280   30.1670   42.1700 N   0  0  0  0  0  0  0  0  0  0  0  0
   35.5010   28.3360   40.4320 H   0  0  0  0  0  0  0  0  0  0  0  0
   39.5520   29.5050   42.8840 H   0  0  0  0  0  0  0  0  0  0  0  0
   35.6050   30.8710   41.3170 O   0  0  0  0  0  0  0  0  0  0  0  0
   35.7410   31.8490   41.5080 H   0  0  0  0  0  0  0  0  0  0  0  0
  1  2  1  0  0  0  0
  2 17  1  0  0  0  0
  2  3  2  0  0  0  0
  3 11  1  0  0  0  0
  4  5  1  0  0  0  0
  4  3  1  0  0  0  0
  5 12  1  0  0  0  0
  6 13  1  0  0  0  0
  6  5  1  0  0  0  0
  7  8  1  0  0  0  0
  7  6  2  0  0  0  0
  8  4  2  0  0  0  0
  9  1  2  0  0  0  0
  9  8  1  0  0  0  0
 10  1  1  0  0  0  0
 14  9  1  0  0  0  0
 15 20  1  0  0  0  0
 16 17  1  0  0  0  0
 16 15  2  0  0  0  0
 17 18  2  0  0  0  0
 18 19  1  0  0  0  0
 19 22  1  0  0  0  0
 20 19  2  0  0  0  0
 21 16  1  0  0  0  0
 23 15  1  0  0  0  0
 23 24  1  0  0  0  0
M  END
>  <minimizedAffinity>
-4.88221836

$$$$

 OpenBabel03252507353D

 24 26  0  0  0  0  0  0  0  0999 V2000
   40.8900   28.4610   42.8370 C   0  0  0  0  0  0  0  0  0  0  0  0
   40.0980   29.5580   42.5330 C   0  0  0  0  0  0  0  0  0  0  0  0
   40.6520   30.8120   42.6240 C   0  0  0  0  0  0  0  0  0  0  0  0
   41.9610   31.0200   43.0060 C   0  0  0  0  0  0  0  0  0  0  0  0
   42.7040   32.1400   43.1610 N   0  0  0  0  0  0  0  0  0  0  0  0
   43.9610   31.7520   43.5630 C   0  0  0  0  0  0  0  0  0  0  0  0
   43.9690   30.3990   43.6460 N   0  0  0  0  0  0  0  0  0  0  0  0
   42.7560   29.9320   43.3110 C   0  0  0  0  0  0  0  0  0  0  0  0
   42.2170   28.6600   43.2250 C   0  0  0  0  0  0  0  0  0  0  0  0
   40.5780   27.4190   42.8050 H   0  0  0  0  0  0  0  0  0  0  0  0
   40.0120   31.6400   42.3830 H   0  0  0  0  0  0  0  0  0  0  0  0
   42.3040   33.0930   42.9850 H   0  0  0  0  0  0  0  0  0  0  0  0
   44.6810   32.5450   43.7320 H   0  0  0  0  0  0  0  0  0  0  0  0
   42.8890   27.8610   43.4740 H   0  0  0  0  0  0  0  0  0  0  0  0
   36.4920   29.9080   41.4670 C   0  0  0  0  0  0  0  0  0  0  0  0
   37.8050   30.2870   41.8430 C   0  0  0  0  0  0  0  0  0  0  0  0
   38.7250   29.2940   42.1360 C   0  0  0  0  0  0  0  0  0  0  0  0
   38.3330   28.0060   42.0510 N   0  0  0  0  0  0  0  0  0  0  0  0
   37.0740   27.6550   41.6910 C   0  0  0  0  0  0  0  0  0  0  0  0
   36.1750   28.5990   41.4050 N   0  0  0  0  0  0  0  0  0  0  0  0
   38.1260   31.2950   41.9130 H   0  0  0  0  0  0  0  0  0  0  0  0
   36.7510   26.6250   41.6200 H   0  0  0  0  0  0  0  0  0  0  0  0
   35.5720   30.9030   41.1730 O   0  0  0  0  0  0  0  0  0  0  0  0
   34.5870   30.7370   41.0670 H   0  0  0  0  0  0  0  0  0  0  0  0
  1  9  1  0  0  0  0
  2  3  1  0  0  0  0
  2  1  2  0  0  0  0
  3  4  2  0  0  0  0
  4  5  1  0  0  0  0
  4  8  1  0  0  0  0
  5  6  1  0  0  0  0
  6  7  2  0  0  0  0
  6 13  1  0  0  0  0
  8  7  1  0  0  0  0
  9  8  2  0  0  0  0
  9 14  1  0  0  0  0
 10  1  1  0  0  0  0
 11  3  1  0  0  0  0
 12  5  1  0  0  0  0
 15 16  1  0  0  0  0
 16 21  1  0  0  0  0
 16 17  2  0  0  0  0
 17  2  1  0  0  0  0
 18 17  1  0  0  0  0
 19 18  2  0  0  0  0
 20 15  2  0  0  0  0
 20 19  1  0  0  0  0
 22 19  1  0  0  0  0
 23 15  1  0  0  0  0
 24 23  1  0  0  0  0
M  END
>  <minimizedAffinity>
-4.87380219

$$$$

 OpenBabel03252507353D

 24 26  0  0  0  0  0  0  0  0999 V2000
   36.9040   30.0180   40.8690 C   0  0  0  0  0  0  0  0  0  0  0  0
   38.1000   29.8020   41.5380 C   0  0  0  0  0  0  0  0  0  0  0  0
   38.9980   30.8380   41.6260 C   0  0  0  0  0  0  0  0  0  0  0  0
   38.7570   32.0790   41.0750 C   0  0  0  0  0  0  0  0  0  0  0  0
   39.4810   33.2230   41.0390 N   0  0  0  0  0  0  0  0  0  0  0  0
   38.7450   34.1580   40.3490 C   0  0  0  0  0  0  0  0  0  0  0  0
   37.5800   33.5720   39.9730 N   0  0  0  0  0  0  0  0  0  0  0  0
   37.5690   32.3020   40.4070 C   0  0  0  0  0  0  0  0  0  0  0  0
   36.6500   31.2720   40.3070 C   0  0  0  0  0  0  0  0  0  0  0  0
   36.1100   29.2880   40.7270 H   0  0  0  0  0  0  0  0  0  0  0  0
   39.9150   30.6380   42.1500 H   0  0  0  0  0  0  0  0  0  0  0  0
   40.4270   33.2880   41.4860 H   0  0  0  0  0  0  0  0  0  0  0  0
   39.1940   35.1370   40.2320 H   0  0  0  0  0  0  0  0  0  0  0  0
   35.7490   31.5130   39.7770 H   0  0  0  0  0  0  0  0  0  0  0  0
   37.7900   26.1570   42.4750 C   0  0  0  0  0  0  0  0  0  0  0  0
   37.4790   27.4000   41.8690 C   0  0  0  0  0  0  0  0  0  0  0  0
   38.3140   28.4800   42.1020 C   0  0  0  0  0  0  0  0  0  0  0  0
   39.3890   28.3040   42.8990 N   0  0  0  0  0  0  0  0  0  0  0  0
   39.6750   27.1110   43.4740 C   0  0  0  0  0  0  0  0  0  0  0  0
   38.8820   26.0600   43.2580 N   0  0  0  0  0  0  0  0  0  0  0  0
   36.6380   27.5520   41.2410 H   0  0  0  0  0  0  0  0  0  0  0  0
   40.5350   26.9600   44.1130 H   0  0  0  0  0  0  0  0  0  0  0  0
   36.9530   25.0770   42.2390 O   0  0  0  0  0  0  0  0  0  0  0  0
   36.9960   24.2150   42.7560 H   0  0  0  0  0  0  0  0  0  0  0  0
  1  2  1  0  0  0  0
  2  3  2  0  0  0  0
  2 17  1  0  0  0  0
  3 11  1  0  0  0  0
  4  3  1  0  0  0  0
  5  4  1  0  0  0  0
  5 12  1  0  0  0  0
  6  5  1  0  0  0  0
  7  6  2  0  0  0  0
  7  8  1  0  0  0  0
  8  4  2  0  0  0  0
  9  8  1  0  0  0  0
  9  1  2  0  0  0  0
 10  1  1  0  0  0  0
 13  6  1  0  0  0  0
 14  9  1  0  0  0  0
 15 20  1  0  0  0  0
 16 17  1  0  0  0  0
 16 15  2  0  0  0  0
 17 18  2  0  0  0  0
 18 19  1  0  0  0  0
 19 22  1  0  0  0  0
 20 19  2  0  0  0  0
 21 16  1  0  0  0  0
 23 15  1  0  0  0  0
 23 24  1  0  0  0  0
M  END
>  <minimizedAffinity>
-4.86048651

$$$$

 OpenBabel03252507353D

 24 26  0  0  0  0  0  0  0  0999 V2000
   38.1550   30.7260   37.6860 C   0  0  0  0  0  0  0  0  0  0  0  0
   38.4040   31.4980   38.8120 C   0  0  0  0  0  0  0  0  0  0  0  0
   37.5670   31.3700   39.8930 C   0  0  0  0  0  0  0  0  0  0  0  0
   36.4910   30.5050   39.9020 C   0  0  0  0  0  0  0  0  0  0  0  0
   35.5520   30.2190   40.8340 N   0  0  0  0  0  0  0  0  0  0  0  0
   34.7130   29.2700   40.2980 C   0  0  0  0  0  0  0  0  0  0  0  0
   35.1510   28.9890   39.0460 N   0  0  0  0  0  0  0  0  0  0  0  0
   36.2360   29.7340   38.7840 C   0  0  0  0  0  0  0  0  0  0  0  0
   37.0690   29.8480   37.6850 C   0  0  0  0  0  0  0  0  0  0  0  0
   38.7380   30.7300   36.7670 H   0  0  0  0  0  0  0  0  0  0  0  0
   37.7860   31.9810   40.7480 H   0  0  0  0  0  0  0  0  0  0  0  0
   35.5470   30.6900   41.7700 H   0  0  0  0  0  0  0  0  0  0  0  0
   33.8990   28.9330   40.9300 H   0  0  0  0  0  0  0  0  0  0  0  0
   36.8150   29.2200   36.8520 H   0  0  0  0  0  0  0  0  0  0  0  0
   41.5280   33.3480   37.7740 C   0  0  0  0  0  0  0  0  0  0  0  0
   40.4510   32.4290   37.7120 C   0  0  0  0  0  0  0  0  0  0  0  0
   39.5460   32.3950   38.7610 C   0  0  0  0  0  0  0  0  0  0  0  0
   39.7290   33.2390   39.7980 N   0  0  0  0  0  0  0  0  0  0  0  0
   40.7630   34.1130   39.8460 C   0  0  0  0  0  0  0  0  0  0  0  0
   41.6430   34.1600   38.8440 N   0  0  0  0  0  0  0  0  0  0  0  0
   40.2960   31.7610   36.9040 H   0  0  0  0  0  0  0  0  0  0  0  0
   40.9170   34.7940   40.6730 H   0  0  0  0  0  0  0  0  0  0  0  0
   42.4330   33.3810   36.7230 O   0  0  0  0  0  0  0  0  0  0  0  0
   43.3100   33.8710   36.7580 H   0  0  0  0  0  0  0  0  0  0  0  0
  1  2  1  0  0  0  0
  2  3  2  0  0  0  0
  3  4  1  0  0  0  0
  3 11  1  0  0  0  0
  4  5  1  0  0  0  0
  5 12  1  0  0  0  0
  6  5  1  0  0  0  0
  6 13  1  0  0  0  0
  7  6  2  0  0  0  0
  8  7  1  0  0  0  0
  8  4  2  0  0  0  0
  9  1  2  0  0  0  0
  9  8  1  0  0  0  0
 10  1  1  0  0  0  0
 14  9  1  0  0  0  0
 15 20  1  0  0  0  0
 16 15  2  0  0  0  0
 16 17  1  0  0  0  0
 17  2  1  0  0  0  0
 17 18  2  0  0  0  0
 18 19  1  0  0  0  0
 19 22  1  0  0  0  0
 20 19  2  0  0  0  0
 21 16  1  0  0  0  0
 23 24  1  0  0  0  0
 23 15  1  0  0  0  0
M  END
>  <minimizedAffinity>
-4.82593393

$$$$

 OpenBabel03252507353D

 24 26  0  0  0  0  0  0  0  0999 V2000
   40.3900   32.3050   40.3880 C   0  0  0  0  0  0  0  0  0  0  0  0
   39.7070   32.0370   39.2110 C   0  0  0  0  0  0  0  0  0  0  0  0
   40.2630   32.4430   38.0230 C   0  0  0  0  0  0  0  0  0  0  0  0
   41.4720   33.1050   37.9560 C   0  0  0  0  0  0  0  0  0  0  0  0
   42.1960   33.5890   36.9200 N   0  0  0  0  0  0  0  0  0  0  0  0
   43.3330   34.1610   37.4410 C   0  0  0  0  0  0  0  0  0  0  0  0
   43.2880   34.0180   38.7890 N   0  0  0  0  0  0  0  0  0  0  0  0
   42.1580   33.3760   39.1240 C   0  0  0  0  0  0  0  0  0  0  0  0
   41.6150   32.9750   40.3310 C   0  0  0  0  0  0  0  0  0  0  0  0
   40.0640   32.0390   41.3920 H   0  0  0  0  0  0  0  0  0  0  0  0
   39.7090   32.2200   37.1300 H   0  0  0  0  0  0  0  0  0  0  0  0
   41.8660   33.4970   35.9290 H   0  0  0  0  0  0  0  0  0  0  0  0
   44.0240   34.5990   36.7290 H   0  0  0  0  0  0  0  0  0  0  0  0
   42.2000   33.2170   41.1980 H   0  0  0  0  0  0  0  0  0  0  0  0
   36.3450   30.7780   40.3830 C   0  0  0  0  0  0  0  0  0  0  0  0
   37.5540   31.5170   40.3780 C   0  0  0  0  0  0  0  0  0  0  0  0
   38.4380   31.3370   39.3270 C   0  0  0  0  0  0  0  0  0  0  0  0
   38.1110   30.4650   38.3500 N   0  0  0  0  0  0  0  0  0  0  0  0
   36.9520   29.7630   38.3660 C   0  0  0  0  0  0  0  0  0  0  0  0
   36.0890   29.9250   39.3710 N   0  0  0  0  0  0  0  0  0  0  0  0
   37.8230   32.2060   41.1380 H   0  0  0  0  0  0  0  0  0  0  0  0
   36.6810   29.0620   37.5880 H   0  0  0  0  0  0  0  0  0  0  0  0
   35.4610   30.9590   41.4360 O   0  0  0  0  0  0  0  0  0  0  0  0
   34.6710   30.3620   41.6100 H   0  0  0  0  0  0  0  0  0  0  0  0
  1 10  1  0  0  0  0
  2 17  1  0  0  0  0
  2  1  2  0  0  0  0
  3  2  1  0  0  0  0
  4  3  2  0  0  0  0
  4  8  1  0  0  0  0
  5  6  1  0  0  0  0
  5  4  1  0  0  0  0
  6  7  2  0  0  0  0
  7  8  1  0  0  0  0
  8  9  2  0  0  0  0
  9  1  1  0  0  0  0
  9 14  1  0  0  0  0
 11  3  1  0  0  0  0
 12  5  1  0  0  0  0
 13  6  1  0  0  0  0
 15 23  1  0  0  0  0
 16 15  1  0  0  0  0
 16 21  1  0  0  0  0
 17 16  2  0  0  0  0
 18 19  2  0  0  0  0
 18 17  1  0  0  0  0
 19 20  1  0  0  0  0
 20 15  2  0  0  0  0
 22 19  1  0  0  0  0
 23 24  1  0  0  0  0
M  END
>  <minimizedAffinity>
-4.77874947

$$$$

 OpenBabel03252507353D

 24 26  0  0  0  0  0  0  0  0999 V2000
   38.9720   28.8230   42.4980 C   0  0  0  0  0  0  0  0  0  0  0  0
   38.3920   28.4240   41.3020 C   0  0  0  0  0  0  0  0  0  0  0  0
   38.3750   27.0850   40.9960 C   0  0  0  0  0  0  0  0  0  0  0  0
   38.9100   26.1250   41.8300 C   0  0  0  0  0  0  0  0  0  0  0  0
   39.0030   24.7780   41.7370 N   0  0  0  0  0  0  0  0  0  0  0  0
   39.6400   24.3270   42.8700 C   0  0  0  0  0  0  0  0  0  0  0  0
   39.9260   25.4060   43.6410 N   0  0  0  0  0  0  0  0  0  0  0  0
   39.4890   26.5140   43.0230 C   0  0  0  0  0  0  0  0  0  0  0  0
   39.5170   27.8580   43.3490 C   0  0  0  0  0  0  0  0  0  0  0  0
   39.0520   29.8460   42.8600 H   0  0  0  0  0  0  0  0  0  0  0  0
   37.9190   26.8090   40.0630 H   0  0  0  0  0  0  0  0  0  0  0  0
   38.6270   24.2580   40.9080 H   0  0  0  0  0  0  0  0  0  0  0  0
   39.7920   23.2560   42.9450 H   0  0  0  0  0  0  0  0  0  0  0  0
   39.9800   28.0910   44.2890 H   0  0  0  0  0  0  0  0  0  0  0  0
   37.0850   31.7010   39.9550 C   0  0  0  0  0  0  0  0  0  0  0  0
   37.6290   30.7700   40.8740 C   0  0  0  0  0  0  0  0  0  0  0  0
   37.8410   29.4670   40.4530 C   0  0  0  0  0  0  0  0  0  0  0  0
   37.5200   29.1390   39.1840 N   0  0  0  0  0  0  0  0  0  0  0  0
   37.0000   30.0390   38.3140 C   0  0  0  0  0  0  0  0  0  0  0  0
   36.7900   31.2970   38.7030 N   0  0  0  0  0  0  0  0  0  0  0  0
   37.8860   31.0130   41.8740 H   0  0  0  0  0  0  0  0  0  0  0  0
   36.7390   29.7850   37.2950 H   0  0  0  0  0  0  0  0  0  0  0  0
   36.8740   33.0050   40.3790 O   0  0  0  0  0  0  0  0  0  0  0  0
   36.3410   33.6800   39.8590 H   0  0  0  0  0  0  0  0  0  0  0  0
  1 10  1  0  0  0  0
  1  9  1  0  0  0  0
  2  1  2  0  0  0  0
  3  2  1  0  0  0  0
  3  4  2  0  0  0  0
  4  8  1  0  0  0  0
  5  4  1  0  0  0  0
  5  6  1  0  0  0  0
  6 13  1  0  0  0  0
  6  7  2  0  0  0  0
  8  9  2  0  0  0  0
  8  7  1  0  0  0  0
  9 14  1  0  0  0  0
 11  3  1  0  0  0  0
 12  5  1  0  0  0  0
 15 23  1  0  0  0  0
 15 16  1  0  0  0  0
 16 21  1  0  0  0  0
 17 16  2  0  0  0  0
 17  2  1  0  0  0  0
 18 17  1  0  0  0  0
 19 20  1  0  0  0  0
 19 18  2  0  0  0  0
 20 15  2  0  0  0  0
 22 19  1  0  0  0  0
 24 23  1  0  0  0  0
M  END
>  <minimizedAffinity>
-4.71667814

$$$$
