
 OpenBabel03242514083D

 37 39  0  0  1  0  0  0  0  0999 V2000
   39.7150   32.3000   39.8650 C   0  0  0  0  0  0  0  0  0  0  0  0
   38.5920   33.0550   39.6450 C   0  0  0  0  0  0  0  0  0  0  0  0
   37.3090   32.6440   39.9480 C   0  0  0  0  0  0  0  0  0  0  0  0
   37.2390   31.3610   40.5100 C   0  0  0  0  0  0  0  0  0  0  0  0
   38.3890   30.5840   40.7350 C   0  0  0  0  0  0  0  0  0  0  0  0
   39.6060   31.0610   40.4110 N   0  0  0  0  0  0  0  0  0  0  0  0
   38.7150   34.0380   39.2080 H   0  0  0  0  0  0  0  0  0  0  0  0
   36.4240   33.2310   39.7770 H   0  0  0  0  0  0  0  0  0  0  0  0
   36.2400   31.0280   40.7540 H   0  0  0  0  0  0  0  0  0  0  0  0
   38.2670   29.2560   41.3370 C   0  0  1  0  0  0  0  0  0  0  0  0
   38.0070   29.3530   42.8760 C   0  0  0  0  0  0  0  0  0  0  0  0
   38.3330   27.9170   43.3590 C   0  0  0  0  0  0  0  0  0  0  0  0
   37.1340   27.0920   42.8830 C   0  0  0  0  0  0  0  0  0  0  0  0
   36.9790   27.1190   41.4130 C   0  0  0  0  0  0  0  0  0  0  0  0
   37.3280   28.3620   40.6950 C   0  0  2  0  0  0  0  0  0  0  0  0
   39.3060   28.8130   41.3340 H   0  0  0  0  0  0  0  0  0  0  0  0
   36.9390   29.5410   43.0170 H   0  0  0  0  0  0  0  0  0  0  0  0
   38.6890   30.0770   43.3230 H   0  0  0  0  0  0  0  0  0  0  0  0
   39.2610   27.5750   42.8460 H   0  0  0  0  0  0  0  0  0  0  0  0
   38.3650   27.8840   44.4480 H   0  0  0  0  0  0  0  0  0  0  0  0
   37.3210   26.0780   43.2670 H   0  0  0  0  0  0  0  0  0  0  0  0
   36.2510   27.4850   43.4340 H   0  0  0  0  0  0  0  0  0  0  0  0
   35.9290   26.8330   41.1900 H   0  0  0  0  0  0  0  0  0  0  0  0
   37.5600   26.2260   41.0310 H   0  0  0  0  0  0  0  0  0  0  0  0
   36.3720   28.9310   40.4960 H   0  0  0  0  0  0  0  0  0  0  0  0
   38.0800   27.8530   39.1030 S   0  0  0  0  0  0  0  0  0  0  0  0
   39.3940   27.4140   39.4120 H   0  0  0  0  0  0  0  0  0  0  0  0
   43.2110   33.3850   40.0240 C   0  0  0  0  0  0  0  0  0  0  0  0
   43.4970   33.8380   38.7550 C   0  0  0  0  0  0  0  0  0  0  0  0
   42.4630   33.7630   37.8450 C   0  0  0  0  0  0  0  0  0  0  0  0
   41.2380   33.2550   38.2400 N   0  0  0  0  0  0  0  0  0  0  0  0
   41.0350   32.8230   39.5270 C   0  0  0  0  0  0  0  0  0  0  0  0
   42.0040   32.8910   40.3870 N   0  0  0  0  0  0  0  0  0  0  0  0
   44.0340   33.4440   40.7520 H   0  0  0  0  0  0  0  0  0  0  0  0
   44.4250   34.2330   38.4220 H   0  0  0  0  0  0  0  0  0  0  0  0
   42.5220   34.1570   36.5240 O   0  0  0  0  0  0  0  0  0  0  0  0
   43.3880   34.5230   36.1340 H   0  0  0  0  0  0  0  0  0  0  0  0
  1  6  1  0  0  0  0
  2  1  2  0  0  0  0
  2  3  1  0  0  0  0
  3  4  2  0  0  0  0
  4  5  1  0  0  0  0
  4  9  1  0  0  0  0
  5 10  1  0  0  0  0
  6  5  2  0  0  0  0
  7  2  1  0  0  0  0
  8  3  1  0  0  0  0
 10 16  1  6  0  0  0
 10 11  1  0  0  0  0
 11 17  1  0  0  0  0
 11 18  1  0  0  0  0
 11 12  1  0  0  0  0
 12 20  1  0  0  0  0
 13 21  1  0  0  0  0
 13 12  1  0  0  0  0
 13 22  1  0  0  0  0
 14 13  1  0  0  0  0
 15 25  1  6  0  0  0
 15 10  1  0  0  0  0
 15 14  1  0  0  0  0
 19 12  1  0  0  0  0
 23 14  1  0  0  0  0
 24 14  1  0  0  0  0
 26 27  1  0  0  0  0
 26 15  1  0  0  0  0
 28 33  1  0  0  0  0
 28 34  1  0  0  0  0
 29 28  2  0  0  0  0
 30 31  2  0  0  0  0
 30 29  1  0  0  0  0
 31 32  1  0  0  0  0
 32  1  1  0  0  0  0
 32 33  2  0  0  0  0
 35 29  1  0  0  0  0
 36 30  1  0  0  0  0
 37 36  1  0  0  0  0
M  END
>  <minimizedAffinity>
-5.98568535

$$$$

 OpenBabel03242514083D

 37 39  0  0  1  0  0  0  0  0999 V2000
   37.5240   30.2820   40.8840 C   0  0  0  0  0  0  0  0  0  0  0  0
   36.1860   29.9990   40.7680 C   0  0  0  0  0  0  0  0  0  0  0  0
   35.6330   28.7570   41.0090 C   0  0  0  0  0  0  0  0  0  0  0  0
   36.5660   27.7800   41.3880 C   0  0  0  0  0  0  0  0  0  0  0  0
   37.9370   28.0670   41.5050 C   0  0  0  0  0  0  0  0  0  0  0  0
   38.3960   29.3080   41.2520 N   0  0  0  0  0  0  0  0  0  0  0  0
   35.5200   30.7980   40.4720 H   0  0  0  0  0  0  0  0  0  0  0  0
   34.5850   28.5290   40.9200 H   0  0  0  0  0  0  0  0  0  0  0  0
   36.1440   26.8040   41.5810 H   0  0  0  0  0  0  0  0  0  0  0  0
   38.8700   27.0190   41.9170 C   0  0  1  0  0  0  0  0  0  0  0  0
   38.9840   26.9420   43.4750 C   0  0  0  0  0  0  0  0  0  0  0  0
   40.2800   26.1140   43.6720 C   0  0  0  0  0  0  0  0  0  0  0  0
   39.8590   24.6870   43.3110 C   0  0  0  0  0  0  0  0  0  0  0  0
   39.3830   24.5760   41.9160 C   0  0  0  0  0  0  0  0  0  0  0  0
   38.6400   25.7130   41.3360 C   0  0  2  0  0  0  0  0  0  0  0  0
   39.9020   27.3960   41.6560 H   0  0  0  0  0  0  0  0  0  0  0  0
   38.1330   26.3600   43.8380 H   0  0  0  0  0  0  0  0  0  0  0  0
   39.0970   27.9440   43.8890 H   0  0  0  0  0  0  0  0  0  0  0  0
   41.0460   26.4820   42.9510 H   0  0  0  0  0  0  0  0  0  0  0  0
   40.5820   26.1310   44.7190 H   0  0  0  0  0  0  0  0  0  0  0  0
   40.7530   24.0740   43.5000 H   0  0  0  0  0  0  0  0  0  0  0  0
   39.1000   24.3880   44.0680 H   0  0  0  0  0  0  0  0  0  0  0  0
   38.7710   23.6500   41.8520 H   0  0  0  0  0  0  0  0  0  0  0  0
   40.2970   24.3050   41.3050 H   0  0  0  0  0  0  0  0  0  0  0  0
   37.5360   25.4810   41.4040 H   0  0  0  0  0  0  0  0  0  0  0  0
   39.1360   25.8200   39.5750 S   0  0  0  0  0  0  0  0  0  0  0  0
   40.4350   26.3920   39.5660 H   0  0  0  0  0  0  0  0  0  0  0  0
   37.7940   33.7860   39.8490 C   0  0  0  0  0  0  0  0  0  0  0  0
   39.0790   34.1540   40.1830 C   0  0  0  0  0  0  0  0  0  0  0  0
   39.8490   33.1720   40.7710 C   0  0  0  0  0  0  0  0  0  0  0  0
   39.3110   31.9150   40.9860 N   0  0  0  0  0  0  0  0  0  0  0  0
   38.0180   31.6300   40.6230 C   0  0  0  0  0  0  0  0  0  0  0  0
   37.2890   32.5500   40.0700 N   0  0  0  0  0  0  0  0  0  0  0  0
   37.1770   34.5670   39.3800 H   0  0  0  0  0  0  0  0  0  0  0  0
   39.5200   35.1070   40.0310 H   0  0  0  0  0  0  0  0  0  0  0  0
   41.1570   33.3150   41.1850 O   0  0  0  0  0  0  0  0  0  0  0  0
   41.6340   34.2090   41.0890 H   0  0  0  0  0  0  0  0  0  0  0  0
  1  6  1  0  0  0  0
  2  1  2  0  0  0  0
  2  3  1  0  0  0  0
  3  4  2  0  0  0  0
  4  5  1  0  0  0  0
  4  9  1  0  0  0  0
  5 10  1  0  0  0  0
  6  5  2  0  0  0  0
  7  2  1  0  0  0  0
  8  3  1  0  0  0  0
 10 16  1  6  0  0  0
 10 11  1  0  0  0  0
 11 12  1  0  0  0  0
 11 17  1  0  0  0  0
 11 18  1  0  0  0  0
 12 20  1  0  0  0  0
 13 21  1  0  0  0  0
 13 12  1  0  0  0  0
 13 22  1  0  0  0  0
 14 13  1  0  0  0  0
 15 25  1  1  0  0  0
 15 14  1  0  0  0  0
 15 10  1  0  0  0  0
 19 12  1  0  0  0  0
 23 14  1  0  0  0  0
 24 14  1  0  0  0  0
 26 15  1  0  0  0  0
 27 26  1  0  0  0  0
 28 33  2  0  0  0  0
 28 29  1  0  0  0  0
 29 30  2  0  0  0  0
 30 31  1  0  0  0  0
 30 36  1  0  0  0  0
 32  1  1  0  0  0  0
 32 31  2  0  0  0  0
 33 32  1  0  0  0  0
 34 28  1  0  0  0  0
 35 29  1  0  0  0  0
 37 36  1  0  0  0  0
M  END
>  <minimizedAffinity>
-5.86104488

$$$$

 OpenBabel03242514083D

 37 39  0  0  1  0  0  0  0  0999 V2000
   37.8880   30.0310   40.0880 C   0  0  0  0  0  0  0  0  0  0  0  0
   36.6180   30.5420   39.9960 C   0  0  0  0  0  0  0  0  0  0  0  0
   35.4780   29.8560   40.3650 C   0  0  0  0  0  0  0  0  0  0  0  0
   35.7210   28.5630   40.8510 C   0  0  0  0  0  0  0  0  0  0  0  0
   37.0210   28.0370   40.9450 C   0  0  0  0  0  0  0  0  0  0  0  0
   38.0820   28.7730   40.5640 N   0  0  0  0  0  0  0  0  0  0  0  0
   36.5000   31.5460   39.6120 H   0  0  0  0  0  0  0  0  0  0  0  0
   34.4790   30.2510   40.2940 H   0  0  0  0  0  0  0  0  0  0  0  0
   34.8360   28.0160   41.1450 H   0  0  0  0  0  0  0  0  0  0  0  0
   37.2270   26.6870   41.4720 C   0  0  1  0  0  0  0  0  0  0  0  0
   36.8510   25.6010   40.4110 C   0  0  0  0  0  0  0  0  0  0  0  0
   36.7290   24.3210   41.2760 C   0  0  0  0  0  0  0  0  0  0  0  0
   38.1820   23.9620   41.6010 C   0  0  0  0  0  0  0  0  0  0  0  0
   38.8710   25.0300   42.3550 C   0  0  0  0  0  0  0  0  0  0  0  0
   38.5290   26.4340   42.0530 C   0  0  2  0  0  0  0  0  0  0  0  0
   36.4110   26.5200   42.2330 H   0  0  0  0  0  0  0  0  0  0  0  0
   37.7040   25.4940   39.7360 H   0  0  0  0  0  0  0  0  0  0  0  0
   35.8960   25.8500   39.9480 H   0  0  0  0  0  0  0  0  0  0  0  0
   36.1800   24.5780   42.2110 H   0  0  0  0  0  0  0  0  0  0  0  0
   36.2950   23.5110   40.6900 H   0  0  0  0  0  0  0  0  0  0  0  0
   38.1180   23.0210   42.1670 H   0  0  0  0  0  0  0  0  0  0  0  0
   38.6650   23.7170   40.6280 H   0  0  0  0  0  0  0  0  0  0  0  0
   39.9640   24.8680   42.2250 H   0  0  0  0  0  0  0  0  0  0  0  0
   38.7180   24.7770   43.4470 H   0  0  0  0  0  0  0  0  0  0  0  0
   39.3180   26.8450   41.3550 H   0  0  0  0  0  0  0  0  0  0  0  0
   38.5870   27.3420   43.6440 S   0  0  0  0  0  0  0  0  0  0  0  0
   37.4050   26.9830   44.3440 H   0  0  0  0  0  0  0  0  0  0  0  0
   41.0590   31.8650   40.0780 C   0  0  0  0  0  0  0  0  0  0  0  0
   41.1680   32.3730   38.8030 C   0  0  0  0  0  0  0  0  0  0  0  0
   40.1290   32.0720   37.9470 C   0  0  0  0  0  0  0  0  0  0  0  0
   39.0700   31.3030   38.3990 N   0  0  0  0  0  0  0  0  0  0  0  0
   39.0380   30.8350   39.6880 C   0  0  0  0  0  0  0  0  0  0  0  0
   40.0130   31.1150   40.4980 N   0  0  0  0  0  0  0  0  0  0  0  0
   41.8870   32.1040   40.7630 H   0  0  0  0  0  0  0  0  0  0  0  0
   41.9660   32.9650   38.4270 H   0  0  0  0  0  0  0  0  0  0  0  0
   40.0270   32.4730   36.6310 O   0  0  0  0  0  0  0  0  0  0  0  0
   40.7670   33.0230   36.2010 H   0  0  0  0  0  0  0  0  0  0  0  0
  1  6  1  0  0  0  0
  2  1  2  0  0  0  0
  2  3  1  0  0  0  0
  3  4  2  0  0  0  0
  4  5  1  0  0  0  0
  4  9  1  0  0  0  0
  5 10  1  0  0  0  0
  6  5  2  0  0  0  0
  7  2  1  0  0  0  0
  8  3  1  0  0  0  0
 10 15  1  0  0  0  0
 10 16  1  1  0  0  0
 11 12  1  0  0  0  0
 11 10  1  0  0  0  0
 12 13  1  0  0  0  0
 12 19  1  0  0  0  0
 13 21  1  0  0  0  0
 13 14  1  0  0  0  0
 14 24  1  0  0  0  0
 15 25  1  6  0  0  0
 15 14  1  0  0  0  0
 15 26  1  0  0  0  0
 17 11  1  0  0  0  0
 18 11  1  0  0  0  0
 20 12  1  0  0  0  0
 22 13  1  0  0  0  0
 23 14  1  0  0  0  0
 26 27  1  0  0  0  0
 28 33  1  0  0  0  0
 28 34  1  0  0  0  0
 29 28  2  0  0  0  0
 30 31  2  0  0  0  0
 30 29  1  0  0  0  0
 31 32  1  0  0  0  0
 32  1  1  0  0  0  0
 32 33  2  0  0  0  0
 35 29  1  0  0  0  0
 36 30  1  0  0  0  0
 37 36  1  0  0  0  0
M  END
>  <minimizedAffinity>
-5.77572012

$$$$

 OpenBabel03242514083D

 37 39  0  0  1  0  0  0  0  0999 V2000
   37.9560   28.9450   41.8190 C   0  0  0  0  0  0  0  0  0  0  0  0
   37.4240   28.8890   43.0820 C   0  0  0  0  0  0  0  0  0  0  0  0
   36.9360   27.7380   43.6680 C   0  0  0  0  0  0  0  0  0  0  0  0
   37.0240   26.6000   42.8520 C   0  0  0  0  0  0  0  0  0  0  0  0
   37.5680   26.6550   41.5560 C   0  0  0  0  0  0  0  0  0  0  0  0
   38.0230   27.8210   41.0590 N   0  0  0  0  0  0  0  0  0  0  0  0
   37.3850   29.8030   43.6600 H   0  0  0  0  0  0  0  0  0  0  0  0
   36.5170   27.6870   44.6580 H   0  0  0  0  0  0  0  0  0  0  0  0
   36.6470   25.6920   43.3000 H   0  0  0  0  0  0  0  0  0  0  0  0
   37.6520   25.4390   40.7470 C   0  0  1  0  0  0  0  0  0  0  0  0
   38.1740   24.2310   41.5920 C   0  0  0  0  0  0  0  0  0  0  0  0
   38.5830   23.2140   40.4980 C   0  0  0  0  0  0  0  0  0  0  0  0
   37.2440   22.6840   39.9750 C   0  0  0  0  0  0  0  0  0  0  0  0
   36.4030   23.7520   39.3970 C   0  0  0  0  0  0  0  0  0  0  0  0
   36.4540   25.0940   40.0110 C   0  0  2  0  0  0  0  0  0  0  0  0
   38.5230   25.5890   40.0450 H   0  0  0  0  0  0  0  0  0  0  0  0
   37.3240   23.8300   42.1500 H   0  0  0  0  0  0  0  0  0  0  0  0
   39.0390   24.5370   42.1810 H   0  0  0  0  0  0  0  0  0  0  0  0
   39.1200   23.7610   39.6890 H   0  0  0  0  0  0  0  0  0  0  0  0
   39.1340   22.3840   40.9410 H   0  0  0  0  0  0  0  0  0  0  0  0
   37.5170   21.9150   39.2350 H   0  0  0  0  0  0  0  0  0  0  0  0
   36.7690   22.1510   40.8280 H   0  0  0  0  0  0  0  0  0  0  0  0
   35.3570   23.3760   39.3910 H   0  0  0  0  0  0  0  0  0  0  0  0
   36.6580   23.7750   38.2940 H   0  0  0  0  0  0  0  0  0  0  0  0
   35.5670   25.1970   40.7030 H   0  0  0  0  0  0  0  0  0  0  0  0
   36.3050   26.3030   38.6410 S   0  0  0  0  0  0  0  0  0  0  0  0
   37.5680   26.3200   37.9930 H   0  0  0  0  0  0  0  0  0  0  0  0
   40.1450   31.6060   40.5760 C   0  0  0  0  0  0  0  0  0  0  0  0
   39.2960   32.6470   40.2690 C   0  0  0  0  0  0  0  0  0  0  0  0
   37.9550   32.4130   40.4980 C   0  0  0  0  0  0  0  0  0  0  0  0
   37.5500   31.1910   41.0060 N   0  0  0  0  0  0  0  0  0  0  0  0
   38.4630   30.2050   41.2860 C   0  0  0  0  0  0  0  0  0  0  0  0
   39.7250   30.4190   41.0730 N   0  0  0  0  0  0  0  0  0  0  0  0
   41.2150   31.7900   40.3950 H   0  0  0  0  0  0  0  0  0  0  0  0
   39.5750   33.5930   39.8790 H   0  0  0  0  0  0  0  0  0  0  0  0
   36.9310   33.3060   40.2650 O   0  0  0  0  0  0  0  0  0  0  0  0
   37.1270   34.2240   39.8700 H   0  0  0  0  0  0  0  0  0  0  0  0
  1  2  1  0  0  0  0
  2  7  1  0  0  0  0
  2  3  2  0  0  0  0
  3  8  1  0  0  0  0
  4  9  1  0  0  0  0
  4  3  1  0  0  0  0
  5  4  2  0  0  0  0
  6  5  1  0  0  0  0
  6  1  2  0  0  0  0
 10 16  1  6  0  0  0
 10  5  1  0  0  0  0
 10 11  1  0  0  0  0
 11 17  1  0  0  0  0
 11 18  1  0  0  0  0
 12 20  1  0  0  0  0
 12 11  1  0  0  0  0
 13 12  1  0  0  0  0
 13 22  1  0  0  0  0
 14 13  1  0  0  0  0
 14 15  1  0  0  0  0
 15 25  1  1  0  0  0
 15 10  1  0  0  0  0
 19 12  1  0  0  0  0
 21 13  1  0  0  0  0
 23 14  1  0  0  0  0
 24 14  1  0  0  0  0
 26 15  1  0  0  0  0
 27 26  1  0  0  0  0
 28 33  1  0  0  0  0
 29 30  1  0  0  0  0
 29 28  2  0  0  0  0
 30 31  2  0  0  0  0
 31 32  1  0  0  0  0
 32  1  1  0  0  0  0
 33 32  2  0  0  0  0
 34 28  1  0  0  0  0
 35 29  1  0  0  0  0
 36 30  1  0  0  0  0
 37 36  1  0  0  0  0
M  END
>  <minimizedAffinity>
-5.7604475

$$$$

 OpenBabel03242514083D

 37 39  0  0  1  0  0  0  0  0999 V2000
   37.2660   26.9380   41.4710 C   0  0  0  0  0  0  0  0  0  0  0  0
   37.1760   26.9440   42.8400 C   0  0  0  0  0  0  0  0  0  0  0  0
   37.3400   28.0690   43.6230 C   0  0  0  0  0  0  0  0  0  0  0  0
   37.6160   29.2360   42.8950 C   0  0  0  0  0  0  0  0  0  0  0  0
   37.7110   29.2320   41.4920 C   0  0  0  0  0  0  0  0  0  0  0  0
   37.5360   28.0890   40.8020 N   0  0  0  0  0  0  0  0  0  0  0  0
   36.9600   26.0090   43.3400 H   0  0  0  0  0  0  0  0  0  0  0  0
   37.2710   28.0800   44.6970 H   0  0  0  0  0  0  0  0  0  0  0  0
   37.7450   30.1250   43.4970 H   0  0  0  0  0  0  0  0  0  0  0  0
   37.9870   30.4780   40.7760 C   0  0  1  0  0  0  0  0  0  0  0  0
   36.6740   31.2900   40.5250 C   0  0  0  0  0  0  0  0  0  0  0  0
   37.1120   32.2960   39.4300 C   0  0  0  0  0  0  0  0  0  0  0  0
   37.9750   33.3080   40.1890 C   0  0  0  0  0  0  0  0  0  0  0  0
   39.1580   32.6820   40.8150 C   0  0  0  0  0  0  0  0  0  0  0  0
   39.0270   31.3090   41.3440 C   0  0  2  0  0  0  0  0  0  0  0  0
   38.2480   30.1800   39.7180 H   0  0  0  0  0  0  0  0  0  0  0  0
   36.4490   31.8400   41.4420 H   0  0  0  0  0  0  0  0  0  0  0  0
   35.8930   30.6270   40.1540 H   0  0  0  0  0  0  0  0  0  0  0  0
   37.7290   31.7530   38.6780 H   0  0  0  0  0  0  0  0  0  0  0  0
   36.2420   32.8160   39.0270 H   0  0  0  0  0  0  0  0  0  0  0  0
   38.2470   34.0640   39.4360 H   0  0  0  0  0  0  0  0  0  0  0  0
   37.2970   33.8100   40.9140 H   0  0  0  0  0  0  0  0  0  0  0  0
   39.5040   33.3680   41.6180 H   0  0  0  0  0  0  0  0  0  0  0  0
   39.9870   32.7680   40.0490 H   0  0  0  0  0  0  0  0  0  0  0  0
   38.8590   31.3790   42.4600 H   0  0  0  0  0  0  0  0  0  0  0  0
   40.6210   30.4660   41.0170 S   0  0  0  0  0  0  0  0  0  0  0  0
   40.6240   30.1570   39.6320 H   0  0  0  0  0  0  0  0  0  0  0  0
   36.1970   24.4770   38.9770 C   0  0  0  0  0  0  0  0  0  0  0  0
   36.7540   23.2880   39.3930 C   0  0  0  0  0  0  0  0  0  0  0  0
   37.5050   23.3510   40.5490 C   0  0  0  0  0  0  0  0  0  0  0  0
   37.6530   24.5610   41.2050 N   0  0  0  0  0  0  0  0  0  0  0  0
   37.0630   25.7020   40.7220 C   0  0  0  0  0  0  0  0  0  0  0  0
   36.3560   25.6490   39.6350 N   0  0  0  0  0  0  0  0  0  0  0  0
   35.5970   24.4300   38.0550 H   0  0  0  0  0  0  0  0  0  0  0  0
   36.6600   22.3460   38.9130 H   0  0  0  0  0  0  0  0  0  0  0  0
   38.1530   22.2900   41.1480 O   0  0  0  0  0  0  0  0  0  0  0  0
   38.1210   21.3640   40.7270 H   0  0  0  0  0  0  0  0  0  0  0  0
  1  2  1  0  0  0  0
  2  7  1  0  0  0  0
  2  3  2  0  0  0  0
  3  8  1  0  0  0  0
  4  9  1  0  0  0  0
  4  3  1  0  0  0  0
  5  4  2  0  0  0  0
  6  1  2  0  0  0  0
  6  5  1  0  0  0  0
 10 16  1  6  0  0  0
 10 15  1  0  0  0  0
 10  5  1  0  0  0  0
 11 10  1  0  0  0  0
 11 17  1  0  0  0  0
 12 13  1  0  0  0  0
 12 11  1  0  0  0  0
 13 14  1  0  0  0  0
 13 22  1  0  0  0  0
 14 15  1  0  0  0  0
 14 23  1  0  0  0  0
 15 25  1  1  0  0  0
 18 11  1  0  0  0  0
 19 12  1  0  0  0  0
 20 12  1  0  0  0  0
 21 13  1  0  0  0  0
 24 14  1  0  0  0  0
 26 15  1  0  0  0  0
 27 26  1  0  0  0  0
 28 29  2  0  0  0  0
 28 33  1  0  0  0  0
 29 30  1  0  0  0  0
 30 36  1  0  0  0  0
 30 31  2  0  0  0  0
 32 31  1  0  0  0  0
 32  1  1  0  0  0  0
 33 32  2  0  0  0  0
 34 28  1  0  0  0  0
 35 29  1  0  0  0  0
 37 36  1  0  0  0  0
M  END
>  <minimizedAffinity>
-5.72376633

$$$$

 OpenBabel03242514083D

 37 39  0  0  1  0  0  0  0  0999 V2000
   37.6750   29.0810   41.2170 C   0  0  0  0  0  0  0  0  0  0  0  0
   37.5230   29.3830   42.5460 C   0  0  0  0  0  0  0  0  0  0  0  0
   37.6280   28.4620   43.5690 C   0  0  0  0  0  0  0  0  0  0  0  0
   37.9080   27.1570   43.1340 C   0  0  0  0  0  0  0  0  0  0  0  0
   38.0630   26.8440   41.7730 C   0  0  0  0  0  0  0  0  0  0  0  0
   37.9440   27.8050   40.8370 N   0  0  0  0  0  0  0  0  0  0  0  0
   37.3080   30.4100   42.8140 H   0  0  0  0  0  0  0  0  0  0  0  0
   37.5100   28.6920   44.6130 H   0  0  0  0  0  0  0  0  0  0  0  0
   37.9960   26.4260   43.9260 H   0  0  0  0  0  0  0  0  0  0  0  0
   38.3680   25.4710   41.3690 C   0  0  1  0  0  0  0  0  0  0  0  0
   37.0760   24.7130   40.9180 C   0  0  0  0  0  0  0  0  0  0  0  0
   37.5330   23.2330   40.9520 C   0  0  0  0  0  0  0  0  0  0  0  0
   38.4300   23.0990   39.7170 C   0  0  0  0  0  0  0  0  0  0  0  0
   39.6000   24.0000   39.7720 C   0  0  0  0  0  0  0  0  0  0  0  0
   39.4350   25.3260   40.4010 C   0  0  2  0  0  0  0  0  0  0  0  0
   38.6120   24.9110   42.3180 H   0  0  0  0  0  0  0  0  0  0  0  0
   36.8740   24.9980   39.8820 H   0  0  0  0  0  0  0  0  0  0  0  0
   36.2740   24.8890   41.6330 H   0  0  0  0  0  0  0  0  0  0  0  0
   38.1290   23.0680   41.8780 H   0  0  0  0  0  0  0  0  0  0  0  0
   36.6750   22.5720   40.8290 H   0  0  0  0  0  0  0  0  0  0  0  0
   38.7170   22.0370   39.6930 H   0  0  0  0  0  0  0  0  0  0  0  0
   37.7710   23.2720   38.8370 H   0  0  0  0  0  0  0  0  0  0  0  0
   39.9710   24.1170   38.7310 H   0  0  0  0  0  0  0  0  0  0  0  0
   40.4250   23.3960   40.2570 H   0  0  0  0  0  0  0  0  0  0  0  0
   39.2780   26.0860   39.5790 H   0  0  0  0  0  0  0  0  0  0  0  0
   41.0020   25.6900   41.2780 S   0  0  0  0  0  0  0  0  0  0  0  0
   40.9860   24.8960   42.4550 H   0  0  0  0  0  0  0  0  0  0  0  0
   37.4420   30.8730   38.0310 C   0  0  0  0  0  0  0  0  0  0  0  0
   37.3340   32.2010   38.3800 C   0  0  0  0  0  0  0  0  0  0  0  0
   37.3430   32.4660   39.7340 C   0  0  0  0  0  0  0  0  0  0  0  0
   37.4560   31.4230   40.6360 N   0  0  0  0  0  0  0  0  0  0  0  0
   37.5600   30.1250   40.2040 C   0  0  0  0  0  0  0  0  0  0  0  0
   37.5510   29.8690   38.9320 N   0  0  0  0  0  0  0  0  0  0  0  0
   37.4360   30.6580   36.9510 H   0  0  0  0  0  0  0  0  0  0  0  0
   37.2460   33.0220   37.7130 H   0  0  0  0  0  0  0  0  0  0  0  0
   37.2470   33.7160   40.3100 O   0  0  0  0  0  0  0  0  0  0  0  0
   37.1380   34.5440   39.7290 H   0  0  0  0  0  0  0  0  0  0  0  0
  1  2  1  0  0  0  0
  2  7  1  0  0  0  0
  2  3  2  0  0  0  0
  3  8  1  0  0  0  0
  4  3  1  0  0  0  0
  4  9  1  0  0  0  0
  5  4  2  0  0  0  0
  6  1  2  0  0  0  0
  6  5  1  0  0  0  0
 10  5  1  0  0  0  0
 10 16  1  1  0  0  0
 11 12  1  0  0  0  0
 11 10  1  0  0  0  0
 11 18  1  0  0  0  0
 12 19  1  0  0  0  0
 13 14  1  0  0  0  0
 13 12  1  0  0  0  0
 14 24  1  0  0  0  0
 14 15  1  0  0  0  0
 15 25  1  6  0  0  0
 15 26  1  0  0  0  0
 15 10  1  0  0  0  0
 17 11  1  0  0  0  0
 20 12  1  0  0  0  0
 21 13  1  0  0  0  0
 22 13  1  0  0  0  0
 23 14  1  0  0  0  0
 26 27  1  0  0  0  0
 28 29  2  0  0  0  0
 28 33  1  0  0  0  0
 29 30  1  0  0  0  0
 30 36  1  0  0  0  0
 30 31  2  0  0  0  0
 32 31  1  0  0  0  0
 32  1  1  0  0  0  0
 33 32  2  0  0  0  0
 34 28  1  0  0  0  0
 35 29  1  0  0  0  0
 37 36  1  0  0  0  0
M  END
>  <minimizedAffinity>
-5.64443254

$$$$

 OpenBabel03242514083D

 37 39  0  0  1  0  0  0  0  0999 V2000
   37.7600   30.3580   40.0880 C   0  0  0  0  0  0  0  0  0  0  0  0
   36.4670   30.7920   40.2230 C   0  0  0  0  0  0  0  0  0  0  0  0
   35.3990   29.9680   40.5180 C   0  0  0  0  0  0  0  0  0  0  0  0
   35.7450   28.6180   40.6720 C   0  0  0  0  0  0  0  0  0  0  0  0
   37.0700   28.1700   40.5330 C   0  0  0  0  0  0  0  0  0  0  0  0
   38.0550   29.0410   40.2440 N   0  0  0  0  0  0  0  0  0  0  0  0
   36.2670   31.8470   40.0910 H   0  0  0  0  0  0  0  0  0  0  0  0
   34.3810   30.3030   40.6250 H   0  0  0  0  0  0  0  0  0  0  0  0
   34.9170   27.9620   40.9070 H   0  0  0  0  0  0  0  0  0  0  0  0
   37.3860   26.7530   40.7170 C   0  0  1  0  0  0  0  0  0  0  0  0
   37.3030   26.3450   42.2250 C   0  0  0  0  0  0  0  0  0  0  0  0
   38.0600   24.9930   42.2430 C   0  0  0  0  0  0  0  0  0  0  0  0
   37.0760   24.0150   41.5930 C   0  0  0  0  0  0  0  0  0  0  0  0
   36.7380   24.3970   40.2060 C   0  0  0  0  0  0  0  0  0  0  0  0
   36.6470   25.8340   39.8770 C   0  0  2  0  0  0  0  0  0  0  0  0
   38.4960   26.6530   40.5390 H   0  0  0  0  0  0  0  0  0  0  0  0
   36.2510   26.1650   42.4590 H   0  0  0  0  0  0  0  0  0  0  0  0
   37.8160   27.0850   42.8380 H   0  0  0  0  0  0  0  0  0  0  0  0
   38.9750   25.0910   41.6140 H   0  0  0  0  0  0  0  0  0  0  0  0
   38.2360   24.6740   43.2710 H   0  0  0  0  0  0  0  0  0  0  0  0
   37.5750   23.0360   41.6500 H   0  0  0  0  0  0  0  0  0  0  0  0
   36.1970   23.9660   42.2720 H   0  0  0  0  0  0  0  0  0  0  0  0
   35.7830   23.8880   39.9520 H   0  0  0  0  0  0  0  0  0  0  0  0
   37.4840   23.8530   39.5510 H   0  0  0  0  0  0  0  0  0  0  0  0
   35.5570   26.1290   39.8960 H   0  0  0  0  0  0  0  0  0  0  0  0
   37.3030   26.0240   38.1760 S   0  0  0  0  0  0  0  0  0  0  0  0
   38.7150   25.9220   38.2860 H   0  0  0  0  0  0  0  0  0  0  0  0
   40.4670   32.8090   40.3820 C   0  0  0  0  0  0  0  0  0  0  0  0
   40.8430   33.0770   39.0840 C   0  0  0  0  0  0  0  0  0  0  0  0
   40.1460   32.3960   38.1070 C   0  0  0  0  0  0  0  0  0  0  0  0
   39.1430   31.5140   38.4690 N   0  0  0  0  0  0  0  0  0  0  0  0
   38.8300   31.3040   39.7880 C   0  0  0  0  0  0  0  0  0  0  0  0
   39.4820   31.9410   40.7120 N   0  0  0  0  0  0  0  0  0  0  0  0
   41.0210   33.3500   41.1640 H   0  0  0  0  0  0  0  0  0  0  0  0
   41.6060   33.7470   38.7750 H   0  0  0  0  0  0  0  0  0  0  0  0
   40.3510   32.5070   36.7470 O   0  0  0  0  0  0  0  0  0  0  0  0
   41.0820   33.1150   36.3840 H   0  0  0  0  0  0  0  0  0  0  0  0
  1  2  2  0  0  0  0
  1  6  1  0  0  0  0
  2  3  1  0  0  0  0
  3  8  1  0  0  0  0
  3  4  2  0  0  0  0
  4  9  1  0  0  0  0
  5  4  1  0  0  0  0
  5 10  1  0  0  0  0
  6  5  2  0  0  0  0
  7  2  1  0  0  0  0
 10 16  1  6  0  0  0
 10 11  1  0  0  0  0
 11 12  1  0  0  0  0
 11 17  1  0  0  0  0
 11 18  1  0  0  0  0
 12 20  1  0  0  0  0
 13 21  1  0  0  0  0
 13 12  1  0  0  0  0
 13 22  1  0  0  0  0
 14 13  1  0  0  0  0
 15 25  1  1  0  0  0
 15 14  1  0  0  0  0
 15 10  1  0  0  0  0
 19 12  1  0  0  0  0
 23 14  1  0  0  0  0
 24 14  1  0  0  0  0
 26 27  1  0  0  0  0
 26 15  1  0  0  0  0
 28 33  1  0  0  0  0
 28 34  1  0  0  0  0
 29 28  2  0  0  0  0
 30 31  2  0  0  0  0
 30 29  1  0  0  0  0
 31 32  1  0  0  0  0
 32  1  1  0  0  0  0
 32 33  2  0  0  0  0
 35 29  1  0  0  0  0
 36 30  1  0  0  0  0
 37 36  1  0  0  0  0
M  END
>  <minimizedAffinity>
-5.60877943

$$$$

 OpenBabel03242514083D

 37 39  0  0  1  0  0  0  0  0999 V2000
   37.6520   28.3150   41.5500 C   0  0  0  0  0  0  0  0  0  0  0  0
   36.2940   28.1800   41.4120 C   0  0  0  0  0  0  0  0  0  0  0  0
   35.4840   29.0980   40.7750 C   0  0  0  0  0  0  0  0  0  0  0  0
   36.1710   30.2110   40.2670 C   0  0  0  0  0  0  0  0  0  0  0  0
   37.5630   30.3520   40.4080 C   0  0  0  0  0  0  0  0  0  0  0  0
   38.2810   29.4080   41.0450 N   0  0  0  0  0  0  0  0  0  0  0  0
   35.8250   27.2970   41.8270 H   0  0  0  0  0  0  0  0  0  0  0  0
   34.4180   28.9990   40.6640 H   0  0  0  0  0  0  0  0  0  0  0  0
   35.5480   30.9360   39.7630 H   0  0  0  0  0  0  0  0  0  0  0  0
   38.2390   31.5240   39.8490 C   0  0  1  0  0  0  0  0  0  0  0  0
   38.2760   32.7000   40.8790 C   0  0  0  0  0  0  0  0  0  0  0  0
   38.6210   33.9150   39.9810 C   0  0  0  0  0  0  0  0  0  0  0  0
   40.1070   33.7220   39.6620 C   0  0  0  0  0  0  0  0  0  0  0  0
   40.3670   32.4580   38.9410 C   0  0  0  0  0  0  0  0  0  0  0  0
   39.5440   31.2780   39.2750 C   0  0  2  0  0  0  0  0  0  0  0  0
   37.5360   31.9520   39.0760 H   0  0  0  0  0  0  0  0  0  0  0  0
   39.1110   32.5140   41.5600 H   0  0  0  0  0  0  0  0  0  0  0  0
   37.2950   32.8230   41.3380 H   0  0  0  0  0  0  0  0  0  0  0  0
   38.0170   33.8470   39.0480 H   0  0  0  0  0  0  0  0  0  0  0  0
   38.5060   34.8430   40.5420 H   0  0  0  0  0  0  0  0  0  0  0  0
   40.3840   34.6080   39.0710 H   0  0  0  0  0  0  0  0  0  0  0  0
   40.6440   33.8040   40.6320 H   0  0  0  0  0  0  0  0  0  0  0  0
   41.4450   32.2210   39.0780 H   0  0  0  0  0  0  0  0  0  0  0  0
   40.3150   32.7200   37.8410 H   0  0  0  0  0  0  0  0  0  0  0  0
   40.1340   30.6310   39.9900 H   0  0  0  0  0  0  0  0  0  0  0  0
   39.2740   30.3670   37.7080 S   0  0  0  0  0  0  0  0  0  0  0  0
   38.2990   31.1060   36.9880 H   0  0  0  0  0  0  0  0  0  0  0  0
   40.0700   26.5710   43.6780 C   0  0  0  0  0  0  0  0  0  0  0  0
   39.8400   25.2320   43.4490 C   0  0  0  0  0  0  0  0  0  0  0  0
   38.8350   24.9430   42.5480 C   0  0  0  0  0  0  0  0  0  0  0  0
   38.1390   25.9740   41.9440 N   0  0  0  0  0  0  0  0  0  0  0  0
   38.4320   27.2840   42.2280 C   0  0  0  0  0  0  0  0  0  0  0  0
   39.3750   27.5630   43.0740 N   0  0  0  0  0  0  0  0  0  0  0  0
   40.8710   26.8050   44.3950 H   0  0  0  0  0  0  0  0  0  0  0  0
   40.3560   24.4190   43.8960 H   0  0  0  0  0  0  0  0  0  0  0  0
   38.4340   23.6780   42.1690 O   0  0  0  0  0  0  0  0  0  0  0  0
   38.8710   22.8550   42.5750 H   0  0  0  0  0  0  0  0  0  0  0  0
  1 32  1  0  0  0  0
  2  1  1  0  0  0  0
  2  7  1  0  0  0  0
  3  2  2  0  0  0  0
  4  5  2  0  0  0  0
  4  3  1  0  0  0  0
  5  6  1  0  0  0  0
  6  1  2  0  0  0  0
  8  3  1  0  0  0  0
  9  4  1  0  0  0  0
 10 16  1  6  0  0  0
 10  5  1  0  0  0  0
 10 11  1  0  0  0  0
 11 18  1  0  0  0  0
 11 17  1  0  0  0  0
 12 20  1  0  0  0  0
 12 11  1  0  0  0  0
 13 12  1  0  0  0  0
 13 22  1  0  0  0  0
 14 23  1  0  0  0  0
 14 15  1  0  0  0  0
 14 13  1  0  0  0  0
 15 10  1  0  0  0  0
 15 25  1  1  0  0  0
 19 12  1  0  0  0  0
 21 13  1  0  0  0  0
 24 14  1  0  0  0  0
 26 15  1  0  0  0  0
 27 26  1  0  0  0  0
 28 34  1  0  0  0  0
 29 28  1  0  0  0  0
 29 35  1  0  0  0  0
 30 29  2  0  0  0  0
 31 32  2  0  0  0  0
 31 30  1  0  0  0  0
 32 33  1  0  0  0  0
 33 28  2  0  0  0  0
 36 30  1  0  0  0  0
 36 37  1  0  0  0  0
M  END
>  <minimizedAffinity>
-5.4161706

$$$$

 OpenBabel03242514083D

 37 39  0  0  1  0  0  0  0  0999 V2000
   37.7060   30.1770   39.1490 C   0  0  0  0  0  0  0  0  0  0  0  0
   36.4970   30.3340   38.5220 C   0  0  0  0  0  0  0  0  0  0  0  0
   35.4210   29.4850   38.6900 C   0  0  0  0  0  0  0  0  0  0  0  0
   35.6650   28.4210   39.5720 C   0  0  0  0  0  0  0  0  0  0  0  0
   36.9050   28.2580   40.2140 C   0  0  0  0  0  0  0  0  0  0  0  0
   37.9040   29.1330   39.9950 N   0  0  0  0  0  0  0  0  0  0  0  0
   36.3740   31.1760   37.8540 H   0  0  0  0  0  0  0  0  0  0  0  0
   34.4690   29.6010   38.2010 H   0  0  0  0  0  0  0  0  0  0  0  0
   34.8290   27.7500   39.7140 H   0  0  0  0  0  0  0  0  0  0  0  0
   37.1080   27.1400   41.1360 C   0  0  1  0  0  0  0  0  0  0  0  0
   37.2020   25.7810   40.3670 C   0  0  0  0  0  0  0  0  0  0  0  0
   36.9860   24.7450   41.4990 C   0  0  0  0  0  0  0  0  0  0  0  0
   38.3090   24.7680   42.2710 C   0  0  0  0  0  0  0  0  0  0  0  0
   38.6050   26.0990   42.8400 C   0  0  0  0  0  0  0  0  0  0  0  0
   38.1990   27.2950   42.0760 C   0  0  2  0  0  0  0  0  0  0  0  0
   36.1290   27.0000   41.6800 H   0  0  0  0  0  0  0  0  0  0  0  0
   38.2230   25.6880   39.9910 H   0  0  0  0  0  0  0  0  0  0  0  0
   36.4050   25.7190   39.6270 H   0  0  0  0  0  0  0  0  0  0  0  0
   36.1560   25.1020   42.1510 H   0  0  0  0  0  0  0  0  0  0  0  0
   36.8490   23.7490   41.0770 H   0  0  0  0  0  0  0  0  0  0  0  0
   38.1950   23.9940   43.0450 H   0  0  0  0  0  0  0  0  0  0  0  0
   39.0850   24.4000   41.5640 H   0  0  0  0  0  0  0  0  0  0  0  0
   39.6980   26.1310   43.0440 H   0  0  0  0  0  0  0  0  0  0  0  0
   38.1650   26.0870   43.8830 H   0  0  0  0  0  0  0  0  0  0  0  0
   39.1030   27.6760   41.5150 H   0  0  0  0  0  0  0  0  0  0  0  0
   37.6680   28.5470   43.3050 S   0  0  0  0  0  0  0  0  0  0  0  0
   36.3850   28.1380   43.7530 H   0  0  0  0  0  0  0  0  0  0  0  0
   40.4410   32.0970   37.6470 C   0  0  0  0  0  0  0  0  0  0  0  0
   40.8130   33.0010   38.6180 C   0  0  0  0  0  0  0  0  0  0  0  0
   40.1030   32.9360   39.7990 C   0  0  0  0  0  0  0  0  0  0  0  0
   39.0930   32.0000   39.9410 N   0  0  0  0  0  0  0  0  0  0  0  0
   38.7850   31.1340   38.9220 C   0  0  0  0  0  0  0  0  0  0  0  0
   39.4490   31.1910   37.8090 N   0  0  0  0  0  0  0  0  0  0  0  0
   41.0060   32.1460   36.7040 H   0  0  0  0  0  0  0  0  0  0  0  0
   41.5810   33.7290   38.5400 H   0  0  0  0  0  0  0  0  0  0  0  0
   40.3010   33.7390   40.9030 O   0  0  0  0  0  0  0  0  0  0  0  0
   41.0070   34.4720   40.8870 H   0  0  0  0  0  0  0  0  0  0  0  0
  1  6  1  0  0  0  0
  2  3  1  0  0  0  0
  2  1  2  0  0  0  0
  3  4  2  0  0  0  0
  4  9  1  0  0  0  0
  4  5  1  0  0  0  0
  5 10  1  0  0  0  0
  6  5  2  0  0  0  0
  7  2  1  0  0  0  0
  8  3  1  0  0  0  0
 10 16  1  1  0  0  0
 10 15  1  0  0  0  0
 11 10  1  0  0  0  0
 11 12  1  0  0  0  0
 12 19  1  0  0  0  0
 12 13  1  0  0  0  0
 13 14  1  0  0  0  0
 13 21  1  0  0  0  0
 14 23  1  0  0  0  0
 14 24  1  0  0  0  0
 15 25  1  6  0  0  0
 15 14  1  0  0  0  0
 15 26  1  0  0  0  0
 17 11  1  0  0  0  0
 18 11  1  0  0  0  0
 20 12  1  0  0  0  0
 22 13  1  0  0  0  0
 26 27  1  0  0  0  0
 28 33  2  0  0  0  0
 28 29  1  0  0  0  0
 29 30  2  0  0  0  0
 30 31  1  0  0  0  0
 30 36  1  0  0  0  0
 32  1  1  0  0  0  0
 32 31  2  0  0  0  0
 33 32  1  0  0  0  0
 34 28  1  0  0  0  0
 35 29  1  0  0  0  0
 37 36  1  0  0  0  0
M  END
>  <minimizedAffinity>
-5.36612892

$$$$
