
     RDKit          3D

 15 15  0  0  0  0  0  0  0  0999 V2000
   44.5301   36.0515   44.5666 C   0  0  0  0  0  0  0  0  0  0  0  0
   45.2532   36.0130   43.3524 C   0  0  0  0  0  0  0  0  0  0  0  0
   46.1479   34.9455   43.1439 C   0  0  0  0  0  0  0  0  0  0  0  0
   46.2820   33.9991   44.1099 N   0  0  0  0  0  0  0  0  0  0  0  0
   45.5662   34.0747   45.2645 C   0  0  0  0  0  0  0  0  0  0  0  0
   44.7098   35.0770   45.4889 N   0  0  0  0  0  0  0  0  0  0  0  0
   46.3777   34.2142   40.7904 C   0  0  0  0  0  0  0  0  0  0  0  0
   45.2199   33.7126   40.9373 O   0  0  0  0  0  0  0  0  0  0  0  0
   46.8972   34.8533   41.9521 N   0  0  0  0  0  0  0  0  0  0  0  0
   43.9005   36.9157   44.5702 H   0  0  0  0  0  0  0  0  0  0  0  0
   45.1938   36.7224   42.5564 H   0  0  0  0  0  0  0  0  0  0  0  0
   45.6629   33.3287   46.0416 H   0  0  0  0  0  0  0  0  0  0  0  0
   47.8760   35.2424   41.8360 H   0  0  0  0  0  0  0  0  0  0  0  0
   46.9833   34.0837   39.5489 O   0  0  0  0  0  0  0  0  0  0  0  0
   47.1477   33.1594   39.1200 H   0  0  0  0  0  0  0  0  0  0  0  0
  1  6  2  0
  2  1  1  0
  3  2  2  0
  3  4  1  0
  4  5  2  0
  5  6  1  0
  7  8  2  0
  7  9  1  0
  9  3  1  0
  1 10  1  0
  2 11  1  0
  5 12  1  0
  9 13  1  0
 14 15  1  0
  7 14  1  0
M  ISO  4  10  14  11  14  12  14  15   3
M  END
>  <DihAtoms>  (1) 
7,6,13,14

>  <DihDeg>  (1) 
32.449287231087496

$$$$
