
 OpenBabel03252507163D

 28 30  0  0  0  0  0  0  0  0999 V2000
   45.0290   36.1030   43.5240 C   0  0  0  0  0  0  0  0  0  0  0  0
   45.6640   34.8940   43.1430 C   0  0  0  0  0  0  0  0  0  0  0  0
   45.7610   33.8970   44.1110 C   0  0  0  0  0  0  0  0  0  0  0  0
   45.2640   34.1070   45.3450 N   0  0  0  0  0  0  0  0  0  0  0  0
   44.6570   35.2880   45.6800 C   0  0  0  0  0  0  0  0  0  0  0  0
   44.5600   36.2430   44.7640 N   0  0  0  0  0  0  0  0  0  0  0  0
   44.9450   36.8930   42.7770 H   0  0  0  0  0  0  0  0  0  0  0  0
   44.2570   35.4630   46.6620 H   0  0  0  0  0  0  0  0  0  0  0  0
   46.4100   32.6490   43.7370 C   0  0  0  0  0  0  0  0  0  0  0  0
   45.6580   31.5450   43.4220 C   0  0  0  0  0  0  0  0  0  0  0  0
   46.3240   30.3860   43.0740 C   0  0  0  0  0  0  0  0  0  0  0  0
   47.7060   30.2770   43.0250 C   0  0  0  0  0  0  0  0  0  0  0  0
   48.4000   31.4160   43.3520 C   0  0  0  0  0  0  0  0  0  0  0  0
   47.7490   32.5470   43.6920 N   0  0  0  0  0  0  0  0  0  0  0  0
   44.5800   31.6130   43.4540 H   0  0  0  0  0  0  0  0  0  0  0  0
   45.6600   29.5530   42.8370 H   0  0  0  0  0  0  0  0  0  0  0  0
   48.1370   29.3330   42.7430 H   0  0  0  0  0  0  0  0  0  0  0  0
   49.4860   31.3640   43.3240 H   0  0  0  0  0  0  0  0  0  0  0  0
   46.1660   34.7410   41.8260 C   0  0  0  0  0  0  0  0  0  0  0  0
   47.3340   35.1320   41.5910 O   0  0  0  0  0  0  0  0  0  0  0  0
   45.4310   34.1700   40.7480 N   0  0  0  0  0  0  0  0  0  0  0  0
   44.0470   34.5420   40.5070 C   0  0  0  0  0  3  0  0  0  0  0  0
   43.7770   35.3340   41.2150 H   0  0  0  0  0  0  0  0  0  0  0  0
   43.2360   33.2830   40.7940 C   0  0  0  0  0  3  0  0  0  0  0  0
   43.0050   33.3310   41.8990 H   0  0  0  0  0  0  0  0  0  0  0  0
   43.9760   32.1450   40.6080 O   0  0  0  0  0  0  0  0  0  0  0  0
   44.8930   32.1740   39.5900 C   0  0  0  0  0  2  0  0  0  0  0  0
   45.9990   33.1960   39.8330 C   0  0  0  0  0  2  0  0  0  0  0  0
  1  6  1  0  0  0  0
  2  1  2  0  0  0  0
  2  3  1  0  0  0  0
  3  4  2  0  0  0  0
  4  5  1  0  0  0  0
  5  8  1  0  0  0  0
  6  5  2  0  0  0  0
  7  1  1  0  0  0  0
  9  3  1  0  0  0  0
 10 15  1  0  0  0  0
 10  9  2  0  0  0  0
 11 10  1  0  0  0  0
 12 11  2  0  0  0  0
 12 13  1  0  0  0  0
 13 14  2  0  0  0  0
 14  9  1  0  0  0  0
 16 11  1  0  0  0  0
 17 12  1  0  0  0  0
 18 13  1  0  0  0  0
 19  2  1  0  0  0  0
 20 19  2  0  0  0  0
 21 19  1  0  0  0  0
 22 21  1  0  0  0  0
 22 24  1  0  0  0  0
 22 23  1  0  0  0  0
 24 25  1  0  0  0  0
 26 24  1  0  0  0  0
 27 28  1  0  0  0  0
 27 26  1  0  0  0  0
 28 21  1  0  0  0  0
M  END
>  <minimizedAffinity>
-4.49274969

>  <minimizedRMSD>
0.424558967

$$$$
