
 OpenBabel03242516523D

 44 47  0  0  1  0  0  0  0  0999 V2000
   47.7800   32.7890   41.6440 C   0  0  1  0  0  0  0  0  0  0  0  0
   47.3470   32.1050   40.4250 C   0  0  0  0  0  0  0  0  0  0  0  0
   48.3250   32.5240   39.3280 C   0  0  0  0  0  0  0  0  0  0  0  0
   48.0450   33.9740   39.0350 C   0  0  0  0  0  0  0  0  0  0  0  0
   48.1020   34.8670   40.2420 C   0  0  0  0  0  0  0  0  0  0  0  0
   47.6470   34.3120   41.5300 C   0  0  1  0  0  0  0  0  0  0  0  0
   48.9010   32.6580   41.7500 H   0  0  0  0  0  0  0  0  0  0  0  0
   46.3500   32.4140   40.0410 H   0  0  0  0  0  0  0  0  0  0  0  0
   47.3670   31.0220   40.5620 H   0  0  0  0  0  0  0  0  0  0  0  0
   49.3770   32.3530   39.6110 H   0  0  0  0  0  0  0  0  0  0  0  0
   48.0210   31.9420   38.4340 H   0  0  0  0  0  0  0  0  0  0  0  0
   47.0410   34.0220   38.5580 H   0  0  0  0  0  0  0  0  0  0  0  0
   48.7550   34.3390   38.2800 H   0  0  0  0  0  0  0  0  0  0  0  0
   47.4750   35.7610   39.9990 H   0  0  0  0  0  0  0  0  0  0  0  0
   49.1380   35.2730   40.2990 H   0  0  0  0  0  0  0  0  0  0  0  0
   48.3110   34.7120   42.3430 H   0  0  0  0  0  0  0  0  0  0  0  0
   45.4610   31.0230   44.0480 C   0  0  0  0  0  0  0  0  0  0  0  0
   46.0910   31.4840   42.8860 C   0  0  0  0  0  0  0  0  0  0  0  0
   47.1860   32.3510   42.8900 C   0  0  0  0  0  0  0  0  0  0  0  0
   47.6150   32.7320   44.0940 N   0  0  0  0  0  0  0  0  0  0  0  0
   47.0110   32.2910   45.2310 C   0  0  0  0  0  0  0  0  0  0  0  0
   45.9610   31.4580   45.2200 N   0  0  0  0  0  0  0  0  0  0  0  0
   44.6190   30.3530   43.9690 H   0  0  0  0  0  0  0  0  0  0  0  0
   45.7310   31.1670   41.9120 H   0  0  0  0  0  0  0  0  0  0  0  0
   47.3740   32.6110   46.1990 H   0  0  0  0  0  0  0  0  0  0  0  0
   46.3060   34.7660   41.8940 C   0  0  0  0  0  0  0  0  0  0  0  0
   45.9730   35.4900   43.0440 C   0  0  0  0  0  0  0  0  0  0  0  0
   44.6310   35.8360   43.1870 C   0  0  0  0  0  0  0  0  0  0  0  0
   43.7500   35.4410   42.1940 C   0  0  0  0  0  0  0  0  0  0  0  0
   44.1030   34.7280   41.0700 C   0  0  0  0  0  0  0  0  0  0  0  0
   45.4200   34.3970   40.9450 N   0  0  0  0  0  0  0  0  0  0  0  0
   46.7520   35.7200   43.7160 H   0  0  0  0  0  0  0  0  0  0  0  0
   44.3460   36.3950   44.0660 H   0  0  0  0  0  0  0  0  0  0  0  0
   42.7070   35.7050   42.2960 H   0  0  0  0  0  0  0  0  0  0  0  0
   43.0910   34.3620   40.0820 C   0  0  0  0  0  0  0  0  0  0  0  0
   42.7420   35.2230   39.2320 O   0  0  0  0  0  0  0  0  0  0  0  0
   42.3480   33.1790   39.8310 N   0  0  0  0  0  0  0  0  0  0  0  0
   41.0840   33.1750   40.5780 C   0  0  0  0  0  3  0  0  0  0  0  0
   41.2120   32.6570   41.5600 H   0  0  0  0  0  0  0  0  0  0  0  0
   40.1190   32.3160   39.7550 C   0  0  0  0  0  3  0  0  0  0  0  0
   40.1950   31.2530   40.0050 H   0  0  0  0  0  0  0  0  0  0  0  0
   40.2840   32.5800   38.4040 O   0  0  0  0  0  0  0  0  0  0  0  0
   41.4830   32.0520   37.9150 C   0  0  0  0  0  2  0  0  0  0  0  0
   42.4960   31.9510   39.0330 C   0  0  0  0  0  2  0  0  0  0  0  0
  1  7  1  1  0  0  0
  1 19  1  0  0  0  0
  2  9  1  0  0  0  0
  2  1  1  0  0  0  0
  3 10  1  0  0  0  0
  3  2  1  0  0  0  0
  4  3  1  0  0  0  0
  4  5  1  0  0  0  0
  5 15  1  0  0  0  0
  5  6  1  0  0  0  0
  6  1  1  0  0  0  0
  6 26  1  0  0  0  0
  6 16  1  1  0  0  0
  8  2  1  0  0  0  0
 11  3  1  0  0  0  0
 12  4  1  0  0  0  0
 13  4  1  0  0  0  0
 14  5  1  0  0  0  0
 17 22  1  0  0  0  0
 18 19  1  0  0  0  0
 18 17  2  0  0  0  0
 19 20  2  0  0  0  0
 20 21  1  0  0  0  0
 21 25  1  0  0  0  0
 22 21  2  0  0  0  0
 23 17  1  0  0  0  0
 24 18  1  0  0  0  0
 26 27  1  0  0  0  0
 27 28  2  0  0  0  0
 27 32  1  0  0  0  0
 28 33  1  0  0  0  0
 29 34  1  0  0  0  0
 29 28  1  0  0  0  0
 30 29  2  0  0  0  0
 31 30  1  0  0  0  0
 31 26  2  0  0  0  0
 35 30  1  0  0  0  0
 36 35  2  0  0  0  0
 37 35  1  0  0  0  0
 37 38  1  0  0  0  0
 38 39  1  0  0  0  0
 40 41  1  0  0  0  0
 40 38  1  0  0  0  0
 42 40  1  0  0  0  0
 43 42  1  0  0  0  0
 43 44  1  0  0  0  0
 44 37  1  0  0  0  0
M  END
>  <minimizedAffinity>
-5.71785307

>  <minimizedRMSD>
0.79689914

$$$$
