
 OpenBabel03252507163D

 28 30  0  0  0  0  0  0  0  0999 V2000
   45.1270   36.1500   43.4500 C   0  0  0  0  0  0  0  0  0  0  0  0
   45.7580   34.9290   43.1010 C   0  0  0  0  0  0  0  0  0  0  0  0
   45.7920   33.9330   44.0740 C   0  0  0  0  0  0  0  0  0  0  0  0
   45.2410   34.1530   45.2830 N   0  0  0  0  0  0  0  0  0  0  0  0
   44.6380   35.3450   45.5860 C   0  0  0  0  0  0  0  0  0  0  0  0
   44.6020   36.3000   44.6650 N   0  0  0  0  0  0  0  0  0  0  0  0
   45.0920   36.9390   42.6980 H   0  0  0  0  0  0  0  0  0  0  0  0
   44.1960   35.5290   46.5480 H   0  0  0  0  0  0  0  0  0  0  0  0
   46.4380   32.6730   43.7330 C   0  0  0  0  0  0  0  0  0  0  0  0
   45.6830   31.5560   43.4780 C   0  0  0  0  0  0  0  0  0  0  0  0
   46.3450   30.3860   43.1580 C   0  0  0  0  0  0  0  0  0  0  0  0
   47.7250   30.2790   43.0820 C   0  0  0  0  0  0  0  0  0  0  0  0
   48.4220   31.4310   43.3490 C   0  0  0  0  0  0  0  0  0  0  0  0
   47.7760   32.5730   43.6610 N   0  0  0  0  0  0  0  0  0  0  0  0
   44.6050   31.6210   43.5310 H   0  0  0  0  0  0  0  0  0  0  0  0
   45.6780   29.5430   42.9690 H   0  0  0  0  0  0  0  0  0  0  0  0
   48.1530   29.3260   42.8260 H   0  0  0  0  0  0  0  0  0  0  0  0
   49.5080   31.3820   43.2990 H   0  0  0  0  0  0  0  0  0  0  0  0
   46.3200   34.7650   41.8090 C   0  0  0  0  0  0  0  0  0  0  0  0
   47.5030   35.1390   41.6290 O   0  0  0  0  0  0  0  0  0  0  0  0
   45.6290   34.1990   40.6990 N   0  0  0  0  0  0  0  0  0  0  0  0
   44.1860   34.3300   40.5730 C   0  0  0  0  0  0  0  0  0  0  0  0
   43.8280   34.9650   41.3910 H   0  0  0  0  0  0  0  0  0  0  0  0
   43.6410   32.9140   40.7270 C   0  0  0  0  0  0  0  0  0  0  0  0
   43.4810   32.7820   41.8370 H   0  0  0  0  0  0  0  0  0  0  0  0
   44.5610   31.9670   40.3590 O   0  0  0  0  0  0  0  0  0  0  0  0
   45.3860   32.2930   39.3130 C   0  0  0  0  0  0  0  0  0  0  0  0
   46.3000   33.4700   39.6400 C   0  0  0  0  0  0  0  0  0  0  0  0
  1  6  1  0  0  0  0
  2  1  2  0  0  0  0
  2  3  1  0  0  0  0
  3  4  2  0  0  0  0
  4  5  1  0  0  0  0
  5  8  1  0  0  0  0
  6  5  2  0  0  0  0
  7  1  1  0  0  0  0
  9  3  1  0  0  0  0
 10 15  1  0  0  0  0
 10  9  2  0  0  0  0
 11 10  1  0  0  0  0
 12 11  2  0  0  0  0
 12 13  1  0  0  0  0
 13 14  2  0  0  0  0
 14  9  1  0  0  0  0
 16 11  1  0  0  0  0
 17 12  1  0  0  0  0
 18 13  1  0  0  0  0
 19  2  1  0  0  0  0
 20 19  2  0  0  0  0
 21 19  1  0  0  0  0
 22 21  1  0  0  0  0
 22 24  1  0  0  0  0
 22 23  1  0  0  0  0
 24 25  1  0  0  0  0
 26 24  1  0  0  0  0
 27 28  1  0  0  0  0
 27 26  1  0  0  0  0
 28 21  1  0  0  0  0
M  END
>  <minimizedAffinity>
-4.54620981

>  <minimizedRMSD>
0.31644842

$$$$
