
 OpenBabel03242510223D

 37 40  0  0  1  0  0  0  0  0999 V2000
   48.0380   33.2350   43.1310 N   0  0  0  0  0  0  0  0  0  0  0  0
   49.2240   33.3110   42.4040 C   0  0  0  0  0  0  0  0  0  0  0  0
   50.3880   32.9340   42.6930 O   0  0  0  0  0  0  0  0  0  0  0  0
   47.4780   34.1170   43.0500 H   0  0  0  0  0  0  0  0  0  0  0  0
   46.3000   32.0960   44.4630 C   0  0  1  0  0  0  0  0  0  0  0  0
   46.4220   31.3590   43.2770 C   0  0  0  0  0  0  0  0  0  0  0  0
   47.6600   32.0920   43.8830 C   0  0  1  0  0  0  0  0  0  0  0  0
   46.1660   31.6390   45.4570 H   0  0  0  0  0  0  0  0  0  0  0  0
   46.5030   30.2320   43.3560 H   0  0  0  0  0  0  0  0  0  0  0  0
   46.1600   31.6320   42.2360 H   0  0  0  0  0  0  0  0  0  0  0  0
   48.4340   31.3860   44.2310 H   0  0  0  0  0  0  0  0  0  0  0  0
   45.0560   33.9860   43.1630 C   0  0  0  0  0  0  0  0  0  0  0  0
   45.5500   33.4400   44.3950 C   0  0  0  0  0  0  0  0  0  0  0  0
   45.3530   34.1770   45.5430 C   0  0  0  0  0  0  0  0  0  0  0  0
   44.7140   35.3620   45.4610 N   0  0  0  0  0  0  0  0  0  0  0  0
   44.2530   35.8700   44.2870 C   0  0  0  0  0  0  0  0  0  0  0  0
   44.4360   35.1470   43.1060 N   0  0  0  0  0  0  0  0  0  0  0  0
   45.2030   33.3910   42.2900 H   0  0  0  0  0  0  0  0  0  0  0  0
   45.7100   33.7980   46.4930 H   0  0  0  0  0  0  0  0  0  0  0  0
   43.7560   36.8300   44.3370 H   0  0  0  0  0  0  0  0  0  0  0  0
   49.2040   33.9320   41.0210 C   0  0  2  0  0  0  0  0  0  0  0  0
   48.6220   35.3920   40.9190 C   0  0  0  0  0  0  0  0  0  0  0  0
   47.9430   34.2060   40.3230 C   0  0  1  0  0  0  0  0  0  0  0  0
   50.1370   33.8760   40.4250 H   0  0  0  0  0  0  0  0  0  0  0  0
   49.1620   36.1140   40.3110 H   0  0  0  0  0  0  0  0  0  0  0  0
   48.2260   35.7380   41.9120 H   0  0  0  0  0  0  0  0  0  0  0  0
   47.0110   33.8010   40.7520 H   0  0  0  0  0  0  0  0  0  0  0  0
   47.9370   34.0860   38.8160 C   0  0  0  0  0  0  0  0  0  0  0  0
   48.5720   34.8870   38.1380 O   0  0  0  0  0  0  0  0  0  0  0  0
   47.1860   33.0330   38.1570 N   0  0  0  0  0  0  0  0  0  0  0  0
   45.7530   33.0200   38.4040 C   0  0  0  0  0  3  0  0  0  0  0  0
   45.2010   33.8080   37.8920 H   0  0  0  0  0  0  0  0  0  0  0  0
   45.2520   31.6320   38.1030 C   0  0  0  0  0  3  0  0  0  0  0  0
   44.1540   31.6230   37.9280 H   0  0  0  0  0  0  0  0  0  0  0  0
   45.8210   31.0680   36.9640 O   0  0  0  0  0  0  0  0  0  0  0  0
   47.1840   30.8260   37.1610 C   0  0  0  0  0  2  0  0  0  0  0  0
   47.9300   32.1080   37.3240 C   0  0  0  0  0  2  0  0  0  0  0  0
  1  7  1  0  0  0  0
  2  3  2  0  0  0  0
  2  1  1  0  0  0  0
  4  1  1  0  0  0  0
  5  8  1  1  0  0  0
  6  9  1  0  0  0  0
  6  7  1  0  0  0  0
  6  5  1  0  0  0  0
  7 11  1  1  0  0  0
  7  5  1  0  0  0  0
 10  6  1  0  0  0  0
 12 13  1  0  0  0  0
 13  5  1  0  0  0  0
 13 14  2  0  0  0  0
 14 19  1  0  0  0  0
 15 14  1  0  0  0  0
 16 20  1  0  0  0  0
 16 15  2  0  0  0  0
 17 12  2  0  0  0  0
 17 16  1  0  0  0  0
 18 12  1  0  0  0  0
 21 24  1  6  0  0  0
 21  2  1  0  0  0  0
 22 21  1  0  0  0  0
 22 26  1  0  0  0  0
 23 27  1  1  0  0  0
 23 22  1  0  0  0  0
 23 21  1  0  0  0  0
 25 22  1  0  0  0  0
 28 23  1  0  0  0  0
 29 28  2  0  0  0  0
 30 31  1  0  0  0  0
 30 28  1  0  0  0  0
 32 31  1  0  0  0  0
 33 31  1  0  0  0  0
 34 33  1  0  0  0  0
 35 36  1  0  0  0  0
 35 33  1  0  0  0  0
 36 37  1  0  0  0  0
 37 30  1  0  0  0  0
M  END
>  <minimizedAffinity>
-4.93200302

>  <minimizedRMSD>
0.45927909

$$$$
