
 OpenBabel03242515013D

 36 38  0  0  0  0  0  0  0  0999 V2000
   44.0240   34.7440   40.9470 S   0  0  0  0  0  0  0  0  0  0  0  0
   45.1870   34.4180   42.2730 C   0  0  0  0  0  0  0  0  0  0  0  0
   46.5410   34.3370   41.9110 C   0  0  0  0  0  0  0  0  0  0  0  0
   47.4840   34.0850   42.9070 C   0  0  0  0  0  0  0  0  0  0  0  0
   47.0340   33.9330   44.1710 N   0  0  0  0  0  0  0  0  0  0  0  0
   45.7400   34.0110   44.5170 C   0  0  0  0  0  0  0  0  0  0  0  0
   44.8350   34.2540   43.5520 N   0  0  0  0  0  0  0  0  0  0  0  0
   46.9230   34.4550   40.9050 H   0  0  0  0  0  0  0  0  0  0  0  0
   48.5330   34.0170   42.6540 H   0  0  0  0  0  0  0  0  0  0  0  0
   45.3610   33.8340   45.9000 C   0  0  0  0  0  0  0  0  0  0  0  0
   44.6590   34.7140   46.4520 O   0  0  0  0  0  0  0  0  0  0  0  0
   45.7090   32.7310   46.7280 N   0  0  0  0  0  0  0  0  0  0  0  0
   46.9690   32.0680   46.4490 C   0  0  0  0  0  3  0  0  0  0  0  0
   47.5680   32.6000   45.7110 H   0  0  0  0  0  0  0  0  0  0  0  0
   47.7480   32.0780   47.7650 C   0  0  0  0  0  3  0  0  0  0  0  0
   48.5860   31.3610   47.6280 H   0  0  0  0  0  0  0  0  0  0  0  0
   47.0030   31.6170   48.8220 O   0  0  0  0  0  0  0  0  0  0  0  0
   45.8390   32.3030   49.0560 C   0  0  0  0  0  2  0  0  0  0  0  0
   44.9230   32.2040   47.8290 C   0  0  0  0  0  2  0  0  0  0  0  0
   42.3220   34.7180   41.5030 C   0  0  0  0  0  0  0  0  0  0  0  0
   41.8730   33.7040   41.2880 H   0  0  0  0  0  0  0  0  0  0  0  0
   42.2350   34.8350   42.6200 H   0  0  0  0  0  0  0  0  0  0  0  0
   41.4550   35.7440   40.8550 C   0  0  0  0  0  0  0  0  0  0  0  0
   40.8690   36.3030   41.6390 H   0  0  0  0  0  0  0  0  0  0  0  0
   42.0410   36.5070   40.3050 H   0  0  0  0  0  0  0  0  0  0  0  0
   42.1670   36.0100   37.9060 Cl  0  0  0  0  0  0  0  0  0  0  0  0
   40.7540   35.2030   38.5040 C   0  0  0  0  0  0  0  0  0  0  0  0
   40.5220   35.1390   39.8840 C   0  0  0  0  0  0  0  0  0  0  0  0
   39.3770   34.4800   40.2770 C   0  0  0  0  0  0  0  0  0  0  0  0
   38.4380   33.8780   39.4530 C   0  0  0  0  0  0  0  0  0  0  0  0
   38.6950   33.9590   38.0910 C   0  0  0  0  0  0  0  0  0  0  0  0
   37.5540   33.2220   36.9720 Cl  0  0  0  0  0  0  0  0  0  0  0  0
   39.8260   34.6060   37.6450 C   0  0  0  0  0  0  0  0  0  0  0  0
   39.1880   34.4250   41.3480 H   0  0  0  0  0  0  0  0  0  0  0  0
   37.5740   33.3880   39.8810 H   0  0  0  0  0  0  0  0  0  0  0  0
   39.9990   34.6520   36.5710 H   0  0  0  0  0  0  0  0  0  0  0  0
  1 20  1  0  0  0  0
  1  2  1  0  0  0  0
  2  7  1  0  0  0  0
  3  2  2  0  0  0  0
  3  4  1  0  0  0  0
  4  5  2  0  0  0  0
  5  6  1  0  0  0  0
  6 10  1  0  0  0  0
  7  6  2  0  0  0  0
  8  3  1  0  0  0  0
  9  4  1  0  0  0  0
 10 11  2  0  0  0  0
 10 12  1  0  0  0  0
 12 19  1  0  0  0  0
 13 12  1  0  0  0  0
 13 15  1  0  0  0  0
 14 13  1  0  0  0  0
 15 17  1  0  0  0  0
 16 15  1  0  0  0  0
 17 18  1  0  0  0  0
 19 18  1  0  0  0  0
 20 22  1  0  0  0  0
 21 20  1  0  0  0  0
 23 20  1  0  0  0  0
 23 24  1  0  0  0  0
 25 23  1  0  0  0  0
 26 27  1  0  0  0  0
 27 28  1  0  0  0  0
 28 29  2  0  0  0  0
 28 23  1  0  0  0  0
 29 34  1  0  0  0  0
 30 35  1  0  0  0  0
 30 29  1  0  0  0  0
 31 30  2  0  0  0  0
 32 31  1  0  0  0  0
 33 31  1  0  0  0  0
 33 27  2  0  0  0  0
 36 33  1  0  0  0  0
M  END
>  <minimizedAffinity>
-6.89276934

>  <minimizedRMSD>
0.643934727

$$$$
