REMARK  Name = 
REMARK  5 active torsions:
REMARK  status: ('A' for Active; 'I' for Inactive)
REMARK    1  A    between atoms: C_1  and  C_2
REMARK    2  A    between atoms: C_1  and  S_11
REMARK    3  A    between atoms: C_2  and  C_5
REMARK    4  A    between atoms: S_11  and  C_12
REMARK    5  A    between atoms: C_16  and  C_18
REMARK                            x       y       z     vdW  Elec       q    Type
REMARK                         _______ _______ _______ _____ _____    ______ ____
ROOT
ATOM      1  S   UNL     1      43.520  35.059  40.780  0.00  0.00    +0.000 S 
ENDROOT
BRANCH   1   2
ATOM      2  C   UNL     1      44.802  34.713  41.985  0.00  0.00    +0.000 A 
ATOM      3  C   UNL     1      46.102  34.541  41.483  0.00  0.00    +0.000 A 
ATOM      4  C   UNL     1      47.134  34.270  42.381  0.00  0.00    +0.000 A 
ATOM      5  N   UNL     1      46.818  34.188  43.691  0.00  0.00    +0.000 NA
ATOM      6  C   UNL     1      45.576  34.353  44.171  0.00  0.00    +0.000 A 
ATOM      7  N   UNL     1      44.585  34.614  43.300  0.00  0.00    +0.000 NA
ATOM      8  H   UNL     1      46.377  34.602  40.438  0.00  0.00    +0.000 HD
ATOM      9  H   UNL     1      48.144  34.133  42.020  0.00  0.00    +0.000 HD
BRANCH   6  10
ATOM     10  C   UNL     1      45.342  34.246  45.593  0.00  0.00    +0.000 C 
ATOM     11  O   UNL     1      44.534  35.038  46.134  0.00  0.00    +0.000 OA
ATOM     12  N   UNL     1      45.949  33.307  46.473  0.00  0.00    +0.000 N 
ATOM     13  C   UNL     1      47.194  33.703  47.102  0.00  0.00    +0.000 C 
ATOM     14  H   UNL     1      47.440  34.749  46.925  0.00  0.00    +0.000 HD
ATOM     15  C   UNL     1      46.977  33.532  48.607  0.00  0.00    +0.000 C 
ATOM     16  H   UNL     1      47.985  33.585  49.068  0.00  0.00    +0.000 HD
ATOM     17  O   UNL     1      46.460  32.301  48.928  0.00  0.00    +0.000 OA
ATOM     18  C   UNL     1      45.266  31.997  48.326  0.00  0.00    +0.000 C 
ATOM     19  C   UNL     1      45.441  31.988  46.802  0.00  0.00    +0.000 C 
ENDBRANCH   6  10
ENDBRANCH   1   2
BRANCH   1  20
ATOM     20  C   UNL     1      41.904  35.243  41.529  0.00  0.00    +0.000 C 
ATOM     21  H   UNL     1      41.429  34.226  41.651  0.00  0.00    +0.000 HD
ATOM     22  H   UNL     1      41.962  35.656  42.575  0.00  0.00    +0.000 HD
BRANCH  20  23
ATOM     23  C   UNL     1      40.962  36.091  40.742  0.00  0.00    +0.000 C 
ATOM     24  H   UNL     1      40.258  36.630  41.437  0.00  0.00    +0.000 HD
ATOM     25  H   UNL     1      41.485  36.877  40.161  0.00  0.00    +0.000 HD
BRANCH  23  28
ATOM     26 CL   UNL     1      41.768  36.294  37.812  0.00  0.00    +0.000 Cl
ATOM     27  C   UNL     1      40.469  35.312  38.405  0.00  0.00    +0.000 A 
ATOM     28  C   UNL     1      40.182  35.292  39.776  0.00  0.00    +0.000 A 
ATOM     29  C   UNL     1      39.134  34.486  40.166  0.00  0.00    +0.000 A 
ATOM     30  C   UNL     1      38.340  33.698  39.346  0.00  0.00    +0.000 A 
ATOM     31  C   UNL     1      38.648  33.739  37.993  0.00  0.00    +0.000 A 
ATOM     32 CL   UNL     1      37.690  32.769  36.880  0.00  0.00    +0.000 Cl
ATOM     33  C   UNL     1      39.686  34.528  37.551  0.00  0.00    +0.000 A 
ATOM     34  H   UNL     1      38.904  34.464  41.230  0.00  0.00    +0.000 HD
ATOM     35  H   UNL     1      37.542  33.105  39.771  0.00  0.00    +0.000 HD
ATOM     36  H   UNL     1      39.903  34.539  36.484  0.00  0.00    +0.000 HD
ENDBRANCH  23  28
ENDBRANCH  20  23
ENDBRANCH   1  20
TORSDOF 5
