
 OpenBabel03242520013D

 29 31  0  0  0  0  0  0  0  0999 V2000
   44.5230   33.2750   41.1340 Br  0  0  0  0  0  0  0  0  0  0  0  0
   46.2340   34.0770   40.9780 C   0  0  0  0  0  0  0  0  0  0  0  0
   46.8080   34.8010   42.0060 C   0  0  0  0  0  0  0  0  0  0  0  0
   48.0570   35.3650   41.7960 C   0  0  0  0  0  0  0  0  0  0  0  0
   48.7420   35.2290   40.6040 C   0  0  0  0  0  0  0  0  0  0  0  0
   48.1700   34.5010   39.5710 C   0  0  0  0  0  0  0  0  0  0  0  0
   46.9280   33.9500   39.8050 C   0  0  0  0  0  0  0  0  0  0  0  0
   48.3960   35.9040   42.6690 H   0  0  0  0  0  0  0  0  0  0  0  0
   49.7150   35.7070   40.5320 H   0  0  0  0  0  0  0  0  0  0  0  0
   48.7140   34.3980   38.6410 H   0  0  0  0  0  0  0  0  0  0  0  0
   46.3810   33.1900   38.7140 C   0  0  0  0  0  0  0  0  0  0  0  0
   46.7970   33.3920   37.5010 O   0  0  0  0  0  0  0  0  0  0  0  0
   45.4260   32.1680   38.4900 N   0  0  0  0  0  0  0  0  0  0  0  0
   44.3210   32.9670   37.9340 C   0  0  0  0  0  0  0  0  0  0  0  0
   43.9470   33.7280   38.6550 H   0  0  0  0  0  0  0  0  0  0  0  0
   43.1340   32.0050   37.7870 C   0  0  0  0  0  0  0  0  0  0  0  0
   42.3010   32.6080   37.3410 H   0  0  0  0  0  0  0  0  0  0  0  0
   43.3810   30.9840   36.9010 O   0  0  0  0  0  0  0  0  0  0  0  0
   44.6120   30.3690   37.1480 C   0  0  0  0  0  0  0  0  0  0  0  0
   45.1030   30.7350   38.5590 C   0  0  0  0  0  0  0  0  0  0  0  0
   44.4910   35.9460   44.7590 C   0  0  0  0  0  0  0  0  0  0  0  0
   45.1720   35.9180   43.5280 C   0  0  0  0  0  0  0  0  0  0  0  0
   46.0590   34.9060   43.2590 C   0  0  0  0  0  0  0  0  0  0  0  0
   46.2140   33.9690   44.2500 N   0  0  0  0  0  0  0  0  0  0  0  0
   45.5580   34.0130   45.4120 C   0  0  0  0  0  0  0  0  0  0  0  0
   44.7040   34.9810   45.6800 N   0  0  0  0  0  0  0  0  0  0  0  0
   43.7890   36.7660   44.9480 H   0  0  0  0  0  0  0  0  0  0  0  0
   45.0450   36.6480   42.7690 H   0  0  0  0  0  0  0  0  0  0  0  0
   45.8280   33.1850   46.0390 H   0  0  0  0  0  0  0  0  0  0  0  0
  2  1  1  0  0  0  0
  2  3  1  0  0  0  0
  3 23  1  0  0  0  0
  4  3  2  0  0  0  0
  4  8  1  0  0  0  0
  5  4  1  0  0  0  0
  6  7  1  0  0  0  0
  6  5  2  0  0  0  0
  7  2  2  0  0  0  0
  9  5  1  0  0  0  0
 10  6  1  0  0  0  0
 11  7  1  0  0  0  0
 12 11  2  0  0  0  0
 13 20  1  0  0  0  0
 13 11  1  0  0  0  0
 14 13  1  0  0  0  0
 14 15  1  0  0  0  0
 16 14  1  0  0  0  0
 17 16  1  0  0  0  0
 18 19  1  0  0  0  0
 18 16  1  0  0  0  0
 19 20  1  0  0  0  0
 21 27  1  0  0  0  0
 21 26  1  0  0  0  0
 22 21  2  0  0  0  0
 23 22  1  0  0  0  0
 23 24  2  0  0  0  0
 24 25  1  0  0  0  0
 25 26  2  0  0  0  0
 25 29  1  0  0  0  0
 28 22  1  0  0  0  0
M  END
>  <minimizedAffinity>
-5.85135889

>  <minimizedRMSD>
0.483549148

$$$$
