
 OpenBabel03242515013D

 36 38  0  0  0  0  0  0  0  0999 V2000
   44.0210   34.7450   40.9750 S   0  0  0  0  0  0  0  0  0  0  0  0
   45.2010   34.3870   42.2780 C   0  0  0  0  0  0  0  0  0  0  0  0
   46.5460   34.2810   41.8910 C   0  0  0  0  0  0  0  0  0  0  0  0
   47.5020   34.0040   42.8680 C   0  0  0  0  0  0  0  0  0  0  0  0
   47.0710   33.8520   44.1390 N   0  0  0  0  0  0  0  0  0  0  0  0
   45.7860   33.9540   44.5090 C   0  0  0  0  0  0  0  0  0  0  0  0
   44.8690   34.2210   43.5620 N   0  0  0  0  0  0  0  0  0  0  0  0
   46.9130   34.3980   40.8790 H   0  0  0  0  0  0  0  0  0  0  0  0
   48.5450   33.9160   42.5960 H   0  0  0  0  0  0  0  0  0  0  0  0
   45.4280   33.7750   45.8970 C   0  0  0  0  0  0  0  0  0  0  0  0
   44.7150   34.6430   46.4540 O   0  0  0  0  0  0  0  0  0  0  0  0
   45.8090   32.6830   46.7260 N   0  0  0  0  0  0  0  0  0  0  0  0
   47.1960   32.2620   46.6650 C   0  0  0  0  0  3  0  0  0  0  0  0
   47.8150   32.9420   46.0820 H   0  0  0  0  0  0  0  0  0  0  0  0
   47.7090   32.2970   48.1050 C   0  0  0  0  0  3  0  0  0  0  0  0
   48.6710   31.7410   48.0980 H   0  0  0  0  0  0  0  0  0  0  0  0
   46.8770   31.6370   48.9770 O   0  0  0  0  0  0  0  0  0  0  0  0
   45.5870   32.1020   49.0130 C   0  0  0  0  0  2  0  0  0  0  0  0
   44.9420   31.9500   47.6290 C   0  0  0  0  0  2  0  0  0  0  0  0
   42.3300   34.7550   41.5630 C   0  0  0  0  0  0  0  0  0  0  0  0
   41.8640   33.7420   41.3830 H   0  0  0  0  0  0  0  0  0  0  0  0
   42.2650   34.9030   42.6770 H   0  0  0  0  0  0  0  0  0  0  0  0
   41.4630   35.7750   40.9030 C   0  0  0  0  0  0  0  0  0  0  0  0
   40.8740   36.3380   41.6810 H   0  0  0  0  0  0  0  0  0  0  0  0
   42.0510   36.5350   40.3500 H   0  0  0  0  0  0  0  0  0  0  0  0
   42.1900   36.0120   37.9550 Cl  0  0  0  0  0  0  0  0  0  0  0  0
   40.7740   35.2120   38.5540 C   0  0  0  0  0  0  0  0  0  0  0  0
   40.5350   35.1610   39.9330 C   0  0  0  0  0  0  0  0  0  0  0  0
   39.3880   34.5060   40.3280 C   0  0  0  0  0  0  0  0  0  0  0  0
   38.4520   33.8970   39.5040 C   0  0  0  0  0  0  0  0  0  0  0  0
   38.7160   33.9650   38.1430 C   0  0  0  0  0  0  0  0  0  0  0  0
   37.5800   33.2170   37.0250 Cl  0  0  0  0  0  0  0  0  0  0  0  0
   39.8490   34.6070   37.6970 C   0  0  0  0  0  0  0  0  0  0  0  0
   39.1940   34.4610   41.3980 H   0  0  0  0  0  0  0  0  0  0  0  0
   37.5860   33.4120   39.9330 H   0  0  0  0  0  0  0  0  0  0  0  0
   40.0280   34.6430   36.6230 H   0  0  0  0  0  0  0  0  0  0  0  0
  1 20  1  0  0  0  0
  1  2  1  0  0  0  0
  2  7  1  0  0  0  0
  3  2  2  0  0  0  0
  3  4  1  0  0  0  0
  4  5  2  0  0  0  0
  5  6  1  0  0  0  0
  6 10  1  0  0  0  0
  7  6  2  0  0  0  0
  8  3  1  0  0  0  0
  9  4  1  0  0  0  0
 10 11  2  0  0  0  0
 10 12  1  0  0  0  0
 12 19  1  0  0  0  0
 13 12  1  0  0  0  0
 13 15  1  0  0  0  0
 14 13  1  0  0  0  0
 15 17  1  0  0  0  0
 16 15  1  0  0  0  0
 17 18  1  0  0  0  0
 19 18  1  0  0  0  0
 20 22  1  0  0  0  0
 21 20  1  0  0  0  0
 23 20  1  0  0  0  0
 23 24  1  0  0  0  0
 25 23  1  0  0  0  0
 26 27  1  0  0  0  0
 27 28  1  0  0  0  0
 28 29  2  0  0  0  0
 28 23  1  0  0  0  0
 29 34  1  0  0  0  0
 30 35  1  0  0  0  0
 30 29  1  0  0  0  0
 31 30  2  0  0  0  0
 32 31  1  0  0  0  0
 33 31  1  0  0  0  0
 33 27  2  0  0  0  0
 36 33  1  0  0  0  0
M  END
>  <minimizedAffinity>
-6.87982321

>  <minimizedRMSD>
0.643801928

$$$$
