
 OpenBabel03242515013D

 36 38  0  0  0  0  0  0  0  0999 V2000
   43.7290   34.8920   40.8030 S   0  0  0  0  0  0  0  0  0  0  0  0
   44.9790   34.6020   42.0550 C   0  0  0  0  0  0  0  0  0  0  0  0
   46.3150   34.6340   41.6240 C   0  0  0  0  0  0  0  0  0  0  0  0
   47.3240   34.4130   42.5610 C   0  0  0  0  0  0  0  0  0  0  0  0
   46.9520   34.1800   43.8380 N   0  0  0  0  0  0  0  0  0  0  0  0
   45.6750   34.1500   44.2500 C   0  0  0  0  0  0  0  0  0  0  0  0
   44.7070   34.3630   43.3410 N   0  0  0  0  0  0  0  0  0  0  0  0
   46.6350   34.8180   40.6070 H   0  0  0  0  0  0  0  0  0  0  0  0
   48.3610   34.4320   42.2550 H   0  0  0  0  0  0  0  0  0  0  0  0
   45.3820   33.8920   45.6410 C   0  0  0  0  0  0  0  0  0  0  0  0
   44.7920   34.7750   46.3080 O   0  0  0  0  0  0  0  0  0  0  0  0
   45.7000   32.7050   46.3580 N   0  0  0  0  0  0  0  0  0  0  0  0
   46.0690   31.5410   45.5740 C   0  0  0  0  0  3  0  0  0  0  0  0
   46.1940   31.7700   44.5170 H   0  0  0  0  0  0  0  0  0  0  0  0
   47.4290   31.0910   46.1100 C   0  0  0  0  0  3  0  0  0  0  0  0
   47.5950   30.0720   45.7010 H   0  0  0  0  0  0  0  0  0  0  0  0
   47.4450   30.9720   47.4780 O   0  0  0  0  0  0  0  0  0  0  0  0
   47.1170   32.1140   48.1630 C   0  0  0  0  0  2  0  0  0  0  0  0
   45.6900   32.5460   47.8000 C   0  0  0  0  0  2  0  0  0  0  0  0
   42.0750   34.9630   41.4850 C   0  0  0  0  0  0  0  0  0  0  0  0
   41.6060   33.9370   41.4400 H   0  0  0  0  0  0  0  0  0  0  0  0
   42.0750   35.2260   42.5800 H   0  0  0  0  0  0  0  0  0  0  0  0
   41.1650   35.9090   40.7760 C   0  0  0  0  0  0  0  0  0  0  0  0
   40.5100   36.4430   41.5210 H   0  0  0  0  0  0  0  0  0  0  0  0
   41.7180   36.6980   40.2280 H   0  0  0  0  0  0  0  0  0  0  0  0
   41.9590   36.1730   37.8480 Cl  0  0  0  0  0  0  0  0  0  0  0  0
   40.5920   35.2710   38.4150 C   0  0  0  0  0  0  0  0  0  0  0  0
   40.3160   35.2150   39.7870 C   0  0  0  0  0  0  0  0  0  0  0  0
   39.2120   34.4760   40.1550 C   0  0  0  0  0  0  0  0  0  0  0  0
   38.3520   33.7880   39.3120 C   0  0  0  0  0  0  0  0  0  0  0  0
   38.6510   33.8630   37.9590 C   0  0  0  0  0  0  0  0  0  0  0  0
   37.6100   33.0190   36.8170 Cl  0  0  0  0  0  0  0  0  0  0  0  0
   39.7430   34.5870   37.5380 C   0  0  0  0  0  0  0  0  0  0  0  0
   38.9900   34.4270   41.2200 H   0  0  0  0  0  0  0  0  0  0  0  0
   37.5140   33.2410   39.7210 H   0  0  0  0  0  0  0  0  0  0  0  0
   39.9510   34.6270   36.4700 H   0  0  0  0  0  0  0  0  0  0  0  0
  1 20  1  0  0  0  0
  1  2  1  0  0  0  0
  2  7  1  0  0  0  0
  3  2  2  0  0  0  0
  3  4  1  0  0  0  0
  4  5  2  0  0  0  0
  5  6  1  0  0  0  0
  6 10  1  0  0  0  0
  7  6  2  0  0  0  0
  8  3  1  0  0  0  0
  9  4  1  0  0  0  0
 10 11  2  0  0  0  0
 10 12  1  0  0  0  0
 12 19  1  0  0  0  0
 13 15  1  0  0  0  0
 13 12  1  0  0  0  0
 14 13  1  0  0  0  0
 15 17  1  0  0  0  0
 16 15  1  0  0  0  0
 17 18  1  0  0  0  0
 19 18  1  0  0  0  0
 20 22  1  0  0  0  0
 21 20  1  0  0  0  0
 23 20  1  0  0  0  0
 23 24  1  0  0  0  0
 25 23  1  0  0  0  0
 26 27  1  0  0  0  0
 27 28  1  0  0  0  0
 28 29  2  0  0  0  0
 28 23  1  0  0  0  0
 29 34  1  0  0  0  0
 30 35  1  0  0  0  0
 30 29  1  0  0  0  0
 31 30  2  0  0  0  0
 32 31  1  0  0  0  0
 33 31  1  0  0  0  0
 33 27  2  0  0  0  0
 36 33  1  0  0  0  0
M  END
>  <minimizedAffinity>
-6.84358406

>  <minimizedRMSD>
0.591990948

$$$$
