
 OpenBabel03242523173D

 26 28  0  0  0  0  0  0  0  0999 V2000
   36.7530   28.8290   41.8260 C   0  0  0  0  0  0  0  0  0  0  0  0
   37.6890   29.8050   41.9350 C   0  0  0  0  0  0  0  0  0  0  0  0
   37.5360   30.8720   41.0620 C   0  0  0  0  0  0  0  0  0  0  0  0
   36.4600   30.8440   40.1720 N   0  0  0  0  0  0  0  0  0  0  0  0
   35.5870   29.8590   40.1220 C   0  0  0  0  0  0  0  0  0  0  0  0
   35.7030   28.7820   40.9720 N   0  0  0  0  0  0  0  0  0  0  0  0
   38.2250   31.6930   41.0690 H   0  0  0  0  0  0  0  0  0  0  0  0
   34.8490   30.0620   39.3560 H   0  0  0  0  0  0  0  0  0  0  0  0
   36.6070   27.6560   42.6650 C   0  0  0  0  0  0  0  0  0  0  0  0
   36.3060   27.0040   43.6280 O   0  0  0  0  0  0  0  0  0  0  0  0
   37.1290   26.4670   42.0030 N   0  0  0  0  0  0  0  0  0  0  0  0
   37.9500   26.7610   40.8700 C   0  0  0  0  0  3  0  0  0  0  0  0
   38.8290   27.3480   41.2280 H   0  0  0  0  0  0  0  0  0  0  0  0
   38.4340   25.5430   40.1390 C   0  0  0  0  0  3  0  0  0  0  0  0
   39.1500   25.8220   39.3400 H   0  0  0  0  0  0  0  0  0  0  0  0
   38.9590   24.5760   40.9480 O   0  0  0  0  0  0  0  0  0  0  0  0
   38.4340   24.4660   42.2050 C   0  0  0  0  0  2  0  0  0  0  0  0
   37.0460   25.0310   42.1750 C   0  0  0  0  0  2  0  0  0  0  0  0
   38.8190   29.7970   42.7870 C   0  0  0  0  0  0  0  0  0  0  0  0
   40.0890   29.3760   42.5760 C   0  0  0  0  0  0  0  0  0  0  0  0
   39.9410   30.8980   42.5690 C   0  0  0  0  0  0  0  0  0  0  0  0
   38.4630   30.1550   43.8520 H   0  0  0  0  0  0  0  0  0  0  0  0
   40.4250   28.8810   41.6260 H   0  0  0  0  0  0  0  0  0  0  0  0
   40.7430   28.9990   43.4200 H   0  0  0  0  0  0  0  0  0  0  0  0
   39.9230   31.3150   41.5410 H   0  0  0  0  0  0  0  0  0  0  0  0
   40.3260   31.4470   43.4080 H   0  0  0  0  0  0  0  0  0  0  0  0
  1  2  1  0  0  0  0
  1  9  1  0  0  0  0
  2 19  1  0  0  0  0
  3  7  1  0  0  0  0
  3  2  2  0  0  0  0
  4  3  1  0  0  0  0
  5  4  2  0  0  0  0
  5  6  1  0  0  0  0
  6  1  2  0  0  0  0
  8  5  1  0  0  0  0
  9 10  2  0  0  0  0
 11 18  1  0  0  0  0
 11  9  1  0  0  0  0
 12 13  1  0  0  0  0
 12 11  1  0  0  0  0
 14 12  1  0  0  0  0
 14 16  1  0  0  0  0
 15 14  1  0  0  0  0
 16 17  1  0  0  0  0
 18 17  1  0  0  0  0
 19 22  1  0  0  0  0
 20 19  1  0  0  0  0
 20 24  1  0  0  0  0
 21 20  1  0  0  0  0
 21 19  1  0  0  0  0
 21 26  1  0  0  0  0
 23 20  1  0  0  0  0
 25 21  1  0  0  0  0
M  END
>  <minimizedAffinity>
-4.73723984

$$$$

 OpenBabel03242523173D

 26 28  0  0  0  0  0  0  0  0999 V2000
   38.6440   26.4240   43.0080 C   0  0  0  0  0  0  0  0  0  0  0  0
   38.8970   25.1190   42.7390 C   0  0  0  0  0  0  0  0  0  0  0  0
   40.2080   24.7150   42.9470 C   0  0  0  0  0  0  0  0  0  0  0  0
   41.1240   25.6650   43.4030 N   0  0  0  0  0  0  0  0  0  0  0  0
   40.8070   26.9200   43.6440 C   0  0  0  0  0  0  0  0  0  0  0  0
   39.5160   27.3610   43.4500 N   0  0  0  0  0  0  0  0  0  0  0  0
   40.5080   23.7030   42.7630 H   0  0  0  0  0  0  0  0  0  0  0  0
   41.6800   27.4610   43.9860 H   0  0  0  0  0  0  0  0  0  0  0  0
   37.3590   27.0930   42.9750 C   0  0  0  0  0  0  0  0  0  0  0  0
   36.2590   27.4140   43.3360 O   0  0  0  0  0  0  0  0  0  0  0  0
   37.2300   27.9270   41.7860 N   0  0  0  0  0  0  0  0  0  0  0  0
   38.2100   27.6440   40.7840 C   0  0  0  0  0  3  0  0  0  0  0  0
   38.0690   26.5860   40.4570 H   0  0  0  0  0  0  0  0  0  0  0  0
   38.1300   28.5450   39.5870 C   0  0  0  0  0  3  0  0  0  0  0  0
   38.8360   28.2150   38.7980 H   0  0  0  0  0  0  0  0  0  0  0  0
   36.8710   28.6950   39.0810 O   0  0  0  0  0  0  0  0  0  0  0  0
   35.8340   28.6320   39.9690 C   0  0  0  0  0  2  0  0  0  0  0  0
   36.3640   28.9930   41.3240 C   0  0  0  0  0  2  0  0  0  0  0  0
   37.9850   24.1760   42.2090 C   0  0  0  0  0  0  0  0  0  0  0  0
   36.8360   24.3450   41.5090 C   0  0  0  0  0  0  0  0  0  0  0  0
   38.0140   23.8850   40.6490 C   0  0  0  0  0  0  0  0  0  0  0  0
   38.3300   23.1080   42.5670 H   0  0  0  0  0  0  0  0  0  0  0  0
   36.3920   25.3530   41.2880 H   0  0  0  0  0  0  0  0  0  0  0  0
   35.9950   23.5900   41.5480 H   0  0  0  0  0  0  0  0  0  0  0  0
   38.4690   24.7200   40.0770 H   0  0  0  0  0  0  0  0  0  0  0  0
   38.0130   22.8730   40.2910 H   0  0  0  0  0  0  0  0  0  0  0  0
  1  6  1  0  0  0  0
  2  3  1  0  0  0  0
  2  1  2  0  0  0  0
  3  4  2  0  0  0  0
  4  5  1  0  0  0  0
  5  8  1  0  0  0  0
  6  5  2  0  0  0  0
  7  3  1  0  0  0  0
  9  1  1  0  0  0  0
  9 10  2  0  0  0  0
 11  9  1  0  0  0  0
 12 11  1  0  0  0  0
 13 12  1  0  0  0  0
 14 12  1  0  0  0  0
 15 14  1  0  0  0  0
 16 14  1  0  0  0  0
 16 17  1  0  0  0  0
 17 18  1  0  0  0  0
 18 11  1  0  0  0  0
 19 22  1  0  0  0  0
 19  2  1  0  0  0  0
 20 24  1  0  0  0  0
 20 19  1  0  0  0  0
 21 20  1  0  0  0  0
 21 19  1  0  0  0  0
 23 20  1  0  0  0  0
 25 21  1  0  0  0  0
 26 21  1  0  0  0  0
M  END
>  <minimizedAffinity>
-4.60431576

$$$$

 OpenBabel03242523173D

 26 28  0  0  0  0  0  0  0  0999 V2000
   37.3950   28.9500   42.3050 C   0  0  0  0  0  0  0  0  0  0  0  0
   36.9120   29.5900   41.2100 C   0  0  0  0  0  0  0  0  0  0  0  0
   37.6500   30.6860   40.7910 C   0  0  0  0  0  0  0  0  0  0  0  0
   38.7950   31.0240   41.5170 N   0  0  0  0  0  0  0  0  0  0  0  0
   39.2060   30.3550   42.5750 C   0  0  0  0  0  0  0  0  0  0  0  0
   38.5010   29.2610   43.0230 N   0  0  0  0  0  0  0  0  0  0  0  0
   37.3510   31.2580   39.9360 H   0  0  0  0  0  0  0  0  0  0  0  0
   40.1100   30.8050   42.9650 H   0  0  0  0  0  0  0  0  0  0  0  0
   36.8900   27.7300   42.9020 C   0  0  0  0  0  0  0  0  0  0  0  0
   36.2760   27.0320   43.6620 O   0  0  0  0  0  0  0  0  0  0  0  0
   37.3890   26.5540   42.1990 N   0  0  0  0  0  0  0  0  0  0  0  0
   38.4940   26.8340   41.3360 C   0  0  0  0  0  3  0  0  0  0  0  0
   39.3310   27.2180   41.9660 H   0  0  0  0  0  0  0  0  0  0  0  0
   38.9700   25.6450   40.5550 C   0  0  0  0  0  3  0  0  0  0  0  0
   39.8900   25.8880   39.9870 H   0  0  0  0  0  0  0  0  0  0  0  0
   39.1440   24.5160   41.3030 O   0  0  0  0  0  0  0  0  0  0  0  0
   38.3170   24.3510   42.3790 C   0  0  0  0  0  2  0  0  0  0  0  0
   37.0700   25.1430   42.1280 C   0  0  0  0  0  2  0  0  0  0  0  0
   35.7140   29.2890   40.5200 C   0  0  0  0  0  0  0  0  0  0  0  0
   35.2890   29.6410   39.2810 C   0  0  0  0  0  0  0  0  0  0  0  0
   35.7520   28.1860   39.3790 C   0  0  0  0  0  0  0  0  0  0  0  0
   35.0100   28.7100   41.2650 H   0  0  0  0  0  0  0  0  0  0  0  0
   35.8650   30.3260   38.6030 H   0  0  0  0  0  0  0  0  0  0  0  0
   34.1900   29.7390   39.0310 H   0  0  0  0  0  0  0  0  0  0  0  0
   36.7740   28.0410   38.9720 H   0  0  0  0  0  0  0  0  0  0  0  0
   35.0040   27.4150   39.3520 H   0  0  0  0  0  0  0  0  0  0  0  0
  1  9  1  0  0  0  0
  1  6  1  0  0  0  0
  2  1  2  0  0  0  0
  3  2  1  0  0  0  0
  3  4  2  0  0  0  0
  4  5  1  0  0  0  0
  5  8  1  0  0  0  0
  5  6  2  0  0  0  0
  7  3  1  0  0  0  0
  9 10  2  0  0  0  0
 11  9  1  0  0  0  0
 12 13  1  0  0  0  0
 12 11  1  0  0  0  0
 14 16  1  0  0  0  0
 14 12  1  0  0  0  0
 15 14  1  0  0  0  0
 16 17  1  0  0  0  0
 18 11  1  0  0  0  0
 18 17  1  0  0  0  0
 19  2  1  0  0  0  0
 19 22  1  0  0  0  0
 20 21  1  0  0  0  0
 20 19  1  0  0  0  0
 21 19  1  0  0  0  0
 23 20  1  0  0  0  0
 24 20  1  0  0  0  0
 25 21  1  0  0  0  0
 26 21  1  0  0  0  0
M  END
>  <minimizedAffinity>
-4.5355711

$$$$

 OpenBabel03242523173D

 26 28  0  0  0  0  0  0  0  0999 V2000
   37.8460   25.8850   42.4840 C   0  0  0  0  0  0  0  0  0  0  0  0
   39.1240   25.5050   42.7330 C   0  0  0  0  0  0  0  0  0  0  0  0
   39.5470   24.3690   42.0590 C   0  0  0  0  0  0  0  0  0  0  0  0
   38.6400   23.7360   41.2050 N   0  0  0  0  0  0  0  0  0  0  0  0
   37.4090   24.1630   41.0110 C   0  0  0  0  0  0  0  0  0  0  0  0
   36.9510   25.2870   41.6620 N   0  0  0  0  0  0  0  0  0  0  0  0
   40.5400   23.9890   42.1890 H   0  0  0  0  0  0  0  0  0  0  0  0
   36.9010   23.5110   40.3120 H   0  0  0  0  0  0  0  0  0  0  0  0
   37.1740   27.0750   42.9680 C   0  0  0  0  0  0  0  0  0  0  0  0
   36.4860   27.7560   43.6780 O   0  0  0  0  0  0  0  0  0  0  0  0
   37.4560   28.2220   42.1140 N   0  0  0  0  0  0  0  0  0  0  0  0
   38.0190   27.8650   40.8490 C   0  0  0  0  0  3  0  0  0  0  0  0
   37.2750   27.2320   40.3100 H   0  0  0  0  0  0  0  0  0  0  0  0
   38.3770   29.0430   39.9910 C   0  0  0  0  0  3  0  0  0  0  0  0
   38.7070   28.7120   38.9850 H   0  0  0  0  0  0  0  0  0  0  0  0
   37.3950   29.9870   39.8950 O   0  0  0  0  0  0  0  0  0  0  0  0
   36.5790   30.1440   40.9800 C   0  0  0  0  0  2  0  0  0  0  0  0
   37.3210   29.6630   42.1900 C   0  0  0  0  0  2  0  0  0  0  0  0
   40.0170   26.1060   43.6520 C   0  0  0  0  0  0  0  0  0  0  0  0
   41.3720   26.1460   43.6800 C   0  0  0  0  0  0  0  0  0  0  0  0
   40.7310   27.4630   43.2400 C   0  0  0  0  0  0  0  0  0  0  0  0
   39.3760   26.5390   44.5400 H   0  0  0  0  0  0  0  0  0  0  0  0
   42.0200   25.6080   42.9360 H   0  0  0  0  0  0  0  0  0  0  0  0
   41.9490   26.2370   44.6490 H   0  0  0  0  0  0  0  0  0  0  0  0
   40.7630   27.6000   42.1390 H   0  0  0  0  0  0  0  0  0  0  0  0
   40.7520   28.2890   43.9260 H   0  0  0  0  0  0  0  0  0  0  0  0
  1  2  1  0  0  0  0
  1  9  1  0  0  0  0
  2 19  1  0  0  0  0
  3  7  1  0  0  0  0
  3  2  2  0  0  0  0
  4  3  1  0  0  0  0
  5  4  2  0  0  0  0
  5  6  1  0  0  0  0
  6  1  2  0  0  0  0
  8  5  1  0  0  0  0
  9 10  2  0  0  0  0
 11 18  1  0  0  0  0
 11  9  1  0  0  0  0
 12 11  1  0  0  0  0
 13 12  1  0  0  0  0
 14 12  1  0  0  0  0
 15 14  1  0  0  0  0
 16 14  1  0  0  0  0
 16 17  1  0  0  0  0
 17 18  1  0  0  0  0
 19 20  1  0  0  0  0
 19 22  1  0  0  0  0
 20 24  1  0  0  0  0
 21 19  1  0  0  0  0
 21 20  1  0  0  0  0
 21 26  1  0  0  0  0
 23 20  1  0  0  0  0
 25 21  1  0  0  0  0
M  END
>  <minimizedAffinity>
-4.41221428

$$$$

 OpenBabel03242523173D

 26 28  0  0  0  0  0  0  0  0999 V2000
   37.1210   29.0640   41.5970 C   0  0  0  0  0  0  0  0  0  0  0  0
   36.9390   27.9650   40.8220 C   0  0  0  0  0  0  0  0  0  0  0  0
   37.0750   26.7500   41.4770 C   0  0  0  0  0  0  0  0  0  0  0  0
   37.3790   26.7670   42.8400 N   0  0  0  0  0  0  0  0  0  0  0  0
   37.5420   27.8770   43.5310 C   0  0  0  0  0  0  0  0  0  0  0  0
   37.4160   29.1040   42.9180 N   0  0  0  0  0  0  0  0  0  0  0  0
   36.9500   25.8240   40.9510 H   0  0  0  0  0  0  0  0  0  0  0  0
   37.7710   27.6370   44.5610 H   0  0  0  0  0  0  0  0  0  0  0  0
   36.9470   30.4490   41.2090 C   0  0  0  0  0  0  0  0  0  0  0  0
   36.3710   31.4680   40.9410 O   0  0  0  0  0  0  0  0  0  0  0  0
   38.2320   31.0960   40.9760 N   0  0  0  0  0  0  0  0  0  0  0  0
   39.3170   30.1740   40.8450 C   0  0  0  0  0  3  0  0  0  0  0  0
   39.1120   29.5280   39.9580 H   0  0  0  0  0  0  0  0  0  0  0  0
   40.6550   30.8320   40.6750 C   0  0  0  0  0  3  0  0  0  0  0  0
   41.4420   30.0780   40.4700 H   0  0  0  0  0  0  0  0  0  0  0  0
   40.6770   31.8250   39.7380 O   0  0  0  0  0  0  0  0  0  0  0  0
   39.5260   32.5430   39.5690 C   0  0  0  0  0  2  0  0  0  0  0  0
   38.7330   32.4480   40.8370 C   0  0  0  0  0  2  0  0  0  0  0  0
   36.7020   27.9480   39.4270 C   0  0  0  0  0  0  0  0  0  0  0  0
   36.0710   27.0410   38.6430 C   0  0  0  0  0  0  0  0  0  0  0  0
   35.2480   28.3040   38.9000 C   0  0  0  0  0  0  0  0  0  0  0  0
   37.2620   28.8740   38.9600 H   0  0  0  0  0  0  0  0  0  0  0  0
   35.6650   26.0680   39.0300 H   0  0  0  0  0  0  0  0  0  0  0  0
   36.3390   26.9020   37.5520 H   0  0  0  0  0  0  0  0  0  0  0  0
   34.4720   28.1510   39.6790 H   0  0  0  0  0  0  0  0  0  0  0  0
   35.1250   29.0010   38.0910 H   0  0  0  0  0  0  0  0  0  0  0  0
  1  6  1  0  0  0  0
  2  3  1  0  0  0  0
  2  1  2  0  0  0  0
  3  4  2  0  0  0  0
  4  5  1  0  0  0  0
  5  8  1  0  0  0  0
  6  5  2  0  0  0  0
  7  3  1  0  0  0  0
  9  1  1  0  0  0  0
 10  9  2  0  0  0  0
 11  9  1  0  0  0  0
 12 11  1  0  0  0  0
 13 12  1  0  0  0  0
 14 12  1  0  0  0  0
 15 14  1  0  0  0  0
 16 14  1  0  0  0  0
 17 16  1  0  0  0  0
 17 18  1  0  0  0  0
 18 11  1  0  0  0  0
 19  2  1  0  0  0  0
 20 21  1  0  0  0  0
 20 23  1  0  0  0  0
 20 19  1  0  0  0  0
 21 19  1  0  0  0  0
 21 25  1  0  0  0  0
 22 19  1  0  0  0  0
 24 20  1  0  0  0  0
 26 21  1  0  0  0  0
M  END
>  <minimizedAffinity>
-4.38853931

$$$$

 OpenBabel03242523173D

 26 28  0  0  0  0  0  0  0  0999 V2000
   37.5390   29.7550   41.3690 C   0  0  0  0  0  0  0  0  0  0  0  0
   38.0920   29.5270   42.5870 C   0  0  0  0  0  0  0  0  0  0  0  0
   39.1940   30.3110   42.8930 C   0  0  0  0  0  0  0  0  0  0  0  0
   39.6240   31.2410   41.9430 N   0  0  0  0  0  0  0  0  0  0  0  0
   39.0360   31.4080   40.7760 C   0  0  0  0  0  0  0  0  0  0  0  0
   37.9390   30.6490   40.4340 N   0  0  0  0  0  0  0  0  0  0  0  0
   39.7010   30.2070   43.8310 H   0  0  0  0  0  0  0  0  0  0  0  0
   39.5470   32.1810   40.2150 H   0  0  0  0  0  0  0  0  0  0  0  0
   36.3340   29.1580   40.8270 C   0  0  0  0  0  0  0  0  0  0  0  0
   35.1600   28.9560   40.6800 O   0  0  0  0  0  0  0  0  0  0  0  0
   36.6510   28.1630   39.8110 N   0  0  0  0  0  0  0  0  0  0  0  0
   38.0220   27.7590   39.8180 C   0  0  0  0  0  3  0  0  0  0  0  0
   38.2350   27.2920   40.8090 H   0  0  0  0  0  0  0  0  0  0  0  0
   38.3740   26.7870   38.7300 C   0  0  0  0  0  3  0  0  0  0  0  0
   39.4150   26.4250   38.8470 H   0  0  0  0  0  0  0  0  0  0  0  0
   37.5050   25.7410   38.6110 O   0  0  0  0  0  0  0  0  0  0  0  0
   36.1970   25.9810   38.9270 C   0  0  0  0  0  2  0  0  0  0  0  0
   35.9460   27.4500   38.7650 C   0  0  0  0  0  2  0  0  0  0  0  0
   37.6990   28.5360   43.5180 C   0  0  0  0  0  0  0  0  0  0  0  0
   36.9590   27.4110   43.3610 C   0  0  0  0  0  0  0  0  0  0  0  0
   38.4580   27.1420   43.5060 C   0  0  0  0  0  0  0  0  0  0  0  0
   38.0540   28.8900   44.5840 H   0  0  0  0  0  0  0  0  0  0  0  0
   36.4700   27.1250   42.3910 H   0  0  0  0  0  0  0  0  0  0  0  0
   36.3470   26.9740   44.2060 H   0  0  0  0  0  0  0  0  0  0  0  0
   38.9460   26.9400   42.5300 H   0  0  0  0  0  0  0  0  0  0  0  0
   38.8070   26.7120   44.4270 H   0  0  0  0  0  0  0  0  0  0  0  0
  1  2  1  0  0  0  0
  2  3  2  0  0  0  0
  2 19  1  0  0  0  0
  3  7  1  0  0  0  0
  4  3  1  0  0  0  0
  5  4  2  0  0  0  0
  6  5  1  0  0  0  0
  6  1  2  0  0  0  0
  8  5  1  0  0  0  0
  9  1  1  0  0  0  0
 10  9  2  0  0  0  0
 11 12  1  0  0  0  0
 11  9  1  0  0  0  0
 12 13  1  0  0  0  0
 14 15  1  0  0  0  0
 14 12  1  0  0  0  0
 16 14  1  0  0  0  0
 16 17  1  0  0  0  0
 18 17  1  0  0  0  0
 18 11  1  0  0  0  0
 19 22  1  0  0  0  0
 20 21  1  0  0  0  0
 20 19  1  0  0  0  0
 20 24  1  0  0  0  0
 21 19  1  0  0  0  0
 21 26  1  0  0  0  0
 23 20  1  0  0  0  0
 25 21  1  0  0  0  0
M  END
>  <minimizedAffinity>
-4.36860037

$$$$

 OpenBabel03242523173D

 26 28  0  0  0  0  0  0  0  0999 V2000
   38.5080   29.7310   41.7740 C   0  0  0  0  0  0  0  0  0  0  0  0
   38.4840   28.4740   42.2840 C   0  0  0  0  0  0  0  0  0  0  0  0
   39.6510   28.0670   42.9130 C   0  0  0  0  0  0  0  0  0  0  0  0
   40.7190   28.9660   42.9630 N   0  0  0  0  0  0  0  0  0  0  0  0
   40.6710   30.1760   42.4440 C   0  0  0  0  0  0  0  0  0  0  0  0
   39.5310   30.6180   41.8110 N   0  0  0  0  0  0  0  0  0  0  0  0
   39.7310   27.0910   43.3480 H   0  0  0  0  0  0  0  0  0  0  0  0
   41.6140   30.6820   42.6070 H   0  0  0  0  0  0  0  0  0  0  0  0
   37.4110   30.4470   41.1550 C   0  0  0  0  0  0  0  0  0  0  0  0
   36.3960   31.0850   41.0820 O   0  0  0  0  0  0  0  0  0  0  0  0
   37.5340   30.4460   39.7030 N   0  0  0  0  0  0  0  0  0  0  0  0
   38.4730   29.4850   39.2130 C   0  0  0  0  0  3  0  0  0  0  0  0
   38.1120   28.4720   39.5110 H   0  0  0  0  0  0  0  0  0  0  0  0
   38.6580   29.5240   37.7240 C   0  0  0  0  0  3  0  0  0  0  0  0
   39.3100   28.6930   37.3870 H   0  0  0  0  0  0  0  0  0  0  0  0
   37.4920   29.5480   37.0140 O   0  0  0  0  0  0  0  0  0  0  0  0
   36.4250   30.1740   37.5940 C   0  0  0  0  0  2  0  0  0  0  0  0
   36.9560   31.1650   38.5860 C   0  0  0  0  0  2  0  0  0  0  0  0
   37.4280   27.5390   42.1690 C   0  0  0  0  0  0  0  0  0  0  0  0
   37.2830   26.2930   42.6840 C   0  0  0  0  0  0  0  0  0  0  0  0
   36.4430   27.3520   43.4000 C   0  0  0  0  0  0  0  0  0  0  0  0
   36.6400   27.9830   41.4140 H   0  0  0  0  0  0  0  0  0  0  0  0
   38.0830   25.7740   43.2770 H   0  0  0  0  0  0  0  0  0  0  0  0
   36.6550   25.5030   42.1710 H   0  0  0  0  0  0  0  0  0  0  0  0
   36.9030   27.6780   44.3560 H   0  0  0  0  0  0  0  0  0  0  0  0
   35.3810   27.3460   43.2430 H   0  0  0  0  0  0  0  0  0  0  0  0
  1  6  2  0  0  0  0
  1  2  1  0  0  0  0
  2  3  2  0  0  0  0
  3  4  1  0  0  0  0
  3  7  1  0  0  0  0
  5  8  1  0  0  0  0
  5  4  2  0  0  0  0
  6  5  1  0  0  0  0
  9  1  1  0  0  0  0
 10  9  2  0  0  0  0
 11  9  1  0  0  0  0
 12 13  1  0  0  0  0
 12 11  1  0  0  0  0
 14 12  1  0  0  0  0
 15 14  1  0  0  0  0
 16 17  1  0  0  0  0
 16 14  1  0  0  0  0
 17 18  1  0  0  0  0
 18 11  1  0  0  0  0
 19  2  1  0  0  0  0
 19 20  1  0  0  0  0
 19 21  1  0  0  0  0
 20 23  1  0  0  0  0
 20 21  1  0  0  0  0
 21 25  1  0  0  0  0
 22 19  1  0  0  0  0
 24 20  1  0  0  0  0
 26 21  1  0  0  0  0
M  END
>  <minimizedAffinity>
-4.36635685

$$$$

 OpenBabel03242523173D

 26 28  0  0  0  0  0  0  0  0999 V2000
   37.5300   29.1950   42.1630 C   0  0  0  0  0  0  0  0  0  0  0  0
   38.8090   29.3090   42.6010 C   0  0  0  0  0  0  0  0  0  0  0  0
   39.3160   28.1900   43.2440 C   0  0  0  0  0  0  0  0  0  0  0  0
   38.4850   27.0760   43.3790 N   0  0  0  0  0  0  0  0  0  0  0  0
   37.2480   27.0360   42.9280 C   0  0  0  0  0  0  0  0  0  0  0  0
   36.7070   28.1260   42.2840 N   0  0  0  0  0  0  0  0  0  0  0  0
   40.3180   28.1810   43.6260 H   0  0  0  0  0  0  0  0  0  0  0  0
   36.8080   26.0730   43.1510 H   0  0  0  0  0  0  0  0  0  0  0  0
   36.7810   30.1590   41.3810 C   0  0  0  0  0  0  0  0  0  0  0  0
   36.0170   31.0560   41.1530 O   0  0  0  0  0  0  0  0  0  0  0  0
   37.0860   30.0350   39.9610 N   0  0  0  0  0  0  0  0  0  0  0  0
   37.7580   28.8180   39.6270 C   0  0  0  0  0  3  0  0  0  0  0  0
   37.0800   27.9710   39.8910 H   0  0  0  0  0  0  0  0  0  0  0  0
   38.1390   28.7130   38.1800 C   0  0  0  0  0  3  0  0  0  0  0  0
   38.5560   27.7110   37.9540 H   0  0  0  0  0  0  0  0  0  0  0  0
   37.1340   29.0290   37.3110 O   0  0  0  0  0  0  0  0  0  0  0  0
   36.2310   29.9690   37.7220 C   0  0  0  0  0  2  0  0  0  0  0  0
   36.8950   30.8230   38.7600 C   0  0  0  0  0  2  0  0  0  0  0  0
   39.6240   30.4630   42.5270 C   0  0  0  0  0  0  0  0  0  0  0  0
   40.9630   30.6170   42.6730 C   0  0  0  0  0  0  0  0  0  0  0  0
   40.4940   30.6940   41.2190 C   0  0  0  0  0  0  0  0  0  0  0  0
   38.9130   31.3930   42.4000 H   0  0  0  0  0  0  0  0  0  0  0  0
   41.6530   29.7770   42.9530 H   0  0  0  0  0  0  0  0  0  0  0  0
   41.4180   31.5850   43.0430 H   0  0  0  0  0  0  0  0  0  0  0  0
   40.6770   29.7490   40.6670 H   0  0  0  0  0  0  0  0  0  0  0  0
   40.4960   31.6550   40.7380 H   0  0  0  0  0  0  0  0  0  0  0  0
  1  6  2  0  0  0  0
  1  2  1  0  0  0  0
  2  3  2  0  0  0  0
  3  4  1  0  0  0  0
  3  7  1  0  0  0  0
  5  8  1  0  0  0  0
  5  4  2  0  0  0  0
  6  5  1  0  0  0  0
  9  1  1  0  0  0  0
 10  9  2  0  0  0  0
 11  9  1  0  0  0  0
 12 13  1  0  0  0  0
 12 11  1  0  0  0  0
 14 12  1  0  0  0  0
 15 14  1  0  0  0  0
 16 17  1  0  0  0  0
 16 14  1  0  0  0  0
 17 18  1  0  0  0  0
 18 11  1  0  0  0  0
 19  2  1  0  0  0  0
 19 20  1  0  0  0  0
 20 23  1  0  0  0  0
 20 24  1  0  0  0  0
 21 19  1  0  0  0  0
 21 20  1  0  0  0  0
 22 19  1  0  0  0  0
 25 21  1  0  0  0  0
 26 21  1  0  0  0  0
M  END
>  <minimizedAffinity>
-4.34632635

$$$$

 OpenBabel03242523173D

 26 28  0  0  0  0  0  0  0  0999 V2000
   37.7260   29.6350   40.0630 C   0  0  0  0  0  0  0  0  0  0  0  0
   37.1470   29.2070   41.2130 C   0  0  0  0  0  0  0  0  0  0  0  0
   35.8190   28.8240   41.1000 C   0  0  0  0  0  0  0  0  0  0  0  0
   35.2140   28.9120   39.8440 N   0  0  0  0  0  0  0  0  0  0  0  0
   35.8400   29.3390   38.7660 C   0  0  0  0  0  0  0  0  0  0  0  0
   37.1590   29.7290   38.8370 N   0  0  0  0  0  0  0  0  0  0  0  0
   35.2730   28.4700   41.9510 H   0  0  0  0  0  0  0  0  0  0  0  0
   35.1670   29.3180   37.9190 H   0  0  0  0  0  0  0  0  0  0  0  0
   39.1140   30.0020   39.8640 C   0  0  0  0  0  0  0  0  0  0  0  0
   40.2950   29.8520   39.7050 O   0  0  0  0  0  0  0  0  0  0  0  0
   39.2730   31.4500   39.8060 N   0  0  0  0  0  0  0  0  0  0  0  0
   38.1330   32.1670   40.2860 C   0  0  0  0  0  3  0  0  0  0  0  0
   37.9870   31.8970   41.3590 H   0  0  0  0  0  0  0  0  0  0  0  0
   38.2590   33.6570   40.1650 C   0  0  0  0  0  3  0  0  0  0  0  0
   37.4000   34.1650   40.6480 H   0  0  0  0  0  0  0  0  0  0  0  0
   39.4430   34.1590   40.6240 O   0  0  0  0  0  0  0  0  0  0  0  0
   40.5450   33.3600   40.5010 C   0  0  0  0  0  2  0  0  0  0  0  0
   40.2910   32.3920   39.3850 C   0  0  0  0  0  2  0  0  0  0  0  0
   37.7400   29.1860   42.4970 C   0  0  0  0  0  0  0  0  0  0  0  0
   37.4070   28.5040   43.6200 C   0  0  0  0  0  0  0  0  0  0  0  0
   38.6320   27.9360   42.9010 C   0  0  0  0  0  0  0  0  0  0  0  0
   38.6000   29.9920   42.5050 H   0  0  0  0  0  0  0  0  0  0  0  0
   36.4980   27.8490   43.6960 H   0  0  0  0  0  0  0  0  0  0  0  0
   37.6440   28.9000   44.6540 H   0  0  0  0  0  0  0  0  0  0  0  0
   38.3870   27.0370   42.2990 H   0  0  0  0  0  0  0  0  0  0  0  0
   39.5960   28.0860   43.3500 H   0  0  0  0  0  0  0  0  0  0  0  0
  1  2  1  0  0  0  0
  2 19  1  0  0  0  0
  3  2  2  0  0  0  0
  3  7  1  0  0  0  0
  4  3  1  0  0  0  0
  5  6  1  0  0  0  0
  5  4  2  0  0  0  0
  6  1  2  0  0  0  0
  8  5  1  0  0  0  0
  9  1  1  0  0  0  0
 10  9  2  0  0  0  0
 11  9  1  0  0  0  0
 11 12  1  0  0  0  0
 12 13  1  0  0  0  0
 14 12  1  0  0  0  0
 14 16  1  0  0  0  0
 14 15  1  0  0  0  0
 17 16  1  0  0  0  0
 18 11  1  0  0  0  0
 18 17  1  0  0  0  0
 19 22  1  0  0  0  0
 19 21  1  0  0  0  0
 19 20  1  0  0  0  0
 20 23  1  0  0  0  0
 20 24  1  0  0  0  0
 21 26  1  0  0  0  0
 21 20  1  0  0  0  0
 25 21  1  0  0  0  0
M  END
>  <minimizedAffinity>
-4.32560778

$$$$
