
 OpenBabel03242515013D

 36 38  0  0  0  0  0  0  0  0999 V2000
   44.4180   35.3130   41.9250 S   0  0  0  0  0  0  0  0  0  0  0  0
   45.3620   34.3060   43.0710 C   0  0  0  0  0  0  0  0  0  0  0  0
   46.4720   33.6290   42.5400 C   0  0  0  0  0  0  0  0  0  0  0  0
   47.2380   32.8330   43.3910 C   0  0  0  0  0  0  0  0  0  0  0  0
   46.8630   32.7610   44.6860 N   0  0  0  0  0  0  0  0  0  0  0  0
   45.8030   33.4090   45.1940 C   0  0  0  0  0  0  0  0  0  0  0  0
   45.0680   34.1750   44.3680 N   0  0  0  0  0  0  0  0  0  0  0  0
   46.7890   33.6720   41.5060 H   0  0  0  0  0  0  0  0  0  0  0  0
   48.0970   32.3000   43.0080 H   0  0  0  0  0  0  0  0  0  0  0  0
   45.4860   33.2670   46.5960 C   0  0  0  0  0  0  0  0  0  0  0  0
   44.7090   34.0950   47.1280 O   0  0  0  0  0  0  0  0  0  0  0  0
   45.9770   32.2540   47.4670 N   0  0  0  0  0  0  0  0  0  0  0  0
   45.1960   31.0340   47.5660 C   0  0  0  0  0  3  0  0  0  0  0  0
   44.3880   30.9930   46.8370 H   0  0  0  0  0  0  0  0  0  0  0  0
   46.1620   29.8930   47.2460 C   0  0  0  0  0  3  0  0  0  0  0  0
   45.6480   28.9610   47.5650 H   0  0  0  0  0  0  0  0  0  0  0  0
   47.3260   29.9680   47.9690 O   0  0  0  0  0  0  0  0  0  0  0  0
   48.0350   31.1320   47.8090 C   0  0  0  0  0  2  0  0  0  0  0  0
   47.1850   32.3230   48.2660 C   0  0  0  0  0  2  0  0  0  0  0  0
   42.8270   34.5940   41.5290 C   0  0  0  0  0  0  0  0  0  0  0  0
   42.9410   33.8860   40.6570 H   0  0  0  0  0  0  0  0  0  0  0  0
   42.4270   33.9530   42.3650 H   0  0  0  0  0  0  0  0  0  0  0  0
   41.7810   35.5950   41.1660 C   0  0  0  0  0  0  0  0  0  0  0  0
   41.2440   35.9430   42.0930 H   0  0  0  0  0  0  0  0  0  0  0  0
   42.2100   36.5030   40.6970 H   0  0  0  0  0  0  0  0  0  0  0  0
   42.4900   35.7660   38.2090 Cl  0  0  0  0  0  0  0  0  0  0  0  0
   41.0290   35.0680   38.8270 C   0  0  0  0  0  0  0  0  0  0  0  0
   40.8020   35.0410   40.2090 C   0  0  0  0  0  0  0  0  0  0  0  0
   39.6170   34.4690   40.6200 C   0  0  0  0  0  0  0  0  0  0  0  0
   38.6330   33.9220   39.8100 C   0  0  0  0  0  0  0  0  0  0  0  0
   38.8860   33.9640   38.4460 C   0  0  0  0  0  0  0  0  0  0  0  0
   37.6880   33.2910   37.3450 Cl  0  0  0  0  0  0  0  0  0  0  0  0
   40.0550   34.5240   37.9830 C   0  0  0  0  0  0  0  0  0  0  0  0
   39.4320   34.4440   41.6920 H   0  0  0  0  0  0  0  0  0  0  0  0
   37.7400   33.5000   40.2510 H   0  0  0  0  0  0  0  0  0  0  0  0
   40.2240   34.5420   36.9080 H   0  0  0  0  0  0  0  0  0  0  0  0
  1  2  1  0  0  0  0
  2  7  1  0  0  0  0
  3  2  2  0  0  0  0
  3  4  1  0  0  0  0
  4  5  2  0  0  0  0
  5  6  1  0  0  0  0
  6 10  1  0  0  0  0
  7  6  2  0  0  0  0
  8  3  1  0  0  0  0
  9  4  1  0  0  0  0
 10 11  2  0  0  0  0
 10 12  1  0  0  0  0
 12 13  1  0  0  0  0
 12 19  1  0  0  0  0
 14 13  1  0  0  0  0
 15 16  1  0  0  0  0
 15 13  1  0  0  0  0
 15 17  1  0  0  0  0
 18 17  1  0  0  0  0
 18 19  1  0  0  0  0
 20  1  1  0  0  0  0
 20 22  1  0  0  0  0
 21 20  1  0  0  0  0
 23 20  1  0  0  0  0
 23 24  1  0  0  0  0
 25 23  1  0  0  0  0
 26 27  1  0  0  0  0
 27 28  1  0  0  0  0
 28 29  2  0  0  0  0
 28 23  1  0  0  0  0
 29 34  1  0  0  0  0
 30 35  1  0  0  0  0
 30 29  1  0  0  0  0
 31 30  2  0  0  0  0
 32 31  1  0  0  0  0
 33 31  1  0  0  0  0
 33 27  2  0  0  0  0
 36 33  1  0  0  0  0
M  END
>  <minimizedAffinity>
-6.23878431

>  <minimizedRMSD>
1.25466704

$$$$
