
 OpenBabel03242515003D

 36 38  0  0  0  0  0  0  0  0999 V2000
   44.2200   35.1970   41.4280 S   0  0  0  0  0  0  0  0  0  0  0  0
   45.2650   34.4650   42.6870 C   0  0  0  0  0  0  0  0  0  0  0  0
   46.5060   33.9680   42.2590 C   0  0  0  0  0  0  0  0  0  0  0  0
   47.3550   33.3890   43.2010 C   0  0  0  0  0  0  0  0  0  0  0  0
   46.9280   33.3390   44.4810 N   0  0  0  0  0  0  0  0  0  0  0  0
   45.7420   33.8150   44.8910 C   0  0  0  0  0  0  0  0  0  0  0  0
   44.9280   34.3720   43.9770 N   0  0  0  0  0  0  0  0  0  0  0  0
   46.8680   33.9970   41.2390 H   0  0  0  0  0  0  0  0  0  0  0  0
   48.3170   32.9980   42.8970 H   0  0  0  0  0  0  0  0  0  0  0  0
   45.3780   33.7140   46.2860 C   0  0  0  0  0  0  0  0  0  0  0  0
   44.5680   34.5460   46.7610 O   0  0  0  0  0  0  0  0  0  0  0  0
   45.8550   32.7410   47.2080 N   0  0  0  0  0  0  0  0  0  0  0  0
   44.8660   31.8820   47.8300 C   0  0  0  0  0  3  0  0  0  0  0  0
   43.8740   32.0010   47.3980 H   0  0  0  0  0  0  0  0  0  0  0  0
   45.3190   30.4480   47.5490 C   0  0  0  0  0  3  0  0  0  0  0  0
   44.7220   29.8020   48.2260 H   0  0  0  0  0  0  0  0  0  0  0  0
   46.6390   30.2400   47.8670 O   0  0  0  0  0  0  0  0  0  0  0  0
   47.5280   31.0610   47.2210 C   0  0  0  0  0  2  0  0  0  0  0  0
   47.2390   32.5240   47.5840 C   0  0  0  0  0  2  0  0  0  0  0  0
   42.5220   34.6390   41.5340 C   0  0  0  0  0  0  0  0  0  0  0  0
   42.3920   33.7100   40.9060 H   0  0  0  0  0  0  0  0  0  0  0  0
   42.2410   34.3190   42.5760 H   0  0  0  0  0  0  0  0  0  0  0  0
   41.5220   35.6430   41.0670 C   0  0  0  0  0  0  0  0  0  0  0  0
   40.9340   36.0360   41.9440 H   0  0  0  0  0  0  0  0  0  0  0  0
   41.9970   36.5260   40.5930 H   0  0  0  0  0  0  0  0  0  0  0  0
   42.3580   35.8130   38.1430 Cl  0  0  0  0  0  0  0  0  0  0  0  0
   40.8820   35.0960   38.7000 C   0  0  0  0  0  0  0  0  0  0  0  0
   40.5940   35.0710   40.0710 C   0  0  0  0  0  0  0  0  0  0  0  0
   39.4010   34.4830   40.4310 C   0  0  0  0  0  0  0  0  0  0  0  0
   38.4620   33.9170   39.5820 C   0  0  0  0  0  0  0  0  0  0  0  0
   38.7740   33.9570   38.2300 C   0  0  0  0  0  0  0  0  0  0  0  0
   37.6370   33.2620   37.0800 Cl  0  0  0  0  0  0  0  0  0  0  0  0
   39.9540   34.5330   37.8170 C   0  0  0  0  0  0  0  0  0  0  0  0
   39.1690   34.4590   41.4950 H   0  0  0  0  0  0  0  0  0  0  0  0
   37.5570   33.4830   39.9850 H   0  0  0  0  0  0  0  0  0  0  0  0
   40.1710   34.5500   36.7500 H   0  0  0  0  0  0  0  0  0  0  0  0
  1 20  1  0  0  0  0
  1  2  1  0  0  0  0
  2  7  1  0  0  0  0
  3  2  2  0  0  0  0
  3  4  1  0  0  0  0
  4  5  2  0  0  0  0
  5  6  1  0  0  0  0
  6 10  1  0  0  0  0
  7  6  2  0  0  0  0
  8  3  1  0  0  0  0
  9  4  1  0  0  0  0
 10 11  2  0  0  0  0
 10 12  1  0  0  0  0
 12 19  1  0  0  0  0
 12 13  1  0  0  0  0
 14 13  1  0  0  0  0
 15 13  1  0  0  0  0
 15 17  1  0  0  0  0
 15 16  1  0  0  0  0
 18 19  1  0  0  0  0
 18 17  1  0  0  0  0
 20 22  1  0  0  0  0
 21 20  1  0  0  0  0
 23 20  1  0  0  0  0
 23 24  1  0  0  0  0
 25 23  1  0  0  0  0
 26 27  1  0  0  0  0
 27 28  1  0  0  0  0
 28 29  2  0  0  0  0
 28 23  1  0  0  0  0
 29 34  1  0  0  0  0
 30 35  1  0  0  0  0
 30 29  1  0  0  0  0
 31 30  2  0  0  0  0
 32 31  1  0  0  0  0
 33 31  1  0  0  0  0
 33 27  2  0  0  0  0
 36 33  1  0  0  0  0
M  END
>  <minimizedAffinity>
-6.58056688

>  <minimizedRMSD>
0.846000791

$$$$
