
 OpenBabel03242516523D

 44 47  0  0  1  0  0  0  0  0999 V2000
   47.8430   32.8720   41.7080 C   0  0  1  0  0  0  0  0  0  0  0  0
   47.4750   32.1970   40.4620 C   0  0  0  0  0  0  0  0  0  0  0  0
   48.4830   32.6590   39.4110 C   0  0  0  0  0  0  0  0  0  0  0  0
   48.1770   34.1060   39.1310 C   0  0  0  0  0  0  0  0  0  0  0  0
   48.1650   34.9800   40.3520 C   0  0  0  0  0  0  0  0  0  0  0  0
   47.6760   34.3930   41.6130 C   0  0  1  0  0  0  0  0  0  0  0  0
   48.9620   32.7670   41.8560 H   0  0  0  0  0  0  0  0  0  0  0  0
   46.4860   32.4880   40.0450 H   0  0  0  0  0  0  0  0  0  0  0  0
   47.5180   31.1130   40.5830 H   0  0  0  0  0  0  0  0  0  0  0  0
   49.5280   32.5100   39.7320 H   0  0  0  0  0  0  0  0  0  0  0  0
   48.2280   32.0840   38.4970 H   0  0  0  0  0  0  0  0  0  0  0  0
   47.1920   34.1360   38.6150 H   0  0  0  0  0  0  0  0  0  0  0  0
   48.9060   34.5010   38.4090 H   0  0  0  0  0  0  0  0  0  0  0  0
   47.5250   35.8620   40.0990 H   0  0  0  0  0  0  0  0  0  0  0  0
   49.1870   35.4110   40.4560 H   0  0  0  0  0  0  0  0  0  0  0  0
   48.2980   34.7960   42.4570 H   0  0  0  0  0  0  0  0  0  0  0  0
   45.4670   31.0240   43.9920 C   0  0  0  0  0  0  0  0  0  0  0  0
   46.1300   31.5190   42.8630 C   0  0  0  0  0  0  0  0  0  0  0  0
   47.2130   32.3990   42.9230 C   0  0  0  0  0  0  0  0  0  0  0  0
   47.5980   32.7560   44.1490 N   0  0  0  0  0  0  0  0  0  0  0  0
   46.9620   32.2820   45.2560 C   0  0  0  0  0  0  0  0  0  0  0  0
   45.9230   31.4380   45.1900 N   0  0  0  0  0  0  0  0  0  0  0  0
   44.6360   30.3470   43.8700 H   0  0  0  0  0  0  0  0  0  0  0  0
   45.8060   31.2210   41.8700 H   0  0  0  0  0  0  0  0  0  0  0  0
   47.2890   32.5830   46.2410 H   0  0  0  0  0  0  0  0  0  0  0  0
   46.3100   34.8060   41.9310 C   0  0  0  0  0  0  0  0  0  0  0  0
   45.9170   35.5170   43.0710 C   0  0  0  0  0  0  0  0  0  0  0  0
   44.5620   35.8240   43.1680 C   0  0  0  0  0  0  0  0  0  0  0  0
   43.7270   35.4060   42.1460 C   0  0  0  0  0  0  0  0  0  0  0  0
   44.1390   34.7070   41.0330 C   0  0  0  0  0  0  0  0  0  0  0  0
   45.4680   34.4140   40.9530 N   0  0  0  0  0  0  0  0  0  0  0  0
   46.6670   35.7680   43.7690 H   0  0  0  0  0  0  0  0  0  0  0  0
   44.2310   36.3720   44.0390 H   0  0  0  0  0  0  0  0  0  0  0  0
   42.6740   35.6400   42.2130 H   0  0  0  0  0  0  0  0  0  0  0  0
   43.1720   34.3140   40.0110 C   0  0  0  0  0  0  0  0  0  0  0  0
   42.6960   35.2060   39.2600 O   0  0  0  0  0  0  0  0  0  0  0  0
   42.5940   33.0740   39.6320 N   0  0  0  0  0  0  0  0  0  0  0  0
   41.2440   33.2600   39.0850 C   0  0  0  0  0  3  0  0  0  0  0  0
   40.4780   33.1530   39.8910 H   0  0  0  0  0  0  0  0  0  0  0  0
   41.0260   32.0950   38.1160 C   0  0  0  0  0  3  0  0  0  0  0  0
   40.6290   31.2080   38.6210 H   0  0  0  0  0  0  0  0  0  0  0  0
   42.1860   31.8500   37.3980 O   0  0  0  0  0  0  0  0  0  0  0  0
   43.1750   31.2620   38.1940 C   0  0  0  0  0  2  0  0  0  0  0  0
   42.9710   31.6510   39.6400 C   0  0  0  0  0  2  0  0  0  0  0  0
  1  7  1  1  0  0  0
  1 19  1  0  0  0  0
  2  9  1  0  0  0  0
  2  1  1  0  0  0  0
  3 10  1  0  0  0  0
  3  2  1  0  0  0  0
  4  3  1  0  0  0  0
  4  5  1  0  0  0  0
  5 15  1  0  0  0  0
  5  6  1  0  0  0  0
  6  1  1  0  0  0  0
  6 26  1  0  0  0  0
  6 16  1  1  0  0  0
  8  2  1  0  0  0  0
 11  3  1  0  0  0  0
 12  4  1  0  0  0  0
 13  4  1  0  0  0  0
 14  5  1  0  0  0  0
 17 22  1  0  0  0  0
 18 19  1  0  0  0  0
 18 17  2  0  0  0  0
 19 20  2  0  0  0  0
 20 21  1  0  0  0  0
 21 25  1  0  0  0  0
 22 21  2  0  0  0  0
 23 17  1  0  0  0  0
 24 18  1  0  0  0  0
 26 27  1  0  0  0  0
 27 28  2  0  0  0  0
 27 32  1  0  0  0  0
 28 33  1  0  0  0  0
 29 34  1  0  0  0  0
 29 28  1  0  0  0  0
 30 29  2  0  0  0  0
 31 30  1  0  0  0  0
 31 26  2  0  0  0  0
 35 30  1  0  0  0  0
 36 35  2  0  0  0  0
 37 44  1  0  0  0  0
 37 35  1  0  0  0  0
 38 37  1  0  0  0  0
 38 39  1  0  0  0  0
 40 41  1  0  0  0  0
 40 38  1  0  0  0  0
 42 40  1  0  0  0  0
 42 43  1  0  0  0  0
 43 44  1  0  0  0  0
M  END
>  <minimizedAffinity>
-5.63113356

>  <minimizedRMSD>
0.580945611

$$$$
