
 OpenBabel03242515003D

 36 38  0  0  0  0  0  0  0  0999 V2000
   44.0300   34.7280   40.9740 S   0  0  0  0  0  0  0  0  0  0  0  0
   45.2230   34.3600   42.2600 C   0  0  0  0  0  0  0  0  0  0  0  0
   46.5670   34.2780   41.8620 C   0  0  0  0  0  0  0  0  0  0  0  0
   47.5330   33.9940   42.8270 C   0  0  0  0  0  0  0  0  0  0  0  0
   47.1140   33.8130   44.0970 N   0  0  0  0  0  0  0  0  0  0  0  0
   45.8300   33.8920   44.4780 C   0  0  0  0  0  0  0  0  0  0  0  0
   44.9030   34.1660   43.5430 N   0  0  0  0  0  0  0  0  0  0  0  0
   46.9240   34.4190   40.8500 H   0  0  0  0  0  0  0  0  0  0  0  0
   48.5750   33.9250   42.5460 H   0  0  0  0  0  0  0  0  0  0  0  0
   45.4850   33.6820   45.8660 C   0  0  0  0  0  0  0  0  0  0  0  0
   44.7720   34.5350   46.4470 O   0  0  0  0  0  0  0  0  0  0  0  0
   45.8790   32.5760   46.6690 N   0  0  0  0  0  0  0  0  0  0  0  0
   47.3030   32.3680   46.8520 C   0  0  0  0  0  3  0  0  0  0  0  0
   47.9010   33.1880   46.4570 H   0  0  0  0  0  0  0  0  0  0  0  0
   47.5290   32.3230   48.3640 C   0  0  0  0  0  3  0  0  0  0  0  0
   48.5520   31.9170   48.5070 H   0  0  0  0  0  0  0  0  0  0  0  0
   46.6700   31.4630   49.0000 O   0  0  0  0  0  0  0  0  0  0  0  0
   45.3370   31.7290   48.8150 C   0  0  0  0  0  2  0  0  0  0  0  0
   44.9910   31.6330   47.3230 C   0  0  0  0  0  2  0  0  0  0  0  0
   42.3470   34.7550   41.5840 C   0  0  0  0  0  0  0  0  0  0  0  0
   41.8710   33.7440   41.4200 H   0  0  0  0  0  0  0  0  0  0  0  0
   42.2980   34.9130   42.6980 H   0  0  0  0  0  0  0  0  0  0  0  0
   41.4780   35.7750   40.9280 C   0  0  0  0  0  0  0  0  0  0  0  0
   40.8880   36.3360   41.7070 H   0  0  0  0  0  0  0  0  0  0  0  0
   42.0640   36.5370   40.3760 H   0  0  0  0  0  0  0  0  0  0  0  0
   42.2070   36.0130   37.9800 Cl  0  0  0  0  0  0  0  0  0  0  0  0
   40.7910   35.2130   38.5780 C   0  0  0  0  0  0  0  0  0  0  0  0
   40.5500   35.1620   39.9570 C   0  0  0  0  0  0  0  0  0  0  0  0
   39.4020   34.5090   40.3500 C   0  0  0  0  0  0  0  0  0  0  0  0
   38.4670   33.9000   39.5260 C   0  0  0  0  0  0  0  0  0  0  0  0
   38.7320   33.9680   38.1650 C   0  0  0  0  0  0  0  0  0  0  0  0
   37.5960   33.2220   37.0470 Cl  0  0  0  0  0  0  0  0  0  0  0  0
   39.8660   34.6090   37.7200 C   0  0  0  0  0  0  0  0  0  0  0  0
   39.2070   34.4640   41.4200 H   0  0  0  0  0  0  0  0  0  0  0  0
   37.6000   33.4160   39.9540 H   0  0  0  0  0  0  0  0  0  0  0  0
   40.0460   34.6450   36.6460 H   0  0  0  0  0  0  0  0  0  0  0  0
  1 20  1  0  0  0  0
  1  2  1  0  0  0  0
  2  7  1  0  0  0  0
  3  2  2  0  0  0  0
  3  4  1  0  0  0  0
  4  5  2  0  0  0  0
  5  6  1  0  0  0  0
  6 10  1  0  0  0  0
  7  6  2  0  0  0  0
  8  3  1  0  0  0  0
  9  4  1  0  0  0  0
 10 11  2  0  0  0  0
 10 12  1  0  0  0  0
 12 13  1  0  0  0  0
 12 19  1  0  0  0  0
 13 15  1  0  0  0  0
 14 13  1  0  0  0  0
 15 16  1  0  0  0  0
 15 17  1  0  0  0  0
 18 17  1  0  0  0  0
 19 18  1  0  0  0  0
 20 22  1  0  0  0  0
 21 20  1  0  0  0  0
 23 20  1  0  0  0  0
 23 24  1  0  0  0  0
 25 23  1  0  0  0  0
 26 27  1  0  0  0  0
 27 28  1  0  0  0  0
 28 29  2  0  0  0  0
 28 23  1  0  0  0  0
 29 34  1  0  0  0  0
 30 35  1  0  0  0  0
 30 29  1  0  0  0  0
 31 30  2  0  0  0  0
 32 31  1  0  0  0  0
 33 31  1  0  0  0  0
 33 27  2  0  0  0  0
 36 33  1  0  0  0  0
M  END
>  <minimizedAffinity>
-6.63118315

>  <minimizedRMSD>
0.682460725

$$$$
