
 OpenBabel03252507163D

 28 30  0  0  0  0  0  0  0  0999 V2000
   44.5190   35.6550   43.3070 C   0  0  0  0  0  0  0  0  0  0  0  0
   45.3480   34.5620   42.9510 C   0  0  0  0  0  0  0  0  0  0  0  0
   45.8590   33.7890   43.9920 C   0  0  0  0  0  0  0  0  0  0  0  0
   45.5580   34.0960   45.2690 N   0  0  0  0  0  0  0  0  0  0  0  0
   44.7530   35.1600   45.5770 C   0  0  0  0  0  0  0  0  0  0  0  0
   44.2620   35.9010   44.5920 N   0  0  0  0  0  0  0  0  0  0  0  0
   44.1110   36.2690   42.5040 H   0  0  0  0  0  0  0  0  0  0  0  0
   44.5080   35.4110   46.5920 H   0  0  0  0  0  0  0  0  0  0  0  0
   46.7130   32.6620   43.6450 C   0  0  0  0  0  0  0  0  0  0  0  0
   46.2300   31.3800   43.7160 C   0  0  0  0  0  0  0  0  0  0  0  0
   47.0820   30.3470   43.3750 C   0  0  0  0  0  0  0  0  0  0  0  0
   48.3930   30.5350   42.9660 C   0  0  0  0  0  0  0  0  0  0  0  0
   48.8150   31.8400   42.9170 C   0  0  0  0  0  0  0  0  0  0  0  0
   47.9840   32.8480   43.2500 N   0  0  0  0  0  0  0  0  0  0  0  0
   45.2090   31.2150   44.0320 H   0  0  0  0  0  0  0  0  0  0  0  0
   46.6270   29.3580   43.4560 H   0  0  0  0  0  0  0  0  0  0  0  0
   48.9840   29.6690   42.7210 H   0  0  0  0  0  0  0  0  0  0  0  0
   49.8400   32.0220   42.6000 H   0  0  0  0  0  0  0  0  0  0  0  0
   45.6250   34.2960   41.5860 C   0  0  0  0  0  0  0  0  0  0  0  0
   46.6920   34.7440   41.1030 O   0  0  0  0  0  0  0  0  0  0  0  0
   44.7700   33.5510   40.7240 N   0  0  0  0  0  0  0  0  0  0  0  0
   44.9100   32.1100   40.5960 C   0  0  0  0  0  3  0  0  0  0  0  0
   45.6770   31.7760   41.3040 H   0  0  0  0  0  0  0  0  0  0  0  0
   45.3800   31.8780   39.1640 C   0  0  0  0  0  3  0  0  0  0  0  0
   46.5070   31.9320   39.2140 H   0  0  0  0  0  0  0  0  0  0  0  0
   44.9860   32.8890   38.3250 O   0  0  0  0  0  0  0  0  0  0  0  0
   43.7610   33.4510   38.5820 C   0  0  0  0  0  2  0  0  0  0  0  0
   43.7220   34.1650   39.9300 C   0  0  0  0  0  2  0  0  0  0  0  0
  1  6  1  0  0  0  0
  2  1  2  0  0  0  0
  2  3  1  0  0  0  0
  3  4  2  0  0  0  0
  4  5  1  0  0  0  0
  5  8  1  0  0  0  0
  6  5  2  0  0  0  0
  7  1  1  0  0  0  0
  9 10  1  0  0  0  0
  9  3  1  0  0  0  0
 10 15  1  0  0  0  0
 11 16  1  0  0  0  0
 11 10  2  0  0  0  0
 12 11  1  0  0  0  0
 13 12  2  0  0  0  0
 13 14  1  0  0  0  0
 14  9  2  0  0  0  0
 17 12  1  0  0  0  0
 18 13  1  0  0  0  0
 19  2  1  0  0  0  0
 20 19  2  0  0  0  0
 21 19  1  0  0  0  0
 22 21  1  0  0  0  0
 22 23  1  0  0  0  0
 24 25  1  0  0  0  0
 24 22  1  0  0  0  0
 26 27  1  0  0  0  0
 26 24  1  0  0  0  0
 27 28  1  0  0  0  0
 28 21  1  0  0  0  0
M  END
>  <minimizedAffinity>
-4.22753954

>  <minimizedRMSD>
1.03851545

$$$$
