
 OpenBabel03242516523D

 44 47  0  0  1  0  0  0  0  0999 V2000
   47.8380   32.8820   41.8350 C   0  0  1  0  0  0  0  0  0  0  0  0
   47.5160   32.2290   40.5660 C   0  0  0  0  0  0  0  0  0  0  0  0
   48.5280   32.7500   39.5480 C   0  0  0  0  0  0  0  0  0  0  0  0
   48.1820   34.1930   39.2980 C   0  0  0  0  0  0  0  0  0  0  0  0
   48.1180   35.0340   40.5400 C   0  0  0  0  0  0  0  0  0  0  0  0
   47.6240   34.3990   41.7760 C   0  0  1  0  0  0  0  0  0  0  0  0
   48.9570   32.8090   42.0030 H   0  0  0  0  0  0  0  0  0  0  0  0
   46.5260   32.4990   40.1360 H   0  0  0  0  0  0  0  0  0  0  0  0
   47.5920   31.1440   40.6600 H   0  0  0  0  0  0  0  0  0  0  0  0
   49.5720   32.6260   39.8850 H   0  0  0  0  0  0  0  0  0  0  0  0
   48.3100   32.1920   38.6140 H   0  0  0  0  0  0  0  0  0  0  0  0
   47.2060   34.2060   38.7630 H   0  0  0  0  0  0  0  0  0  0  0  0
   48.9110   34.6300   38.6010 H   0  0  0  0  0  0  0  0  0  0  0  0
   47.4550   35.9020   40.2970 H   0  0  0  0  0  0  0  0  0  0  0  0
   49.1240   35.4950   40.6760 H   0  0  0  0  0  0  0  0  0  0  0  0
   48.2160   34.7990   42.6420 H   0  0  0  0  0  0  0  0  0  0  0  0
   45.4300   30.9620   44.0240 C   0  0  0  0  0  0  0  0  0  0  0  0
   46.1010   31.5030   42.9210 C   0  0  0  0  0  0  0  0  0  0  0  0
   47.2010   32.3580   43.0250 C   0  0  0  0  0  0  0  0  0  0  0  0
   47.5930   32.6430   44.2680 N   0  0  0  0  0  0  0  0  0  0  0  0
   46.9480   32.1230   45.3490 C   0  0  0  0  0  0  0  0  0  0  0  0
   45.8940   31.3030   45.2410 N   0  0  0  0  0  0  0  0  0  0  0  0
   44.5870   30.3080   43.8680 H   0  0  0  0  0  0  0  0  0  0  0  0
   45.7710   31.2630   41.9140 H   0  0  0  0  0  0  0  0  0  0  0  0
   47.2820   32.3670   46.3490 H   0  0  0  0  0  0  0  0  0  0  0  0
   46.2390   34.7600   42.0770 C   0  0  0  0  0  0  0  0  0  0  0  0
   45.7830   35.3100   43.2810 C   0  0  0  0  0  0  0  0  0  0  0  0
   44.4210   35.5950   43.3490 C   0  0  0  0  0  0  0  0  0  0  0  0
   43.6430   35.3160   42.2390 C   0  0  0  0  0  0  0  0  0  0  0  0
   44.1170   34.7750   41.0650 C   0  0  0  0  0  0  0  0  0  0  0  0
   45.4520   34.5010   41.0130 N   0  0  0  0  0  0  0  0  0  0  0  0
   46.4940   35.4680   44.0430 H   0  0  0  0  0  0  0  0  0  0  0  0
   44.0420   36.0210   44.2670 H   0  0  0  0  0  0  0  0  0  0  0  0
   42.5850   35.5350   42.2830 H   0  0  0  0  0  0  0  0  0  0  0  0
   43.2060   34.5200   39.9520 C   0  0  0  0  0  0  0  0  0  0  0  0
   42.3820   35.4160   39.6320 O   0  0  0  0  0  0  0  0  0  0  0  0
   43.0110   33.4190   39.0760 N   0  0  0  0  0  0  0  0  0  0  0  0
   44.2590   32.6760   38.8670 C   0  0  0  0  0  3  0  0  0  0  0  0
   44.7920   33.0560   37.9620 H   0  0  0  0  0  0  0  0  0  0  0  0
   43.8380   31.2370   38.5550 C   0  0  0  0  0  3  0  0  0  0  0  0
   43.6450   31.0860   37.4870 H   0  0  0  0  0  0  0  0  0  0  0  0
   42.7760   30.8660   39.3660 O   0  0  0  0  0  0  0  0  0  0  0  0
   41.5900   31.5050   38.9940 C   0  0  0  0  0  2  0  0  0  0  0  0
   41.9020   32.8190   38.3150 C   0  0  0  0  0  2  0  0  0  0  0  0
  1  7  1  1  0  0  0
  1 19  1  0  0  0  0
  2  9  1  0  0  0  0
  2  1  1  0  0  0  0
  3 10  1  0  0  0  0
  3  2  1  0  0  0  0
  4  3  1  0  0  0  0
  4  5  1  0  0  0  0
  5 15  1  0  0  0  0
  5  6  1  0  0  0  0
  6  1  1  0  0  0  0
  6 26  1  0  0  0  0
  6 16  1  1  0  0  0
  8  2  1  0  0  0  0
 11  3  1  0  0  0  0
 12  4  1  0  0  0  0
 13  4  1  0  0  0  0
 14  5  1  0  0  0  0
 17 22  1  0  0  0  0
 18 19  1  0  0  0  0
 18 17  2  0  0  0  0
 19 20  2  0  0  0  0
 20 21  1  0  0  0  0
 21 25  1  0  0  0  0
 22 21  2  0  0  0  0
 23 17  1  0  0  0  0
 24 18  1  0  0  0  0
 26 27  1  0  0  0  0
 27 28  2  0  0  0  0
 27 32  1  0  0  0  0
 28 33  1  0  0  0  0
 29 34  1  0  0  0  0
 29 28  1  0  0  0  0
 30 29  2  0  0  0  0
 31 30  1  0  0  0  0
 31 26  2  0  0  0  0
 35 30  1  0  0  0  0
 36 35  2  0  0  0  0
 37 35  1  0  0  0  0
 38 37  1  0  0  0  0
 39 38  1  0  0  0  0
 40 38  1  0  0  0  0
 40 42  1  0  0  0  0
 41 40  1  0  0  0  0
 43 42  1  0  0  0  0
 44 43  1  0  0  0  0
 44 37  1  0  0  0  0
M  END
>  <minimizedAffinity>
-5.47272062

>  <minimizedRMSD>
0.282742947

$$$$
