
 OpenBabel03242510223D

 37 40  0  0  1  0  0  0  0  0999 V2000
   48.0320   33.2450   43.1270 N   0  0  0  0  0  0  0  0  0  0  0  0
   49.2300   33.3320   42.4210 C   0  0  0  0  0  0  0  0  0  0  0  0
   50.3940   32.9820   42.7360 O   0  0  0  0  0  0  0  0  0  0  0  0
   47.4570   34.1150   43.0230 H   0  0  0  0  0  0  0  0  0  0  0  0
   46.3030   32.1080   44.4730 C   0  0  1  0  0  0  0  0  0  0  0  0
   46.4250   31.3630   43.2910 C   0  0  0  0  0  0  0  0  0  0  0  0
   47.6620   32.1060   43.8880 C   0  0  1  0  0  0  0  0  0  0  0  0
   46.1740   31.6580   45.4710 H   0  0  0  0  0  0  0  0  0  0  0  0
   46.5110   30.2370   43.3790 H   0  0  0  0  0  0  0  0  0  0  0  0
   46.1580   31.6260   42.2500 H   0  0  0  0  0  0  0  0  0  0  0  0
   48.4400   31.4060   44.2390 H   0  0  0  0  0  0  0  0  0  0  0  0
   45.0490   33.9830   43.1620 C   0  0  0  0  0  0  0  0  0  0  0  0
   45.5470   33.4480   44.3960 C   0  0  0  0  0  0  0  0  0  0  0  0
   45.3480   34.1920   45.5410 C   0  0  0  0  0  0  0  0  0  0  0  0
   44.7040   35.3740   45.4510 N   0  0  0  0  0  0  0  0  0  0  0  0
   44.2380   35.8710   44.2740 C   0  0  0  0  0  0  0  0  0  0  0  0
   44.4230   35.1410   43.0980 N   0  0  0  0  0  0  0  0  0  0  0  0
   45.1970   33.3830   42.2930 H   0  0  0  0  0  0  0  0  0  0  0  0
   45.7080   33.8210   46.4920 H   0  0  0  0  0  0  0  0  0  0  0  0
   43.7370   36.8300   44.3190 H   0  0  0  0  0  0  0  0  0  0  0  0
   49.2230   33.9340   41.0280 C   0  0  2  0  0  0  0  0  0  0  0  0
   48.6220   35.3840   40.8950 C   0  0  0  0  0  0  0  0  0  0  0  0
   47.9700   34.1800   40.3060 C   0  0  1  0  0  0  0  0  0  0  0  0
   50.1660   33.8820   40.4480 H   0  0  0  0  0  0  0  0  0  0  0  0
   49.1620   36.1040   40.2860 H   0  0  0  0  0  0  0  0  0  0  0  0
   48.2070   35.7380   41.8770 H   0  0  0  0  0  0  0  0  0  0  0  0
   47.0360   33.7680   40.7260 H   0  0  0  0  0  0  0  0  0  0  0  0
   47.9900   34.0380   38.8010 C   0  0  0  0  0  0  0  0  0  0  0  0
   48.5400   34.8930   38.1160 O   0  0  0  0  0  0  0  0  0  0  0  0
   47.3630   32.9010   38.1540 N   0  0  0  0  0  0  0  0  0  0  0  0
   45.9620   33.0610   37.7980 C   0  0  0  0  0  3  0  0  0  0  0  0
   45.7860   33.7120   36.9420 H   0  0  0  0  0  0  0  0  0  0  0  0
   45.3720   31.6830   37.6440 C   0  0  0  0  0  3  0  0  0  0  0  0
   44.4320   31.7060   37.0470 H   0  0  0  0  0  0  0  0  0  0  0  0
   46.2130   30.7860   36.9900 O   0  0  0  0  0  0  0  0  0  0  0  0
   47.3400   30.5100   37.7700 C   0  0  0  0  0  2  0  0  0  0  0  0
   48.1870   31.7290   37.9250 C   0  0  0  0  0  2  0  0  0  0  0  0
  1  7  1  0  0  0  0
  2  3  2  0  0  0  0
  2  1  1  0  0  0  0
  4  1  1  0  0  0  0
  5  8  1  1  0  0  0
  6  9  1  0  0  0  0
  6  7  1  0  0  0  0
  6  5  1  0  0  0  0
  7 11  1  1  0  0  0
  7  5  1  0  0  0  0
 10  6  1  0  0  0  0
 12 13  1  0  0  0  0
 13  5  1  0  0  0  0
 13 14  2  0  0  0  0
 14 19  1  0  0  0  0
 15 14  1  0  0  0  0
 16 20  1  0  0  0  0
 16 15  2  0  0  0  0
 17 12  2  0  0  0  0
 17 16  1  0  0  0  0
 18 12  1  0  0  0  0
 21 24  1  6  0  0  0
 21  2  1  0  0  0  0
 22 21  1  0  0  0  0
 22 26  1  0  0  0  0
 23 27  1  1  0  0  0
 23 22  1  0  0  0  0
 23 21  1  0  0  0  0
 25 22  1  0  0  0  0
 28 23  1  0  0  0  0
 29 28  2  0  0  0  0
 30 28  1  0  0  0  0
 31 30  1  0  0  0  0
 32 31  1  0  0  0  0
 33 31  1  0  0  0  0
 34 33  1  0  0  0  0
 35 33  1  0  0  0  0
 35 36  1  0  0  0  0
 36 37  1  0  0  0  0
 37 30  1  0  0  0  0
M  END
>  <minimizedAffinity>
-4.87467527

>  <minimizedRMSD>
0.651647031

$$$$
