
 OpenBabel03252507163D

 28 30  0  0  0  0  0  0  0  0999 V2000
   44.4500   35.7480   43.5380 C   0  0  0  0  0  0  0  0  0  0  0  0
   45.1580   34.6220   43.0510 C   0  0  0  0  0  0  0  0  0  0  0  0
   45.6690   33.7370   43.9970 C   0  0  0  0  0  0  0  0  0  0  0  0
   45.4800   33.9720   45.3100 N   0  0  0  0  0  0  0  0  0  0  0  0
   44.7900   35.0710   45.7460 C   0  0  0  0  0  0  0  0  0  0  0  0
   44.3000   35.9190   44.8510 N   0  0  0  0  0  0  0  0  0  0  0  0
   44.0430   36.4500   42.8090 H   0  0  0  0  0  0  0  0  0  0  0  0
   44.6340   35.2660   46.7910 H   0  0  0  0  0  0  0  0  0  0  0  0
   46.4010   32.5740   43.5140 C   0  0  0  0  0  0  0  0  0  0  0  0
   45.7490   31.3840   43.3060 C   0  0  0  0  0  0  0  0  0  0  0  0
   46.4900   30.3120   42.8470 C   0  0  0  0  0  0  0  0  0  0  0  0
   47.8500   30.3730   42.5850 C   0  0  0  0  0  0  0  0  0  0  0  0
   48.4420   31.5900   42.8130 C   0  0  0  0  0  0  0  0  0  0  0  0
   47.7190   32.6360   43.2620 N   0  0  0  0  0  0  0  0  0  0  0  0
   44.6890   31.3190   43.5040 H   0  0  0  0  0  0  0  0  0  0  0  0
   45.9040   29.4030   42.7060 H   0  0  0  0  0  0  0  0  0  0  0  0
   48.3450   29.4860   42.2290 H   0  0  0  0  0  0  0  0  0  0  0  0
   49.5100   31.6720   42.6180 H   0  0  0  0  0  0  0  0  0  0  0  0
   45.3210   34.4360   41.6540 C   0  0  0  0  0  0  0  0  0  0  0  0
   46.4450   34.6800   41.1540 O   0  0  0  0  0  0  0  0  0  0  0  0
   44.2910   33.9870   40.7780 N   0  0  0  0  0  0  0  0  0  0  0  0
   43.4050   34.9340   40.1220 C   0  0  0  0  0  3  0  0  0  0  0  0
   43.7440   35.9470   40.3670 H   0  0  0  0  0  0  0  0  0  0  0  0
   42.0270   34.6800   40.7240 C   0  0  0  0  0  3  0  0  0  0  0  0
   41.9800   35.3450   41.6350 H   0  0  0  0  0  0  0  0  0  0  0  0
   41.8980   33.3950   41.1830 O   0  0  0  0  0  0  0  0  0  0  0  0
   42.5400   32.4230   40.4610 C   0  0  0  0  0  2  0  0  0  0  0  0
   44.0570   32.5850   40.4870 C   0  0  0  0  0  2  0  0  0  0  0  0
  1  6  1  0  0  0  0
  2  1  2  0  0  0  0
  2  3  1  0  0  0  0
  3  4  2  0  0  0  0
  4  5  1  0  0  0  0
  5  8  1  0  0  0  0
  6  5  2  0  0  0  0
  7  1  1  0  0  0  0
  9  3  1  0  0  0  0
 10 15  1  0  0  0  0
 10  9  1  0  0  0  0
 11 10  2  0  0  0  0
 12 13  2  0  0  0  0
 12 11  1  0  0  0  0
 13 14  1  0  0  0  0
 14  9  2  0  0  0  0
 16 11  1  0  0  0  0
 17 12  1  0  0  0  0
 18 13  1  0  0  0  0
 19  2  1  0  0  0  0
 20 19  2  0  0  0  0
 21 19  1  0  0  0  0
 22 23  1  0  0  0  0
 22 24  1  0  0  0  0
 22 21  1  0  0  0  0
 24 26  1  0  0  0  0
 24 25  1  0  0  0  0
 27 28  1  0  0  0  0
 27 26  1  0  0  0  0
 28 21  1  0  0  0  0
M  END
>  <minimizedAffinity>
-4.32751656

>  <minimizedRMSD>
1.21430624

$$$$
