
 OpenBabel03242510223D

 37 40  0  0  1  0  0  0  0  0999 V2000
   48.0200   33.2290   43.1010 N   0  0  0  0  0  0  0  0  0  0  0  0
   49.2180   33.3170   42.3940 C   0  0  0  0  0  0  0  0  0  0  0  0
   50.3790   32.9520   42.7020 O   0  0  0  0  0  0  0  0  0  0  0  0
   47.4530   34.1060   43.0100 H   0  0  0  0  0  0  0  0  0  0  0  0
   46.2830   32.0900   44.4330 C   0  0  1  0  0  0  0  0  0  0  0  0
   46.3970   31.3600   43.2410 C   0  0  0  0  0  0  0  0  0  0  0  0
   47.6410   32.0840   43.8460 C   0  0  1  0  0  0  0  0  0  0  0  0
   46.1510   31.6270   45.4250 H   0  0  0  0  0  0  0  0  0  0  0  0
   46.4730   30.2320   43.3120 H   0  0  0  0  0  0  0  0  0  0  0  0
   46.1310   31.6400   42.2040 H   0  0  0  0  0  0  0  0  0  0  0  0
   48.4130   31.3720   44.1860 H   0  0  0  0  0  0  0  0  0  0  0  0
   45.0360   33.9890   43.1510 C   0  0  0  0  0  0  0  0  0  0  0  0
   45.5390   33.4360   44.3760 C   0  0  0  0  0  0  0  0  0  0  0  0
   45.3560   34.1700   45.5300 C   0  0  0  0  0  0  0  0  0  0  0  0
   44.7210   35.3590   45.4580 N   0  0  0  0  0  0  0  0  0  0  0  0
   44.2510   35.8720   44.2890 C   0  0  0  0  0  0  0  0  0  0  0  0
   44.4200   35.1530   43.1050 N   0  0  0  0  0  0  0  0  0  0  0  0
   45.1710   33.3970   42.2750 H   0  0  0  0  0  0  0  0  0  0  0  0
   45.7190   33.7860   46.4740 H   0  0  0  0  0  0  0  0  0  0  0  0
   43.7590   36.8350   44.3480 H   0  0  0  0  0  0  0  0  0  0  0  0
   49.2140   33.9380   41.0090 C   0  0  2  0  0  0  0  0  0  0  0  0
   48.5850   35.3770   40.8900 C   0  0  0  0  0  0  0  0  0  0  0  0
   47.9650   34.1680   40.2760 C   0  0  1  0  0  0  0  0  0  0  0  0
   50.1650   33.9140   40.4400 H   0  0  0  0  0  0  0  0  0  0  0  0
   49.1170   36.1160   40.2970 H   0  0  0  0  0  0  0  0  0  0  0  0
   48.1510   35.7080   41.8710 H   0  0  0  0  0  0  0  0  0  0  0  0
   47.0350   33.7310   40.6800 H   0  0  0  0  0  0  0  0  0  0  0  0
   48.0050   34.0480   38.7700 C   0  0  0  0  0  0  0  0  0  0  0  0
   48.5780   34.9050   38.1060 O   0  0  0  0  0  0  0  0  0  0  0  0
   47.3710   32.9300   38.0970 N   0  0  0  0  0  0  0  0  0  0  0  0
   48.2060   31.7600   37.8780 C   0  0  0  0  0  3  0  0  0  0  0  0
   48.4060   31.1750   38.7760 H   0  0  0  0  0  0  0  0  0  0  0  0
   47.5890   30.9630   36.7590 C   0  0  0  0  0  3  0  0  0  0  0  0
   47.9470   29.9100   36.7610 H   0  0  0  0  0  0  0  0  0  0  0  0
   46.2000   30.8880   36.8270 O   0  0  0  0  0  0  0  0  0  0  0  0
   45.6280   32.1460   36.6080 C   0  0  0  0  0  2  0  0  0  0  0  0
   45.9800   33.0850   37.7140 C   0  0  0  0  0  2  0  0  0  0  0  0
  1  7  1  0  0  0  0
  2  3  2  0  0  0  0
  2  1  1  0  0  0  0
  4  1  1  0  0  0  0
  5  8  1  1  0  0  0
  6  9  1  0  0  0  0
  6  7  1  0  0  0  0
  6  5  1  0  0  0  0
  7 11  1  1  0  0  0
  7  5  1  0  0  0  0
 10  6  1  0  0  0  0
 12 13  1  0  0  0  0
 13  5  1  0  0  0  0
 13 14  2  0  0  0  0
 14 19  1  0  0  0  0
 15 14  1  0  0  0  0
 16 20  1  0  0  0  0
 16 15  2  0  0  0  0
 17 12  2  0  0  0  0
 17 16  1  0  0  0  0
 18 12  1  0  0  0  0
 21 24  1  6  0  0  0
 21  2  1  0  0  0  0
 22 21  1  0  0  0  0
 22 26  1  0  0  0  0
 23 27  1  1  0  0  0
 23 22  1  0  0  0  0
 23 21  1  0  0  0  0
 25 22  1  0  0  0  0
 28 23  1  0  0  0  0
 29 28  2  0  0  0  0
 30 28  1  0  0  0  0
 31 30  1  0  0  0  0
 31 32  1  0  0  0  0
 33 34  1  0  0  0  0
 33 35  1  0  0  0  0
 33 31  1  0  0  0  0
 36 35  1  0  0  0  0
 36 37  1  0  0  0  0
 37 30  1  0  0  0  0
M  END
>  <minimizedAffinity>
-4.9628129

>  <minimizedRMSD>
0.628986895

$$$$
