
 OpenBabel03252507163D

 28 30  0  0  0  0  0  0  0  0999 V2000
   44.6700   35.6960   43.1600 C   0  0  0  0  0  0  0  0  0  0  0  0
   45.4630   34.5620   42.8530 C   0  0  0  0  0  0  0  0  0  0  0  0
   45.8820   33.7740   43.9230 C   0  0  0  0  0  0  0  0  0  0  0  0
   45.5310   34.1050   45.1810 N   0  0  0  0  0  0  0  0  0  0  0  0
   44.7630   35.2080   45.4410 C   0  0  0  0  0  0  0  0  0  0  0  0
   44.3600   35.9640   44.4280 N   0  0  0  0  0  0  0  0  0  0  0  0
   44.3340   36.3220   42.3330 H   0  0  0  0  0  0  0  0  0  0  0  0
   44.4780   35.4790   46.4410 H   0  0  0  0  0  0  0  0  0  0  0  0
   46.6990   32.6050   43.6270 C   0  0  0  0  0  0  0  0  0  0  0  0
   46.1520   31.3470   43.6820 C   0  0  0  0  0  0  0  0  0  0  0  0
   46.9700   30.2730   43.3910 C   0  0  0  0  0  0  0  0  0  0  0  0
   48.3080   30.3950   43.0480 C   0  0  0  0  0  0  0  0  0  0  0  0
   48.7940   31.6790   43.0110 C   0  0  0  0  0  0  0  0  0  0  0  0
   47.9950   32.7280   43.2950 N   0  0  0  0  0  0  0  0  0  0  0  0
   45.1110   31.2340   43.9470 H   0  0  0  0  0  0  0  0  0  0  0  0
   46.4660   29.3080   43.4560 H   0  0  0  0  0  0  0  0  0  0  0  0
   48.8680   29.5010   42.8380 H   0  0  0  0  0  0  0  0  0  0  0  0
   49.8410   31.8100   42.7460 H   0  0  0  0  0  0  0  0  0  0  0  0
   45.7970   34.2720   41.5060 C   0  0  0  0  0  0  0  0  0  0  0  0
   46.8680   34.7390   41.0510 O   0  0  0  0  0  0  0  0  0  0  0  0
   44.9950   33.4840   40.6320 N   0  0  0  0  0  0  0  0  0  0  0  0
   45.3730   32.1210   40.2950 C   0  0  0  0  0  3  0  0  0  0  0  0
   46.2640   31.8600   40.8770 H   0  0  0  0  0  0  0  0  0  0  0  0
   45.7070   32.1550   38.8070 C   0  0  0  0  0  3  0  0  0  0  0  0
   46.8050   32.4170   38.7610 H   0  0  0  0  0  0  0  0  0  0  0  0
   45.0460   33.1620   38.1550 O   0  0  0  0  0  0  0  0  0  0  0  0
   43.7800   33.4460   38.5970 C   0  0  0  0  0  2  0  0  0  0  0  0
   43.7690   33.9750   40.0290 C   0  0  0  0  0  2  0  0  0  0  0  0
  1  6  1  0  0  0  0
  2  1  2  0  0  0  0
  2  3  1  0  0  0  0
  3  4  2  0  0  0  0
  4  5  1  0  0  0  0
  5  8  1  0  0  0  0
  6  5  2  0  0  0  0
  7  1  1  0  0  0  0
  9 10  1  0  0  0  0
  9  3  1  0  0  0  0
 10 15  1  0  0  0  0
 11 16  1  0  0  0  0
 11 10  2  0  0  0  0
 12 11  1  0  0  0  0
 13 12  2  0  0  0  0
 13 14  1  0  0  0  0
 14  9  2  0  0  0  0
 17 12  1  0  0  0  0
 18 13  1  0  0  0  0
 19  2  1  0  0  0  0
 20 19  2  0  0  0  0
 21 19  1  0  0  0  0
 22 21  1  0  0  0  0
 22 23  1  0  0  0  0
 24 22  1  0  0  0  0
 25 24  1  0  0  0  0
 26 27  1  0  0  0  0
 26 24  1  0  0  0  0
 27 28  1  0  0  0  0
 28 21  1  0  0  0  0
M  END
>  <minimizedAffinity>
-4.28957033

>  <minimizedRMSD>
0.892776489

$$$$
