
     RDKit          3D

 43 46  0  0  0  0  0  0  0  0999 V2000
   46.3222   32.1336   44.5516 C   0  0  1  0  0  0  0  0  0  0  0  0
   46.4454   31.3592   43.3899 C   0  0  0  0  0  0  0  0  0  0  0  0
   47.6777   32.1269   43.9618 C   0  0  1  0  0  0  0  0  0  0  0  0
   45.0613   33.9719   43.1962 C   0  0  0  0  0  0  0  0  0  0  0  0
   45.5551   33.4645   44.4441 C   0  0  0  0  0  0  0  0  0  0  0  0
   45.3415   34.2295   45.5720 C   0  0  0  0  0  0  0  0  0  0  0  0
   44.6885   35.4045   45.4548 N   0  0  0  0  0  0  0  0  0  0  0  0
   44.2266   35.8741   44.2654 C   0  0  0  0  0  0  0  0  0  0  0  0
   44.4261   35.1232   43.1047 N   0  0  0  0  0  0  0  0  0  0  0  0
   48.0361   33.2484   43.1698 N   0  0  0  0  0  0  0  0  0  0  0  0
   49.1876   33.2912   42.3873 C   0  0  0  0  0  0  0  0  0  0  0  0
   50.3577   32.9033   42.6286 O   0  0  0  0  0  0  0  0  0  0  0  0
   49.1109   33.8847   40.9930 C   0  0  2  0  0  0  0  0  0  0  0  0
   48.6075   35.3742   40.8938 C   0  0  0  0  0  0  0  0  0  0  0  0
   47.8247   34.2175   40.3721 C   0  0  1  0  0  0  0  0  0  0  0  0
   47.7115   34.0684   38.8724 C   0  0  0  0  0  0  0  0  0  0  0  0
   48.4727   34.6898   38.1395 O   0  0  0  0  0  0  0  0  0  0  0  0
   46.1997   31.7089   45.5625 H   0  0  0  0  0  0  0  0  0  0  0  0
   46.5397   30.2357   43.5062 H   0  0  0  0  0  0  0  0  0  0  0  0
   46.1725   31.5927   42.3435 H   0  0  0  0  0  0  0  0  0  0  0  0
   48.4631   31.4416   44.3281 H   0  0  0  0  0  0  0  0  0  0  0  0
   45.2199   33.3559   42.3403 H   0  0  0  0  0  0  0  0  0  0  0  0
   45.6979   33.8811   46.5326 H   0  0  0  0  0  0  0  0  0  0  0  0
   43.7169   36.8292   44.2870 H   0  0  0  0  0  0  0  0  0  0  0  0
   47.4859   34.1368   43.0968 H   0  0  0  0  0  0  0  0  0  0  0  0
   49.9975   33.7617   40.3389 H   0  0  0  0  0  0  0  0  0  0  0  0
   49.1470   36.0503   40.2351 H   0  0  0  0  0  0  0  0  0  0  0  0
   48.2995   35.7623   41.9018 H   0  0  0  0  0  0  0  0  0  0  0  0
   46.9014   33.8767   40.8714 H   0  0  0  0  0  0  0  0  0  0  0  0
   46.7104   33.1970   38.2862 N   0  0  0  0  0  0  0  0  0  0  0  0
   46.8938   32.8678   36.8820 C   0  0  2  0  0  0  0  0  0  0  0  0
   47.7006   32.1607   36.6869 H   0  0  0  0  0  0  0  0  0  0  0  0
   45.5586   32.4304   36.3385 C   0  0  2  0  0  0  0  0  0  0  0  0
   45.6715   31.8422   35.4008 H   0  0  0  0  0  0  0  0  0  0  0  0
   44.8413   31.6160   37.2106 O   0  0  0  0  0  0  0  0  0  0  0  0
   44.4482   32.3345   38.3442 C   0  0  0  0  0  0  0  0  0  0  0  0
   45.6374   32.7417   39.1494 C   0  0  0  0  0  0  0  0  0  0  0  0
   47.1404   33.8172   36.3398 H   0  0  0  0  0  0  0  0  0  0  0  0
   44.9162   33.3006   36.0602 H   0  0  0  0  0  0  0  0  0  0  0  0
   43.7732   31.6539   38.9160 H   0  0  0  0  0  0  0  0  0  0  0  0
   43.8444   33.1914   37.9853 H   0  0  0  0  0  0  0  0  0  0  0  0
   45.3341   33.5235   39.8767 H   0  0  0  0  0  0  0  0  0  0  0  0
   46.0238   31.8840   39.7430 H   0  0  0  0  0  0  0  0  0  0  0  0
  2  3  1  0
  2  1  1  0
  3  1  1  0
  4  5  2  0
  5  1  1  0
  5  6  1  0
  7  6  2  0
  8  7  1  0
  9  4  1  0
  9  8  2  0
 10  3  1  0
 11 12  2  0
 11 10  1  0
 13 11  1  0
 14 13  1  0
 15 14  1  0
 15 13  1  0
 16 15  1  0
 17 16  2  0
  1 18  1  1
  2 19  1  0
  2 20  1  0
  3 21  1  1
  4 22  1  0
  6 23  1  0
  8 24  1  0
 10 25  1  0
 13 26  1  6
 14 27  1  0
 14 28  1  0
 15 29  1  1
 30 31  1  0
 31 32  1  1
 31 33  1  0
 33 34  1  6
 33 35  1  0
 35 36  1  0
 36 37  1  0
 37 30  1  0
 31 38  1  0
 33 39  1  0
 36 40  1  0
 36 41  1  0
 37 42  1  0
 37 43  1  0
 16 30  1  0
M  ISO  8  18  13  19  13  20  13  21  13  22  14  23  14  24  14  26  13
M  ISO  5  27  13  28  13  29  13  32   8  34  15
M  END
>  <DihAtoms>  (1) 
14,15,29,30

>  <DihDeg>  (1) 
-0.2867513493036532

$$$$
