
     RDKit          3D

 34 36  0  0  0  0  0  0  0  0999 V2000
   45.2742   36.1639   43.1796 C   0  0  0  0  0  0  0  0  0  0  0  0
   45.8749   34.9109   42.9001 C   0  0  0  0  0  0  0  0  0  0  0  0
   45.8223   33.9447   43.9022 C   0  0  0  0  0  0  0  0  0  0  0  0
   45.2189   34.2229   45.0740 N   0  0  0  0  0  0  0  0  0  0  0  0
   44.6483   35.4451   45.3107 C   0  0  0  0  0  0  0  0  0  0  0  0
   44.6935   36.3715   44.3621 N   0  0  0  0  0  0  0  0  0  0  0  0
   46.4346   32.6517   43.6317 C   0  0  0  0  0  0  0  0  0  0  0  0
   45.6564   31.5738   43.2936 C   0  0  0  0  0  0  0  0  0  0  0  0
   46.2880   30.3714   43.0473 C   0  0  0  0  0  0  0  0  0  0  0  0
   47.6612   30.1929   43.1223 C   0  0  0  0  0  0  0  0  0  0  0  0
   48.3830   31.3095   43.4652 C   0  0  0  0  0  0  0  0  0  0  0  0
   47.7662   32.4836   43.7057 N   0  0  0  0  0  0  0  0  0  0  0  0
   46.4942   34.6856   41.6439 C   0  0  0  0  0  0  0  0  0  0  0  0
   47.6543   35.1304   41.4706 O   0  0  0  0  0  0  0  0  0  0  0  0
   45.3073   36.9304   42.4049 H   0  0  0  0  0  0  0  0  0  0  0  0
   44.1650   35.6745   46.2431 H   0  0  0  0  0  0  0  0  0  0  0  0
   44.5843   31.6947   43.2305 H   0  0  0  0  0  0  0  0  0  0  0  0
   45.6040   29.5621   42.7848 H   0  0  0  0  0  0  0  0  0  0  0  0
   48.0653   29.2182   42.9132 H   0  0  0  0  0  0  0  0  0  0  0  0
   49.4642   31.2044   43.5331 H   0  0  0  0  0  0  0  0  0  0  0  0
   45.8858   33.9865   40.5633 N   0  0  0  0  0  0  0  0  0  0  0  0
   44.6441   34.4584   39.9723 C   0  0  1  0  0  0  0  0  0  0  0  0
   44.3798   35.4104   40.4463 H   0  0  0  0  0  0  0  0  0  0  0  0
   43.6070   33.3942   40.3141 C   0  0  1  0  0  0  0  0  0  0  0  0
   43.1892   33.7052   41.3167 H   0  0  0  0  0  0  0  0  0  0  0  0
   44.1789   32.1633   40.5053 O   0  0  0  0  0  0  0  0  0  0  0  0
   45.2584   31.8643   39.7146 C   0  0  0  0  0  0  0  0  0  0  0  0
   46.4494   32.7792   39.9872 C   0  0  0  0  0  0  0  0  0  0  0  0
   44.7468   34.5754   38.8720 H   0  0  0  0  0  0  0  0  0  0  0  0
   42.7454   33.4173   39.6192 H   0  0  0  0  0  0  0  0  0  0  0  0
   45.6021   30.8556   39.9833 H   0  0  0  0  0  0  0  0  0  0  0  0
   44.9572   31.8407   38.6692 H   0  0  0  0  0  0  0  0  0  0  0  0
   47.2065   32.3060   40.6181 H   0  0  0  0  0  0  0  0  0  0  0  0
   46.8196   33.0709   38.9839 H   0  0  0  0  0  0  0  0  0  0  0  0
  1  6  2  0
  2  1  1  0
  2  3  2  0
  3  4  1  0
  4  5  2  0
  6  5  1  0
  7 12  1  0
  7  3  1  0
  8  7  2  0
  9 10  2  0
  9  8  1  0
 10 11  1  0
 11 12  2  0
 13  2  1  0
 14 13  2  0
  1 15  1  0
  5 16  1  0
  8 17  1  0
  9 18  1  0
 10 19  1  0
 11 20  1  0
 21 22  1  0
 22 23  1  1
 22 24  1  0
 24 25  1  1
 24 26  1  0
 26 27  1  0
 27 28  1  0
 28 21  1  0
 22 29  1  0
 24 30  1  0
 27 31  1  0
 27 32  1  0
 28 33  1  0
 28 34  1  0
 13 21  1  0
M  ISO  8  15  14  16  14  17  14  18  14  19  14  20  14  23   8  25  15
M  END
>  <DihAtoms>  (1) 
1,12,20,21

>  <DihDeg>  (1) 
-179.9976446075578

$$$$
