
 OpenBabel03242516523D

 44 47  0  0  1  0  0  0  0  0999 V2000
   47.8010   32.8330   41.7020 C   0  0  1  0  0  0  0  0  0  0  0  0
   47.4200   32.1500   40.4650 C   0  0  0  0  0  0  0  0  0  0  0  0
   48.4210   32.5980   39.4020 C   0  0  0  0  0  0  0  0  0  0  0  0
   48.1190   34.0440   39.1120 C   0  0  0  0  0  0  0  0  0  0  0  0
   48.1200   34.9280   40.3260 C   0  0  0  0  0  0  0  0  0  0  0  0
   47.6390   34.3540   41.5960 C   0  0  1  0  0  0  0  0  0  0  0  0
   48.9210   32.7240   41.8420 H   0  0  0  0  0  0  0  0  0  0  0  0
   46.4290   32.4400   40.0530 H   0  0  0  0  0  0  0  0  0  0  0  0
   47.4590   31.0660   40.5940 H   0  0  0  0  0  0  0  0  0  0  0  0
   49.4680   32.4470   39.7160 H   0  0  0  0  0  0  0  0  0  0  0  0
   48.1570   32.0170   38.4950 H   0  0  0  0  0  0  0  0  0  0  0  0
   47.1300   34.0740   38.6040 H   0  0  0  0  0  0  0  0  0  0  0  0
   48.8440   34.4300   38.3810 H   0  0  0  0  0  0  0  0  0  0  0  0
   47.4820   35.8100   40.0700 H   0  0  0  0  0  0  0  0  0  0  0  0
   49.1460   35.3560   40.4180 H   0  0  0  0  0  0  0  0  0  0  0  0
   48.2690   34.7610   42.4310 H   0  0  0  0  0  0  0  0  0  0  0  0
   45.4180   31.0370   44.0200 C   0  0  0  0  0  0  0  0  0  0  0  0
   46.0750   31.5180   42.8810 C   0  0  0  0  0  0  0  0  0  0  0  0
   47.1790   32.3720   42.9260 C   0  0  0  0  0  0  0  0  0  0  0  0
   47.5900   32.7190   44.1470 N   0  0  0  0  0  0  0  0  0  0  0  0
   46.9600   32.2580   45.2620 C   0  0  0  0  0  0  0  0  0  0  0  0
   45.9010   31.4380   45.2110 N   0  0  0  0  0  0  0  0  0  0  0  0
   44.5700   30.3790   43.9100 H   0  0  0  0  0  0  0  0  0  0  0  0
   45.7290   31.2290   41.8930 H   0  0  0  0  0  0  0  0  0  0  0  0
   47.3080   32.5510   46.2430 H   0  0  0  0  0  0  0  0  0  0  0  0
   46.2780   34.7750   41.9210 C   0  0  0  0  0  0  0  0  0  0  0  0
   45.8900   35.4580   43.0800 C   0  0  0  0  0  0  0  0  0  0  0  0
   44.5380   35.7790   43.1820 C   0  0  0  0  0  0  0  0  0  0  0  0
   43.7020   35.4030   42.1440 C   0  0  0  0  0  0  0  0  0  0  0  0
   44.1080   34.7310   41.0130 C   0  0  0  0  0  0  0  0  0  0  0  0
   45.4340   34.4230   40.9290 N   0  0  0  0  0  0  0  0  0  0  0  0
   46.6400   35.6790   43.7870 H   0  0  0  0  0  0  0  0  0  0  0  0
   44.2110   36.3070   44.0660 H   0  0  0  0  0  0  0  0  0  0  0  0
   42.6520   35.6490   42.2150 H   0  0  0  0  0  0  0  0  0  0  0  0
   43.1400   34.3810   39.9770 C   0  0  0  0  0  0  0  0  0  0  0  0
   42.7210   35.2910   39.2140 O   0  0  0  0  0  0  0  0  0  0  0  0
   42.5090   33.1680   39.5940 N   0  0  0  0  0  0  0  0  0  0  0  0
   42.6510   32.1420   40.6320 C   0  0  0  0  0  3  0  0  0  0  0  0
   43.5520   31.5100   40.4370 H   0  0  0  0  0  0  0  0  0  0  0  0
   41.4340   31.2240   40.4800 C   0  0  0  0  0  3  0  0  0  0  0  0
   41.6100   30.4230   39.7540 H   0  0  0  0  0  0  0  0  0  0  0  0
   40.3030   31.9780   40.2080 O   0  0  0  0  0  0  0  0  0  0  0  0
   40.3240   32.4970   38.9090 C   0  0  0  0  0  2  0  0  0  0  0  0
   41.7530   32.6540   38.4400 C   0  0  0  0  0  2  0  0  0  0  0  0
  1  7  1  1  0  0  0
  1 19  1  0  0  0  0
  2  9  1  0  0  0  0
  2  1  1  0  0  0  0
  3 10  1  0  0  0  0
  3  2  1  0  0  0  0
  4  3  1  0  0  0  0
  4  5  1  0  0  0  0
  5 15  1  0  0  0  0
  5  6  1  0  0  0  0
  6  1  1  0  0  0  0
  6 26  1  0  0  0  0
  6 16  1  1  0  0  0
  8  2  1  0  0  0  0
 11  3  1  0  0  0  0
 12  4  1  0  0  0  0
 13  4  1  0  0  0  0
 14  5  1  0  0  0  0
 17 22  1  0  0  0  0
 18 19  1  0  0  0  0
 18 17  2  0  0  0  0
 19 20  2  0  0  0  0
 20 21  1  0  0  0  0
 21 25  1  0  0  0  0
 22 21  2  0  0  0  0
 23 17  1  0  0  0  0
 24 18  1  0  0  0  0
 26 27  1  0  0  0  0
 27 28  2  0  0  0  0
 27 32  1  0  0  0  0
 28 33  1  0  0  0  0
 29 34  1  0  0  0  0
 29 28  1  0  0  0  0
 30 29  2  0  0  0  0
 31 30  1  0  0  0  0
 31 26  2  0  0  0  0
 35 30  1  0  0  0  0
 36 35  2  0  0  0  0
 37 35  1  0  0  0  0
 37 38  1  0  0  0  0
 39 38  1  0  0  0  0
 40 38  1  0  0  0  0
 41 40  1  0  0  0  0
 42 40  1  0  0  0  0
 43 42  1  0  0  0  0
 44 43  1  0  0  0  0
 44 37  1  0  0  0  0
M  END
>  <minimizedAffinity>
-5.64756727

>  <minimizedRMSD>
0.732408166

$$$$
