
 OpenBabel03242510223D

 37 40  0  0  1  0  0  0  0  0999 V2000
   48.0350   33.1040   43.3110 N   0  0  0  0  0  0  0  0  0  0  0  0
   49.1390   33.0560   42.4620 C   0  0  0  0  0  0  0  0  0  0  0  0
   50.2630   32.5150   42.6100 O   0  0  0  0  0  0  0  0  0  0  0  0
   47.5970   34.0560   43.3210 H   0  0  0  0  0  0  0  0  0  0  0  0
   46.1960   32.0440   44.5690 C   0  0  1  0  0  0  0  0  0  0  0  0
   46.3570   31.2810   43.4030 C   0  0  0  0  0  0  0  0  0  0  0  0
   47.5840   31.9880   44.0600 C   0  0  1  0  0  0  0  0  0  0  0  0
   45.9960   31.6090   45.5620 H   0  0  0  0  0  0  0  0  0  0  0  0
   46.3980   30.1540   43.5050 H   0  0  0  0  0  0  0  0  0  0  0  0
   46.1570   31.5420   42.3450 H   0  0  0  0  0  0  0  0  0  0  0  0
   48.3160   31.2650   44.4610 H   0  0  0  0  0  0  0  0  0  0  0  0
   45.0230   33.9170   43.1820 C   0  0  0  0  0  0  0  0  0  0  0  0
   45.4930   33.4070   44.4380 C   0  0  0  0  0  0  0  0  0  0  0  0
   45.3170   34.2000   45.5530 C   0  0  0  0  0  0  0  0  0  0  0  0
   44.7190   35.4010   45.4170 N   0  0  0  0  0  0  0  0  0  0  0  0
   44.2800   35.8730   44.2190 C   0  0  0  0  0  0  0  0  0  0  0  0
   44.4440   35.0950   43.0710 N   0  0  0  0  0  0  0  0  0  0  0  0
   45.1530   33.2800   42.3360 H   0  0  0  0  0  0  0  0  0  0  0  0
   45.6560   33.8500   46.5200 H   0  0  0  0  0  0  0  0  0  0  0  0
   43.8160   36.8510   44.2250 H   0  0  0  0  0  0  0  0  0  0  0  0
   49.0610   33.7400   41.1100 C   0  0  2  0  0  0  0  0  0  0  0  0
   48.5810   35.2400   41.1120 C   0  0  0  0  0  0  0  0  0  0  0  0
   47.7760   34.1320   40.5230 C   0  0  1  0  0  0  0  0  0  0  0  0
   49.9410   33.6470   40.4420 H   0  0  0  0  0  0  0  0  0  0  0  0
   49.1250   35.9490   40.4940 H   0  0  0  0  0  0  0  0  0  0  0  0
   48.2860   35.5660   42.1460 H   0  0  0  0  0  0  0  0  0  0  0  0
   46.8510   33.7730   41.0060 H   0  0  0  0  0  0  0  0  0  0  0  0
   47.6500   34.0820   39.0170 C   0  0  0  0  0  0  0  0  0  0  0  0
   48.4510   34.6930   38.3180 O   0  0  0  0  0  0  0  0  0  0  0  0
   46.5880   33.3200   38.3860 N   0  0  0  0  0  0  0  0  0  0  0  0
   46.8890   32.7750   37.0720 C   0  0  0  0  0  3  0  0  0  0  0  0
   47.5690   31.9220   37.0830 H   0  0  0  0  0  0  0  0  0  0  0  0
   45.5790   32.4970   36.3830 C   0  0  0  0  0  3  0  0  0  0  0  0
   45.7010   31.7760   35.5450 H   0  0  0  0  0  0  0  0  0  0  0  0
   44.6150   31.9440   37.2200 O   0  0  0  0  0  0  0  0  0  0  0  0
   44.2180   32.8660   38.1930 C   0  0  0  0  0  2  0  0  0  0  0  0
   45.3470   33.1740   39.1200 C   0  0  0  0  0  2  0  0  0  0  0  0
  1  4  1  0  0  0  0
  1  7  1  0  0  0  0
  2  3  2  0  0  0  0
  2  1  1  0  0  0  0
  5  8  1  1  0  0  0
  6  9  1  0  0  0  0
  6  7  1  0  0  0  0
  6  5  1  0  0  0  0
  7 11  1  1  0  0  0
  7  5  1  0  0  0  0
 10  6  1  0  0  0  0
 12 13  1  0  0  0  0
 13  5  1  0  0  0  0
 13 14  2  0  0  0  0
 14 19  1  0  0  0  0
 15 14  1  0  0  0  0
 16 20  1  0  0  0  0
 16 15  2  0  0  0  0
 17 12  2  0  0  0  0
 17 16  1  0  0  0  0
 18 12  1  0  0  0  0
 21 24  1  6  0  0  0
 21 22  1  0  0  0  0
 21  2  1  0  0  0  0
 22 26  1  0  0  0  0
 23 27  1  1  0  0  0
 23 21  1  0  0  0  0
 23 22  1  0  0  0  0
 25 22  1  0  0  0  0
 28 23  1  0  0  0  0
 29 28  2  0  0  0  0
 30 28  1  0  0  0  0
 30 37  1  0  0  0  0
 31 32  1  0  0  0  0
 31 30  1  0  0  0  0
 33 31  1  0  0  0  0
 33 35  1  0  0  0  0
 34 33  1  0  0  0  0
 35 36  1  0  0  0  0
 36 37  1  0  0  0  0
M  END
>  <minimizedAffinity>
-5.14230776

>  <minimizedRMSD>
0.221449614

$$$$
