
 OpenBabel03242510223D

 37 40  0  0  1  0  0  0  0  0999 V2000
   48.0360   33.2550   43.1420 N   0  0  0  0  0  0  0  0  0  0  0  0
   49.2160   33.3280   42.4050 C   0  0  0  0  0  0  0  0  0  0  0  0
   50.3870   32.9770   42.6960 O   0  0  0  0  0  0  0  0  0  0  0  0
   47.4630   34.1270   43.0400 H   0  0  0  0  0  0  0  0  0  0  0  0
   46.3250   32.1320   44.5200 C   0  0  1  0  0  0  0  0  0  0  0  0
   46.4470   31.3630   43.3530 C   0  0  0  0  0  0  0  0  0  0  0  0
   47.6800   32.1300   43.9280 C   0  0  1  0  0  0  0  0  0  0  0  0
   46.2050   31.7010   45.5280 H   0  0  0  0  0  0  0  0  0  0  0  0
   46.5440   30.2400   43.4630 H   0  0  0  0  0  0  0  0  0  0  0  0
   46.1730   31.6020   42.3080 H   0  0  0  0  0  0  0  0  0  0  0  0
   48.4660   31.4440   44.2890 H   0  0  0  0  0  0  0  0  0  0  0  0
   45.0610   33.9760   43.1750 C   0  0  0  0  0  0  0  0  0  0  0  0
   45.5560   33.4620   44.4200 C   0  0  0  0  0  0  0  0  0  0  0  0
   45.3420   34.2200   45.5530 C   0  0  0  0  0  0  0  0  0  0  0  0
   44.6860   35.3930   45.4430 N   0  0  0  0  0  0  0  0  0  0  0  0
   44.2240   35.8700   44.2560 C   0  0  0  0  0  0  0  0  0  0  0  0
   44.4250   35.1270   43.0910 N   0  0  0  0  0  0  0  0  0  0  0  0
   45.2210   33.3660   42.3150 H   0  0  0  0  0  0  0  0  0  0  0  0
   45.6980   33.8650   46.5110 H   0  0  0  0  0  0  0  0  0  0  0  0
   43.7130   36.8240   44.2840 H   0  0  0  0  0  0  0  0  0  0  0  0
   49.1770   33.9090   41.0040 C   0  0  2  0  0  0  0  0  0  0  0  0
   48.6200   35.3760   40.8710 C   0  0  0  0  0  0  0  0  0  0  0  0
   47.9080   34.1860   40.3240 C   0  0  1  0  0  0  0  0  0  0  0  0
   50.0960   33.8180   40.3910 H   0  0  0  0  0  0  0  0  0  0  0  0
   49.1600   36.0690   40.2310 H   0  0  0  0  0  0  0  0  0  0  0  0
   48.2520   35.7580   41.8610 H   0  0  0  0  0  0  0  0  0  0  0  0
   46.9770   33.8110   40.7850 H   0  0  0  0  0  0  0  0  0  0  0  0
   47.8670   34.0220   38.8220 C   0  0  0  0  0  0  0  0  0  0  0  0
   48.5020   34.7910   38.1090 O   0  0  0  0  0  0  0  0  0  0  0  0
   47.0820   32.9660   38.2110 N   0  0  0  0  0  0  0  0  0  0  0  0
   46.2720   33.3520   37.0680 C   0  0  0  0  0  3  0  0  0  0  0  0
   46.8380   33.5330   36.1540 H   0  0  0  0  0  0  0  0  0  0  0  0
   45.1830   32.3220   36.9140 C   0  0  0  0  0  3  0  0  0  0  0  0
   44.7450   32.3410   35.8910 H   0  0  0  0  0  0  0  0  0  0  0  0
   45.6190   31.0150   37.1150 O   0  0  0  0  0  0  0  0  0  0  0  0
   45.9870   30.8190   38.4490 C   0  0  0  0  0  2  0  0  0  0  0  0
   47.1860   31.6400   38.7930 C   0  0  0  0  0  2  0  0  0  0  0  0
  1  7  1  0  0  0  0
  2  3  2  0  0  0  0
  2  1  1  0  0  0  0
  4  1  1  0  0  0  0
  5  8  1  1  0  0  0
  6  9  1  0  0  0  0
  6  7  1  0  0  0  0
  6  5  1  0  0  0  0
  7 11  1  1  0  0  0
  7  5  1  0  0  0  0
 10  6  1  0  0  0  0
 12 13  1  0  0  0  0
 13  5  1  0  0  0  0
 13 14  2  0  0  0  0
 14 19  1  0  0  0  0
 15 14  1  0  0  0  0
 16 20  1  0  0  0  0
 16 15  2  0  0  0  0
 17 12  2  0  0  0  0
 17 16  1  0  0  0  0
 18 12  1  0  0  0  0
 21 24  1  6  0  0  0
 21  2  1  0  0  0  0
 22 21  1  0  0  0  0
 22 26  1  0  0  0  0
 23 27  1  1  0  0  0
 23 22  1  0  0  0  0
 23 21  1  0  0  0  0
 25 22  1  0  0  0  0
 28 23  1  0  0  0  0
 29 28  2  0  0  0  0
 30 37  1  0  0  0  0
 30 28  1  0  0  0  0
 31 30  1  0  0  0  0
 32 31  1  0  0  0  0
 33 31  1  0  0  0  0
 33 35  1  0  0  0  0
 34 33  1  0  0  0  0
 35 36  1  0  0  0  0
 36 37  1  0  0  0  0
M  END
>  <minimizedAffinity>
-4.98180676

>  <minimizedRMSD>
0.389446586

$$$$
