
     RDKit          3D

 32 34  0  0  0  0  0  0  0  0999 V2000
   46.2785   34.5060   43.6368 C   0  0  0  0  0  0  0  0  0  0  0  0
   47.3788   33.8884   43.1377 C   0  0  0  0  0  0  0  0  0  0  0  0
   47.7589   32.7302   43.7999 C   0  0  0  0  0  0  0  0  0  0  0  0
   46.9939   32.3158   44.8933 N   0  0  0  0  0  0  0  0  0  0  0  0
   45.9341   32.9695   45.3239 C   0  0  0  0  0  0  0  0  0  0  0  0
   45.5242   34.1233   44.6938 N   0  0  0  0  0  0  0  0  0  0  0  0
   48.1941   34.3470   42.0764 C   0  0  0  0  0  0  0  0  0  0  0  0
   48.5418   35.6023   41.6996 C   0  0  0  0  0  0  0  0  0  0  0  0
   49.6649   34.8420   42.4079 C   0  0  0  0  0  0  0  0  0  0  0  0
   45.6042   35.6681   43.0940 C   0  0  0  0  0  0  0  0  0  0  0  0
   45.1787   36.7903   43.0476 O   0  0  0  0  0  0  0  0  0  0  0  0
   48.6148   32.1689   43.4820 H   0  0  0  0  0  0  0  0  0  0  0  0
   45.5107   32.4582   46.1790 H   0  0  0  0  0  0  0  0  0  0  0  0
   48.4936   33.4105   41.4283 H   0  0  0  0  0  0  0  0  0  0  0  0
   48.1450   36.5268   42.1977 H   0  0  0  0  0  0  0  0  0  0  0  0
   48.7904   35.8583   40.6260 H   0  0  0  0  0  0  0  0  0  0  0  0
   49.7742   35.1454   43.4698 H   0  0  0  0  0  0  0  0  0  0  0  0
   50.4936   34.4986   41.8172 H   0  0  0  0  0  0  0  0  0  0  0  0
   45.0743   35.3947   41.7635 N   0  0  0  0  0  0  0  0  0  0  0  0
   43.8965   36.1440   41.4550 C   0  0  2  0  0  0  0  0  0  0  0  0
   44.1627   37.2267   41.4839 H   0  0  0  0  0  0  0  0  0  0  0  0
   43.3045   35.8172   40.1156 C   0  0  2  0  0  0  0  0  0  0  0  0
   42.4610   36.4980   39.8817 H   0  0  0  0  0  0  0  0  0  0  0  0
   44.2084   35.7928   39.0928 O   0  0  0  0  0  0  0  0  0  0  0  0
   45.4818   35.4004   39.4002 C   0  0  0  0  0  0  0  0  0  0  0  0
   45.4176   34.5527   40.6357 C   0  0  0  0  0  0  0  0  0  0  0  0
   43.1634   35.9846   42.2690 H   0  0  0  0  0  0  0  0  0  0  0  0
   42.8436   34.7934   40.2021 H   0  0  0  0  0  0  0  0  0  0  0  0
   45.8344   34.7211   38.5696 H   0  0  0  0  0  0  0  0  0  0  0  0
   46.1910   36.2323   39.5560 H   0  0  0  0  0  0  0  0  0  0  0  0
   44.6090   33.7999   40.4554 H   0  0  0  0  0  0  0  0  0  0  0  0
   46.3535   34.0014   40.7493 H   0  0  0  0  0  0  0  0  0  0  0  0
  1  6  2  0
  2  1  1  0
  2  3  2  0
  3  4  1  0
  4  5  2  0
  6  5  1  0
  7  9  1  0
  7  2  1  0
  8  7  1  0
  8  9  1  0
 10  1  1  0
 11 10  2  0
  3 12  1  0
  5 13  1  0
  7 14  1  0
  8 15  1  0
  8 16  1  0
  9 17  1  0
  9 18  1  0
 19 20  1  0
 20 21  1  6
 20 22  1  0
 22 23  1  6
 22 24  1  0
 24 25  1  0
 25 26  1  0
 26 19  1  0
 20 27  1  0
 22 28  1  0
 25 29  1  0
 25 30  1  0
 26 31  1  0
 26 32  1  0
 10 19  1  0
M  ISO  8  12  14  13  14  14  13  15  13  16  13  17  13  18  13  21   8
M  ISO  1  23  15
M  END
>  <DihAtoms>  (1) 
0,9,18,19

>  <DihDeg>  (1) 
179.99740977449517

$$$$
