
 OpenBabel03242516533D

 44 47  0  0  1  0  0  0  0  0999 V2000
   47.8550   32.9040   41.8300 C   0  0  1  0  0  0  0  0  0  0  0  0
   47.5490   32.2810   40.5420 C   0  0  0  0  0  0  0  0  0  0  0  0
   48.5770   32.8200   39.5500 C   0  0  0  0  0  0  0  0  0  0  0  0
   48.2390   34.2700   39.3280 C   0  0  0  0  0  0  0  0  0  0  0  0
   48.1600   35.0830   40.5880 C   0  0  0  0  0  0  0  0  0  0  0  0
   47.6470   34.4220   41.8020 C   0  0  1  0  0  0  0  0  0  0  0  0
   48.9720   32.8230   42.0120 H   0  0  0  0  0  0  0  0  0  0  0  0
   46.5660   32.5630   40.1050 H   0  0  0  0  0  0  0  0  0  0  0  0
   47.6200   31.1940   40.6130 H   0  0  0  0  0  0  0  0  0  0  0  0
   49.6150   32.6850   39.8990 H   0  0  0  0  0  0  0  0  0  0  0  0
   48.3700   32.2840   38.6010 H   0  0  0  0  0  0  0  0  0  0  0  0
   47.2700   34.2980   38.7800 H   0  0  0  0  0  0  0  0  0  0  0  0
   48.9790   34.7200   38.6510 H   0  0  0  0  0  0  0  0  0  0  0  0
   47.5030   35.9580   40.3550 H   0  0  0  0  0  0  0  0  0  0  0  0
   49.1660   35.5370   40.7470 H   0  0  0  0  0  0  0  0  0  0  0  0
   48.2280   34.8010   42.6850 H   0  0  0  0  0  0  0  0  0  0  0  0
   45.4200   30.9310   43.9410 C   0  0  0  0  0  0  0  0  0  0  0  0
   46.1080   31.4960   42.8600 C   0  0  0  0  0  0  0  0  0  0  0  0
   47.2000   32.3550   42.9990 C   0  0  0  0  0  0  0  0  0  0  0  0
   47.5670   32.6220   44.2540 N   0  0  0  0  0  0  0  0  0  0  0  0
   46.9070   32.0800   45.3140 C   0  0  0  0  0  0  0  0  0  0  0  0
   45.8600   31.2550   45.1730 N   0  0  0  0  0  0  0  0  0  0  0  0
   44.5850   30.2750   43.7590 H   0  0  0  0  0  0  0  0  0  0  0  0
   45.7980   31.2710   41.8440 H   0  0  0  0  0  0  0  0  0  0  0  0
   47.2200   32.3080   46.3230 H   0  0  0  0  0  0  0  0  0  0  0  0
   46.2600   34.7820   42.0920 C   0  0  0  0  0  0  0  0  0  0  0  0
   45.7970   35.3520   43.2830 C   0  0  0  0  0  0  0  0  0  0  0  0
   44.4330   35.6320   43.3420 C   0  0  0  0  0  0  0  0  0  0  0  0
   43.6600   35.3260   42.2350 C   0  0  0  0  0  0  0  0  0  0  0  0
   44.1400   34.7640   41.0730 C   0  0  0  0  0  0  0  0  0  0  0  0
   45.4770   34.4970   41.0310 N   0  0  0  0  0  0  0  0  0  0  0  0
   46.5040   35.5290   44.0440 H   0  0  0  0  0  0  0  0  0  0  0  0
   44.0480   36.0730   44.2510 H   0  0  0  0  0  0  0  0  0  0  0  0
   42.6010   35.5400   42.2720 H   0  0  0  0  0  0  0  0  0  0  0  0
   43.2340   34.4820   39.9630 C   0  0  0  0  0  0  0  0  0  0  0  0
   42.3430   35.3270   39.6850 O   0  0  0  0  0  0  0  0  0  0  0  0
   43.1060   33.4010   39.0520 N   0  0  0  0  0  0  0  0  0  0  0  0
   44.3320   33.2160   38.2670 C   0  0  0  0  0  3  0  0  0  0  0  0
   44.2700   33.7830   37.3070 H   0  0  0  0  0  0  0  0  0  0  0  0
   44.3690   31.7310   37.8970 C   0  0  0  0  0  3  0  0  0  0  0  0
   43.8210   31.5230   36.9710 H   0  0  0  0  0  0  0  0  0  0  0  0
   43.9460   30.9620   38.9710 O   0  0  0  0  0  0  0  0  0  0  0  0
   42.5700   31.0800   39.1850 C   0  0  0  0  0  2  0  0  0  0  0  0
   42.0800   32.4150   38.6720 C   0  0  0  0  0  2  0  0  0  0  0  0
  1  7  1  1  0  0  0
  1 19  1  0  0  0  0
  2  9  1  0  0  0  0
  2  1  1  0  0  0  0
  3 10  1  0  0  0  0
  3  2  1  0  0  0  0
  4  3  1  0  0  0  0
  4  5  1  0  0  0  0
  5 15  1  0  0  0  0
  5  6  1  0  0  0  0
  6  1  1  0  0  0  0
  6 26  1  0  0  0  0
  6 16  1  1  0  0  0
  8  2  1  0  0  0  0
 11  3  1  0  0  0  0
 12  4  1  0  0  0  0
 13  4  1  0  0  0  0
 14  5  1  0  0  0  0
 17 22  1  0  0  0  0
 18 19  1  0  0  0  0
 18 17  2  0  0  0  0
 19 20  2  0  0  0  0
 20 21  1  0  0  0  0
 21 25  1  0  0  0  0
 22 21  2  0  0  0  0
 23 17  1  0  0  0  0
 24 18  1  0  0  0  0
 26 27  1  0  0  0  0
 27 28  2  0  0  0  0
 27 32  1  0  0  0  0
 28 33  1  0  0  0  0
 29 34  1  0  0  0  0
 29 28  1  0  0  0  0
 30 29  2  0  0  0  0
 31 30  1  0  0  0  0
 31 26  2  0  0  0  0
 35 30  1  0  0  0  0
 36 35  2  0  0  0  0
 37 35  1  0  0  0  0
 38 37  1  0  0  0  0
 39 38  1  0  0  0  0
 40 38  1  0  0  0  0
 40 42  1  0  0  0  0
 41 40  1  0  0  0  0
 42 43  1  0  0  0  0
 44 37  1  0  0  0  0
 44 43  1  0  0  0  0
M  END
>  <minimizedAffinity>
-5.49857473

>  <minimizedRMSD>
0.303792179

$$$$
