
 OpenBabel03252507163D

 28 30  0  0  0  0  0  0  0  0999 V2000
   44.9780   36.0460   43.4700 C   0  0  0  0  0  0  0  0  0  0  0  0
   45.6150   34.8280   43.1210 C   0  0  0  0  0  0  0  0  0  0  0  0
   45.7490   33.8730   44.1260 C   0  0  0  0  0  0  0  0  0  0  0  0
   45.2840   34.1280   45.3640 N   0  0  0  0  0  0  0  0  0  0  0  0
   44.6730   35.3160   45.6670 C   0  0  0  0  0  0  0  0  0  0  0  0
   44.5410   36.2320   44.7150 N   0  0  0  0  0  0  0  0  0  0  0  0
   44.8650   36.8030   42.6940 H   0  0  0  0  0  0  0  0  0  0  0  0
   44.2990   35.5280   46.6510 H   0  0  0  0  0  0  0  0  0  0  0  0
   46.4020   32.6160   43.7860 C   0  0  0  0  0  0  0  0  0  0  0  0
   45.6590   31.4750   43.6140 C   0  0  0  0  0  0  0  0  0  0  0  0
   46.3270   30.3110   43.2910 C   0  0  0  0  0  0  0  0  0  0  0  0
   47.7020   30.2310   43.1320 C   0  0  0  0  0  0  0  0  0  0  0  0
   48.3870   31.4060   43.3180 C   0  0  0  0  0  0  0  0  0  0  0  0
   47.7340   32.5440   43.6330 N   0  0  0  0  0  0  0  0  0  0  0  0
   44.5860   31.5200   43.7340 H   0  0  0  0  0  0  0  0  0  0  0  0
   45.6710   29.4470   43.1710 H   0  0  0  0  0  0  0  0  0  0  0  0
   48.1360   29.2790   42.8800 H   0  0  0  0  0  0  0  0  0  0  0  0
   49.4690   31.3790   43.2010 H   0  0  0  0  0  0  0  0  0  0  0  0
   46.0830   34.6260   41.7980 C   0  0  0  0  0  0  0  0  0  0  0  0
   47.2160   35.0710   41.4990 O   0  0  0  0  0  0  0  0  0  0  0  0
   45.3500   33.9470   40.7820 N   0  0  0  0  0  0  0  0  0  0  0  0
   44.0500   34.4320   40.3490 C   0  0  0  0  0  3  0  0  0  0  0  0
   43.8460   35.3750   40.8680 H   0  0  0  0  0  0  0  0  0  0  0  0
   43.0560   33.3630   40.7900 C   0  0  0  0  0  3  0  0  0  0  0  0
   42.7590   33.6560   41.8400 H   0  0  0  0  0  0  0  0  0  0  0  0
   43.6420   32.1280   40.8900 O   0  0  0  0  0  0  0  0  0  0  0  0
   44.6200   31.8420   39.9740 C   0  0  0  0  0  2  0  0  0  0  0  0
   45.8380   32.7500   40.1230 C   0  0  0  0  0  2  0  0  0  0  0  0
  1  6  1  0  0  0  0
  2  1  2  0  0  0  0
  2  3  1  0  0  0  0
  3  4  2  0  0  0  0
  4  5  1  0  0  0  0
  5  8  1  0  0  0  0
  6  5  2  0  0  0  0
  7  1  1  0  0  0  0
  9  3  1  0  0  0  0
 10 15  1  0  0  0  0
 10  9  2  0  0  0  0
 11 10  1  0  0  0  0
 12 11  2  0  0  0  0
 12 13  1  0  0  0  0
 13 14  2  0  0  0  0
 14  9  1  0  0  0  0
 16 11  1  0  0  0  0
 17 12  1  0  0  0  0
 18 13  1  0  0  0  0
 19  2  1  0  0  0  0
 20 19  2  0  0  0  0
 21 19  1  0  0  0  0
 22 21  1  0  0  0  0
 22 24  1  0  0  0  0
 22 23  1  0  0  0  0
 24 26  1  0  0  0  0
 24 25  1  0  0  0  0
 27 28  1  0  0  0  0
 27 26  1  0  0  0  0
 28 21  1  0  0  0  0
M  END
>  <minimizedAffinity>
-4.34935045

>  <minimizedRMSD>
0.452147305

$$$$
