REMARK  Name = 
REMARK  2 active torsions:
REMARK  status: ('A' for Active; 'I' for Inactive)
REMARK    1  A    between atoms: C_2  and  C_13
REMARK    2  A    between atoms: C_3  and  C_7
REMARK                            x       y       z     vdW  Elec       q    Type
REMARK                         _______ _______ _______ _____ _____    ______ ____
ROOT
ATOM      1  C   UNL     1      45.274  36.164  43.180  0.00  0.00    +0.000 A 
ATOM      2  C   UNL     1      45.875  34.911  42.900  0.00  0.00    +0.000 A 
ATOM      3  C   UNL     1      45.822  33.945  43.902  0.00  0.00    +0.000 A 
ATOM      4  N   UNL     1      45.219  34.223  45.074  0.00  0.00    +0.000 NA
ATOM      5  C   UNL     1      44.648  35.445  45.311  0.00  0.00    +0.000 A 
ATOM      6  N   UNL     1      44.694  36.371  44.362  0.00  0.00    +0.000 NA
ATOM      7  H   UNL     1      45.307  36.930  42.405  0.00  0.00    +0.000 HD
ATOM      8  H   UNL     1      44.165  35.675  46.243  0.00  0.00    +0.000 HD
ENDROOT
BRANCH   3   9
ATOM      9  C   UNL     1      46.435  32.652  43.632  0.00  0.00    +0.000 A 
ATOM     10  C   UNL     1      45.656  31.574  43.294  0.00  0.00    +0.000 A 
ATOM     11  C   UNL     1      46.288  30.371  43.047  0.00  0.00    +0.000 A 
ATOM     12  C   UNL     1      47.661  30.193  43.122  0.00  0.00    +0.000 A 
ATOM     13  C   UNL     1      48.383  31.309  43.465  0.00  0.00    +0.000 A 
ATOM     14  N   UNL     1      47.766  32.484  43.706  0.00  0.00    +0.000 NA
ATOM     15  H   UNL     1      44.584  31.695  43.230  0.00  0.00    +0.000 HD
ATOM     16  H   UNL     1      45.604  29.562  42.785  0.00  0.00    +0.000 HD
ATOM     17  H   UNL     1      48.065  29.218  42.913  0.00  0.00    +0.000 HD
ATOM     18  H   UNL     1      49.464  31.204  43.533  0.00  0.00    +0.000 HD
ENDBRANCH   3   9
BRANCH   2  19
ATOM     19  C   UNL     1      46.494  34.686  41.644  0.00  0.00    +0.000 C 
ATOM     20  O   UNL     1      47.654  35.130  41.471  0.00  0.00    +0.000 OA
ATOM     21  N   UNL     1      45.886  33.986  40.563  0.00  0.00    +0.000 N 
ATOM     22  C   UNL     1      46.489  32.780  40.019  0.00  0.00    +0.000 C 
ATOM     23  H   UNL     1      47.364  32.530  40.630  0.00  0.00    +0.000 HD
ATOM     24  C   UNL     1      46.922  33.151  38.605  0.00  0.00    +0.000 C 
ATOM     25  H   UNL     1      47.968  33.562  38.719  0.00  0.00    +0.000 HD
ATOM     26  O   UNL     1      46.166  34.171  38.088  0.00  0.00    +0.000 OA
ATOM     27  C   UNL     1      44.843  34.189  38.445  0.00  0.00    +0.000 C 
ATOM     28  C   UNL     1      44.648  34.419  39.941  0.00  0.00    +0.000 C 
ENDBRANCH   2  19
TORSDOF 2
