REMARK  Name = 
REMARK  4 active torsions:
REMARK  status: ('A' for Active; 'I' for Inactive)
REMARK    1  A    between atoms: C_1  and  C_5
REMARK    2  A    between atoms: C_3  and  N_10
REMARK    3  A    between atoms: C_11  and  C_13
REMARK    4  A    between atoms: C_15  and  C_16
REMARK                            x       y       z     vdW  Elec       q    Type
REMARK                         _______ _______ _______ _____ _____    ______ ____
ROOT
ATOM      1  N   UNL     1      48.036  33.248  43.170  0.00  0.00    +0.000 N 
ATOM      2  C   UNL     1      49.188  33.291  42.387  0.00  0.00    +0.000 C 
ATOM      3  O   UNL     1      50.358  32.903  42.629  0.00  0.00    +0.000 OA
ATOM      4  H   UNL     1      47.486  34.137  43.097  0.00  0.00    +0.000 HD
ENDROOT
BRANCH   1   7
ATOM      5  C   UNL     1      46.322  32.134  44.552  0.00  0.00    +0.000 C 
ATOM      6  C   UNL     1      46.445  31.359  43.390  0.00  0.00    +0.000 C 
ATOM      7  C   UNL     1      47.678  32.127  43.962  0.00  0.00    +0.000 C 
ATOM      8  H   UNL     1      46.200  31.709  45.562  0.00  0.00    +0.000 HD
ATOM      9  H   UNL     1      46.540  30.236  43.506  0.00  0.00    +0.000 HD
ATOM     10  H   UNL     1      46.172  31.593  42.343  0.00  0.00    +0.000 HD
ATOM     11  H   UNL     1      48.463  31.442  44.328  0.00  0.00    +0.000 HD
BRANCH   5  13
ATOM     12  C   UNL     1      45.061  33.972  43.196  0.00  0.00    +0.000 A 
ATOM     13  C   UNL     1      45.555  33.465  44.444  0.00  0.00    +0.000 A 
ATOM     14  C   UNL     1      45.342  34.230  45.572  0.00  0.00    +0.000 A 
ATOM     15  N   UNL     1      44.688  35.404  45.455  0.00  0.00    +0.000 NA
ATOM     16  C   UNL     1      44.227  35.874  44.265  0.00  0.00    +0.000 A 
ATOM     17  N   UNL     1      44.426  35.123  43.105  0.00  0.00    +0.000 NA
ATOM     18  H   UNL     1      45.220  33.356  42.340  0.00  0.00    +0.000 HD
ATOM     19  H   UNL     1      45.698  33.881  46.533  0.00  0.00    +0.000 HD
ATOM     20  H   UNL     1      43.717  36.829  44.287  0.00  0.00    +0.000 HD
ENDBRANCH   5  13
ENDBRANCH   1   7
BRANCH   2  21
ATOM     21  C   UNL     1      49.111  33.885  40.993  0.00  0.00    +0.000 C 
ATOM     22  C   UNL     1      48.608  35.374  40.894  0.00  0.00    +0.000 C 
ATOM     23  C   UNL     1      47.825  34.218  40.372  0.00  0.00    +0.000 C 
ATOM     24  H   UNL     1      49.998  33.762  40.339  0.00  0.00    +0.000 HD
ATOM     25  H   UNL     1      49.147  36.050  40.235  0.00  0.00    +0.000 HD
ATOM     26  H   UNL     1      48.300  35.762  41.902  0.00  0.00    +0.000 HD
ATOM     27  H   UNL     1      46.901  33.877  40.871  0.00  0.00    +0.000 HD
BRANCH  23  28
ATOM     28  C   UNL     1      47.712  34.068  38.872  0.00  0.00    +0.000 C 
ATOM     29  O   UNL     1      48.473  34.690  38.139  0.00  0.00    +0.000 OA
ATOM     30  N   UNL     1      46.710  33.197  38.286  0.00  0.00    +0.000 N 
ATOM     31  C   UNL     1      45.343  33.690  38.309  0.00  0.00    +0.000 C 
ATOM     32  H   UNL     1      45.140  34.490  37.597  0.00  0.00    +0.000 HD
ATOM     33  C   UNL     1      44.428  32.502  38.163  0.00  0.00    +0.000 C 
ATOM     34  H   UNL     1      43.413  32.806  37.826  0.00  0.00    +0.000 HD
ATOM     35  O   UNL     1      44.871  31.567  37.231  0.00  0.00    +0.000 OA
ATOM     36  C   UNL     1      46.046  30.950  37.673  0.00  0.00    +0.000 C 
ATOM     37  C   UNL     1      47.167  31.934  37.738  0.00  0.00    +0.000 C 
ENDBRANCH  23  28
ENDBRANCH   2  21
TORSDOF 4
