
 OpenBabel03242523163D

 26 28  0  0  0  0  0  0  0  0999 V2000
   46.1510   34.4240   43.7370 C   0  0  0  0  0  0  0  0  0  0  0  0
   47.3000   33.8260   43.3330 C   0  0  0  0  0  0  0  0  0  0  0  0
   47.7590   32.8090   44.1570 C   0  0  0  0  0  0  0  0  0  0  0  0
   47.0160   32.5010   45.2980 N   0  0  0  0  0  0  0  0  0  0  0  0
   45.9050   33.1260   45.6300 C   0  0  0  0  0  0  0  0  0  0  0  0
   45.4160   34.1420   44.8390 N   0  0  0  0  0  0  0  0  0  0  0  0
   48.6590   32.2750   43.9240 H   0  0  0  0  0  0  0  0  0  0  0  0
   45.5120   32.7140   46.5500 H   0  0  0  0  0  0  0  0  0  0  0  0
   45.3960   35.4400   43.0310 C   0  0  0  0  0  0  0  0  0  0  0  0
   45.0220   36.5390   42.7240 O   0  0  0  0  0  0  0  0  0  0  0  0
   44.4960   34.8420   42.0530 N   0  0  0  0  0  0  0  0  0  0  0  0
   43.4960   35.7440   41.5730 C   0  0  0  0  0  3  0  0  0  0  0  0
   44.0150   36.5900   41.0630 H   0  0  0  0  0  0  0  0  0  0  0  0
   42.5230   35.1180   40.6190 C   0  0  0  0  0  3  0  0  0  0  0  0
   41.8380   35.8810   40.1980 H   0  0  0  0  0  0  0  0  0  0  0  0
   43.1030   34.3810   39.6260 O   0  0  0  0  0  0  0  0  0  0  0  0
   44.2780   33.7520   39.9280 C   0  0  0  0  0  2  0  0  0  0  0  0
   44.3270   33.5520   41.4140 C   0  0  0  0  0  2  0  0  0  0  0  0
   48.0900   34.1870   42.2160 C   0  0  0  0  0  0  0  0  0  0  0  0
   48.3690   35.4000   41.6780 C   0  0  0  0  0  0  0  0  0  0  0  0
   49.5310   34.8010   42.4720 C   0  0  0  0  0  0  0  0  0  0  0  0
   48.4420   33.1920   41.6930 H   0  0  0  0  0  0  0  0  0  0  0  0
   47.9220   36.3590   42.0550 H   0  0  0  0  0  0  0  0  0  0  0  0
   48.6040   35.5280   40.5790 H   0  0  0  0  0  0  0  0  0  0  0  0
   49.6220   35.2440   43.4850 H   0  0  0  0  0  0  0  0  0  0  0  0
   50.3790   34.4300   41.9260 H   0  0  0  0  0  0  0  0  0  0  0  0
  1  6  1  0  0  0  0
  2  1  2  0  0  0  0
  2  3  1  0  0  0  0
  3  4  2  0  0  0  0
  4  5  1  0  0  0  0
  5  8  1  0  0  0  0
  6  5  2  0  0  0  0
  7  3  1  0  0  0  0
  9  1  1  0  0  0  0
 10  9  2  0  0  0  0
 11  9  1  0  0  0  0
 12 11  1  0  0  0  0
 13 12  1  0  0  0  0
 14 12  1  0  0  0  0
 15 14  1  0  0  0  0
 16 17  1  0  0  0  0
 16 14  1  0  0  0  0
 17 18  1  0  0  0  0
 18 11  1  0  0  0  0
 19 21  1  0  0  0  0
 19  2  1  0  0  0  0
 20 23  1  0  0  0  0
 20 19  1  0  0  0  0
 20 21  1  0  0  0  0
 21 25  1  0  0  0  0
 22 19  1  0  0  0  0
 24 20  1  0  0  0  0
 26 21  1  0  0  0  0
M  END
>  <minimizedAffinity>
-4.84466028

>  <minimizedRMSD>
0.919259012

$$$$
