
 OpenBabel03252503153D

 35 38  0  0  1  0  0  0  0  0999 V2000
   45.8970   34.5480   41.6570 C   0  0  0  0  0  0  0  0  0  0  0  0
   47.1210   34.7850   41.3980 O   0  0  0  0  0  0  0  0  0  0  0  0
   44.8950   34.0770   40.6450 C   0  0  0  0  0  0  0  0  0  0  0  0
   43.5200   34.0810   40.8110 C   0  0  0  0  0  0  0  0  0  0  0  0
   43.0210   33.5790   39.6650 N   0  0  0  0  0  0  0  0  0  0  0  0
   44.0490   33.2840   38.8410 C   0  0  0  0  0  0  0  0  0  0  0  0
   45.2190   33.5940   39.4490 N   0  0  0  0  0  0  0  0  0  0  0  0
   44.0640   32.7350   37.5230 N   0  0  0  0  0  0  0  0  0  0  0  0
   42.9570   34.4060   41.6550 H   0  0  0  0  0  0  0  0  0  0  0  0
   43.4800   31.8560   37.4490 H   0  0  0  0  0  0  0  0  0  0  0  0
   44.5790   33.1240   36.6990 H   0  0  0  0  0  0  0  0  0  0  0  0
   41.7490   33.6660   37.2880 H   0  0  0  0  0  0  0  0  0  0  0  0
   41.2360   34.0950   38.1090 N   0  0  0  0  0  0  0  0  0  0  0  0
   41.6500   33.3670   39.3160 C   0  0  2  0  0  3  0  0  0  0  0  0
   40.6820   33.6750   40.4160 C   0  0  0  0  0  3  0  0  0  0  0  0
   41.1950   33.8970   41.3650 H   0  0  0  0  0  0  0  0  0  0  0  0
   39.8780   34.7590   40.0730 O   0  0  0  0  0  0  0  0  0  0  0  0
   39.0610   34.4600   38.9850 C   0  0  0  0  0  2  0  0  0  0  0  0
   39.8360   33.6750   37.9310 C   0  0  0  0  0  2  0  0  0  0  0  0
   44.9450   35.9920   43.3970 C   0  0  0  0  0  0  0  0  0  0  0  0
   45.5090   34.7620   43.0060 C   0  0  0  0  0  0  0  0  0  0  0  0
   45.6330   33.8430   44.0240 C   0  0  0  0  0  0  0  0  0  0  0  0
   45.2500   34.0920   45.2900 N   0  0  0  0  0  0  0  0  0  0  0  0
   44.7120   35.3010   45.6070 C   0  0  0  0  0  0  0  0  0  0  0  0
   44.5650   36.2360   44.6620 N   0  0  0  0  0  0  0  0  0  0  0  0
   44.8160   36.7680   42.6470 H   0  0  0  0  0  0  0  0  0  0  0  0
   44.4260   35.4340   46.6460 H   0  0  0  0  0  0  0  0  0  0  0  0
   46.1920   32.5780   43.7220 C   0  0  0  0  0  0  0  0  0  0  0  0
   47.4490   32.0530   43.7210 C   0  0  0  0  0  0  0  0  0  0  0  0
   47.6760   30.8020   43.3850 C   0  0  0  0  0  0  0  0  0  0  0  0
   46.6210   30.0320   43.0360 C   0  0  0  0  0  0  0  0  0  0  0  0
   45.2210   31.1820   43.2020 S   0  0  0  0  0  0  0  0  0  0  0  0
   48.2390   32.7720   44.0220 H   0  0  0  0  0  0  0  0  0  0  0  0
   48.6400   30.3120   43.3580 H   0  0  0  0  0  0  0  0  0  0  0  0
   46.5040   28.9990   42.7230 H   0  0  0  0  0  0  0  0  0  0  0  0
  1 21  1  0  0  0  0
  2  1  2  0  0  0  0
  3  4  2  0  0  0  0
  3  1  1  0  0  0  0
  4  9  1  0  0  0  0
  5  4  1  0  0  0  0
  6  7  2  0  0  0  0
  6  5  1  0  0  0  0
  7  3  1  0  0  0  0
  8  6  1  0  0  0  0
 10  8  1  0  0  0  0
 11  8  1  0  0  0  0
 12 13  1  0  0  0  0
 13 14  1  0  0  0  0
 14  5  1  1  0  0  0
 14 15  1  0  0  0  0
 15 16  1  0  0  0  0
 17 15  1  0  0  0  0
 18 17  1  0  0  0  0
 19 13  1  0  0  0  0
 19 18  1  0  0  0  0
 20 25  1  0  0  0  0
 21 20  2  0  0  0  0
 21 22  1  0  0  0  0
 22 23  2  0  0  0  0
 23 24  1  0  0  0  0
 24 27  1  0  0  0  0
 25 24  2  0  0  0  0
 26 20  1  0  0  0  0
 28 22  1  0  0  0  0
 29 28  2  0  0  0  0
 29 33  1  0  0  0  0
 30 29  1  0  0  0  0
 31 32  1  0  0  0  0
 31 30  2  0  0  0  0
 32 28  1  0  0  0  0
 34 30  1  0  0  0  0
 35 31  1  0  0  0  0
M  END
>  <minimizedAffinity>
-5.59027433

>  <minimizedRMSD>
1.41370702

$$$$
