REMARK  Name = 
REMARK  4 active torsions:
REMARK  status: ('A' for Active; 'I' for Inactive)
REMARK    1  A    between atoms: C_2  and  C_12
REMARK    2  A    between atoms: C_3  and  C_7
REMARK    3  A    between atoms: C_12  and  C_14
REMARK    4  A    between atoms: N_16  and  C_30
REMARK                            x       y       z     vdW  Elec       q    Type
REMARK                         _______ _______ _______ _____ _____    ______ ____
ROOT
ATOM      1  C   UNL     1      46.519  34.828  41.907  0.00  0.00    +0.000 C 
ATOM      2  O   UNL     1      47.719  35.251  41.863  0.00  0.00    +0.000 OA
ENDROOT
BRANCH   1   3
ATOM      3  C   UNL     1      45.796  34.218  40.743  0.00  0.00    +0.000 A 
ATOM      4  C   UNL     1      44.437  34.324  40.494  0.00  0.00    +0.000 A 
ATOM      5  N   UNL     1      44.227  33.632  39.358  0.00  0.00    +0.000 N 
ATOM      6  C   UNL     1      45.407  33.129  38.937  0.00  0.00    +0.000 A 
ATOM      7  N   UNL     1      46.387  33.493  39.798  0.00  0.00    +0.000 NA
ATOM      8  N   UNL     1      45.731  32.331  37.798  0.00  0.00    +0.000 N 
ATOM      9  H   UNL     1      43.699  34.837  41.066  0.00  0.00    +0.000 HD
ATOM     10  H   UNL     1      45.102  31.485  37.709  0.00  0.00    +0.000 HD
ATOM     11  H   UNL     1      46.494  32.524  37.107  0.00  0.00    +0.000 HD
BRANCH   5  14
ATOM     12  H   UNL     1      42.508  35.369  38.217  0.00  0.00    +0.000 HD
ATOM     13  N   UNL     1      42.074  34.569  38.756  0.00  0.00    +0.000 NA
ATOM     14  C   UNL     1      42.994  33.426  38.664  0.00  0.00    +0.000 C 
ATOM     15  C   UNL     1      42.259  32.187  39.073  0.00  0.00    +0.000 C 
ATOM     16  H   UNL     1      42.854  31.563  39.758  0.00  0.00    +0.000 HD
ATOM     17  O   UNL     1      41.054  32.512  39.689  0.00  0.00    +0.000 OA
ATOM     18  C   UNL     1      40.182  33.138  38.801  0.00  0.00    +0.000 C 
ATOM     19  C   UNL     1      40.931  34.143  37.931  0.00  0.00    +0.000 C 
ENDBRANCH   5  14
ENDBRANCH   1   3
BRANCH   1  21
ATOM     20  C   UNL     1      45.217  36.171  43.494  0.00  0.00    +0.000 A 
ATOM     21  C   UNL     1      45.871  34.968  43.162  0.00  0.00    +0.000 A 
ATOM     22  C   UNL     1      45.812  34.000  44.139  0.00  0.00    +0.000 A 
ATOM     23  N   UNL     1      45.184  34.180  45.316  0.00  0.00    +0.000 NA
ATOM     24  C   UNL     1      44.570  35.365  45.579  0.00  0.00    +0.000 A 
ATOM     25  N   UNL     1      44.592  36.346  44.670  0.00  0.00    +0.000 NA
ATOM     26  H   UNL     1      45.222  36.983  42.771  0.00  0.00    +0.000 HD
ATOM     27  H   UNL     1      44.084  35.442  46.547  0.00  0.00    +0.000 HD
BRANCH  22  28
ATOM     28  C   UNL     1      46.444  32.757  43.892  0.00  0.00    +0.000 A 
ATOM     29  C   UNL     1      47.713  32.278  44.018  0.00  0.00    +0.000 A 
ATOM     30  C   UNL     1      48.018  31.038  43.703  0.00  0.00    +0.000 A 
ATOM     31  C   UNL     1      47.033  30.233  43.246  0.00  0.00    +0.000 A 
ATOM     32  S   UNL     1      45.582  31.331  43.271  0.00  0.00    +0.000 S 
ATOM     33  H   UNL     1      48.441  33.022  44.401  0.00  0.00    +0.000 HD
ATOM     34  H   UNL     1      48.997  30.583  43.773  0.00  0.00    +0.000 HD
ATOM     35  H   UNL     1      46.986  29.199  42.919  0.00  0.00    +0.000 HD
ENDBRANCH  22  28
ENDBRANCH   1  21
TORSDOF 4
