
 OpenBabel03252503143D

 35 38  0  0  1  0  0  0  0  0999 V2000
   46.3720   34.7400   41.8830 C   0  0  0  0  0  0  0  0  0  0  0  0
   47.5190   35.2720   41.7320 O   0  0  0  0  0  0  0  0  0  0  0  0
   45.6490   33.9770   40.8130 C   0  0  0  0  0  0  0  0  0  0  0  0
   44.3620   34.2360   40.3690 C   0  0  0  0  0  0  0  0  0  0  0  0
   44.1220   33.3170   39.4140 N   0  0  0  0  0  0  0  0  0  0  0  0
   45.2160   32.5360   39.2850 C   0  0  0  0  0  0  0  0  0  0  0  0
   46.1690   32.9450   40.1550 N   0  0  0  0  0  0  0  0  0  0  0  0
   45.4780   31.4290   38.4220 N   0  0  0  0  0  0  0  0  0  0  0  0
   43.6890   34.9930   40.7000 H   0  0  0  0  0  0  0  0  0  0  0  0
   44.7090   30.7040   38.4560 H   0  0  0  0  0  0  0  0  0  0  0  0
   46.3210   31.3090   37.8120 H   0  0  0  0  0  0  0  0  0  0  0  0
   41.5340   33.8480   39.9550 H   0  0  0  0  0  0  0  0  0  0  0  0
   41.7270   32.9420   39.4450 N   0  0  0  0  0  0  0  0  0  0  0  0
   42.9370   33.1430   38.6330 C   0  0  2  0  0  3  0  0  0  0  0  0
   43.0230   32.0420   37.6230 C   0  0  0  0  0  3  0  0  0  0  0  0
   44.0390   31.6220   37.5570 H   0  0  0  0  0  0  0  0  0  0  0  0
   42.1310   31.0190   37.9350 O   0  0  0  0  0  0  0  0  0  0  0  0
   40.8100   31.4520   37.8420 C   0  0  0  0  0  2  0  0  0  0  0  0
   40.6600   32.8500   38.4340 C   0  0  0  0  0  2  0  0  0  0  0  0
   45.1370   36.1200   43.4910 C   0  0  0  0  0  0  0  0  0  0  0  0
   45.7850   34.9130   43.1640 C   0  0  0  0  0  0  0  0  0  0  0  0
   45.7840   33.9750   44.1710 C   0  0  0  0  0  0  0  0  0  0  0  0
   45.2130   34.1860   45.3720 N   0  0  0  0  0  0  0  0  0  0  0  0
   44.6010   35.3730   45.6290 C   0  0  0  0  0  0  0  0  0  0  0  0
   44.5690   36.3260   44.6910 N   0  0  0  0  0  0  0  0  0  0  0  0
   45.0980   36.9100   42.7450 H   0  0  0  0  0  0  0  0  0  0  0  0
   44.1630   35.4750   46.6180 H   0  0  0  0  0  0  0  0  0  0  0  0
   46.4150   32.7300   43.9310 C   0  0  0  0  0  0  0  0  0  0  0  0
   47.7020   32.2830   43.9410 C   0  0  0  0  0  0  0  0  0  0  0  0
   48.0010   31.0320   43.6700 C   0  0  0  0  0  0  0  0  0  0  0  0
   46.9910   30.1810   43.3780 C   0  0  0  0  0  0  0  0  0  0  0  0
   45.5250   31.2530   43.5000 S   0  0  0  0  0  0  0  0  0  0  0  0
   48.4500   33.0630   44.1920 H   0  0  0  0  0  0  0  0  0  0  0  0
   48.9930   30.6000   43.6560 H   0  0  0  0  0  0  0  0  0  0  0  0
   46.9340   29.1280   43.1220 H   0  0  0  0  0  0  0  0  0  0  0  0
  1 21  1  0  0  0  0
  2  1  2  0  0  0  0
  3  1  1  0  0  0  0
  4  9  1  0  0  0  0
  4  3  2  0  0  0  0
  5  4  1  0  0  0  0
  6  5  1  0  0  0  0
  6  7  2  0  0  0  0
  7  3  1  0  0  0  0
  8 10  1  0  0  0  0
  8  6  1  0  0  0  0
 11  8  1  0  0  0  0
 13 12  1  0  0  0  0
 14  5  1  1  0  0  0
 14 13  1  0  0  0  0
 15 17  1  0  0  0  0
 15 14  1  0  0  0  0
 16 15  1  0  0  0  0
 18 17  1  0  0  0  0
 18 19  1  0  0  0  0
 19 13  1  0  0  0  0
 20 25  1  0  0  0  0
 21 20  2  0  0  0  0
 21 22  1  0  0  0  0
 22 23  2  0  0  0  0
 23 24  1  0  0  0  0
 24 27  1  0  0  0  0
 25 24  2  0  0  0  0
 26 20  1  0  0  0  0
 28 29  2  0  0  0  0
 28 22  1  0  0  0  0
 29 33  1  0  0  0  0
 30 29  1  0  0  0  0
 31 32  1  0  0  0  0
 31 30  2  0  0  0  0
 32 28  1  0  0  0  0
 34 30  1  0  0  0  0
 35 31  1  0  0  0  0
M  END
>  <minimizedAffinity>
-4.79167414

>  <minimizedRMSD>
0.392695844

$$$$
