
 OpenBabel03252503143D

 35 38  0  0  1  0  0  0  0  0999 V2000
   45.8960   34.5490   41.6600 C   0  0  0  0  0  0  0  0  0  0  0  0
   47.1200   34.7860   41.4010 O   0  0  0  0  0  0  0  0  0  0  0  0
   44.8950   34.0780   40.6470 C   0  0  0  0  0  0  0  0  0  0  0  0
   43.5190   34.0810   40.8130 C   0  0  0  0  0  0  0  0  0  0  0  0
   43.0200   33.5790   39.6670 N   0  0  0  0  0  0  0  0  0  0  0  0
   44.0490   33.2850   38.8430 C   0  0  0  0  0  0  0  0  0  0  0  0
   45.2180   33.5950   39.4510 N   0  0  0  0  0  0  0  0  0  0  0  0
   44.0640   32.7360   37.5250 N   0  0  0  0  0  0  0  0  0  0  0  0
   42.9570   34.4060   41.6580 H   0  0  0  0  0  0  0  0  0  0  0  0
   43.4800   31.8570   37.4500 H   0  0  0  0  0  0  0  0  0  0  0  0
   44.5790   33.1260   36.7010 H   0  0  0  0  0  0  0  0  0  0  0  0
   41.7490   33.6630   37.2900 H   0  0  0  0  0  0  0  0  0  0  0  0
   41.2370   34.0940   38.1090 N   0  0  0  0  0  0  0  0  0  0  0  0
   41.6500   33.3680   39.3180 C   0  0  2  0  0  3  0  0  0  0  0  0
   40.6810   33.6790   40.4170 C   0  0  0  0  0  3  0  0  0  0  0  0
   41.1940   33.9020   41.3670 H   0  0  0  0  0  0  0  0  0  0  0  0
   39.8790   34.7620   40.0710 O   0  0  0  0  0  0  0  0  0  0  0  0
   39.0620   34.4620   38.9840 C   0  0  0  0  0  2  0  0  0  0  0  0
   39.8360   33.6740   37.9320 C   0  0  0  0  0  2  0  0  0  0  0  0
   44.9440   35.9920   43.4000 C   0  0  0  0  0  0  0  0  0  0  0  0
   45.5080   34.7620   43.0080 C   0  0  0  0  0  0  0  0  0  0  0  0
   45.6330   33.8430   44.0260 C   0  0  0  0  0  0  0  0  0  0  0  0
   45.2500   34.0920   45.2930 N   0  0  0  0  0  0  0  0  0  0  0  0
   44.7110   35.3000   45.6100 C   0  0  0  0  0  0  0  0  0  0  0  0
   44.5640   36.2360   44.6650 N   0  0  0  0  0  0  0  0  0  0  0  0
   44.8150   36.7680   42.6500 H   0  0  0  0  0  0  0  0  0  0  0  0
   44.4250   35.4330   46.6490 H   0  0  0  0  0  0  0  0  0  0  0  0
   46.1920   32.5780   43.7240 C   0  0  0  0  0  0  0  0  0  0  0  0
   47.4490   32.0530   43.7250 C   0  0  0  0  0  0  0  0  0  0  0  0
   47.6760   30.8030   43.3880 C   0  0  0  0  0  0  0  0  0  0  0  0
   46.6220   30.0330   43.0370 C   0  0  0  0  0  0  0  0  0  0  0  0
   45.2210   31.1820   43.2020 S   0  0  0  0  0  0  0  0  0  0  0  0
   48.2380   32.7720   44.0280 H   0  0  0  0  0  0  0  0  0  0  0  0
   48.6400   30.3130   43.3620 H   0  0  0  0  0  0  0  0  0  0  0  0
   46.5050   29.0000   42.7230 H   0  0  0  0  0  0  0  0  0  0  0  0
  1 21  1  0  0  0  0
  2  1  2  0  0  0  0
  3  4  2  0  0  0  0
  3  1  1  0  0  0  0
  4  9  1  0  0  0  0
  5  4  1  0  0  0  0
  6  7  2  0  0  0  0
  6  5  1  0  0  0  0
  7  3  1  0  0  0  0
  8  6  1  0  0  0  0
 10  8  1  0  0  0  0
 11  8  1  0  0  0  0
 12 13  1  0  0  0  0
 13 14  1  0  0  0  0
 14  5  1  1  0  0  0
 14 15  1  0  0  0  0
 15 16  1  0  0  0  0
 17 15  1  0  0  0  0
 18 17  1  0  0  0  0
 19 13  1  0  0  0  0
 19 18  1  0  0  0  0
 20 25  1  0  0  0  0
 21 20  2  0  0  0  0
 21 22  1  0  0  0  0
 22 23  2  0  0  0  0
 23 24  1  0  0  0  0
 24 27  1  0  0  0  0
 25 24  2  0  0  0  0
 26 20  1  0  0  0  0
 28 29  2  0  0  0  0
 28 22  1  0  0  0  0
 29 33  1  0  0  0  0
 30 29  1  0  0  0  0
 31 32  1  0  0  0  0
 31 30  2  0  0  0  0
 32 28  1  0  0  0  0
 34 30  1  0  0  0  0
 35 31  1  0  0  0  0
M  END
>  <minimizedAffinity>
-5.58680725

>  <minimizedRMSD>
1.20327759

$$$$
