
     RDKit          3D

 24 25  0  0  0  0  0  0  0  0999 V2000
   44.5129   35.9764   44.5392 C   0  0  0  0  0  0  0  0  0  0  0  0
   45.1874   35.9177   43.2899 C   0  0  0  0  0  0  0  0  0  0  0  0
   46.1181   34.8752   43.1007 C   0  0  0  0  0  0  0  0  0  0  0  0
   46.2992   34.0121   44.1197 N   0  0  0  0  0  0  0  0  0  0  0  0
   45.6439   34.0921   45.2967 C   0  0  0  0  0  0  0  0  0  0  0  0
   44.7554   35.0696   45.5048 N   0  0  0  0  0  0  0  0  0  0  0  0
   46.0970   32.8159   46.4419 S   0  0  0  0  0  0  0  0  0  0  0  0
   43.7917   36.7618   44.7221 H   0  0  0  0  0  0  0  0  0  0  0  0
   45.0002   36.6367   42.5179 H   0  0  0  0  0  0  0  0  0  0  0  0
   46.6338   34.8228   42.1569 H   0  0  0  0  0  0  0  0  0  0  0  0
   48.6140   34.0804   46.0039 H   0  0  0  0  0  0  0  0  0  0  0  0
   48.3005   34.2261   46.9703 N   0  0  0  0  0  0  0  0  0  0  0  0
   47.4442   33.1991   47.5144 C   0  0  2  0  0  0  0  0  0  0  0  0
   48.3807   32.0521   47.8451 C   0  0  2  0  0  0  0  0  0  0  0  0
   49.1477   31.8914   47.0424 H   0  0  0  0  0  0  0  0  0  0  0  0
   49.0863   32.4772   48.9605 O   0  0  0  0  0  0  0  0  0  0  0  0
   49.8162   33.6115   48.8184 C   0  0  0  0  0  0  0  0  0  0  0  0
   49.3270   34.6504   47.8622 C   0  0  0  0  0  0  0  0  0  0  0  0
   47.0517   33.5980   48.4690 H   0  0  0  0  0  0  0  0  0  0  0  0
   47.8573   31.1215   48.0995 H   0  0  0  0  0  0  0  0  0  0  0  0
   49.8281   34.1142   49.8322 H   0  0  0  0  0  0  0  0  0  0  0  0
   50.8862   33.3131   48.6548 H   0  0  0  0  0  0  0  0  0  0  0  0
   48.9453   35.5772   48.3622 H   0  0  0  0  0  0  0  0  0  0  0  0
   50.2052   34.9796   47.2613 H   0  0  0  0  0  0  0  0  0  0  0  0
  1  6  2  0
  2  1  1  0
  3  2  2  0
  3  4  1  0
  4  5  2  0
  5  6  1  0
  5  7  1  0
  1  8  1  0
  2  9  1  0
  3 10  1  0
 11 12  1  0
 12 13  1  0
 13 14  1  0
 14 15  1  6
 14 16  1  0
 16 17  1  0
 17 18  1  0
 18 12  1  0
 13 19  1  1
 14 20  1  0
 17 21  1  0
 17 22  1  0
 18 23  1  0
 18 24  1  0
  7 13  1  0
M  ISO  5   8  14   9  14  10  14  11   5  15  15
M  END
>  <DihAtoms>  (1) 
4,6,12,11

>  <DihDeg>  (1) 
66.693903542516

$$$$
