
     RDKit          3D

 24 25  0  0  0  0  0  0  0  0999 V2000
   44.5129   35.9764   44.5392 C   0  0  0  0  0  0  0  0  0  0  0  0
   45.1874   35.9177   43.2899 C   0  0  0  0  0  0  0  0  0  0  0  0
   46.1181   34.8752   43.1007 C   0  0  0  0  0  0  0  0  0  0  0  0
   46.2992   34.0121   44.1197 N   0  0  0  0  0  0  0  0  0  0  0  0
   45.6439   34.0921   45.2967 C   0  0  0  0  0  0  0  0  0  0  0  0
   44.7554   35.0696   45.5048 N   0  0  0  0  0  0  0  0  0  0  0  0
   46.0970   32.8159   46.4419 S   0  0  0  0  0  0  0  0  0  0  0  0
   43.7917   36.7618   44.7221 H   0  0  0  0  0  0  0  0  0  0  0  0
   45.0002   36.6367   42.5179 H   0  0  0  0  0  0  0  0  0  0  0  0
   46.6338   34.8228   42.1569 H   0  0  0  0  0  0  0  0  0  0  0  0
   48.0424   34.8996   46.4293 H   0  0  0  0  0  0  0  0  0  0  0  0
   47.8704   34.5724   47.3868 N   0  0  0  0  0  0  0  0  0  0  0  0
   47.4442   33.1991   47.5144 C   0  0  2  0  0  0  0  0  0  0  0  0
   48.7080   32.3836   47.3155 C   0  0  2  0  0  0  0  0  0  0  0  0
   49.3404   32.7859   46.4808 H   0  0  0  0  0  0  0  0  0  0  0  0
   49.4450   32.5784   48.4737 O   0  0  0  0  0  0  0  0  0  0  0  0
   49.7903   33.8578   48.7630 C   0  0  0  0  0  0  0  0  0  0  0  0
   48.8724   34.9527   48.3252 C   0  0  0  0  0  0  0  0  0  0  0  0
   47.1243   33.0714   48.5659 H   0  0  0  0  0  0  0  0  0  0  0  0
   48.5195   31.3084   47.2009 H   0  0  0  0  0  0  0  0  0  0  0  0
   49.8330   33.9310   49.8914 H   0  0  0  0  0  0  0  0  0  0  0  0
   50.8566   34.0060   48.4443 H   0  0  0  0  0  0  0  0  0  0  0  0
   48.3362   35.4546   49.1710 H   0  0  0  0  0  0  0  0  0  0  0  0
   49.5061   35.7451   47.8659 H   0  0  0  0  0  0  0  0  0  0  0  0
  1  6  2  0
  2  1  1  0
  3  2  2  0
  3  4  1  0
  4  5  2  0
  5  6  1  0
  5  7  1  0
  1  8  1  0
  2  9  1  0
  3 10  1  0
 11 12  1  0
 12 13  1  0
 13 14  1  0
 14 15  1  6
 14 16  1  0
 16 17  1  0
 17 18  1  0
 18 12  1  0
 13 19  1  1
 14 20  1  0
 17 21  1  0
 17 22  1  0
 18 23  1  0
 18 24  1  0
  7 13  1  0
M  ISO  5   8  14   9  14  10  14  11   5  15  15
M  END
>  <DihAtoms>  (1) 
4,6,12,11

>  <DihDeg>  (1) 
66.693903542516

$$$$
