
 OpenBabel03242523263D

 44 47  0  0  1  0  0  0  0  0999 V2000
   46.6160   33.2790   43.0030 C   0  0  0  0  0  0  0  0  0  0  0  0
   47.8700   32.8800   43.0800 C   0  0  0  0  0  0  0  0  0  0  0  0
   48.0540   31.6610   43.7160 C   0  0  0  0  0  0  0  0  0  0  0  0
   46.9040   30.9990   44.2030 N   0  0  0  0  0  0  0  0  0  0  0  0
   45.6870   31.4630   44.0890 C   0  0  0  0  0  0  0  0  0  0  0  0
   45.4830   32.6800   43.4530 N   0  0  0  0  0  0  0  0  0  0  0  0
   48.9990   31.1590   43.8800 H   0  0  0  0  0  0  0  0  0  0  0  0
   44.9090   30.8410   44.5140 H   0  0  0  0  0  0  0  0  0  0  0  0
   49.0590   33.6020   42.6950 C   0  0  1  0  0  0  0  0  0  0  0  0
   50.3100   33.1050   42.5620 C   0  0  0  0  0  0  0  0  0  0  0  0
   49.6140   33.2310   41.2360 C   0  0  1  0  0  0  0  0  0  0  0  0
   48.8370   34.7180   42.6830 H   0  0  0  0  0  0  0  0  0  0  0  0
   51.2320   33.7400   42.6300 H   0  0  0  0  0  0  0  0  0  0  0  0
   50.5860   32.0560   42.8650 H   0  0  0  0  0  0  0  0  0  0  0  0
   49.8580   34.0940   40.5950 H   0  0  0  0  0  0  0  0  0  0  0  0
   49.0730   32.0490   40.6740 N   0  0  0  0  0  0  0  0  0  0  0  0
   48.0740   31.8820   40.8720 H   0  0  0  0  0  0  0  0  0  0  0  0
   51.0590   33.1330   39.0180 H   0  0  0  0  0  0  0  0  0  0  0  0
   50.7540   32.1430   39.0410 N   0  0  0  0  0  0  0  0  0  0  0  0
   49.3400   32.0380   39.2510 C   0  0  1  0  0  3  0  0  0  0  0  0
   48.7520   30.7730   38.6800 C   0  0  0  0  0  3  0  0  0  0  0  0
   48.3610   30.9200   37.6610 H   0  0  0  0  0  0  0  0  0  0  0  0
   49.7840   29.8080   38.7030 O   0  0  0  0  0  0  0  0  0  0  0  0
   50.6420   30.1300   37.6530 C   0  0  0  0  0  2  0  0  0  0  0  0
   51.1530   31.5510   37.7790 C   0  0  0  0  0  2  0  0  0  0  0  0
   46.1410   34.5100   42.3080 C   0  0  0  0  0  0  0  0  0  0  0  0
   45.9870   35.6870   42.1800 O   0  0  0  0  0  0  0  0  0  0  0  0
   43.0950   34.9780   41.9970 Cl  0  0  0  0  0  0  0  0  0  0  0  0
   44.0710   34.2240   40.7510 C   0  0  0  0  0  0  0  0  0  0  0  0
   45.4570   34.0860   41.0280 C   0  0  0  0  0  0  0  0  0  0  0  0
   46.1010   33.4920   39.9760 C   0  0  0  0  0  0  0  0  0  0  0  0
   45.6480   33.0580   38.8200 C   0  0  0  0  0  0  0  0  0  0  0  0
   44.2920   33.2170   38.6010 C   0  0  0  0  0  0  0  0  0  0  0  0
   43.5130   33.7880   39.5470 C   0  0  0  0  0  0  0  0  0  0  0  0
   47.2070   33.3510   40.0950 H   0  0  0  0  0  0  0  0  0  0  0  0
   46.2580   32.5940   38.0410 H   0  0  0  0  0  0  0  0  0  0  0  0
   43.8870   32.8590   37.6370 H   0  0  0  0  0  0  0  0  0  0  0  0
   42.1850   33.8950   39.2230 O   0  0  0  0  0  0  0  0  0  0  0  0
   40.2480   34.5690   37.5890 O   0  0  0  0  0  0  0  0  0  0  0  0
   41.3560   35.1370   38.4330 P   0  0  0  0  0  0  0  0  0  0  0  0
   40.7500   36.2120   39.5960 O   0  0  0  0  0  0  0  0  0  0  0  0
   39.9900   35.7530   40.0710 H   0  0  0  0  0  0  0  0  0  0  0  0
   42.3960   36.0530   37.4560 O   0  0  0  0  0  0  0  0  0  0  0  0
   41.8230   36.5540   36.8250 H   0  0  0  0  0  0  0  0  0  0  0  0
  1  2  2  0  0  0  0
  1  6  1  0  0  0  0
  2  3  1  0  0  0  0
  3  7  1  0  0  0  0
  3  4  2  0  0  0  0
  5  4  1  0  0  0  0
  5  8  1  0  0  0  0
  6  5  2  0  0  0  0
  9 12  1  1  0  0  0
  9  2  1  0  0  0  0
 10 13  1  0  0  0  0
 10  9  1  0  0  0  0
 10 14  1  0  0  0  0
 11 15  1  6  0  0  0
 11 10  1  0  0  0  0
 11  9  1  0  0  0  0
 16 17  1  0  0  0  0
 16 11  1  0  0  0  0
 18 19  1  0  0  0  0
 19 20  1  0  0  0  0
 20 16  1  1  0  0  0
 21 23  1  0  0  0  0
 21 20  1  0  0  0  0
 22 21  1  0  0  0  0
 24 25  1  0  0  0  0
 24 23  1  0  0  0  0
 25 19  1  0  0  0  0
 26  1  1  0  0  0  0
 27 26  2  0  0  0  0
 29 30  1  0  0  0  0
 29 28  1  0  0  0  0
 30 26  1  0  0  0  0
 31 35  1  0  0  0  0
 31 30  2  0  0  0  0
 32 31  1  0  0  0  0
 33 32  2  0  0  0  0
 33 34  1  0  0  0  0
 34 29  2  0  0  0  0
 36 32  1  0  0  0  0
 37 33  1  0  0  0  0
 38 34  1  0  0  0  0
 39 40  2  0  0  0  0
 40 38  1  0  0  0  0
 40 41  1  0  0  0  0
 41 42  1  0  0  0  0
 43 40  1  0  0  0  0
 44 43  1  0  0  0  0
M  END
>  <minimizedAffinity>
-5.12976646

>  <minimizedRMSD>
3.48847008

$$$$
