
     RDKit          3D

 41 43  0  0  0  0  0  0  0  0999 V2000
   46.1665   32.5509   47.0044 C   0  0  0  0  0  0  0  0  0  0  0  0
   45.2357   32.5635   47.9920 C   0  0  0  0  0  0  0  0  0  0  0  0
   45.4339   31.7519   49.0948 C   0  0  0  0  0  0  0  0  0  0  0  0
   46.5544   30.9474   49.1884 C   0  0  0  0  0  0  0  0  0  0  0  0
   47.4810   30.9649   48.1564 C   0  0  0  0  0  0  0  0  0  0  0  0
   47.2669   31.7467   47.1182 N   0  0  0  0  0  0  0  0  0  0  0  0
   44.9727   34.9910   44.5668 C   0  0  0  0  0  0  0  0  0  0  0  0
   45.9284   34.8462   43.5425 C   0  0  0  0  0  0  0  0  0  0  0  0
   46.9773   33.9268   43.6679 C   0  0  0  0  0  0  0  0  0  0  0  0
   46.9646   33.2336   44.8235 N   0  0  0  0  0  0  0  0  0  0  0  0
   46.0694   33.3638   45.7925 C   0  0  0  0  0  0  0  0  0  0  0  0
   45.0766   34.2487   45.6497 N   0  0  0  0  0  0  0  0  0  0  0  0
   43.9219   35.9430   44.3800 N   0  0  0  0  0  0  0  0  0  0  0  0
   48.6784   30.1381   48.2028 C   0  0  0  0  0  0  0  0  0  0  0  0
   49.7899   30.4926   48.8448 C   0  0  0  0  0  0  0  0  0  0  0  0
   49.8855   31.7609   49.5863 C   0  0  0  0  0  0  0  0  0  0  0  0
   44.3966   33.2239   47.8269 H   0  0  0  0  0  0  0  0  0  0  0  0
   44.6708   31.7748   49.8809 H   0  0  0  0  0  0  0  0  0  0  0  0
   46.6617   30.3305   50.0662 H   0  0  0  0  0  0  0  0  0  0  0  0
   45.8428   35.4587   42.6501 H   0  0  0  0  0  0  0  0  0  0  0  0
   47.7053   33.8089   42.8996 H   0  0  0  0  0  0  0  0  0  0  0  0
   44.0024   36.6461   43.6100 H   0  0  0  0  0  0  0  0  0  0  0  0
   43.0976   35.8932   45.0370 H   0  0  0  0  0  0  0  0  0  0  0  0
   48.6200   29.1977   47.6762 H   0  0  0  0  0  0  0  0  0  0  0  0
   50.6687   29.8623   48.8649 H   0  0  0  0  0  0  0  0  0  0  0  0
   50.6389   32.4376   49.0940 H   0  0  0  0  0  0  0  0  0  0  0  0
   48.9231   32.3443   49.5266 H   0  0  0  0  0  0  0  0  0  0  0  0
   50.1927   31.6372   50.9773 N   0  0  0  0  0  0  0  0  0  0  0  0
   49.0726   32.0200   51.8027 C   0  0  2  0  0  0  0  0  0  0  0  0
   48.5049   31.0746   51.9943 H   0  0  0  0  0  0  0  0  0  0  0  0
   49.4960   32.5135   53.1594 C   0  0  2  0  0  0  0  0  0  0  0  0
   48.7318   32.3719   53.9211 H   0  0  0  0  0  0  0  0  0  0  0  0
   50.7241   31.8981   53.5014 O   0  0  0  0  0  0  0  0  0  0  0  0
   51.6676   32.5828   52.7266 C   0  0  0  0  0  0  0  0  0  0  0  0
   51.4191   32.2948   51.2743 C   0  0  0  0  0  0  0  0  0  0  0  0
   48.3818   32.7360   51.3633 H   0  0  0  0  0  0  0  0  0  0  0  0
   49.7079   33.6020   53.1247 H   0  0  0  0  0  0  0  0  0  0  0  0
   51.5366   33.6597   52.9184 H   0  0  0  0  0  0  0  0  0  0  0  0
   52.6962   32.3469   53.0685 H   0  0  0  0  0  0  0  0  0  0  0  0
   52.2435   31.5835   50.9674 H   0  0  0  0  0  0  0  0  0  0  0  0
   51.5258   33.2597   50.7166 H   0  0  0  0  0  0  0  0  0  0  0  0
  1  6  1  0
  1  2  2  0
  2  3  1  0
  3  4  2  0
  5 14  1  0
  5  4  1  0
  6  5  2  0
  7 12  2  0
  8  9  2  0
  8  7  1  0
  9 10  1  0
 10 11  2  0
 11  1  1  0
 12 11  1  0
 13  7  1  0
 14 15  2  0
 15 16  1  0
  2 17  1  0
  3 18  1  0
  4 19  1  0
  8 20  1  0
  9 21  1  0
 13 22  1  0
 13 23  1  0
 14 24  1  0
 15 25  1  0
 16 26  1  0
 16 27  1  0
 28 29  1  0
 29 30  1  1
 29 31  1  0
 31 32  1  1
 31 33  1  0
 33 34  1  0
 34 35  1  0
 35 28  1  0
 29 36  1  0
 31 37  1  0
 34 38  1  0
 34 39  1  0
 35 40  1  0
 35 41  1  0
 16 28  1  0
M  ISO  8  17  14  18  14  19  14  20  14  21  14  26   8  27   8  30   8
M  ISO  1  32  15
M  END
>  <DihAtoms>  (1) 
14,15,27,28

>  <DihDeg>  (1) 
68.44137591960511

$$$$
