
     RDKit          3D

 50 53  0  0  0  0  0  0  0  0999 V2000
   46.3773   33.4415   44.6716 C   0  0  0  0  0  0  0  0  0  0  0  0
   45.8493   33.8260   45.6714 O   0  0  0  0  0  0  0  0  0  0  0  0
   44.4777   31.7644   42.8895 Cl  0  0  0  0  0  0  0  0  0  0  0  0
   44.5621   33.5131   42.8034 C   0  0  0  0  0  0  0  0  0  0  0  0
   45.4702   34.1489   43.6897 C   0  0  0  0  0  0  0  0  0  0  0  0
   45.4313   35.5067   43.5261 C   0  0  0  0  0  0  0  0  0  0  0  0
   44.7186   36.2589   42.7149 C   0  0  0  0  0  0  0  0  0  0  0  0
   43.8501   35.5905   41.8718 C   0  0  0  0  0  0  0  0  0  0  0  0
   43.7695   34.2412   41.9118 C   0  0  0  0  0  0  0  0  0  0  0  0
   42.8762   33.6836   41.0338 O   0  0  0  0  0  0  0  0  0  0  0  0
   40.5906   33.1084   39.8852 O   0  0  0  0  0  0  0  0  0  0  0  0
   41.2316   33.3484   41.2240 P   0  0  0  0  0  0  0  0  0  0  0  0
   41.0665   31.9950   42.2327 O   0  0  0  0  0  0  0  0  0  0  0  0
   40.4275   34.6142   42.0162 O   0  0  0  0  0  0  0  0  0  0  0  0
   47.3926   32.6815   43.8892 C   0  0  0  0  0  0  0  0  0  0  0  0
   48.3193   33.2146   43.1163 C   0  0  0  0  0  0  0  0  0  0  0  0
   49.1030   32.2987   42.4305 C   0  0  0  0  0  0  0  0  0  0  0  0
   48.8309   30.9259   42.6342 N   0  0  0  0  0  0  0  0  0  0  0  0
   47.8915   30.4729   43.4235 C   0  0  0  0  0  0  0  0  0  0  0  0
   47.0958   31.3754   44.1155 N   0  0  0  0  0  0  0  0  0  0  0  0
   48.6827   34.6065   42.9937 C   0  0  1  0  0  0  0  0  0  0  0  0
   49.5755   35.1454   42.1331 C   0  0  0  0  0  0  0  0  0  0  0  0
   48.1621   35.3098   41.6487 C   0  0  1  0  0  0  0  0  0  0  0  0
   47.7139   34.4177   40.6442 N   0  0  0  0  0  0  0  0  0  0  0  0
   46.1071   36.1019   44.1952 H   0  0  0  0  0  0  0  0  0  0  0  0
   44.7675   37.3501   42.6660 H   0  0  0  0  0  0  0  0  0  0  0  0
   43.2406   36.1996   41.1807 H   0  0  0  0  0  0  0  0  0  0  0  0
   41.3632   31.1856   41.7117 H   0  0  0  0  0  0  0  0  0  0  0  0
   39.4628   34.4891   41.8410 H   0  0  0  0  0  0  0  0  0  0  0  0
   49.9099   32.5291   41.7485 H   0  0  0  0  0  0  0  0  0  0  0  0
   47.8066   29.3949   43.4758 H   0  0  0  0  0  0  0  0  0  0  0  0
   48.2342   35.1918   43.8596 H   0  0  0  0  0  0  0  0  0  0  0  0
   50.0877   36.1257   42.3160 H   0  0  0  0  0  0  0  0  0  0  0  0
   50.2417   34.5209   41.4735 H   0  0  0  0  0  0  0  0  0  0  0  0
   47.6679   36.2847   41.7916 H   0  0  0  0  0  0  0  0  0  0  0  0
   46.9963   33.7404   40.9419 H   0  0  0  0  0  0  0  0  0  0  0  0
   48.6919   36.6472   39.2531 H   0  0  0  0  0  0  0  0  0  0  0  0
   48.4230   35.7362   38.8394 N   0  0  0  0  0  0  0  0  0  0  0  0
   47.2765   35.1834   39.4962 C   0  0  1  0  0  0  0  0  0  0  0  0
   46.4732   34.2671   38.6079 C   0  0  2  0  0  0  0  0  0  0  0  0
   45.6487   34.7938   38.1031 H   0  0  0  0  0  0  0  0  0  0  0  0
   47.3834   33.7194   37.6754 O   0  0  0  0  0  0  0  0  0  0  0  0
   47.6470   34.7269   36.7490 C   0  0  0  0  0  0  0  0  0  0  0  0
   48.1717   35.9743   37.4309 C   0  0  0  0  0  0  0  0  0  0  0  0
   46.6549   36.0388   39.8321 H   0  0  0  0  0  0  0  0  0  0  0  0
   46.0706   33.4469   39.2040 H   0  0  0  0  0  0  0  0  0  0  0  0
   48.3915   34.3424   36.0390 H   0  0  0  0  0  0  0  0  0  0  0  0
   46.6806   34.9855   36.2673 H   0  0  0  0  0  0  0  0  0  0  0  0
   49.1348   36.2643   36.9646 H   0  0  0  0  0  0  0  0  0  0  0  0
   47.4537   36.8118   37.3455 H   0  0  0  0  0  0  0  0  0  0  0  0
  1  2  2  0
  4  3  1  0
  4  5  2  0
  5  1  1  0
  6  5  1  0
  7  6  2  0
  8  9  2  0
  8  7  1  0
  9  4  1  0
 10 12  1  0
 10  9  1  0
 11 12  2  0
 12 14  1  0
 12 13  1  0
 15 20  1  0
 15  1  1  0
 16 15  2  0
 17 18  2  0
 17 16  1  0
 18 19  1  0
 19 20  2  0
 21 16  1  0
 22 21  1  0
 23 22  1  0
 23 21  1  0
 24 23  1  0
  6 25  1  0
  7 26  1  0
  8 27  1  0
 13 28  1  0
 14 29  1  0
 17 30  1  0
 19 31  1  0
 21 32  1  1
 22 33  1  0
 22 34  1  0
 23 35  1  1
 24 36  1  0
 37 38  1  0
 38 39  1  0
 39 40  1  0
 40 41  1  6
 40 42  1  0
 42 43  1  0
 43 44  1  0
 44 38  1  0
 39 45  1  1
 40 46  1  0
 43 47  1  0
 43 48  1  0
 44 49  1  0
 44 50  1  0
 24 39  1  0
M  ISO  8  25  14  26  14  27  14  28   3  29   3  30  14  31  14  32  13
M  ISO  6  33  13  34  13  35  13  36   5  37   5  41  15
M  END
>  <DihAtoms>  (1) 
22,23,38,37

>  <DihDeg>  (1) 
56.94498892871619

$$$$
