
 OpenBabel03242520123D

 33 35  0  0  0  0  0  0  0  0999 V2000
   46.1700   32.5330   47.0320 C   0  0  0  0  0  0  0  0  0  0  0  0
   45.2200   32.5210   48.0010 C   0  0  0  0  0  0  0  0  0  0  0  0
   45.4180   31.7170   49.1090 C   0  0  0  0  0  0  0  0  0  0  0  0
   46.5570   30.9420   49.2260 C   0  0  0  0  0  0  0  0  0  0  0  0
   47.5030   30.9840   48.2120 C   0  0  0  0  0  0  0  0  0  0  0  0
   47.2890   31.7580   47.1690 N   0  0  0  0  0  0  0  0  0  0  0  0
   44.3670   33.1600   47.8180 H   0  0  0  0  0  0  0  0  0  0  0  0
   44.6390   31.7210   49.8800 H   0  0  0  0  0  0  0  0  0  0  0  0
   46.6630   30.3300   50.1070 H   0  0  0  0  0  0  0  0  0  0  0  0
   44.9830   34.9650   44.5840 C   0  0  0  0  0  0  0  0  0  0  0  0
   45.9390   34.8150   43.5610 C   0  0  0  0  0  0  0  0  0  0  0  0
   46.9870   33.8960   43.6920 C   0  0  0  0  0  0  0  0  0  0  0  0
   46.9730   33.2070   44.8500 N   0  0  0  0  0  0  0  0  0  0  0  0
   46.0750   33.3410   45.8160 C   0  0  0  0  0  0  0  0  0  0  0  0
   45.0840   34.2270   45.6700 N   0  0  0  0  0  0  0  0  0  0  0  0
   43.9330   35.9170   44.3910 N   0  0  0  0  0  0  0  0  0  0  0  0
   45.8560   35.4250   42.6670 H   0  0  0  0  0  0  0  0  0  0  0  0
   47.7170   33.7750   42.9260 H   0  0  0  0  0  0  0  0  0  0  0  0
   44.0140   36.6170   43.6190 H   0  0  0  0  0  0  0  0  0  0  0  0
   43.1070   35.8700   45.0470 H   0  0  0  0  0  0  0  0  0  0  0  0
   48.7210   30.1890   48.2840 C   0  0  0  0  0  3  0  0  0  0  0  0
   49.8330   30.6050   48.8880 C   0  0  0  0  0  3  0  0  0  0  0  0
   49.9100   31.9130   49.5570 C   0  0  0  0  0  0  0  0  0  0  0  0
   49.8080   32.7390   48.7990 H   0  0  0  0  0  0  0  0  0  0  0  0
   49.0320   32.0730   50.2460 H   0  0  0  0  0  0  0  0  0  0  0  0
   51.0820   32.1310   50.3460 N   0  0  0  0  0  0  0  0  0  0  0  0
   51.0060   31.4370   51.6100 C   0  0  0  0  0  3  0  0  0  0  0  0
   51.4870   30.4420   51.4340 H   0  0  0  0  0  0  0  0  0  0  0  0
   51.8290   32.0960   52.6820 C   0  0  0  0  0  3  0  0  0  0  0  0
   52.1580   31.4020   53.4530 H   0  0  0  0  0  0  0  0  0  0  0  0
   52.9080   32.7770   52.0690 O   0  0  0  0  0  0  0  0  0  0  0  0
   52.3150   33.9240   51.5280 C   0  0  0  0  0  2  0  0  0  0  0  0
   51.3680   33.5220   50.4340 C   0  0  0  0  0  2  0  0  0  0  0  0
  1  6  2  0  0  0  0
  1  2  1  0  0  0  0
  2  3  2  0  0  0  0
  3  4  1  0  0  0  0
  3  8  1  0  0  0  0
  4  9  1  0  0  0  0
  5 21  1  0  0  0  0
  5  4  2  0  0  0  0
  6  5  1  0  0  0  0
  7  2  1  0  0  0  0
 10 15  1  0  0  0  0
 11 12  1  0  0  0  0
 11 10  2  0  0  0  0
 12 13  2  0  0  0  0
 13 14  1  0  0  0  0
 14  1  1  0  0  0  0
 15 14  2  0  0  0  0
 16 10  1  0  0  0  0
 16 20  1  0  0  0  0
 17 11  1  0  0  0  0
 18 12  1  0  0  0  0
 19 16  1  0  0  0  0
 21 22  2  0  0  0  0
 22 23  1  0  0  0  0
 23 25  1  0  0  0  0
 23 26  1  0  0  0  0
 24 23  1  0  0  0  0
 26 33  1  0  0  0  0
 26 27  1  0  0  0  0
 27 29  1  0  0  0  0
 28 27  1  0  0  0  0
 29 30  1  0  0  0  0
 31 29  1  0  0  0  0
 32 31  1  0  0  0  0
 33 32  1  0  0  0  0
M  END
>  <minimizedAffinity>
-6.3213563

>  <minimizedRMSD>
1.06434405

$$$$
