
 OpenBabel03242519083D

 42 45  0  0  1  0  0  0  0  0999 V2000
   38.7870   32.6330   40.3340 N   0  0  0  0  0  0  0  0  0  0  0  0
   38.8510   31.6600   41.4050 C   0  0  0  0  0  0  0  0  0  0  0  0
   37.9600   30.6080   40.8080 C   0  0  2  0  0  0  0  0  0  0  0  0
   36.7620   31.4320   40.3980 C   0  0  0  0  0  0  0  0  0  0  0  0
   37.3960   32.7180   39.9260 C   0  0  0  0  0  0  0  0  0  0  0  0
   38.3970   32.0750   42.3260 H   0  0  0  0  0  0  0  0  0  0  0  0
   39.8580   31.3080   41.6480 H   0  0  0  0  0  0  0  0  0  0  0  0
   38.5080   30.1670   39.9580 H   0  0  0  0  0  0  0  0  0  0  0  0
   36.1240   31.5740   41.2870 H   0  0  0  0  0  0  0  0  0  0  0  0
   36.2210   30.9120   39.5930 H   0  0  0  0  0  0  0  0  0  0  0  0
   36.9050   33.6070   40.3700 H   0  0  0  0  0  0  0  0  0  0  0  0
   37.3540   32.8230   38.8250 H   0  0  0  0  0  0  0  0  0  0  0  0
   41.1700   35.3540   39.4360 C   0  0  0  0  0  0  0  0  0  0  0  0
   40.1410   34.6960   40.1000 C   0  0  0  0  0  0  0  0  0  0  0  0
   39.8040   33.3940   39.7380 C   0  0  0  0  0  0  0  0  0  0  0  0
   40.5300   32.8330   38.7250 N   0  0  0  0  0  0  0  0  0  0  0  0
   41.5210   33.4610   38.0840 C   0  0  0  0  0  0  0  0  0  0  0  0
   41.8480   34.7270   38.4350 N   0  0  0  0  0  0  0  0  0  0  0  0
   41.3650   36.3560   39.7780 H   0  0  0  0  0  0  0  0  0  0  0  0
   39.5500   35.1140   40.9020 H   0  0  0  0  0  0  0  0  0  0  0  0
   42.0620   32.9570   37.2830 H   0  0  0  0  0  0  0  0  0  0  0  0
   37.5060   29.6450   41.7660 N   0  0  0  0  0  0  0  0  0  0  0  0
   36.6480   29.9960   42.2800 H   0  0  0  0  0  0  0  0  0  0  0  0
   37.6800   27.1810   41.4410 C   0  0  0  0  0  0  0  0  0  0  0  0
   37.9770   28.3690   42.1330 C   0  0  0  0  0  0  0  0  0  0  0  0
   38.7860   28.1790   43.2260 C   0  0  0  0  0  0  0  0  0  0  0  0
   39.2950   26.9890   43.6670 C   0  0  0  0  0  0  0  0  0  0  0  0
   38.9830   25.8460   42.9620 C   0  0  0  0  0  0  0  0  0  0  0  0
   38.1740   25.9640   41.8530 C   0  0  0  0  0  0  0  0  0  0  0  0
   39.0600   29.0500   43.8130 H   0  0  0  0  0  0  0  0  0  0  0  0
   39.9240   26.9130   44.5330 H   0  0  0  0  0  0  0  0  0  0  0  0
   39.3610   24.8940   43.2720 H   0  0  0  0  0  0  0  0  0  0  0  0
   37.8690   24.7650   41.1460 N   0  0  0  0  0  0  0  0  0  0  0  0
   36.6200   24.0310   41.2260 C   0  0  0  0  0  3  0  0  0  0  0  0
   35.7600   24.7360   41.4100 H   0  0  0  0  0  0  0  0  0  0  0  0
   36.2770   23.3470   39.9200 C   0  0  0  0  0  3  0  0  0  0  0  0
   35.9160   24.0590   39.1700 H   0  0  0  0  0  0  0  0  0  0  0  0
   37.2870   22.5680   39.4080 O   0  0  0  0  0  0  0  0  0  0  0  0
   38.3980   22.6470   40.2250 C   0  0  0  0  0  2  0  0  0  0  0  0
   38.8150   24.1240   40.2340 C   0  0  0  0  0  2  0  0  0  0  0  0
   36.1500   27.3880   39.3480 N   0  0  0  0  0  0  0  0  0  0  0  0
   36.8340   27.2920   40.2760 C   0  0  0  0  0  0  0  0  0  0  0  0
  1  2  1  0  0  0  0
  2  7  1  0  0  0  0
  2  6  1  0  0  0  0
  3  8  1  6  0  0  0
  3  2  1  0  0  0  0
  3 22  1  0  0  0  0
  4  3  1  0  0  0  0
  4  9  1  0  0  0  0
  5  1  1  0  0  0  0
  5 11  1  0  0  0  0
  5  4  1  0  0  0  0
 10  4  1  0  0  0  0
 12  5  1  0  0  0  0
 13 19  1  0  0  0  0
 13 14  1  0  0  0  0
 14 20  1  0  0  0  0
 15 14  2  0  0  0  0
 15  1  1  0  0  0  0
 16 15  1  0  0  0  0
 17 18  1  0  0  0  0
 17 16  2  0  0  0  0
 18 13  2  0  0  0  0
 21 17  1  0  0  0  0
 22 25  1  0  0  0  0
 22 23  1  0  0  0  0
 24 29  2  0  0  0  0
 24 25  1  0  0  0  0
 25 26  2  0  0  0  0
 26 27  1  0  0  0  0
 26 30  1  0  0  0  0
 27 31  1  0  0  0  0
 28 32  1  0  0  0  0
 28 27  2  0  0  0  0
 29 28  1  0  0  0  0
 33 34  1  0  0  0  0
 33 29  1  0  0  0  0
 34 35  1  0  0  0  0
 36 34  1  0  0  0  0
 37 36  1  0  0  0  0
 38 36  1  0  0  0  0
 38 39  1  0  0  0  0
 39 40  1  0  0  0  0
 40 33  1  0  0  0  0
 41 42  3  0  0  0  0
 42 24  1  0  0  0  0
M  END
>  <minimizedAffinity>
-5.79319

$$$$

 OpenBabel03242519083D

 42 45  0  0  1  0  0  0  0  0999 V2000
   39.7600   31.5300   41.1650 N   0  0  0  0  0  0  0  0  0  0  0  0
   38.6400   30.6790   41.5120 C   0  0  0  0  0  0  0  0  0  0  0  0
   39.2040   30.0600   42.7590 C   0  0  2  0  0  0  0  0  0  0  0  0
   40.5680   29.6200   42.2810 C   0  0  0  0  0  0  0  0  0  0  0  0
   40.9620   30.7360   41.3450 C   0  0  0  0  0  0  0  0  0  0  0  0
   38.4900   29.9070   40.7310 H   0  0  0  0  0  0  0  0  0  0  0  0
   37.6920   31.2030   41.6610 H   0  0  0  0  0  0  0  0  0  0  0  0
   39.2360   30.8530   43.5250 H   0  0  0  0  0  0  0  0  0  0  0  0
   40.4530   28.6510   41.7630 H   0  0  0  0  0  0  0  0  0  0  0  0
   41.2460   29.5370   43.1430 H   0  0  0  0  0  0  0  0  0  0  0  0
   41.3320   30.3490   40.3740 H   0  0  0  0  0  0  0  0  0  0  0  0
   41.7520   31.3800   41.7760 H   0  0  0  0  0  0  0  0  0  0  0  0
   38.8170   35.0100   40.2240 C   0  0  0  0  0  0  0  0  0  0  0  0
   38.6720   33.7020   40.6710 C   0  0  0  0  0  0  0  0  0  0  0  0
   39.7840   32.8640   40.7330 C   0  0  0  0  0  0  0  0  0  0  0  0
   40.9780   33.4000   40.3400 N   0  0  0  0  0  0  0  0  0  0  0  0
   41.1220   34.6590   39.9100 C   0  0  0  0  0  0  0  0  0  0  0  0
   40.0420   35.4730   39.8480 N   0  0  0  0  0  0  0  0  0  0  0  0
   37.9090   35.5880   40.2070 H   0  0  0  0  0  0  0  0  0  0  0  0
   37.7430   33.2510   40.9860 H   0  0  0  0  0  0  0  0  0  0  0  0
   42.1040   35.0260   39.6100 H   0  0  0  0  0  0  0  0  0  0  0  0
   38.4980   28.8840   43.1730 N   0  0  0  0  0  0  0  0  0  0  0  0
   37.6190   29.1380   43.7080 H   0  0  0  0  0  0  0  0  0  0  0  0
   38.1630   26.7060   42.0100 C   0  0  0  0  0  0  0  0  0  0  0  0
   38.7530   27.5090   43.0030 C   0  0  0  0  0  0  0  0  0  0  0  0
   39.6230   26.8250   43.8170 C   0  0  0  0  0  0  0  0  0  0  0  0
   39.9380   25.4970   43.7380 C   0  0  0  0  0  0  0  0  0  0  0  0
   39.3400   24.7420   42.7510 C   0  0  0  0  0  0  0  0  0  0  0  0
   38.4560   25.3660   41.8990 C   0  0  0  0  0  0  0  0  0  0  0  0
   40.1180   27.3760   44.6090 H   0  0  0  0  0  0  0  0  0  0  0  0
   40.6300   25.0250   44.4090 H   0  0  0  0  0  0  0  0  0  0  0  0
   39.5600   23.6990   42.6540 H   0  0  0  0  0  0  0  0  0  0  0  0
   37.8540   24.5590   40.8890 N   0  0  0  0  0  0  0  0  0  0  0  0
   36.5450   23.9400   40.9730 C   0  0  0  0  0  3  0  0  0  0  0  0
   35.8460   24.5760   41.5870 H   0  0  0  0  0  0  0  0  0  0  0  0
   35.8750   23.8420   39.6180 C   0  0  0  0  0  3  0  0  0  0  0  0
   35.4960   24.8120   39.2810 H   0  0  0  0  0  0  0  0  0  0  0  0
   36.6500   23.2550   38.6470 O   0  0  0  0  0  0  0  0  0  0  0  0
   37.8880   22.9340   39.1670 C   0  0  0  0  0  2  0  0  0  0  0  0
   38.5150   24.2590   39.6200 C   0  0  0  0  0  2  0  0  0  0  0  0
   36.4920   27.8730   40.3940 N   0  0  0  0  0  0  0  0  0  0  0  0
   37.2340   27.3490   41.1100 C   0  0  0  0  0  0  0  0  0  0  0  0
  1  5  1  0  0  0  0
  1  2  1  0  0  0  0
  2  7  1  0  0  0  0
  2  3  1  0  0  0  0
  3 22  1  0  0  0  0
  3  8  1  1  0  0  0
  4  3  1  0  0  0  0
  4 10  1  0  0  0  0
  5 12  1  0  0  0  0
  5  4  1  0  0  0  0
  6  2  1  0  0  0  0
  9  4  1  0  0  0  0
 11  5  1  0  0  0  0
 13 14  1  0  0  0  0
 14 15  2  0  0  0  0
 14 20  1  0  0  0  0
 15  1  1  0  0  0  0
 16 15  1  0  0  0  0
 17 16  2  0  0  0  0
 18 17  1  0  0  0  0
 18 13  2  0  0  0  0
 19 13  1  0  0  0  0
 21 17  1  0  0  0  0
 22 23  1  0  0  0  0
 24 25  1  0  0  0  0
 25 22  1  0  0  0  0
 25 26  2  0  0  0  0
 26 30  1  0  0  0  0
 27 26  1  0  0  0  0
 27 31  1  0  0  0  0
 28 27  2  0  0  0  0
 29 24  2  0  0  0  0
 29 28  1  0  0  0  0
 32 28  1  0  0  0  0
 33 34  1  0  0  0  0
 33 29  1  0  0  0  0
 34 35  1  0  0  0  0
 36 34  1  0  0  0  0
 37 36  1  0  0  0  0
 38 39  1  0  0  0  0
 38 36  1  0  0  0  0
 39 40  1  0  0  0  0
 40 33  1  0  0  0  0
 41 42  3  0  0  0  0
 42 24  1  0  0  0  0
M  END
>  <minimizedAffinity>
-5.79036045

$$$$

 OpenBabel03242519083D

 42 45  0  0  1  0  0  0  0  0999 V2000
   37.9720   32.4290   39.5740 N   0  0  0  0  0  0  0  0  0  0  0  0
   37.2850   31.6030   40.5460 C   0  0  0  0  0  0  0  0  0  0  0  0
   37.3470   30.2930   39.8130 C   0  0  2  0  0  0  0  0  0  0  0  0
   36.8480   30.6940   38.4450 C   0  0  0  0  0  0  0  0  0  0  0  0
   37.4450   32.0690   38.2700 C   0  0  0  0  0  0  0  0  0  0  0  0
   36.2340   31.9350   40.6550 H   0  0  0  0  0  0  0  0  0  0  0  0
   37.7420   31.5830   41.5390 H   0  0  0  0  0  0  0  0  0  0  0  0
   38.4020   29.9680   39.8240 H   0  0  0  0  0  0  0  0  0  0  0  0
   35.7450   30.7100   38.4740 H   0  0  0  0  0  0  0  0  0  0  0  0
   37.2200   29.9780   37.6970 H   0  0  0  0  0  0  0  0  0  0  0  0
   36.6900   32.8060   37.9290 H   0  0  0  0  0  0  0  0  0  0  0  0
   38.2750   32.0710   37.5370 H   0  0  0  0  0  0  0  0  0  0  0  0
   39.8570   35.4720   40.6070 C   0  0  0  0  0  0  0  0  0  0  0  0
   38.8030   34.5720   40.5000 C   0  0  0  0  0  0  0  0  0  0  0  0
   38.9610   33.4060   39.7530 C   0  0  0  0  0  0  0  0  0  0  0  0
   40.1780   33.2200   39.1600 N   0  0  0  0  0  0  0  0  0  0  0  0
   41.1950   34.0820   39.2610 C   0  0  0  0  0  0  0  0  0  0  0  0
   41.0420   35.2160   39.9850 N   0  0  0  0  0  0  0  0  0  0  0  0
   39.6510   36.3460   41.2010 H   0  0  0  0  0  0  0  0  0  0  0  0
   37.8320   34.6940   40.9560 H   0  0  0  0  0  0  0  0  0  0  0  0
   42.1420   33.8740   38.7620 H   0  0  0  0  0  0  0  0  0  0  0  0
   36.4360   29.3160   40.3290 N   0  0  0  0  0  0  0  0  0  0  0  0
   35.4310   29.6150   40.1740 H   0  0  0  0  0  0  0  0  0  0  0  0
   36.7570   26.8450   40.3200 C   0  0  0  0  0  0  0  0  0  0  0  0
   36.6280   28.0810   40.9790 C   0  0  0  0  0  0  0  0  0  0  0  0
   36.7080   27.9840   42.3470 C   0  0  0  0  0  0  0  0  0  0  0  0
   36.8920   26.8400   43.0730 C   0  0  0  0  0  0  0  0  0  0  0  0
   37.0140   25.6470   42.3910 C   0  0  0  0  0  0  0  0  0  0  0  0
   36.9430   25.6730   41.0160 C   0  0  0  0  0  0  0  0  0  0  0  0
   36.6170   28.8960   42.9270 H   0  0  0  0  0  0  0  0  0  0  0  0
   36.9450   26.8360   44.1450 H   0  0  0  0  0  0  0  0  0  0  0  0
   37.1600   24.7290   42.9220 H   0  0  0  0  0  0  0  0  0  0  0  0
   37.0730   24.4240   40.3400 N   0  0  0  0  0  0  0  0  0  0  0  0
   38.3250   23.7980   39.9580 C   0  0  0  0  0  3  0  0  0  0  0  0
   39.1360   24.0520   40.6990 H   0  0  0  0  0  0  0  0  0  0  0  0
   38.2380   22.2860   39.9960 C   0  0  0  0  0  3  0  0  0  0  0  0
   38.2540   21.9040   41.0220 H   0  0  0  0  0  0  0  0  0  0  0  0
   37.1780   21.7640   39.2950 O   0  0  0  0  0  0  0  0  0  0  0  0
   36.4240   22.7870   38.7560 C   0  0  0  0  0  2  0  0  0  0  0  0
   35.9210   23.6170   39.9450 C   0  0  0  0  0  2  0  0  0  0  0  0
   36.6300   26.8790   37.7220 N   0  0  0  0  0  0  0  0  0  0  0  0
   36.6850   26.8580   38.8770 C   0  0  0  0  0  0  0  0  0  0  0  0
  1 15  1  0  0  0  0
  1  2  1  0  0  0  0
  2  6  1  0  0  0  0
  2  7  1  0  0  0  0
  3  8  1  6  0  0  0
  3 22  1  0  0  0  0
  3  2  1  0  0  0  0
  4  9  1  0  0  0  0
  4  3  1  0  0  0  0
  5  4  1  0  0  0  0
  5  1  1  0  0  0  0
 10  4  1  0  0  0  0
 11  5  1  0  0  0  0
 12  5  1  0  0  0  0
 13 19  1  0  0  0  0
 14 13  1  0  0  0  0
 14 20  1  0  0  0  0
 15 14  2  0  0  0  0
 16 17  2  0  0  0  0
 16 15  1  0  0  0  0
 17 18  1  0  0  0  0
 18 13  2  0  0  0  0
 21 17  1  0  0  0  0
 22 25  1  0  0  0  0
 23 22  1  0  0  0  0
 24 25  2  0  0  0  0
 24 29  1  0  0  0  0
 25 26  1  0  0  0  0
 26 30  1  0  0  0  0
 26 27  2  0  0  0  0
 27 31  1  0  0  0  0
 28 32  1  0  0  0  0
 28 27  1  0  0  0  0
 29 28  2  0  0  0  0
 33 29  1  0  0  0  0
 34 36  1  0  0  0  0
 34 33  1  0  0  0  0
 34 35  1  0  0  0  0
 36 37  1  0  0  0  0
 38 36  1  0  0  0  0
 39 38  1  0  0  0  0
 39 40  1  0  0  0  0
 40 33  1  0  0  0  0
 41 42  3  0  0  0  0
 42 24  1  0  0  0  0
M  END
>  <minimizedAffinity>
-5.7249651

$$$$

 OpenBabel03242519083D

 42 45  0  0  1  0  0  0  0  0999 V2000
   39.0640   31.5960   41.0640 N   0  0  0  0  0  0  0  0  0  0  0  0
   37.9980   30.7820   40.5170 C   0  0  0  0  0  0  0  0  0  0  0  0
   37.3670   30.3400   41.8060 C   0  0  2  0  0  0  0  0  0  0  0  0
   38.5730   29.8600   42.5780 C   0  0  0  0  0  0  0  0  0  0  0  0
   39.6370   30.8500   42.1700 C   0  0  0  0  0  0  0  0  0  0  0  0
   38.4210   29.9130   39.9750 H   0  0  0  0  0  0  0  0  0  0  0  0
   37.3170   31.3070   39.8420 H   0  0  0  0  0  0  0  0  0  0  0  0
   36.8810   31.2270   42.2470 H   0  0  0  0  0  0  0  0  0  0  0  0
   38.8020   28.8310   42.2510 H   0  0  0  0  0  0  0  0  0  0  0  0
   38.3560   29.9010   43.6560 H   0  0  0  0  0  0  0  0  0  0  0  0
   40.5750   30.3440   41.8650 H   0  0  0  0  0  0  0  0  0  0  0  0
   39.8830   31.5560   42.9860 H   0  0  0  0  0  0  0  0  0  0  0  0
   41.1830   34.4480   39.9410 C   0  0  0  0  0  0  0  0  0  0  0  0
   40.8380   33.1520   40.3050 C   0  0  0  0  0  0  0  0  0  0  0  0
   39.5270   32.8620   40.6770 C   0  0  0  0  0  0  0  0  0  0  0  0
   38.6410   33.9020   40.6570 N   0  0  0  0  0  0  0  0  0  0  0  0
   38.9670   35.1510   40.3060 C   0  0  0  0  0  0  0  0  0  0  0  0
   40.2420   35.4340   39.9460 N   0  0  0  0  0  0  0  0  0  0  0  0
   42.2150   34.5850   39.6680 H   0  0  0  0  0  0  0  0  0  0  0  0
   41.5160   32.3120   40.3320 H   0  0  0  0  0  0  0  0  0  0  0  0
   38.2120   35.9370   40.3110 H   0  0  0  0  0  0  0  0  0  0  0  0
   36.4900   29.2190   41.6480 N   0  0  0  0  0  0  0  0  0  0  0  0
   35.8850   29.0850   42.5080 H   0  0  0  0  0  0  0  0  0  0  0  0
   36.7450   26.9650   40.6160 C   0  0  0  0  0  0  0  0  0  0  0  0
   36.2970   28.2990   40.5990 C   0  0  0  0  0  0  0  0  0  0  0  0
   35.6360   28.6410   39.4440 C   0  0  0  0  0  0  0  0  0  0  0  0
   35.3970   27.8280   38.3710 C   0  0  0  0  0  0  0  0  0  0  0  0
   35.8510   26.5270   38.4250 C   0  0  0  0  0  0  0  0  0  0  0  0
   36.5220   26.1170   39.5550 C   0  0  0  0  0  0  0  0  0  0  0  0
   35.2600   29.6540   39.3550 H   0  0  0  0  0  0  0  0  0  0  0  0
   34.8720   28.1620   37.4970 H   0  0  0  0  0  0  0  0  0  0  0  0
   35.6840   25.8570   37.6070 H   0  0  0  0  0  0  0  0  0  0  0  0
   36.9790   24.7670   39.5810 N   0  0  0  0  0  0  0  0  0  0  0  0
   38.2990   24.3140   39.1830 C   0  0  0  0  0  3  0  0  0  0  0  0
   39.0700   25.1080   39.4010 H   0  0  0  0  0  0  0  0  0  0  0  0
   38.7540   23.1130   39.9850 C   0  0  0  0  0  3  0  0  0  0  0  0
   39.0550   23.3930   41.0000 H   0  0  0  0  0  0  0  0  0  0  0  0
   37.8520   22.0770   40.0100 O   0  0  0  0  0  0  0  0  0  0  0  0
   36.7160   22.4280   39.3080 C   0  0  0  0  0  2  0  0  0  0  0  0
   36.1380   23.6570   40.0230 C   0  0  0  0  0  2  0  0  0  0  0  0
   38.0180   26.1600   42.7360 N   0  0  0  0  0  0  0  0  0  0  0  0
   37.4500   26.5230   41.7960 C   0  0  0  0  0  0  0  0  0  0  0  0
  1  5  1  0  0  0  0
  2  1  1  0  0  0  0
  2  3  1  0  0  0  0
  3  8  1  1  0  0  0
  3  4  1  0  0  0  0
  4 10  1  0  0  0  0
  5  4  1  0  0  0  0
  5 12  1  0  0  0  0
  6  2  1  0  0  0  0
  7  2  1  0  0  0  0
  9  4  1  0  0  0  0
 11  5  1  0  0  0  0
 13 18  2  0  0  0  0
 13 14  1  0  0  0  0
 14 20  1  0  0  0  0
 14 15  2  0  0  0  0
 15  1  1  0  0  0  0
 16 15  1  0  0  0  0
 17 21  1  0  0  0  0
 17 16  2  0  0  0  0
 18 17  1  0  0  0  0
 19 13  1  0  0  0  0
 22  3  1  0  0  0  0
 22 23  1  0  0  0  0
 24 42  1  0  0  0  0
 25 24  1  0  0  0  0
 25 22  1  0  0  0  0
 26 25  2  0  0  0  0
 27 28  2  0  0  0  0
 27 26  1  0  0  0  0
 28 29  1  0  0  0  0
 29 33  1  0  0  0  0
 29 24  2  0  0  0  0
 30 26  1  0  0  0  0
 31 27  1  0  0  0  0
 32 28  1  0  0  0  0
 33 40  1  0  0  0  0
 34 35  1  0  0  0  0
 34 33  1  0  0  0  0
 34 36  1  0  0  0  0
 36 38  1  0  0  0  0
 36 37  1  0  0  0  0
 39 38  1  0  0  0  0
 39 40  1  0  0  0  0
 42 41  3  0  0  0  0
M  END
>  <minimizedAffinity>
-5.57056379

$$$$

 OpenBabel03242519083D

 42 45  0  0  1  0  0  0  0  0999 V2000
   37.4480   26.4920   41.7080 N   0  0  0  0  0  0  0  0  0  0  0  0
   37.5550   27.8530   41.2240 C   0  0  0  0  0  0  0  0  0  0  0  0
   38.0190   28.5080   42.4930 C   0  0  2  0  0  0  0  0  0  0  0  0
   37.0170   27.9730   43.4880 C   0  0  0  0  0  0  0  0  0  0  0  0
   36.8040   26.5580   43.0080 C   0  0  0  0  0  0  0  0  0  0  0  0
   36.5560   28.2350   40.9340 H   0  0  0  0  0  0  0  0  0  0  0  0
   38.2320   27.9880   40.3760 H   0  0  0  0  0  0  0  0  0  0  0  0
   39.0520   28.1640   42.6740 H   0  0  0  0  0  0  0  0  0  0  0  0
   36.1020   28.5870   43.4170 H   0  0  0  0  0  0  0  0  0  0  0  0
   37.4500   28.0120   44.4980 H   0  0  0  0  0  0  0  0  0  0  0  0
   35.7270   26.3060   42.9320 H   0  0  0  0  0  0  0  0  0  0  0  0
   37.2790   25.8160   43.6790 H   0  0  0  0  0  0  0  0  0  0  0  0
   37.7150   22.9240   40.6650 C   0  0  0  0  0  0  0  0  0  0  0  0
   37.2210   24.0570   41.3020 C   0  0  0  0  0  0  0  0  0  0  0  0
   37.8540   25.2860   41.1190 C   0  0  0  0  0  0  0  0  0  0  0  0
   38.9480   25.2950   40.3010 N   0  0  0  0  0  0  0  0  0  0  0  0
   39.4270   24.2080   39.6860 C   0  0  0  0  0  0  0  0  0  0  0  0
   38.8140   23.0140   39.8640 N   0  0  0  0  0  0  0  0  0  0  0  0
   37.1690   22.0180   40.8600 H   0  0  0  0  0  0  0  0  0  0  0  0
   36.3610   24.0800   41.9530 H   0  0  0  0  0  0  0  0  0  0  0  0
   40.3060   24.2830   39.0460 H   0  0  0  0  0  0  0  0  0  0  0  0
   37.8790   29.9340   42.4740 N   0  0  0  0  0  0  0  0  0  0  0  0
   37.6670   30.3080   43.4430 H   0  0  0  0  0  0  0  0  0  0  0  0
   39.1400   31.5890   41.1030 C   0  0  0  0  0  0  0  0  0  0  0  0
   37.9680   30.8880   41.4400 C   0  0  0  0  0  0  0  0  0  0  0  0
   36.8880   31.2170   40.6590 C   0  0  0  0  0  0  0  0  0  0  0  0
   36.8680   32.1240   39.6370 C   0  0  0  0  0  0  0  0  0  0  0  0
   38.0360   32.7920   39.3350 C   0  0  0  0  0  0  0  0  0  0  0  0
   39.1590   32.5100   40.0800 C   0  0  0  0  0  0  0  0  0  0  0  0
   35.9460   30.7170   40.8590 H   0  0  0  0  0  0  0  0  0  0  0  0
   35.9840   32.3330   39.0640 H   0  0  0  0  0  0  0  0  0  0  0  0
   38.0640   33.5100   38.5410 H   0  0  0  0  0  0  0  0  0  0  0  0
   40.3510   33.2160   39.7440 N   0  0  0  0  0  0  0  0  0  0  0  0
   40.8220   34.4290   40.3850 C   0  0  0  0  0  3  0  0  0  0  0  0
   40.5220   34.4440   41.4720 H   0  0  0  0  0  0  0  0  0  0  0  0
   42.3350   34.5090   40.4090 C   0  0  0  0  0  3  0  0  0  0  0  0
   42.7650   33.8360   41.1590 H   0  0  0  0  0  0  0  0  0  0  0  0
   42.9290   34.3220   39.1850 O   0  0  0  0  0  0  0  0  0  0  0  0
   41.9640   34.0640   38.2310 C   0  0  0  0  0  2  0  0  0  0  0  0
   41.2540   32.7800   38.6810 C   0  0  0  0  0  2  0  0  0  0  0  0
   41.2690   31.0740   42.5060 N   0  0  0  0  0  0  0  0  0  0  0  0
   40.3250   31.3020   41.8770 C   0  0  0  0  0  0  0  0  0  0  0  0
  1  5  1  0  0  0  0
  2  1  1  0  0  0  0
  2  3  1  0  0  0  0
  3  8  1  1  0  0  0
  3  4  1  0  0  0  0
  4 10  1  0  0  0  0
  5  4  1  0  0  0  0
  5 12  1  0  0  0  0
  6  2  1  0  0  0  0
  7  2  1  0  0  0  0
  9  4  1  0  0  0  0
 11  5  1  0  0  0  0
 13 19  1  0  0  0  0
 13 14  1  0  0  0  0
 14 20  1  0  0  0  0
 15 14  2  0  0  0  0
 15  1  1  0  0  0  0
 16 15  1  0  0  0  0
 17 18  1  0  0  0  0
 17 16  2  0  0  0  0
 18 13  2  0  0  0  0
 21 17  1  0  0  0  0
 22  3  1  0  0  0  0
 22 23  1  0  0  0  0
 24 25  1  0  0  0  0
 24 42  1  0  0  0  0
 25 22  1  0  0  0  0
 26 30  1  0  0  0  0
 26 25  2  0  0  0  0
 27 26  1  0  0  0  0
 28 27  2  0  0  0  0
 28 29  1  0  0  0  0
 29 24  2  0  0  0  0
 31 27  1  0  0  0  0
 32 28  1  0  0  0  0
 33 29  1  0  0  0  0
 33 34  1  0  0  0  0
 34 36  1  0  0  0  0
 34 35  1  0  0  0  0
 36 37  1  0  0  0  0
 38 36  1  0  0  0  0
 39 40  1  0  0  0  0
 39 38  1  0  0  0  0
 40 33  1  0  0  0  0
 42 41  3  0  0  0  0
M  END
>  <minimizedAffinity>
-5.49476814

$$$$

 OpenBabel03242519083D

 42 45  0  0  1  0  0  0  0  0999 V2000
   39.1220   31.5600   41.0510 N   0  0  0  0  0  0  0  0  0  0  0  0
   37.9900   30.8020   40.5600 C   0  0  0  0  0  0  0  0  0  0  0  0
   37.4500   30.3230   41.8780 C   0  0  2  0  0  0  0  0  0  0  0  0
   38.6990   29.7760   42.5290 C   0  0  0  0  0  0  0  0  0  0  0  0
   39.7580   30.7510   42.0750 C   0  0  0  0  0  0  0  0  0  0  0  0
   38.3390   29.9450   39.9510 H   0  0  0  0  0  0  0  0  0  0  0  0
   37.2740   31.3750   39.9650 H   0  0  0  0  0  0  0  0  0  0  0  0
   37.0300   31.2040   42.3930 H   0  0  0  0  0  0  0  0  0  0  0  0
   38.8670   28.7560   42.1420 H   0  0  0  0  0  0  0  0  0  0  0  0
   38.5700   29.7760   43.6210 H   0  0  0  0  0  0  0  0  0  0  0  0
   40.6510   30.2320   41.6740 H   0  0  0  0  0  0  0  0  0  0  0  0
   40.0910   31.4140   42.8970 H   0  0  0  0  0  0  0  0  0  0  0  0
   41.2630   34.4170   39.9810 C   0  0  0  0  0  0  0  0  0  0  0  0
   40.9110   33.1180   40.3320 C   0  0  0  0  0  0  0  0  0  0  0  0
   39.5930   32.8290   40.6800 C   0  0  0  0  0  0  0  0  0  0  0  0
   38.7090   33.8700   40.6500 N   0  0  0  0  0  0  0  0  0  0  0  0
   39.0430   35.1200   40.3120 C   0  0  0  0  0  0  0  0  0  0  0  0
   40.3240   35.4030   39.9760 N   0  0  0  0  0  0  0  0  0  0  0  0
   42.3010   34.5540   39.7280 H   0  0  0  0  0  0  0  0  0  0  0  0
   41.5870   32.2780   40.3660 H   0  0  0  0  0  0  0  0  0  0  0  0
   38.2880   35.9070   40.3090 H   0  0  0  0  0  0  0  0  0  0  0  0
   36.5270   29.2360   41.7460 N   0  0  0  0  0  0  0  0  0  0  0  0
   35.5260   29.5790   41.7990 H   0  0  0  0  0  0  0  0  0  0  0  0
   36.6340   27.1900   40.3280 C   0  0  0  0  0  0  0  0  0  0  0  0
   36.7050   27.8490   41.5690 C   0  0  0  0  0  0  0  0  0  0  0  0
   36.9700   27.0090   42.6220 C   0  0  0  0  0  0  0  0  0  0  0  0
   37.1590   25.6560   42.5570 C   0  0  0  0  0  0  0  0  0  0  0  0
   37.0820   25.0450   41.3240 C   0  0  0  0  0  0  0  0  0  0  0  0
   36.8180   25.8300   40.2230 C   0  0  0  0  0  0  0  0  0  0  0  0
   37.0410   27.4440   43.6130 H   0  0  0  0  0  0  0  0  0  0  0  0
   37.3640   25.0580   43.4240 H   0  0  0  0  0  0  0  0  0  0  0  0
   37.2230   23.9890   41.2290 H   0  0  0  0  0  0  0  0  0  0  0  0
   36.7450   25.1700   38.9620 N   0  0  0  0  0  0  0  0  0  0  0  0
   37.8630   24.9240   38.0710 C   0  0  0  0  0  3  0  0  0  0  0  0
   38.8120   24.7720   38.6610 H   0  0  0  0  0  0  0  0  0  0  0  0
   37.6940   23.6400   37.2870 C   0  0  0  0  0  3  0  0  0  0  0  0
   37.8770   22.7570   37.9090 H   0  0  0  0  0  0  0  0  0  0  0  0
   36.4930   23.5340   36.6290 O   0  0  0  0  0  0  0  0  0  0  0  0
   35.7150   24.6440   36.8950 C   0  0  0  0  0  2  0  0  0  0  0  0
   35.4920   24.6530   38.4130 C   0  0  0  0  0  2  0  0  0  0  0  0
   36.1440   28.6610   38.2390 N   0  0  0  0  0  0  0  0  0  0  0  0
   36.3590   28.0020   39.1650 C   0  0  0  0  0  0  0  0  0  0  0  0
  1  5  1  0  0  0  0
  2  1  1  0  0  0  0
  2  3  1  0  0  0  0
  3  8  1  1  0  0  0
  3  4  1  0  0  0  0
  4 10  1  0  0  0  0
  5  4  1  0  0  0  0
  5 12  1  0  0  0  0
  6  2  1  0  0  0  0
  7  2  1  0  0  0  0
  9  4  1  0  0  0  0
 11  5  1  0  0  0  0
 13 14  1  0  0  0  0
 14 20  1  0  0  0  0
 14 15  2  0  0  0  0
 15  1  1  0  0  0  0
 16 15  1  0  0  0  0
 17 16  2  0  0  0  0
 18 13  2  0  0  0  0
 18 17  1  0  0  0  0
 19 13  1  0  0  0  0
 21 17  1  0  0  0  0
 22 23  1  0  0  0  0
 22  3  1  0  0  0  0
 24 25  1  0  0  0  0
 25 22  1  0  0  0  0
 25 26  2  0  0  0  0
 26 30  1  0  0  0  0
 27 26  1  0  0  0  0
 27 31  1  0  0  0  0
 28 27  2  0  0  0  0
 29 24  2  0  0  0  0
 29 28  1  0  0  0  0
 32 28  1  0  0  0  0
 33 29  1  0  0  0  0
 34 35  1  0  0  0  0
 34 33  1  0  0  0  0
 36 37  1  0  0  0  0
 36 34  1  0  0  0  0
 38 39  1  0  0  0  0
 38 36  1  0  0  0  0
 39 40  1  0  0  0  0
 40 33  1  0  0  0  0
 41 42  3  0  0  0  0
 42 24  1  0  0  0  0
M  END
>  <minimizedAffinity>
-5.4803791

$$$$

 OpenBabel03242519083D

 42 45  0  0  1  0  0  0  0  0999 V2000
   39.9380   27.7990   43.2220 N   0  0  0  0  0  0  0  0  0  0  0  0
   39.2880   28.7040   42.2960 C   0  0  0  0  0  0  0  0  0  0  0  0
   38.0310   28.9610   43.0780 C   0  0  2  0  0  0  0  0  0  0  0  0
   37.6040   27.5540   43.4250 C   0  0  0  0  0  0  0  0  0  0  0  0
   38.9240   26.8670   43.6800 C   0  0  0  0  0  0  0  0  0  0  0  0
   39.0540   28.1800   41.3490 H   0  0  0  0  0  0  0  0  0  0  0  0
   39.8580   29.6060   42.0560 H   0  0  0  0  0  0  0  0  0  0  0  0
   38.3150   29.5690   43.9540 H   0  0  0  0  0  0  0  0  0  0  0  0
   37.0670   27.1350   42.5570 H   0  0  0  0  0  0  0  0  0  0  0  0
   36.9650   27.5780   44.3200 H   0  0  0  0  0  0  0  0  0  0  0  0
   38.9970   25.9020   43.1400 H   0  0  0  0  0  0  0  0  0  0  0  0
   39.0860   26.6660   44.7570 H   0  0  0  0  0  0  0  0  0  0  0  0
   43.1570   26.7890   44.8050 C   0  0  0  0  0  0  0  0  0  0  0  0
   41.8180   26.7310   44.4340 C   0  0  0  0  0  0  0  0  0  0  0  0
   41.2710   27.7490   43.6550 C   0  0  0  0  0  0  0  0  0  0  0  0
   42.1120   28.7650   43.2960 N   0  0  0  0  0  0  0  0  0  0  0  0
   43.4010   28.8240   43.6490 C   0  0  0  0  0  0  0  0  0  0  0  0
   43.9330   27.8360   44.4080 N   0  0  0  0  0  0  0  0  0  0  0  0
   43.4980   25.9640   45.4060 H   0  0  0  0  0  0  0  0  0  0  0  0
   41.1310   25.9440   44.7030 H   0  0  0  0  0  0  0  0  0  0  0  0
   44.0190   29.6630   43.3300 H   0  0  0  0  0  0  0  0  0  0  0  0
   36.9850   29.5390   42.2870 N   0  0  0  0  0  0  0  0  0  0  0  0
   36.0540   29.4860   42.7920 H   0  0  0  0  0  0  0  0  0  0  0  0
   36.7770   29.4420   39.8060 C   0  0  0  0  0  0  0  0  0  0  0  0
   36.9730   30.1390   41.0130 C   0  0  0  0  0  0  0  0  0  0  0  0
   37.1550   31.4900   40.8430 C   0  0  0  0  0  0  0  0  0  0  0  0
   37.1610   32.1680   39.6550 C   0  0  0  0  0  0  0  0  0  0  0  0
   36.9660   31.4500   38.4940 C   0  0  0  0  0  0  0  0  0  0  0  0
   36.7760   30.0900   38.5920 C   0  0  0  0  0  0  0  0  0  0  0  0
   37.3130   32.0960   41.7280 H   0  0  0  0  0  0  0  0  0  0  0  0
   37.3100   33.2290   39.5950 H   0  0  0  0  0  0  0  0  0  0  0  0
   36.9630   31.9430   37.5440 H   0  0  0  0  0  0  0  0  0  0  0  0
   36.5770   29.3770   37.3740 N   0  0  0  0  0  0  0  0  0  0  0  0
   35.2930   29.1050   36.7550 C   0  0  0  0  0  3  0  0  0  0  0  0
   34.5670   29.9410   36.9700 H   0  0  0  0  0  0  0  0  0  0  0  0
   35.3880   29.0650   35.2440 C   0  0  0  0  0  3  0  0  0  0  0  0
   35.4860   30.0690   34.8160 H   0  0  0  0  0  0  0  0  0  0  0  0
   36.3670   28.2300   34.7620 O   0  0  0  0  0  0  0  0  0  0  0  0
   37.0540   27.6590   35.8150 C   0  0  0  0  0  2  0  0  0  0  0  0
   37.6820   28.8220   36.5940 C   0  0  0  0  0  2  0  0  0  0  0  0
   36.4270   26.8700   39.9660 N   0  0  0  0  0  0  0  0  0  0  0  0
   36.5770   28.0150   39.8960 C   0  0  0  0  0  0  0  0  0  0  0  0
  1 15  1  0  0  0  0
  1  5  1  0  0  0  0
  2  3  1  0  0  0  0
  2  1  1  0  0  0  0
  3  4  1  0  0  0  0
  3  8  1  1  0  0  0
  4  5  1  0  0  0  0
  4 10  1  0  0  0  0
  5 12  1  0  0  0  0
  6  2  1  0  0  0  0
  7  2  1  0  0  0  0
  9  4  1  0  0  0  0
 11  5  1  0  0  0  0
 13 19  1  0  0  0  0
 14 20  1  0  0  0  0
 14 13  1  0  0  0  0
 15 14  2  0  0  0  0
 16 17  2  0  0  0  0
 16 15  1  0  0  0  0
 17 18  1  0  0  0  0
 18 13  2  0  0  0  0
 21 17  1  0  0  0  0
 22 23  1  0  0  0  0
 22  3  1  0  0  0  0
 24 42  1  0  0  0  0
 24 25  1  0  0  0  0
 25 22  1  0  0  0  0
 26 25  2  0  0  0  0
 26 30  1  0  0  0  0
 27 26  1  0  0  0  0
 28 29  1  0  0  0  0
 28 27  2  0  0  0  0
 29 24  2  0  0  0  0
 31 27  1  0  0  0  0
 32 28  1  0  0  0  0
 33 29  1  0  0  0  0
 34 35  1  0  0  0  0
 34 33  1  0  0  0  0
 36 34  1  0  0  0  0
 37 36  1  0  0  0  0
 38 36  1  0  0  0  0
 38 39  1  0  0  0  0
 39 40  1  0  0  0  0
 40 33  1  0  0  0  0
 42 41  3  0  0  0  0
M  END
>  <minimizedAffinity>
-5.47683716

$$$$

 OpenBabel03242519083D

 42 45  0  0  1  0  0  0  0  0999 V2000
   41.0610   33.6140   40.3430 N   0  0  0  0  0  0  0  0  0  0  0  0
   40.4800   32.4940   41.0550 C   0  0  0  0  0  0  0  0  0  0  0  0
   39.1060   32.5300   40.4470 C   0  0  2  0  0  0  0  0  0  0  0  0
   38.7510   33.9900   40.6030 C   0  0  0  0  0  0  0  0  0  0  0  0
   40.0720   34.6760   40.3500 C   0  0  0  0  0  0  0  0  0  0  0  0
   40.4290   32.7150   42.1390 H   0  0  0  0  0  0  0  0  0  0  0  0
   41.0020   31.5430   40.9230 H   0  0  0  0  0  0  0  0  0  0  0  0
   39.2100   32.2070   39.3970 H   0  0  0  0  0  0  0  0  0  0  0  0
   38.3810   34.1460   41.6310 H   0  0  0  0  0  0  0  0  0  0  0  0
   37.9890   34.2610   39.8560 H   0  0  0  0  0  0  0  0  0  0  0  0
   40.3010   35.4290   41.1310 H   0  0  0  0  0  0  0  0  0  0  0  0
   40.0930   35.1890   39.3690 H   0  0  0  0  0  0  0  0  0  0  0  0
   44.7150   33.9750   39.7040 C   0  0  0  0  0  0  0  0  0  0  0  0
   43.5280   33.8460   40.4170 C   0  0  0  0  0  0  0  0  0  0  0  0
   42.3180   33.7470   39.7340 C   0  0  0  0  0  0  0  0  0  0  0  0
   42.3800   33.7820   38.3690 N   0  0  0  0  0  0  0  0  0  0  0  0
   43.5190   33.9050   37.6790 C   0  0  0  0  0  0  0  0  0  0  0  0
   44.6960   34.0030   38.3420 N   0  0  0  0  0  0  0  0  0  0  0  0
   45.6030   34.0460   40.3080 H   0  0  0  0  0  0  0  0  0  0  0  0
   43.4490   33.8160   41.4930 H   0  0  0  0  0  0  0  0  0  0  0  0
   43.5000   33.9280   36.5890 H   0  0  0  0  0  0  0  0  0  0  0  0
   38.1420   31.7770   41.1920 N   0  0  0  0  0  0  0  0  0  0  0  0
   37.9820   32.2040   42.1490 H   0  0  0  0  0  0  0  0  0  0  0  0
   37.7890   29.3110   41.2440 C   0  0  0  0  0  0  0  0  0  0  0  0
   37.4000   30.6170   40.8930 C   0  0  0  0  0  0  0  0  0  0  0  0
   36.2060   30.6710   40.2180 C   0  0  0  0  0  0  0  0  0  0  0  0
   35.4120   29.6100   39.8800 C   0  0  0  0  0  0  0  0  0  0  0  0
   35.8260   28.3450   40.2410 C   0  0  0  0  0  0  0  0  0  0  0  0
   37.0160   28.2190   40.9210 C   0  0  0  0  0  0  0  0  0  0  0  0
   35.8380   31.6450   39.9130 H   0  0  0  0  0  0  0  0  0  0  0  0
   34.4860   29.7250   39.3490 H   0  0  0  0  0  0  0  0  0  0  0  0
   35.2340   27.4880   39.9960 H   0  0  0  0  0  0  0  0  0  0  0  0
   37.4170   26.8980   41.2800 N   0  0  0  0  0  0  0  0  0  0  0  0
   38.3150   26.0520   40.5180 C   0  0  0  0  0  3  0  0  0  0  0  0
   39.0810   26.6770   39.9750 H   0  0  0  0  0  0  0  0  0  0  0  0
   39.1320   25.1410   41.4100 C   0  0  0  0  0  3  0  0  0  0  0  0
   39.9320   25.6850   41.9220 H   0  0  0  0  0  0  0  0  0  0  0  0
   38.3870   24.4100   42.3040 O   0  0  0  0  0  0  0  0  0  0  0  0
   37.0520   24.7360   42.1760 C   0  0  0  0  0  2  0  0  0  0  0  0
   36.9480   26.2340   42.4950 C   0  0  0  0  0  2  0  0  0  0  0  0
   40.0380   29.0410   42.5220 N   0  0  0  0  0  0  0  0  0  0  0  0
   39.0350   29.1640   41.9580 C   0  0  0  0  0  0  0  0  0  0  0  0
  1  5  1  0  0  0  0
  1  2  1  0  0  0  0
  2  6  1  0  0  0  0
  3  8  1  6  0  0  0
  3  4  1  0  0  0  0
  3  2  1  0  0  0  0
  3 22  1  0  0  0  0
  4  9  1  0  0  0  0
  5  4  1  0  0  0  0
  5 11  1  0  0  0  0
  7  2  1  0  0  0  0
 10  4  1  0  0  0  0
 12  5  1  0  0  0  0
 13 19  1  0  0  0  0
 13 14  1  0  0  0  0
 14 20  1  0  0  0  0
 15  1  1  0  0  0  0
 15 14  2  0  0  0  0
 16 15  1  0  0  0  0
 17 18  1  0  0  0  0
 17 16  2  0  0  0  0
 18 13  2  0  0  0  0
 21 17  1  0  0  0  0
 22 23  1  0  0  0  0
 24 42  1  0  0  0  0
 25 22  1  0  0  0  0
 25 24  2  0  0  0  0
 26 25  1  0  0  0  0
 27 26  2  0  0  0  0
 27 28  1  0  0  0  0
 28 29  2  0  0  0  0
 29 24  1  0  0  0  0
 29 33  1  0  0  0  0
 30 26  1  0  0  0  0
 31 27  1  0  0  0  0
 32 28  1  0  0  0  0
 33 40  1  0  0  0  0
 34 33  1  0  0  0  0
 34 36  1  0  0  0  0
 35 34  1  0  0  0  0
 36 37  1  0  0  0  0
 36 38  1  0  0  0  0
 39 38  1  0  0  0  0
 39 40  1  0  0  0  0
 42 41  3  0  0  0  0
M  END
>  <minimizedAffinity>
-5.39141607

$$$$

 OpenBabel03242519083D

 42 45  0  0  1  0  0  0  0  0999 V2000
   37.0590   25.7750   41.1640 N   0  0  0  0  0  0  0  0  0  0  0  0
   36.8780   27.1120   40.6380 C   0  0  0  0  0  0  0  0  0  0  0  0
   37.6820   27.8660   41.6590 C   0  0  2  0  0  0  0  0  0  0  0  0
   37.1210   27.3120   42.9470 C   0  0  0  0  0  0  0  0  0  0  0  0
   36.8840   25.8610   42.6030 C   0  0  0  0  0  0  0  0  0  0  0  0
   35.8100   27.4040   40.6940 H   0  0  0  0  0  0  0  0  0  0  0  0
   37.2170   27.2530   39.6080 H   0  0  0  0  0  0  0  0  0  0  0  0
   38.7410   27.6100   41.4880 H   0  0  0  0  0  0  0  0  0  0  0  0
   36.1860   27.8530   43.1750 H   0  0  0  0  0  0  0  0  0  0  0  0
   37.8630   27.4360   43.7500 H   0  0  0  0  0  0  0  0  0  0  0  0
   35.8710   25.5270   42.9020 H   0  0  0  0  0  0  0  0  0  0  0  0
   37.6200   25.1930   43.0910 H   0  0  0  0  0  0  0  0  0  0  0  0
   38.1360   22.3020   40.3480 C   0  0  0  0  0  0  0  0  0  0  0  0
   37.8910   23.4410   41.1070 C   0  0  0  0  0  0  0  0  0  0  0  0
   37.3480   24.5720   40.5020 C   0  0  0  0  0  0  0  0  0  0  0  0
   37.0830   24.4840   39.1640 N   0  0  0  0  0  0  0  0  0  0  0  0
   37.3170   23.3910   38.4300 C   0  0  0  0  0  0  0  0  0  0  0  0
   37.8460   22.2910   39.0170 N   0  0  0  0  0  0  0  0  0  0  0  0
   38.5570   21.4740   40.8930 H   0  0  0  0  0  0  0  0  0  0  0  0
   38.0910   23.5390   42.1630 H   0  0  0  0  0  0  0  0  0  0  0  0
   37.0830   23.3850   37.3650 H   0  0  0  0  0  0  0  0  0  0  0  0
   37.4200   29.2750   41.6530 N   0  0  0  0  0  0  0  0  0  0  0  0
   37.0470   29.5960   42.5920 H   0  0  0  0  0  0  0  0  0  0  0  0
   38.5750   31.2440   40.6540 C   0  0  0  0  0  0  0  0  0  0  0  0
   37.5620   30.2680   40.6630 C   0  0  0  0  0  0  0  0  0  0  0  0
   36.6990   30.3630   39.5990 C   0  0  0  0  0  0  0  0  0  0  0  0
   36.7480   31.2840   38.5900 C   0  0  0  0  0  0  0  0  0  0  0  0
   37.7560   32.2250   38.6150 C   0  0  0  0  0  0  0  0  0  0  0  0
   38.6570   32.1870   39.6560 C   0  0  0  0  0  0  0  0  0  0  0  0
   35.8890   29.6440   39.5360 H   0  0  0  0  0  0  0  0  0  0  0  0
   36.0380   31.3010   37.7860 H   0  0  0  0  0  0  0  0  0  0  0  0
   37.8310   32.9640   37.8440 H   0  0  0  0  0  0  0  0  0  0  0  0
   39.6870   33.1730   39.6540 N   0  0  0  0  0  0  0  0  0  0  0  0
   41.0300   32.9900   39.1370 C   0  0  0  0  0  3  0  0  0  0  0  0
   41.0240   32.2710   38.2680 H   0  0  0  0  0  0  0  0  0  0  0  0
   41.5990   34.2710   38.5640 C   0  0  0  0  0  3  0  0  0  0  0  0
   41.1580   34.5120   37.5910 H   0  0  0  0  0  0  0  0  0  0  0  0
   41.5280   35.3490   39.4130 O   0  0  0  0  0  0  0  0  0  0  0  0
   40.9020   34.9790   40.5880 C   0  0  0  0  0  2  0  0  0  0  0  0
   39.4930   34.5180   40.1920 C   0  0  0  0  0  2  0  0  0  0  0  0
   40.2920   31.1800   42.6070 N   0  0  0  0  0  0  0  0  0  0  0  0
   39.5270   31.2140   41.7400 C   0  0  0  0  0  0  0  0  0  0  0  0
  1  5  1  0  0  0  0
  2  6  1  0  0  0  0
  2  1  1  0  0  0  0
  2  3  1  0  0  0  0
  3  8  1  6  0  0  0
  3  4  1  0  0  0  0
  4  9  1  0  0  0  0
  4 10  1  0  0  0  0
  5 11  1  0  0  0  0
  5  4  1  0  0  0  0
  5 12  1  0  0  0  0
  7  2  1  0  0  0  0
 13 19  1  0  0  0  0
 13 14  1  0  0  0  0
 14 20  1  0  0  0  0
 15 14  2  0  0  0  0
 15  1  1  0  0  0  0
 16 15  1  0  0  0  0
 17 18  1  0  0  0  0
 17 16  2  0  0  0  0
 18 13  2  0  0  0  0
 21 17  1  0  0  0  0
 22  3  1  0  0  0  0
 22 23  1  0  0  0  0
 24 25  1  0  0  0  0
 24 42  1  0  0  0  0
 25 22  1  0  0  0  0
 26 25  2  0  0  0  0
 27 28  2  0  0  0  0
 27 26  1  0  0  0  0
 28 29  1  0  0  0  0
 29 24  2  0  0  0  0
 30 26  1  0  0  0  0
 31 27  1  0  0  0  0
 32 28  1  0  0  0  0
 33 29  1  0  0  0  0
 33 40  1  0  0  0  0
 34 33  1  0  0  0  0
 35 34  1  0  0  0  0
 36 34  1  0  0  0  0
 36 38  1  0  0  0  0
 37 36  1  0  0  0  0
 38 39  1  0  0  0  0
 40 39  1  0  0  0  0
 42 41  3  0  0  0  0
M  END
>  <minimizedAffinity>
-5.36712408

$$$$
