
 OpenBabel03242511073D

 42 46  0  0  1  0  0  0  0  0999 V2000
   47.1350   32.6590   44.4200 C   0  0  0  0  0  0  0  0  0  0  0  0
   47.1320   31.8990   45.5800 C   0  0  0  0  0  0  0  0  0  0  0  0
   46.3500   32.1960   46.6930 C   0  0  0  0  0  0  0  0  0  0  0  0
   45.5200   33.3060   46.6650 C   0  0  0  0  0  0  0  0  0  0  0  0
   45.4960   34.0720   45.5450 C   0  0  0  0  0  0  0  0  0  0  0  0
   44.6820   35.1830   45.4810 C   0  0  0  0  0  0  0  0  0  0  0  0
   44.6030   36.0020   44.3920 C   0  0  0  0  0  0  0  0  0  0  0  0
   45.4040   35.6590   43.3080 C   0  0  0  0  0  0  0  0  0  0  0  0
   46.2240   34.5400   43.3750 C   0  0  0  0  0  0  0  0  0  0  0  0
   46.2900   33.7360   44.4690 C   0  0  0  0  0  0  0  0  0  0  0  0
   47.7340   31.0120   45.7050 H   0  0  0  0  0  0  0  0  0  0  0  0
   46.3640   31.5890   47.5880 H   0  0  0  0  0  0  0  0  0  0  0  0
   44.9210   33.5160   47.5410 H   0  0  0  0  0  0  0  0  0  0  0  0
   44.0880   35.3920   46.3460 H   0  0  0  0  0  0  0  0  0  0  0  0
   43.9260   36.8520   44.4480 H   0  0  0  0  0  0  0  0  0  0  0  0
   45.2780   36.3690   42.4810 H   0  0  0  0  0  0  0  0  0  0  0  0
   46.8870   34.4430   42.1090 N   0  0  0  0  0  0  0  0  0  0  0  0
   48.0660   34.9280   41.4320 C   0  0  0  0  0  0  0  0  0  0  0  0
   47.9170   35.6620   40.6500 H   0  0  0  0  0  0  0  0  0  0  0  0
   48.7010   33.7120   40.7440 C   0  0  0  0  0  0  0  0  0  0  0  0
   48.9520   32.9130   41.4690 H   0  0  0  0  0  0  0  0  0  0  0  0
   47.8950   33.2740   39.6980 O   0  0  0  0  0  0  0  0  0  0  0  0
   46.5830   33.7270   39.8340 C   0  0  0  0  0  0  0  0  0  0  0  0
   46.1370   33.5250   41.2330 C   0  0  0  0  0  0  0  0  0  0  0  0
   47.9650   32.2700   43.3660 N   0  0  0  0  0  0  0  0  0  0  0  0
   47.7110   33.0970   42.7990 H   0  0  0  0  0  0  0  0  0  0  0  0
   50.0020   30.9120   42.7040 C   0  0  1  0  0  0  0  0  0  0  0  0
   48.7800   30.2400   42.1100 C   0  0  0  0  0  0  0  0  0  0  0  0
   48.7280   31.0560   43.3950 C   0  0  2  0  0  0  0  0  0  0  0  0
   50.4250   31.6700   42.0180 H   0  0  0  0  0  0  0  0  0  0  0  0
   48.3390   30.6540   41.2030 H   0  0  0  0  0  0  0  0  0  0  0  0
   48.8000   29.1300   42.2150 H   0  0  0  0  0  0  0  0  0  0  0  0
   48.6560   30.5300   44.3760 H   0  0  0  0  0  0  0  0  0  0  0  0
   51.8170   28.6030   44.9740 C   0  0  0  0  0  0  0  0  0  0  0  0
   53.0870   28.5100   44.3270 C   0  0  0  0  0  0  0  0  0  0  0  0
   53.2780   29.2370   43.1240 C   0  0  0  0  0  0  0  0  0  0  0  0
   52.2770   29.9780   42.6400 N   0  0  0  0  0  0  0  0  0  0  0  0
   51.0800   30.0440   43.2790 C   0  0  0  0  0  0  0  0  0  0  0  0
   50.8450   29.3570   44.4470 N   0  0  0  0  0  0  0  0  0  0  0  0
   51.6780   28.0430   45.8960 H   0  0  0  0  0  0  0  0  0  0  0  0
   53.8800   27.9120   44.7300 H   0  0  0  0  0  0  0  0  0  0  0  0
   54.2500   29.1670   42.6280 H   0  0  0  0  0  0  0  0  0  0  0  0
  1 10  2  0  0  0  0
  1  2  1  0  0  0  0
  2 11  1  0  0  0  0
  2  3  2  0  0  0  0
  3 12  1  0  0  0  0
  4  3  1  0  0  0  0
  4 13  1  0  0  0  0
  5  4  2  0  0  0  0
  6  5  1  0  0  0  0
  6 14  1  0  0  0  0
  7 15  1  0  0  0  0
  7  6  2  0  0  0  0
  8  9  2  0  0  0  0
  8  7  1  0  0  0  0
  9 10  1  0  0  0  0
 10  5  1  0  0  0  0
 16  8  1  0  0  0  0
 17  9  1  0  0  0  0
 18 17  1  0  0  0  0
 19 18  1  0  0  0  0
 20 18  1  0  0  0  0
 20 21  1  0  0  0  0
 22 23  1  0  0  0  0
 22 20  1  0  0  0  0
 23 24  1  0  0  0  0
 24 17  1  0  0  0  0
 25 29  1  0  0  0  0
 25  1  1  0  0  0  0
 26 25  1  0  0  0  0
 27 30  1  6  0  0  0
 27 38  1  0  0  0  0
 27 29  1  0  0  0  0
 28 32  1  0  0  0  0
 28 27  1  0  0  0  0
 28 29  1  0  0  0  0
 29 33  1  1  0  0  0
 31 28  1  0  0  0  0
 34 40  1  0  0  0  0
 35 41  1  0  0  0  0
 35 34  2  0  0  0  0
 36 35  1  0  0  0  0
 37 36  2  0  0  0  0
 37 38  1  0  0  0  0
 38 39  2  0  0  0  0
 39 34  1  0  0  0  0
 42 36  1  0  0  0  0
M  END
>  <minimizedAffinity>
-5.26987553

>  <minimizedRMSD>
2.56980133

$$$$
