
     RDKit          3D

 43 47  0  0  0  0  0  0  0  0999 V2000
   45.5041   34.8316   43.5335 C   0  0  0  0  0  0  0  0  0  0  0  0
   46.2170   33.7511   44.1118 C   0  0  0  0  0  0  0  0  0  0  0  0
   46.0236   33.5231   45.4653 C   0  0  0  0  0  0  0  0  0  0  0  0
   45.1892   34.3155   46.1576 N   0  0  0  0  0  0  0  0  0  0  0  0
   44.5188   35.3416   45.5841 C   0  0  0  0  0  0  0  0  0  0  0  0
   44.6778   35.5914   44.2893 N   0  0  0  0  0  0  0  0  0  0  0  0
   46.9960   32.6794   47.5343 C   0  0  0  0  0  0  0  0  0  0  0  0
   46.6900   32.4417   46.2000 C   0  0  0  0  0  0  0  0  0  0  0  0
   47.0213   31.2255   45.6648 C   0  0  0  0  0  0  0  0  0  0  0  0
   47.6418   30.2469   46.4095 C   0  0  0  0  0  0  0  0  0  0  0  0
   48.0535   28.9938   46.0904 N   0  0  0  0  0  0  0  0  0  0  0  0
   48.6181   28.4444   47.2260 C   0  0  0  0  0  0  0  0  0  0  0  0
   48.5358   29.3767   48.2072 N   0  0  0  0  0  0  0  0  0  0  0  0
   47.9435   30.4742   47.7167 C   0  0  0  0  0  0  0  0  0  0  0  0
   47.6214   31.6930   48.2850 C   0  0  0  0  0  0  0  0  0  0  0  0
   45.6946   35.0677   42.1721 O   0  0  0  0  0  0  0  0  0  0  0  0
   44.6192   34.9233   41.2940 C   0  0  0  0  0  0  0  0  0  0  0  0
   45.0151   33.8347   40.6084 C   0  0  0  0  0  0  0  0  0  0  0  0
   43.5585   33.5925   39.3900 S   0  0  0  0  0  0  0  0  0  0  0  0
   42.7210   35.1087   40.1454 C   0  0  0  0  0  0  0  0  0  0  0  0
   43.4548   35.3941   40.9026 N   0  0  0  0  0  0  0  0  0  0  0  0
   46.8796   33.1139   43.5869 H   0  0  0  0  0  0  0  0  0  0  0  0
   43.8872   35.8947   46.2469 H   0  0  0  0  0  0  0  0  0  0  0  0
   46.7675   33.6218   48.0468 H   0  0  0  0  0  0  0  0  0  0  0  0
   46.7688   31.0783   44.6242 H   0  0  0  0  0  0  0  0  0  0  0  0
   47.9321   28.5819   45.1331 H   0  0  0  0  0  0  0  0  0  0  0  0
   49.0007   27.4509   47.1608 H   0  0  0  0  0  0  0  0  0  0  0  0
   47.8683   31.8645   49.3335 H   0  0  0  0  0  0  0  0  0  0  0  0
   45.7112   32.8558   40.2251 H   0  0  0  0  0  0  0  0  0  0  0  0
   41.4254   35.6200   39.7117 N   0  0  0  0  0  0  0  0  0  0  0  0
   40.2118   35.3964   40.4585 C   0  0  1  0  0  0  0  0  0  0  0  0
   40.2412   34.4059   40.9894 H   0  0  0  0  0  0  0  0  0  0  0  0
   39.0002   35.5421   39.6037 C   0  0  2  0  0  0  0  0  0  0  0  0
   38.6082   36.5895   39.7168 H   0  0  0  0  0  0  0  0  0  0  0  0
   39.1254   35.1584   38.2986 O   0  0  0  0  0  0  0  0  0  0  0  0
   40.2738   35.5339   37.6509 C   0  0  0  0  0  0  0  0  0  0  0  0
   41.2160   36.3752   38.5066 C   0  0  0  0  0  0  0  0  0  0  0  0
   40.1582   36.1435   41.2826 H   0  0  0  0  0  0  0  0  0  0  0  0
   38.1910   34.8947   40.0508 H   0  0  0  0  0  0  0  0  0  0  0  0
   40.7981   34.6314   37.2776 H   0  0  0  0  0  0  0  0  0  0  0  0
   40.0086   36.1674   36.7688 H   0  0  0  0  0  0  0  0  0  0  0  0
   42.1326   36.4973   37.8809 H   0  0  0  0  0  0  0  0  0  0  0  0
   40.7138   37.3220   38.7229 H   0  0  0  0  0  0  0  0  0  0  0  0
  1  2  2  0
  1  6  1  0
  2  3  1  0
  3  4  2  0
  3  8  1  0
  5  4  1  0
  6  5  2  0
  7 15  2  0
  8  7  1  0
  9  8  2  0
  9 10  1  0
 10 14  2  0
 11 10  1  0
 11 12  1  0
 12 13  2  0
 14 13  1  0
 14 15  1  0
 16  1  1  0
 17 16  1  0
 18 17  2  0
 19 20  1  0
 19 18  1  0
 20 21  2  0
 21 17  1  0
  2 22  1  0
  5 23  1  0
  7 24  1  0
  9 25  1  0
 11 26  1  0
 12 27  1  0
 15 28  1  0
 18 29  1  0
 30 31  1  0
 31 32  1  1
 31 33  1  0
 33 34  1  6
 33 35  1  0
 35 36  1  0
 36 37  1  0
 37 30  1  0
 31 38  1  0
 33 39  1  0
 36 40  1  0
 36 41  1  0
 37 42  1  0
 37 43  1  0
 20 30  1  0
M  ISO  8  22  14  23  14  24  14  25  14  26   9  27  14  28  14  29  14
M  ISO  2  32   8  34  15
M  END
>  <DihAtoms>  (1) 
18,19,29,30

>  <DihDeg>  (1) 
117.85735175316543

$$$$
