
 OpenBabel03252501173D

 20 21  0  0  0  0  0  0  0  0999 V2000
   45.2160   34.0940   45.7450 C   0  0  0  0  0  0  0  0  0  0  0  0
   45.9540   33.3610   44.7700 C   0  0  0  0  0  0  0  0  0  0  0  0
   46.6240   32.2250   45.1860 C   0  0  0  0  0  0  0  0  0  0  0  0
   46.5540   31.8550   46.4930 N   0  0  0  0  0  0  0  0  0  0  0  0
   45.8340   32.5920   47.3890 C   0  0  0  0  0  0  0  0  0  0  0  0
   45.1780   33.6900   47.0220 N   0  0  0  0  0  0  0  0  0  0  0  0
   44.6500   34.9940   45.5570 H   0  0  0  0  0  0  0  0  0  0  0  0
   45.9100   32.1320   48.3540 H   0  0  0  0  0  0  0  0  0  0  0  0
   45.8590   33.9800   43.5240 N   0  0  0  0  0  0  0  0  0  0  0  0
   46.6000   34.8580   42.6380 C   0  0  0  0  0  0  0  0  0  0  0  0
   47.6140   35.0960   42.9670 H   0  0  0  0  0  0  0  0  0  0  0  0
   46.5230   34.2880   41.2530 C   0  0  0  0  0  0  0  0  0  0  0  0
   47.2690   34.7790   40.5670 H   0  0  0  0  0  0  0  0  0  0  0  0
   45.2700   34.6180   40.7490 O   0  0  0  0  0  0  0  0  0  0  0  0
   44.2880   34.6360   41.7290 C   0  0  0  0  0  0  0  0  0  0  0  0
   44.5910   33.6540   42.8500 C   0  0  0  0  0  0  0  0  0  0  0  0
   47.3490   31.5280   44.1400 C   0  0  0  0  0  0  0  0  0  0  0  0
   48.0190   30.4350   44.7070 F   0  0  0  0  0  0  0  0  0  0  0  0
   48.3570   32.3520   43.7040 F   0  0  0  0  0  0  0  0  0  0  0  0
   46.5630   31.0240   43.1420 F   0  0  0  0  0  0  0  0  0  0  0  0
  1  6  1  0  0  0  0
  2  3  1  0  0  0  0
  2  1  2  0  0  0  0
  3  4  2  0  0  0  0
  4  5  1  0  0  0  0
  5  8  1  0  0  0  0
  6  5  2  0  0  0  0
  7  1  1  0  0  0  0
  9  2  1  0  0  0  0
 10 11  1  0  0  0  0
 10  9  1  0  0  0  0
 12 10  1  0  0  0  0
 13 12  1  0  0  0  0
 14 12  1  0  0  0  0
 14 15  1  0  0  0  0
 15 16  1  0  0  0  0
 16  9  1  0  0  0  0
 17 18  1  0  0  0  0
 17  3  1  0  0  0  0
 19 17  1  0  0  0  0
 20 17  1  0  0  0  0
M  END
>  <minimizedAffinity>
-3.46273208

>  <minimizedRMSD>
3.60734582

$$$$
