
 OpenBabel03252507373D

 37 41  0  0  0  0  0  0  0  0999 V2000
   45.6490   34.7400   43.4980 C   0  0  0  0  0  0  0  0  0  0  0  0
   46.3620   33.6730   44.1030 C   0  0  0  0  0  0  0  0  0  0  0  0
   46.1440   33.4560   45.4540 C   0  0  0  0  0  0  0  0  0  0  0  0
   45.2860   34.2460   46.1210 N   0  0  0  0  0  0  0  0  0  0  0  0
   44.6160   35.2590   45.5230 C   0  0  0  0  0  0  0  0  0  0  0  0
   44.7990   35.4960   44.2290 N   0  0  0  0  0  0  0  0  0  0  0  0
   47.0440   33.0380   43.5980 H   0  0  0  0  0  0  0  0  0  0  0  0
   43.9640   35.8110   46.1670 H   0  0  0  0  0  0  0  0  0  0  0  0
   47.0470   32.6300   47.5610 C   0  0  0  0  0  0  0  0  0  0  0  0
   46.8070   32.3910   46.2140 C   0  0  0  0  0  0  0  0  0  0  0  0
   47.1950   31.1870   45.6900 C   0  0  0  0  0  0  0  0  0  0  0  0
   47.8100   30.2220   46.4580 C   0  0  0  0  0  0  0  0  0  0  0  0
   48.2700   28.9830   46.1520 N   0  0  0  0  0  0  0  0  0  0  0  0
   48.7990   28.4430   47.3090 C   0  0  0  0  0  0  0  0  0  0  0  0
   48.6480   29.3690   48.2890 N   0  0  0  0  0  0  0  0  0  0  0  0
   48.0480   30.4510   47.7780 C   0  0  0  0  0  0  0  0  0  0  0  0
   47.6660   31.6580   48.3350 C   0  0  0  0  0  0  0  0  0  0  0  0
   46.7690   33.5630   48.0670 H   0  0  0  0  0  0  0  0  0  0  0  0
   46.9940   31.0370   44.6380 H   0  0  0  0  0  0  0  0  0  0  0  0
   48.2030   28.5720   45.1890 H   0  0  0  0  0  0  0  0  0  0  0  0
   49.2130   27.4620   47.2580 H   0  0  0  0  0  0  0  0  0  0  0  0
   47.8610   31.8300   49.3950 H   0  0  0  0  0  0  0  0  0  0  0  0
   45.8660   34.9640   42.1390 O   0  0  0  0  0  0  0  0  0  0  0  0
   44.9600   34.4530   41.2080 C   0  0  0  0  0  0  0  0  0  0  0  0
   45.8080   33.8480   40.3560 C   0  0  0  0  0  0  0  0  0  0  0  0
   44.6030   33.1230   39.0580 S   0  0  0  0  0  0  0  0  0  0  0  0
   43.1630   33.8570   40.0360 C   0  0  0  0  0  0  0  0  0  0  0  0
   43.6960   34.3360   40.8610 N   0  0  0  0  0  0  0  0  0  0  0  0
   46.8780   33.4330   39.8330 H   0  0  0  0  0  0  0  0  0  0  0  0
   41.7630   33.7150   39.6500 N   0  0  0  0  0  0  0  0  0  0  0  0
   41.3010   33.9490   38.3030 C   0  0  0  0  0  3  0  0  0  0  0  0
   41.9140   34.7450   37.7980 H   0  0  0  0  0  0  0  0  0  0  0  0
   39.8430   34.2500   38.2610 C   0  0  0  0  0  3  0  0  0  0  0  0
   39.2890   33.2960   38.0440 H   0  0  0  0  0  0  0  0  0  0  0  0
   39.3310   34.9310   39.3280 O   0  0  0  0  0  0  0  0  0  0  0  0
   39.7510   34.5390   40.5730 C   0  0  0  0  0  2  0  0  0  0  0  0
   40.7070   33.3510   40.5530 C   0  0  0  0  0  2  0  0  0  0  0  0
  1  2  2  0  0  0  0
  1  6  1  0  0  0  0
  2  3  1  0  0  0  0
  3  4  2  0  0  0  0
  3 10  1  0  0  0  0
  5  4  1  0  0  0  0
  5  8  1  0  0  0  0
  6  5  2  0  0  0  0
  7  2  1  0  0  0  0
  9 18  1  0  0  0  0
  9 17  1  0  0  0  0
 10  9  2  0  0  0  0
 11 10  1  0  0  0  0
 11 12  2  0  0  0  0
 12 16  1  0  0  0  0
 13 12  1  0  0  0  0
 13 14  1  0  0  0  0
 14 15  2  0  0  0  0
 16 15  1  0  0  0  0
 16 17  2  0  0  0  0
 17 22  1  0  0  0  0
 19 11  1  0  0  0  0
 20 13  1  0  0  0  0
 21 14  1  0  0  0  0
 23  1  1  0  0  0  0
 24 23  1  0  0  0  0
 25 24  2  0  0  0  0
 26 27  1  0  0  0  0
 26 25  1  0  0  0  0
 27 28  2  0  0  0  0
 28 24  1  0  0  0  0
 29 25  1  0  0  0  0
 30 27  1  0  0  0  0
 30 37  1  0  0  0  0
 31 30  1  0  0  0  0
 32 31  1  0  0  0  0
 33 31  1  0  0  0  0
 33 35  1  0  0  0  0
 34 33  1  0  0  0  0
 35 36  1  0  0  0  0
 37 36  1  0  0  0  0
M  END
>  <minimizedAffinity>
-6.59055853

>  <minimizedRMSD>
1.28038061

$$$$
