
 OpenBabel03252507373D

 37 41  0  0  0  0  0  0  0  0999 V2000
   45.4770   34.8370   43.5320 C   0  0  0  0  0  0  0  0  0  0  0  0
   46.1920   33.7550   44.1060 C   0  0  0  0  0  0  0  0  0  0  0  0
   46.0180   33.5350   45.4630 C   0  0  0  0  0  0  0  0  0  0  0  0
   45.1990   34.3380   46.1640 N   0  0  0  0  0  0  0  0  0  0  0  0
   44.5270   35.3650   45.5950 C   0  0  0  0  0  0  0  0  0  0  0  0
   44.6680   35.6060   44.2960 N   0  0  0  0  0  0  0  0  0  0  0  0
   46.8420   33.1100   43.5750 H   0  0  0  0  0  0  0  0  0  0  0  0
   43.9090   35.9260   46.2650 H   0  0  0  0  0  0  0  0  0  0  0  0
   47.0130   32.6950   47.5230 C   0  0  0  0  0  0  0  0  0  0  0  0
   46.6880   32.4540   46.1940 C   0  0  0  0  0  0  0  0  0  0  0  0
   47.0060   31.2340   45.6600 C   0  0  0  0  0  0  0  0  0  0  0  0
   47.6320   30.2550   46.4010 C   0  0  0  0  0  0  0  0  0  0  0  0
   48.0320   28.9990   46.0800 N   0  0  0  0  0  0  0  0  0  0  0  0
   48.6090   28.4510   47.2110 C   0  0  0  0  0  0  0  0  0  0  0  0
   48.5450   29.3880   48.1890 N   0  0  0  0  0  0  0  0  0  0  0  0
   47.9520   30.4860   47.7030 C   0  0  0  0  0  0  0  0  0  0  0  0
   47.6420   31.7090   48.2700 C   0  0  0  0  0  0  0  0  0  0  0  0
   46.7950   33.6410   48.0350 H   0  0  0  0  0  0  0  0  0  0  0  0
   46.7400   31.0830   44.6230 H   0  0  0  0  0  0  0  0  0  0  0  0
   47.8970   28.5840   45.1270 H   0  0  0  0  0  0  0  0  0  0  0  0
   48.9860   27.4550   47.1450 H   0  0  0  0  0  0  0  0  0  0  0  0
   47.9040   31.8830   49.3150 H   0  0  0  0  0  0  0  0  0  0  0  0
   45.6480   35.0650   42.1670 O   0  0  0  0  0  0  0  0  0  0  0  0
   44.6090   34.7590   41.2860 C   0  0  0  0  0  0  0  0  0  0  0  0
   45.1770   33.7620   40.5820 C   0  0  0  0  0  0  0  0  0  0  0  0
   43.7790   33.3040   39.3590 S   0  0  0  0  0  0  0  0  0  0  0  0
   42.7040   34.6490   40.1380 C   0  0  0  0  0  0  0  0  0  0  0  0
   43.3830   35.0390   40.9020 N   0  0  0  0  0  0  0  0  0  0  0  0
   46.0240   32.9170   40.1840 H   0  0  0  0  0  0  0  0  0  0  0  0
   41.3410   34.9470   39.7130 N   0  0  0  0  0  0  0  0  0  0  0  0
   40.1910   34.2680   40.2560 C   0  0  0  0  0  3  0  0  0  0  0  0
   40.4410   33.2070   40.5310 H   0  0  0  0  0  0  0  0  0  0  0  0
   39.0160   34.3520   39.3430 C   0  0  0  0  0  3  0  0  0  0  0  0
   38.3750   35.2160   39.6650 H   0  0  0  0  0  0  0  0  0  0  0  0
   39.2850   34.3580   38.0040 O   0  0  0  0  0  0  0  0  0  0  0  0
   40.3310   35.1400   37.5860 C   0  0  0  0  0  2  0  0  0  0  0  0
   41.0030   35.9210   38.7110 C   0  0  0  0  0  2  0  0  0  0  0  0
  1  2  2  0  0  0  0
  1  6  1  0  0  0  0
  2  3  1  0  0  0  0
  3  4  2  0  0  0  0
  3 10  1  0  0  0  0
  5  4  1  0  0  0  0
  5  8  1  0  0  0  0
  6  5  2  0  0  0  0
  7  2  1  0  0  0  0
  9 18  1  0  0  0  0
  9 17  1  0  0  0  0
 10  9  2  0  0  0  0
 11 10  1  0  0  0  0
 11 12  2  0  0  0  0
 12 16  1  0  0  0  0
 13 12  1  0  0  0  0
 13 14  1  0  0  0  0
 14 15  2  0  0  0  0
 16 15  1  0  0  0  0
 16 17  2  0  0  0  0
 17 22  1  0  0  0  0
 19 11  1  0  0  0  0
 20 13  1  0  0  0  0
 21 14  1  0  0  0  0
 23  1  1  0  0  0  0
 24 23  1  0  0  0  0
 25 24  2  0  0  0  0
 26 27  1  0  0  0  0
 26 25  1  0  0  0  0
 27 28  2  0  0  0  0
 28 24  1  0  0  0  0
 29 25  1  0  0  0  0
 30 27  1  0  0  0  0
 30 31  1  0  0  0  0
 31 32  1  0  0  0  0
 33 34  1  0  0  0  0
 33 31  1  0  0  0  0
 35 33  1  0  0  0  0
 36 35  1  0  0  0  0
 36 37  1  0  0  0  0
 37 30  1  0  0  0  0
M  END
>  <minimizedAffinity>
-6.72759247

>  <minimizedRMSD>
0.433993757

$$$$
