
 OpenBabel03252509123D

 31 34  0  0  1  0  0  0  0  0999 V2000
   47.3920   31.9470   43.5990 C   0  0  0  0  0  0  0  0  0  0  0  0
   48.5870   31.4630   43.0630 C   0  0  0  0  0  0  0  0  0  0  0  0
   49.4460   32.2450   42.3080 C   0  0  0  0  0  0  0  0  0  0  0  0
   49.1100   33.5840   42.0670 C   0  0  0  0  0  0  0  0  0  0  0  0
   49.6700   34.6100   41.4020 N   0  0  0  0  0  0  0  0  0  0  0  0
   48.8890   35.7020   41.4970 C   0  0  0  0  0  0  0  0  0  0  0  0
   47.8340   35.3260   42.2350 N   0  0  0  0  0  0  0  0  0  0  0  0
   47.9350   34.0380   42.6020 C   0  0  0  0  0  0  0  0  0  0  0  0
   47.0530   33.2810   43.3610 C   0  0  0  0  0  0  0  0  0  0  0  0
   46.7290   31.3320   44.1870 H   0  0  0  0  0  0  0  0  0  0  0  0
   50.5720   34.5730   40.8920 H   0  0  0  0  0  0  0  0  0  0  0  0
   49.0790   36.6720   41.0670 H   0  0  0  0  0  0  0  0  0  0  0  0
   46.1450   33.6900   43.7560 H   0  0  0  0  0  0  0  0  0  0  0  0
   48.9210   27.8410   42.6190 C   0  0  0  0  0  0  0  0  0  0  0  0
   49.6300   27.4490   43.7610 C   0  0  0  0  0  0  0  0  0  0  0  0
   49.9830   28.4430   44.6710 C   0  0  0  0  0  0  0  0  0  0  0  0
   49.6320   29.7470   44.4220 N   0  0  0  0  0  0  0  0  0  0  0  0
   48.9480   30.0700   43.3040 C   0  0  0  0  0  0  0  0  0  0  0  0
   48.5800   29.1350   42.3860 N   0  0  0  0  0  0  0  0  0  0  0  0
   48.5830   27.1760   41.8310 H   0  0  0  0  0  0  0  0  0  0  0  0
   49.8410   26.4030   43.8370 H   0  0  0  0  0  0  0  0  0  0  0  0
   50.5230   28.1350   45.5410 H   0  0  0  0  0  0  0  0  0  0  0  0
   50.9630   31.6100   41.6430 S   0  0  0  0  0  0  0  0  0  0  0  0
   52.9650   31.3470   40.1440 H   0  0  0  0  0  0  0  0  0  0  0  0
   52.3770   31.8980   39.4460 N   0  0  0  0  0  0  0  0  0  0  0  0
   51.0110   31.6110   39.8330 C   0  0  1  0  0  3  0  0  0  0  0  0
   50.5890   30.2040   39.3980 C   0  0  0  0  0  3  0  0  0  0  0  0
   50.9760   29.4330   40.0930 H   0  0  0  0  0  0  0  0  0  0  0  0
   50.9890   29.8830   38.1260 O   0  0  0  0  0  0  0  0  0  0  0  0
   51.5070   30.9050   37.3740 C   0  0  0  0  0  2  0  0  0  0  0  0
   52.6820   31.5150   38.0970 C   0  0  0  0  0  2  0  0  0  0  0  0
  1 10  1  0  0  0  0
  2 18  1  0  0  0  0
  2  1  2  0  0  0  0
  3  2  1  0  0  0  0
  4  3  2  0  0  0  0
  4  8  1  0  0  0  0
  5  6  1  0  0  0  0
  5  4  1  0  0  0  0
  6  7  2  0  0  0  0
  7  8  1  0  0  0  0
  8  9  2  0  0  0  0
  9  1  1  0  0  0  0
  9 13  1  0  0  0  0
 11  5  1  0  0  0  0
 12  6  1  0  0  0  0
 14 15  1  0  0  0  0
 15 21  1  0  0  0  0
 15 16  2  0  0  0  0
 16 22  1  0  0  0  0
 17 16  1  0  0  0  0
 18 17  2  0  0  0  0
 19 14  2  0  0  0  0
 19 18  1  0  0  0  0
 20 14  1  0  0  0  0
 23  3  1  0  0  0  0
 25 26  1  0  0  0  0
 25 24  1  0  0  0  0
 26 23  1  1  0  0  0
 27 26  1  0  0  0  0
 27 28  1  0  0  0  0
 29 27  1  0  0  0  0
 30 31  1  0  0  0  0
 30 29  1  0  0  0  0
 31 25  1  0  0  0  0
M  END
>  <minimizedAffinity>
-3.84942508

>  <minimizedRMSD>
7.93987656

$$$$
