
 OpenBabel03252509123D

 31 34  0  0  1  0  0  0  0  0999 V2000
   47.6390   32.4910   44.2290 C   0  0  0  0  0  0  0  0  0  0  0  0
   46.9400   33.5080   43.5770 C   0  0  0  0  0  0  0  0  0  0  0  0
   45.9060   34.2140   44.1730 C   0  0  0  0  0  0  0  0  0  0  0  0
   45.5400   33.9000   45.4890 C   0  0  0  0  0  0  0  0  0  0  0  0
   44.6210   34.3470   46.3630 N   0  0  0  0  0  0  0  0  0  0  0  0
   44.7130   33.6640   47.5180 C   0  0  0  0  0  0  0  0  0  0  0  0
   45.7100   32.7850   47.3370 N   0  0  0  0  0  0  0  0  0  0  0  0
   46.2400   32.9000   46.1090 C   0  0  0  0  0  0  0  0  0  0  0  0
   47.2780   32.1740   45.5410 C   0  0  0  0  0  0  0  0  0  0  0  0
   48.4440   31.9470   43.7590 H   0  0  0  0  0  0  0  0  0  0  0  0
   43.9410   35.1080   46.1800 H   0  0  0  0  0  0  0  0  0  0  0  0
   44.1080   33.8010   48.4000 H   0  0  0  0  0  0  0  0  0  0  0  0
   47.7910   31.4010   46.0740 H   0  0  0  0  0  0  0  0  0  0  0  0
   47.1330   33.4220   39.9200 C   0  0  0  0  0  0  0  0  0  0  0  0
   48.0050   34.4780   39.6260 C   0  0  0  0  0  0  0  0  0  0  0  0
   48.5150   35.2060   40.6990 C   0  0  0  0  0  0  0  0  0  0  0  0
   48.1530   34.8720   41.9800 N   0  0  0  0  0  0  0  0  0  0  0  0
   47.3090   33.8440   42.2060 C   0  0  0  0  0  0  0  0  0  0  0  0
   46.7840   33.1020   41.1920 N   0  0  0  0  0  0  0  0  0  0  0  0
   46.6640   32.7740   39.1860 H   0  0  0  0  0  0  0  0  0  0  0  0
   48.2080   34.6350   38.5870 H   0  0  0  0  0  0  0  0  0  0  0  0
   49.1810   36.0100   40.4660 H   0  0  0  0  0  0  0  0  0  0  0  0
   45.0370   35.5070   43.3270 S   0  0  0  0  0  0  0  0  0  0  0  0
   42.7990   36.5930   42.9510 H   0  0  0  0  0  0  0  0  0  0  0  0
   42.4690   35.5960   42.7700 N   0  0  0  0  0  0  0  0  0  0  0  0
   43.6600   34.9070   42.3170 C   0  0  1  0  0  3  0  0  0  0  0  0
   44.0030   35.2760   40.8700 C   0  0  0  0  0  3  0  0  0  0  0  0
   44.5180   36.2570   40.8160 H   0  0  0  0  0  0  0  0  0  0  0  0
   42.9120   35.3110   40.0410 O   0  0  0  0  0  0  0  0  0  0  0  0
   41.7400   34.8200   40.5560 C   0  0  0  0  0  2  0  0  0  0  0  0
   41.3950   35.5700   41.8190 C   0  0  0  0  0  2  0  0  0  0  0  0
  1  9  1  0  0  0  0
  2  3  1  0  0  0  0
  2  1  2  0  0  0  0
  3  4  2  0  0  0  0
  4  8  1  0  0  0  0
  4  5  1  0  0  0  0
  5  6  1  0  0  0  0
  6 12  1  0  0  0  0
  7  6  2  0  0  0  0
  8  7  1  0  0  0  0
  9 13  1  0  0  0  0
  9  8  2  0  0  0  0
 10  1  1  0  0  0  0
 11  5  1  0  0  0  0
 14 19  1  0  0  0  0
 15 14  2  0  0  0  0
 15 16  1  0  0  0  0
 16 17  2  0  0  0  0
 17 18  1  0  0  0  0
 18  2  1  0  0  0  0
 19 18  2  0  0  0  0
 20 14  1  0  0  0  0
 21 15  1  0  0  0  0
 22 16  1  0  0  0  0
 23  3  1  0  0  0  0
 25 24  1  0  0  0  0
 26 25  1  0  0  0  0
 26 23  1  1  0  0  0
 27 26  1  0  0  0  0
 28 27  1  0  0  0  0
 29 30  1  0  0  0  0
 29 27  1  0  0  0  0
 30 31  1  0  0  0  0
 31 25  1  0  0  0  0
M  END
>  <minimizedAffinity>
-5.76614618

>  <minimizedRMSD>
1.69054902

$$$$
