
 OpenBabel03252507373D

 37 41  0  0  0  0  0  0  0  0999 V2000
   45.5790   34.7970   43.4940 C   0  0  0  0  0  0  0  0  0  0  0  0
   46.2860   33.7230   44.0920 C   0  0  0  0  0  0  0  0  0  0  0  0
   46.0780   33.5090   45.4450 C   0  0  0  0  0  0  0  0  0  0  0  0
   45.2350   34.3090   46.1200 N   0  0  0  0  0  0  0  0  0  0  0  0
   44.5710   35.3280   45.5280 C   0  0  0  0  0  0  0  0  0  0  0  0
   44.7440   35.5640   44.2320 N   0  0  0  0  0  0  0  0  0  0  0  0
   46.9550   33.0810   43.5810 H   0  0  0  0  0  0  0  0  0  0  0  0
   43.9310   35.8880   46.1780 H   0  0  0  0  0  0  0  0  0  0  0  0
   47.0180   32.6840   47.5360 C   0  0  0  0  0  0  0  0  0  0  0  0
   46.7370   32.4360   46.1990 C   0  0  0  0  0  0  0  0  0  0  0  0
   47.0830   31.2190   45.6780 C   0  0  0  0  0  0  0  0  0  0  0  0
   47.6960   30.2480   46.4400 C   0  0  0  0  0  0  0  0  0  0  0  0
   48.1190   28.9950   46.1350 N   0  0  0  0  0  0  0  0  0  0  0  0
   48.6670   28.4550   47.2850 C   0  0  0  0  0  0  0  0  0  0  0  0
   48.5630   29.3940   48.2580 N   0  0  0  0  0  0  0  0  0  0  0  0
   47.9740   30.4850   47.7500 C   0  0  0  0  0  0  0  0  0  0  0  0
   47.6340   31.7060   48.3050 C   0  0  0  0  0  0  0  0  0  0  0  0
   46.7750   33.6290   48.0390 H   0  0  0  0  0  0  0  0  0  0  0  0
   46.8510   31.0630   44.6330 H   0  0  0  0  0  0  0  0  0  0  0  0
   48.0170   28.5760   45.1790 H   0  0  0  0  0  0  0  0  0  0  0  0
   49.0560   27.4640   47.2330 H   0  0  0  0  0  0  0  0  0  0  0  0
   47.8620   31.8850   49.3570 H   0  0  0  0  0  0  0  0  0  0  0  0
   45.7850   35.0190   42.1320 O   0  0  0  0  0  0  0  0  0  0  0  0
   44.8980   34.4670   41.2060 C   0  0  0  0  0  0  0  0  0  0  0  0
   45.7650   33.8520   40.3820 C   0  0  0  0  0  0  0  0  0  0  0  0
   44.5860   33.0710   39.0920 S   0  0  0  0  0  0  0  0  0  0  0  0
   43.1240   33.8090   40.0330 C   0  0  0  0  0  0  0  0  0  0  0  0
   43.6410   34.3200   40.8500 N   0  0  0  0  0  0  0  0  0  0  0  0
   46.8470   33.4400   39.8820 H   0  0  0  0  0  0  0  0  0  0  0  0
   41.7310   33.6330   39.6360 N   0  0  0  0  0  0  0  0  0  0  0  0
   41.3480   33.1970   38.3150 C   0  0  0  0  0  3  0  0  0  0  0  0
   42.0800   33.5590   37.5430 H   0  0  0  0  0  0  0  0  0  0  0  0
   39.9460   33.5810   37.9890 C   0  0  0  0  0  3  0  0  0  0  0  0
   39.2750   32.7110   38.2250 H   0  0  0  0  0  0  0  0  0  0  0  0
   39.4990   34.7580   38.5180 O   0  0  0  0  0  0  0  0  0  0  0  0
   39.8220   35.0110   39.8260 C   0  0  0  0  0  2  0  0  0  0  0  0
   40.6070   33.8880   40.4950 C   0  0  0  0  0  2  0  0  0  0  0  0
  1  2  2  0  0  0  0
  1  6  1  0  0  0  0
  2  3  1  0  0  0  0
  3  4  2  0  0  0  0
  3 10  1  0  0  0  0
  5  4  1  0  0  0  0
  5  8  1  0  0  0  0
  6  5  2  0  0  0  0
  7  2  1  0  0  0  0
  9 18  1  0  0  0  0
  9 17  1  0  0  0  0
 10  9  2  0  0  0  0
 11 10  1  0  0  0  0
 11 12  2  0  0  0  0
 12 16  1  0  0  0  0
 13 12  1  0  0  0  0
 13 14  1  0  0  0  0
 14 15  2  0  0  0  0
 16 15  1  0  0  0  0
 16 17  2  0  0  0  0
 17 22  1  0  0  0  0
 19 11  1  0  0  0  0
 20 13  1  0  0  0  0
 21 14  1  0  0  0  0
 23  1  1  0  0  0  0
 24 23  1  0  0  0  0
 25 24  2  0  0  0  0
 26 27  1  0  0  0  0
 26 25  1  0  0  0  0
 27 28  2  0  0  0  0
 28 24  1  0  0  0  0
 29 25  1  0  0  0  0
 30 27  1  0  0  0  0
 30 37  1  0  0  0  0
 31 30  1  0  0  0  0
 32 31  1  0  0  0  0
 33 34  1  0  0  0  0
 33 31  1  0  0  0  0
 33 35  1  0  0  0  0
 35 36  1  0  0  0  0
 36 37  1  0  0  0  0
M  END
>  <minimizedAffinity>
-6.56030273

>  <minimizedRMSD>
1.28600228

$$$$
