
 OpenBabel03252509123D

 31 34  0  0  1  0  0  0  0  0999 V2000
   47.5030   32.7020   44.1230 C   0  0  0  0  0  0  0  0  0  0  0  0
   46.8570   33.7290   43.4320 C   0  0  0  0  0  0  0  0  0  0  0  0
   45.8310   34.4810   43.9840 C   0  0  0  0  0  0  0  0  0  0  0  0
   45.4180   34.2060   45.2940 C   0  0  0  0  0  0  0  0  0  0  0  0
   44.4900   34.7010   46.1320 N   0  0  0  0  0  0  0  0  0  0  0  0
   44.5260   34.0390   47.3030 C   0  0  0  0  0  0  0  0  0  0  0  0
   45.4980   33.1230   47.1680 N   0  0  0  0  0  0  0  0  0  0  0  0
   46.0660   33.1960   45.9530 C   0  0  0  0  0  0  0  0  0  0  0  0
   47.0940   32.4250   45.4300 C   0  0  0  0  0  0  0  0  0  0  0  0
   48.3010   32.1220   43.6860 H   0  0  0  0  0  0  0  0  0  0  0  0
   43.8420   35.4800   45.9150 H   0  0  0  0  0  0  0  0  0  0  0  0
   43.9020   34.2140   48.1640 H   0  0  0  0  0  0  0  0  0  0  0  0
   47.5650   31.6460   45.9920 H   0  0  0  0  0  0  0  0  0  0  0  0
   47.0700   33.6370   39.7750 C   0  0  0  0  0  0  0  0  0  0  0  0
   48.0650   34.5820   39.4950 C   0  0  0  0  0  0  0  0  0  0  0  0
   48.6500   35.2380   40.5750 C   0  0  0  0  0  0  0  0  0  0  0  0
   48.2390   34.9440   41.8520 N   0  0  0  0  0  0  0  0  0  0  0  0
   47.2750   34.0240   42.0650 C   0  0  0  0  0  0  0  0  0  0  0  0
   46.6740   33.3560   41.0430 N   0  0  0  0  0  0  0  0  0  0  0  0
   46.5330   33.0530   39.0340 H   0  0  0  0  0  0  0  0  0  0  0  0
   48.2940   34.7180   38.4580 H   0  0  0  0  0  0  0  0  0  0  0  0
   49.4090   35.9570   40.3530 H   0  0  0  0  0  0  0  0  0  0  0  0
   45.0300   35.7850   43.0880 S   0  0  0  0  0  0  0  0  0  0  0  0
   45.0480   35.1070   40.6670 H   0  0  0  0  0  0  0  0  0  0  0  0
   44.0230   35.3960   40.6920 N   0  0  0  0  0  0  0  0  0  0  0  0
   43.6400   35.2150   42.0780 C   0  0  1  0  0  3  0  0  0  0  0  0
   43.4480   33.7340   42.4170 C   0  0  0  0  0  3  0  0  0  0  0  0
   44.4200   33.2320   42.5930 H   0  0  0  0  0  0  0  0  0  0  0  0
   42.7660   33.0370   41.4540 O   0  0  0  0  0  0  0  0  0  0  0  0
   42.1860   33.7810   40.4590 C   0  0  0  0  0  2  0  0  0  0  0  0
   43.2430   34.6130   39.7760 C   0  0  0  0  0  2  0  0  0  0  0  0
  1  9  1  0  0  0  0
  2  3  1  0  0  0  0
  2  1  2  0  0  0  0
  3  4  2  0  0  0  0
  4  8  1  0  0  0  0
  4  5  1  0  0  0  0
  5  6  1  0  0  0  0
  6 12  1  0  0  0  0
  7  6  2  0  0  0  0
  8  7  1  0  0  0  0
  9  8  2  0  0  0  0
  9 13  1  0  0  0  0
 10  1  1  0  0  0  0
 11  5  1  0  0  0  0
 14 19  1  0  0  0  0
 15 14  2  0  0  0  0
 15 16  1  0  0  0  0
 16 17  2  0  0  0  0
 17 18  1  0  0  0  0
 18  2  1  0  0  0  0
 19 18  2  0  0  0  0
 20 14  1  0  0  0  0
 21 15  1  0  0  0  0
 22 16  1  0  0  0  0
 23  3  1  0  0  0  0
 24 25  1  0  0  0  0
 25 26  1  0  0  0  0
 26 27  1  0  0  0  0
 26 23  1  1  0  0  0
 27 28  1  0  0  0  0
 29 27  1  0  0  0  0
 30 29  1  0  0  0  0
 31 30  1  0  0  0  0
 31 25  1  0  0  0  0
M  END
>  <minimizedAffinity>
-5.23413372

>  <minimizedRMSD>
1.84527552

$$$$
