
 OpenBabel03252507373D

 37 41  0  0  0  0  0  0  0  0999 V2000
   45.7840   34.6970   43.5380 C   0  0  0  0  0  0  0  0  0  0  0  0
   46.4930   33.6450   44.1710 C   0  0  0  0  0  0  0  0  0  0  0  0
   46.2210   33.4200   45.5110 C   0  0  0  0  0  0  0  0  0  0  0  0
   45.3170   34.1890   46.1410 N   0  0  0  0  0  0  0  0  0  0  0  0
   44.6520   35.1880   45.5160 C   0  0  0  0  0  0  0  0  0  0  0  0
   44.8860   35.4330   44.2320 N   0  0  0  0  0  0  0  0  0  0  0  0
   47.2100   33.0270   43.6960 H   0  0  0  0  0  0  0  0  0  0  0  0
   43.9600   35.7240   46.1320 H   0  0  0  0  0  0  0  0  0  0  0  0
   47.1290   32.6420   47.6340 C   0  0  0  0  0  0  0  0  0  0  0  0
   46.8740   32.3670   46.2970 C   0  0  0  0  0  0  0  0  0  0  0  0
   47.2380   31.1420   45.8060 C   0  0  0  0  0  0  0  0  0  0  0  0
   47.8440   30.1910   46.5980 C   0  0  0  0  0  0  0  0  0  0  0  0
   48.2820   28.9360   46.3250 N   0  0  0  0  0  0  0  0  0  0  0  0
   48.8130   28.4230   47.4950 C   0  0  0  0  0  0  0  0  0  0  0  0
   48.6850   29.3790   48.4470 N   0  0  0  0  0  0  0  0  0  0  0  0
   48.0970   30.4550   47.9080 C   0  0  0  0  0  0  0  0  0  0  0  0
   47.7390   31.6840   48.4320 C   0  0  0  0  0  0  0  0  0  0  0  0
   46.8700   33.5950   48.1140 H   0  0  0  0  0  0  0  0  0  0  0  0
   47.0250   30.9640   44.7610 H   0  0  0  0  0  0  0  0  0  0  0  0
   48.2000   28.4970   45.3760 H   0  0  0  0  0  0  0  0  0  0  0  0
   49.2100   27.4330   47.4690 H   0  0  0  0  0  0  0  0  0  0  0  0
   47.9460   31.8860   49.4840 H   0  0  0  0  0  0  0  0  0  0  0  0
   46.0540   34.9300   42.1900 O   0  0  0  0  0  0  0  0  0  0  0  0
   45.1230   34.5390   41.2260 C   0  0  0  0  0  0  0  0  0  0  0  0
   45.8700   33.6820   40.5050 C   0  0  0  0  0  0  0  0  0  0  0  0
   44.6250   33.1110   39.1690 S   0  0  0  0  0  0  0  0  0  0  0  0
   43.3220   34.2340   39.9520 C   0  0  0  0  0  0  0  0  0  0  0  0
   43.8920   34.6650   40.7790 N   0  0  0  0  0  0  0  0  0  0  0  0
   46.8530   32.9960   40.1150 H   0  0  0  0  0  0  0  0  0  0  0  0
   41.9560   34.3620   39.4560 N   0  0  0  0  0  0  0  0  0  0  0  0
   41.2840   33.3000   38.7490 C   0  0  0  0  0  3  0  0  0  0  0  0
   42.0120   32.6900   38.1490 H   0  0  0  0  0  0  0  0  0  0  0  0
   40.1590   33.8140   37.9180 C   0  0  0  0  0  3  0  0  0  0  0  0
   39.2080   33.7170   38.5080 H   0  0  0  0  0  0  0  0  0  0  0  0
   40.3220   35.0540   37.3700 O   0  0  0  0  0  0  0  0  0  0  0  0
   40.8620   36.0210   38.1780 C   0  0  0  0  0  2  0  0  0  0  0  0
   41.1520   35.5440   39.5990 C   0  0  0  0  0  2  0  0  0  0  0  0
  1  2  2  0  0  0  0
  1  6  1  0  0  0  0
  2  3  1  0  0  0  0
  3  4  2  0  0  0  0
  3 10  1  0  0  0  0
  5  8  1  0  0  0  0
  5  4  1  0  0  0  0
  6  5  2  0  0  0  0
  7  2  1  0  0  0  0
  9 18  1  0  0  0  0
  9 17  1  0  0  0  0
 10  9  2  0  0  0  0
 11 10  1  0  0  0  0
 11 12  2  0  0  0  0
 12 16  1  0  0  0  0
 13 12  1  0  0  0  0
 13 14  1  0  0  0  0
 14 15  2  0  0  0  0
 16 17  2  0  0  0  0
 16 15  1  0  0  0  0
 17 22  1  0  0  0  0
 19 11  1  0  0  0  0
 20 13  1  0  0  0  0
 21 14  1  0  0  0  0
 23  1  1  0  0  0  0
 24 23  1  0  0  0  0
 25 24  2  0  0  0  0
 26 27  1  0  0  0  0
 26 25  1  0  0  0  0
 27 28  2  0  0  0  0
 28 24  1  0  0  0  0
 29 25  1  0  0  0  0
 30 37  1  0  0  0  0
 30 27  1  0  0  0  0
 31 30  1  0  0  0  0
 32 31  1  0  0  0  0
 33 34  1  0  0  0  0
 33 31  1  0  0  0  0
 35 33  1  0  0  0  0
 35 36  1  0  0  0  0
 36 37  1  0  0  0  0
M  END
>  <minimizedAffinity>
-6.57165718

>  <minimizedRMSD>
0.891188323

$$$$
