
 OpenBabel03242512533D

 43 47  0  0  1  0  0  0  0  0999 V2000
   36.6720   29.8210   38.5170 N   0  0  0  0  0  0  0  0  0  0  0  0
   36.3220   29.4190   37.1520 C   0  0  0  0  0  0  0  0  0  0  0  0
   34.8570   29.1850   37.3710 C   0  0  0  0  0  0  0  0  0  0  0  0
   34.8900   28.2650   38.5790 C   0  0  0  0  0  0  0  0  0  0  0  0
   35.9890   28.8670   39.4290 C   0  0  1  0  0  0  0  0  0  0  0  0
   36.8640   28.4970   36.8640 H   0  0  0  0  0  0  0  0  0  0  0  0
   36.5280   30.2940   36.5100 H   0  0  0  0  0  0  0  0  0  0  0  0
   34.3800   30.1460   37.6170 H   0  0  0  0  0  0  0  0  0  0  0  0
   34.3890   28.6730   36.5060 H   0  0  0  0  0  0  0  0  0  0  0  0
   35.2480   27.2810   38.2680 H   0  0  0  0  0  0  0  0  0  0  0  0
   33.9200   28.2340   39.1060 H   0  0  0  0  0  0  0  0  0  0  0  0
   35.5390   29.5060   40.1350 H   0  0  0  0  0  0  0  0  0  0  0  0
   37.8920   32.8980   40.1980 C   0  0  0  0  0  0  0  0  0  0  0  0
   37.0090   31.9100   39.7850 C   0  0  0  0  0  0  0  0  0  0  0  0
   37.4740   30.8730   38.9900 C   0  0  0  0  0  0  0  0  0  0  0  0
   38.7880   30.8700   38.6470 N   0  0  0  0  0  0  0  0  0  0  0  0
   39.6500   31.8410   39.0550 C   0  0  0  0  0  0  0  0  0  0  0  0
   39.1950   32.8510   39.8300 N   0  0  0  0  0  0  0  0  0  0  0  0
   37.5310   33.7100   40.8210 H   0  0  0  0  0  0  0  0  0  0  0  0
   35.9790   31.9770   40.0660 H   0  0  0  0  0  0  0  0  0  0  0  0
   41.0100   31.7620   38.6500 N   0  0  0  0  0  0  0  0  0  0  0  0
   41.3800   30.8680   37.5750 C   0  0  0  0  0  3  0  0  0  0  0  0
   41.7550   29.8930   37.9590 H   0  0  0  0  0  0  0  0  0  0  0  0
   42.5620   31.5230   36.8800 C   0  0  0  0  0  3  0  0  0  0  0  0
   42.8370   30.9300   35.9710 H   0  0  0  0  0  0  0  0  0  0  0  0
   43.6310   31.6710   37.7290 O   0  0  0  0  0  0  0  0  0  0  0  0
   43.3300   31.7720   39.0630 C   0  0  0  0  0  2  0  0  0  0  0  0
   42.0310   32.5560   39.2910 C   0  0  0  0  0  2  0  0  0  0  0  0
   37.0090   27.9130   39.8170 C   0  0  0  0  0  0  0  0  0  0  0  0
   37.5900   27.0920   38.9060 N   0  0  0  0  0  0  0  0  0  0  0  0
   38.5390   26.1770   39.1880 C   0  0  0  0  0  0  0  0  0  0  0  0
   38.9490   26.0610   40.4630 N   0  0  0  0  0  0  0  0  0  0  0  0
   38.4120   26.8410   41.3950 C   0  0  0  0  0  0  0  0  0  0  0  0
   38.8800   26.6730   42.6930 C   0  0  0  0  0  0  0  0  0  0  0  0
   38.3140   27.4930   43.6620 C   0  0  0  0  0  0  0  0  0  0  0  0
   37.3320   28.4530   43.4320 C   0  0  0  0  0  0  0  0  0  0  0  0
   36.9320   28.5450   42.1150 C   0  0  0  0  0  0  0  0  0  0  0  0
   37.4320   27.7870   41.1160 C   0  0  0  0  0  0  0  0  0  0  0  0
   38.9490   25.5610   38.3870 H   0  0  0  0  0  0  0  0  0  0  0  0
   39.6400   25.9520   42.9610 H   0  0  0  0  0  0  0  0  0  0  0  0
   38.6990   27.3430   44.6760 H   0  0  0  0  0  0  0  0  0  0  0  0
   36.9760   29.0220   44.2630 H   0  0  0  0  0  0  0  0  0  0  0  0
   36.1570   29.2750   41.9780 H   0  0  0  0  0  0  0  0  0  0  0  0
  1 15  1  0  0  0  0
  1  5  1  0  0  0  0
  2  3  1  0  0  0  0
  2  1  1  0  0  0  0
  3  8  1  0  0  0  0
  3  4  1  0  0  0  0
  4 11  1  0  0  0  0
  4  5  1  0  0  0  0
  5 29  1  0  0  0  0
  5 12  1  1  0  0  0
  6  2  1  0  0  0  0
  7  2  1  0  0  0  0
  9  3  1  0  0  0  0
 10  4  1  0  0  0  0
 13 19  1  0  0  0  0
 14 20  1  0  0  0  0
 14 13  2  0  0  0  0
 15 14  1  0  0  0  0
 16 15  2  0  0  0  0
 16 17  1  0  0  0  0
 17 18  2  0  0  0  0
 18 13  1  0  0  0  0
 21 17  1  0  0  0  0
 21 28  1  0  0  0  0
 22 23  1  0  0  0  0
 22 21  1  0  0  0  0
 24 22  1  0  0  0  0
 24 26  1  0  0  0  0
 25 24  1  0  0  0  0
 26 27  1  0  0  0  0
 27 28  1  0  0  0  0
 29 38  1  0  0  0  0
 30 31  1  0  0  0  0
 30 29  2  0  0  0  0
 31 32  2  0  0  0  0
 32 33  1  0  0  0  0
 33 34  1  0  0  0  0
 34 40  1  0  0  0  0
 34 35  2  0  0  0  0
 35 41  1  0  0  0  0
 36 35  1  0  0  0  0
 36 42  1  0  0  0  0
 37 36  2  0  0  0  0
 38 33  2  0  0  0  0
 38 37  1  0  0  0  0
 39 31  1  0  0  0  0
 43 37  1  0  0  0  0
M  END
>  <minimizedAffinity>
-6.22071838

$$$$

 OpenBabel03242512533D

 43 47  0  0  1  0  0  0  0  0999 V2000
   36.9590   28.6970   37.7770 N   0  0  0  0  0  0  0  0  0  0  0  0
   35.9790   28.2180   36.7980 C   0  0  0  0  0  0  0  0  0  0  0  0
   34.8590   29.1510   37.1500 C   0  0  0  0  0  0  0  0  0  0  0  0
   34.7750   28.9470   38.6530 C   0  0  0  0  0  0  0  0  0  0  0  0
   36.2310   28.8630   39.0620 C   0  0  1  0  0  0  0  0  0  0  0  0
   35.7260   27.1560   36.9850 H   0  0  0  0  0  0  0  0  0  0  0  0
   36.4130   28.4210   35.8030 H   0  0  0  0  0  0  0  0  0  0  0  0
   35.1670   30.1790   36.9060 H   0  0  0  0  0  0  0  0  0  0  0  0
   33.9080   28.8520   36.6640 H   0  0  0  0  0  0  0  0  0  0  0  0
   34.3430   27.9640   38.8540 H   0  0  0  0  0  0  0  0  0  0  0  0
   34.2430   29.7720   39.1570 H   0  0  0  0  0  0  0  0  0  0  0  0
   36.5340   29.8220   39.3760 H   0  0  0  0  0  0  0  0  0  0  0  0
   40.5770   28.5090   36.9640 C   0  0  0  0  0  0  0  0  0  0  0  0
   39.2440   28.1300   37.0410 C   0  0  0  0  0  0  0  0  0  0  0  0
   38.3290   28.9790   37.6470 C   0  0  0  0  0  0  0  0  0  0  0  0
   38.7830   30.1580   38.1440 N   0  0  0  0  0  0  0  0  0  0  0  0
   40.0910   30.5260   38.0670 C   0  0  0  0  0  0  0  0  0  0  0  0
   40.9820   29.6970   37.4750 N   0  0  0  0  0  0  0  0  0  0  0  0
   41.2940   27.8480   36.4910 H   0  0  0  0  0  0  0  0  0  0  0  0
   38.9480   27.1780   36.6530 H   0  0  0  0  0  0  0  0  0  0  0  0
   40.4830   31.7780   38.6140 N   0  0  0  0  0  0  0  0  0  0  0  0
   39.5850   32.4730   39.5100 C   0  0  0  0  0  3  0  0  0  0  0  0
   38.9790   33.2390   38.9760 H   0  0  0  0  0  0  0  0  0  0  0  0
   40.4730   33.2420   40.4720 C   0  0  0  0  0  3  0  0  0  0  0  0
   39.8410   33.7250   41.2600 H   0  0  0  0  0  0  0  0  0  0  0  0
   41.2550   34.1610   39.8170 O   0  0  0  0  0  0  0  0  0  0  0  0
   41.5510   33.8750   38.5090 C   0  0  0  0  0  2  0  0  0  0  0  0
   41.7590   32.3710   38.2930 C   0  0  0  0  0  2  0  0  0  0  0  0
   36.5470   27.6790   39.8370 C   0  0  0  0  0  0  0  0  0  0  0  0
   36.3650   26.4340   39.3290 N   0  0  0  0  0  0  0  0  0  0  0  0
   36.6300   25.2880   39.9870 C   0  0  0  0  0  0  0  0  0  0  0  0
   37.1110   25.3710   41.2390 N   0  0  0  0  0  0  0  0  0  0  0  0
   37.3080   26.5680   41.7840 C   0  0  0  0  0  0  0  0  0  0  0  0
   37.8100   26.5860   43.0800 C   0  0  0  0  0  0  0  0  0  0  0  0
   38.0130   27.8400   43.6430 C   0  0  0  0  0  0  0  0  0  0  0  0
   37.7580   29.0560   43.0150 C   0  0  0  0  0  0  0  0  0  0  0  0
   37.2630   28.9350   41.7330 C   0  0  0  0  0  0  0  0  0  0  0  0
   37.0370   27.7560   41.1150 C   0  0  0  0  0  0  0  0  0  0  0  0
   36.4520   24.3310   39.4950 H   0  0  0  0  0  0  0  0  0  0  0  0
   38.0360   25.6900   43.6420 H   0  0  0  0  0  0  0  0  0  0  0  0
   38.4090   27.8300   44.6640 H   0  0  0  0  0  0  0  0  0  0  0  0
   37.9560   29.9560   43.5550 H   0  0  0  0  0  0  0  0  0  0  0  0
   37.0530   29.8900   41.2880 H   0  0  0  0  0  0  0  0  0  0  0  0
  1  5  1  0  0  0  0
  2  6  1  0  0  0  0
  2  3  1  0  0  0  0
  2  1  1  0  0  0  0
  3  4  1  0  0  0  0
  4 10  1  0  0  0  0
  4  5  1  0  0  0  0
  4 11  1  0  0  0  0
  5 12  1  1  0  0  0
  5 29  1  0  0  0  0
  7  2  1  0  0  0  0
  8  3  1  0  0  0  0
  9  3  1  0  0  0  0
 13 14  2  0  0  0  0
 13 18  1  0  0  0  0
 14 15  1  0  0  0  0
 15  1  1  0  0  0  0
 15 16  2  0  0  0  0
 17 16  1  0  0  0  0
 17 21  1  0  0  0  0
 18 17  2  0  0  0  0
 19 13  1  0  0  0  0
 20 14  1  0  0  0  0
 21 22  1  0  0  0  0
 22 24  1  0  0  0  0
 23 22  1  0  0  0  0
 24 25  1  0  0  0  0
 26 24  1  0  0  0  0
 27 26  1  0  0  0  0
 28 27  1  0  0  0  0
 28 21  1  0  0  0  0
 29 38  1  0  0  0  0
 30 29  2  0  0  0  0
 30 31  1  0  0  0  0
 31 32  2  0  0  0  0
 32 33  1  0  0  0  0
 33 34  1  0  0  0  0
 34 40  1  0  0  0  0
 34 35  2  0  0  0  0
 35 41  1  0  0  0  0
 36 42  1  0  0  0  0
 36 35  1  0  0  0  0
 37 36  2  0  0  0  0
 38 37  1  0  0  0  0
 38 33  2  0  0  0  0
 39 31  1  0  0  0  0
 43 37  1  0  0  0  0
M  END
>  <minimizedAffinity>
-6.09251451

$$$$

 OpenBabel03242512533D

 43 47  0  0  1  0  0  0  0  0999 V2000
   39.0280   31.7440   40.4070 N   0  0  0  0  0  0  0  0  0  0  0  0
   38.6700   32.4690   39.1840 C   0  0  0  0  0  0  0  0  0  0  0  0
   37.3920   33.0840   39.6700 C   0  0  0  0  0  0  0  0  0  0  0  0
   36.6720   31.8610   40.2110 C   0  0  0  0  0  0  0  0  0  0  0  0
   37.7840   31.0910   40.8920 C   0  0  1  0  0  0  0  0  0  0  0  0
   38.5140   31.7650   38.3430 H   0  0  0  0  0  0  0  0  0  0  0  0
   39.4710   33.2110   39.0200 H   0  0  0  0  0  0  0  0  0  0  0  0
   37.6280   33.7950   40.4760 H   0  0  0  0  0  0  0  0  0  0  0  0
   36.8140   33.5390   38.8400 H   0  0  0  0  0  0  0  0  0  0  0  0
   36.3400   31.2440   39.3740 H   0  0  0  0  0  0  0  0  0  0  0  0
   35.8590   32.1310   40.9080 H   0  0  0  0  0  0  0  0  0  0  0  0
   37.7750   31.3440   41.9140 H   0  0  0  0  0  0  0  0  0  0  0  0
   41.6510   31.0680   42.9450 C   0  0  0  0  0  0  0  0  0  0  0  0
   40.3870   31.1510   42.3770 C   0  0  0  0  0  0  0  0  0  0  0  0
   40.2550   31.6210   41.0790 C   0  0  0  0  0  0  0  0  0  0  0  0
   41.3810   31.9850   40.4130 N   0  0  0  0  0  0  0  0  0  0  0  0
   42.6180   31.9030   40.9740 C   0  0  0  0  0  0  0  0  0  0  0  0
   42.7450   31.4430   42.2390 N   0  0  0  0  0  0  0  0  0  0  0  0
   41.7580   30.6990   43.9590 H   0  0  0  0  0  0  0  0  0  0  0  0
   39.5330   30.8720   42.9580 H   0  0  0  0  0  0  0  0  0  0  0  0
   43.7450   32.3050   40.2070 N   0  0  0  0  0  0  0  0  0  0  0  0
   43.5440   33.0830   39.0040 C   0  0  0  0  0  3  0  0  0  0  0  0
   43.5350   32.4420   38.0940 H   0  0  0  0  0  0  0  0  0  0  0  0
   44.7690   33.9710   38.8750 C   0  0  0  0  0  3  0  0  0  0  0  0
   44.6330   34.6750   38.0150 H   0  0  0  0  0  0  0  0  0  0  0  0
   45.9200   33.2330   38.7460 O   0  0  0  0  0  0  0  0  0  0  0  0
   45.8950   31.9780   39.2990 C   0  0  0  0  0  2  0  0  0  0  0  0
   45.0870   31.9520   40.6030 C   0  0  0  0  0  2  0  0  0  0  0  0
   37.8830   29.7110   40.4570 C   0  0  0  0  0  0  0  0  0  0  0  0
   38.2510   29.3960   39.1880 N   0  0  0  0  0  0  0  0  0  0  0  0
   38.3600   28.1410   38.7080 C   0  0  0  0  0  0  0  0  0  0  0  0
   38.0890   27.1180   39.5360 N   0  0  0  0  0  0  0  0  0  0  0  0
   37.7240   27.3720   40.7890 C   0  0  0  0  0  0  0  0  0  0  0  0
   37.4590   26.2720   41.5960 C   0  0  0  0  0  0  0  0  0  0  0  0
   37.0790   26.5450   42.9040 C   0  0  0  0  0  0  0  0  0  0  0  0
   36.9470   27.8160   43.4560 C   0  0  0  0  0  0  0  0  0  0  0  0
   37.2310   28.8430   42.5790 C   0  0  0  0  0  0  0  0  0  0  0  0
   37.6060   28.6620   41.2950 C   0  0  0  0  0  0  0  0  0  0  0  0
   38.6630   27.9860   37.6730 H   0  0  0  0  0  0  0  0  0  0  0  0
   37.5360   25.2500   41.2500 H   0  0  0  0  0  0  0  0  0  0  0  0
   36.8760   25.6630   43.5200 H   0  0  0  0  0  0  0  0  0  0  0  0
   36.6470   27.8960   44.4780 H   0  0  0  0  0  0  0  0  0  0  0  0
   37.0950   29.8090   43.0290 H   0  0  0  0  0  0  0  0  0  0  0  0
  1  5  1  0  0  0  0
  1 15  1  0  0  0  0
  2  3  1  0  0  0  0
  2  1  1  0  0  0  0
  3  4  1  0  0  0  0
  3  8  1  0  0  0  0
  4  5  1  0  0  0  0
  4 11  1  0  0  0  0
  5 12  1  1  0  0  0
  6  2  1  0  0  0  0
  7  2  1  0  0  0  0
  9  3  1  0  0  0  0
 10  4  1  0  0  0  0
 13 19  1  0  0  0  0
 14 13  1  0  0  0  0
 14 20  1  0  0  0  0
 15 14  2  0  0  0  0
 16 17  2  0  0  0  0
 16 15  1  0  0  0  0
 17 18  1  0  0  0  0
 18 13  2  0  0  0  0
 21 28  1  0  0  0  0
 21 17  1  0  0  0  0
 22 21  1  0  0  0  0
 23 22  1  0  0  0  0
 24 22  1  0  0  0  0
 25 24  1  0  0  0  0
 26 24  1  0  0  0  0
 26 27  1  0  0  0  0
 27 28  1  0  0  0  0
 29  5  1  0  0  0  0
 29 38  1  0  0  0  0
 30 29  2  0  0  0  0
 31 30  1  0  0  0  0
 31 32  2  0  0  0  0
 32 33  1  0  0  0  0
 33 38  2  0  0  0  0
 33 34  1  0  0  0  0
 34 35  2  0  0  0  0
 35 36  1  0  0  0  0
 35 41  1  0  0  0  0
 36 42  1  0  0  0  0
 37 43  1  0  0  0  0
 37 36  2  0  0  0  0
 38 37  1  0  0  0  0
 39 31  1  0  0  0  0
 40 34  1  0  0  0  0
M  END
>  <minimizedAffinity>
-5.97920895

$$$$

 OpenBabel03242512533D

 43 47  0  0  1  0  0  0  0  0999 V2000
   37.6040   25.7110   41.1410 N   0  0  0  0  0  0  0  0  0  0  0  0
   36.7410   25.2720   40.0410 C   0  0  0  0  0  0  0  0  0  0  0  0
   36.3260   23.9500   40.6150 C   0  0  0  0  0  0  0  0  0  0  0  0
   37.6770   23.3520   40.9670 C   0  0  0  0  0  0  0  0  0  0  0  0
   38.4350   24.5400   41.5230 C   0  0  1  0  0  0  0  0  0  0  0  0
   37.3220   25.1690   39.1050 H   0  0  0  0  0  0  0  0  0  0  0  0
   35.9110   25.9990   39.9910 H   0  0  0  0  0  0  0  0  0  0  0  0
   35.7250   24.1310   41.5190 H   0  0  0  0  0  0  0  0  0  0  0  0
   35.8080   23.3210   39.8630 H   0  0  0  0  0  0  0  0  0  0  0  0
   38.1900   23.0660   40.0460 H   0  0  0  0  0  0  0  0  0  0  0  0
   37.5920   22.5280   41.6970 H   0  0  0  0  0  0  0  0  0  0  0  0
   38.3390   24.5220   42.5720 H   0  0  0  0  0  0  0  0  0  0  0  0
   37.5310   28.4430   43.6540 C   0  0  0  0  0  0  0  0  0  0  0  0
   37.3820   27.1720   43.1160 C   0  0  0  0  0  0  0  0  0  0  0  0
   37.7130   26.9540   41.7870 C   0  0  0  0  0  0  0  0  0  0  0  0
   38.1710   28.0060   41.0610 N   0  0  0  0  0  0  0  0  0  0  0  0
   38.3150   29.2510   41.5930 C   0  0  0  0  0  0  0  0  0  0  0  0
   37.9930   29.4610   42.8900 N   0  0  0  0  0  0  0  0  0  0  0  0
   37.2740   28.6160   44.6940 H   0  0  0  0  0  0  0  0  0  0  0  0
   36.9930   26.3860   43.7290 H   0  0  0  0  0  0  0  0  0  0  0  0
   38.8020   30.2970   40.7630 N   0  0  0  0  0  0  0  0  0  0  0  0
   38.8230   30.1140   39.3290 C   0  0  0  0  0  3  0  0  0  0  0  0
   39.8210   29.7760   38.9690 H   0  0  0  0  0  0  0  0  0  0  0  0
   38.6120   31.4950   38.7320 C   0  0  0  0  0  3  0  0  0  0  0  0
   38.5160   31.4110   37.6190 H   0  0  0  0  0  0  0  0  0  0  0  0
   39.6160   32.3600   39.0890 O   0  0  0  0  0  0  0  0  0  0  0  0
   40.2520   32.0890   40.2730 C   0  0  0  0  0  2  0  0  0  0  0  0
   39.2780   31.5390   41.3230 C   0  0  0  0  0  2  0  0  0  0  0  0
   39.7190   24.7580   40.8850 C   0  0  0  0  0  0  0  0  0  0  0  0
   39.8810   24.5840   39.5490 N   0  0  0  0  0  0  0  0  0  0  0  0
   41.0410   24.7610   38.8850 C   0  0  0  0  0  0  0  0  0  0  0  0
   42.1230   25.1390   39.5870 N   0  0  0  0  0  0  0  0  0  0  0  0
   42.0180   25.3230   40.8990 C   0  0  0  0  0  0  0  0  0  0  0  0
   43.1720   25.7150   41.5670 C   0  0  0  0  0  0  0  0  0  0  0  0
   43.0540   25.9060   42.9380 C   0  0  0  0  0  0  0  0  0  0  0  0
   41.8870   25.7380   43.6780 C   0  0  0  0  0  0  0  0  0  0  0  0
   40.7970   25.3480   42.9290 C   0  0  0  0  0  0  0  0  0  0  0  0
   40.8280   25.1420   41.5940 C   0  0  0  0  0  0  0  0  0  0  0  0
   41.0750   24.5970   37.8080 H   0  0  0  0  0  0  0  0  0  0  0  0
   44.1210   25.8690   41.0720 H   0  0  0  0  0  0  0  0  0  0  0  0
   43.9760   26.2150   43.4420 H   0  0  0  0  0  0  0  0  0  0  0  0
   41.9250   25.9160   44.7310 H   0  0  0  0  0  0  0  0  0  0  0  0
   39.9210   25.2020   43.5330 H   0  0  0  0  0  0  0  0  0  0  0  0
  1  5  1  0  0  0  0
  1 15  1  0  0  0  0
  2  3  1  0  0  0  0
  2  1  1  0  0  0  0
  3  4  1  0  0  0  0
  3  8  1  0  0  0  0
  4  5  1  0  0  0  0
  4 11  1  0  0  0  0
  5 12  1  1  0  0  0
  6  2  1  0  0  0  0
  7  2  1  0  0  0  0
  9  3  1  0  0  0  0
 10  4  1  0  0  0  0
 13 19  1  0  0  0  0
 14 13  1  0  0  0  0
 14 20  1  0  0  0  0
 15 14  2  0  0  0  0
 16 17  2  0  0  0  0
 16 15  1  0  0  0  0
 17 18  1  0  0  0  0
 18 13  2  0  0  0  0
 21 28  1  0  0  0  0
 21 17  1  0  0  0  0
 22 21  1  0  0  0  0
 23 22  1  0  0  0  0
 24 26  1  0  0  0  0
 24 22  1  0  0  0  0
 25 24  1  0  0  0  0
 26 27  1  0  0  0  0
 27 28  1  0  0  0  0
 29  5  1  0  0  0  0
 29 38  1  0  0  0  0
 30 29  2  0  0  0  0
 31 30  1  0  0  0  0
 31 32  2  0  0  0  0
 32 33  1  0  0  0  0
 33 34  2  0  0  0  0
 33 38  1  0  0  0  0
 34 35  1  0  0  0  0
 35 41  1  0  0  0  0
 35 36  2  0  0  0  0
 36 42  1  0  0  0  0
 37 43  1  0  0  0  0
 37 36  1  0  0  0  0
 38 37  2  0  0  0  0
 39 31  1  0  0  0  0
 40 34  1  0  0  0  0
M  END
>  <minimizedAffinity>
-5.9500351

$$$$

 OpenBabel03242512533D

 43 47  0  0  1  0  0  0  0  0999 V2000
   36.5710   27.3940   38.8880 N   0  0  0  0  0  0  0  0  0  0  0  0
   36.4720   26.9480   37.4950 C   0  0  0  0  0  0  0  0  0  0  0  0
   35.3970   25.9200   37.6800 C   0  0  0  0  0  0  0  0  0  0  0  0
   35.9700   25.1060   38.8260 C   0  0  0  0  0  0  0  0  0  0  0  0
   36.5640   26.1680   39.7280 C   0  0  1  0  0  0  0  0  0  0  0  0
   37.4310   26.5090   37.1560 H   0  0  0  0  0  0  0  0  0  0  0  0
   36.1360   27.8250   36.9150 H   0  0  0  0  0  0  0  0  0  0  0  0
   34.4690   26.4300   37.9810 H   0  0  0  0  0  0  0  0  0  0  0  0
   35.2750   25.2870   36.7770 H   0  0  0  0  0  0  0  0  0  0  0  0
   36.8100   24.5130   38.4570 H   0  0  0  0  0  0  0  0  0  0  0  0
   35.1980   24.5030   39.3370 H   0  0  0  0  0  0  0  0  0  0  0  0
   35.8510   26.3990   40.4680 H   0  0  0  0  0  0  0  0  0  0  0  0
   35.8960   30.5180   40.7760 C   0  0  0  0  0  0  0  0  0  0  0  0
   35.7080   29.2330   40.2880 C   0  0  0  0  0  0  0  0  0  0  0  0
   36.6580   28.6830   39.4390 C   0  0  0  0  0  0  0  0  0  0  0  0
   37.7420   29.4360   39.1190 N   0  0  0  0  0  0  0  0  0  0  0  0
   37.9210   30.6960   39.6010 C   0  0  0  0  0  0  0  0  0  0  0  0
   36.9940   31.2300   40.4290 N   0  0  0  0  0  0  0  0  0  0  0  0
   35.1550   30.9490   41.4410 H   0  0  0  0  0  0  0  0  0  0  0  0
   34.8230   28.6950   40.5550 H   0  0  0  0  0  0  0  0  0  0  0  0
   39.0840   31.4160   39.2160 N   0  0  0  0  0  0  0  0  0  0  0  0
   39.8690   30.9490   38.0940 C   0  0  0  0  0  3  0  0  0  0  0  0
   40.7330   30.3290   38.4240 H   0  0  0  0  0  0  0  0  0  0  0  0
   40.4690   32.1940   37.4620 C   0  0  0  0  0  3  0  0  0  0  0  0
   41.0100   31.9120   36.5230 H   0  0  0  0  0  0  0  0  0  0  0  0
   41.2890   32.8630   38.3370 O   0  0  0  0  0  0  0  0  0  0  0  0
   41.0100   32.6970   39.6690 C   0  0  0  0  0  2  0  0  0  0  0  0
   39.4990   32.6050   39.9220 C   0  0  0  0  0  2  0  0  0  0  0  0
   37.9530   25.9280   40.0670 C   0  0  0  0  0  0  0  0  0  0  0  0
   38.8040   25.3430   39.1850 N   0  0  0  0  0  0  0  0  0  0  0  0
   40.1040   25.0830   39.4270 C   0  0  0  0  0  0  0  0  0  0  0  0
   40.6080   25.4240   40.6250 N   0  0  0  0  0  0  0  0  0  0  0  0
   39.8170   26.0000   41.5260 C   0  0  0  0  0  0  0  0  0  0  0  0
   40.3980   26.3310   42.7440 C   0  0  0  0  0  0  0  0  0  0  0  0
   39.5650   26.9330   43.6800 C   0  0  0  0  0  0  0  0  0  0  0  0
   38.2180   27.2250   43.4890 C   0  0  0  0  0  0  0  0  0  0  0  0
   37.7320   26.8600   42.2500 C   0  0  0  0  0  0  0  0  0  0  0  0
   38.4750   26.2720   41.2880 C   0  0  0  0  0  0  0  0  0  0  0  0
   40.7110   24.6090   38.6550 H   0  0  0  0  0  0  0  0  0  0  0  0
   41.4370   26.1400   42.9780 H   0  0  0  0  0  0  0  0  0  0  0  0
   40.0460   27.1840   44.6310 H   0  0  0  0  0  0  0  0  0  0  0  0
   37.6830   27.6910   44.2870 H   0  0  0  0  0  0  0  0  0  0  0  0
   36.6850   27.0760   42.1470 H   0  0  0  0  0  0  0  0  0  0  0  0
  1 15  1  0  0  0  0
  1  5  1  0  0  0  0
  2  3  1  0  0  0  0
  2  1  1  0  0  0  0
  3  8  1  0  0  0  0
  3  4  1  0  0  0  0
  4 11  1  0  0  0  0
  4  5  1  0  0  0  0
  5 29  1  0  0  0  0
  5 12  1  1  0  0  0
  6  2  1  0  0  0  0
  7  2  1  0  0  0  0
  9  3  1  0  0  0  0
 10  4  1  0  0  0  0
 13 19  1  0  0  0  0
 14 20  1  0  0  0  0
 14 13  2  0  0  0  0
 15 14  1  0  0  0  0
 16 15  2  0  0  0  0
 16 17  1  0  0  0  0
 17 18  2  0  0  0  0
 18 13  1  0  0  0  0
 21 17  1  0  0  0  0
 21 28  1  0  0  0  0
 22 23  1  0  0  0  0
 22 21  1  0  0  0  0
 24 22  1  0  0  0  0
 24 26  1  0  0  0  0
 25 24  1  0  0  0  0
 26 27  1  0  0  0  0
 27 28  1  0  0  0  0
 29 38  1  0  0  0  0
 30 31  1  0  0  0  0
 30 29  2  0  0  0  0
 31 32  2  0  0  0  0
 32 33  1  0  0  0  0
 33 34  1  0  0  0  0
 34 40  1  0  0  0  0
 34 35  2  0  0  0  0
 35 41  1  0  0  0  0
 36 35  1  0  0  0  0
 36 42  1  0  0  0  0
 37 36  2  0  0  0  0
 38 33  2  0  0  0  0
 38 37  1  0  0  0  0
 39 31  1  0  0  0  0
 43 37  1  0  0  0  0
M  END
>  <minimizedAffinity>
-5.90666294

$$$$

 OpenBabel03242512533D

 43 47  0  0  1  0  0  0  0  0999 V2000
   37.5990   27.8680   40.5240 N   0  0  0  0  0  0  0  0  0  0  0  0
   38.0850   26.7050   41.2710 C   0  0  0  0  0  0  0  0  0  0  0  0
   36.9590   26.6030   42.2560 C   0  0  0  0  0  0  0  0  0  0  0  0
   36.9050   28.0270   42.7810 C   0  0  0  0  0  0  0  0  0  0  0  0
   37.1270   28.8530   41.5310 C   0  0  1  0  0  0  0  0  0  0  0  0
   39.0570   26.9280   41.7530 H   0  0  0  0  0  0  0  0  0  0  0  0
   38.1080   25.8660   40.5530 H   0  0  0  0  0  0  0  0  0  0  0  0
   36.0370   26.3450   41.7120 H   0  0  0  0  0  0  0  0  0  0  0  0
   37.1950   25.8950   43.0770 H   0  0  0  0  0  0  0  0  0  0  0  0
   37.7720   28.2030   43.4220 H   0  0  0  0  0  0  0  0  0  0  0  0
   35.9430   28.2550   43.2710 H   0  0  0  0  0  0  0  0  0  0  0  0
   36.1830   29.1320   41.1560 H   0  0  0  0  0  0  0  0  0  0  0  0
   38.4750   28.5450   36.9800 C   0  0  0  0  0  0  0  0  0  0  0  0
   38.6500   28.3090   38.3360 C   0  0  0  0  0  0  0  0  0  0  0  0
   37.5380   28.1160   39.1420 C   0  0  0  0  0  0  0  0  0  0  0  0
   36.3110   28.1680   38.5620 N   0  0  0  0  0  0  0  0  0  0  0  0
   36.1440   28.4010   37.2310 C   0  0  0  0  0  0  0  0  0  0  0  0
   37.2300   28.5870   36.4470 N   0  0  0  0  0  0  0  0  0  0  0  0
   39.3430   28.6950   36.3480 H   0  0  0  0  0  0  0  0  0  0  0  0
   39.6400   28.3030   38.7430 H   0  0  0  0  0  0  0  0  0  0  0  0
   34.8250   28.4390   36.7040 N   0  0  0  0  0  0  0  0  0  0  0  0
   33.7030   28.5600   37.6090 C   0  0  0  0  0  3  0  0  0  0  0  0
   33.2530   27.5690   37.8440 H   0  0  0  0  0  0  0  0  0  0  0  0
   32.6370   29.3290   36.8470 C   0  0  0  0  0  3  0  0  0  0  0  0
   31.7740   29.5470   37.5260 H   0  0  0  0  0  0  0  0  0  0  0  0
   32.2350   28.6570   35.7190 O   0  0  0  0  0  0  0  0  0  0  0  0
   33.1560   27.8040   35.1670 C   0  0  0  0  0  2  0  0  0  0  0  0
   34.5810   28.3600   35.2840 C   0  0  0  0  0  2  0  0  0  0  0  0
   38.2040   29.8160   41.6570 C   0  0  0  0  0  0  0  0  0  0  0  0
   39.3200   29.5360   42.3770 N   0  0  0  0  0  0  0  0  0  0  0  0
   40.3590   30.3780   42.5450 C   0  0  0  0  0  0  0  0  0  0  0  0
   40.2970   31.5870   41.9620 N   0  0  0  0  0  0  0  0  0  0  0  0
   39.2250   31.9130   41.2460 C   0  0  0  0  0  0  0  0  0  0  0  0
   39.2230   33.1760   40.6660 C   0  0  0  0  0  0  0  0  0  0  0  0
   38.1000   33.5080   39.9190 C   0  0  0  0  0  0  0  0  0  0  0  0
   36.9980   32.6840   39.7110 C   0  0  0  0  0  0  0  0  0  0  0  0
   37.0920   31.4520   40.3250 C   0  0  0  0  0  0  0  0  0  0  0  0
   38.1480   31.0530   41.0660 C   0  0  0  0  0  0  0  0  0  0  0  0
   41.2160   30.0640   43.1420 H   0  0  0  0  0  0  0  0  0  0  0  0
   40.0360   33.8810   40.7760 H   0  0  0  0  0  0  0  0  0  0  0  0
   38.1210   34.5080   39.4720 H   0  0  0  0  0  0  0  0  0  0  0  0
   36.1930   33.0550   39.1150 H   0  0  0  0  0  0  0  0  0  0  0  0
   36.2160   30.8520   40.1650 H   0  0  0  0  0  0  0  0  0  0  0  0
  1  2  1  0  0  0  0
  1  5  1  0  0  0  0
  2  6  1  0  0  0  0
  2  3  1  0  0  0  0
  3  4  1  0  0  0  0
  3  9  1  0  0  0  0
  4 11  1  0  0  0  0
  4 10  1  0  0  0  0
  5 12  1  6  0  0  0
  5 29  1  0  0  0  0
  5  4  1  0  0  0  0
  7  2  1  0  0  0  0
  8  3  1  0  0  0  0
 13 14  1  0  0  0  0
 14 20  1  0  0  0  0
 14 15  2  0  0  0  0
 15  1  1  0  0  0  0
 16 15  1  0  0  0  0
 17 16  2  0  0  0  0
 18 13  2  0  0  0  0
 18 17  1  0  0  0  0
 19 13  1  0  0  0  0
 21 17  1  0  0  0  0
 21 22  1  0  0  0  0
 22 23  1  0  0  0  0
 24 25  1  0  0  0  0
 24 22  1  0  0  0  0
 26 24  1  0  0  0  0
 27 28  1  0  0  0  0
 27 26  1  0  0  0  0
 28 21  1  0  0  0  0
 29 30  1  0  0  0  0
 30 31  2  0  0  0  0
 31 39  1  0  0  0  0
 32 31  1  0  0  0  0
 33 32  2  0  0  0  0
 34 40  1  0  0  0  0
 34 33  1  0  0  0  0
 35 34  2  0  0  0  0
 36 35  1  0  0  0  0
 36 37  2  0  0  0  0
 37 38  1  0  0  0  0
 38 33  1  0  0  0  0
 38 29  2  0  0  0  0
 41 35  1  0  0  0  0
 42 36  1  0  0  0  0
 43 37  1  0  0  0  0
M  END
>  <minimizedAffinity>
-5.8514595

$$$$

 OpenBabel03242512533D

 43 47  0  0  1  0  0  0  0  0999 V2000
   36.8160   28.0650   41.5280 N   0  0  0  0  0  0  0  0  0  0  0  0
   37.2680   26.9160   42.3180 C   0  0  0  0  0  0  0  0  0  0  0  0
   36.9230   27.4470   43.6770 C   0  0  0  0  0  0  0  0  0  0  0  0
   37.5980   28.8060   43.6350 C   0  0  0  0  0  0  0  0  0  0  0  0
   37.3100   29.2800   42.2260 C   0  0  1  0  0  0  0  0  0  0  0  0
   38.3560   26.7530   42.1850 H   0  0  0  0  0  0  0  0  0  0  0  0
   36.6340   26.0640   42.0140 H   0  0  0  0  0  0  0  0  0  0  0  0
   35.8290   27.5480   43.7480 H   0  0  0  0  0  0  0  0  0  0  0  0
   37.3580   26.8220   44.4840 H   0  0  0  0  0  0  0  0  0  0  0  0
   38.6800   28.6690   43.6970 H   0  0  0  0  0  0  0  0  0  0  0  0
   37.1970   29.4940   44.4010 H   0  0  0  0  0  0  0  0  0  0  0  0
   36.4530   29.8910   42.2590 H   0  0  0  0  0  0  0  0  0  0  0  0
   34.4020   29.0490   38.8850 C   0  0  0  0  0  0  0  0  0  0  0  0
   35.0820   29.0760   40.0940 C   0  0  0  0  0  0  0  0  0  0  0  0
   36.0660   28.1290   40.3430 C   0  0  0  0  0  0  0  0  0  0  0  0
   36.3220   27.2060   39.3800 N   0  0  0  0  0  0  0  0  0  0  0  0
   35.6520   27.1830   38.1960 C   0  0  0  0  0  0  0  0  0  0  0  0
   34.6940   28.1080   37.9550 N   0  0  0  0  0  0  0  0  0  0  0  0
   33.6340   29.7880   38.6880 H   0  0  0  0  0  0  0  0  0  0  0  0
   34.8210   29.8120   40.8260 H   0  0  0  0  0  0  0  0  0  0  0  0
   35.9820   26.1830   37.2420 N   0  0  0  0  0  0  0  0  0  0  0  0
   36.7630   25.0380   37.6570 C   0  0  0  0  0  3  0  0  0  0  0  0
   37.8460   25.1740   37.4370 H   0  0  0  0  0  0  0  0  0  0  0  0
   36.3030   23.8840   36.7810 C   0  0  0  0  0  3  0  0  0  0  0  0
   36.7980   22.9380   37.1190 H   0  0  0  0  0  0  0  0  0  0  0  0
   36.5390   24.1310   35.4510 O   0  0  0  0  0  0  0  0  0  0  0  0
   36.5760   25.4510   35.0820 C   0  0  0  0  0  2  0  0  0  0  0  0
   35.5550   26.2860   35.8670 C   0  0  0  0  0  2  0  0  0  0  0  0
   38.4970   29.6840   41.4970 C   0  0  0  0  0  0  0  0  0  0  0  0
   39.6230   28.9250   41.5070 N   0  0  0  0  0  0  0  0  0  0  0  0
   40.7650   29.2340   40.8610 C   0  0  0  0  0  0  0  0  0  0  0  0
   40.8040   30.3740   40.1510 N   0  0  0  0  0  0  0  0  0  0  0  0
   39.7280   31.1540   40.1080 C   0  0  0  0  0  0  0  0  0  0  0  0
   39.8320   32.3180   39.3550 C   0  0  0  0  0  0  0  0  0  0  0  0
   38.7040   33.1280   39.3160 C   0  0  0  0  0  0  0  0  0  0  0  0
   37.4990   32.8630   39.9620 C   0  0  0  0  0  0  0  0  0  0  0  0
   37.4930   31.6870   40.6830 C   0  0  0  0  0  0  0  0  0  0  0  0
   38.5460   30.8460   40.7710 C   0  0  0  0  0  0  0  0  0  0  0  0
   41.6200   28.5600   40.9260 H   0  0  0  0  0  0  0  0  0  0  0  0
   40.7290   32.6010   38.8220 H   0  0  0  0  0  0  0  0  0  0  0  0
   38.8100   34.0380   38.7160 H   0  0  0  0  0  0  0  0  0  0  0  0
   36.7020   33.5660   39.8540 H   0  0  0  0  0  0  0  0  0  0  0  0
   36.5590   31.5270   41.1880 H   0  0  0  0  0  0  0  0  0  0  0  0
  1  5  1  0  0  0  0
  1  2  1  0  0  0  0
  2  3  1  0  0  0  0
  3  8  1  0  0  0  0
  3  9  1  0  0  0  0
  4  3  1  0  0  0  0
  4 10  1  0  0  0  0
  4 11  1  0  0  0  0
  5 12  1  6  0  0  0
  5  4  1  0  0  0  0
  6  2  1  0  0  0  0
  7  2  1  0  0  0  0
 13 14  1  0  0  0  0
 14 15  2  0  0  0  0
 14 20  1  0  0  0  0
 15  1  1  0  0  0  0
 16 15  1  0  0  0  0
 17 16  2  0  0  0  0
 18 17  1  0  0  0  0
 18 13  2  0  0  0  0
 19 13  1  0  0  0  0
 21 22  1  0  0  0  0
 21 17  1  0  0  0  0
 23 22  1  0  0  0  0
 24 25  1  0  0  0  0
 24 22  1  0  0  0  0
 26 24  1  0  0  0  0
 27 26  1  0  0  0  0
 27 28  1  0  0  0  0
 28 21  1  0  0  0  0
 29 30  1  0  0  0  0
 29  5  1  0  0  0  0
 31 39  1  0  0  0  0
 31 30  2  0  0  0  0
 32 31  1  0  0  0  0
 33 32  2  0  0  0  0
 33 38  1  0  0  0  0
 34 33  1  0  0  0  0
 35 34  2  0  0  0  0
 35 36  1  0  0  0  0
 36 37  2  0  0  0  0
 37 38  1  0  0  0  0
 37 43  1  0  0  0  0
 38 29  2  0  0  0  0
 40 34  1  0  0  0  0
 41 35  1  0  0  0  0
 42 36  1  0  0  0  0
M  END
>  <minimizedAffinity>
-5.78620291

$$$$

 OpenBabel03242512533D

 43 47  0  0  1  0  0  0  0  0999 V2000
   36.7510   29.7280   38.7850 N   0  0  0  0  0  0  0  0  0  0  0  0
   36.5130   29.4870   37.3590 C   0  0  0  0  0  0  0  0  0  0  0  0
   35.0250   29.3100   37.4210 C   0  0  0  0  0  0  0  0  0  0  0  0
   34.9050   28.2700   38.5220 C   0  0  0  0  0  0  0  0  0  0  0  0
   35.9450   28.7230   39.5260 C   0  0  1  0  0  0  0  0  0  0  0  0
   37.0390   28.5720   37.0230 H   0  0  0  0  0  0  0  0  0  0  0  0
   36.8150   30.4110   36.8350 H   0  0  0  0  0  0  0  0  0  0  0  0
   34.5690   30.2640   37.7250 H   0  0  0  0  0  0  0  0  0  0  0  0
   34.6180   28.9140   36.4680 H   0  0  0  0  0  0  0  0  0  0  0  0
   35.2470   27.3060   38.1400 H   0  0  0  0  0  0  0  0  0  0  0  0
   33.8890   28.2370   38.9550 H   0  0  0  0  0  0  0  0  0  0  0  0
   35.4590   29.3090   40.2540 H   0  0  0  0  0  0  0  0  0  0  0  0
   37.9720   32.7860   40.4980 C   0  0  0  0  0  0  0  0  0  0  0  0
   37.0950   31.9210   39.8610 C   0  0  0  0  0  0  0  0  0  0  0  0
   37.5500   30.6810   39.4370 C   0  0  0  0  0  0  0  0  0  0  0  0
   38.8510   30.3660   39.6660 N   0  0  0  0  0  0  0  0  0  0  0  0
   39.7080   31.2180   40.2910 C   0  0  0  0  0  0  0  0  0  0  0  0
   39.2610   32.4260   40.7050 N   0  0  0  0  0  0  0  0  0  0  0  0
   37.6180   33.7560   40.8320 H   0  0  0  0  0  0  0  0  0  0  0  0
   36.0860   32.2320   39.6860 H   0  0  0  0  0  0  0  0  0  0  0  0
   41.0550   30.8090   40.4920 N   0  0  0  0  0  0  0  0  0  0  0  0
   41.5670   29.6720   39.7600 C   0  0  0  0  0  3  0  0  0  0  0  0
   41.5140   28.7350   40.3600 H   0  0  0  0  0  0  0  0  0  0  0  0
   43.0470   29.9460   39.5500 C   0  0  0  0  0  3  0  0  0  0  0  0
   43.4870   29.1480   38.8990 H   0  0  0  0  0  0  0  0  0  0  0  0
   43.7170   30.0530   40.7430 O   0  0  0  0  0  0  0  0  0  0  0  0
   42.9710   30.4630   41.8180 C   0  0  0  0  0  2  0  0  0  0  0  0
   41.9220   31.5060   41.4120 C   0  0  0  0  0  2  0  0  0  0  0  0
   36.8820   27.6810   39.8980 C   0  0  0  0  0  0  0  0  0  0  0  0
   37.3120   26.7630   38.9940 N   0  0  0  0  0  0  0  0  0  0  0  0
   38.1760   25.7640   39.2640 C   0  0  0  0  0  0  0  0  0  0  0  0
   38.6540   25.6580   40.5150 N   0  0  0  0  0  0  0  0  0  0  0  0
   38.2640   26.5310   41.4390 C   0  0  0  0  0  0  0  0  0  0  0  0
   38.7960   26.3690   42.7130 C   0  0  0  0  0  0  0  0  0  0  0  0
   38.3840   27.2860   43.6730 C   0  0  0  0  0  0  0  0  0  0  0  0
   37.4960   28.3360   43.4560 C   0  0  0  0  0  0  0  0  0  0  0  0
   37.0230   28.4140   42.1620 C   0  0  0  0  0  0  0  0  0  0  0  0
   37.3730   27.5650   41.1730 C   0  0  0  0  0  0  0  0  0  0  0  0
   38.4650   25.0740   38.4710 H   0  0  0  0  0  0  0  0  0  0  0  0
   39.4920   25.5820   42.9700 H   0  0  0  0  0  0  0  0  0  0  0  0
   38.8170   27.1380   44.6680 H   0  0  0  0  0  0  0  0  0  0  0  0
   37.2570   28.9750   44.2770 H   0  0  0  0  0  0  0  0  0  0  0  0
   36.3220   29.2180   42.0360 H   0  0  0  0  0  0  0  0  0  0  0  0
  1 15  1  0  0  0  0
  1  5  1  0  0  0  0
  2  3  1  0  0  0  0
  2  1  1  0  0  0  0
  3  8  1  0  0  0  0
  3  4  1  0  0  0  0
  4 11  1  0  0  0  0
  4  5  1  0  0  0  0
  5 29  1  0  0  0  0
  5 12  1  1  0  0  0
  6  2  1  0  0  0  0
  7  2  1  0  0  0  0
  9  3  1  0  0  0  0
 10  4  1  0  0  0  0
 13 18  1  0  0  0  0
 13 19  1  0  0  0  0
 14 13  2  0  0  0  0
 15 16  2  0  0  0  0
 15 14  1  0  0  0  0
 16 17  1  0  0  0  0
 17 21  1  0  0  0  0
 17 18  2  0  0  0  0
 20 14  1  0  0  0  0
 21 28  1  0  0  0  0
 22 23  1  0  0  0  0
 22 21  1  0  0  0  0
 24 22  1  0  0  0  0
 24 26  1  0  0  0  0
 25 24  1  0  0  0  0
 26 27  1  0  0  0  0
 28 27  1  0  0  0  0
 29 38  1  0  0  0  0
 30 31  1  0  0  0  0
 30 29  2  0  0  0  0
 31 32  2  0  0  0  0
 32 33  1  0  0  0  0
 33 34  1  0  0  0  0
 34 40  1  0  0  0  0
 34 35  2  0  0  0  0
 35 41  1  0  0  0  0
 36 35  1  0  0  0  0
 36 42  1  0  0  0  0
 37 36  2  0  0  0  0
 38 33  2  0  0  0  0
 38 37  1  0  0  0  0
 39 31  1  0  0  0  0
 43 37  1  0  0  0  0
M  END
>  <minimizedAffinity>
-5.75954676

$$$$

 OpenBabel03242512533D

 43 47  0  0  1  0  0  0  0  0999 V2000
   38.6620   26.0840   41.6780 N   0  0  0  0  0  0  0  0  0  0  0  0
   39.9050   25.5130   42.2060 C   0  0  0  0  0  0  0  0  0  0  0  0
   39.7290   25.9190   43.6390 C   0  0  0  0  0  0  0  0  0  0  0  0
   39.4360   27.4020   43.4840 C   0  0  0  0  0  0  0  0  0  0  0  0
   38.5310   27.4400   42.2710 C   0  0  1  0  0  0  0  0  0  0  0  0
   40.7860   25.9880   41.7310 H   0  0  0  0  0  0  0  0  0  0  0  0
   39.8320   24.4220   42.0550 H   0  0  0  0  0  0  0  0  0  0  0  0
   38.8610   25.3840   44.0530 H   0  0  0  0  0  0  0  0  0  0  0  0
   40.6580   25.7670   44.2250 H   0  0  0  0  0  0  0  0  0  0  0  0
   40.3550   27.9180   43.1980 H   0  0  0  0  0  0  0  0  0  0  0  0
   38.9540   27.8270   44.3820 H   0  0  0  0  0  0  0  0  0  0  0  0
   37.5340   27.4470   42.6110 H   0  0  0  0  0  0  0  0  0  0  0  0
   36.3570   23.8090   39.8620 C   0  0  0  0  0  0  0  0  0  0  0  0
   37.3090   24.2260   40.7820 C   0  0  0  0  0  0  0  0  0  0  0  0
   37.7100   25.5540   40.7910 C   0  0  0  0  0  0  0  0  0  0  0  0
   37.1470   26.3980   39.8890 N   0  0  0  0  0  0  0  0  0  0  0  0
   36.2140   25.9850   38.9880 C   0  0  0  0  0  0  0  0  0  0  0  0
   35.8240   24.6900   38.9810 N   0  0  0  0  0  0  0  0  0  0  0  0
   36.0410   22.7720   39.8540 H   0  0  0  0  0  0  0  0  0  0  0  0
   37.7360   23.5110   41.4540 H   0  0  0  0  0  0  0  0  0  0  0  0
   35.6750   26.9340   38.0770 N   0  0  0  0  0  0  0  0  0  0  0  0
   36.3410   28.2050   37.9000 C   0  0  0  0  0  3  0  0  0  0  0  0
   35.8840   29.0020   38.5290 H   0  0  0  0  0  0  0  0  0  0  0  0
   36.0830   28.6120   36.4600 C   0  0  0  0  0  3  0  0  0  0  0  0
   36.6570   29.5430   36.2250 H   0  0  0  0  0  0  0  0  0  0  0  0
   34.7420   28.7680   36.2100 O   0  0  0  0  0  0  0  0  0  0  0  0
   33.8930   28.0360   37.0000 C   0  0  0  0  0  2  0  0  0  0  0  0
   34.4750   26.6550   37.3250 C   0  0  0  0  0  2  0  0  0  0  0  0
   38.9840   28.3530   41.2400 C   0  0  0  0  0  0  0  0  0  0  0  0
   40.1700   28.1700   40.6060 N   0  0  0  0  0  0  0  0  0  0  0  0
   40.6610   28.9750   39.6430 C   0  0  0  0  0  0  0  0  0  0  0  0
   39.9320   30.0420   39.2740 N   0  0  0  0  0  0  0  0  0  0  0  0
   38.7620   30.2680   39.8640 C   0  0  0  0  0  0  0  0  0  0  0  0
   38.0550   31.3860   39.4370 C   0  0  0  0  0  0  0  0  0  0  0  0
   36.8330   31.6140   40.0570 C   0  0  0  0  0  0  0  0  0  0  0  0
   36.2750   30.8210   41.0560 C   0  0  0  0  0  0  0  0  0  0  0  0
   37.0500   29.7370   41.4120 C   0  0  0  0  0  0  0  0  0  0  0  0
   38.2460   29.4450   40.8580 C   0  0  0  0  0  0  0  0  0  0  0  0
   41.6260   28.7470   39.1900 H   0  0  0  0  0  0  0  0  0  0  0  0
   38.4130   32.0560   38.6670 H   0  0  0  0  0  0  0  0  0  0  0  0
   36.2940   32.5000   39.7040 H   0  0  0  0  0  0  0  0  0  0  0  0
   35.3250   31.1030   41.4550 H   0  0  0  0  0  0  0  0  0  0  0  0
   36.6030   29.1620   42.2010 H   0  0  0  0  0  0  0  0  0  0  0  0
  1  2  1  0  0  0  0
  1  5  1  0  0  0  0
  2  3  1  0  0  0  0
  3  8  1  0  0  0  0
  3  9  1  0  0  0  0
  4  3  1  0  0  0  0
  4 11  1  0  0  0  0
  5 12  1  1  0  0  0
  5  4  1  0  0  0  0
  6  2  1  0  0  0  0
  7  2  1  0  0  0  0
 10  4  1  0  0  0  0
 13 14  1  0  0  0  0
 14 15  2  0  0  0  0
 14 20  1  0  0  0  0
 15  1  1  0  0  0  0
 16 15  1  0  0  0  0
 17 16  2  0  0  0  0
 18 17  1  0  0  0  0
 18 13  2  0  0  0  0
 19 13  1  0  0  0  0
 21 17  1  0  0  0  0
 22 21  1  0  0  0  0
 22 23  1  0  0  0  0
 24 22  1  0  0  0  0
 25 24  1  0  0  0  0
 26 24  1  0  0  0  0
 26 27  1  0  0  0  0
 27 28  1  0  0  0  0
 28 21  1  0  0  0  0
 29  5  1  0  0  0  0
 30 29  2  0  0  0  0
 31 30  1  0  0  0  0
 32 31  2  0  0  0  0
 32 33  1  0  0  0  0
 33 38  1  0  0  0  0
 34 33  2  0  0  0  0
 34 35  1  0  0  0  0
 35 36  2  0  0  0  0
 36 37  1  0  0  0  0
 36 42  1  0  0  0  0
 37 43  1  0  0  0  0
 38 29  1  0  0  0  0
 38 37  2  0  0  0  0
 39 31  1  0  0  0  0
 40 34  1  0  0  0  0
 41 35  1  0  0  0  0
M  END
>  <minimizedAffinity>
-5.71838093

$$$$
