
 OpenBabel03252506333D

 32 34  0  0  1  0  0  0  0  0999 V2000
   44.4950   35.5720   45.0760 C   0  0  0  0  0  0  0  0  0  0  0  0
   45.1560   35.5440   43.8370 C   0  0  0  0  0  0  0  0  0  0  0  0
   46.0890   34.5840   43.6040 C   0  0  0  0  0  0  0  0  0  0  0  0
   46.3210   33.7020   44.6050 N   0  0  0  0  0  0  0  0  0  0  0  0
   45.6960   33.7280   45.7770 C   0  0  0  0  0  0  0  0  0  0  0  0
   44.7720   34.6640   46.0320 N   0  0  0  0  0  0  0  0  0  0  0  0
   46.0230   32.7450   46.7390 N   0  0  0  0  0  0  0  0  0  0  0  0
   45.2370   32.4550   47.9420 C   0  0  0  0  0  0  0  0  0  0  0  0
   46.3400   32.1980   48.9680 C   0  0  0  0  0  0  0  0  0  0  0  0
   47.6180   32.0220   48.2000 C   0  0  0  0  0  0  0  0  0  0  0  0
   47.1310   31.8330   46.7890 C   0  0  1  0  0  0  0  0  0  0  0  0
   43.7320   36.3360   45.2960 H   0  0  0  0  0  0  0  0  0  0  0  0
   46.5850   34.5830   42.6430 H   0  0  0  0  0  0  0  0  0  0  0  0
   44.6740   31.5110   47.7250 H   0  0  0  0  0  0  0  0  0  0  0  0
   44.5820   33.2760   48.2360 H   0  0  0  0  0  0  0  0  0  0  0  0
   46.1030   31.3730   49.6410 H   0  0  0  0  0  0  0  0  0  0  0  0
   46.4500   33.1460   49.5700 H   0  0  0  0  0  0  0  0  0  0  0  0
   48.3340   32.8580   48.3190 H   0  0  0  0  0  0  0  0  0  0  0  0
   48.0790   31.0490   48.5100 H   0  0  0  0  0  0  0  0  0  0  0  0
   47.9500   32.1350   46.0910 H   0  0  0  0  0  0  0  0  0  0  0  0
   44.7610   36.5750   42.9070 N   0  0  0  0  0  0  0  0  0  0  0  0
   45.4340   37.2110   42.4150 H   0  0  0  0  0  0  0  0  0  0  0  0
   43.8010   36.8300   42.6000 H   0  0  0  0  0  0  0  0  0  0  0  0
   46.6400   30.1210   46.5700 S   0  0  0  0  0  0  0  0  0  0  0  0
   43.3330   29.8160   45.3850 H   0  0  0  0  0  0  0  0  0  0  0  0
   44.1460   29.5650   45.9940 N   0  0  0  0  0  0  0  0  0  0  0  0
   45.3830   29.8950   45.2870 C   0  0  2  0  0  0  0  0  0  0  0  0
   45.8060   28.7510   44.3870 C   0  0  0  0  0  0  0  0  0  0  0  0
   46.3410   29.2180   43.5420 H   0  0  0  0  0  0  0  0  0  0  0  0
   44.7460   28.0350   43.8810 O   0  0  0  0  0  0  0  0  0  0  0  0
   43.8740   27.5240   44.8160 C   0  0  0  0  0  0  0  0  0  0  0  0
   44.1230   28.1230   46.1840 C   0  0  0  0  0  0  0  0  0  0  0  0
  1 12  1  0  0  0  0
  1  6  1  0  0  0  0
  2  1  2  0  0  0  0
  3  2  1  0  0  0  0
  3  4  2  0  0  0  0
  4  5  1  0  0  0  0
  5  6  2  0  0  0  0
  5  7  1  0  0  0  0
  7 11  1  0  0  0  0
  7  8  1  0  0  0  0
  8 15  1  0  0  0  0
  8  9  1  0  0  0  0
  9 17  1  0  0  0  0
  9 16  1  0  0  0  0
 10 18  1  0  0  0  0
 10 19  1  0  0  0  0
 10  9  1  0  0  0  0
 11 20  1  6  0  0  0
 11 10  1  0  0  0  0
 13  3  1  0  0  0  0
 14  8  1  0  0  0  0
 21  2  1  0  0  0  0
 22 21  1  0  0  0  0
 23 21  1  0  0  0  0
 24 11  1  0  0  0  0
 25 26  1  0  0  0  0
 26 32  1  0  0  0  0
 27 26  1  0  0  0  0
 27 24  1  1  0  0  0
 28 27  1  0  0  0  0
 29 28  1  0  0  0  0
 30 28  1  0  0  0  0
 30 31  1  0  0  0  0
 31 32  1  0  0  0  0
M  END
>  <minimizedAffinity>
-5.26241875

>  <minimizedRMSD>
1.01863575

$$$$
