
 OpenBabel03242511103D

 42 46  0  0  1  0  0  0  0  0999 V2000
   36.3400   29.7560   40.2090 C   0  0  0  0  0  0  0  0  0  0  0  0
   35.1750   29.0210   40.3680 C   0  0  0  0  0  0  0  0  0  0  0  0
   34.3610   28.6290   39.3070 C   0  0  0  0  0  0  0  0  0  0  0  0
   34.7140   28.9780   38.0130 C   0  0  0  0  0  0  0  0  0  0  0  0
   35.8500   29.6970   37.8210 C   0  0  0  0  0  0  0  0  0  0  0  0
   36.2330   30.0620   36.5470 C   0  0  0  0  0  0  0  0  0  0  0  0
   37.3590   30.7820   36.2720 C   0  0  0  0  0  0  0  0  0  0  0  0
   38.1340   31.1480   37.3670 C   0  0  0  0  0  0  0  0  0  0  0  0
   37.7470   30.7790   38.6490 C   0  0  0  0  0  0  0  0  0  0  0  0
   36.6210   30.0620   38.9040 C   0  0  0  0  0  0  0  0  0  0  0  0
   34.8120   28.6910   41.3290 H   0  0  0  0  0  0  0  0  0  0  0  0
   33.4560   28.0550   39.4550 H   0  0  0  0  0  0  0  0  0  0  0  0
   34.0680   28.6620   37.2070 H   0  0  0  0  0  0  0  0  0  0  0  0
   35.5950   29.7480   35.7470 H   0  0  0  0  0  0  0  0  0  0  0  0
   37.5660   31.0150   35.2300 H   0  0  0  0  0  0  0  0  0  0  0  0
   39.0160   31.7220   37.0550 H   0  0  0  0  0  0  0  0  0  0  0  0
   38.7560   31.2720   39.5380 N   0  0  0  0  0  0  0  0  0  0  0  0
   39.9880   30.8500   40.1640 C   0  0  0  0  0  3  0  0  0  0  0  0
   39.9560   30.6550   41.2280 H   0  0  0  0  0  0  0  0  0  0  0  0
   40.9820   32.0050   39.9820 C   0  0  0  0  0  3  0  0  0  0  0  0
   41.1360   32.2510   38.9130 H   0  0  0  0  0  0  0  0  0  0  0  0
   40.5970   33.0990   40.7500 O   0  0  0  0  0  0  0  0  0  0  0  0
   39.2460   33.0360   41.0950 C   0  0  0  0  0  2  0  0  0  0  0  0
   38.4520   32.6680   39.9000 C   0  0  0  0  0  2  0  0  0  0  0  0
   37.0760   30.1000   41.3450 N   0  0  0  0  0  0  0  0  0  0  0  0
   36.7690   31.0860   41.3030 H   0  0  0  0  0  0  0  0  0  0  0  0
   37.3410   28.0210   42.7730 C   0  0  1  0  0  0  0  0  0  0  0  0
   37.8600   29.2020   43.5680 C   0  0  0  0  0  0  0  0  0  0  0  0
   37.8950   29.1540   42.0470 C   0  0  2  0  0  0  0  0  0  0  0  0
   36.2590   27.8590   42.9410 H   0  0  0  0  0  0  0  0  0  0  0  0
   37.1450   29.8620   44.0600 H   0  0  0  0  0  0  0  0  0  0  0  0
   38.8120   28.9800   44.1050 H   0  0  0  0  0  0  0  0  0  0  0  0
   38.8630   28.9600   41.5270 H   0  0  0  0  0  0  0  0  0  0  0  0
   39.9730   25.5310   43.5780 C   0  0  0  0  0  0  0  0  0  0  0  0
   39.4720   24.3660   42.9220 C   0  0  0  0  0  0  0  0  0  0  0  0
   38.2380   24.4690   42.2290 C   0  0  0  0  0  0  0  0  0  0  0  0
   37.5920   25.6380   42.2120 N   0  0  0  0  0  0  0  0  0  0  0  0
   38.0960   26.7280   42.8480 C   0  0  0  0  0  0  0  0  0  0  0  0
   39.2870   26.6780   43.5330 N   0  0  0  0  0  0  0  0  0  0  0  0
   40.9210   25.4440   44.1070 H   0  0  0  0  0  0  0  0  0  0  0  0
   40.0040   23.4360   42.9440 H   0  0  0  0  0  0  0  0  0  0  0  0
   37.8530   23.5780   41.7260 H   0  0  0  0  0  0  0  0  0  0  0  0
  1  2  1  0  0  0  0
  1 25  1  0  0  0  0
  2 11  1  0  0  0  0
  3 12  1  0  0  0  0
  3  2  2  0  0  0  0
  4  3  1  0  0  0  0
  5  4  2  0  0  0  0
  5 10  1  0  0  0  0
  6  5  1  0  0  0  0
  7  6  2  0  0  0  0
  7  8  1  0  0  0  0
  8  9  2  0  0  0  0
  9 10  1  0  0  0  0
  9 17  1  0  0  0  0
 10  1  2  0  0  0  0
 13  4  1  0  0  0  0
 14  6  1  0  0  0  0
 15  7  1  0  0  0  0
 16  8  1  0  0  0  0
 17 24  1  0  0  0  0
 17 18  1  0  0  0  0
 18 19  1  0  0  0  0
 20 18  1  0  0  0  0
 20 22  1  0  0  0  0
 21 20  1  0  0  0  0
 22 23  1  0  0  0  0
 24 23  1  0  0  0  0
 25 29  1  0  0  0  0
 26 25  1  0  0  0  0
 27 38  1  0  0  0  0
 27 30  1  6  0  0  0
 27 28  1  0  0  0  0
 28 31  1  0  0  0  0
 28 32  1  0  0  0  0
 29 33  1  6  0  0  0
 29 27  1  0  0  0  0
 29 28  1  0  0  0  0
 34 40  1  0  0  0  0
 35 41  1  0  0  0  0
 35 34  2  0  0  0  0
 36 35  1  0  0  0  0
 37 36  2  0  0  0  0
 37 38  1  0  0  0  0
 38 39  2  0  0  0  0
 39 34  1  0  0  0  0
 42 36  1  0  0  0  0
M  END
>  <minimizedAffinity>
-5.90528584

$$$$

 OpenBabel03242511103D

 42 46  0  0  1  0  0  0  0  0999 V2000
   36.8500   28.1310   40.5650 C   0  0  0  0  0  0  0  0  0  0  0  0
   36.9100   28.8850   41.7280 C   0  0  0  0  0  0  0  0  0  0  0  0
   37.0090   28.3290   43.0020 C   0  0  0  0  0  0  0  0  0  0  0  0
   37.0530   26.9510   43.1420 C   0  0  0  0  0  0  0  0  0  0  0  0
   36.9980   26.1820   42.0240 C   0  0  0  0  0  0  0  0  0  0  0  0
   37.0410   24.8070   42.1250 C   0  0  0  0  0  0  0  0  0  0  0  0
   36.9900   23.9680   41.0500 C   0  0  0  0  0  0  0  0  0  0  0  0
   36.8920   24.5750   39.8030 C   0  0  0  0  0  0  0  0  0  0  0  0
   36.8490   25.9590   39.7030 C   0  0  0  0  0  0  0  0  0  0  0  0
   36.9000   26.7800   40.7860 C   0  0  0  0  0  0  0  0  0  0  0  0
   36.8910   29.9640   41.7330 H   0  0  0  0  0  0  0  0  0  0  0  0
   37.0540   28.9370   43.8960 H   0  0  0  0  0  0  0  0  0  0  0  0
   37.1310   26.5430   44.1400 H   0  0  0  0  0  0  0  0  0  0  0  0
   37.1190   24.4010   43.1120 H   0  0  0  0  0  0  0  0  0  0  0  0
   37.0320   22.8980   41.2430 H   0  0  0  0  0  0  0  0  0  0  0  0
   36.8570   23.8280   38.9990 H   0  0  0  0  0  0  0  0  0  0  0  0
   36.7810   26.2670   38.3060 N   0  0  0  0  0  0  0  0  0  0  0  0
   37.6410   26.6340   37.2060 C   0  0  0  0  0  3  0  0  0  0  0  0
   37.5720   27.6540   36.8470 H   0  0  0  0  0  0  0  0  0  0  0  0
   37.2290   25.7490   36.0210 C   0  0  0  0  0  3  0  0  0  0  0  0
   37.3190   24.6720   36.2620 H   0  0  0  0  0  0  0  0  0  0  0  0
   35.9640   26.1090   35.5670 O   0  0  0  0  0  0  0  0  0  0  0  0
   35.2500   26.8150   36.5360 C   0  0  0  0  0  2  0  0  0  0  0  0
   35.3880   26.1310   37.8420 C   0  0  0  0  0  2  0  0  0  0  0  0
   36.7460   28.7950   39.3420 N   0  0  0  0  0  0  0  0  0  0  0  0
   35.9410   28.2180   39.0440 H   0  0  0  0  0  0  0  0  0  0  0  0
   37.2850   31.2500   39.0090 C   0  0  1  0  0  0  0  0  0  0  0  0
   37.3420   30.5730   37.6540 C   0  0  0  0  0  0  0  0  0  0  0  0
   37.6470   29.8410   38.9540 C   0  0  2  0  0  0  0  0  0  0  0  0
   36.2690   31.6220   39.2380 H   0  0  0  0  0  0  0  0  0  0  0  0
   36.4080   30.3570   37.1330 H   0  0  0  0  0  0  0  0  0  0  0  0
   38.2120   30.9010   37.0390 H   0  0  0  0  0  0  0  0  0  0  0  0
   38.7070   29.6110   39.2170 H   0  0  0  0  0  0  0  0  0  0  0  0
   40.4580   33.1760   38.9640 C   0  0  0  0  0  0  0  0  0  0  0  0
   40.2080   34.1580   39.9700 C   0  0  0  0  0  0  0  0  0  0  0  0
   38.9510   34.1340   40.6280 C   0  0  0  0  0  0  0  0  0  0  0  0
   38.0520   33.2050   40.2900 N   0  0  0  0  0  0  0  0  0  0  0  0
   38.3210   32.2860   39.3280 C   0  0  0  0  0  0  0  0  0  0  0  0
   39.5240   32.2680   38.6610 N   0  0  0  0  0  0  0  0  0  0  0  0
   41.4250   33.2000   38.4640 H   0  0  0  0  0  0  0  0  0  0  0  0
   40.9410   34.8960   40.2300 H   0  0  0  0  0  0  0  0  0  0  0  0
   38.7580   34.8850   41.3990 H   0  0  0  0  0  0  0  0  0  0  0  0
  1 10  2  0  0  0  0
  1  2  1  0  0  0  0
  2 11  1  0  0  0  0
  2  3  2  0  0  0  0
  3  4  1  0  0  0  0
  3 12  1  0  0  0  0
  4 13  1  0  0  0  0
  5  6  1  0  0  0  0
  5  4  2  0  0  0  0
  6 14  1  0  0  0  0
  7 15  1  0  0  0  0
  7  6  2  0  0  0  0
  8  7  1  0  0  0  0
  9  8  2  0  0  0  0
  9 10  1  0  0  0  0
 10  5  1  0  0  0  0
 16  8  1  0  0  0  0
 17  9  1  0  0  0  0
 18 17  1  0  0  0  0
 19 18  1  0  0  0  0
 20 21  1  0  0  0  0
 20 18  1  0  0  0  0
 22 20  1  0  0  0  0
 22 23  1  0  0  0  0
 23 24  1  0  0  0  0
 24 17  1  0  0  0  0
 25  1  1  0  0  0  0
 26 25  1  0  0  0  0
 27 30  1  1  0  0  0
 27 38  1  0  0  0  0
 28 29  1  0  0  0  0
 28 27  1  0  0  0  0
 29 27  1  0  0  0  0
 29 33  1  1  0  0  0
 29 25  1  0  0  0  0
 31 28  1  0  0  0  0
 32 28  1  0  0  0  0
 34 35  1  0  0  0  0
 35 41  1  0  0  0  0
 35 36  2  0  0  0  0
 36 42  1  0  0  0  0
 37 36  1  0  0  0  0
 38 37  2  0  0  0  0
 39 34  2  0  0  0  0
 39 38  1  0  0  0  0
 40 34  1  0  0  0  0
M  END
>  <minimizedAffinity>
-5.89199972

$$$$

 OpenBabel03242511103D

 42 46  0  0  1  0  0  0  0  0999 V2000
   37.4130   26.5000   40.8420 C   0  0  0  0  0  0  0  0  0  0  0  0
   36.6500   25.4270   40.4040 C   0  0  0  0  0  0  0  0  0  0  0  0
   36.8400   24.1180   40.8390 C   0  0  0  0  0  0  0  0  0  0  0  0
   37.8390   23.8450   41.7610 C   0  0  0  0  0  0  0  0  0  0  0  0
   38.6040   24.8710   42.2130 C   0  0  0  0  0  0  0  0  0  0  0  0
   39.6060   24.6380   43.1310 C   0  0  0  0  0  0  0  0  0  0  0  0
   40.4170   25.6150   43.6320 C   0  0  0  0  0  0  0  0  0  0  0  0
   40.1840   26.9030   43.1640 C   0  0  0  0  0  0  0  0  0  0  0  0
   39.1740   27.1370   42.2400 C   0  0  0  0  0  0  0  0  0  0  0  0
   38.3770   26.1500   41.7510 C   0  0  0  0  0  0  0  0  0  0  0  0
   35.8430   25.5290   39.6940 H   0  0  0  0  0  0  0  0  0  0  0  0
   36.2330   23.2970   40.4840 H   0  0  0  0  0  0  0  0  0  0  0  0
   37.9660   22.8210   42.0850 H   0  0  0  0  0  0  0  0  0  0  0  0
   39.7340   23.6250   43.4540 H   0  0  0  0  0  0  0  0  0  0  0  0
   41.1760   25.3190   44.3530 H   0  0  0  0  0  0  0  0  0  0  0  0
   40.8780   27.6220   43.6170 H   0  0  0  0  0  0  0  0  0  0  0  0
   39.1690   28.5470   41.9870 N   0  0  0  0  0  0  0  0  0  0  0  0
   38.5120   29.7530   42.4330 C   0  0  0  0  0  3  0  0  0  0  0  0
   37.8060   30.2090   41.7510 H   0  0  0  0  0  0  0  0  0  0  0  0
   39.6190   30.7950   42.6430 C   0  0  0  0  0  3  0  0  0  0  0  0
   40.3740   30.4510   43.3770 H   0  0  0  0  0  0  0  0  0  0  0  0
   40.1680   31.1690   41.4210 O   0  0  0  0  0  0  0  0  0  0  0  0
   39.9150   30.2190   40.4310 C   0  0  0  0  0  2  0  0  0  0  0  0
   40.1850   28.8660   40.9680 C   0  0  0  0  0  2  0  0  0  0  0  0
   37.1380   27.7700   40.3330 N   0  0  0  0  0  0  0  0  0  0  0  0
   38.0310   28.1560   40.6850 H   0  0  0  0  0  0  0  0  0  0  0  0
   35.7890   29.2000   38.7310 C   0  0  1  0  0  0  0  0  0  0  0  0
   35.1590   29.3180   40.1040 C   0  0  0  0  0  0  0  0  0  0  0  0
   35.9150   28.0770   39.6490 C   0  0  2  0  0  0  0  0  0  0  0  0
   36.5720   29.9650   38.5740 H   0  0  0  0  0  0  0  0  0  0  0  0
   35.6200   29.9770   40.8410 H   0  0  0  0  0  0  0  0  0  0  0  0
   34.0450   29.2720   40.0770 H   0  0  0  0  0  0  0  0  0  0  0  0
   35.3440   27.1620   39.3640 H   0  0  0  0  0  0  0  0  0  0  0  0
   34.6020   29.1490   35.2140 C   0  0  0  0  0  0  0  0  0  0  0  0
   33.1950   28.9790   35.3920 C   0  0  0  0  0  0  0  0  0  0  0  0
   32.6980   28.8780   36.7170 C   0  0  0  0  0  0  0  0  0  0  0  0
   33.5500   28.9440   37.7440 N   0  0  0  0  0  0  0  0  0  0  0  0
   34.8830   29.1050   37.5400 C   0  0  0  0  0  0  0  0  0  0  0  0
   35.4140   29.2080   36.2760 N   0  0  0  0  0  0  0  0  0  0  0  0
   34.9760   29.2270   34.1950 H   0  0  0  0  0  0  0  0  0  0  0  0
   32.5250   28.9290   34.5570 H   0  0  0  0  0  0  0  0  0  0  0  0
   31.6210   28.7480   36.8550 H   0  0  0  0  0  0  0  0  0  0  0  0
  1 10  1  0  0  0  0
  2  3  1  0  0  0  0
  2  1  2  0  0  0  0
  3  4  2  0  0  0  0
  4 13  1  0  0  0  0
  4  5  1  0  0  0  0
  5  6  1  0  0  0  0
  6 14  1  0  0  0  0
  6  7  2  0  0  0  0
  7 15  1  0  0  0  0
  8 16  1  0  0  0  0
  8  7  1  0  0  0  0
  9  8  2  0  0  0  0
 10  5  2  0  0  0  0
 10  9  1  0  0  0  0
 11  2  1  0  0  0  0
 12  3  1  0  0  0  0
 17  9  1  0  0  0  0
 17 18  1  0  0  0  0
 18 20  1  0  0  0  0
 19 18  1  0  0  0  0
 20 21  1  0  0  0  0
 22 20  1  0  0  0  0
 23 24  1  0  0  0  0
 23 22  1  0  0  0  0
 24 17  1  0  0  0  0
 25 26  1  0  0  0  0
 25  1  1  0  0  0  0
 27 30  1  6  0  0  0
 27 29  1  0  0  0  0
 27 28  1  0  0  0  0
 28 31  1  0  0  0  0
 29 33  1  6  0  0  0
 29 28  1  0  0  0  0
 29 25  1  0  0  0  0
 32 28  1  0  0  0  0
 34 35  2  0  0  0  0
 34 39  1  0  0  0  0
 35 36  1  0  0  0  0
 36 42  1  0  0  0  0
 36 37  2  0  0  0  0
 38 37  1  0  0  0  0
 38 27  1  0  0  0  0
 39 38  2  0  0  0  0
 40 34  1  0  0  0  0
 41 35  1  0  0  0  0
M  END
>  <minimizedAffinity>
-5.83725357

$$$$

 OpenBabel03242511103D

 42 46  0  0  1  0  0  0  0  0999 V2000
   35.9960   28.8550   38.8500 C   0  0  0  0  0  0  0  0  0  0  0  0
   35.3280   29.2630   37.7050 C   0  0  0  0  0  0  0  0  0  0  0  0
   34.7980   28.3800   36.7670 C   0  0  0  0  0  0  0  0  0  0  0  0
   34.9300   27.0140   36.9660 C   0  0  0  0  0  0  0  0  0  0  0  0
   35.5780   26.5800   38.0770 C   0  0  0  0  0  0  0  0  0  0  0  0
   35.7280   25.2280   38.3090 C   0  0  0  0  0  0  0  0  0  0  0  0
   36.3650   24.7140   39.4000 C   0  0  0  0  0  0  0  0  0  0  0  0
   36.8750   25.6390   40.3040 C   0  0  0  0  0  0  0  0  0  0  0  0
   36.7230   26.9990   40.0700 C   0  0  0  0  0  0  0  0  0  0  0  0
   36.0860   27.4940   38.9750 C   0  0  0  0  0  0  0  0  0  0  0  0
   35.1620   30.3000   37.4570 H   0  0  0  0  0  0  0  0  0  0  0  0
   34.2800   28.7200   35.8800 H   0  0  0  0  0  0  0  0  0  0  0  0
   34.5100   26.3490   36.2250 H   0  0  0  0  0  0  0  0  0  0  0  0
   35.3110   24.5670   37.5770 H   0  0  0  0  0  0  0  0  0  0  0  0
   36.4260   23.6300   39.4840 H   0  0  0  0  0  0  0  0  0  0  0  0
   37.3690   25.1390   41.1480 H   0  0  0  0  0  0  0  0  0  0  0  0
   37.3200   27.6750   41.1820 N   0  0  0  0  0  0  0  0  0  0  0  0
   36.9460   28.3480   42.4040 C   0  0  0  0  0  3  0  0  0  0  0  0
   37.0570   29.4240   42.4270 H   0  0  0  0  0  0  0  0  0  0  0  0
   37.8810   27.8110   43.4960 C   0  0  0  0  0  3  0  0  0  0  0  0
   37.8040   26.7110   43.6010 H   0  0  0  0  0  0  0  0  0  0  0  0
   39.1820   28.2540   43.2780 O   0  0  0  0  0  0  0  0  0  0  0  0
   39.3750   28.6530   41.9550 C   0  0  0  0  0  2  0  0  0  0  0  0
   38.7870   27.6410   41.0470 C   0  0  0  0  0  2  0  0  0  0  0  0
   36.4920   29.8280   39.7190 N   0  0  0  0  0  0  0  0  0  0  0  0
   36.1120   29.3460   40.5510 H   0  0  0  0  0  0  0  0  0  0  0  0
   38.3650   31.5230   39.9470 C   0  0  1  0  0  0  0  0  0  0  0  0
   37.0490   32.2650   40.0650 C   0  0  0  0  0  0  0  0  0  0  0  0
   37.2030   30.9850   39.2550 C   0  0  2  0  0  0  0  0  0  0  0  0
   38.7220   31.1660   40.9310 H   0  0  0  0  0  0  0  0  0  0  0  0
   36.5060   32.2290   41.0100 H   0  0  0  0  0  0  0  0  0  0  0  0
   37.0380   33.2250   39.4990 H   0  0  0  0  0  0  0  0  0  0  0  0
   37.2430   31.0430   38.1410 H   0  0  0  0  0  0  0  0  0  0  0  0
   40.8380   32.2150   37.2670 C   0  0  0  0  0  0  0  0  0  0  0  0
   41.5390   33.3350   37.8100 C   0  0  0  0  0  0  0  0  0  0  0  0
   41.1340   33.8240   39.0790 C   0  0  0  0  0  0  0  0  0  0  0  0
   40.1220   33.2300   39.7180 N   0  0  0  0  0  0  0  0  0  0  0  0
   39.4760   32.1670   39.1730 C   0  0  0  0  0  0  0  0  0  0  0  0
   39.8300   31.6570   37.9460 N   0  0  0  0  0  0  0  0  0  0  0  0
   41.1560   31.8460   36.2940 H   0  0  0  0  0  0  0  0  0  0  0  0
   42.3490   33.8000   37.2850 H   0  0  0  0  0  0  0  0  0  0  0  0
   41.6690   34.6810   39.4970 H   0  0  0  0  0  0  0  0  0  0  0  0
  1 10  1  0  0  0  0
  1 25  1  0  0  0  0
  2  1  2  0  0  0  0
  3  4  2  0  0  0  0
  3  2  1  0  0  0  0
  4  5  1  0  0  0  0
  5  6  2  0  0  0  0
  5 10  1  0  0  0  0
  6  7  1  0  0  0  0
  7 15  1  0  0  0  0
  7  8  2  0  0  0  0
  8 16  1  0  0  0  0
  9  8  1  0  0  0  0
  9 17  1  0  0  0  0
 10  9  2  0  0  0  0
 11  2  1  0  0  0  0
 12  3  1  0  0  0  0
 13  4  1  0  0  0  0
 14  6  1  0  0  0  0
 17 18  1  0  0  0  0
 18 19  1  0  0  0  0
 18 20  1  0  0  0  0
 20 21  1  0  0  0  0
 22 20  1  0  0  0  0
 23 22  1  0  0  0  0
 24 17  1  0  0  0  0
 24 23  1  0  0  0  0
 25 26  1  0  0  0  0
 27 28  1  0  0  0  0
 27 30  1  1  0  0  0
 28 31  1  0  0  0  0
 29 33  1  6  0  0  0
 29 25  1  0  0  0  0
 29 27  1  0  0  0  0
 29 28  1  0  0  0  0
 32 28  1  0  0  0  0
 34 35  2  0  0  0  0
 34 39  1  0  0  0  0
 35 36  1  0  0  0  0
 36 42  1  0  0  0  0
 36 37  2  0  0  0  0
 38 37  1  0  0  0  0
 38 27  1  0  0  0  0
 39 38  2  0  0  0  0
 40 34  1  0  0  0  0
 41 35  1  0  0  0  0
M  END
>  <minimizedAffinity>
-5.62840652

$$$$

 OpenBabel03242511103D

 42 46  0  0  1  0  0  0  0  0999 V2000
   37.7300   29.2800   42.0370 C   0  0  0  0  0  0  0  0  0  0  0  0
   36.5750   28.6040   42.4000 C   0  0  0  0  0  0  0  0  0  0  0  0
   36.5740   27.4280   43.1480 C   0  0  0  0  0  0  0  0  0  0  0  0
   37.7800   26.8860   43.5650 C   0  0  0  0  0  0  0  0  0  0  0  0
   38.9300   27.5230   43.2290 C   0  0  0  0  0  0  0  0  0  0  0  0
   40.1480   27.0130   43.6270 C   0  0  0  0  0  0  0  0  0  0  0  0
   41.3460   27.5940   43.3290 C   0  0  0  0  0  0  0  0  0  0  0  0
   41.2900   28.7650   42.5810 C   0  0  0  0  0  0  0  0  0  0  0  0
   40.0630   29.2770   42.1800 C   0  0  0  0  0  0  0  0  0  0  0  0
   38.8780   28.6830   42.4860 C   0  0  0  0  0  0  0  0  0  0  0  0
   35.5850   28.9420   42.1350 H   0  0  0  0  0  0  0  0  0  0  0  0
   35.6610   26.9170   43.4200 H   0  0  0  0  0  0  0  0  0  0  0  0
   37.7530   25.9740   44.1450 H   0  0  0  0  0  0  0  0  0  0  0  0
   40.1250   26.1110   44.2020 H   0  0  0  0  0  0  0  0  0  0  0  0
   42.2480   27.1070   43.6940 H   0  0  0  0  0  0  0  0  0  0  0  0
   42.2950   29.1620   42.3880 H   0  0  0  0  0  0  0  0  0  0  0  0
   40.3380   30.4870   41.4650 N   0  0  0  0  0  0  0  0  0  0  0  0
   40.3570   31.9170   41.6670 C   0  0  0  0  0  3  0  0  0  0  0  0
   39.5720   32.4910   41.1900 H   0  0  0  0  0  0  0  0  0  0  0  0
   41.6710   32.4220   41.0550 C   0  0  0  0  0  3  0  0  0  0  0  0
   42.5530   31.9380   41.5170 H   0  0  0  0  0  0  0  0  0  0  0  0
   41.6370   32.2990   39.6700 O   0  0  0  0  0  0  0  0  0  0  0  0
   40.6750   31.3760   39.2580 C   0  0  0  0  0  2  0  0  0  0  0  0
   40.7730   30.1590   40.0960 C   0  0  0  0  0  2  0  0  0  0  0  0
   37.6130   30.4480   41.2800 N   0  0  0  0  0  0  0  0  0  0  0  0
   38.3020   30.9520   41.8640 H   0  0  0  0  0  0  0  0  0  0  0  0
   37.1090   30.2490   38.8030 C   0  0  1  0  0  0  0  0  0  0  0  0
   36.9490   31.7040   39.1950 C   0  0  0  0  0  0  0  0  0  0  0  0
   36.7120   30.5580   40.1690 C   0  0  2  0  0  0  0  0  0  0  0  0
   38.1460   30.0210   38.4940 H   0  0  0  0  0  0  0  0  0  0  0  0
   37.8420   32.3200   39.3120 H   0  0  0  0  0  0  0  0  0  0  0  0
   36.0490   32.1810   38.7430 H   0  0  0  0  0  0  0  0  0  0  0  0
   35.6660   30.2740   40.4370 H   0  0  0  0  0  0  0  0  0  0  0  0
   35.5160   29.1410   35.6380 C   0  0  0  0  0  0  0  0  0  0  0  0
   34.2710   28.6270   36.1120 C   0  0  0  0  0  0  0  0  0  0  0  0
   34.0200   28.6680   37.5080 C   0  0  0  0  0  0  0  0  0  0  0  0
   34.9450   29.1810   38.3260 N   0  0  0  0  0  0  0  0  0  0  0  0
   36.1200   29.6610   37.8420 C   0  0  0  0  0  0  0  0  0  0  0  0
   36.4100   29.6420   36.4980 N   0  0  0  0  0  0  0  0  0  0  0  0
   35.7010   29.1060   34.5660 H   0  0  0  0  0  0  0  0  0  0  0  0
   33.5400   28.2200   35.4430 H   0  0  0  0  0  0  0  0  0  0  0  0
   33.0670   28.2750   37.8730 H   0  0  0  0  0  0  0  0  0  0  0  0
  1  2  2  0  0  0  0
  1 10  1  0  0  0  0
  2  3  1  0  0  0  0
  3 12  1  0  0  0  0
  3  4  2  0  0  0  0
  4 13  1  0  0  0  0
  5  4  1  0  0  0  0
  5  6  1  0  0  0  0
  6 14  1  0  0  0  0
  7  6  2  0  0  0  0
  7 15  1  0  0  0  0
  8  7  1  0  0  0  0
  9 10  1  0  0  0  0
  9  8  2  0  0  0  0
 10  5  2  0  0  0  0
 11  2  1  0  0  0  0
 16  8  1  0  0  0  0
 17 18  1  0  0  0  0
 17  9  1  0  0  0  0
 19 18  1  0  0  0  0
 20 21  1  0  0  0  0
 20 18  1  0  0  0  0
 22 20  1  0  0  0  0
 23 22  1  0  0  0  0
 23 24  1  0  0  0  0
 24 17  1  0  0  0  0
 25 26  1  0  0  0  0
 25  1  1  0  0  0  0
 27 30  1  6  0  0  0
 27 28  1  0  0  0  0
 27 29  1  0  0  0  0
 28 31  1  0  0  0  0
 28 29  1  0  0  0  0
 29 33  1  1  0  0  0
 29 25  1  0  0  0  0
 32 28  1  0  0  0  0
 34 35  2  0  0  0  0
 34 39  1  0  0  0  0
 35 36  1  0  0  0  0
 36 42  1  0  0  0  0
 36 37  2  0  0  0  0
 38 37  1  0  0  0  0
 38 27  1  0  0  0  0
 39 38  2  0  0  0  0
 40 34  1  0  0  0  0
 41 35  1  0  0  0  0
M  END
>  <minimizedAffinity>
-5.62514162

$$$$

 OpenBabel03242511103D

 42 46  0  0  1  0  0  0  0  0999 V2000
   36.2030   28.3170   40.4500 C   0  0  0  0  0  0  0  0  0  0  0  0
   35.2520   29.2330   40.0230 C   0  0  0  0  0  0  0  0  0  0  0  0
   34.5030   29.0790   38.8590 C   0  0  0  0  0  0  0  0  0  0  0  0
   34.6980   27.9590   38.0670 C   0  0  0  0  0  0  0  0  0  0  0  0
   35.6200   27.0410   38.4550 C   0  0  0  0  0  0  0  0  0  0  0  0
   35.8400   25.9140   37.6920 C   0  0  0  0  0  0  0  0  0  0  0  0
   36.7480   24.9470   38.0140 C   0  0  0  0  0  0  0  0  0  0  0  0
   37.4690   25.1500   39.1860 C   0  0  0  0  0  0  0  0  0  0  0  0
   37.2450   26.2860   39.9530 C   0  0  0  0  0  0  0  0  0  0  0  0
   36.3370   27.2390   39.6150 C   0  0  0  0  0  0  0  0  0  0  0  0
   35.0160   30.1340   40.5680 H   0  0  0  0  0  0  0  0  0  0  0  0
   33.7660   29.8070   38.5460 H   0  0  0  0  0  0  0  0  0  0  0  0
   34.1040   27.8620   37.1690 H   0  0  0  0  0  0  0  0  0  0  0  0
   35.2520   25.8140   36.8030 H   0  0  0  0  0  0  0  0  0  0  0  0
   36.8400   24.0970   37.3410 H   0  0  0  0  0  0  0  0  0  0  0  0
   38.1720   24.3270   39.3670 H   0  0  0  0  0  0  0  0  0  0  0  0
   38.1070   26.1860   41.0930 N   0  0  0  0  0  0  0  0  0  0  0  0
   38.0570   25.8570   42.4980 C   0  0  0  0  0  3  0  0  0  0  0  0
   38.1760   26.6740   43.1980 H   0  0  0  0  0  0  0  0  0  0  0  0
   39.2340   24.9080   42.7620 C   0  0  0  0  0  3  0  0  0  0  0  0
   39.1790   23.9980   42.1320 H   0  0  0  0  0  0  0  0  0  0  0  0
   40.4400   25.5900   42.6410 O   0  0  0  0  0  0  0  0  0  0  0  0
   40.2970   26.7630   41.8990 C   0  0  0  0  0  2  0  0  0  0  0  0
   39.4930   26.4810   40.6870 C   0  0  0  0  0  2  0  0  0  0  0  0
   36.9000   28.5760   41.6310 N   0  0  0  0  0  0  0  0  0  0  0  0
   36.6830   27.6430   42.0190 H   0  0  0  0  0  0  0  0  0  0  0  0
   38.8470   30.1770   41.3460 C   0  0  1  0  0  0  0  0  0  0  0  0
   38.7470   29.8220   42.8160 C   0  0  0  0  0  0  0  0  0  0  0  0
   37.5400   29.8350   41.8880 C   0  0  2  0  0  0  0  0  0  0  0  0
   39.4970   29.4690   40.7980 H   0  0  0  0  0  0  0  0  0  0  0  0
   39.1420   28.8640   43.1550 H   0  0  0  0  0  0  0  0  0  0  0  0
   38.8810   30.7030   43.4870 H   0  0  0  0  0  0  0  0  0  0  0  0
   36.8120   30.6790   41.9460 H   0  0  0  0  0  0  0  0  0  0  0  0
   38.4330   33.7090   40.2820 C   0  0  0  0  0  0  0  0  0  0  0  0
   39.7870   34.1610   40.2650 C   0  0  0  0  0  0  0  0  0  0  0  0
   40.8030   33.2390   40.6290 C   0  0  0  0  0  0  0  0  0  0  0  0
   40.4640   31.9920   40.9720 N   0  0  0  0  0  0  0  0  0  0  0  0
   39.1660   31.5950   40.9790 C   0  0  0  0  0  0  0  0  0  0  0  0
   38.1460   32.4510   40.6350 N   0  0  0  0  0  0  0  0  0  0  0  0
   37.6590   34.4220   40.0010 H   0  0  0  0  0  0  0  0  0  0  0  0
   40.0420   35.1630   39.9860 H   0  0  0  0  0  0  0  0  0  0  0  0
   41.8410   33.5830   40.6160 H   0  0  0  0  0  0  0  0  0  0  0  0
  1 25  1  0  0  0  0
  2  1  1  0  0  0  0
  2 11  1  0  0  0  0
  3  2  2  0  0  0  0
  4  5  2  0  0  0  0
  4  3  1  0  0  0  0
  5 10  1  0  0  0  0
  6  7  2  0  0  0  0
  6  5  1  0  0  0  0
  7  8  1  0  0  0  0
  8 16  1  0  0  0  0
  8  9  2  0  0  0  0
  9 17  1  0  0  0  0
 10  9  1  0  0  0  0
 10  1  2  0  0  0  0
 12  3  1  0  0  0  0
 13  4  1  0  0  0  0
 14  6  1  0  0  0  0
 15  7  1  0  0  0  0
 17 18  1  0  0  0  0
 18 20  1  0  0  0  0
 18 19  1  0  0  0  0
 21 20  1  0  0  0  0
 22 20  1  0  0  0  0
 23 22  1  0  0  0  0
 24 17  1  0  0  0  0
 24 23  1  0  0  0  0
 25 29  1  0  0  0  0
 25 26  1  0  0  0  0
 27 30  1  6  0  0  0
 27 29  1  0  0  0  0
 27 28  1  0  0  0  0
 28 31  1  0  0  0  0
 28 32  1  0  0  0  0
 29 33  1  1  0  0  0
 29 28  1  0  0  0  0
 34 39  1  0  0  0  0
 35 34  2  0  0  0  0
 35 36  1  0  0  0  0
 36 37  2  0  0  0  0
 37 38  1  0  0  0  0
 38 27  1  0  0  0  0
 39 38  2  0  0  0  0
 40 34  1  0  0  0  0
 41 35  1  0  0  0  0
 42 36  1  0  0  0  0
M  END
>  <minimizedAffinity>
-5.59747458

$$$$

 OpenBabel03242511103D

 42 46  0  0  1  0  0  0  0  0999 V2000
   36.1870   26.7620   39.0290 C   0  0  0  0  0  0  0  0  0  0  0  0
   35.6480   26.3800   37.8080 C   0  0  0  0  0  0  0  0  0  0  0  0
   35.5970   25.0600   37.3680 C   0  0  0  0  0  0  0  0  0  0  0  0
   36.1040   24.0530   38.1760 C   0  0  0  0  0  0  0  0  0  0  0  0
   36.6380   24.3910   39.3770 C   0  0  0  0  0  0  0  0  0  0  0  0
   37.1510   23.4160   40.2070 C   0  0  0  0  0  0  0  0  0  0  0  0
   37.7030   23.6750   41.4280 C   0  0  0  0  0  0  0  0  0  0  0  0
   37.7280   25.0090   41.8180 C   0  0  0  0  0  0  0  0  0  0  0  0
   37.2110   25.9890   40.9810 C   0  0  0  0  0  0  0  0  0  0  0  0
   36.6660   25.7120   39.7670 C   0  0  0  0  0  0  0  0  0  0  0  0
   35.2200   27.0810   37.1080 H   0  0  0  0  0  0  0  0  0  0  0  0
   35.1720   24.7850   36.4120 H   0  0  0  0  0  0  0  0  0  0  0  0
   36.0530   23.0360   37.8130 H   0  0  0  0  0  0  0  0  0  0  0  0
   37.1000   22.4080   39.8510 H   0  0  0  0  0  0  0  0  0  0  0  0
   38.0780   22.8290   42.0020 H   0  0  0  0  0  0  0  0  0  0  0  0
   38.1870   25.1250   42.8080 H   0  0  0  0  0  0  0  0  0  0  0  0
   37.3550   27.2350   41.6730 N   0  0  0  0  0  0  0  0  0  0  0  0
   36.5760   28.1720   42.4480 C   0  0  0  0  0  3  0  0  0  0  0  0
   36.3360   29.1180   41.9790 H   0  0  0  0  0  0  0  0  0  0  0  0
   37.4230   28.5230   43.6800 C   0  0  0  0  0  3  0  0  0  0  0  0
   37.6790   27.6230   44.2730 H   0  0  0  0  0  0  0  0  0  0  0  0
   38.5340   29.2710   43.3050 O   0  0  0  0  0  0  0  0  0  0  0  0
   38.8240   29.1170   41.9490 C   0  0  0  0  0  2  0  0  0  0  0  0
   38.7580   27.6810   41.5920 C   0  0  0  0  0  2  0  0  0  0  0  0
   36.1900   28.1170   39.3650 N   0  0  0  0  0  0  0  0  0  0  0  0
   35.4740   27.9850   40.0990 H   0  0  0  0  0  0  0  0  0  0  0  0
   36.9730   30.5000   38.9910 C   0  0  1  0  0  0  0  0  0  0  0  0
   36.3070   30.0230   37.7160 C   0  0  0  0  0  0  0  0  0  0  0  0
   37.0080   29.0780   38.6820 C   0  0  2  0  0  0  0  0  0  0  0  0
   36.2460   30.9680   39.6810 H   0  0  0  0  0  0  0  0  0  0  0  0
   35.2170   30.0110   37.6630 H   0  0  0  0  0  0  0  0  0  0  0  0
   36.8660   30.3160   36.7970 H   0  0  0  0  0  0  0  0  0  0  0  0
   38.0140   28.6720   38.4190 H   0  0  0  0  0  0  0  0  0  0  0  0
   40.1450   31.9110   37.6780 C   0  0  0  0  0  0  0  0  0  0  0  0
   40.5010   32.8240   38.7170 C   0  0  0  0  0  0  0  0  0  0  0  0
   39.6350   32.9320   39.8360 C   0  0  0  0  0  0  0  0  0  0  0  0
   38.5260   32.1880   39.8810 N   0  0  0  0  0  0  0  0  0  0  0  0
   38.2160   31.3300   38.8740 C   0  0  0  0  0  0  0  0  0  0  0  0
   39.0220   31.1890   37.7700 N   0  0  0  0  0  0  0  0  0  0  0  0
   40.8150   31.8330   36.8240 H   0  0  0  0  0  0  0  0  0  0  0  0
   41.3950   33.4130   38.6660 H   0  0  0  0  0  0  0  0  0  0  0  0
   39.9060   33.6300   40.6330 H   0  0  0  0  0  0  0  0  0  0  0  0
  1 25  1  0  0  0  0
  1 10  1  0  0  0  0
  2  1  2  0  0  0  0
  3  2  1  0  0  0  0
  3  4  2  0  0  0  0
  4  5  1  0  0  0  0
  5 10  2  0  0  0  0
  5  6  1  0  0  0  0
  6  7  2  0  0  0  0
  7  8  1  0  0  0  0
  7 15  1  0  0  0  0
  8 16  1  0  0  0  0
  9 17  1  0  0  0  0
  9  8  2  0  0  0  0
 10  9  1  0  0  0  0
 11  2  1  0  0  0  0
 12  3  1  0  0  0  0
 13  4  1  0  0  0  0
 14  6  1  0  0  0  0
 17 18  1  0  0  0  0
 18 20  1  0  0  0  0
 19 18  1  0  0  0  0
 20 21  1  0  0  0  0
 22 20  1  0  0  0  0
 23 22  1  0  0  0  0
 24 17  1  0  0  0  0
 24 23  1  0  0  0  0
 25 26  1  0  0  0  0
 27 30  1  1  0  0  0
 28 29  1  0  0  0  0
 28 27  1  0  0  0  0
 29 33  1  6  0  0  0
 29 27  1  0  0  0  0
 29 25  1  0  0  0  0
 31 28  1  0  0  0  0
 32 28  1  0  0  0  0
 34 39  2  0  0  0  0
 34 35  1  0  0  0  0
 35 36  2  0  0  0  0
 36 37  1  0  0  0  0
 36 42  1  0  0  0  0
 38 27  1  0  0  0  0
 38 37  2  0  0  0  0
 39 38  1  0  0  0  0
 40 34  1  0  0  0  0
 41 35  1  0  0  0  0
M  END
>  <minimizedAffinity>
-5.59091568

$$$$

 OpenBabel03242511103D

 42 46  0  0  1  0  0  0  0  0999 V2000
   38.2400   31.0200   40.9680 C   0  0  0  0  0  0  0  0  0  0  0  0
   38.3580   32.3870   40.7620 C   0  0  0  0  0  0  0  0  0  0  0  0
   37.8310   33.0460   39.6540 C   0  0  0  0  0  0  0  0  0  0  0  0
   37.1460   32.3210   38.6920 C   0  0  0  0  0  0  0  0  0  0  0  0
   37.0100   30.9810   38.8630 C   0  0  0  0  0  0  0  0  0  0  0  0
   36.3330   30.2270   37.9270 C   0  0  0  0  0  0  0  0  0  0  0  0
   36.1540   28.8780   38.0270 C   0  0  0  0  0  0  0  0  0  0  0  0
   36.7010   28.2700   39.1520 C   0  0  0  0  0  0  0  0  0  0  0  0
   37.3810   29.0300   40.0940 C   0  0  0  0  0  0  0  0  0  0  0  0
   37.5510   30.3740   39.9770 C   0  0  0  0  0  0  0  0  0  0  0  0
   38.8650   33.0450   41.4510 H   0  0  0  0  0  0  0  0  0  0  0  0
   37.9360   34.1140   39.5140 H   0  0  0  0  0  0  0  0  0  0  0  0
   36.7450   32.8550   37.8420 H   0  0  0  0  0  0  0  0  0  0  0  0
   35.9340   30.7540   37.0850 H   0  0  0  0  0  0  0  0  0  0  0  0
   35.6030   28.3820   37.2310 H   0  0  0  0  0  0  0  0  0  0  0  0
   36.5100   27.1890   39.1510 H   0  0  0  0  0  0  0  0  0  0  0  0
   37.7880   28.1300   41.1310 N   0  0  0  0  0  0  0  0  0  0  0  0
   37.4070   27.7270   42.4640 C   0  0  0  0  0  3  0  0  0  0  0  0
   38.0520   28.0420   43.2750 H   0  0  0  0  0  0  0  0  0  0  0  0
   37.4420   26.1930   42.4780 C   0  0  0  0  0  3  0  0  0  0  0  0
   36.7650   25.7590   41.7170 H   0  0  0  0  0  0  0  0  0  0  0  0
   38.7520   25.7380   42.3730 O   0  0  0  0  0  0  0  0  0  0  0  0
   39.5960   26.7150   41.8440 C   0  0  0  0  0  2  0  0  0  0  0  0
   38.9440   27.3410   40.6690 C   0  0  0  0  0  2  0  0  0  0  0  0
   38.8140   30.4630   42.1130 N   0  0  0  0  0  0  0  0  0  0  0  0
   37.9960   29.8530   42.2830 H   0  0  0  0  0  0  0  0  0  0  0  0
   41.2720   30.9740   41.7570 C   0  0  1  0  0  0  0  0  0  0  0  0
   41.1740   29.8010   42.7120 C   0  0  0  0  0  0  0  0  0  0  0  0
   40.0960   30.8720   42.6090 C   0  0  2  0  0  0  0  0  0  0  0  0
   41.3060   30.6400   40.7020 H   0  0  0  0  0  0  0  0  0  0  0  0
   40.9710   28.8080   42.3090 H   0  0  0  0  0  0  0  0  0  0  0  0
   41.8840   29.8760   43.5680 H   0  0  0  0  0  0  0  0  0  0  0  0
   40.0180   31.6490   43.4060 H   0  0  0  0  0  0  0  0  0  0  0  0
   43.2370   34.1140   41.5210 C   0  0  0  0  0  0  0  0  0  0  0  0
   44.2530   33.8870   42.4990 C   0  0  0  0  0  0  0  0  0  0  0  0
   44.2260   32.6630   43.2170 C   0  0  0  0  0  0  0  0  0  0  0  0
   43.2640   31.7730   42.9590 N   0  0  0  0  0  0  0  0  0  0  0  0
   42.3120   32.0200   42.0230 C   0  0  0  0  0  0  0  0  0  0  0  0
   42.2940   33.1910   41.3020 N   0  0  0  0  0  0  0  0  0  0  0  0
   43.2640   35.0540   40.9740 H   0  0  0  0  0  0  0  0  0  0  0  0
   45.0180   34.6110   42.6930 H   0  0  0  0  0  0  0  0  0  0  0  0
   45.0030   32.4880   43.9660 H   0  0  0  0  0  0  0  0  0  0  0  0
  1 25  1  0  0  0  0
  2  1  1  0  0  0  0
  2 11  1  0  0  0  0
  3  2  2  0  0  0  0
  4  5  2  0  0  0  0
  4  3  1  0  0  0  0
  5 10  1  0  0  0  0
  6  7  2  0  0  0  0
  6  5  1  0  0  0  0
  7  8  1  0  0  0  0
  8  9  2  0  0  0  0
  9 17  1  0  0  0  0
 10  9  1  0  0  0  0
 10  1  2  0  0  0  0
 12  3  1  0  0  0  0
 13  4  1  0  0  0  0
 14  6  1  0  0  0  0
 15  7  1  0  0  0  0
 16  8  1  0  0  0  0
 17 18  1  0  0  0  0
 18 20  1  0  0  0  0
 18 19  1  0  0  0  0
 21 20  1  0  0  0  0
 22 20  1  0  0  0  0
 23 22  1  0  0  0  0
 24 17  1  0  0  0  0
 24 23  1  0  0  0  0
 25 26  1  0  0  0  0
 25 29  1  0  0  0  0
 27 30  1  6  0  0  0
 27 38  1  0  0  0  0
 27 29  1  0  0  0  0
 27 28  1  0  0  0  0
 28 32  1  0  0  0  0
 29 28  1  0  0  0  0
 29 33  1  1  0  0  0
 31 28  1  0  0  0  0
 34 35  1  0  0  0  0
 35 41  1  0  0  0  0
 35 36  2  0  0  0  0
 36 42  1  0  0  0  0
 37 36  1  0  0  0  0
 38 37  2  0  0  0  0
 39 34  2  0  0  0  0
 39 38  1  0  0  0  0
 40 34  1  0  0  0  0
M  END
>  <minimizedAffinity>
-5.43634605

$$$$

 OpenBabel03242511103D

 42 46  0  0  1  0  0  0  0  0999 V2000
   37.1420   26.8360   39.8450 C   0  0  0  0  0  0  0  0  0  0  0  0
   36.9830   25.4580   39.7910 C   0  0  0  0  0  0  0  0  0  0  0  0
   36.8870   24.6490   40.9210 C   0  0  0  0  0  0  0  0  0  0  0  0
   36.9500   25.2270   42.1790 C   0  0  0  0  0  0  0  0  0  0  0  0
   37.1030   26.5730   42.2690 C   0  0  0  0  0  0  0  0  0  0  0  0
   37.1680   27.1830   43.5050 C   0  0  0  0  0  0  0  0  0  0  0  0
   37.3210   28.5280   43.6780 C   0  0  0  0  0  0  0  0  0  0  0  0
   37.4120   29.2880   42.5170 C   0  0  0  0  0  0  0  0  0  0  0  0
   37.3460   28.6730   41.2740 C   0  0  0  0  0  0  0  0  0  0  0  0
   37.1940   27.3300   41.1210 C   0  0  0  0  0  0  0  0  0  0  0  0
   36.9160   24.9090   38.8640 H   0  0  0  0  0  0  0  0  0  0  0  0
   36.7640   23.5770   40.8540 H   0  0  0  0  0  0  0  0  0  0  0  0
   36.8720   24.5790   43.0410 H   0  0  0  0  0  0  0  0  0  0  0  0
   37.0900   26.5430   44.3590 H   0  0  0  0  0  0  0  0  0  0  0  0
   37.3600   28.9040   44.6990 H   0  0  0  0  0  0  0  0  0  0  0  0
   37.5330   30.3540   42.7490 H   0  0  0  0  0  0  0  0  0  0  0  0
   37.4360   29.7150   40.2960 N   0  0  0  0  0  0  0  0  0  0  0  0
   36.6040   30.4380   39.3640 C   0  0  0  0  0  3  0  0  0  0  0  0
   36.7450   30.2250   38.3120 H   0  0  0  0  0  0  0  0  0  0  0  0
   36.9500   31.9230   39.5360 C   0  0  0  0  0  3  0  0  0  0  0  0
   36.7830   32.2660   40.5760 H   0  0  0  0  0  0  0  0  0  0  0  0
   38.2370   32.1760   39.0720 O   0  0  0  0  0  0  0  0  0  0  0  0
   39.0000   31.0100   39.0100 C   0  0  0  0  0  2  0  0  0  0  0  0
   38.8150   30.2350   40.2590 C   0  0  0  0  0  2  0  0  0  0  0  0
   37.2330   27.5470   38.6470 N   0  0  0  0  0  0  0  0  0  0  0  0
   36.4830   28.2030   38.9250 H   0  0  0  0  0  0  0  0  0  0  0  0
   39.4410   27.8140   37.4290 C   0  0  1  0  0  0  0  0  0  0  0  0
   38.3300   28.1760   36.4640 C   0  0  0  0  0  0  0  0  0  0  0  0
   38.1420   27.1800   37.6000 C   0  0  2  0  0  0  0  0  0  0  0  0
   39.7840   28.6940   38.0070 H   0  0  0  0  0  0  0  0  0  0  0  0
   37.8640   29.1590   36.5420 H   0  0  0  0  0  0  0  0  0  0  0  0
   38.4880   27.7580   35.4430 H   0  0  0  0  0  0  0  0  0  0  0  0
   38.1120   26.0880   37.3720 H   0  0  0  0  0  0  0  0  0  0  0  0
   42.8290   26.9670   36.1710 C   0  0  0  0  0  0  0  0  0  0  0  0
   42.6930   25.5690   35.9100 C   0  0  0  0  0  0  0  0  0  0  0  0
   41.4430   24.9580   36.1840 C   0  0  0  0  0  0  0  0  0  0  0  0
   40.4430   25.6990   36.6710 N   0  0  0  0  0  0  0  0  0  0  0  0
   40.6050   27.0260   36.9080 C   0  0  0  0  0  0  0  0  0  0  0  0
   41.7980   27.6650   36.6600 N   0  0  0  0  0  0  0  0  0  0  0  0
   43.7910   27.4290   35.9570 H   0  0  0  0  0  0  0  0  0  0  0  0
   43.5050   24.9890   35.5190 H   0  0  0  0  0  0  0  0  0  0  0  0
   41.3370   23.8880   35.9860 H   0  0  0  0  0  0  0  0  0  0  0  0
  1 10  1  0  0  0  0
  2  1  2  0  0  0  0
  2  3  1  0  0  0  0
  3  4  2  0  0  0  0
  4  5  1  0  0  0  0
  4 13  1  0  0  0  0
  5  6  1  0  0  0  0
  6  7  2  0  0  0  0
  6 14  1  0  0  0  0
  7 15  1  0  0  0  0
  8 16  1  0  0  0  0
  8  7  1  0  0  0  0
  9  8  2  0  0  0  0
 10  9  1  0  0  0  0
 10  5  2  0  0  0  0
 11  2  1  0  0  0  0
 12  3  1  0  0  0  0
 17  9  1  0  0  0  0
 18 20  1  0  0  0  0
 18 17  1  0  0  0  0
 19 18  1  0  0  0  0
 20 21  1  0  0  0  0
 22 20  1  0  0  0  0
 23 22  1  0  0  0  0
 23 24  1  0  0  0  0
 24 17  1  0  0  0  0
 25 26  1  0  0  0  0
 25  1  1  0  0  0  0
 27 29  1  0  0  0  0
 27 30  1  1  0  0  0
 28 31  1  0  0  0  0
 28 27  1  0  0  0  0
 28 29  1  0  0  0  0
 29 33  1  6  0  0  0
 29 25  1  0  0  0  0
 32 28  1  0  0  0  0
 34 39  1  0  0  0  0
 35 34  2  0  0  0  0
 35 36  1  0  0  0  0
 36 37  2  0  0  0  0
 37 38  1  0  0  0  0
 38 27  1  0  0  0  0
 39 38  2  0  0  0  0
 40 34  1  0  0  0  0
 41 35  1  0  0  0  0
 42 36  1  0  0  0  0
M  END
>  <minimizedAffinity>
-5.42182779

$$$$
