REMARK  Name = 
REMARK  3 active torsions:
REMARK  status: ('A' for Active; 'I' for Inactive)
REMARK    1  A    between atoms: C_2  and  C_14
REMARK    2  A    between atoms: C_3  and  S_16
REMARK    3  A    between atoms: S_16  and  C_26
REMARK                            x       y       z     vdW  Elec       q    Type
REMARK                         _______ _______ _______ _____ _____    ______ ____
ROOT
ATOM      1  C   UNL     1      47.466  31.680  44.822  0.00  0.00    +0.000 A 
ATOM      2  C   UNL     1      46.786  32.866  44.539  0.00  0.00    +0.000 A 
ATOM      3  C   UNL     1      45.907  33.462  45.430  0.00  0.00    +0.000 A 
ATOM      4  C   UNL     1      45.685  32.855  46.673  0.00  0.00    +0.000 A 
ATOM      5  N   UNL     1      44.931  33.125  47.753  0.00  0.00    +0.000 N 
ATOM      6  C   UNL     1      45.106  32.173  48.688  0.00  0.00    +0.000 A 
ATOM      7  N   UNL     1      45.986  31.309  48.160  0.00  0.00    +0.000 NA
ATOM      8  C   UNL     1      46.363  31.693  46.929  0.00  0.00    +0.000 A 
ATOM      9  C   UNL     1      47.248  31.071  46.060  0.00  0.00    +0.000 A 
ATOM     10  H   UNL     1      48.150  31.223  44.123  0.00  0.00    +0.000 HD
ATOM     11  H   UNL     1      44.306  33.946  47.857  0.00  0.00    +0.000 HD
ATOM     12  H   UNL     1      44.635  32.123  49.656  0.00  0.00    +0.000 HD
ATOM     13  H   UNL     1      47.751  30.161  46.314  0.00  0.00    +0.000 HD
ENDROOT
BRANCH   2  18
ATOM     14  C   UNL     1      46.377  33.808  41.022  0.00  0.00    +0.000 A 
ATOM     15  C   UNL     1      47.422  34.718  40.817  0.00  0.00    +0.000 A 
ATOM     16  C   UNL     1      48.255  34.993  41.899  0.00  0.00    +0.000 A 
ATOM     17  N   UNL     1      48.028  34.377  43.105  0.00  0.00    +0.000 NA
ATOM     18  C   UNL     1      47.006  33.508  43.247  0.00  0.00    +0.000 A 
ATOM     19  N   UNL     1      46.165  33.206  42.220  0.00  0.00    +0.000 NA
ATOM     20  H   UNL     1      45.656  33.502  40.271  0.00  0.00    +0.000 HD
ATOM     21  H   UNL     1      47.491  35.128  39.831  0.00  0.00    +0.000 HD
ATOM     22  H   UNL     1      49.051  35.688  41.734  0.00  0.00    +0.000 HD
ENDBRANCH   2  18
BRANCH   3  23
ATOM     23  S   UNL     1      45.060  34.973  45.051  0.00  0.00    +0.000 S 
BRANCH  23  26
ATOM     24  H   UNL     1      42.837  36.008  45.614  0.00  0.00    +0.000 HD
ATOM     25  N   UNL     1      42.438  35.131  45.158  0.00  0.00    +0.000 NA
ATOM     26  C   UNL     1      43.468  34.718  44.227  0.00  0.00    +0.000 C 
ATOM     27  C   UNL     1      43.488  35.610  42.982  0.00  0.00    +0.000 C 
ATOM     28  H   UNL     1      44.013  36.566  43.179  0.00  0.00    +0.000 HD
ATOM     29  O   UNL     1      42.239  35.892  42.492  0.00  0.00    +0.000 OA
ATOM     30  C   UNL     1      41.197  35.189  43.038  0.00  0.00    +0.000 C 
ATOM     31  C   UNL     1      41.176  35.403  44.532  0.00  0.00    +0.000 C 
ENDBRANCH  23  26
ENDBRANCH   3  23
TORSDOF 3
