REMARK  Name = 
REMARK  3 active torsions:
REMARK  status: ('A' for Active; 'I' for Inactive)
REMARK    1  A    between atoms: C_1  and  O_16
REMARK    2  A    between atoms: C_3  and  C_8
REMARK    3  A    between atoms: O_16  and  C_17
REMARK                            x       y       z     vdW  Elec       q    Type
REMARK                         _______ _______ _______ _____ _____    ______ ____
ROOT
ATOM      1  C   UNL     1      45.504  34.832  43.533  0.00  0.00    +0.000 A 
ATOM      2  C   UNL     1      46.217  33.751  44.112  0.00  0.00    +0.000 A 
ATOM      3  C   UNL     1      46.024  33.523  45.465  0.00  0.00    +0.000 A 
ATOM      4  N   UNL     1      45.189  34.316  46.158  0.00  0.00    +0.000 NA
ATOM      5  C   UNL     1      44.519  35.342  45.584  0.00  0.00    +0.000 A 
ATOM      6  N   UNL     1      44.678  35.591  44.289  0.00  0.00    +0.000 NA
ATOM      7  H   UNL     1      46.880  33.114  43.587  0.00  0.00    +0.000 HD
ATOM      8  H   UNL     1      43.887  35.895  46.247  0.00  0.00    +0.000 HD
ENDROOT
BRANCH   3  10
ATOM      9  C   UNL     1      46.996  32.679  47.534  0.00  0.00    +0.000 A 
ATOM     10  C   UNL     1      46.690  32.442  46.200  0.00  0.00    +0.000 A 
ATOM     11  C   UNL     1      47.021  31.226  45.665  0.00  0.00    +0.000 A 
ATOM     12  C   UNL     1      47.642  30.247  46.410  0.00  0.00    +0.000 A 
ATOM     13  N   UNL     1      48.053  28.994  46.090  0.00  0.00    +0.000 N 
ATOM     14  C   UNL     1      48.618  28.444  47.226  0.00  0.00    +0.000 A 
ATOM     15  N   UNL     1      48.536  29.377  48.207  0.00  0.00    +0.000 NA
ATOM     16  C   UNL     1      47.944  30.474  47.717  0.00  0.00    +0.000 A 
ATOM     17  C   UNL     1      47.621  31.693  48.285  0.00  0.00    +0.000 A 
ATOM     18  H   UNL     1      46.767  33.622  48.047  0.00  0.00    +0.000 HD
ATOM     19  H   UNL     1      46.769  31.078  44.624  0.00  0.00    +0.000 HD
ATOM     20  H   UNL     1      47.932  28.582  45.133  0.00  0.00    +0.000 HD
ATOM     21  H   UNL     1      49.001  27.451  47.161  0.00  0.00    +0.000 HD
ATOM     22  H   UNL     1      47.868  31.864  49.334  0.00  0.00    +0.000 HD
ENDBRANCH   3  10
BRANCH   1  23
ATOM     23  O   UNL     1      45.695  35.068  42.172  0.00  0.00    +0.000 OA
BRANCH  23  24
ATOM     24  C   UNL     1      44.619  34.923  41.294  0.00  0.00    +0.000 A 
ATOM     25  C   UNL     1      45.015  33.835  40.608  0.00  0.00    +0.000 A 
ATOM     26  S   UNL     1      43.559  33.593  39.390  0.00  0.00    +0.000 S 
ATOM     27  C   UNL     1      42.721  35.109  40.145  0.00  0.00    +0.000 A 
ATOM     28  N   UNL     1      43.455  35.394  40.903  0.00  0.00    +0.000 NA
ATOM     29  H   UNL     1      45.711  32.856  40.225  0.00  0.00    +0.000 HD
ATOM     30  N   UNL     1      41.425  35.620  39.712  0.00  0.00    +0.000 N 
ATOM     31  C   UNL     1      40.212  35.396  40.459  0.00  0.00    +0.000 C 
ATOM     32  H   UNL     1      40.241  34.406  40.989  0.00  0.00    +0.000 HD
ATOM     33  C   UNL     1      39.000  35.542  39.604  0.00  0.00    +0.000 C 
ATOM     34  H   UNL     1      38.608  36.590  39.717  0.00  0.00    +0.000 HD
ATOM     35  O   UNL     1      39.125  35.158  38.299  0.00  0.00    +0.000 OA
ATOM     36  C   UNL     1      40.274  35.534  37.651  0.00  0.00    +0.000 C 
ATOM     37  C   UNL     1      41.216  36.375  38.507  0.00  0.00    +0.000 C 
ENDBRANCH  23  24
ENDBRANCH   1  23
TORSDOF 3
