
 OpenBabel03252506033D

 27 29  0  0  0  0  0  0  0  0999 V2000
   35.5840   28.3190   39.6580 Cl  0  0  0  0  0  0  0  0  0  0  0  0
   36.8060   29.4850   39.2990 C   0  0  0  0  0  0  0  0  0  0  0  0
   37.8760   29.6680   40.1410 C   0  0  0  0  0  0  0  0  0  0  0  0
   38.8060   30.6220   39.7740 C   0  0  0  0  0  0  0  0  0  0  0  0
   38.7120   31.3920   38.6210 C   0  0  0  0  0  0  0  0  0  0  0  0
   37.6350   31.1910   37.7970 C   0  0  0  0  0  0  0  0  0  0  0  0
   37.5660   32.1810   36.3630 Cl  0  0  0  0  0  0  0  0  0  0  0  0
   36.6930   30.2510   38.1300 C   0  0  0  0  0  0  0  0  0  0  0  0
   39.6370   30.7360   40.4690 H   0  0  0  0  0  0  0  0  0  0  0  0
   35.8510   30.1170   37.4530 H   0  0  0  0  0  0  0  0  0  0  0  0
   38.9270   26.9970   42.4050 C   0  0  0  0  0  0  0  0  0  0  0  0
   38.3640   27.3800   43.6360 C   0  0  0  0  0  0  0  0  0  0  0  0
   37.6170   28.5720   43.6800 C   0  0  0  0  0  0  0  0  0  0  0  0
   37.4860   29.2780   42.5260 N   0  0  0  0  0  0  0  0  0  0  0  0
   38.0320   28.8880   41.3730 C   0  0  0  0  0  0  0  0  0  0  0  0
   38.7610   27.7410   41.2970 N   0  0  0  0  0  0  0  0  0  0  0  0
   39.4970   26.0710   42.4110 H   0  0  0  0  0  0  0  0  0  0  0  0
   38.4970   26.7880   44.5190 H   0  0  0  0  0  0  0  0  0  0  0  0
   37.1660   28.9070   44.6030 H   0  0  0  0  0  0  0  0  0  0  0  0
   39.7870   32.3250   38.4330 N   0  0  0  0  0  0  0  0  0  0  0  0
   39.9380   33.4670   39.3300 C   0  0  0  0  0  3  0  0  0  0  0  0
   39.7440   33.2490   40.3760 H   0  0  0  0  0  0  0  0  0  0  0  0
   41.3070   34.0570   39.2090 C   0  0  0  0  0  3  0  0  0  0  0  0
   41.9910   33.6170   39.9860 H   0  0  0  0  0  0  0  0  0  0  0  0
   41.8370   33.9970   37.9260 O   0  0  0  0  0  0  0  0  0  0  0  0
   42.0560   32.6790   37.5630 C   0  0  0  0  0  2  0  0  0  0  0  0
   40.6980   32.0610   37.3110 C   0  0  0  0  0  2  0  0  0  0  0  0
  2  1  1  0  0  0  0
  2  3  1  0  0  0  0
  3 15  1  0  0  0  0
  4  3  2  0  0  0  0
  4  9  1  0  0  0  0
  5  4  1  0  0  0  0
  6  8  1  0  0  0  0
  6  5  2  0  0  0  0
  7  6  1  0  0  0  0
  8  2  2  0  0  0  0
 10  8  1  0  0  0  0
 11 17  1  0  0  0  0
 11 12  1  0  0  0  0
 12 13  2  0  0  0  0
 12 18  1  0  0  0  0
 13 19  1  0  0  0  0
 14 13  1  0  0  0  0
 15 14  2  0  0  0  0
 16 15  1  0  0  0  0
 16 11  2  0  0  0  0
 20  5  1  0  0  0  0
 20 21  1  0  0  0  0
 21 22  1  0  0  0  0
 23 21  1  0  0  0  0
 23 24  1  0  0  0  0
 25 23  1  0  0  0  0
 26 25  1  0  0  0  0
 27 26  1  0  0  0  0
 27 20  1  0  0  0  0
M  END
>  <minimizedAffinity>
-4.89835358

$$$$

 OpenBabel03252506033D

 27 29  0  0  0  0  0  0  0  0999 V2000
   37.6980   31.9930   36.4160 Cl  0  0  0  0  0  0  0  0  0  0  0  0
   37.7460   31.0320   37.8500 C   0  0  0  0  0  0  0  0  0  0  0  0
   38.9170   30.8640   38.5480 C   0  0  0  0  0  0  0  0  0  0  0  0
   38.8620   30.0800   39.6840 C   0  0  0  0  0  0  0  0  0  0  0  0
   37.7060   29.4640   40.1450 C   0  0  0  0  0  0  0  0  0  0  0  0
   36.5490   29.6460   39.4300 C   0  0  0  0  0  0  0  0  0  0  0  0
   35.1260   28.8530   40.0520 Cl  0  0  0  0  0  0  0  0  0  0  0  0
   36.5670   30.4190   38.2970 C   0  0  0  0  0  0  0  0  0  0  0  0
   39.8110   29.9730   40.2070 H   0  0  0  0  0  0  0  0  0  0  0  0
   35.6320   30.5430   37.7550 H   0  0  0  0  0  0  0  0  0  0  0  0
   41.5380   33.3780   38.1300 C   0  0  0  0  0  0  0  0  0  0  0  0
   42.4950   32.7160   37.3400 C   0  0  0  0  0  0  0  0  0  0  0  0
   42.2280   31.3910   36.9510 C   0  0  0  0  0  0  0  0  0  0  0  0
   41.0600   30.8340   37.3640 N   0  0  0  0  0  0  0  0  0  0  0  0
   40.1710   31.4880   38.1140 C   0  0  0  0  0  0  0  0  0  0  0  0
   40.3990   32.7700   38.5080 N   0  0  0  0  0  0  0  0  0  0  0  0
   41.7790   34.4010   38.4110 H   0  0  0  0  0  0  0  0  0  0  0  0
   43.4020   33.2010   37.0400 H   0  0  0  0  0  0  0  0  0  0  0  0
   42.9340   30.8410   36.3430 H   0  0  0  0  0  0  0  0  0  0  0  0
   37.8720   28.6930   41.3440 N   0  0  0  0  0  0  0  0  0  0  0  0
   37.5370   29.2680   42.6440 C   0  0  0  0  0  3  0  0  0  0  0  0
   36.6360   29.8750   42.6500 H   0  0  0  0  0  0  0  0  0  0  0  0
   37.4010   28.1970   43.6780 C   0  0  0  0  0  3  0  0  0  0  0  0
   36.3260   27.8780   43.7710 H   0  0  0  0  0  0  0  0  0  0  0  0
   38.2680   27.1260   43.5000 O   0  0  0  0  0  0  0  0  0  0  0  0
   37.9530   26.4480   42.3350 C   0  0  0  0  0  2  0  0  0  0  0  0
   38.3860   27.3260   41.1820 C   0  0  0  0  0  2  0  0  0  0  0  0
  1  2  1  0  0  0  0
  2  8  2  0  0  0  0
  2  3  1  0  0  0  0
  3  4  2  0  0  0  0
  4  5  1  0  0  0  0
  4  9  1  0  0  0  0
  5 20  1  0  0  0  0
  6  7  1  0  0  0  0
  6  5  2  0  0  0  0
  8  6  1  0  0  0  0
 10  8  1  0  0  0  0
 11 17  1  0  0  0  0
 11 16  1  0  0  0  0
 12 11  2  0  0  0  0
 13 12  1  0  0  0  0
 13 14  2  0  0  0  0
 14 15  1  0  0  0  0
 15 16  2  0  0  0  0
 15  3  1  0  0  0  0
 18 12  1  0  0  0  0
 19 13  1  0  0  0  0
 20 21  1  0  0  0  0
 21 22  1  0  0  0  0
 21 23  1  0  0  0  0
 23 24  1  0  0  0  0
 25 23  1  0  0  0  0
 26 25  1  0  0  0  0
 27 20  1  0  0  0  0
 27 26  1  0  0  0  0
M  END
>  <minimizedAffinity>
-4.82648563

$$$$

 OpenBabel03252506033D

 27 29  0  0  0  0  0  0  0  0999 V2000
   37.3220   33.8250   39.5550 Cl  0  0  0  0  0  0  0  0  0  0  0  0
   37.6480   32.1880   39.9960 C   0  0  0  0  0  0  0  0  0  0  0  0
   38.9370   31.7140   40.0490 C   0  0  0  0  0  0  0  0  0  0  0  0
   39.1030   30.3920   40.4120 C   0  0  0  0  0  0  0  0  0  0  0  0
   38.0540   29.5350   40.7180 C   0  0  0  0  0  0  0  0  0  0  0  0
   36.7770   30.0310   40.6590 C   0  0  0  0  0  0  0  0  0  0  0  0
   35.4970   28.9150   41.0550 Cl  0  0  0  0  0  0  0  0  0  0  0  0
   36.5750   31.3400   40.3020 C   0  0  0  0  0  0  0  0  0  0  0  0
   40.1390   30.0560   40.4400 H   0  0  0  0  0  0  0  0  0  0  0  0
   35.5480   31.7010   40.2650 H   0  0  0  0  0  0  0  0  0  0  0  0
   41.5230   33.4120   38.1020 C   0  0  0  0  0  0  0  0  0  0  0  0
   42.2280   34.1450   39.0740 C   0  0  0  0  0  0  0  0  0  0  0  0
   41.8020   34.0490   40.4120 C   0  0  0  0  0  0  0  0  0  0  0  0
   40.7350   33.2510   40.6800 N   0  0  0  0  0  0  0  0  0  0  0  0
   40.0870   32.5680   39.7350 C   0  0  0  0  0  0  0  0  0  0  0  0
   40.4720   32.6400   38.4320 N   0  0  0  0  0  0  0  0  0  0  0  0
   41.8820   33.5120   37.0800 H   0  0  0  0  0  0  0  0  0  0  0  0
   43.0640   34.7610   38.8110 H   0  0  0  0  0  0  0  0  0  0  0  0
   42.3120   34.5930   41.1940 H   0  0  0  0  0  0  0  0  0  0  0  0
   38.4510   28.2000   41.0700 N   0  0  0  0  0  0  0  0  0  0  0  0
   38.7390   27.8570   42.4590 C   0  0  0  0  0  3  0  0  0  0  0  0
   38.0630   28.3040   43.1840 H   0  0  0  0  0  0  0  0  0  0  0  0
   38.7340   26.3740   42.6510 C   0  0  0  0  0  3  0  0  0  0  0  0
   37.7180   26.0280   42.9890 H   0  0  0  0  0  0  0  0  0  0  0  0
   39.2110   25.6620   41.5570 O   0  0  0  0  0  0  0  0  0  0  0  0
   38.3570   25.8190   40.4790 C   0  0  0  0  0  2  0  0  0  0  0  0
   38.5450   27.2310   39.9700 C   0  0  0  0  0  2  0  0  0  0  0  0
  1  2  1  0  0  0  0
  2  3  2  0  0  0  0
  2  8  1  0  0  0  0
  3  4  1  0  0  0  0
  4  9  1  0  0  0  0
  4  5  2  0  0  0  0
  5 20  1  0  0  0  0
  6  5  1  0  0  0  0
  6  7  1  0  0  0  0
  8  6  2  0  0  0  0
 10  8  1  0  0  0  0
 11 16  2  0  0  0  0
 11 12  1  0  0  0  0
 12 13  2  0  0  0  0
 13 14  1  0  0  0  0
 13 19  1  0  0  0  0
 15  3  1  0  0  0  0
 15 14  2  0  0  0  0
 16 15  1  0  0  0  0
 17 11  1  0  0  0  0
 18 12  1  0  0  0  0
 20 21  1  0  0  0  0
 21 23  1  0  0  0  0
 21 22  1  0  0  0  0
 23 24  1  0  0  0  0
 25 23  1  0  0  0  0
 26 25  1  0  0  0  0
 27 26  1  0  0  0  0
 27 20  1  0  0  0  0
M  END
>  <minimizedAffinity>
-4.81065559

$$$$

 OpenBabel03252506033D

 27 29  0  0  0  0  0  0  0  0999 V2000
   35.8760   28.6250   41.4960 Cl  0  0  0  0  0  0  0  0  0  0  0  0
   37.0390   29.7770   40.9500 C   0  0  0  0  0  0  0  0  0  0  0  0
   38.3860   29.5210   41.0470 C   0  0  0  0  0  0  0  0  0  0  0  0
   39.2440   30.4990   40.5850 C   0  0  0  0  0  0  0  0  0  0  0  0
   38.8230   31.7060   40.0410 C   0  0  0  0  0  0  0  0  0  0  0  0
   37.4740   31.9390   39.9550 C   0  0  0  0  0  0  0  0  0  0  0  0
   36.9980   33.4670   39.2630 Cl  0  0  0  0  0  0  0  0  0  0  0  0
   36.5930   30.9890   40.4040 C   0  0  0  0  0  0  0  0  0  0  0  0
   40.3020   30.2570   40.6800 H   0  0  0  0  0  0  0  0  0  0  0  0
   35.5290   31.2060   40.3210 H   0  0  0  0  0  0  0  0  0  0  0  0
   39.5350   27.0870   43.5200 C   0  0  0  0  0  0  0  0  0  0  0  0
   39.8420   25.9570   42.7410 C   0  0  0  0  0  0  0  0  0  0  0  0
   39.6480   26.0410   41.3500 C   0  0  0  0  0  0  0  0  0  0  0  0
   39.1760   27.2120   40.8470 N   0  0  0  0  0  0  0  0  0  0  0  0
   38.8950   28.2670   41.6130 C   0  0  0  0  0  0  0  0  0  0  0  0
   39.0700   28.2190   42.9620 N   0  0  0  0  0  0  0  0  0  0  0  0
   39.6980   26.9840   44.5910 H   0  0  0  0  0  0  0  0  0  0  0  0
   40.2110   25.0560   43.1870 H   0  0  0  0  0  0  0  0  0  0  0  0
   39.8690   25.1980   40.7100 H   0  0  0  0  0  0  0  0  0  0  0  0
   39.8820   32.5800   39.6240 N   0  0  0  0  0  0  0  0  0  0  0  0
   40.4180   33.5820   40.5420 C   0  0  0  0  0  3  0  0  0  0  0  0
   40.5270   33.2410   41.5680 H   0  0  0  0  0  0  0  0  0  0  0  0
   41.7400   34.0880   40.0610 C   0  0  0  0  0  3  0  0  0  0  0  0
   42.5770   33.5030   40.5340 H   0  0  0  0  0  0  0  0  0  0  0  0
   41.8480   34.1610   38.6780 O   0  0  0  0  0  0  0  0  0  0  0  0
   41.8060   32.8900   38.1290 C   0  0  0  0  0  2  0  0  0  0  0  0
   40.3790   32.4050   38.2520 C   0  0  0  0  0  2  0  0  0  0  0  0
  2  3  1  0  0  0  0
  2  1  1  0  0  0  0
  3 15  1  0  0  0  0
  4  9  1  0  0  0  0
  4  3  2  0  0  0  0
  5  4  1  0  0  0  0
  6  5  2  0  0  0  0
  6  8  1  0  0  0  0
  7  6  1  0  0  0  0
  8  2  2  0  0  0  0
 10  8  1  0  0  0  0
 11 17  1  0  0  0  0
 12 18  1  0  0  0  0
 12 11  2  0  0  0  0
 13 12  1  0  0  0  0
 14 13  2  0  0  0  0
 14 15  1  0  0  0  0
 15 16  2  0  0  0  0
 16 11  1  0  0  0  0
 19 13  1  0  0  0  0
 20  5  1  0  0  0  0
 20 21  1  0  0  0  0
 21 22  1  0  0  0  0
 23 24  1  0  0  0  0
 23 21  1  0  0  0  0
 25 23  1  0  0  0  0
 26 27  1  0  0  0  0
 26 25  1  0  0  0  0
 27 20  1  0  0  0  0
M  END
>  <minimizedAffinity>
-4.80727673

$$$$

 OpenBabel03252506033D

 27 29  0  0  0  0  0  0  0  0999 V2000
   39.8750   25.7260   43.6800 Cl  0  0  0  0  0  0  0  0  0  0  0  0
   39.4350   27.0670   42.6850 C   0  0  0  0  0  0  0  0  0  0  0  0
   38.7120   26.8820   41.5310 C   0  0  0  0  0  0  0  0  0  0  0  0
   38.4040   28.0110   40.7980 C   0  0  0  0  0  0  0  0  0  0  0  0
   38.7820   29.2980   41.1610 C   0  0  0  0  0  0  0  0  0  0  0  0
   39.5030   29.4560   42.3170 C   0  0  0  0  0  0  0  0  0  0  0  0
   39.9520   31.0910   42.7280 Cl  0  0  0  0  0  0  0  0  0  0  0  0
   39.8270   28.3560   43.0700 C   0  0  0  0  0  0  0  0  0  0  0  0
   37.8310   27.8210   39.8910 H   0  0  0  0  0  0  0  0  0  0  0  0
   40.3990   28.5180   43.9810 H   0  0  0  0  0  0  0  0  0  0  0  0
   36.5670   23.9740   40.9800 C   0  0  0  0  0  0  0  0  0  0  0  0
   37.4120   23.0750   40.3030 C   0  0  0  0  0  0  0  0  0  0  0  0
   38.7320   23.4820   40.0380 C   0  0  0  0  0  0  0  0  0  0  0  0
   39.1080   24.7200   40.4530 N   0  0  0  0  0  0  0  0  0  0  0  0
   38.2830   25.5500   41.0930 C   0  0  0  0  0  0  0  0  0  0  0  0
   37.0000   25.1880   41.3650 N   0  0  0  0  0  0  0  0  0  0  0  0
   35.5540   23.6240   41.1670 H   0  0  0  0  0  0  0  0  0  0  0  0
   37.0670   22.1090   39.9960 H   0  0  0  0  0  0  0  0  0  0  0  0
   39.4190   22.8250   39.5210 H   0  0  0  0  0  0  0  0  0  0  0  0
   38.3580   30.3280   40.2550 N   0  0  0  0  0  0  0  0  0  0  0  0
   37.1220   31.0640   40.5010 C   0  0  0  0  0  3  0  0  0  0  0  0
   36.9460   31.3160   41.5430 H   0  0  0  0  0  0  0  0  0  0  0  0
   37.0830   32.3200   39.6900 C   0  0  0  0  0  3  0  0  0  0  0  0
   37.4770   33.1850   40.2920 H   0  0  0  0  0  0  0  0  0  0  0  0
   37.6890   32.2070   38.4450 O   0  0  0  0  0  0  0  0  0  0  0  0
   39.0500   32.0000   38.5950 C   0  0  0  0  0  2  0  0  0  0  0  0
   39.2260   30.5840   39.0980 C   0  0  0  0  0  2  0  0  0  0  0  0
  2  8  1  0  0  0  0
  2  1  1  0  0  0  0
  3  2  2  0  0  0  0
  4  5  2  0  0  0  0
  4  3  1  0  0  0  0
  5  6  1  0  0  0  0
  6  7  1  0  0  0  0
  6  8  2  0  0  0  0
  8 10  1  0  0  0  0
  9  4  1  0  0  0  0
 11 17  1  0  0  0  0
 11 16  1  0  0  0  0
 12 11  2  0  0  0  0
 13 12  1  0  0  0  0
 13 14  2  0  0  0  0
 14 15  1  0  0  0  0
 15 16  2  0  0  0  0
 15  3  1  0  0  0  0
 18 12  1  0  0  0  0
 19 13  1  0  0  0  0
 20 21  1  0  0  0  0
 20  5  1  0  0  0  0
 21 22  1  0  0  0  0
 23 24  1  0  0  0  0
 23 21  1  0  0  0  0
 25 26  1  0  0  0  0
 25 23  1  0  0  0  0
 26 27  1  0  0  0  0
 27 20  1  0  0  0  0
M  END
>  <minimizedAffinity>
-4.71725655

$$$$

 OpenBabel03252506033D

 27 29  0  0  0  0  0  0  0  0999 V2000
   35.3250   29.2630   40.2760 Cl  0  0  0  0  0  0  0  0  0  0  0  0
   36.7180   28.4030   40.8270 C   0  0  0  0  0  0  0  0  0  0  0  0
   37.9620   28.9860   40.8040 C   0  0  0  0  0  0  0  0  0  0  0  0
   39.0190   28.2250   41.2640 C   0  0  0  0  0  0  0  0  0  0  0  0
   38.8900   26.9250   41.7350 C   0  0  0  0  0  0  0  0  0  0  0  0
   37.6380   26.3640   41.7470 C   0  0  0  0  0  0  0  0  0  0  0  0
   37.5300   24.7320   42.3510 Cl  0  0  0  0  0  0  0  0  0  0  0  0
   36.5660   27.0920   41.2990 C   0  0  0  0  0  0  0  0  0  0  0  0
   39.9870   28.7240   41.2280 H   0  0  0  0  0  0  0  0  0  0  0  0
   35.5870   26.6170   41.3230 H   0  0  0  0  0  0  0  0  0  0  0  0
   38.3680   31.7790   38.4810 C   0  0  0  0  0  0  0  0  0  0  0  0
   38.5380   32.8840   39.3340 C   0  0  0  0  0  0  0  0  0  0  0  0
   38.5110   32.6590   40.7220 C   0  0  0  0  0  0  0  0  0  0  0  0
   38.3230   31.3830   41.1510 N   0  0  0  0  0  0  0  0  0  0  0  0
   38.1650   30.3550   40.3170 C   0  0  0  0  0  0  0  0  0  0  0  0
   38.1850   30.5390   38.9690 N   0  0  0  0  0  0  0  0  0  0  0  0
   38.3950   31.9930   37.4150 H   0  0  0  0  0  0  0  0  0  0  0  0
   38.6840   33.8720   38.9450 H   0  0  0  0  0  0  0  0  0  0  0  0
   38.6380   33.4770   41.4170 H   0  0  0  0  0  0  0  0  0  0  0  0
   40.1170   26.3160   42.1640 N   0  0  0  0  0  0  0  0  0  0  0  0
   40.8780   25.4670   41.2510 C   0  0  0  0  0  3  0  0  0  0  0  0
   40.9170   25.8270   40.2270 H   0  0  0  0  0  0  0  0  0  0  0  0
   42.2770   25.2770   41.7460 C   0  0  0  0  0  3  0  0  0  0  0  0
   42.9610   26.0400   41.2830 H   0  0  0  0  0  0  0  0  0  0  0  0
   42.3830   25.2260   43.1310 O   0  0  0  0  0  0  0  0  0  0  0  0
   42.0440   26.4510   43.6800 C   0  0  0  0  0  2  0  0  0  0  0  0
   40.5450   26.5960   43.5410 C   0  0  0  0  0  2  0  0  0  0  0  0
  1  2  1  0  0  0  0
  2  8  1  0  0  0  0
  3  2  2  0  0  0  0
  3  4  1  0  0  0  0
  4  5  2  0  0  0  0
  5  6  1  0  0  0  0
  5 20  1  0  0  0  0
  6  7  1  0  0  0  0
  8 10  1  0  0  0  0
  8  6  2  0  0  0  0
  9  4  1  0  0  0  0
 11 16  2  0  0  0  0
 11 12  1  0  0  0  0
 12 13  2  0  0  0  0
 13 14  1  0  0  0  0
 13 19  1  0  0  0  0
 15  3  1  0  0  0  0
 15 14  2  0  0  0  0
 16 15  1  0  0  0  0
 17 11  1  0  0  0  0
 18 12  1  0  0  0  0
 20 27  1  0  0  0  0
 21 23  1  0  0  0  0
 21 20  1  0  0  0  0
 22 21  1  0  0  0  0
 23 25  1  0  0  0  0
 24 23  1  0  0  0  0
 25 26  1  0  0  0  0
 27 26  1  0  0  0  0
M  END
>  <minimizedAffinity>
-4.42133522

$$$$

 OpenBabel03252506033D

 27 29  0  0  0  0  0  0  0  0999 V2000
   36.6080   24.0540   41.2050 Cl  0  0  0  0  0  0  0  0  0  0  0  0
   36.9490   25.7430   41.1000 C   0  0  0  0  0  0  0  0  0  0  0  0
   36.9910   26.3800   39.8830 C   0  0  0  0  0  0  0  0  0  0  0  0
   37.2700   27.7330   39.8940 C   0  0  0  0  0  0  0  0  0  0  0  0
   37.5080   28.4660   41.0500 C   0  0  0  0  0  0  0  0  0  0  0  0
   37.4610   27.8070   42.2520 C   0  0  0  0  0  0  0  0  0  0  0  0
   37.7650   28.7720   43.6720 Cl  0  0  0  0  0  0  0  0  0  0  0  0
   37.1860   26.4640   42.2780 C   0  0  0  0  0  0  0  0  0  0  0  0
   37.2940   28.1990   38.9100 H   0  0  0  0  0  0  0  0  0  0  0  0
   37.1560   25.9730   43.2500 H   0  0  0  0  0  0  0  0  0  0  0  0
   37.6370   24.3810   36.8920 C   0  0  0  0  0  0  0  0  0  0  0  0
   36.3740   24.3030   36.2780 C   0  0  0  0  0  0  0  0  0  0  0  0
   35.2930   24.9470   36.9070 C   0  0  0  0  0  0  0  0  0  0  0  0
   35.5390   25.6070   38.0700 N   0  0  0  0  0  0  0  0  0  0  0  0
   36.7490   25.6630   38.6270 C   0  0  0  0  0  0  0  0  0  0  0  0
   37.8160   25.0500   38.0450 N   0  0  0  0  0  0  0  0  0  0  0  0
   38.4480   23.8710   36.3760 H   0  0  0  0  0  0  0  0  0  0  0  0
   36.2320   23.7700   35.3600 H   0  0  0  0  0  0  0  0  0  0  0  0
   34.3030   24.9150   36.4730 H   0  0  0  0  0  0  0  0  0  0  0  0
   37.7800   29.8590   40.8340 N   0  0  0  0  0  0  0  0  0  0  0  0
   39.1540   30.3280   40.6810 C   0  0  0  0  0  3  0  0  0  0  0  0
   39.7920   29.6740   40.0930 H   0  0  0  0  0  0  0  0  0  0  0  0
   39.1830   31.6960   40.0790 C   0  0  0  0  0  3  0  0  0  0  0  0
   39.2980   31.6280   38.9620 H   0  0  0  0  0  0  0  0  0  0  0  0
   38.1210   32.5050   40.4630 O   0  0  0  0  0  0  0  0  0  0  0  0
   36.9320   31.9950   39.9700 C   0  0  0  0  0  2  0  0  0  0  0  0
   36.6170   30.7540   40.7770 C   0  0  0  0  0  2  0  0  0  0  0  0
  2  1  1  0  0  0  0
  2  8  1  0  0  0  0
  3  4  1  0  0  0  0
  3  2  2  0  0  0  0
  4  5  2  0  0  0  0
  5  6  1  0  0  0  0
  6  8  2  0  0  0  0
  6  7  1  0  0  0  0
  8 10  1  0  0  0  0
  9  4  1  0  0  0  0
 11 16  1  0  0  0  0
 12 11  2  0  0  0  0
 12 13  1  0  0  0  0
 13 14  2  0  0  0  0
 14 15  1  0  0  0  0
 15  3  1  0  0  0  0
 16 15  2  0  0  0  0
 17 11  1  0  0  0  0
 18 12  1  0  0  0  0
 19 13  1  0  0  0  0
 20  5  1  0  0  0  0
 21 20  1  0  0  0  0
 22 21  1  0  0  0  0
 23 25  1  0  0  0  0
 23 21  1  0  0  0  0
 24 23  1  0  0  0  0
 26 25  1  0  0  0  0
 26 27  1  0  0  0  0
 27 20  1  0  0  0  0
M  END
>  <minimizedAffinity>
-4.41915703

$$$$

 OpenBabel03252506033D

 27 29  0  0  0  0  0  0  0  0999 V2000
   36.5840   30.8720   38.3850 Cl  0  0  0  0  0  0  0  0  0  0  0  0
   37.4710   29.7660   39.3710 C   0  0  0  0  0  0  0  0  0  0  0  0
   38.5750   30.1780   40.0770 C   0  0  0  0  0  0  0  0  0  0  0  0
   39.2230   29.2260   40.8390 C   0  0  0  0  0  0  0  0  0  0  0  0
   38.8230   27.8980   40.9240 C   0  0  0  0  0  0  0  0  0  0  0  0
   37.7180   27.5110   40.2090 C   0  0  0  0  0  0  0  0  0  0  0  0
   37.2570   25.8350   40.3520 Cl  0  0  0  0  0  0  0  0  0  0  0  0
   37.0500   28.4310   39.4420 C   0  0  0  0  0  0  0  0  0  0  0  0
   40.0930   29.5940   41.3820 H   0  0  0  0  0  0  0  0  0  0  0  0
   36.1770   28.0890   38.8890 H   0  0  0  0  0  0  0  0  0  0  0  0
   40.6100   33.0830   39.1900 C   0  0  0  0  0  0  0  0  0  0  0  0
   39.9910   34.1340   39.8890 C   0  0  0  0  0  0  0  0  0  0  0  0
   38.8620   33.8330   40.6730 C   0  0  0  0  0  0  0  0  0  0  0  0
   38.4400   32.5410   40.7040 N   0  0  0  0  0  0  0  0  0  0  0  0
   39.0490   31.5650   40.0280 C   0  0  0  0  0  0  0  0  0  0  0  0
   40.1430   31.8230   39.2610 N   0  0  0  0  0  0  0  0  0  0  0  0
   41.4790   33.3550   38.5950 H   0  0  0  0  0  0  0  0  0  0  0  0
   40.3620   35.1380   39.8320 H   0  0  0  0  0  0  0  0  0  0  0  0
   38.3520   34.6080   41.2290 H   0  0  0  0  0  0  0  0  0  0  0  0
   39.6390   27.0770   41.7730 N   0  0  0  0  0  0  0  0  0  0  0  0
   39.2100   26.7670   43.1330 C   0  0  0  0  0  3  0  0  0  0  0  0
   38.1480   26.5610   43.2360 H   0  0  0  0  0  0  0  0  0  0  0  0
   39.9790   25.6070   43.6800 C   0  0  0  0  0  3  0  0  0  0  0  0
   39.4170   24.6480   43.5020 H   0  0  0  0  0  0  0  0  0  0  0  0
   41.2980   25.5480   43.2450 O   0  0  0  0  0  0  0  0  0  0  0  0
   41.3390   25.3090   41.8820 C   0  0  0  0  0  2  0  0  0  0  0  0
   40.8970   26.5830   41.1980 C   0  0  0  0  0  2  0  0  0  0  0  0
  1  2  1  0  0  0  0
  2  8  2  0  0  0  0
  2  3  1  0  0  0  0
  3  4  2  0  0  0  0
  4  5  1  0  0  0  0
  4  9  1  0  0  0  0
  5 20  1  0  0  0  0
  6  7  1  0  0  0  0
  6  5  2  0  0  0  0
  8  6  1  0  0  0  0
 10  8  1  0  0  0  0
 11 16  2  0  0  0  0
 11 12  1  0  0  0  0
 12 13  2  0  0  0  0
 13 14  1  0  0  0  0
 13 19  1  0  0  0  0
 15  3  1  0  0  0  0
 15 14  2  0  0  0  0
 16 15  1  0  0  0  0
 17 11  1  0  0  0  0
 18 12  1  0  0  0  0
 20 21  1  0  0  0  0
 21 22  1  0  0  0  0
 21 23  1  0  0  0  0
 24 23  1  0  0  0  0
 25 23  1  0  0  0  0
 26 25  1  0  0  0  0
 27 20  1  0  0  0  0
 27 26  1  0  0  0  0
M  END
>  <minimizedAffinity>
-4.39737749

$$$$

 OpenBabel03252506033D

 27 29  0  0  0  0  0  0  0  0999 V2000
   35.0380   24.6310   36.7190 Cl  0  0  0  0  0  0  0  0  0  0  0  0
   35.7280   25.4360   38.0830 C   0  0  0  0  0  0  0  0  0  0  0  0
   35.7930   26.8070   38.1340 C   0  0  0  0  0  0  0  0  0  0  0  0
   36.3600   27.3650   39.2630 C   0  0  0  0  0  0  0  0  0  0  0  0
   36.8610   26.6230   40.3260 C   0  0  0  0  0  0  0  0  0  0  0  0
   36.7850   25.2560   40.2510 C   0  0  0  0  0  0  0  0  0  0  0  0
   37.4250   24.3720   41.6110 Cl  0  0  0  0  0  0  0  0  0  0  0  0
   36.2270   24.6680   39.1440 C   0  0  0  0  0  0  0  0  0  0  0  0
   36.3920   28.4540   39.2640 H   0  0  0  0  0  0  0  0  0  0  0  0
   36.1830   23.5810   39.1170 H   0  0  0  0  0  0  0  0  0  0  0  0
   33.4910   28.8530   36.1640 C   0  0  0  0  0  0  0  0  0  0  0  0
   34.2630   29.2180   35.0460 C   0  0  0  0  0  0  0  0  0  0  0  0
   35.5890   28.7530   34.9770 C   0  0  0  0  0  0  0  0  0  0  0  0
   36.0400   27.9760   35.9980 N   0  0  0  0  0  0  0  0  0  0  0  0
   35.2830   27.6460   37.0450 C   0  0  0  0  0  0  0  0  0  0  0  0
   33.9970   28.0810   37.1430 N   0  0  0  0  0  0  0  0  0  0  0  0
   32.4720   29.2320   36.1820 H   0  0  0  0  0  0  0  0  0  0  0  0
   33.8600   29.8340   34.2680 H   0  0  0  0  0  0  0  0  0  0  0  0
   36.2200   29.0070   34.1380 H   0  0  0  0  0  0  0  0  0  0  0  0
   37.4080   27.4040   41.3990 N   0  0  0  0  0  0  0  0  0  0  0  0
   36.5650   27.8130   42.5190 C   0  0  0  0  0  3  0  0  0  0  0  0
   35.8670   27.0530   42.8600 H   0  0  0  0  0  0  0  0  0  0  0  0
   37.4020   28.2500   43.6800 C   0  0  0  0  0  3  0  0  0  0  0  0
   37.5700   27.3900   44.3850 H   0  0  0  0  0  0  0  0  0  0  0  0
   38.5810   28.8900   43.3160 O   0  0  0  0  0  0  0  0  0  0  0  0
   39.4230   28.0020   42.6690 C   0  0  0  0  0  2  0  0  0  0  0  0
   38.8310   27.7540   41.2990 C   0  0  0  0  0  2  0  0  0  0  0  0
  1  2  1  0  0  0  0
  2  3  2  0  0  0  0
  2  8  1  0  0  0  0
  3  4  1  0  0  0  0
  4  9  1  0  0  0  0
  4  5  2  0  0  0  0
  5 20  1  0  0  0  0
  6  5  1  0  0  0  0
  6  7  1  0  0  0  0
  8  6  2  0  0  0  0
 10  8  1  0  0  0  0
 11 17  1  0  0  0  0
 11 16  1  0  0  0  0
 12 11  2  0  0  0  0
 13 12  1  0  0  0  0
 13 14  2  0  0  0  0
 14 15  1  0  0  0  0
 15 16  2  0  0  0  0
 15  3  1  0  0  0  0
 18 12  1  0  0  0  0
 19 13  1  0  0  0  0
 20 21  1  0  0  0  0
 21 22  1  0  0  0  0
 21 23  1  0  0  0  0
 23 24  1  0  0  0  0
 25 23  1  0  0  0  0
 26 25  1  0  0  0  0
 27 20  1  0  0  0  0
 27 26  1  0  0  0  0
M  END
>  <minimizedAffinity>
-4.34971428

$$$$
