
 OpenBabel03252508523D

 42 45  0  0  1  0  0  0  0  0999 V2000
   43.4200   34.4890   40.7610 C   0  0  0  0  0  0  0  0  0  0  0  0
   43.3230   35.7530   40.5760 O   0  0  0  0  0  0  0  0  0  0  0  0
   42.0800   34.0930   40.3660 N   0  0  0  0  0  0  0  0  0  0  0  0
   41.7260   34.4040   39.0030 C   0  0  0  0  0  0  0  0  0  0  0  0
   40.8750   35.6830   39.1000 C   0  0  0  0  0  0  0  0  0  0  0  0
   40.0560   35.5570   40.3790 C   0  0  0  0  0  0  0  0  0  0  0  0
   39.7560   34.0980   40.7240 C   0  0  0  0  0  0  0  0  0  0  0  0
   41.0580   33.4330   41.1490 C   0  0  1  0  0  0  0  0  0  0  0  0
   42.5870   34.6430   38.3530 H   0  0  0  0  0  0  0  0  0  0  0  0
   41.0780   33.6310   38.5290 H   0  0  0  0  0  0  0  0  0  0  0  0
   41.5260   36.5830   39.1810 H   0  0  0  0  0  0  0  0  0  0  0  0
   40.2310   35.8080   38.2120 H   0  0  0  0  0  0  0  0  0  0  0  0
   39.0520   36.0220   40.1870 H   0  0  0  0  0  0  0  0  0  0  0  0
   40.5760   36.0110   41.2330 H   0  0  0  0  0  0  0  0  0  0  0  0
   39.3280   33.6160   39.8150 H   0  0  0  0  0  0  0  0  0  0  0  0
   39.0150   34.1390   41.5350 H   0  0  0  0  0  0  0  0  0  0  0  0
   41.2150   33.5790   42.2390 H   0  0  0  0  0  0  0  0  0  0  0  0
   40.9300   32.0420   40.8840 N   0  0  2  0  0  0  0  0  0  0  0  0
   39.6400   31.6040   41.3720 C   0  0  0  0  0  3  0  0  0  0  0  0
   38.9160   31.4370   40.5430 H   0  0  0  0  0  0  0  0  0  0  0  0
   39.7540   30.3910   42.2660 C   0  0  0  0  0  3  0  0  0  0  0  0
   38.7220   30.0320   42.4630 H   0  0  0  0  0  0  0  0  0  0  0  0
   40.4570   29.3520   41.6730 O   0  0  0  0  0  0  0  0  0  0  0  0
   41.6190   29.7670   41.0570 C   0  0  0  0  0  2  0  0  0  0  0  0
   41.9490   31.2050   41.4380 C   0  0  0  0  0  2  0  0  0  0  0  0
   44.5020   33.7950   41.2040 O   0  0  0  0  0  0  0  0  0  0  0  0
   45.8300   34.1460   41.0710 C   0  0  0  0  0  0  0  0  0  0  0  0
   46.4460   34.7660   42.1540 C   0  0  0  0  0  0  0  0  0  0  0  0
   47.8030   35.1110   41.9830 C   0  0  0  0  0  0  0  0  0  0  0  0
   48.4080   34.8230   40.7960 N   0  0  0  0  0  0  0  0  0  0  0  0
   47.7640   34.2300   39.7990 C   0  0  0  0  0  0  0  0  0  0  0  0
   46.4750   33.8860   39.9220 N   0  0  0  0  0  0  0  0  0  0  0  0
   48.2760   35.5880   42.8220 H   0  0  0  0  0  0  0  0  0  0  0  0
   48.3010   34.0260   38.8740 H   0  0  0  0  0  0  0  0  0  0  0  0
   45.7080   35.0240   43.3700 C   0  0  0  0  0  0  0  0  0  0  0  0
   45.0570   36.2390   43.6020 C   0  0  0  0  0  0  0  0  0  0  0  0
   44.4920   36.0720   44.8410 C   0  0  0  0  0  0  0  0  0  0  0  0
   44.7790   34.8390   45.3330 N   0  0  0  0  0  0  0  0  0  0  0  0
   45.5120   34.2410   44.4140 N   0  0  0  0  0  0  0  0  0  0  0  0
   45.0030   37.1160   42.9620 H   0  0  0  0  0  0  0  0  0  0  0  0
   43.8970   36.8030   45.3770 H   0  0  0  0  0  0  0  0  0  0  0  0
   44.4550   34.4730   46.2730 H   0  0  0  0  0  0  0  0  0  0  0  0
  1 26  1  0  0  0  0
  2  1  2  0  0  0  0
  3  1  1  0  0  0  0
  3  8  1  0  0  0  0
  4  5  1  0  0  0  0
  4  3  1  0  0  0  0
  5 11  1  0  0  0  0
  5  6  1  0  0  0  0
  6  7  1  0  0  0  0
  6 14  1  0  0  0  0
  7  8  1  0  0  0  0
  7 16  1  0  0  0  0
  8 17  1  1  0  0  0
  9  4  1  0  0  0  0
 10  4  1  0  0  0  0
 12  5  1  0  0  0  0
 13  6  1  0  0  0  0
 15  7  1  0  0  0  0
 18  8  1  0  0  0  0
 18 19  1  0  0  0  0
 18 25  1  1  0  0  0
 19 21  1  0  0  0  0
 20 19  1  0  0  0  0
 21 22  1  0  0  0  0
 23 21  1  0  0  0  0
 24 25  1  0  0  0  0
 24 23  1  0  0  0  0
 27 26  1  0  0  0  0
 27 28  1  0  0  0  0
 28 35  1  0  0  0  0
 29 28  2  0  0  0  0
 29 33  1  0  0  0  0
 30 29  1  0  0  0  0
 31 32  1  0  0  0  0
 31 30  2  0  0  0  0
 32 27  2  0  0  0  0
 34 31  1  0  0  0  0
 35 36  1  0  0  0  0
 35 39  2  0  0  0  0
 36 37  2  0  0  0  0
 37 38  1  0  0  0  0
 37 41  1  0  0  0  0
 38 42  1  0  0  0  0
 39 38  1  0  0  0  0
 40 36  1  0  0  0  0
M  END
>  <minimizedAffinity>
-6.67622948

>  <minimizedRMSD>
0.0776862204

$$$$
