
 OpenBabel03252508533D

 42 45  0  0  1  0  0  0  0  0999 V2000
   43.2670   34.3800   40.6950 C   0  0  0  0  0  0  0  0  0  0  0  0
   43.1950   35.6230   40.3910 O   0  0  0  0  0  0  0  0  0  0  0  0
   41.9110   33.9810   40.3610 N   0  0  0  0  0  0  0  0  0  0  0  0
   41.5380   34.1700   38.9810 C   0  0  0  0  0  0  0  0  0  0  0  0
   40.7190   35.4730   38.9690 C   0  0  0  0  0  0  0  0  0  0  0  0
   39.9210   35.4890   40.2680 C   0  0  0  0  0  0  0  0  0  0  0  0
   39.5940   34.0770   40.7560 C   0  0  0  0  0  0  0  0  0  0  0  0
   40.8890   33.4240   41.2210 C   0  0  1  0  0  0  0  0  0  0  0  0
   42.3920   34.3240   38.2970 H   0  0  0  0  0  0  0  0  0  0  0  0
   40.8640   33.3720   38.5940 H   0  0  0  0  0  0  0  0  0  0  0  0
   41.3910   36.3610   38.9540 H   0  0  0  0  0  0  0  0  0  0  0  0
   40.0610   35.5290   38.0840 H   0  0  0  0  0  0  0  0  0  0  0  0
   38.9240   35.9580   40.0500 H   0  0  0  0  0  0  0  0  0  0  0  0
   40.4670   36.0100   41.0660 H   0  0  0  0  0  0  0  0  0  0  0  0
   39.1380   33.5210   39.9050 H   0  0  0  0  0  0  0  0  0  0  0  0
   38.8710   34.2130   41.5720 H   0  0  0  0  0  0  0  0  0  0  0  0
   41.0690   33.6700   42.2890 H   0  0  0  0  0  0  0  0  0  0  0  0
   40.7250   32.0180   41.0920 N   0  0  2  0  0  0  0  0  0  0  0  0
   39.3760   31.7600   40.6320 C   0  0  0  0  0  3  0  0  0  0  0  0
   39.3510   31.4740   39.5560 H   0  0  0  0  0  0  0  0  0  0  0  0
   38.6670   30.7430   41.4960 C   0  0  0  0  0  3  0  0  0  0  0  0
   37.7140   30.4900   40.9870 H   0  0  0  0  0  0  0  0  0  0  0  0
   39.3900   29.5690   41.6460 O   0  0  0  0  0  0  0  0  0  0  0  0
   40.7230   29.7860   41.9290 C   0  0  0  0  0  2  0  0  0  0  0  0
   40.9700   31.2510   42.2730 C   0  0  0  0  0  2  0  0  0  0  0  0
   44.3410   33.7050   41.1830 O   0  0  0  0  0  0  0  0  0  0  0  0
   45.6730   34.0120   41.0000 C   0  0  0  0  0  0  0  0  0  0  0  0
   46.3430   34.6370   42.0480 C   0  0  0  0  0  0  0  0  0  0  0  0
   47.7030   34.9360   41.8260 C   0  0  0  0  0  0  0  0  0  0  0  0
   48.2600   34.6030   40.6270 N   0  0  0  0  0  0  0  0  0  0  0  0
   47.5660   34.0080   39.6650 C   0  0  0  0  0  0  0  0  0  0  0  0
   46.2730   33.7070   39.8380 N   0  0  0  0  0  0  0  0  0  0  0  0
   48.2170   35.4180   42.6370 H   0  0  0  0  0  0  0  0  0  0  0  0
   48.0670   33.7680   38.7290 H   0  0  0  0  0  0  0  0  0  0  0  0
   45.6530   34.9450   43.2800 C   0  0  0  0  0  0  0  0  0  0  0  0
   45.0360   36.1790   43.5000 C   0  0  0  0  0  0  0  0  0  0  0  0
   44.5110   36.0590   44.7620 C   0  0  0  0  0  0  0  0  0  0  0  0
   44.7890   34.8340   45.2790 N   0  0  0  0  0  0  0  0  0  0  0  0
   45.4780   34.1950   44.3530 N   0  0  0  0  0  0  0  0  0  0  0  0
   44.9770   37.0390   42.8370 H   0  0  0  0  0  0  0  0  0  0  0  0
   43.9500   36.8170   45.2970 H   0  0  0  0  0  0  0  0  0  0  0  0
   44.4910   34.5020   46.2400 H   0  0  0  0  0  0  0  0  0  0  0  0
  1 26  1  0  0  0  0
  2  1  2  0  0  0  0
  3  1  1  0  0  0  0
  3  8  1  0  0  0  0
  4  3  1  0  0  0  0
  5  4  1  0  0  0  0
  5  6  1  0  0  0  0
  6  7  1  0  0  0  0
  6 14  1  0  0  0  0
  7  8  1  0  0  0  0
  7 16  1  0  0  0  0
  8 17  1  1  0  0  0
  9  4  1  0  0  0  0
 10  4  1  0  0  0  0
 11  5  1  0  0  0  0
 12  5  1  0  0  0  0
 13  6  1  0  0  0  0
 15  7  1  0  0  0  0
 18  8  1  0  0  0  0
 18 25  1  1  0  0  0
 19 18  1  0  0  0  0
 19 21  1  0  0  0  0
 20 19  1  0  0  0  0
 21 23  1  0  0  0  0
 22 21  1  0  0  0  0
 23 24  1  0  0  0  0
 24 25  1  0  0  0  0
 27 26  1  0  0  0  0
 27 28  1  0  0  0  0
 28 35  1  0  0  0  0
 29 28  2  0  0  0  0
 29 33  1  0  0  0  0
 30 29  1  0  0  0  0
 31 32  1  0  0  0  0
 31 30  2  0  0  0  0
 32 27  2  0  0  0  0
 34 31  1  0  0  0  0
 35 36  1  0  0  0  0
 35 39  2  0  0  0  0
 36 37  2  0  0  0  0
 37 38  1  0  0  0  0
 37 41  1  0  0  0  0
 38 42  1  0  0  0  0
 39 38  1  0  0  0  0
 40 36  1  0  0  0  0
M  END
>  <minimizedAffinity>
-6.7424922

>  <minimizedRMSD>
0.741387844

$$$$
