
 OpenBabel03242521573D

 47 51  0  0  1  0  0  0  0  0999 V2000
   36.6280   26.9130   39.9630 C   0  0  0  0  0  0  0  0  0  0  0  0
   36.7020   25.5240   39.9030 C   0  0  0  0  0  0  0  0  0  0  0  0
   37.0100   24.7300   41.0140 C   0  0  0  0  0  0  0  0  0  0  0  0
   37.2530   25.3000   42.2320 C   0  0  0  0  0  0  0  0  0  0  0  0
   37.1930   26.7070   42.3190 C   0  0  0  0  0  0  0  0  0  0  0  0
   37.4980   27.2370   43.5290 C   0  0  0  0  0  0  0  0  0  0  0  0
   37.5230   28.6310   43.6300 C   0  0  0  0  0  0  0  0  0  0  0  0
   37.2360   29.4130   42.4540 C   0  0  0  0  0  0  0  0  0  0  0  0
   36.9450   28.7200   41.3010 C   0  0  0  0  0  0  0  0  0  0  0  0
   36.8850   27.4060   41.1490 C   0  0  0  0  0  0  0  0  0  0  0  0
   36.5070   25.0470   38.9280 H   0  0  0  0  0  0  0  0  0  0  0  0
   37.0410   23.6490   40.8510 H   0  0  0  0  0  0  0  0  0  0  0  0
   37.4840   24.6790   43.0890 H   0  0  0  0  0  0  0  0  0  0  0  0
   37.7120   26.6060   44.3800 H   0  0  0  0  0  0  0  0  0  0  0  0
   37.7670   28.9840   44.6190 H   0  0  0  0  0  0  0  0  0  0  0  0
   37.3280   30.4210   42.8240 H   0  0  0  0  0  0  0  0  0  0  0  0
   38.5470   29.9470   40.1320 C   0  0  0  0  0  0  0  0  0  0  0  0
   37.1390   29.8890   40.4730 C   0  0  0  0  0  0  0  0  0  0  0  0
   36.5080   30.9810   40.0460 C   0  0  0  0  0  0  0  0  0  0  0  0
   37.0950   32.0400   39.3730 C   0  0  0  0  0  0  0  0  0  0  0  0
   38.4290   32.0690   39.0690 C   0  0  0  0  0  0  0  0  0  0  0  0
   39.1720   30.9880   39.4630 C   0  0  0  0  0  0  0  0  0  0  0  0
   35.4610   30.8520   40.3390 H   0  0  0  0  0  0  0  0  0  0  0  0
   36.2990   32.7730   39.1690 H   0  0  0  0  0  0  0  0  0  0  0  0
   38.5630   33.0000   38.5610 H   0  0  0  0  0  0  0  0  0  0  0  0
   39.5240   28.9560   40.4180 O   0  0  0  0  0  0  0  0  0  0  0  0
   40.2920   29.1340   41.0440 H   0  0  0  0  0  0  0  0  0  0  0  0
   40.4990   31.0770   39.1440 O   0  0  0  0  0  0  0  0  0  0  0  0
   42.7650   32.1330   39.8380 H   0  0  0  0  0  0  0  0  0  0  0  0
   41.9830   32.7640   39.6220 N   0  0  0  0  0  0  0  0  0  0  0  0
   41.0970   32.1800   38.6000 C   0  0  1  0  0  3  0  0  0  0  0  0
   42.0340   31.8520   37.4400 C   0  0  0  0  0  3  0  0  0  0  0  0
   41.5320   31.2370   36.6790 H   0  0  0  0  0  0  0  0  0  0  0  0
   42.4270   33.0430   36.8810 O   0  0  0  0  0  0  0  0  0  0  0  0
   42.2390   34.1610   37.6550 C   0  0  0  0  0  2  0  0  0  0  0  0
   42.5210   33.9970   39.1130 C   0  0  0  0  0  2  0  0  0  0  0  0
   34.6130   28.9370   37.5600 C   0  0  0  0  0  0  0  0  0  0  0  0
   35.5920   29.1860   36.5730 C   0  0  0  0  0  0  0  0  0  0  0  0
   36.8350   28.6290   36.7900 C   0  0  0  0  0  0  0  0  0  0  0  0
   36.9560   27.9250   37.9140 N   0  0  0  0  0  0  0  0  0  0  0  0
   36.0600   27.6730   38.8620 C   0  0  0  0  0  0  0  0  0  0  0  0
   34.8920   28.2010   38.6400 N   0  0  0  0  0  0  0  0  0  0  0  0
   33.6540   29.3870   37.3560 H   0  0  0  0  0  0  0  0  0  0  0  0
   35.3930   29.7730   35.7010 H   0  0  0  0  0  0  0  0  0  0  0  0
   37.8900   28.7400   35.8530 N   0  0  0  0  0  0  0  0  0  0  0  0
   38.5280   29.5410   35.6750 H   0  0  0  0  0  0  0  0  0  0  0  0
   38.1150   27.9430   35.2230 H   0  0  0  0  0  0  0  0  0  0  0  0
  1 10  1  0  0  0  0
  2  1  2  0  0  0  0
  2  3  1  0  0  0  0
  3  4  2  0  0  0  0
  4  5  1  0  0  0  0
  4 13  1  0  0  0  0
  5  6  1  0  0  0  0
  6  7  2  0  0  0  0
  6 14  1  0  0  0  0
  7 15  1  0  0  0  0
  8 16  1  0  0  0  0
  8  7  1  0  0  0  0
  9  8  2  0  0  0  0
 10  9  1  0  0  0  0
 10  5  2  0  0  0  0
 11  2  1  0  0  0  0
 12  3  1  0  0  0  0
 17 26  1  0  0  0  0
 17 18  1  0  0  0  0
 18  9  1  0  0  0  0
 19 23  1  0  0  0  0
 19 18  2  0  0  0  0
 20 19  1  0  0  0  0
 21 20  2  0  0  0  0
 21 22  1  0  0  0  0
 22 17  2  0  0  0  0
 24 20  1  0  0  0  0
 25 21  1  0  0  0  0
 26 27  1  0  0  0  0
 28 22  1  0  0  0  0
 30 29  1  0  0  0  0
 31 28  1  1  0  0  0
 31 30  1  0  0  0  0
 32 31  1  0  0  0  0
 33 32  1  0  0  0  0
 34 32  1  0  0  0  0
 34 35  1  0  0  0  0
 35 36  1  0  0  0  0
 36 30  1  0  0  0  0
 37 42  1  0  0  0  0
 38 39  1  0  0  0  0
 38 37  2  0  0  0  0
 39 40  2  0  0  0  0
 40 41  1  0  0  0  0
 41  1  1  0  0  0  0
 42 41  2  0  0  0  0
 43 37  1  0  0  0  0
 44 38  1  0  0  0  0
 45 39  1  0  0  0  0
 46 45  1  0  0  0  0
 47 45  1  0  0  0  0
M  END
>  <minimizedAffinity>
-7.38039589

$$$$

 OpenBabel03242521573D

 47 51  0  0  1  0  0  0  0  0999 V2000
   36.7720   26.9990   39.8320 C   0  0  0  0  0  0  0  0  0  0  0  0
   36.7400   25.6070   39.8310 C   0  0  0  0  0  0  0  0  0  0  0  0
   36.8950   24.8420   40.9940 C   0  0  0  0  0  0  0  0  0  0  0  0
   37.0850   25.4450   42.2050 C   0  0  0  0  0  0  0  0  0  0  0  0
   37.1290   26.8550   42.2330 C   0  0  0  0  0  0  0  0  0  0  0  0
   37.3780   27.4130   43.4440 C   0  0  0  0  0  0  0  0  0  0  0  0
   37.5060   28.8050   43.4940 C   0  0  0  0  0  0  0  0  0  0  0  0
   37.3750   29.5530   42.2690 C   0  0  0  0  0  0  0  0  0  0  0  0
   37.1230   28.8340   41.1230 C   0  0  0  0  0  0  0  0  0  0  0  0
   36.9710   27.5230   41.0170 C   0  0  0  0  0  0  0  0  0  0  0  0
   36.5860   25.1040   38.8630 H   0  0  0  0  0  0  0  0  0  0  0  0
   36.8540   23.7550   40.8750 H   0  0  0  0  0  0  0  0  0  0  0  0
   37.1970   24.8470   43.1000 H   0  0  0  0  0  0  0  0  0  0  0  0
   37.4730   26.8060   44.3320 H   0  0  0  0  0  0  0  0  0  0  0  0
   37.6980   29.1810   44.4850 H   0  0  0  0  0  0  0  0  0  0  0  0
   37.5180   30.5670   42.6070 H   0  0  0  0  0  0  0  0  0  0  0  0
   38.9120   29.9130   40.0860 C   0  0  0  0  0  0  0  0  0  0  0  0
   37.4740   29.9480   40.2700 C   0  0  0  0  0  0  0  0  0  0  0  0
   36.9580   31.0490   39.7270 C   0  0  0  0  0  0  0  0  0  0  0  0
   37.6750   32.0390   39.0770 C   0  0  0  0  0  0  0  0  0  0  0  0
   39.0340   31.9810   38.9230 C   0  0  0  0  0  0  0  0  0  0  0  0
   39.6660   30.8840   39.4460 C   0  0  0  0  0  0  0  0  0  0  0  0
   35.8790   30.9900   39.9070 H   0  0  0  0  0  0  0  0  0  0  0  0
   36.9500   32.8020   38.7530 H   0  0  0  0  0  0  0  0  0  0  0  0
   39.2760   32.8780   38.3920 H   0  0  0  0  0  0  0  0  0  0  0  0
   39.7920   28.8880   40.5240 O   0  0  0  0  0  0  0  0  0  0  0  0
   40.4960   29.0570   41.2230 H   0  0  0  0  0  0  0  0  0  0  0  0
   41.0220   30.8870   39.2730 O   0  0  0  0  0  0  0  0  0  0  0  0
   43.4710   31.4600   38.6360 H   0  0  0  0  0  0  0  0  0  0  0  0
   42.7440   31.5780   37.9190 N   0  0  0  0  0  0  0  0  0  0  0  0
   41.6580   30.5990   38.0970 C   0  0  1  0  0  3  0  0  0  0  0  0
   42.3730   29.2500   38.1090 C   0  0  0  0  0  3  0  0  0  0  0  0
   41.6980   28.4400   38.4240 H   0  0  0  0  0  0  0  0  0  0  0  0
   42.8160   29.0090   36.8320 O   0  0  0  0  0  0  0  0  0  0  0  0
   42.8720   30.0990   36.0000 C   0  0  0  0  0  2  0  0  0  0  0  0
   43.3410   31.3710   36.6260 C   0  0  0  0  0  2  0  0  0  0  0  0
   36.3450   28.7900   36.5860 C   0  0  0  0  0  0  0  0  0  0  0  0
   34.9590   29.0520   36.6340 C   0  0  0  0  0  0  0  0  0  0  0  0
   34.2950   28.6260   37.7650 C   0  0  0  0  0  0  0  0  0  0  0  0
   35.0520   28.0140   38.6750 N   0  0  0  0  0  0  0  0  0  0  0  0
   36.3540   27.7510   38.6610 C   0  0  0  0  0  0  0  0  0  0  0  0
   36.9660   28.1630   37.5890 N   0  0  0  0  0  0  0  0  0  0  0  0
   36.8310   29.1390   35.6870 H   0  0  0  0  0  0  0  0  0  0  0  0
   34.4390   29.5510   35.8430 H   0  0  0  0  0  0  0  0  0  0  0  0
   32.9190   28.8800   37.9790 N   0  0  0  0  0  0  0  0  0  0  0  0
   32.0920   28.3900   37.5820 H   0  0  0  0  0  0  0  0  0  0  0  0
   32.6220   29.6500   38.6130 H   0  0  0  0  0  0  0  0  0  0  0  0
  1 10  1  0  0  0  0
  2  1  2  0  0  0  0
  2  3  1  0  0  0  0
  3  4  2  0  0  0  0
  4  5  1  0  0  0  0
  4 13  1  0  0  0  0
  5  6  1  0  0  0  0
  6  7  2  0  0  0  0
  6 14  1  0  0  0  0
  7 15  1  0  0  0  0
  8 16  1  0  0  0  0
  8  7  1  0  0  0  0
  9  8  2  0  0  0  0
 10  9  1  0  0  0  0
 10  5  2  0  0  0  0
 11  2  1  0  0  0  0
 12  3  1  0  0  0  0
 17 18  1  0  0  0  0
 17 26  1  0  0  0  0
 18  9  1  0  0  0  0
 19 23  1  0  0  0  0
 19 18  2  0  0  0  0
 20 19  1  0  0  0  0
 21 20  2  0  0  0  0
 21 22  1  0  0  0  0
 22 17  2  0  0  0  0
 24 20  1  0  0  0  0
 25 21  1  0  0  0  0
 26 27  1  0  0  0  0
 28 22  1  0  0  0  0
 30 31  1  0  0  0  0
 30 29  1  0  0  0  0
 31 32  1  0  0  0  0
 31 28  1  1  0  0  0
 32 33  1  0  0  0  0
 34 32  1  0  0  0  0
 35 36  1  0  0  0  0
 35 34  1  0  0  0  0
 36 30  1  0  0  0  0
 37 38  2  0  0  0  0
 37 42  1  0  0  0  0
 38 39  1  0  0  0  0
 39 45  1  0  0  0  0
 39 40  2  0  0  0  0
 41 40  1  0  0  0  0
 41  1  1  0  0  0  0
 42 41  2  0  0  0  0
 43 37  1  0  0  0  0
 44 38  1  0  0  0  0
 45 47  1  0  0  0  0
 46 45  1  0  0  0  0
M  END
>  <minimizedAffinity>
-6.87630606

$$$$

 OpenBabel03242521573D

 47 51  0  0  1  0  0  0  0  0999 V2000
   37.3890   27.3130   38.8900 C   0  0  0  0  0  0  0  0  0  0  0  0
   37.1480   27.3770   37.5200 C   0  0  0  0  0  0  0  0  0  0  0  0
   36.4840   26.3650   36.8160 C   0  0  0  0  0  0  0  0  0  0  0  0
   36.0340   25.2470   37.4610 C   0  0  0  0  0  0  0  0  0  0  0  0
   36.2730   25.1530   38.8490 C   0  0  0  0  0  0  0  0  0  0  0  0
   35.8620   24.0040   39.4410 C   0  0  0  0  0  0  0  0  0  0  0  0
   36.1530   23.8440   40.7990 C   0  0  0  0  0  0  0  0  0  0  0  0
   36.8690   24.8940   41.4790 C   0  0  0  0  0  0  0  0  0  0  0  0
   37.2140   25.9980   40.7320 C   0  0  0  0  0  0  0  0  0  0  0  0
   36.9500   26.2140   39.4530 C   0  0  0  0  0  0  0  0  0  0  0  0
   37.5030   28.2720   36.9830 H   0  0  0  0  0  0  0  0  0  0  0  0
   36.3510   26.5200   35.7420 H   0  0  0  0  0  0  0  0  0  0  0  0
   35.5150   24.4720   36.9110 H   0  0  0  0  0  0  0  0  0  0  0  0
   35.3330   23.2440   38.8840 H   0  0  0  0  0  0  0  0  0  0  0  0
   35.7950   22.9130   41.2060 H   0  0  0  0  0  0  0  0  0  0  0  0
   36.9470   24.5030   42.4810 H   0  0  0  0  0  0  0  0  0  0  0  0
   39.3990   25.7340   41.5050 C   0  0  0  0  0  0  0  0  0  0  0  0
   38.1600   26.4540   41.7260 C   0  0  0  0  0  0  0  0  0  0  0  0
   38.2350   27.1870   42.8360 C   0  0  0  0  0  0  0  0  0  0  0  0
   39.3310   27.2610   43.6800 C   0  0  0  0  0  0  0  0  0  0  0  0
   40.4860   26.5650   43.4470 C   0  0  0  0  0  0  0  0  0  0  0  0
   40.5150   25.7790   42.3260 C   0  0  0  0  0  0  0  0  0  0  0  0
   37.2690   27.6950   42.9210 H   0  0  0  0  0  0  0  0  0  0  0  0
   39.0620   27.9490   44.4970 H   0  0  0  0  0  0  0  0  0  0  0  0
   41.1230   26.8330   44.2640 H   0  0  0  0  0  0  0  0  0  0  0  0
   39.6840   24.8650   40.4190 O   0  0  0  0  0  0  0  0  0  0  0  0
   39.8460   23.8810   40.5550 H   0  0  0  0  0  0  0  0  0  0  0  0
   41.6880   25.0990   42.1520 O   0  0  0  0  0  0  0  0  0  0  0  0
   43.8050   23.8380   42.9650 H   0  0  0  0  0  0  0  0  0  0  0  0
   43.6230   24.7740   43.3480 N   0  0  0  0  0  0  0  0  0  0  0  0
   42.9330   25.6250   42.3620 C   0  0  1  0  0  3  0  0  0  0  0  0
   43.8310   25.5690   41.1300 C   0  0  0  0  0  3  0  0  0  0  0  0
   43.3380   26.0120   40.2520 H   0  0  0  0  0  0  0  0  0  0  0  0
   44.9720   26.2760   41.4210 O   0  0  0  0  0  0  0  0  0  0  0  0
   45.2100   26.5090   42.7520 C   0  0  0  0  0  2  0  0  0  0  0  0
   44.8830   25.3840   43.6780 C   0  0  0  0  0  2  0  0  0  0  0  0
   39.1860   30.1720   40.4780 C   0  0  0  0  0  0  0  0  0  0  0  0
   38.0870   30.8830   41.0100 C   0  0  0  0  0  0  0  0  0  0  0  0
   36.8420   30.3240   40.8100 C   0  0  0  0  0  0  0  0  0  0  0  0
   36.8340   29.1780   40.1320 N   0  0  0  0  0  0  0  0  0  0  0  0
   37.8450   28.4850   39.6180 C   0  0  0  0  0  0  0  0  0  0  0  0
   39.0120   29.0230   39.8190 N   0  0  0  0  0  0  0  0  0  0  0  0
   40.1430   30.6380   40.6550 H   0  0  0  0  0  0  0  0  0  0  0  0
   38.2010   31.8050   41.5400 H   0  0  0  0  0  0  0  0  0  0  0  0
   35.6610   30.8910   41.3440 N   0  0  0  0  0  0  0  0  0  0  0  0
   35.1060   31.6990   40.9980 H   0  0  0  0  0  0  0  0  0  0  0  0
   35.2310   30.4900   42.2030 H   0  0  0  0  0  0  0  0  0  0  0  0
  1 10  1  0  0  0  0
  1 41  1  0  0  0  0
  2  1  2  0  0  0  0
  3  4  2  0  0  0  0
  3  2  1  0  0  0  0
  4  5  1  0  0  0  0
  5  6  2  0  0  0  0
  5 10  1  0  0  0  0
  6  7  1  0  0  0  0
  7 15  1  0  0  0  0
  7  8  2  0  0  0  0
  8 16  1  0  0  0  0
  9  8  1  0  0  0  0
  9 18  1  0  0  0  0
 10  9  2  0  0  0  0
 11  2  1  0  0  0  0
 12  3  1  0  0  0  0
 13  4  1  0  0  0  0
 14  6  1  0  0  0  0
 17 18  2  0  0  0  0
 17 22  1  0  0  0  0
 18 19  1  0  0  0  0
 19 23  1  0  0  0  0
 19 20  2  0  0  0  0
 20 24  1  0  0  0  0
 21 20  1  0  0  0  0
 21 25  1  0  0  0  0
 22 21  2  0  0  0  0
 26 27  1  0  0  0  0
 26 17  1  0  0  0  0
 28 22  1  0  0  0  0
 29 30  1  0  0  0  0
 30 36  1  0  0  0  0
 31 28  1  6  0  0  0
 31 30  1  0  0  0  0
 32 34  1  0  0  0  0
 32 31  1  0  0  0  0
 33 32  1  0  0  0  0
 34 35  1  0  0  0  0
 35 36  1  0  0  0  0
 37 43  1  0  0  0  0
 37 38  1  0  0  0  0
 38 44  1  0  0  0  0
 39 38  2  0  0  0  0
 39 45  1  0  0  0  0
 40 39  1  0  0  0  0
 41 42  1  0  0  0  0
 41 40  2  0  0  0  0
 42 37  2  0  0  0  0
 45 47  1  0  0  0  0
 46 45  1  0  0  0  0
M  END
>  <minimizedAffinity>
-6.86254549

$$$$

 OpenBabel03242521573D

 47 51  0  0  1  0  0  0  0  0999 V2000
   36.7870   27.0450   39.7650 C   0  0  0  0  0  0  0  0  0  0  0  0
   36.8320   25.6540   39.7130 C   0  0  0  0  0  0  0  0  0  0  0  0
   37.0210   24.8560   40.8480 C   0  0  0  0  0  0  0  0  0  0  0  0
   37.1700   25.4240   42.0820 C   0  0  0  0  0  0  0  0  0  0  0  0
   37.1360   26.8330   42.1620 C   0  0  0  0  0  0  0  0  0  0  0  0
   37.3460   27.3580   43.3940 C   0  0  0  0  0  0  0  0  0  0  0  0
   37.3960   28.7520   43.4960 C   0  0  0  0  0  0  0  0  0  0  0  0
   37.2320   29.5370   42.2980 C   0  0  0  0  0  0  0  0  0  0  0  0
   37.0280   28.8470   41.1240 C   0  0  0  0  0  0  0  0  0  0  0  0
   36.9500   27.5350   40.9690 C   0  0  0  0  0  0  0  0  0  0  0  0
   36.7120   25.1790   38.7260 H   0  0  0  0  0  0  0  0  0  0  0  0
   37.0410   23.7740   40.6890 H   0  0  0  0  0  0  0  0  0  0  0  0
   37.3090   24.8000   42.9560 H   0  0  0  0  0  0  0  0  0  0  0  0
   37.4690   26.7250   44.2610 H   0  0  0  0  0  0  0  0  0  0  0  0
   37.5610   29.1010   44.5020 H   0  0  0  0  0  0  0  0  0  0  0  0
   37.3170   30.5440   42.6740 H   0  0  0  0  0  0  0  0  0  0  0  0
   38.7650   30.1060   40.2090 C   0  0  0  0  0  0  0  0  0  0  0  0
   37.3220   30.0090   40.3160 C   0  0  0  0  0  0  0  0  0  0  0  0
   36.7400   31.0750   39.7690 C   0  0  0  0  0  0  0  0  0  0  0  0
   37.3990   32.1410   39.1800 C   0  0  0  0  0  0  0  0  0  0  0  0
   38.7630   32.2060   39.0980 C   0  0  0  0  0  0  0  0  0  0  0  0
   39.4620   31.1550   39.6300 C   0  0  0  0  0  0  0  0  0  0  0  0
   35.6620   30.9170   39.8890 H   0  0  0  0  0  0  0  0  0  0  0  0
   36.6260   32.8450   38.8340 H   0  0  0  0  0  0  0  0  0  0  0  0
   38.9520   33.1330   38.6000 H   0  0  0  0  0  0  0  0  0  0  0  0
   39.7090   29.1500   40.6710 O   0  0  0  0  0  0  0  0  0  0  0  0
   40.3590   29.3620   41.4100 H   0  0  0  0  0  0  0  0  0  0  0  0
   40.8200   31.2810   39.5310 O   0  0  0  0  0  0  0  0  0  0  0  0
   43.3980   31.0590   39.7210 H   0  0  0  0  0  0  0  0  0  0  0  0
   42.8410   30.9900   40.5830 N   0  0  0  0  0  0  0  0  0  0  0  0
   41.6260   31.8180   40.4960 C   0  0  1  0  0  3  0  0  0  0  0  0
   42.1480   33.2090   40.1450 C   0  0  0  0  0  3  0  0  0  0  0  0
   41.3290   33.8880   39.8650 H   0  0  0  0  0  0  0  0  0  0  0  0
   42.7900   33.6980   41.2550 O   0  0  0  0  0  0  0  0  0  0  0  0
   43.1420   32.7700   42.2030 C   0  0  0  0  0  2  0  0  0  0  0  0
   43.6420   31.4640   41.6810 C   0  0  0  0  0  2  0  0  0  0  0  0
   36.2740   28.9040   36.5690 C   0  0  0  0  0  0  0  0  0  0  0  0
   34.8830   29.1330   36.6430 C   0  0  0  0  0  0  0  0  0  0  0  0
   34.2450   28.6660   37.7730 C   0  0  0  0  0  0  0  0  0  0  0  0
   35.0280   28.0490   38.6570 N   0  0  0  0  0  0  0  0  0  0  0  0
   36.3360   27.8150   38.6180 C   0  0  0  0  0  0  0  0  0  0  0  0
   36.9230   28.2660   37.5490 N   0  0  0  0  0  0  0  0  0  0  0  0
   36.7390   29.2840   35.6730 H   0  0  0  0  0  0  0  0  0  0  0  0
   34.3410   29.6400   35.8720 H   0  0  0  0  0  0  0  0  0  0  0  0
   32.8670   28.8840   38.0130 N   0  0  0  0  0  0  0  0  0  0  0  0
   32.0460   28.3860   37.6150 H   0  0  0  0  0  0  0  0  0  0  0  0
   32.5630   29.6310   38.6690 H   0  0  0  0  0  0  0  0  0  0  0  0
  1 10  1  0  0  0  0
  2  1  2  0  0  0  0
  2  3  1  0  0  0  0
  3  4  2  0  0  0  0
  4  5  1  0  0  0  0
  4 13  1  0  0  0  0
  5  6  1  0  0  0  0
  6  7  2  0  0  0  0
  6 14  1  0  0  0  0
  7 15  1  0  0  0  0
  8 16  1  0  0  0  0
  8  7  1  0  0  0  0
  9  8  2  0  0  0  0
 10  9  1  0  0  0  0
 10  5  2  0  0  0  0
 11  2  1  0  0  0  0
 12  3  1  0  0  0  0
 17 18  1  0  0  0  0
 17 26  1  0  0  0  0
 18  9  1  0  0  0  0
 19 23  1  0  0  0  0
 19 18  2  0  0  0  0
 20 19  1  0  0  0  0
 21 20  2  0  0  0  0
 21 22  1  0  0  0  0
 22 17  2  0  0  0  0
 24 20  1  0  0  0  0
 25 21  1  0  0  0  0
 26 27  1  0  0  0  0
 28 22  1  0  0  0  0
 29 30  1  0  0  0  0
 30 36  1  0  0  0  0
 31 28  1  6  0  0  0
 31 30  1  0  0  0  0
 32 31  1  0  0  0  0
 32 34  1  0  0  0  0
 33 32  1  0  0  0  0
 34 35  1  0  0  0  0
 36 35  1  0  0  0  0
 37 38  2  0  0  0  0
 37 42  1  0  0  0  0
 38 39  1  0  0  0  0
 39 45  1  0  0  0  0
 39 40  2  0  0  0  0
 41 40  1  0  0  0  0
 41  1  1  0  0  0  0
 42 41  2  0  0  0  0
 43 37  1  0  0  0  0
 44 38  1  0  0  0  0
 45 47  1  0  0  0  0
 46 45  1  0  0  0  0
M  END
>  <minimizedAffinity>
-6.85513783

$$$$

 OpenBabel03242521573D

 47 51  0  0  1  0  0  0  0  0999 V2000
   36.6000   26.5740   38.5190 C   0  0  0  0  0  0  0  0  0  0  0  0
   36.7140   25.1960   38.3560 C   0  0  0  0  0  0  0  0  0  0  0  0
   35.7660   24.4300   37.6660 C   0  0  0  0  0  0  0  0  0  0  0  0
   34.6660   25.0190   37.1100 C   0  0  0  0  0  0  0  0  0  0  0  0
   34.5210   26.4150   37.2670 C   0  0  0  0  0  0  0  0  0  0  0  0
   33.3880   26.9520   36.7520 C   0  0  0  0  0  0  0  0  0  0  0  0
   33.1760   28.3180   36.9580 C   0  0  0  0  0  0  0  0  0  0  0  0
   34.1590   29.0640   37.7030 C   0  0  0  0  0  0  0  0  0  0  0  0
   35.2550   28.3670   38.1600 C   0  0  0  0  0  0  0  0  0  0  0  0
   35.5200   27.0830   37.9790 C   0  0  0  0  0  0  0  0  0  0  0  0
   37.5970   24.7040   38.7970 H   0  0  0  0  0  0  0  0  0  0  0  0
   35.9570   23.3550   37.6010 H   0  0  0  0  0  0  0  0  0  0  0  0
   33.9400   24.4220   36.5730 H   0  0  0  0  0  0  0  0  0  0  0  0
   32.6790   26.3470   36.2050 H   0  0  0  0  0  0  0  0  0  0  0  0
   32.2610   28.6800   36.5180 H   0  0  0  0  0  0  0  0  0  0  0  0
   33.7390   30.0570   37.7010 H   0  0  0  0  0  0  0  0  0  0  0  0
   36.5290   30.3090   38.3750 C   0  0  0  0  0  0  0  0  0  0  0  0
   35.6220   29.4220   39.0780 C   0  0  0  0  0  0  0  0  0  0  0  0
   35.5270   29.7690   40.3600 C   0  0  0  0  0  0  0  0  0  0  0  0
   36.1960   30.8220   40.9620 C   0  0  0  0  0  0  0  0  0  0  0  0
   37.0500   31.6400   40.2730 C   0  0  0  0  0  0  0  0  0  0  0  0
   37.2180   31.3700   38.9410 C   0  0  0  0  0  0  0  0  0  0  0  0
   34.8270   29.0560   40.8090 H   0  0  0  0  0  0  0  0  0  0  0  0
   35.8960   30.8300   42.0220 H   0  0  0  0  0  0  0  0  0  0  0  0
   37.3960   32.3360   41.0070 H   0  0  0  0  0  0  0  0  0  0  0  0
   36.8660   30.2480   36.9970 O   0  0  0  0  0  0  0  0  0  0  0  0
   37.8010   30.0380   36.6880 H   0  0  0  0  0  0  0  0  0  0  0  0
   38.0910   32.2110   38.3080 O   0  0  0  0  0  0  0  0  0  0  0  0
   39.8360   33.2600   36.6990 H   0  0  0  0  0  0  0  0  0  0  0  0
   40.0140   32.3120   37.0560 N   0  0  0  0  0  0  0  0  0  0  0  0
   39.4530   32.1390   38.4070 C   0  0  1  0  0  3  0  0  0  0  0  0
   40.0640   33.2830   39.2120 C   0  0  0  0  0  3  0  0  0  0  0  0
   39.5830   33.3840   40.1960 H   0  0  0  0  0  0  0  0  0  0  0  0
   41.3970   33.0000   39.3800 O   0  0  0  0  0  0  0  0  0  0  0  0
   41.9220   32.0580   38.5320 C   0  0  0  0  0  2  0  0  0  0  0  0
   41.4370   32.1100   37.1200 C   0  0  0  0  0  2  0  0  0  0  0  0
   39.2680   28.3680   40.4140 C   0  0  0  0  0  0  0  0  0  0  0  0
   40.0820   28.7940   39.3420 C   0  0  0  0  0  0  0  0  0  0  0  0
   39.6470   28.4640   38.0750 C   0  0  0  0  0  0  0  0  0  0  0  0
   38.5080   27.7760   38.0250 N   0  0  0  0  0  0  0  0  0  0  0  0
   37.7210   27.3580   39.0100 C   0  0  0  0  0  0  0  0  0  0  0  0
   38.1430   27.6810   40.1970 N   0  0  0  0  0  0  0  0  0  0  0  0
   39.6390   28.6450   41.3890 H   0  0  0  0  0  0  0  0  0  0  0  0
   40.9880   29.3440   39.4900 H   0  0  0  0  0  0  0  0  0  0  0  0
   40.3260   28.8840   36.9060 N   0  0  0  0  0  0  0  0  0  0  0  0
   41.1850   28.4930   36.4710 H   0  0  0  0  0  0  0  0  0  0  0  0
   39.9680   29.6910   36.3560 H   0  0  0  0  0  0  0  0  0  0  0  0
  1 41  1  0  0  0  0
  2  1  1  0  0  0  0
  2 11  1  0  0  0  0
  3  2  2  0  0  0  0
  4  5  2  0  0  0  0
  4  3  1  0  0  0  0
  5 10  1  0  0  0  0
  6  7  2  0  0  0  0
  6  5  1  0  0  0  0
  7  8  1  0  0  0  0
  8  9  2  0  0  0  0
  9 18  1  0  0  0  0
 10  9  1  0  0  0  0
 10  1  2  0  0  0  0
 12  3  1  0  0  0  0
 13  4  1  0  0  0  0
 14  6  1  0  0  0  0
 15  7  1  0  0  0  0
 16  8  1  0  0  0  0
 17 22  2  0  0  0  0
 17 18  1  0  0  0  0
 18 19  2  0  0  0  0
 19 23  1  0  0  0  0
 19 20  1  0  0  0  0
 20 24  1  0  0  0  0
 21 20  2  0  0  0  0
 21 25  1  0  0  0  0
 22 21  1  0  0  0  0
 26 17  1  0  0  0  0
 27 26  1  0  0  0  0
 28 22  1  0  0  0  0
 29 30  1  0  0  0  0
 30 36  1  0  0  0  0
 30 31  1  0  0  0  0
 31 28  1  6  0  0  0
 31 32  1  0  0  0  0
 32 34  1  0  0  0  0
 32 33  1  0  0  0  0
 35 34  1  0  0  0  0
 36 35  1  0  0  0  0
 37 43  1  0  0  0  0
 38 44  1  0  0  0  0
 38 37  2  0  0  0  0
 39 38  1  0  0  0  0
 40 39  2  0  0  0  0
 40 41  1  0  0  0  0
 41 42  2  0  0  0  0
 42 37  1  0  0  0  0
 45 39  1  0  0  0  0
 46 45  1  0  0  0  0
 47 45  1  0  0  0  0
M  END
>  <minimizedAffinity>
-6.71959352

$$$$

 OpenBabel03242521573D

 47 51  0  0  1  0  0  0  0  0999 V2000
   37.8590   31.5100   40.4930 C   0  0  0  0  0  0  0  0  0  0  0  0
   37.6770   32.7600   39.9090 C   0  0  0  0  0  0  0  0  0  0  0  0
   38.6570   33.7600   39.9300 C   0  0  0  0  0  0  0  0  0  0  0  0
   39.8620   33.5420   40.5370 C   0  0  0  0  0  0  0  0  0  0  0  0
   40.0700   32.2850   41.1440 C   0  0  0  0  0  0  0  0  0  0  0  0
   41.2550   32.1300   41.7850 C   0  0  0  0  0  0  0  0  0  0  0  0
   41.4620   30.9250   42.4630 C   0  0  0  0  0  0  0  0  0  0  0  0
   40.4140   29.9350   42.4470 C   0  0  0  0  0  0  0  0  0  0  0  0
   39.2700   30.2500   41.7490 C   0  0  0  0  0  0  0  0  0  0  0  0
   39.0250   31.3620   41.0720 C   0  0  0  0  0  0  0  0  0  0  0  0
   36.7110   32.9530   39.4140 H   0  0  0  0  0  0  0  0  0  0  0  0
   38.4040   34.7050   39.4410 H   0  0  0  0  0  0  0  0  0  0  0  0
   40.6170   34.3180   40.5430 H   0  0  0  0  0  0  0  0  0  0  0  0
   42.0060   32.9060   41.7710 H   0  0  0  0  0  0  0  0  0  0  0  0
   42.4240   30.8660   42.9450 H   0  0  0  0  0  0  0  0  0  0  0  0
   40.8450   29.1400   43.0340 H   0  0  0  0  0  0  0  0  0  0  0  0
   38.6850   28.0010   41.5500 C   0  0  0  0  0  0  0  0  0  0  0  0
   38.5190   29.1840   42.3730 C   0  0  0  0  0  0  0  0  0  0  0  0
   37.6340   28.9600   43.3420 C   0  0  0  0  0  0  0  0  0  0  0  0
   36.9510   27.7740   43.5520 C   0  0  0  0  0  0  0  0  0  0  0  0
   37.1250   26.6750   42.7550 C   0  0  0  0  0  0  0  0  0  0  0  0
   38.0190   26.7980   41.7250 C   0  0  0  0  0  0  0  0  0  0  0  0
   37.5760   29.8940   43.9110 H   0  0  0  0  0  0  0  0  0  0  0  0
   36.3020   27.9270   44.4290 H   0  0  0  0  0  0  0  0  0  0  0  0
   36.4670   25.9420   43.1720 H   0  0  0  0  0  0  0  0  0  0  0  0
   39.5520   27.8690   40.4330 O   0  0  0  0  0  0  0  0  0  0  0  0
   39.1980   27.7240   39.5020 H   0  0  0  0  0  0  0  0  0  0  0  0
   38.1420   25.6740   40.9560 O   0  0  0  0  0  0  0  0  0  0  0  0
   38.3660   24.4180   38.6970 H   0  0  0  0  0  0  0  0  0  0  0  0
   37.5810   25.0710   38.8120 N   0  0  0  0  0  0  0  0  0  0  0  0
   37.1340   25.1230   40.2140 C   0  0  1  0  0  3  0  0  0  0  0  0
   36.8490   23.6660   40.5670 C   0  0  0  0  0  3  0  0  0  0  0  0
   36.6850   23.5380   41.6480 H   0  0  0  0  0  0  0  0  0  0  0  0
   35.7180   23.2920   39.8840 O   0  0  0  0  0  0  0  0  0  0  0  0
   35.3600   24.0950   38.8300 C   0  0  0  0  0  2  0  0  0  0  0  0
   36.4860   24.6150   37.9970 C   0  0  0  0  0  2  0  0  0  0  0  0
   35.0750   29.0320   40.3030 C   0  0  0  0  0  0  0  0  0  0  0  0
   35.4750   28.3060   39.1600 C   0  0  0  0  0  0  0  0  0  0  0  0
   36.6580   28.6960   38.5700 C   0  0  0  0  0  0  0  0  0  0  0  0
   37.2770   29.7200   39.1560 N   0  0  0  0  0  0  0  0  0  0  0  0
   36.9290   30.4250   40.2270 C   0  0  0  0  0  0  0  0  0  0  0  0
   35.8130   30.0410   40.7740 N   0  0  0  0  0  0  0  0  0  0  0  0
   34.1460   28.6970   40.7380 H   0  0  0  0  0  0  0  0  0  0  0  0
   34.9000   27.4950   38.7630 H   0  0  0  0  0  0  0  0  0  0  0  0
   37.2140   28.0160   37.4600 N   0  0  0  0  0  0  0  0  0  0  0  0
   36.9530   28.0770   36.4560 H   0  0  0  0  0  0  0  0  0  0  0  0
   37.9990   27.3470   37.5970 H   0  0  0  0  0  0  0  0  0  0  0  0
  1 10  1  0  0  0  0
  2  3  1  0  0  0  0
  2  1  2  0  0  0  0
  3  4  2  0  0  0  0
  4 13  1  0  0  0  0
  4  5  1  0  0  0  0
  5  6  1  0  0  0  0
  6  7  2  0  0  0  0
  7 15  1  0  0  0  0
  8  7  1  0  0  0  0
  8 16  1  0  0  0  0
  9 18  1  0  0  0  0
  9  8  2  0  0  0  0
 10  5  2  0  0  0  0
 10  9  1  0  0  0  0
 11  2  1  0  0  0  0
 12  3  1  0  0  0  0
 14  6  1  0  0  0  0
 17 22  2  0  0  0  0
 17 18  1  0  0  0  0
 18 19  2  0  0  0  0
 19 20  1  0  0  0  0
 19 23  1  0  0  0  0
 20 24  1  0  0  0  0
 21 25  1  0  0  0  0
 21 20  2  0  0  0  0
 22 21  1  0  0  0  0
 26 17  1  0  0  0  0
 27 26  1  0  0  0  0
 28 22  1  0  0  0  0
 29 30  1  0  0  0  0
 30 31  1  0  0  0  0
 31 32  1  0  0  0  0
 31 28  1  1  0  0  0
 32 33  1  0  0  0  0
 34 32  1  0  0  0  0
 35 34  1  0  0  0  0
 36 30  1  0  0  0  0
 36 35  1  0  0  0  0
 37 43  1  0  0  0  0
 37 42  1  0  0  0  0
 38 37  2  0  0  0  0
 39 40  2  0  0  0  0
 39 38  1  0  0  0  0
 40 41  1  0  0  0  0
 41  1  1  0  0  0  0
 41 42  2  0  0  0  0
 44 38  1  0  0  0  0
 45 47  1  0  0  0  0
 45 39  1  0  0  0  0
 46 45  1  0  0  0  0
M  END
>  <minimizedAffinity>
-6.67205095

$$$$

 OpenBabel03242521573D

 47 51  0  0  1  0  0  0  0  0999 V2000
   37.4580   26.4020   41.4480 C   0  0  0  0  0  0  0  0  0  0  0  0
   37.5380   25.2000   42.1460 C   0  0  0  0  0  0  0  0  0  0  0  0
   37.0550   23.9890   41.6340 C   0  0  0  0  0  0  0  0  0  0  0  0
   36.4740   23.9370   40.3980 C   0  0  0  0  0  0  0  0  0  0  0  0
   36.3730   25.1440   39.6720 C   0  0  0  0  0  0  0  0  0  0  0  0
   35.7390   25.0610   38.4770 C   0  0  0  0  0  0  0  0  0  0  0  0
   35.5530   26.2510   37.7670 C   0  0  0  0  0  0  0  0  0  0  0  0
   36.0340   27.4810   38.3450 C   0  0  0  0  0  0  0  0  0  0  0  0
   36.6560   27.3920   39.5690 C   0  0  0  0  0  0  0  0  0  0  0  0
   36.8800   26.2960   40.2770 C   0  0  0  0  0  0  0  0  0  0  0  0
   38.0050   25.2220   43.1450 H   0  0  0  0  0  0  0  0  0  0  0  0
   37.1690   23.1070   42.2700 H   0  0  0  0  0  0  0  0  0  0  0  0
   36.1090   22.9960   40.0060 H   0  0  0  0  0  0  0  0  0  0  0  0
   35.3920   24.1130   38.0900 H   0  0  0  0  0  0  0  0  0  0  0  0
   35.0480   26.1120   36.8250 H   0  0  0  0  0  0  0  0  0  0  0  0
   35.7570   28.2060   37.5970 H   0  0  0  0  0  0  0  0  0  0  0  0
   37.7510   29.4290   39.2640 C   0  0  0  0  0  0  0  0  0  0  0  0
   36.5510   28.8160   39.7980 C   0  0  0  0  0  0  0  0  0  0  0  0
   35.8110   29.7180   40.4420 C   0  0  0  0  0  0  0  0  0  0  0  0
   36.1280   31.0560   40.5980 C   0  0  0  0  0  0  0  0  0  0  0  0
   37.2720   31.6050   40.0860 C   0  0  0  0  0  0  0  0  0  0  0  0
   38.1050   30.7620   39.4000 C   0  0  0  0  0  0  0  0  0  0  0  0
   34.9320   29.1750   40.8040 H   0  0  0  0  0  0  0  0  0  0  0  0
   35.3110   31.5150   41.1770 H   0  0  0  0  0  0  0  0  0  0  0  0
   37.2210   32.6340   40.3730 H   0  0  0  0  0  0  0  0  0  0  0  0
   38.7650   28.7770   38.5120 O   0  0  0  0  0  0  0  0  0  0  0  0
   39.7040   28.6780   38.8630 H   0  0  0  0  0  0  0  0  0  0  0  0
   39.2380   31.3620   38.9230 O   0  0  0  0  0  0  0  0  0  0  0  0
   41.7980   31.4050   38.5080 H   0  0  0  0  0  0  0  0  0  0  0  0
   41.4660   31.2620   39.4710 N   0  0  0  0  0  0  0  0  0  0  0  0
   40.1900   31.9600   39.7010 C   0  0  1  0  0  3  0  0  0  0  0  0
   40.4790   33.4050   39.3020 C   0  0  0  0  0  3  0  0  0  0  0  0
   39.5560   34.0010   39.2470 H   0  0  0  0  0  0  0  0  0  0  0  0
   41.3120   33.9350   40.2560 O   0  0  0  0  0  0  0  0  0  0  0  0
   41.9620   33.0290   41.0560 C   0  0  0  0  0  2  0  0  0  0  0  0
   42.4500   31.7920   40.3760 C   0  0  0  0  0  2  0  0  0  0  0  0
   38.8040   29.4970   43.0410 C   0  0  0  0  0  0  0  0  0  0  0  0
   40.1100   29.4970   42.5040 C   0  0  0  0  0  0  0  0  0  0  0  0
   40.4140   28.4720   41.6330 C   0  0  0  0  0  0  0  0  0  0  0  0
   39.4300   27.6020   41.4110 N   0  0  0  0  0  0  0  0  0  0  0  0
   38.1940   27.5710   41.8990 C   0  0  0  0  0  0  0  0  0  0  0  0
   37.9230   28.5470   42.7150 N   0  0  0  0  0  0  0  0  0  0  0  0
   38.6030   30.3140   43.7160 H   0  0  0  0  0  0  0  0  0  0  0  0
   40.8340   30.2460   42.7510 H   0  0  0  0  0  0  0  0  0  0  0  0
   41.6600   28.3840   40.9680 N   0  0  0  0  0  0  0  0  0  0  0  0
   42.5750   28.0470   41.3300 H   0  0  0  0  0  0  0  0  0  0  0  0
   41.7440   28.6800   39.9740 H   0  0  0  0  0  0  0  0  0  0  0  0
  1 41  1  0  0  0  0
  1  2  1  0  0  0  0
  2 11  1  0  0  0  0
  3  2  2  0  0  0  0
  3 12  1  0  0  0  0
  4  3  1  0  0  0  0
  5 10  1  0  0  0  0
  5  4  2  0  0  0  0
  6  5  1  0  0  0  0
  7  8  1  0  0  0  0
  7  6  2  0  0  0  0
  8  9  2  0  0  0  0
  9 18  1  0  0  0  0
  9 10  1  0  0  0  0
 10  1  2  0  0  0  0
 13  4  1  0  0  0  0
 14  6  1  0  0  0  0
 15  7  1  0  0  0  0
 16  8  1  0  0  0  0
 17 22  2  0  0  0  0
 17 18  1  0  0  0  0
 18 19  2  0  0  0  0
 19 20  1  0  0  0  0
 19 23  1  0  0  0  0
 20 24  1  0  0  0  0
 21 25  1  0  0  0  0
 21 20  2  0  0  0  0
 22 21  1  0  0  0  0
 26 27  1  0  0  0  0
 26 17  1  0  0  0  0
 28 22  1  0  0  0  0
 29 30  1  0  0  0  0
 30 31  1  0  0  0  0
 30 36  1  0  0  0  0
 31 28  1  6  0  0  0
 32 31  1  0  0  0  0
 32 34  1  0  0  0  0
 33 32  1  0  0  0  0
 34 35  1  0  0  0  0
 36 35  1  0  0  0  0
 37 43  1  0  0  0  0
 38 44  1  0  0  0  0
 38 37  2  0  0  0  0
 39 38  1  0  0  0  0
 40 39  2  0  0  0  0
 40 41  1  0  0  0  0
 41 42  2  0  0  0  0
 42 37  1  0  0  0  0
 45 46  1  0  0  0  0
 45 39  1  0  0  0  0
 47 45  1  0  0  0  0
M  END
>  <minimizedAffinity>
-6.626894

$$$$

 OpenBabel03242521573D

 47 51  0  0  1  0  0  0  0  0999 V2000
   37.3170   26.7480   40.7010 C   0  0  0  0  0  0  0  0  0  0  0  0
   36.7320   25.7210   39.9660 C   0  0  0  0  0  0  0  0  0  0  0  0
   36.9680   24.3660   40.2310 C   0  0  0  0  0  0  0  0  0  0  0  0
   37.8000   23.9900   41.2470 C   0  0  0  0  0  0  0  0  0  0  0  0
   38.4130   25.0120   42.0030 C   0  0  0  0  0  0  0  0  0  0  0  0
   39.2760   24.5980   42.9640 C   0  0  0  0  0  0  0  0  0  0  0  0
   39.9580   25.5870   43.6800 C   0  0  0  0  0  0  0  0  0  0  0  0
   39.7130   26.9690   43.3520 C   0  0  0  0  0  0  0  0  0  0  0  0
   38.8060   27.2200   42.3480 C   0  0  0  0  0  0  0  0  0  0  0  0
   38.1150   26.3300   41.6520 C   0  0  0  0  0  0  0  0  0  0  0  0
   36.0570   26.0060   39.1420 H   0  0  0  0  0  0  0  0  0  0  0  0
   36.4560   23.6440   39.5880 H   0  0  0  0  0  0  0  0  0  0  0  0
   37.9730   22.9400   41.4500 H   0  0  0  0  0  0  0  0  0  0  0  0
   39.4280   23.5480   43.1670 H   0  0  0  0  0  0  0  0  0  0  0  0
   40.6230   25.1890   44.4290 H   0  0  0  0  0  0  0  0  0  0  0  0
   40.3600   27.4830   44.0450 H   0  0  0  0  0  0  0  0  0  0  0  0
   40.2960   28.6030   41.2060 C   0  0  0  0  0  0  0  0  0  0  0  0
   39.2460   28.5900   42.2060 C   0  0  0  0  0  0  0  0  0  0  0  0
   39.1180   29.7900   42.7670 C   0  0  0  0  0  0  0  0  0  0  0  0
   39.8750   30.9090   42.4600 C   0  0  0  0  0  0  0  0  0  0  0  0
   40.8640   30.8890   41.5140 C   0  0  0  0  0  0  0  0  0  0  0  0
   41.0770   29.6990   40.8720 C   0  0  0  0  0  0  0  0  0  0  0  0
   38.3090   29.6910   43.4980 H   0  0  0  0  0  0  0  0  0  0  0  0
   39.5160   31.7270   43.1030 H   0  0  0  0  0  0  0  0  0  0  0  0
   41.2490   31.8870   41.5160 H   0  0  0  0  0  0  0  0  0  0  0  0
   40.7040   27.5070   40.4000 O   0  0  0  0  0  0  0  0  0  0  0  0
   41.6230   27.1030   40.4800 H   0  0  0  0  0  0  0  0  0  0  0  0
   42.0840   29.7360   39.9470 O   0  0  0  0  0  0  0  0  0  0  0  0
   43.9460   29.8930   38.1470 H   0  0  0  0  0  0  0  0  0  0  0  0
   43.6320   30.7630   38.5960 N   0  0  0  0  0  0  0  0  0  0  0  0
   42.2090   30.6840   38.9690 C   0  0  1  0  0  3  0  0  0  0  0  0
   41.5040   30.3090   37.6680 C   0  0  0  0  0  3  0  0  0  0  0  0
   40.4540   30.0330   37.8440 H   0  0  0  0  0  0  0  0  0  0  0  0
   41.5580   31.4050   36.8420 O   0  0  0  0  0  0  0  0  0  0  0  0
   42.4890   32.3580   37.1700 C   0  0  0  0  0  2  0  0  0  0  0  0
   43.8020   31.8440   37.6620 C   0  0  0  0  0  2  0  0  0  0  0  0
   35.8440   30.1660   40.9830 C   0  0  0  0  0  0  0  0  0  0  0  0
   36.4240   30.7740   39.8480 C   0  0  0  0  0  0  0  0  0  0  0  0
   37.2370   29.9740   39.0740 C   0  0  0  0  0  0  0  0  0  0  0  0
   37.3770   28.7200   39.5010 N   0  0  0  0  0  0  0  0  0  0  0  0
   36.8490   28.1170   40.5610 C   0  0  0  0  0  0  0  0  0  0  0  0
   36.0810   28.8850   41.2780 N   0  0  0  0  0  0  0  0  0  0  0  0
   35.2130   30.8220   41.5630 H   0  0  0  0  0  0  0  0  0  0  0  0
   36.2500   31.7980   39.5920 H   0  0  0  0  0  0  0  0  0  0  0  0
   37.8300   30.4300   37.8720 N   0  0  0  0  0  0  0  0  0  0  0  0
   38.6710   31.0270   37.7410 H   0  0  0  0  0  0  0  0  0  0  0  0
   37.4180   30.1660   36.9540 H   0  0  0  0  0  0  0  0  0  0  0  0
  1 10  1  0  0  0  0
  2  3  1  0  0  0  0
  2  1  2  0  0  0  0
  3  4  2  0  0  0  0
  4 13  1  0  0  0  0
  4  5  1  0  0  0  0
  5  6  1  0  0  0  0
  6 14  1  0  0  0  0
  6  7  2  0  0  0  0
  7 15  1  0  0  0  0
  8  7  1  0  0  0  0
  8 16  1  0  0  0  0
  9  8  2  0  0  0  0
 10  5  2  0  0  0  0
 10  9  1  0  0  0  0
 11  2  1  0  0  0  0
 12  3  1  0  0  0  0
 17 18  1  0  0  0  0
 18  9  1  0  0  0  0
 18 19  2  0  0  0  0
 19 23  1  0  0  0  0
 20 19  1  0  0  0  0
 20 24  1  0  0  0  0
 21 25  1  0  0  0  0
 21 20  2  0  0  0  0
 22 17  2  0  0  0  0
 22 21  1  0  0  0  0
 26 27  1  0  0  0  0
 26 17  1  0  0  0  0
 28 22  1  0  0  0  0
 29 30  1  0  0  0  0
 30 31  1  0  0  0  0
 31 28  1  1  0  0  0
 32 33  1  0  0  0  0
 32 31  1  0  0  0  0
 34 35  1  0  0  0  0
 34 32  1  0  0  0  0
 35 36  1  0  0  0  0
 36 30  1  0  0  0  0
 37 42  1  0  0  0  0
 37 43  1  0  0  0  0
 38 37  2  0  0  0  0
 39 40  2  0  0  0  0
 39 38  1  0  0  0  0
 40 41  1  0  0  0  0
 41  1  1  0  0  0  0
 41 42  2  0  0  0  0
 44 38  1  0  0  0  0
 45 39  1  0  0  0  0
 46 45  1  0  0  0  0
 47 45  1  0  0  0  0
M  END
>  <minimizedAffinity>
-6.51259136

$$$$

 OpenBabel03242521573D

 47 51  0  0  1  0  0  0  0  0999 V2000
   37.2870   26.3770   38.8110 C   0  0  0  0  0  0  0  0  0  0  0  0
   37.8160   25.2470   38.1940 C   0  0  0  0  0  0  0  0  0  0  0  0
   38.1920   24.0990   38.9030 C   0  0  0  0  0  0  0  0  0  0  0  0
   38.0490   24.0400   40.2610 C   0  0  0  0  0  0  0  0  0  0  0  0
   37.5220   25.1760   40.9120 C   0  0  0  0  0  0  0  0  0  0  0  0
   37.4510   25.1000   42.2640 C   0  0  0  0  0  0  0  0  0  0  0  0
   37.0070   26.2370   42.9470 C   0  0  0  0  0  0  0  0  0  0  0  0
   36.6640   27.4100   42.1820 C   0  0  0  0  0  0  0  0  0  0  0  0
   36.7930   27.3230   40.8150 C   0  0  0  0  0  0  0  0  0  0  0  0
   37.1860   26.2710   40.1130 C   0  0  0  0  0  0  0  0  0  0  0  0
   37.9370   25.2760   37.0990 H   0  0  0  0  0  0  0  0  0  0  0  0
   38.5970   23.2700   38.3160 H   0  0  0  0  0  0  0  0  0  0  0  0
   38.3350   23.1470   40.8010 H   0  0  0  0  0  0  0  0  0  0  0  0
   37.7260   24.1980   42.7900 H   0  0  0  0  0  0  0  0  0  0  0  0
   36.9700   26.1060   44.0160 H   0  0  0  0  0  0  0  0  0  0  0  0
   36.3670   28.1030   42.9530 H   0  0  0  0  0  0  0  0  0  0  0  0
   38.0550   29.2830   40.8670 C   0  0  0  0  0  0  0  0  0  0  0  0
   36.7210   28.7580   40.6520 C   0  0  0  0  0  0  0  0  0  0  0  0
   35.8430   29.7500   40.5170 C   0  0  0  0  0  0  0  0  0  0  0  0
   36.1370   31.1010   40.5760 C   0  0  0  0  0  0  0  0  0  0  0  0
   37.4070   31.5680   40.7840 C   0  0  0  0  0  0  0  0  0  0  0  0
   38.3910   30.6270   40.9340 C   0  0  0  0  0  0  0  0  0  0  0  0
   34.8730   29.2660   40.3570 H   0  0  0  0  0  0  0  0  0  0  0  0
   35.1910   31.6440   40.4280 H   0  0  0  0  0  0  0  0  0  0  0  0
   37.3000   32.6320   40.7760 H   0  0  0  0  0  0  0  0  0  0  0  0
   39.2410   28.5220   41.0410 O   0  0  0  0  0  0  0  0  0  0  0  0
   39.7560   28.5340   41.9060 H   0  0  0  0  0  0  0  0  0  0  0  0
   39.6350   31.1500   41.1520 O   0  0  0  0  0  0  0  0  0  0  0  0
   42.0640   32.0520   41.2910 H   0  0  0  0  0  0  0  0  0  0  0  0
   41.2950   32.7340   41.2660 N   0  0  0  0  0  0  0  0  0  0  0  0
   40.1570   32.2220   40.4830 C   0  0  1  0  0  3  0  0  0  0  0  0
   40.7700   31.8550   39.1340 C   0  0  0  0  0  3  0  0  0  0  0  0
   40.0650   31.2840   38.5130 H   0  0  0  0  0  0  0  0  0  0  0  0
   41.0960   33.0280   38.4990 O   0  0  0  0  0  0  0  0  0  0  0  0
   41.1690   34.1430   39.2960 C   0  0  0  0  0  2  0  0  0  0  0  0
   41.7760   33.9390   40.6450 C   0  0  0  0  0  2  0  0  0  0  0  0
   36.3840   29.2890   36.6580 C   0  0  0  0  0  0  0  0  0  0  0  0
   34.9980   29.0610   36.5110 C   0  0  0  0  0  0  0  0  0  0  0  0
   34.4860   27.9630   37.1710 C   0  0  0  0  0  0  0  0  0  0  0  0
   35.3710   27.2500   37.8640 N   0  0  0  0  0  0  0  0  0  0  0  0
   36.6780   27.4350   38.0220 C   0  0  0  0  0  0  0  0  0  0  0  0
   37.1440   28.4760   37.3980 N   0  0  0  0  0  0  0  0  0  0  0  0
   36.7480   30.1570   36.1300 H   0  0  0  0  0  0  0  0  0  0  0  0
   34.3690   29.6960   35.9240 H   0  0  0  0  0  0  0  0  0  0  0  0
   33.1050   27.6510   37.1680 N   0  0  0  0  0  0  0  0  0  0  0  0
   32.5380   27.1910   36.4270 H   0  0  0  0  0  0  0  0  0  0  0  0
   32.5140   27.8870   37.9910 H   0  0  0  0  0  0  0  0  0  0  0  0
  1 10  1  0  0  0  0
  2  1  2  0  0  0  0
  2  3  1  0  0  0  0
  3  4  2  0  0  0  0
  4 13  1  0  0  0  0
  4  5  1  0  0  0  0
  5  6  1  0  0  0  0
  6 14  1  0  0  0  0
  6  7  2  0  0  0  0
  7 15  1  0  0  0  0
  8  7  1  0  0  0  0
  8 16  1  0  0  0  0
  9  8  2  0  0  0  0
 10  9  1  0  0  0  0
 10  5  2  0  0  0  0
 11  2  1  0  0  0  0
 12  3  1  0  0  0  0
 17 22  1  0  0  0  0
 17 26  1  0  0  0  0
 18  9  1  0  0  0  0
 18 17  2  0  0  0  0
 19 20  2  0  0  0  0
 19 18  1  0  0  0  0
 20 21  1  0  0  0  0
 21 22  2  0  0  0  0
 22 28  1  0  0  0  0
 23 19  1  0  0  0  0
 24 20  1  0  0  0  0
 25 21  1  0  0  0  0
 26 27  1  0  0  0  0
 30 29  1  0  0  0  0
 31 28  1  1  0  0  0
 31 30  1  0  0  0  0
 32 31  1  0  0  0  0
 33 32  1  0  0  0  0
 34 32  1  0  0  0  0
 34 35  1  0  0  0  0
 35 36  1  0  0  0  0
 36 30  1  0  0  0  0
 37 42  1  0  0  0  0
 38 37  2  0  0  0  0
 38 39  1  0  0  0  0
 39 40  2  0  0  0  0
 40 41  1  0  0  0  0
 41  1  1  0  0  0  0
 42 41  2  0  0  0  0
 43 37  1  0  0  0  0
 44 38  1  0  0  0  0
 45 39  1  0  0  0  0
 45 47  1  0  0  0  0
 46 45  1  0  0  0  0
M  END
>  <minimizedAffinity>
-6.51212311

$$$$
