
 OpenBabel03242510113D

 41 44  0  0  1  0  0  0  0  0999 V2000
   46.6330   32.9610   38.6570 N   0  0  0  0  0  0  0  0  0  0  0  0
   45.7530   33.3130   37.5420 C   0  0  0  0  0  0  0  0  0  0  0  0
   44.8790   32.1690   37.1170 C   0  0  0  0  0  0  0  0  0  0  0  0
   45.6550   31.0530   36.6100 N   0  0  0  0  0  0  0  0  0  0  0  0
   47.0400   31.2080   37.0720 C   0  0  0  0  0  0  0  0  0  0  0  0
   47.0140   31.5640   38.5410 C   0  0  1  0  0  0  0  0  0  0  0  0
   45.0450   34.0960   37.9440 H   0  0  0  0  0  0  0  0  0  0  0  0
   46.2730   33.8020   36.7150 H   0  0  0  0  0  0  0  0  0  0  0  0
   44.1070   32.5380   36.4450 H   0  0  0  0  0  0  0  0  0  0  0  0
   44.3550   31.8200   38.0540 H   0  0  0  0  0  0  0  0  0  0  0  0
   45.6750   31.0290   35.5700 H   0  0  0  0  0  0  0  0  0  0  0  0
   47.4030   32.1100   36.5150 H   0  0  0  0  0  0  0  0  0  0  0  0
   47.6510   30.3420   36.8190 H   0  0  0  0  0  0  0  0  0  0  0  0
   46.1470   30.9740   39.0040 H   0  0  0  0  0  0  0  0  0  0  0  0
   44.7630   32.9820   41.1730 Br  0  0  0  0  0  0  0  0  0  0  0  0
   46.4090   33.9270   40.9150 C   0  0  0  0  0  0  0  0  0  0  0  0
   46.8810   34.7240   41.9140 C   0  0  0  0  0  0  0  0  0  0  0  0
   48.0830   35.4350   41.7440 C   0  0  0  0  0  0  0  0  0  0  0  0
   48.7510   35.2970   40.5480 C   0  0  0  0  0  0  0  0  0  0  0  0
   48.2260   34.4780   39.5740 C   0  0  0  0  0  0  0  0  0  0  0  0
   47.0780   33.7880   39.7190 C   0  0  0  0  0  0  0  0  0  0  0  0
   48.4060   36.0540   42.5770 H   0  0  0  0  0  0  0  0  0  0  0  0
   49.6630   35.8720   40.4900 H   0  0  0  0  0  0  0  0  0  0  0  0
   48.8710   34.4930   38.7070 H   0  0  0  0  0  0  0  0  0  0  0  0
   45.6430   34.0400   45.2740 C   0  0  0  0  0  0  0  0  0  0  0  0
   44.7160   35.0930   45.5090 C   0  0  0  0  0  0  0  0  0  0  0  0
   44.5430   36.0250   44.4810 C   0  0  0  0  0  0  0  0  0  0  0  0
   45.2530   35.8760   43.3440 N   0  0  0  0  0  0  0  0  0  0  0  0
   46.1410   34.8410   43.1560 C   0  0  0  0  0  0  0  0  0  0  0  0
   46.3120   33.9440   44.1350 N   0  0  0  0  0  0  0  0  0  0  0  0
   45.6970   33.3870   46.1220 H   0  0  0  0  0  0  0  0  0  0  0  0
   44.1280   35.2680   46.3760 H   0  0  0  0  0  0  0  0  0  0  0  0
   43.8880   36.8750   44.4930 H   0  0  0  0  0  0  0  0  0  0  0  0
   48.1570   31.1670   39.2820 N   0  0  1  0  0  0  0  0  0  0  0  0
   49.2740   32.0500   38.8750 C   0  0  0  0  0  0  0  0  0  0  0  0
   49.4310   32.0650   37.8000 H   0  0  0  0  0  0  0  0  0  0  0  0
   50.5000   31.5130   39.5930 C   0  0  0  0  0  0  0  0  0  0  0  0
   51.3050   32.2410   39.3800 H   0  0  0  0  0  0  0  0  0  0  0  0
   50.3410   31.4760   40.9540 O   0  0  0  0  0  0  0  0  0  0  0  0
   49.1800   30.7870   41.3660 C   0  0  0  0  0  0  0  0  0  0  0  0
   48.0340   31.5050   40.7170 C   0  0  0  0  0  0  0  0  0  0  0  0
  1 21  1  0  0  0  0
  2  7  1  0  0  0  0
  2  1  1  0  0  0  0
  3  2  1  0  0  0  0
  3 10  1  0  0  0  0
  4  5  1  0  0  0  0
  4  3  1  0  0  0  0
  5  6  1  0  0  0  0
  6  1  1  0  0  0  0
  6 14  1  1  0  0  0
  6 34  1  0  0  0  0
  8  2  1  0  0  0  0
  9  3  1  0  0  0  0
 11  4  1  0  0  0  0
 12  5  1  0  0  0  0
 13  5  1  0  0  0  0
 16 15  1  0  0  0  0
 16 17  1  0  0  0  0
 17 29  1  0  0  0  0
 18 17  2  0  0  0  0
 18 22  1  0  0  0  0
 19 18  1  0  0  0  0
 20 21  1  0  0  0  0
 20 19  2  0  0  0  0
 21 16  2  0  0  0  0
 23 19  1  0  0  0  0
 24 20  1  0  0  0  0
 25 26  1  0  0  0  0
 25 31  1  0  0  0  0
 26 32  1  0  0  0  0
 27 33  1  0  0  0  0
 27 26  2  0  0  0  0
 28 27  1  0  0  0  0
 29 28  2  0  0  0  0
 29 30  1  0  0  0  0
 30 25  2  0  0  0  0
 34 41  1  1  0  0  0
 35 34  1  0  0  0  0
 35 37  1  0  0  0  0
 36 35  1  0  0  0  0
 37 39  1  0  0  0  0
 38 37  1  0  0  0  0
 39 40  1  0  0  0  0
 41 40  1  0  0  0  0
M  END
>  <minimizedAffinity>
-5.88059902

>  <minimizedRMSD>
0.0999627188

$$$$
