
 OpenBabel03252500563D

 37 39  0  0  0  0  0  0  0  0999 V2000
   43.7130   34.8130   40.1360 O   0  0  0  0  0  0  0  0  0  0  0  0
   43.2750   34.6840   41.5980 P   0  0  1  0  0  0  0  0  0  0  0  0
   43.1850   33.0340   41.9700 O   0  0  0  0  0  0  0  0  0  0  0  0
   42.7070   32.9110   42.8390 H   0  0  0  0  0  0  0  0  0  0  0  0
   44.4480   35.3830   42.5970 O   0  0  0  0  0  0  0  0  0  0  0  0
   46.5250   34.3590   42.9980 C   0  0  0  0  0  0  0  0  0  0  0  0
   45.2850   34.7160   43.4820 C   0  0  0  0  0  0  0  0  0  0  0  0
   44.9600   34.3880   44.8080 C   0  0  0  0  0  0  0  0  0  0  0  0
   45.8890   33.7390   45.5300 N   0  0  0  0  0  0  0  0  0  0  0  0
   47.0890   33.3990   45.0430 C   0  0  0  0  0  0  0  0  0  0  0  0
   47.3990   33.7100   43.7860 N   0  0  0  0  0  0  0  0  0  0  0  0
   43.9760   34.6870   45.1480 H   0  0  0  0  0  0  0  0  0  0  0  0
   47.8150   32.8720   45.6660 H   0  0  0  0  0  0  0  0  0  0  0  0
   46.9220   34.6690   41.6350 C   0  0  0  0  0  0  0  0  0  0  0  0
   46.8780   33.8150   40.9340 H   0  0  0  0  0  0  0  0  0  0  0  0
   46.2150   35.4330   41.2170 H   0  0  0  0  0  0  0  0  0  0  0  0
   48.2820   35.3290   41.6480 C   0  0  0  0  0  0  0  0  0  0  0  0
   48.6540   35.3030   40.5920 H   0  0  0  0  0  0  0  0  0  0  0  0
   48.9590   34.7240   42.2510 H   0  0  0  0  0  0  0  0  0  0  0  0
   48.2040   36.3890   41.9630 H   0  0  0  0  0  0  0  0  0  0  0  0
   41.7310   35.3530   41.8130 O   0  0  0  0  0  0  0  0  0  0  0  0
   40.6470   34.6790   41.2720 C   0  0  0  0  0  0  0  0  0  0  0  0
   39.8800   35.3360   40.3170 C   0  0  0  0  0  0  0  0  0  0  0  0
   38.7780   34.7450   39.7200 C   0  0  0  0  0  0  0  0  0  0  0  0
   38.4510   33.4800   40.0920 N   0  0  0  0  0  0  0  0  0  0  0  0
   39.1940   32.8530   41.0130 C   0  0  0  0  0  0  0  0  0  0  0  0
   40.2490   33.4310   41.5780 N   0  0  0  0  0  0  0  0  0  0  0  0
   40.0660   36.3320   39.9660 H   0  0  0  0  0  0  0  0  0  0  0  0
   38.1730   35.2280   38.9840 H   0  0  0  0  0  0  0  0  0  0  0  0
   38.9030   31.5280   41.4450 N   0  0  0  0  0  0  0  0  0  0  0  0
   39.8000   30.6830   42.1800 C   0  0  0  0  0  0  0  0  0  0  0  0
   39.7250   30.9310   43.2580 H   0  0  0  0  0  0  0  0  0  0  0  0
   39.3330   29.2390   42.0290 C   0  0  0  0  0  0  0  0  0  0  0  0
   38.3640   29.0560   42.5320 H   0  0  0  0  0  0  0  0  0  0  0  0
   39.1250   29.0200   40.6540 O   0  0  0  0  0  0  0  0  0  0  0  0
   37.8590   29.5820   40.3780 C   0  0  0  0  0  0  0  0  0  0  0  0
   37.6560   30.8400   41.2040 C   0  0  0  0  0  0  0  0  0  0  0  0
  2  1  2  6  0  0  0
  2 21  1  0  0  0  0
  2  3  1  0  0  0  0
  2  5  1  0  0  0  0
  3  4  1  0  0  0  0
  5  7  1  0  0  0  0
  6  7  2  0  0  0  0
  6 11  1  0  0  0  0
  7  8  1  0  0  0  0
  8 12  1  0  0  0  0
  8  9  2  0  0  0  0
 10  9  1  0  0  0  0
 10 13  1  0  0  0  0
 11 10  2  0  0  0  0
 14 17  1  0  0  0  0
 14  6  1  0  0  0  0
 15 14  1  0  0  0  0
 16 14  1  0  0  0  0
 17 20  1  0  0  0  0
 17 19  1  0  0  0  0
 18 17  1  0  0  0  0
 22 27  1  0  0  0  0
 22 21  1  0  0  0  0
 23 22  2  0  0  0  0
 24 25  2  0  0  0  0
 24 23  1  0  0  0  0
 25 26  1  0  0  0  0
 26 30  1  0  0  0  0
 26 27  2  0  0  0  0
 28 23  1  0  0  0  0
 29 24  1  0  0  0  0
 30 31  1  0  0  0  0
 31 32  1  0  0  0  0
 33 31  1  0  0  0  0
 33 34  1  0  0  0  0
 35 33  1  0  0  0  0
 36 35  1  0  0  0  0
 36 37  1  0  0  0  0
 37 30  1  0  0  0  0
M  END
>  <minimizedAffinity>
-5.95333815

>  <minimizedRMSD>
0.371067643

$$$$
