
 OpenBabel03252508533D

 42 45  0  0  1  0  0  0  0  0999 V2000
   43.3680   34.4800   40.7780 C   0  0  0  0  0  0  0  0  0  0  0  0
   43.2920   35.7340   40.5270 O   0  0  0  0  0  0  0  0  0  0  0  0
   42.0160   34.0890   40.4200 N   0  0  0  0  0  0  0  0  0  0  0  0
   41.6510   34.3340   39.0460 C   0  0  0  0  0  0  0  0  0  0  0  0
   40.8250   35.6320   39.0850 C   0  0  0  0  0  0  0  0  0  0  0  0
   40.0190   35.5900   40.3780 C   0  0  0  0  0  0  0  0  0  0  0  0
   39.6970   34.1570   40.8040 C   0  0  0  0  0  0  0  0  0  0  0  0
   40.9930   33.4910   41.2490 C   0  0  1  0  0  0  0  0  0  0  0  0
   42.5080   34.5210   38.3750 H   0  0  0  0  0  0  0  0  0  0  0  0
   40.9830   33.5500   38.6220 H   0  0  0  0  0  0  0  0  0  0  0  0
   41.4930   36.5230   39.1110 H   0  0  0  0  0  0  0  0  0  0  0  0
   40.1720   35.7220   38.1990 H   0  0  0  0  0  0  0  0  0  0  0  0
   39.0220   36.0630   40.1740 H   0  0  0  0  0  0  0  0  0  0  0  0
   40.5580   36.0790   41.2010 H   0  0  0  0  0  0  0  0  0  0  0  0
   39.2490   33.6350   39.9280 H   0  0  0  0  0  0  0  0  0  0  0  0
   38.9680   34.2550   41.6200 H   0  0  0  0  0  0  0  0  0  0  0  0
   41.1650   33.6920   42.3280 H   0  0  0  0  0  0  0  0  0  0  0  0
   40.8360   32.0910   41.0600 N   0  0  2  0  0  0  0  0  0  0  0  0
   41.6240   31.4060   42.0640 C   0  0  0  0  0  3  0  0  0  0  0  0
   40.9890   30.9790   42.8710 H   0  0  0  0  0  0  0  0  0  0  0  0
   42.5320   30.3620   41.4550 C   0  0  0  0  0  3  0  0  0  0  0  0
   42.9740   29.7860   42.2940 H   0  0  0  0  0  0  0  0  0  0  0  0
   41.8510   29.4680   40.6410 O   0  0  0  0  0  0  0  0  0  0  0  0
   40.9680   30.0850   39.7800 C   0  0  0  0  0  2  0  0  0  0  0  0
   41.1910   31.5930   39.7670 C   0  0  0  0  0  2  0  0  0  0  0  0
   44.4430   33.7900   41.2440 O   0  0  0  0  0  0  0  0  0  0  0  0
   45.7740   34.1240   41.1040 C   0  0  0  0  0  0  0  0  0  0  0  0
   46.4020   34.7440   42.1800 C   0  0  0  0  0  0  0  0  0  0  0  0
   47.7630   35.0710   42.0010 C   0  0  0  0  0  0  0  0  0  0  0  0
   48.3590   34.7680   40.8130 N   0  0  0  0  0  0  0  0  0  0  0  0
   47.7030   34.1760   39.8230 C   0  0  0  0  0  0  0  0  0  0  0  0
   46.4110   33.8490   39.9540 N   0  0  0  0  0  0  0  0  0  0  0  0
   48.2450   35.5490   42.8340 H   0  0  0  0  0  0  0  0  0  0  0  0
   48.2340   33.9590   38.8970 H   0  0  0  0  0  0  0  0  0  0  0  0
   45.6730   35.0190   43.3970 C   0  0  0  0  0  0  0  0  0  0  0  0
   45.0350   36.2420   43.6220 C   0  0  0  0  0  0  0  0  0  0  0  0
   44.4740   36.0910   44.8650 C   0  0  0  0  0  0  0  0  0  0  0  0
   44.7520   34.8590   45.3670 N   0  0  0  0  0  0  0  0  0  0  0  0
   45.4750   34.2460   44.4490 N   0  0  0  0  0  0  0  0  0  0  0  0
   44.9860   37.1140   42.9750 H   0  0  0  0  0  0  0  0  0  0  0  0
   43.8890   36.8320   45.3980 H   0  0  0  0  0  0  0  0  0  0  0  0
   44.4290   34.5050   46.3110 H   0  0  0  0  0  0  0  0  0  0  0  0
  1 26  1  0  0  0  0
  2  1  2  0  0  0  0
  3  1  1  0  0  0  0
  3  8  1  0  0  0  0
  4  5  1  0  0  0  0
  4  3  1  0  0  0  0
  5 11  1  0  0  0  0
  5  6  1  0  0  0  0
  6  7  1  0  0  0  0
  6 14  1  0  0  0  0
  7  8  1  0  0  0  0
  7 16  1  0  0  0  0
  8 17  1  1  0  0  0
  9  4  1  0  0  0  0
 10  4  1  0  0  0  0
 12  5  1  0  0  0  0
 13  6  1  0  0  0  0
 15  7  1  0  0  0  0
 18 25  1  6  0  0  0
 18  8  1  0  0  0  0
 18 19  1  0  0  0  0
 19 20  1  0  0  0  0
 21 19  1  0  0  0  0
 21 22  1  0  0  0  0
 23 21  1  0  0  0  0
 24 23  1  0  0  0  0
 25 24  1  0  0  0  0
 27 26  1  0  0  0  0
 27 28  1  0  0  0  0
 28 35  1  0  0  0  0
 29 28  2  0  0  0  0
 29 33  1  0  0  0  0
 30 29  1  0  0  0  0
 31 32  1  0  0  0  0
 31 30  2  0  0  0  0
 32 27  2  0  0  0  0
 34 31  1  0  0  0  0
 35 36  1  0  0  0  0
 35 39  2  0  0  0  0
 36 37  2  0  0  0  0
 37 38  1  0  0  0  0
 37 41  1  0  0  0  0
 38 42  1  0  0  0  0
 39 38  1  0  0  0  0
 40 36  1  0  0  0  0
M  END
>  <minimizedAffinity>
-6.49534416

>  <minimizedRMSD>
0.0833010525

$$$$
