
 OpenBabel03252508163D

 36 39  0  0  1  0  0  0  0  0999 V2000
   39.2510   26.8060   43.5440 C   0  0  0  0  0  0  0  0  0  0  0  0
   39.9940   27.0800   44.3270 H   0  0  0  0  0  0  0  0  0  0  0  0
   38.2770   26.5120   43.9740 H   0  0  0  0  0  0  0  0  0  0  0  0
   39.8380   25.6990   42.7040 C   0  0  1  0  0  0  0  0  0  0  0  0
   39.7460   24.3210   43.2630 C   0  0  0  0  0  0  0  0  0  0  0  0
   38.9410   24.6790   42.1110 C   0  0  1  0  0  0  0  0  0  0  0  0
   40.7310   25.9450   42.1130 H   0  0  0  0  0  0  0  0  0  0  0  0
   40.5780   23.6050   43.1630 H   0  0  0  0  0  0  0  0  0  0  0  0
   39.1910   24.2040   44.2330 H   0  0  0  0  0  0  0  0  0  0  0  0
   39.2780   24.2140   41.1330 H   0  0  0  0  0  0  0  0  0  0  0  0
   37.4810   24.9390   42.1370 C   0  0  0  0  0  0  0  0  0  0  0  0
   36.6670   24.1070   41.1130 C   0  0  0  0  0  0  0  0  0  0  0  0
   36.8840   25.5540   40.8600 C   0  0  0  0  0  0  0  0  0  0  0  0
   36.9670   25.1840   43.0810 H   0  0  0  0  0  0  0  0  0  0  0  0
   35.6600   23.7950   41.4480 H   0  0  0  0  0  0  0  0  0  0  0  0
   37.2260   23.4200   40.4530 H   0  0  0  0  0  0  0  0  0  0  0  0
   36.0780   26.2910   41.0010 H   0  0  0  0  0  0  0  0  0  0  0  0
   37.6190   25.8590   40.0850 H   0  0  0  0  0  0  0  0  0  0  0  0
   37.9430   28.6180   42.7550 C   0  0  0  0  0  3  0  0  0  0  0  0
   39.0890   28.0590   42.6920 C   0  0  0  0  0  3  0  0  0  0  0  0
   36.3320   31.2110   40.6960 C   0  0  0  0  0  0  0  0  0  0  0  0
   37.3650   32.0980   40.4200 C   0  0  0  0  0  0  0  0  0  0  0  0
   38.5750   31.7770   40.9580 C   0  0  0  0  0  0  0  0  0  0  0  0
   38.6920   30.6720   41.6900 N   0  0  0  0  0  0  0  0  0  0  0  0
   37.7120   29.8200   41.9570 C   0  0  0  0  0  0  0  0  0  0  0  0
   36.5260   30.1160   41.4440 N   0  0  0  0  0  0  0  0  0  0  0  0
   35.3460   31.4010   40.3040 H   0  0  0  0  0  0  0  0  0  0  0  0
   37.2430   32.9870   39.8230 H   0  0  0  0  0  0  0  0  0  0  0  0
   39.7470   32.5590   40.7870 N   0  0  0  0  0  0  0  0  0  0  0  0
   41.1100   32.2110   41.1160 C   0  0  0  0  0  3  0  0  0  0  0  0
   41.5490   32.9280   41.8640 H   0  0  0  0  0  0  0  0  0  0  0  0
   41.9700   32.1280   39.8770 C   0  0  0  0  0  3  0  0  0  0  0  0
   43.0160   32.2360   40.1820 H   0  0  0  0  0  0  0  0  0  0  0  0
   41.5860   33.0370   38.9030 O   0  0  0  0  0  0  0  0  0  0  0  0
   40.9650   34.1570   39.4160 C   0  0  0  0  0  2  0  0  0  0  0  0
   39.7390   33.8860   40.2290 C   0  0  0  0  0  2  0  0  0  0  0  0
  1  3  1  0  0  0  0
  1  2  1  0  0  0  0
  4  7  1  6  0  0  0
  4  5  1  0  0  0  0
  4  1  1  0  0  0  0
  5  9  1  0  0  0  0
  6 10  1  6  0  0  0
  6 11  1  0  0  0  0
  6  4  1  0  0  0  0
  6  5  1  0  0  0  0
  8  5  1  0  0  0  0
 11 14  1  0  0  0  0
 12 15  1  0  0  0  0
 12 11  1  0  0  0  0
 13 17  1  0  0  0  0
 13 12  1  0  0  0  0
 13 11  1  0  0  0  0
 16 12  1  0  0  0  0
 18 13  1  0  0  0  0
 20 19  2  0  0  0  0
 20  1  1  0  0  0  0
 21 26  1  0  0  0  0
 22 21  2  0  0  0  0
 22 23  1  0  0  0  0
 23 24  2  0  0  0  0
 24 25  1  0  0  0  0
 25 19  1  0  0  0  0
 26 25  2  0  0  0  0
 27 21  1  0  0  0  0
 28 22  1  0  0  0  0
 29 23  1  0  0  0  0
 29 30  1  0  0  0  0
 30 31  1  0  0  0  0
 32 33  1  0  0  0  0
 32 30  1  0  0  0  0
 34 35  1  0  0  0  0
 34 32  1  0  0  0  0
 35 36  1  0  0  0  0
 36 29  1  0  0  0  0
M  END
>  <minimizedAffinity>
-5.4215517

$$$$

 OpenBabel03252508163D

 36 39  0  0  1  0  0  0  0  0999 V2000
   32.5400   29.5420   36.5720 C   0  0  0  0  0  0  0  0  0  0  0  0
   32.8970   30.5330   36.9350 H   0  0  0  0  0  0  0  0  0  0  0  0
   32.6800   29.4200   35.4830 H   0  0  0  0  0  0  0  0  0  0  0  0
   31.0910   29.3910   36.9610 C   0  0  1  0  0  0  0  0  0  0  0  0
   30.6460   30.1350   38.1730 C   0  0  0  0  0  0  0  0  0  0  0  0
   30.1830   30.5590   36.8660 C   0  0  1  0  0  0  0  0  0  0  0  0
   30.6250   28.4140   36.7700 H   0  0  0  0  0  0  0  0  0  0  0  0
   29.9470   29.6870   38.8960 H   0  0  0  0  0  0  0  0  0  0  0  0
   31.4070   30.8010   38.6650 H   0  0  0  0  0  0  0  0  0  0  0  0
   29.0920   30.3380   36.6540 H   0  0  0  0  0  0  0  0  0  0  0  0
   30.6670   31.7560   36.1350 C   0  0  0  0  0  0  0  0  0  0  0  0
   29.5430   32.6070   35.4910 C   0  0  0  0  0  0  0  0  0  0  0  0
   30.4060   31.7690   34.6200 C   0  0  0  0  0  0  0  0  0  0  0  0
   31.5560   32.3080   36.4820 H   0  0  0  0  0  0  0  0  0  0  0  0
   29.7190   33.6980   35.4820 H   0  0  0  0  0  0  0  0  0  0  0  0
   28.5030   32.2530   35.6090 H   0  0  0  0  0  0  0  0  0  0  0  0
   31.1950   32.2140   33.9910 H   0  0  0  0  0  0  0  0  0  0  0  0
   29.9920   30.8310   34.1940 H   0  0  0  0  0  0  0  0  0  0  0  0
   34.4110   28.9830   37.9140 C   0  0  0  0  0  3  0  0  0  0  0  0
   33.3780   28.5170   37.3250 C   0  0  0  0  0  3  0  0  0  0  0  0
   36.3450   26.0020   38.8810 C   0  0  0  0  0  0  0  0  0  0  0  0
   36.8650   26.3390   40.1250 C   0  0  0  0  0  0  0  0  0  0  0  0
   36.5390   27.5800   40.5820 C   0  0  0  0  0  0  0  0  0  0  0  0
   35.7680   28.3690   39.8370 N   0  0  0  0  0  0  0  0  0  0  0  0
   35.2680   28.0550   38.6500 C   0  0  0  0  0  0  0  0  0  0  0  0
   35.5750   26.8520   38.1870 N   0  0  0  0  0  0  0  0  0  0  0  0
   36.5620   25.0360   38.4550 H   0  0  0  0  0  0  0  0  0  0  0  0
   37.4860   25.6800   40.7080 H   0  0  0  0  0  0  0  0  0  0  0  0
   36.9740   28.1020   41.8270 N   0  0  0  0  0  0  0  0  0  0  0  0
   37.0360   27.4310   43.1060 C   0  0  0  0  0  3  0  0  0  0  0  0
   36.3950   27.9480   43.8730 H   0  0  0  0  0  0  0  0  0  0  0  0
   38.4600   27.3000   43.5890 C   0  0  0  0  0  3  0  0  0  0  0  0
   38.4380   27.1430   44.6720 H   0  0  0  0  0  0  0  0  0  0  0  0
   39.2510   28.3720   43.2060 O   0  0  0  0  0  0  0  0  0  0  0  0
   38.5360   29.5370   43.0170 C   0  0  0  0  0  2  0  0  0  0  0  0
   37.4430   29.4520   42.0000 C   0  0  0  0  0  2  0  0  0  0  0  0
  1  2  1  0  0  0  0
  1  4  1  0  0  0  0
  1 20  1  0  0  0  0
  3  1  1  0  0  0  0
  4  7  1  6  0  0  0
  4  5  1  0  0  0  0
  5  9  1  0  0  0  0
  5  8  1  0  0  0  0
  6 10  1  6  0  0  0
  6  4  1  0  0  0  0
  6  5  1  0  0  0  0
 11 14  1  0  0  0  0
 11  6  1  0  0  0  0
 12 16  1  0  0  0  0
 12 11  1  0  0  0  0
 13 12  1  0  0  0  0
 13 11  1  0  0  0  0
 15 12  1  0  0  0  0
 17 13  1  0  0  0  0
 18 13  1  0  0  0  0
 19 25  1  0  0  0  0
 20 19  2  0  0  0  0
 21 22  1  0  0  0  0
 22 23  2  0  0  0  0
 22 28  1  0  0  0  0
 23 29  1  0  0  0  0
 24 23  1  0  0  0  0
 25 24  2  0  0  0  0
 26 25  1  0  0  0  0
 26 21  2  0  0  0  0
 27 21  1  0  0  0  0
 29 36  1  0  0  0  0
 29 30  1  0  0  0  0
 30 32  1  0  0  0  0
 30 31  1  0  0  0  0
 32 33  1  0  0  0  0
 34 32  1  0  0  0  0
 35 34  1  0  0  0  0
 36 35  1  0  0  0  0
M  END
>  <minimizedAffinity>
-5.1264863

$$$$

 OpenBabel03252508163D

 36 39  0  0  1  0  0  0  0  0999 V2000
   36.2770   28.4940   41.3860 C   0  0  0  0  0  0  0  0  0  0  0  0
   35.2550   28.6780   41.7860 H   0  0  0  0  0  0  0  0  0  0  0  0
   36.2850   27.7300   40.5880 H   0  0  0  0  0  0  0  0  0  0  0  0
   37.1690   28.0970   42.5360 C   0  0  1  0  0  0  0  0  0  0  0  0
   36.5110   27.4050   43.6790 C   0  0  0  0  0  0  0  0  0  0  0  0
   37.4060   26.6600   42.8150 C   0  0  1  0  0  0  0  0  0  0  0  0
   38.0080   28.7680   42.7690 H   0  0  0  0  0  0  0  0  0  0  0  0
   36.7940   27.6230   44.7220 H   0  0  0  0  0  0  0  0  0  0  0  0
   35.4170   27.1740   43.5690 H   0  0  0  0  0  0  0  0  0  0  0  0
   38.4040   26.3920   43.2810 H   0  0  0  0  0  0  0  0  0  0  0  0
   36.9810   25.6760   41.7890 C   0  0  0  0  0  0  0  0  0  0  0  0
   37.6120   24.2700   41.9550 C   0  0  0  0  0  0  0  0  0  0  0  0
   38.0880   25.1520   40.8590 C   0  0  0  0  0  0  0  0  0  0  0  0
   35.9620   25.7040   41.3670 H   0  0  0  0  0  0  0  0  0  0  0  0
   36.9610   23.4210   41.6770 H   0  0  0  0  0  0  0  0  0  0  0  0
   38.3220   24.1240   42.7890 H   0  0  0  0  0  0  0  0  0  0  0  0
   37.8020   24.9730   39.8100 H   0  0  0  0  0  0  0  0  0  0  0  0
   39.0750   25.6490   40.9600 H   0  0  0  0  0  0  0  0  0  0  0  0
   37.7570   30.3450   41.3990 C   0  0  0  0  0  3  0  0  0  0  0  0
   36.7340   29.8360   40.8290 C   0  0  0  0  0  3  0  0  0  0  0  0
   37.9110   33.7220   39.9390 C   0  0  0  0  0  0  0  0  0  0  0  0
   39.2610   34.0440   40.0030 C   0  0  0  0  0  0  0  0  0  0  0  0
   40.0680   33.0930   40.5520 C   0  0  0  0  0  0  0  0  0  0  0  0
   39.5340   31.9520   40.9790 N   0  0  0  0  0  0  0  0  0  0  0  0
   38.2480   31.6360   40.9220 C   0  0  0  0  0  0  0  0  0  0  0  0
   37.4460   32.5490   40.3920 N   0  0  0  0  0  0  0  0  0  0  0  0
   37.2130   34.4260   39.5180 H   0  0  0  0  0  0  0  0  0  0  0  0
   39.6680   34.9770   39.6480 H   0  0  0  0  0  0  0  0  0  0  0  0
   41.4710   33.2400   40.7030 N   0  0  0  0  0  0  0  0  0  0  0  0
   42.3430   32.5820   41.6480 C   0  0  0  0  0  3  0  0  0  0  0  0
   42.8690   33.3260   42.3090 H   0  0  0  0  0  0  0  0  0  0  0  0
   43.3340   31.6830   40.9480 C   0  0  0  0  0  3  0  0  0  0  0  0
   44.1760   31.5120   41.6280 H   0  0  0  0  0  0  0  0  0  0  0  0
   43.7190   32.1790   39.7120 O   0  0  0  0  0  0  0  0  0  0  0  0
   43.6280   33.5530   39.6230 C   0  0  0  0  0  2  0  0  0  0  0  0
   42.2670   34.1160   39.8840 C   0  0  0  0  0  2  0  0  0  0  0  0
  1  2  1  0  0  0  0
  1  4  1  0  0  0  0
  3  1  1  0  0  0  0
  4  7  1  1  0  0  0
  4  6  1  0  0  0  0
  4  5  1  0  0  0  0
  5  8  1  0  0  0  0
  6 10  1  1  0  0  0
  6  5  1  0  0  0  0
  9  5  1  0  0  0  0
 11 12  1  0  0  0  0
 11  6  1  0  0  0  0
 12 16  1  0  0  0  0
 13 18  1  0  0  0  0
 13 11  1  0  0  0  0
 13 12  1  0  0  0  0
 14 11  1  0  0  0  0
 15 12  1  0  0  0  0
 17 13  1  0  0  0  0
 20  1  1  0  0  0  0
 20 19  2  0  0  0  0
 21 22  2  0  0  0  0
 21 26  1  0  0  0  0
 22 23  1  0  0  0  0
 23 29  1  0  0  0  0
 23 24  2  0  0  0  0
 25 24  1  0  0  0  0
 25 19  1  0  0  0  0
 26 25  2  0  0  0  0
 27 21  1  0  0  0  0
 28 22  1  0  0  0  0
 29 30  1  0  0  0  0
 30 31  1  0  0  0  0
 32 33  1  0  0  0  0
 32 30  1  0  0  0  0
 34 32  1  0  0  0  0
 35 34  1  0  0  0  0
 35 36  1  0  0  0  0
 36 29  1  0  0  0  0
M  END
>  <minimizedAffinity>
-5.11367893

$$$$

 OpenBabel03252508163D

 36 39  0  0  1  0  0  0  0  0999 V2000
   35.9060   29.3830   38.1200 C   0  0  0  0  0  0  0  0  0  0  0  0
   35.4450   28.9080   37.2250 H   0  0  0  0  0  0  0  0  0  0  0  0
   35.2850   30.2010   38.5270 H   0  0  0  0  0  0  0  0  0  0  0  0
   37.2810   29.8750   37.7380 C   0  0  1  0  0  0  0  0  0  0  0  0
   37.3380   30.9900   36.7530 C   0  0  0  0  0  0  0  0  0  0  0  0
   37.7050   31.2380   38.1340 C   0  0  1  0  0  0  0  0  0  0  0  0
   38.0820   29.1230   37.6960 H   0  0  0  0  0  0  0  0  0  0  0  0
   38.1010   31.0150   35.9580 H   0  0  0  0  0  0  0  0  0  0  0  0
   36.3550   31.4230   36.4210 H   0  0  0  0  0  0  0  0  0  0  0  0
   38.8140   31.3940   38.3100 H   0  0  0  0  0  0  0  0  0  0  0  0
   36.8710   31.9650   39.1220 C   0  0  0  0  0  0  0  0  0  0  0  0
   37.5980   33.1340   39.8330 C   0  0  0  0  0  0  0  0  0  0  0  0
   37.3350   31.8810   40.5860 C   0  0  0  0  0  0  0  0  0  0  0  0
   35.7870   32.0940   38.9610 H   0  0  0  0  0  0  0  0  0  0  0  0
   36.9690   34.0110   40.0710 H   0  0  0  0  0  0  0  0  0  0  0  0
   38.6550   33.3150   39.5680 H   0  0  0  0  0  0  0  0  0  0  0  0
   36.5420   31.8230   41.3490 H   0  0  0  0  0  0  0  0  0  0  0  0
   38.1780   31.1860   40.7830 H   0  0  0  0  0  0  0  0  0  0  0  0
   36.7120   27.2500   38.7650 C   0  0  0  0  0  3  0  0  0  0  0  0
   36.0340   28.2630   39.1450 C   0  0  0  0  0  3  0  0  0  0  0  0
   36.3150   23.9970   40.4460 C   0  0  0  0  0  0  0  0  0  0  0  0
   37.1930   24.0750   41.5200 C   0  0  0  0  0  0  0  0  0  0  0  0
   37.8960   25.2380   41.6220 C   0  0  0  0  0  0  0  0  0  0  0  0
   37.7050   26.1980   40.7210 N   0  0  0  0  0  0  0  0  0  0  0  0
   36.8690   26.1320   39.6940 C   0  0  0  0  0  0  0  0  0  0  0  0
   36.1780   25.0080   39.5750 N   0  0  0  0  0  0  0  0  0  0  0  0
   35.7270   23.1060   40.3000 H   0  0  0  0  0  0  0  0  0  0  0  0
   37.3280   23.2830   42.2360 H   0  0  0  0  0  0  0  0  0  0  0  0
   38.8380   25.5030   42.6500 N   0  0  0  0  0  0  0  0  0  0  0  0
   39.8320   24.6130   43.2030 C   0  0  0  0  0  3  0  0  0  0  0  0
   39.6750   24.4580   44.3070 H   0  0  0  0  0  0  0  0  0  0  0  0
   41.2300   25.1040   42.9170 C   0  0  0  0  0  3  0  0  0  0  0  0
   41.9080   24.6380   43.6400 H   0  0  0  0  0  0  0  0  0  0  0  0
   41.3130   26.4880   42.9000 O   0  0  0  0  0  0  0  0  0  0  0  0
   40.3540   27.1010   43.6790 C   0  0  0  0  0  2  0  0  0  0  0  0
   38.9400   26.7710   43.3220 C   0  0  0  0  0  2  0  0  0  0  0  0
  1  3  1  0  0  0  0
  1 20  1  0  0  0  0
  2  1  1  0  0  0  0
  4  7  1  6  0  0  0
  4  1  1  0  0  0  0
  4  6  1  0  0  0  0
  5  4  1  0  0  0  0
  5  6  1  0  0  0  0
  6 10  1  1  0  0  0
  6 11  1  0  0  0  0
  8  5  1  0  0  0  0
  9  5  1  0  0  0  0
 11 12  1  0  0  0  0
 11 13  1  0  0  0  0
 12 15  1  0  0  0  0
 12 13  1  0  0  0  0
 13 18  1  0  0  0  0
 13 17  1  0  0  0  0
 14 11  1  0  0  0  0
 16 12  1  0  0  0  0
 19 20  2  0  0  0  0
 19 25  1  0  0  0  0
 21 22  1  0  0  0  0
 22 23  2  0  0  0  0
 22 28  1  0  0  0  0
 23 29  1  0  0  0  0
 24 23  1  0  0  0  0
 25 24  2  0  0  0  0
 26 25  1  0  0  0  0
 26 21  2  0  0  0  0
 27 21  1  0  0  0  0
 29 30  1  0  0  0  0
 29 36  1  0  0  0  0
 30 31  1  0  0  0  0
 32 30  1  0  0  0  0
 32 33  1  0  0  0  0
 34 32  1  0  0  0  0
 34 35  1  0  0  0  0
 36 35  1  0  0  0  0
M  END
>  <minimizedAffinity>
-4.85266304

$$$$

 OpenBabel03252508163D

 36 39  0  0  1  0  0  0  0  0999 V2000
   38.3440   27.1090   43.5940 C   0  0  0  0  0  0  0  0  0  0  0  0
   38.8220   27.6160   44.4620 H   0  0  0  0  0  0  0  0  0  0  0  0
   37.5530   26.4040   43.9040 H   0  0  0  0  0  0  0  0  0  0  0  0
   39.4220   26.4130   42.8010 C   0  0  1  0  0  0  0  0  0  0  0  0
   40.0030   25.1820   43.4070 C   0  0  0  0  0  0  0  0  0  0  0  0
   39.1590   25.0700   42.2330 C   0  0  1  0  0  0  0  0  0  0  0  0
   40.0960   27.0520   42.2130 H   0  0  0  0  0  0  0  0  0  0  0  0
   41.0810   24.9660   43.3430 H   0  0  0  0  0  0  0  0  0  0  0  0
   39.5490   24.8320   44.3740 H   0  0  0  0  0  0  0  0  0  0  0  0
   39.7080   24.8070   41.2760 H   0  0  0  0  0  0  0  0  0  0  0  0
   37.7590   24.5800   42.2310 C   0  0  0  0  0  0  0  0  0  0  0  0
   37.4490   23.5400   41.1240 C   0  0  0  0  0  0  0  0  0  0  0  0
   36.9270   24.9240   40.9850 C   0  0  0  0  0  0  0  0  0  0  0  0
   37.1990   24.4650   43.1740 H   0  0  0  0  0  0  0  0  0  0  0  0
   36.7270   22.7510   41.4020 H   0  0  0  0  0  0  0  0  0  0  0  0
   38.2670   23.2700   40.4330 H   0  0  0  0  0  0  0  0  0  0  0  0
   35.8640   25.1580   41.1540 H   0  0  0  0  0  0  0  0  0  0  0  0
   37.4110   25.6100   40.2580 H   0  0  0  0  0  0  0  0  0  0  0  0
   38.4210   28.5690   41.7290 C   0  0  0  0  0  3  0  0  0  0  0  0
   37.7440   28.2330   42.7580 C   0  0  0  0  0  3  0  0  0  0  0  0
   37.4710   31.8990   40.4730 C   0  0  0  0  0  0  0  0  0  0  0  0
   36.8820   31.6280   39.2440 C   0  0  0  0  0  0  0  0  0  0  0  0
   36.8410   30.3140   38.8880 C   0  0  0  0  0  0  0  0  0  0  0  0
   37.3470   29.3980   39.7100 N   0  0  0  0  0  0  0  0  0  0  0  0
   37.9100   29.6470   40.8840 C   0  0  0  0  0  0  0  0  0  0  0  0
   37.9620   30.9200   41.2480 N   0  0  0  0  0  0  0  0  0  0  0  0
   37.5410   32.9160   40.8200 H   0  0  0  0  0  0  0  0  0  0  0  0
   36.4790   32.3890   38.5980 H   0  0  0  0  0  0  0  0  0  0  0  0
   36.2800   29.8430   37.6730 N   0  0  0  0  0  0  0  0  0  0  0  0
   36.8380   29.9150   36.3420 C   0  0  0  0  0  3  0  0  0  0  0  0
   36.1710   30.4960   35.6470 H   0  0  0  0  0  0  0  0  0  0  0  0
   37.1280   28.5390   35.7920 C   0  0  0  0  0  3  0  0  0  0  0  0
   37.1850   28.6160   34.7010 H   0  0  0  0  0  0  0  0  0  0  0  0
   36.2160   27.5910   36.2290 O   0  0  0  0  0  0  0  0  0  0  0  0
   34.9830   28.1230   36.5430 C   0  0  0  0  0  2  0  0  0  0  0  0
   35.0010   29.1890   37.5930 C   0  0  0  0  0  2  0  0  0  0  0  0
  1  3  1  0  0  0  0
  1  2  1  0  0  0  0
  4  7  1  6  0  0  0
  4  5  1  0  0  0  0
  4  1  1  0  0  0  0
  5  9  1  0  0  0  0
  6 10  1  6  0  0  0
  6  4  1  0  0  0  0
  6  5  1  0  0  0  0
  8  5  1  0  0  0  0
 11  6  1  0  0  0  0
 11 14  1  0  0  0  0
 12 15  1  0  0  0  0
 12 11  1  0  0  0  0
 13 12  1  0  0  0  0
 13 17  1  0  0  0  0
 13 11  1  0  0  0  0
 16 12  1  0  0  0  0
 18 13  1  0  0  0  0
 19 20  2  0  0  0  0
 20  1  1  0  0  0  0
 21 27  1  0  0  0  0
 21 26  1  0  0  0  0
 22 21  2  0  0  0  0
 23 22  1  0  0  0  0
 23 24  2  0  0  0  0
 24 25  1  0  0  0  0
 25 26  2  0  0  0  0
 25 19  1  0  0  0  0
 28 22  1  0  0  0  0
 29 23  1  0  0  0  0
 30 29  1  0  0  0  0
 31 30  1  0  0  0  0
 32 34  1  0  0  0  0
 32 30  1  0  0  0  0
 33 32  1  0  0  0  0
 34 35  1  0  0  0  0
 35 36  1  0  0  0  0
 36 29  1  0  0  0  0
M  END
>  <minimizedAffinity>
-4.77412844

$$$$

 OpenBabel03252508163D

 36 39  0  0  1  0  0  0  0  0999 V2000
   37.3990   25.4190   39.6020 C   0  0  0  0  0  0  0  0  0  0  0  0
   36.8790   25.1480   38.6560 H   0  0  0  0  0  0  0  0  0  0  0  0
   38.4970   25.3450   39.5130 H   0  0  0  0  0  0  0  0  0  0  0  0
   36.8750   24.5280   40.7000 C   0  0  1  0  0  0  0  0  0  0  0  0
   37.3760   23.1250   40.7140 C   0  0  0  0  0  0  0  0  0  0  0  0
   37.8000   24.0440   41.7520 C   0  0  1  0  0  0  0  0  0  0  0  0
   35.8380   24.6960   41.0230 H   0  0  0  0  0  0  0  0  0  0  0  0
   36.7100   22.2800   40.9520 H   0  0  0  0  0  0  0  0  0  0  0  0
   38.1530   22.8580   39.9470 H   0  0  0  0  0  0  0  0  0  0  0  0
   37.3490   23.8480   42.7740 H   0  0  0  0  0  0  0  0  0  0  0  0
   39.1410   24.6740   41.8400 C   0  0  0  0  0  0  0  0  0  0  0  0
   39.8400   24.4950   43.2120 C   0  0  0  0  0  0  0  0  0  0  0  0
   39.2790   25.8230   42.8530 C   0  0  0  0  0  0  0  0  0  0  0  0
   39.8030   24.7170   40.9600 H   0  0  0  0  0  0  0  0  0  0  0  0
   40.9390   24.3810   43.1740 H   0  0  0  0  0  0  0  0  0  0  0  0
   39.2910   23.9450   43.9970 H   0  0  0  0  0  0  0  0  0  0  0  0
   39.9290   26.6620   42.5560 H   0  0  0  0  0  0  0  0  0  0  0  0
   38.3350   26.1550   43.3340 H   0  0  0  0  0  0  0  0  0  0  0  0
   37.9440   27.7130   39.8400 C   0  0  0  0  0  3  0  0  0  0  0  0
   36.9940   26.8610   39.8810 C   0  0  0  0  0  3  0  0  0  0  0  0
   36.2830   30.7770   41.0300 C   0  0  0  0  0  0  0  0  0  0  0  0
   37.0820   31.7970   40.5290 C   0  0  0  0  0  0  0  0  0  0  0  0
   38.1670   31.3950   39.8090 C   0  0  0  0  0  0  0  0  0  0  0  0
   38.3880   30.0960   39.6330 N   0  0  0  0  0  0  0  0  0  0  0  0
   37.6310   29.1160   40.1060 C   0  0  0  0  0  0  0  0  0  0  0  0
   36.5720   29.4860   40.8110 N   0  0  0  0  0  0  0  0  0  0  0  0
   35.4080   31.0190   41.6100 H   0  0  0  0  0  0  0  0  0  0  0  0
   36.8800   32.8430   40.6870 H   0  0  0  0  0  0  0  0  0  0  0  0
   39.0980   32.2900   39.2200 N   0  0  0  0  0  0  0  0  0  0  0  0
   39.5840   33.5470   39.7410 C   0  0  0  0  0  3  0  0  0  0  0  0
   39.3420   34.4000   39.0470 H   0  0  0  0  0  0  0  0  0  0  0  0
   41.0640   33.4870   40.0310 C   0  0  0  0  0  3  0  0  0  0  0  0
   41.4470   34.5120   40.0570 H   0  0  0  0  0  0  0  0  0  0  0  0
   41.7460   32.6690   39.1420 O   0  0  0  0  0  0  0  0  0  0  0  0
   41.1300   32.5670   37.9120 C   0  0  0  0  0  2  0  0  0  0  0  0
   39.7250   32.0530   37.9470 C   0  0  0  0  0  2  0  0  0  0  0  0
  1 20  1  0  0  0  0
  1  4  1  0  0  0  0
  2  1  1  0  0  0  0
  3  1  1  0  0  0  0
  4  5  1  0  0  0  0
  4  7  1  1  0  0  0
  4  6  1  0  0  0  0
  5  8  1  0  0  0  0
  5  6  1  0  0  0  0
  6 11  1  0  0  0  0
  6 10  1  1  0  0  0
  9  5  1  0  0  0  0
 11 13  1  0  0  0  0
 11 12  1  0  0  0  0
 12 16  1  0  0  0  0
 13 12  1  0  0  0  0
 13 18  1  0  0  0  0
 14 11  1  0  0  0  0
 15 12  1  0  0  0  0
 17 13  1  0  0  0  0
 19 20  2  0  0  0  0
 19 25  1  0  0  0  0
 21 27  1  0  0  0  0
 22 28  1  0  0  0  0
 22 21  2  0  0  0  0
 23 22  1  0  0  0  0
 24 23  2  0  0  0  0
 24 25  1  0  0  0  0
 25 26  2  0  0  0  0
 26 21  1  0  0  0  0
 29 30  1  0  0  0  0
 29 23  1  0  0  0  0
 30 32  1  0  0  0  0
 31 30  1  0  0  0  0
 32 33  1  0  0  0  0
 34 32  1  0  0  0  0
 35 36  1  0  0  0  0
 35 34  1  0  0  0  0
 36 29  1  0  0  0  0
M  END
>  <minimizedAffinity>
-4.73241854

$$$$

 OpenBabel03252508163D

 36 39  0  0  1  0  0  0  0  0999 V2000
   34.2790   28.8450   38.4780 C   0  0  0  0  0  0  0  0  0  0  0  0
   33.5070   28.6360   39.2520 H   0  0  0  0  0  0  0  0  0  0  0  0
   34.0580   29.7600   37.9010 H   0  0  0  0  0  0  0  0  0  0  0  0
   34.3830   27.6390   37.5780 C   0  0  1  0  0  0  0  0  0  0  0  0
   33.3220   27.4870   36.5440 C   0  0  0  0  0  0  0  0  0  0  0  0
   34.6720   27.8250   36.1360 C   0  0  1  0  0  0  0  0  0  0  0  0
   34.7860   26.7190   38.0250 H   0  0  0  0  0  0  0  0  0  0  0  0
   32.8950   26.5010   36.3000 H   0  0  0  0  0  0  0  0  0  0  0  0
   32.5650   28.3150   36.4710 H   0  0  0  0  0  0  0  0  0  0  0  0
   35.2360   26.9890   35.6190 H   0  0  0  0  0  0  0  0  0  0  0  0
   35.1180   29.1670   35.6860 C   0  0  0  0  0  0  0  0  0  0  0  0
   35.9450   29.1580   34.3760 C   0  0  0  0  0  0  0  0  0  0  0  0
   36.6370   29.4000   35.6670 C   0  0  0  0  0  0  0  0  0  0  0  0
   34.4900   30.0580   35.8580 H   0  0  0  0  0  0  0  0  0  0  0  0
   35.7920   30.0270   33.7110 H   0  0  0  0  0  0  0  0  0  0  0  0
   36.1470   28.1780   33.9060 H   0  0  0  0  0  0  0  0  0  0  0  0
   36.9830   30.4060   35.9560 H   0  0  0  0  0  0  0  0  0  0  0  0
   37.2540   28.5880   36.1070 H   0  0  0  0  0  0  0  0  0  0  0  0
   35.4480   29.2440   40.5000 C   0  0  0  0  0  3  0  0  0  0  0  0
   35.5810   29.0160   39.2510 C   0  0  0  0  0  3  0  0  0  0  0  0
   38.0390   28.8490   43.0880 C   0  0  0  0  0  0  0  0  0  0  0  0
   38.9400   29.8670   42.8050 C   0  0  0  0  0  0  0  0  0  0  0  0
   38.6300   30.6470   41.7320 C   0  0  0  0  0  0  0  0  0  0  0  0
   37.5210   30.3960   41.0420 N   0  0  0  0  0  0  0  0  0  0  0  0
   36.6540   29.4280   41.3040 C   0  0  0  0  0  0  0  0  0  0  0  0
   36.9390   28.6570   42.3440 N   0  0  0  0  0  0  0  0  0  0  0  0
   38.2190   28.1910   43.9220 H   0  0  0  0  0  0  0  0  0  0  0  0
   39.8320   30.0490   43.3810 H   0  0  0  0  0  0  0  0  0  0  0  0
   39.4280   31.7340   41.2890 N   0  0  0  0  0  0  0  0  0  0  0  0
   40.8600   31.7730   41.0970 C   0  0  0  0  0  3  0  0  0  0  0  0
   41.3400   32.5550   41.7480 H   0  0  0  0  0  0  0  0  0  0  0  0
   41.2140   31.9830   39.6440 C   0  0  0  0  0  3  0  0  0  0  0  0
   42.2370   32.3700   39.5980 H   0  0  0  0  0  0  0  0  0  0  0  0
   40.2940   32.7820   38.9850 O   0  0  0  0  0  0  0  0  0  0  0  0
   39.6350   33.6610   39.8210 C   0  0  0  0  0  2  0  0  0  0  0  0
   38.8890   33.0240   40.9490 C   0  0  0  0  0  2  0  0  0  0  0  0
  1 20  1  0  0  0  0
  1  2  1  0  0  0  0
  3  1  1  0  0  0  0
  4  7  1  1  0  0  0
  4  1  1  0  0  0  0
  5  4  1  0  0  0  0
  6 10  1  6  0  0  0
  6  5  1  0  0  0  0
  6  4  1  0  0  0  0
  8  5  1  0  0  0  0
  9  5  1  0  0  0  0
 11 14  1  0  0  0  0
 11  6  1  0  0  0  0
 12 13  1  0  0  0  0
 12 11  1  0  0  0  0
 13 11  1  0  0  0  0
 13 17  1  0  0  0  0
 13 18  1  0  0  0  0
 15 12  1  0  0  0  0
 16 12  1  0  0  0  0
 19 25  1  0  0  0  0
 20 19  2  0  0  0  0
 21 27  1  0  0  0  0
 22 21  1  0  0  0  0
 22 28  1  0  0  0  0
 23 22  2  0  0  0  0
 24 25  2  0  0  0  0
 24 23  1  0  0  0  0
 25 26  1  0  0  0  0
 26 21  2  0  0  0  0
 29 23  1  0  0  0  0
 30 29  1  0  0  0  0
 30 31  1  0  0  0  0
 32 30  1  0  0  0  0
 33 32  1  0  0  0  0
 34 32  1  0  0  0  0
 34 35  1  0  0  0  0
 35 36  1  0  0  0  0
 36 29  1  0  0  0  0
M  END
>  <minimizedAffinity>
-4.69867182

$$$$

 OpenBabel03252508163D

 36 39  0  0  1  0  0  0  0  0999 V2000
   32.8740   29.2460   36.7120 C   0  0  0  0  0  0  0  0  0  0  0  0
   33.1800   30.3060   36.5630 H   0  0  0  0  0  0  0  0  0  0  0  0
   33.2080   28.5930   35.8860 H   0  0  0  0  0  0  0  0  0  0  0  0
   31.3750   29.2060   36.8730 C   0  0  1  0  0  0  0  0  0  0  0  0
   30.7810   30.1940   37.8160 C   0  0  0  0  0  0  0  0  0  0  0  0
   30.5580   30.3450   36.3920 C   0  0  1  0  0  0  0  0  0  0  0  0
   30.8950   28.2190   36.8090 H   0  0  0  0  0  0  0  0  0  0  0  0
   29.9510   29.9200   38.4870 H   0  0  0  0  0  0  0  0  0  0  0  0
   31.4860   30.9340   38.2840 H   0  0  0  0  0  0  0  0  0  0  0  0
   29.5050   30.1050   36.0480 H   0  0  0  0  0  0  0  0  0  0  0  0
   31.2160   31.3540   35.5260 C   0  0  0  0  0  0  0  0  0  0  0  0
   30.2330   32.2560   34.7360 C   0  0  0  0  0  0  0  0  0  0  0  0
   30.9840   31.1970   34.0140 C   0  0  0  0  0  0  0  0  0  0  0  0
   32.1680   31.8220   35.8270 H   0  0  0  0  0  0  0  0  0  0  0  0
   30.5600   33.3010   34.5900 H   0  0  0  0  0  0  0  0  0  0  0  0
   29.1520   32.0670   34.8640 H   0  0  0  0  0  0  0  0  0  0  0  0
   31.8360   31.4410   33.3590 H   0  0  0  0  0  0  0  0  0  0  0  0
   30.4480   30.2760   33.7030 H   0  0  0  0  0  0  0  0  0  0  0  0
   34.7980   29.0140   38.0760 C   0  0  0  0  0  3  0  0  0  0  0  0
   33.5370   28.8200   38.0160 C   0  0  0  0  0  3  0  0  0  0  0  0
   36.3320   29.0820   41.4230 C   0  0  0  0  0  0  0  0  0  0  0  0
   36.8900   27.8160   41.5520 C   0  0  0  0  0  0  0  0  0  0  0  0
   36.7110   26.9830   40.4890 C   0  0  0  0  0  0  0  0  0  0  0  0
   36.0380   27.4160   39.4260 N   0  0  0  0  0  0  0  0  0  0  0  0
   35.5030   28.6220   39.2940 C   0  0  0  0  0  0  0  0  0  0  0  0
   35.6650   29.4470   40.3190 N   0  0  0  0  0  0  0  0  0  0  0  0
   36.4330   29.7940   42.2250 H   0  0  0  0  0  0  0  0  0  0  0  0
   37.4320   27.4910   42.4250 H   0  0  0  0  0  0  0  0  0  0  0  0
   37.2070   25.6540   40.4350 N   0  0  0  0  0  0  0  0  0  0  0  0
   37.9350   25.0130   39.3640 C   0  0  0  0  0  3  0  0  0  0  0  0
   37.3850   24.1120   38.9760 H   0  0  0  0  0  0  0  0  0  0  0  0
   39.3370   24.6510   39.7920 C   0  0  0  0  0  3  0  0  0  0  0  0
   39.7040   23.8680   39.1210 H   0  0  0  0  0  0  0  0  0  0  0  0
   39.4080   24.3020   41.1320 O   0  0  0  0  0  0  0  0  0  0  0  0
   38.2250   23.7960   41.6290 C   0  0  0  0  0  2  0  0  0  0  0  0
   37.0440   24.7060   41.5050 C   0  0  0  0  0  2  0  0  0  0  0  0
  1  4  1  0  0  0  0
  1 20  1  0  0  0  0
  2  1  1  0  0  0  0
  3  1  1  0  0  0  0
  4  7  1  6  0  0  0
  4  5  1  0  0  0  0
  5  9  1  0  0  0  0
  5  8  1  0  0  0  0
  6 10  1  6  0  0  0
  6  4  1  0  0  0  0
  6  5  1  0  0  0  0
 11 14  1  0  0  0  0
 11  6  1  0  0  0  0
 12 16  1  0  0  0  0
 12 11  1  0  0  0  0
 13 12  1  0  0  0  0
 13 11  1  0  0  0  0
 15 12  1  0  0  0  0
 17 13  1  0  0  0  0
 18 13  1  0  0  0  0
 19 25  1  0  0  0  0
 20 19  2  0  0  0  0
 21 22  1  0  0  0  0
 21 27  1  0  0  0  0
 22 28  1  0  0  0  0
 23 22  2  0  0  0  0
 24 23  1  0  0  0  0
 25 24  2  0  0  0  0
 25 26  1  0  0  0  0
 26 21  2  0  0  0  0
 29 23  1  0  0  0  0
 29 36  1  0  0  0  0
 30 32  1  0  0  0  0
 30 29  1  0  0  0  0
 31 30  1  0  0  0  0
 32 34  1  0  0  0  0
 33 32  1  0  0  0  0
 34 35  1  0  0  0  0
 36 35  1  0  0  0  0
M  END
>  <minimizedAffinity>
-4.6564126

$$$$

 OpenBabel03252508163D

 36 39  0  0  1  0  0  0  0  0999 V2000
   35.4330   29.2800   40.7110 C   0  0  0  0  0  0  0  0  0  0  0  0
   35.6290   30.3520   40.9400 H   0  0  0  0  0  0  0  0  0  0  0  0
   34.9760   28.7460   41.5620 H   0  0  0  0  0  0  0  0  0  0  0  0
   36.7340   28.6410   40.2940 C   0  0  1  0  0  0  0  0  0  0  0  0
   37.9580   29.4810   40.4200 C   0  0  0  0  0  0  0  0  0  0  0  0
   37.7690   28.3570   41.3160 C   0  0  1  0  0  0  0  0  0  0  0  0
   36.6930   27.9330   39.4540 H   0  0  0  0  0  0  0  0  0  0  0  0
   38.7500   29.4590   39.6540 H   0  0  0  0  0  0  0  0  0  0  0  0
   37.8270   30.5000   40.8760 H   0  0  0  0  0  0  0  0  0  0  0  0
   38.4490   27.4710   41.1180 H   0  0  0  0  0  0  0  0  0  0  0  0
   37.3790   28.4590   42.7440 C   0  0  0  0  0  0  0  0  0  0  0  0
   38.1180   27.4670   43.6790 C   0  0  0  0  0  0  0  0  0  0  0  0
   36.6920   27.2220   43.3440 C   0  0  0  0  0  0  0  0  0  0  0  0
   37.1060   29.4310   43.1870 H   0  0  0  0  0  0  0  0  0  0  0  0
   38.3440   27.8480   44.6920 H   0  0  0  0  0  0  0  0  0  0  0  0
   38.8410   26.7710   43.2170 H   0  0  0  0  0  0  0  0  0  0  0  0
   35.8880   27.4130   44.0730 H   0  0  0  0  0  0  0  0  0  0  0  0
   36.4400   26.4150   42.6240 H   0  0  0  0  0  0  0  0  0  0  0  0
   34.9230   28.7760   38.4520 C   0  0  0  0  0  3  0  0  0  0  0  0
   34.4730   29.2960   39.5280 C   0  0  0  0  0  3  0  0  0  0  0  0
   33.6700   28.3080   35.0210 C   0  0  0  0  0  0  0  0  0  0  0  0
   32.3770   28.8130   35.0740 C   0  0  0  0  0  0  0  0  0  0  0  0
   31.9790   29.2870   36.2880 C   0  0  0  0  0  0  0  0  0  0  0  0
   32.8240   29.2420   37.3150 N   0  0  0  0  0  0  0  0  0  0  0  0
   34.0590   28.7630   37.2730 C   0  0  0  0  0  0  0  0  0  0  0  0
   34.4640   28.2950   36.1010 N   0  0  0  0  0  0  0  0  0  0  0  0
   34.0520   27.9140   34.0940 H   0  0  0  0  0  0  0  0  0  0  0  0
   31.7130   28.8380   34.2260 H   0  0  0  0  0  0  0  0  0  0  0  0
   30.6970   29.8410   36.5370 N   0  0  0  0  0  0  0  0  0  0  0  0
   30.1740   30.3640   37.7780 C   0  0  0  0  0  3  0  0  0  0  0  0
   29.2570   29.8000   38.1080 H   0  0  0  0  0  0  0  0  0  0  0  0
   29.8930   31.8440   37.6760 C   0  0  0  0  0  3  0  0  0  0  0  0
   29.1800   32.1090   38.4640 H   0  0  0  0  0  0  0  0  0  0  0  0
   29.4760   32.2180   36.4090 O   0  0  0  0  0  0  0  0  0  0  0  0
   28.8540   31.1990   35.7160 C   0  0  0  0  0  2  0  0  0  0  0  0
   29.6790   29.9660   35.5270 C   0  0  0  0  0  2  0  0  0  0  0  0
  1  2  1  0  0  0  0
  1  3  1  0  0  0  0
  4  7  1  6  0  0  0
  4  5  1  0  0  0  0
  4  1  1  0  0  0  0
  4  6  1  0  0  0  0
  5  9  1  0  0  0  0
  5  6  1  0  0  0  0
  6 10  1  6  0  0  0
  6 11  1  0  0  0  0
  8  5  1  0  0  0  0
 11 14  1  0  0  0  0
 11 13  1  0  0  0  0
 11 12  1  0  0  0  0
 12 15  1  0  0  0  0
 13 12  1  0  0  0  0
 13 17  1  0  0  0  0
 16 12  1  0  0  0  0
 18 13  1  0  0  0  0
 19 20  2  0  0  0  0
 20  1  1  0  0  0  0
 21 22  2  0  0  0  0
 21 26  1  0  0  0  0
 22 23  1  0  0  0  0
 23 29  1  0  0  0  0
 23 24  2  0  0  0  0
 25 24  1  0  0  0  0
 25 19  1  0  0  0  0
 26 25  2  0  0  0  0
 27 21  1  0  0  0  0
 28 22  1  0  0  0  0
 29 30  1  0  0  0  0
 30 31  1  0  0  0  0
 32 30  1  0  0  0  0
 32 33  1  0  0  0  0
 34 32  1  0  0  0  0
 35 34  1  0  0  0  0
 36 35  1  0  0  0  0
 36 29  1  0  0  0  0
M  END
>  <minimizedAffinity>
-4.64880848

$$$$
