
 OpenBabel03252508533D

 42 45  0  0  1  0  0  0  0  0999 V2000
   43.3760   34.5000   40.7670 C   0  0  0  0  0  0  0  0  0  0  0  0
   43.3260   35.7420   40.4510 O   0  0  0  0  0  0  0  0  0  0  0  0
   42.0060   34.1280   40.4630 N   0  0  0  0  0  0  0  0  0  0  0  0
   41.6110   34.3110   39.0880 C   0  0  0  0  0  0  0  0  0  0  0  0
   40.8200   35.6310   39.0790 C   0  0  0  0  0  0  0  0  0  0  0  0
   40.0480   35.6780   40.3920 C   0  0  0  0  0  0  0  0  0  0  0  0
   39.7000   34.2790   40.9010 C   0  0  0  0  0  0  0  0  0  0  0  0
   40.9890   33.6030   41.3480 C   0  0  1  0  0  0  0  0  0  0  0  0
   42.4540   34.4390   38.3860 H   0  0  0  0  0  0  0  0  0  0  0  0
   40.9120   33.5240   38.7230 H   0  0  0  0  0  0  0  0  0  0  0  0
   41.5110   36.5040   39.0410 H   0  0  0  0  0  0  0  0  0  0  0  0
   40.1470   35.6930   38.2050 H   0  0  0  0  0  0  0  0  0  0  0  0
   39.0580   36.1670   40.1880 H   0  0  0  0  0  0  0  0  0  0  0  0
   40.6210   36.1950   41.1740 H   0  0  0  0  0  0  0  0  0  0  0  0
   39.2160   33.7250   40.0650 H   0  0  0  0  0  0  0  0  0  0  0  0
   38.9950   34.4390   41.7290 H   0  0  0  0  0  0  0  0  0  0  0  0
   41.1950   33.8550   42.4100 H   0  0  0  0  0  0  0  0  0  0  0  0
   40.7920   32.1990   41.2380 N   0  0  2  0  0  0  0  0  0  0  0  0
   41.0530   31.8110   39.8670 C   0  0  0  0  0  3  0  0  0  0  0  0
   42.0330   31.2930   39.7610 H   0  0  0  0  0  0  0  0  0  0  0  0
   39.9230   30.9940   39.2840 C   0  0  0  0  0  3  0  0  0  0  0  0
   40.2710   30.6100   38.3020 H   0  0  0  0  0  0  0  0  0  0  0  0
   39.5910   29.9010   40.0720 O   0  0  0  0  0  0  0  0  0  0  0  0
   39.4920   30.2090   41.4120 C   0  0  0  0  0  2  0  0  0  0  0  0
   39.5010   31.7190   41.6220 C   0  0  0  0  0  2  0  0  0  0  0  0
   44.4450   33.8070   41.2410 O   0  0  0  0  0  0  0  0  0  0  0  0
   45.7780   34.1330   41.1050 C   0  0  0  0  0  0  0  0  0  0  0  0
   46.4080   34.7460   42.1850 C   0  0  0  0  0  0  0  0  0  0  0  0
   47.7710   35.0650   42.0100 C   0  0  0  0  0  0  0  0  0  0  0  0
   48.3680   34.7610   40.8230 N   0  0  0  0  0  0  0  0  0  0  0  0
   47.7120   34.1750   39.8300 C   0  0  0  0  0  0  0  0  0  0  0  0
   46.4170   33.8560   39.9570 N   0  0  0  0  0  0  0  0  0  0  0  0
   48.2540   35.5370   42.8460 H   0  0  0  0  0  0  0  0  0  0  0  0
   48.2440   33.9580   38.9050 H   0  0  0  0  0  0  0  0  0  0  0  0
   45.6770   35.0230   43.4000 C   0  0  0  0  0  0  0  0  0  0  0  0
   45.0350   36.2450   43.6210 C   0  0  0  0  0  0  0  0  0  0  0  0
   44.4740   36.0950   44.8650 C   0  0  0  0  0  0  0  0  0  0  0  0
   44.7550   34.8660   45.3700 N   0  0  0  0  0  0  0  0  0  0  0  0
   45.4810   34.2530   44.4550 N   0  0  0  0  0  0  0  0  0  0  0  0
   44.9830   37.1140   42.9700 H   0  0  0  0  0  0  0  0  0  0  0  0
   43.8860   36.8370   45.3940 H   0  0  0  0  0  0  0  0  0  0  0  0
   44.4330   34.5140   46.3150 H   0  0  0  0  0  0  0  0  0  0  0  0
  1 26  1  0  0  0  0
  2  1  2  0  0  0  0
  3  1  1  0  0  0  0
  3  8  1  0  0  0  0
  4  3  1  0  0  0  0
  5  4  1  0  0  0  0
  5  6  1  0  0  0  0
  6  7  1  0  0  0  0
  6 14  1  0  0  0  0
  7  8  1  0  0  0  0
  7 16  1  0  0  0  0
  8 17  1  1  0  0  0
  9  4  1  0  0  0  0
 10  4  1  0  0  0  0
 11  5  1  0  0  0  0
 12  5  1  0  0  0  0
 13  6  1  0  0  0  0
 15  7  1  0  0  0  0
 18  8  1  0  0  0  0
 18 25  1  6  0  0  0
 19 18  1  0  0  0  0
 20 19  1  0  0  0  0
 21 19  1  0  0  0  0
 21 23  1  0  0  0  0
 22 21  1  0  0  0  0
 23 24  1  0  0  0  0
 24 25  1  0  0  0  0
 27 26  1  0  0  0  0
 27 28  1  0  0  0  0
 28 35  1  0  0  0  0
 29 28  2  0  0  0  0
 29 33  1  0  0  0  0
 30 29  1  0  0  0  0
 31 32  1  0  0  0  0
 31 30  2  0  0  0  0
 32 27  2  0  0  0  0
 34 31  1  0  0  0  0
 35 36  1  0  0  0  0
 35 39  2  0  0  0  0
 36 37  2  0  0  0  0
 37 38  1  0  0  0  0
 37 41  1  0  0  0  0
 38 42  1  0  0  0  0
 39 38  1  0  0  0  0
 40 36  1  0  0  0  0
M  END
>  <minimizedAffinity>
-6.72681093

>  <minimizedRMSD>
0.275291979

$$$$
