
 OpenBabel03252508523D

 42 45  0  0  1  0  0  0  0  0999 V2000
   43.4340   34.4700   40.7500 C   0  0  0  0  0  0  0  0  0  0  0  0
   43.3400   35.7290   40.5320 O   0  0  0  0  0  0  0  0  0  0  0  0
   42.0840   34.0720   40.3900 N   0  0  0  0  0  0  0  0  0  0  0  0
   41.7060   34.3480   39.0260 C   0  0  0  0  0  0  0  0  0  0  0  0
   40.8640   35.6340   39.1050 C   0  0  0  0  0  0  0  0  0  0  0  0
   40.0690   35.5470   40.4020 C   0  0  0  0  0  0  0  0  0  0  0  0
   39.7670   34.1000   40.7920 C   0  0  0  0  0  0  0  0  0  0  0  0
   41.0740   33.4390   41.2100 C   0  0  1  0  0  0  0  0  0  0  0  0
   42.5560   34.5640   38.3540 H   0  0  0  0  0  0  0  0  0  0  0  0
   41.0450   33.5670   38.5860 H   0  0  0  0  0  0  0  0  0  0  0  0
   41.5210   36.5330   39.1500 H   0  0  0  0  0  0  0  0  0  0  0  0
   40.2040   35.7390   38.2260 H   0  0  0  0  0  0  0  0  0  0  0  0
   39.0640   36.0130   40.2170 H   0  0  0  0  0  0  0  0  0  0  0  0
   40.6070   36.0210   41.2340 H   0  0  0  0  0  0  0  0  0  0  0  0
   39.3200   33.5960   39.9050 H   0  0  0  0  0  0  0  0  0  0  0  0
   39.0430   34.1670   41.6150 H   0  0  0  0  0  0  0  0  0  0  0  0
   41.2520   33.6140   42.2930 H   0  0  0  0  0  0  0  0  0  0  0  0
   40.9340   32.0420   40.9850 N   0  0  2  0  0  0  0  0  0  0  0  0
   39.7400   31.5910   41.6690 C   0  0  0  0  0  3  0  0  0  0  0  0
   38.9030   31.3980   40.9610 H   0  0  0  0  0  0  0  0  0  0  0  0
   40.0100   30.3930   42.5510 C   0  0  0  0  0  3  0  0  0  0  0  0
   39.0290   30.0200   42.9050 H   0  0  0  0  0  0  0  0  0  0  0  0
   40.6350   29.3570   41.8710 O   0  0  0  0  0  0  0  0  0  0  0  0
   41.6830   29.7820   41.0800 C   0  0  0  0  0  2  0  0  0  0  0  0
   42.0400   31.2320   41.3900 C   0  0  0  0  0  2  0  0  0  0  0  0
   44.5200   33.7810   41.1900 O   0  0  0  0  0  0  0  0  0  0  0  0
   45.8450   34.1410   41.0580 C   0  0  0  0  0  0  0  0  0  0  0  0
   46.4570   34.7680   42.1400 C   0  0  0  0  0  0  0  0  0  0  0  0
   47.8110   35.1210   41.9700 C   0  0  0  0  0  0  0  0  0  0  0  0
   48.4200   34.8350   40.7840 N   0  0  0  0  0  0  0  0  0  0  0  0
   47.7800   34.2340   39.7880 C   0  0  0  0  0  0  0  0  0  0  0  0
   46.4940   33.8830   39.9110 N   0  0  0  0  0  0  0  0  0  0  0  0
   48.2800   35.6040   42.8080 H   0  0  0  0  0  0  0  0  0  0  0  0
   48.3200   34.0320   38.8640 H   0  0  0  0  0  0  0  0  0  0  0  0
   45.7160   35.0240   43.3540 C   0  0  0  0  0  0  0  0  0  0  0  0
   45.0590   36.2370   43.5840 C   0  0  0  0  0  0  0  0  0  0  0  0
   44.4930   36.0680   44.8230 C   0  0  0  0  0  0  0  0  0  0  0  0
   44.7850   34.8370   45.3170 N   0  0  0  0  0  0  0  0  0  0  0  0
   45.5220   34.2410   44.3990 N   0  0  0  0  0  0  0  0  0  0  0  0
   45.0020   37.1120   42.9430 H   0  0  0  0  0  0  0  0  0  0  0  0
   43.8940   36.7970   45.3570 H   0  0  0  0  0  0  0  0  0  0  0  0
   44.4600   34.4710   46.2560 H   0  0  0  0  0  0  0  0  0  0  0  0
  1 26  1  0  0  0  0
  2  1  2  0  0  0  0
  3  1  1  0  0  0  0
  3  8  1  0  0  0  0
  4  5  1  0  0  0  0
  4  3  1  0  0  0  0
  5 11  1  0  0  0  0
  5  6  1  0  0  0  0
  6  7  1  0  0  0  0
  6 14  1  0  0  0  0
  7  8  1  0  0  0  0
  7 16  1  0  0  0  0
  8 17  1  1  0  0  0
  9  4  1  0  0  0  0
 10  4  1  0  0  0  0
 12  5  1  0  0  0  0
 13  6  1  0  0  0  0
 15  7  1  0  0  0  0
 18  8  1  0  0  0  0
 18 25  1  1  0  0  0
 18 19  1  0  0  0  0
 19 21  1  0  0  0  0
 20 19  1  0  0  0  0
 21 22  1  0  0  0  0
 23 21  1  0  0  0  0
 24 25  1  0  0  0  0
 24 23  1  0  0  0  0
 27 26  1  0  0  0  0
 27 28  1  0  0  0  0
 28 35  1  0  0  0  0
 29 28  2  0  0  0  0
 29 33  1  0  0  0  0
 30 29  1  0  0  0  0
 31 32  1  0  0  0  0
 31 30  2  0  0  0  0
 32 27  2  0  0  0  0
 34 31  1  0  0  0  0
 35 36  1  0  0  0  0
 35 39  2  0  0  0  0
 36 37  2  0  0  0  0
 37 38  1  0  0  0  0
 37 41  1  0  0  0  0
 38 42  1  0  0  0  0
 39 38  1  0  0  0  0
 40 36  1  0  0  0  0
M  END
>  <minimizedAffinity>
-6.68518639

>  <minimizedRMSD>
0.375729829

$$$$
