
     RDKit          3D

 48 51  0  0  0  0  0  0  0  0999 V2000
   45.7965   34.1291   41.0835 C   0  0  0  0  0  0  0  0  0  0  0  0
   46.4205   34.7528   42.1614 C   0  0  0  0  0  0  0  0  0  0  0  0
   47.7771   35.0933   41.9820 C   0  0  0  0  0  0  0  0  0  0  0  0
   48.3755   34.7969   40.7935 N   0  0  0  0  0  0  0  0  0  0  0  0
   47.7257   34.2005   39.8029 C   0  0  0  0  0  0  0  0  0  0  0  0
   46.4374   33.8613   39.9339 N   0  0  0  0  0  0  0  0  0  0  0  0
   45.6880   35.0197   43.3783 C   0  0  0  0  0  0  0  0  0  0  0  0
   45.0410   36.2379   43.6058 C   0  0  0  0  0  0  0  0  0  0  0  0
   44.4812   36.0786   44.8493 C   0  0  0  0  0  0  0  0  0  0  0  0
   44.7665   34.8477   45.3471 N   0  0  0  0  0  0  0  0  0  0  0  0
   45.4955   34.2434   44.4279 N   0  0  0  0  0  0  0  0  0  0  0  0
   44.4689   33.7818   41.2243 O   0  0  0  0  0  0  0  0  0  0  0  0
   43.3878   34.4671   40.7658 C   0  0  0  0  0  0  0  0  0  0  0  0
   43.2952   35.7259   40.5437 O   0  0  0  0  0  0  0  0  0  0  0  0
   42.0446   34.0648   40.3870 N   0  0  0  0  0  0  0  0  0  0  0  0
   41.6873   34.3376   39.0175 C   0  0  0  0  0  0  0  0  0  0  0  0
   40.8411   35.6219   39.0795 C   0  0  0  0  0  0  0  0  0  0  0  0
   40.0255   35.5357   40.3648 C   0  0  0  0  0  0  0  0  0  0  0  0
   39.7223   34.0893   40.7536 C   0  0  0  0  0  0  0  0  0  0  0  0
   41.0242   33.4316   41.1934 C   0  0  1  0  0  0  0  0  0  0  0  0
   48.2549   35.5742   42.8155 H   0  0  0  0  0  0  0  0  0  0  0  0
   48.2589   33.9899   38.8769 H   0  0  0  0  0  0  0  0  0  0  0  0
   44.9865   37.1107   42.9608 H   0  0  0  0  0  0  0  0  0  0  0  0
   43.8898   36.8150   45.3825 H   0  0  0  0  0  0  0  0  0  0  0  0
   44.4456   34.4895   46.2899 H   0  0  0  0  0  0  0  0  0  0  0  0
   42.5460   34.5544   38.3570 H   0  0  0  0  0  0  0  0  0  0  0  0
   41.0337   33.5536   38.5683 H   0  0  0  0  0  0  0  0  0  0  0  0
   41.4952   36.5222   39.1333 H   0  0  0  0  0  0  0  0  0  0  0  0
   40.1940   35.7244   38.1906 H   0  0  0  0  0  0  0  0  0  0  0  0
   39.0226   35.9992   40.1645 H   0  0  0  0  0  0  0  0  0  0  0  0
   40.5512   36.0134   41.2039 H   0  0  0  0  0  0  0  0  0  0  0  0
   39.2890   33.5819   39.8608 H   0  0  0  0  0  0  0  0  0  0  0  0
   38.9846   34.1562   41.5661 H   0  0  0  0  0  0  0  0  0  0  0  0
   41.1850   33.6089   42.2779 H   0  0  0  0  0  0  0  0  0  0  0  0
   40.8902   32.0340   40.9688 N   0  0  0  0  0  0  0  0  0  0  0  0
   39.9997   31.8394   39.8439 C   0  0  2  0  0  0  0  0  0  0  0  0
   40.5516   31.5438   38.9229 H   0  0  0  0  0  0  0  0  0  0  0  0
   38.8874   30.8673   40.1631 C   0  0  2  0  0  0  0  0  0  0  0  0
   38.3552   30.6568   39.2124 H   0  0  0  0  0  0  0  0  0  0  0  0
   39.3567   29.6598   40.6609 O   0  0  0  0  0  0  0  0  0  0  0  0
   40.3286   29.8135   41.6274 C   0  0  0  0  0  0  0  0  0  0  0  0
   40.4163   31.2674   42.0791 C   0  0  0  0  0  0  0  0  0  0  0  0
   39.4797   32.7969   39.5545 H   0  0  0  0  0  0  0  0  0  0  0  0
   38.1689   31.3636   40.8385 H   0  0  0  0  0  0  0  0  0  0  0  0
   41.3119   29.5445   41.1596 H   0  0  0  0  0  0  0  0  0  0  0  0
   40.0883   29.1279   42.4649 H   0  0  0  0  0  0  0  0  0  0  0  0
   41.1062   31.2569   42.9386 H   0  0  0  0  0  0  0  0  0  0  0  0
   39.4487   31.6478   42.4040 H   0  0  0  0  0  0  0  0  0  0  0  0
  1 12  1  0
  1  2  1  0
  2  7  1  0
  3  2  2  0
  4  3  1  0
  5  6  1  0
  5  4  2  0
  6  1  2  0
  7  8  1  0
  7 11  2  0
  8  9  2  0
  9 10  1  0
 11 10  1  0
 13 12  1  0
 14 13  2  0
 15 13  1  0
 15 20  1  0
 16 17  1  0
 16 15  1  0
 17 18  1  0
 18 19  1  0
 19 20  1  0
  3 21  1  0
  5 22  1  0
  8 23  1  0
  9 24  1  0
 10 25  1  0
 16 26  1  0
 16 27  1  0
 17 28  1  0
 17 29  1  0
 18 30  1  0
 18 31  1  0
 19 32  1  0
 19 33  1  0
 20 34  1  1
 35 36  1  0
 36 37  1  6
 36 38  1  0
 38 39  1  6
 38 40  1  0
 40 41  1  0
 41 42  1  0
 42 35  1  0
 36 43  1  0
 38 44  1  0
 41 45  1  0
 41 46  1  0
 42 47  1  0
 42 48  1  0
 20 35  1  0
M  ISO  8  21  14  22  14  23  14  24  14  25   9  26  13  27  13  28  13
M  ISO  8  29  13  30  13  31  13  32  13  33  13  34  13  37   8  39  15
M  END
>  <DihAtoms>  (1) 
14,19,34,35

>  <DihDeg>  (1) 
-175.48250398754996

$$$$
