REMARK  Name = 
REMARK  4 active torsions:
REMARK  status: ('A' for Active; 'I' for Inactive)
REMARK    1  A    between atoms: N_1  and  C_9
REMARK    2  A    between atoms: C_6  and  N_16
REMARK    3  A    between atoms: C_7  and  C_11
REMARK    4  A    between atoms: N_16  and  C_36
REMARK                            x       y       z     vdW  Elec       q    Type
REMARK                         _______ _______ _______ _____ _____    ______ ____
ROOT
ATOM      1  N   UNL     1      49.331  33.214  41.487  0.00  0.00    +0.000 NA
ATOM      2  C   UNL     1      50.659  33.127  42.048  0.00  0.00    +0.000 C 
ATOM      3  C   UNL     1      51.343  31.811  41.789  0.00  0.00    +0.000 C 
ATOM      4  C   UNL     1      50.600  30.724  42.519  0.00  0.00    +0.000 C 
ATOM      5  C   UNL     1      49.100  30.995  42.547  0.00  0.00    +0.000 C 
ATOM      6  C   UNL     1      48.777  31.896  41.393  0.00  0.00    +0.000 C 
ATOM      7  H   UNL     1      50.539  33.186  43.162  0.00  0.00    +0.000 HD
ATOM      8  H   UNL     1      51.290  34.001  41.786  0.00  0.00    +0.000 HD
ATOM      9  H   UNL     1      51.602  31.611  40.752  0.00  0.00    +0.000 HD
ATOM     10  H   UNL     1      52.334  31.895  42.318  0.00  0.00    +0.000 HD
ATOM     11  H   UNL     1      50.970  30.637  43.550  0.00  0.00    +0.000 HD
ATOM     12  H   UNL     1      50.734  29.782  41.947  0.00  0.00    +0.000 HD
ATOM     13  H   UNL     1      48.874  31.578  43.493  0.00  0.00    +0.000 HD
ATOM     14  H   UNL     1      48.483  30.118  42.544  0.00  0.00    +0.000 HD
ATOM     15  H   UNL     1      47.658  32.045  41.456  0.00  0.00    +0.000 HD
ENDROOT
BRANCH   1  18
ATOM     16  C   UNL     1      47.188  34.545  42.017  0.00  0.00    +0.000 C 
ATOM     17  C   UNL     1      48.312  35.464  41.718  0.00  0.00    +0.000 C 
ATOM     18  C   UNL     1      48.588  34.128  42.278  0.00  0.00    +0.000 C 
ATOM     19  H   UNL     1      46.651  34.138  41.110  0.00  0.00    +0.000 HD
ATOM     20  H   UNL     1      48.597  35.664  40.658  0.00  0.00    +0.000 HD
ATOM     21  H   UNL     1      48.464  36.360  42.361  0.00  0.00    +0.000 HD
ATOM     22  H   UNL     1      48.849  34.119  43.374  0.00  0.00    +0.000 HD
BRANCH  16  24
ATOM     23  C   UNL     1      45.516  36.029  43.168  0.00  0.00    +0.000 A 
ATOM     24  C   UNL     1      46.292  34.862  43.128  0.00  0.00    +0.000 A 
ATOM     25  C   UNL     1      46.160  33.978  44.220  0.00  0.00    +0.000 A 
ATOM     26  N   UNL     1      45.306  34.300  45.227  0.00  0.00    +0.000 NA
ATOM     27  C   UNL     1      44.580  35.424  45.230  0.00  0.00    +0.000 A 
ATOM     28  N   UNL     1      44.677  36.310  44.193  0.00  0.00    +0.000 NA
ATOM     29  H   UNL     1      45.638  36.692  42.316  0.00  0.00    +0.000 HD
ATOM     30  H   UNL     1      46.732  33.049  44.261  0.00  0.00    +0.000 HD
ATOM     31  H   UNL     1      43.932  35.579  46.083  0.00  0.00    +0.000 HD
ENDBRANCH  16  24
ENDBRANCH   1  18
BRANCH   6  32
ATOM     32  N   UNL     1      49.048  31.249  40.141  0.00  0.00    +0.000 NA
ATOM     33  H   UNL     1      49.697  30.405  40.306  0.00  0.00    +0.000 HD
BRANCH  32  36
ATOM     34  H   UNL     1      46.452  29.380  40.186  0.00  0.00    +0.000 HD
ATOM     35  N   UNL     1      46.907  30.255  40.535  0.00  0.00    +0.000 NA
ATOM     36  C   UNL     1      47.887  30.638  39.536  0.00  0.00    +0.000 C 
ATOM     37  C   UNL     1      47.280  31.454  38.444  0.00  0.00    +0.000 C 
ATOM     38  H   UNL     1      47.800  31.302  37.474  0.00  0.00    +0.000 HD
ATOM     39  O   UNL     1      45.952  30.947  38.298  0.00  0.00    +0.000 OA
ATOM     40  C   UNL     1      45.218  31.550  39.320  0.00  0.00    +0.000 C 
ATOM     41  C   UNL     1      45.829  31.224  40.669  0.00  0.00    +0.000 C 
ENDBRANCH  32  36
ENDBRANCH   6  32
TORSDOF 4
