
 OpenBabel03242521093D

 39 42  0  0  1  0  0  0  0  0999 V2000
   38.5710   28.1190   43.3280 C   0  0  2  0  0  0  0  0  0  0  0  0
   37.1680   28.4280   43.6680 C   0  0  0  0  0  0  0  0  0  0  0  0
   37.8120   28.8890   42.3580 C   0  0  1  0  0  0  0  0  0  0  0  0
   39.3290   28.7110   43.9270 H   0  0  0  0  0  0  0  0  0  0  0  0
   36.9010   29.2480   44.3480 H   0  0  0  0  0  0  0  0  0  0  0  0
   36.4400   27.6100   43.6730 H   0  0  0  0  0  0  0  0  0  0  0  0
   37.2070   28.4940   41.5210 H   0  0  0  0  0  0  0  0  0  0  0  0
   38.4510   24.7020   41.9540 C   0  0  0  0  0  0  0  0  0  0  0  0
   39.5550   24.1990   42.6150 C   0  0  0  0  0  0  0  0  0  0  0  0
   40.3490   24.9090   43.4900 C   0  0  0  0  0  0  0  0  0  0  0  0
   40.0150   26.2290   43.7240 C   0  0  0  0  0  0  0  0  0  0  0  0
   38.9190   26.7070   43.0590 C   0  0  0  0  0  0  0  0  0  0  0  0
   38.1890   25.9850   42.2290 N   0  0  0  0  0  0  0  0  0  0  0  0
   39.8400   23.1510   42.4460 H   0  0  0  0  0  0  0  0  0  0  0  0
   41.2040   24.4450   43.9750 H   0  0  0  0  0  0  0  0  0  0  0  0
   40.6580   26.7550   44.4150 H   0  0  0  0  0  0  0  0  0  0  0  0
   35.7500   23.3690   39.6880 C   0  0  0  0  0  0  0  0  0  0  0  0
   36.3890   24.2530   40.5720 C   0  0  0  0  0  0  0  0  0  0  0  0
   37.6430   23.9030   41.0300 C   0  0  0  0  0  0  0  0  0  0  0  0
   38.1950   22.7400   40.6120 N   0  0  0  0  0  0  0  0  0  0  0  0
   37.5400   21.9070   39.7500 C   0  0  0  0  0  0  0  0  0  0  0  0
   36.3320   22.2370   39.3050 N   0  0  0  0  0  0  0  0  0  0  0  0
   34.7650   23.7370   39.3850 H   0  0  0  0  0  0  0  0  0  0  0  0
   36.0090   25.1880   40.9430 H   0  0  0  0  0  0  0  0  0  0  0  0
   38.0480   20.9900   39.4600 H   0  0  0  0  0  0  0  0  0  0  0  0
   38.0090   30.2730   42.2320 O   0  0  0  0  0  0  0  0  0  0  0  0
   37.4040   29.9810   39.7690 O   0  0  0  0  0  0  0  0  0  0  0  0
   37.1650   30.9440   40.9390 P   0  0  1  0  0  0  0  0  0  0  0  0
   35.5200   30.9460   41.2400 O   0  0  0  0  0  0  0  0  0  0  0  0
   35.2070   31.8810   41.3400 H   0  0  0  0  0  0  0  0  0  0  0  0
   37.7570   32.4290   40.4200 O   0  0  0  0  0  0  0  0  0  0  0  0
   38.1120   34.5100   42.1020 H   0  0  0  0  0  0  0  0  0  0  0  0
   38.8510   34.2430   41.4450 N   0  0  0  0  0  0  0  0  0  0  0  0
   38.8990   32.8310   41.1160 C   0  0  2  0  0  3  0  0  0  0  0  0
   40.1540   32.6090   40.3110 C   0  0  0  0  0  3  0  0  0  0  0  0
   40.7900   31.8480   40.8500 H   0  0  0  0  0  0  0  0  0  0  0  0
   40.9550   33.7520   40.2570 O   0  0  0  0  0  0  0  0  0  0  0  0
   40.3200   34.8360   39.6730 C   0  0  0  0  0  2  0  0  0  0  0  0
   38.9140   35.0330   40.2320 C   0  0  0  0  0  2  0  0  0  0  0  0
  1  2  1  0  0  0  0
  1  4  1  1  0  0  0
  2  6  1  0  0  0  0
  2  5  1  0  0  0  0
  3  7  1  6  0  0  0
  3  1  1  0  0  0  0
  3  2  1  0  0  0  0
  8 13  2  0  0  0  0
  8  9  1  0  0  0  0
  9 10  2  0  0  0  0
 10 11  1  0  0  0  0
 10 15  1  0  0  0  0
 11 16  1  0  0  0  0
 12  1  1  0  0  0  0
 12 11  2  0  0  0  0
 13 12  1  0  0  0  0
 14  9  1  0  0  0  0
 17 18  1  0  0  0  0
 18 24  1  0  0  0  0
 18 19  2  0  0  0  0
 19  8  1  0  0  0  0
 20 19  1  0  0  0  0
 21 20  2  0  0  0  0
 22 17  2  0  0  0  0
 22 21  1  0  0  0  0
 23 17  1  0  0  0  0
 25 21  1  0  0  0  0
 26  3  1  0  0  0  0
 28 27  2  6  0  0  0
 28 29  1  0  0  0  0
 28 26  1  0  0  0  0
 29 30  1  0  0  0  0
 31 28  1  0  0  0  0
 33 32  1  0  0  0  0
 34 31  1  6  0  0  0
 34 33  1  0  0  0  0
 35 36  1  0  0  0  0
 35 34  1  0  0  0  0
 37 35  1  0  0  0  0
 38 39  1  0  0  0  0
 38 37  1  0  0  0  0
 39 33  1  0  0  0  0
M  END
>  <minimizedAffinity>
-6.89985943

$$$$

 OpenBabel03242521093D

 39 42  0  0  1  0  0  0  0  0999 V2000
   38.3990   31.6400   38.7390 C   0  0  2  0  0  0  0  0  0  0  0  0
   37.9200   31.7840   37.3500 C   0  0  0  0  0  0  0  0  0  0  0  0
   36.9620   31.5990   38.5300 C   0  0  1  0  0  0  0  0  0  0  0  0
   38.8840   30.6390   38.9550 H   0  0  0  0  0  0  0  0  0  0  0  0
   37.9260   30.9450   36.6420 H   0  0  0  0  0  0  0  0  0  0  0  0
   38.0200   32.7590   36.8630 H   0  0  0  0  0  0  0  0  0  0  0  0
   36.2630   32.4550   38.5410 H   0  0  0  0  0  0  0  0  0  0  0  0
   40.9760   33.9540   39.9980 C   0  0  0  0  0  0  0  0  0  0  0  0
   40.1260   34.9080   40.5250 C   0  0  0  0  0  0  0  0  0  0  0  0
   38.7490   34.8480   40.4940 C   0  0  0  0  0  0  0  0  0  0  0  0
   38.1730   33.7480   39.8890 C   0  0  0  0  0  0  0  0  0  0  0  0
   39.0320   32.8160   39.3750 C   0  0  0  0  0  0  0  0  0  0  0  0
   40.3480   32.9180   39.4290 N   0  0  0  0  0  0  0  0  0  0  0  0
   40.5610   35.7910   41.0120 H   0  0  0  0  0  0  0  0  0  0  0  0
   38.1430   35.6370   40.9300 H   0  0  0  0  0  0  0  0  0  0  0  0
   37.0930   33.7340   39.8840 H   0  0  0  0  0  0  0  0  0  0  0  0
   44.5560   34.4350   41.0730 C   0  0  0  0  0  0  0  0  0  0  0  0
   43.1600   34.3620   41.1940 C   0  0  0  0  0  0  0  0  0  0  0  0
   42.4350   34.0690   40.0550 C   0  0  0  0  0  0  0  0  0  0  0  0
   43.0930   33.8680   38.8900 N   0  0  0  0  0  0  0  0  0  0  0  0
   44.4550   33.9480   38.8150 C   0  0  0  0  0  0  0  0  0  0  0  0
   45.1590   34.2290   39.9060 N   0  0  0  0  0  0  0  0  0  0  0  0
   45.0350   34.6720   42.0280 H   0  0  0  0  0  0  0  0  0  0  0  0
   42.5760   34.5100   42.0840 H   0  0  0  0  0  0  0  0  0  0  0  0
   44.9120   33.7740   37.8430 H   0  0  0  0  0  0  0  0  0  0  0  0
   36.2700   30.3780   38.5640 O   0  0  0  0  0  0  0  0  0  0  0  0
   36.1130   31.0970   41.0090 O   0  0  0  0  0  0  0  0  0  0  0  0
   35.9350   29.8540   40.1280 P   0  0  1  0  0  0  0  0  0  0  0  0
   34.3360   29.3830   40.2680 O   0  0  0  0  0  0  0  0  0  0  0  0
   34.2960   28.4040   40.4170 H   0  0  0  0  0  0  0  0  0  0  0  0
   37.0250   28.7240   40.7290 O   0  0  0  0  0  0  0  0  0  0  0  0
   36.7630   30.1110   43.0300 H   0  0  0  0  0  0  0  0  0  0  0  0
   37.1880   29.1790   43.0320 N   0  0  0  0  0  0  0  0  0  0  0  0
   36.6930   28.2770   42.0090 C   0  0  2  0  0  3  0  0  0  0  0  0
   37.2790   26.9190   42.2980 C   0  0  0  0  0  3  0  0  0  0  0  0
   36.4300   26.1910   42.4440 H   0  0  0  0  0  0  0  0  0  0  0  0
   37.9710   26.8910   43.5120 O   0  0  0  0  0  0  0  0  0  0  0  0
   39.0350   27.7770   43.5540 C   0  0  0  0  0  2  0  0  0  0  0  0
   38.6360   29.1600   43.0460 C   0  0  0  0  0  2  0  0  0  0  0  0
  1  4  1  1  0  0  0
  1 12  1  0  0  0  0
  2  3  1  0  0  0  0
  2  1  1  0  0  0  0
  3  7  1  1  0  0  0
  3 26  1  0  0  0  0
  3  1  1  0  0  0  0
  5  2  1  0  0  0  0
  6  2  1  0  0  0  0
  8 19  1  0  0  0  0
  8  9  1  0  0  0  0
  9 14  1  0  0  0  0
 10  9  2  0  0  0  0
 10 15  1  0  0  0  0
 11 10  1  0  0  0  0
 12 13  1  0  0  0  0
 12 11  2  0  0  0  0
 13  8  2  0  0  0  0
 16 11  1  0  0  0  0
 17 18  1  0  0  0  0
 17 23  1  0  0  0  0
 18 24  1  0  0  0  0
 19 18  2  0  0  0  0
 20 19  1  0  0  0  0
 21 20  2  0  0  0  0
 21 22  1  0  0  0  0
 22 17  2  0  0  0  0
 25 21  1  0  0  0  0
 26 28  1  0  0  0  0
 28 29  1  0  0  0  0
 28 31  1  0  0  0  0
 28 27  2  1  0  0  0
 29 30  1  0  0  0  0
 32 33  1  0  0  0  0
 33 39  1  0  0  0  0
 34 31  1  6  0  0  0
 34 35  1  0  0  0  0
 34 33  1  0  0  0  0
 35 36  1  0  0  0  0
 35 37  1  0  0  0  0
 37 38  1  0  0  0  0
 39 38  1  0  0  0  0
M  END
>  <minimizedAffinity>
-6.33284998

$$$$

 OpenBabel03242521093D

 39 42  0  0  1  0  0  0  0  0999 V2000
   36.5740   29.5430   41.8460 C   0  0  2  0  0  0  0  0  0  0  0  0
   35.6940   29.5290   40.6610 C   0  0  0  0  0  0  0  0  0  0  0  0
   36.9760   30.3630   40.7170 C   0  0  1  0  0  0  0  0  0  0  0  0
   36.1470   30.1130   42.7280 H   0  0  0  0  0  0  0  0  0  0  0  0
   34.7740   30.1260   40.6130 H   0  0  0  0  0  0  0  0  0  0  0  0
   35.6480   28.6170   40.0570 H   0  0  0  0  0  0  0  0  0  0  0  0
   37.6190   30.0590   39.8700 H   0  0  0  0  0  0  0  0  0  0  0  0
   37.7190   26.0430   41.7430 C   0  0  0  0  0  0  0  0  0  0  0  0
   38.6180   26.1110   42.7900 C   0  0  0  0  0  0  0  0  0  0  0  0
   38.8820   27.2390   43.5380 C   0  0  0  0  0  0  0  0  0  0  0  0
   38.1930   28.3920   43.2140 C   0  0  0  0  0  0  0  0  0  0  0  0
   37.3090   28.3020   42.1740 C   0  0  0  0  0  0  0  0  0  0  0  0
   37.0910   27.1950   41.4870 N   0  0  0  0  0  0  0  0  0  0  0  0
   39.1770   25.2070   43.0670 H   0  0  0  0  0  0  0  0  0  0  0  0
   39.6030   27.2190   44.3500 H   0  0  0  0  0  0  0  0  0  0  0  0
   38.4240   29.2570   43.8200 H   0  0  0  0  0  0  0  0  0  0  0  0
   36.3400   23.3790   39.4600 C   0  0  0  0  0  0  0  0  0  0  0  0
   36.4210   24.6180   40.1150 C   0  0  0  0  0  0  0  0  0  0  0  0
   37.4800   24.8160   40.9790 C   0  0  0  0  0  0  0  0  0  0  0  0
   38.3810   23.8220   41.1530 N   0  0  0  0  0  0  0  0  0  0  0  0
   38.2660   22.6300   40.4950 C   0  0  0  0  0  0  0  0  0  0  0  0
   37.2500   22.4320   39.6630 N   0  0  0  0  0  0  0  0  0  0  0  0
   35.4680   23.3230   38.8010 H   0  0  0  0  0  0  0  0  0  0  0  0
   35.7420   25.4470   40.0230 H   0  0  0  0  0  0  0  0  0  0  0  0
   39.0300   21.8790   40.6880 H   0  0  0  0  0  0  0  0  0  0  0  0
   36.7950   31.7550   40.7420 O   0  0  0  0  0  0  0  0  0  0  0  0
   37.1010   31.7410   38.2070 O   0  0  0  0  0  0  0  0  0  0  0  0
   37.5290   32.5380   39.4460 P   0  0  1  0  0  0  0  0  0  0  0  0
   36.9200   34.0850   39.2640 O   0  0  0  0  0  0  0  0  0  0  0  0
   37.6300   34.7430   39.4770 H   0  0  0  0  0  0  0  0  0  0  0  0
   39.2090   32.4720   39.4570 O   0  0  0  0  0  0  0  0  0  0  0  0
   38.5630   34.5270   41.0840 H   0  0  0  0  0  0  0  0  0  0  0  0
   39.5430   34.2560   40.9550 N   0  0  0  0  0  0  0  0  0  0  0  0
   39.7590   32.8480   40.6840 C   0  0  2  0  0  3  0  0  0  0  0  0
   41.2470   32.6140   40.7260 C   0  0  0  0  0  3  0  0  0  0  0  0
   41.4620   31.8370   41.5150 H   0  0  0  0  0  0  0  0  0  0  0  0
   41.9460   33.7450   41.1560 O   0  0  0  0  0  0  0  0  0  0  0  0
   41.7610   34.8460   40.3360 C   0  0  0  0  0  2  0  0  0  0  0  0
   40.2860   35.0590   40.0060 C   0  0  0  0  0  2  0  0  0  0  0  0
  1 12  1  0  0  0  0
  1  4  1  1  0  0  0
  2  3  1  0  0  0  0
  2  1  1  0  0  0  0
  3  7  1  6  0  0  0
  3 26  1  0  0  0  0
  3  1  1  0  0  0  0
  5  2  1  0  0  0  0
  6  2  1  0  0  0  0
  8  9  1  0  0  0  0
  9 14  1  0  0  0  0
  9 10  2  0  0  0  0
 10 15  1  0  0  0  0
 11 10  1  0  0  0  0
 11 16  1  0  0  0  0
 12 11  2  0  0  0  0
 13  8  2  0  0  0  0
 13 12  1  0  0  0  0
 17 22  2  0  0  0  0
 17 18  1  0  0  0  0
 18 19  2  0  0  0  0
 19 20  1  0  0  0  0
 19  8  1  0  0  0  0
 21 25  1  0  0  0  0
 21 20  2  0  0  0  0
 22 21  1  0  0  0  0
 23 17  1  0  0  0  0
 24 18  1  0  0  0  0
 28 27  2  6  0  0  0
 28 31  1  0  0  0  0
 28 26  1  0  0  0  0
 29 28  1  0  0  0  0
 29 30  1  0  0  0  0
 33 32  1  0  0  0  0
 34 31  1  6  0  0  0
 34 35  1  0  0  0  0
 34 33  1  0  0  0  0
 35 37  1  0  0  0  0
 35 36  1  0  0  0  0
 38 37  1  0  0  0  0
 39 38  1  0  0  0  0
 39 33  1  0  0  0  0
M  END
>  <minimizedAffinity>
-6.16785908

$$$$

 OpenBabel03242521093D

 39 42  0  0  1  0  0  0  0  0999 V2000
   37.1220   27.8390   42.7740 C   0  0  2  0  0  0  0  0  0  0  0  0
   37.2890   28.2820   44.1720 C   0  0  0  0  0  0  0  0  0  0  0  0
   38.4560   27.7470   43.3390 C   0  0  1  0  0  0  0  0  0  0  0  0
   36.5730   26.8530   42.6670 H   0  0  0  0  0  0  0  0  0  0  0  0
   37.0150   27.6430   45.0210 H   0  0  0  0  0  0  0  0  0  0  0  0
   37.2070   29.3510   44.3930 H   0  0  0  0  0  0  0  0  0  0  0  0
   39.2440   28.5220   43.3160 H   0  0  0  0  0  0  0  0  0  0  0  0
   37.3320   30.8980   40.7310 C   0  0  0  0  0  0  0  0  0  0  0  0
   36.2090   30.6810   39.9560 C   0  0  0  0  0  0  0  0  0  0  0  0
   35.3760   29.5870   40.0550 C   0  0  0  0  0  0  0  0  0  0  0  0
   35.6900   28.6320   41.0020 C   0  0  0  0  0  0  0  0  0  0  0  0
   36.8060   28.8670   41.7580 C   0  0  0  0  0  0  0  0  0  0  0  0
   37.5730   29.9330   41.6250 N   0  0  0  0  0  0  0  0  0  0  0  0
   35.9390   31.4270   39.1970 H   0  0  0  0  0  0  0  0  0  0  0  0
   34.5070   29.4830   39.4110 H   0  0  0  0  0  0  0  0  0  0  0  0
   35.0160   27.7880   41.0520 H   0  0  0  0  0  0  0  0  0  0  0  0
   38.6960   34.3560   40.1080 C   0  0  0  0  0  0  0  0  0  0  0  0
   37.7420   33.3310   40.2020 C   0  0  0  0  0  0  0  0  0  0  0  0
   38.1860   32.0790   40.5820 C   0  0  0  0  0  0  0  0  0  0  0  0
   39.5010   31.9000   40.8430 N   0  0  0  0  0  0  0  0  0  0  0  0
   40.3980   32.9250   40.7390 C   0  0  0  0  0  0  0  0  0  0  0  0
   39.9790   34.1320   40.3740 N   0  0  0  0  0  0  0  0  0  0  0  0
   38.2440   35.3050   39.8010 H   0  0  0  0  0  0  0  0  0  0  0  0
   36.6870   33.4050   40.0100 H   0  0  0  0  0  0  0  0  0  0  0  0
   41.4380   32.7020   40.9650 H   0  0  0  0  0  0  0  0  0  0  0  0
   38.9760   26.5080   43.7480 O   0  0  0  0  0  0  0  0  0  0  0  0
   40.7890   26.6430   41.9550 O   0  0  0  0  0  0  0  0  0  0  0  0
   39.7370   25.6690   42.5020 P   0  0  1  0  0  0  0  0  0  0  0  0
   40.5640   24.3430   43.0970 O   0  0  0  0  0  0  0  0  0  0  0  0
   40.1250   23.5140   42.7760 H   0  0  0  0  0  0  0  0  0  0  0  0
   38.7410   25.3130   41.1960 O   0  0  0  0  0  0  0  0  0  0  0  0
   38.8620   22.8110   42.1990 H   0  0  0  0  0  0  0  0  0  0  0  0
   38.1600   23.0530   41.4940 N   0  0  0  0  0  0  0  0  0  0  0  0
   37.7100   24.4310   41.5240 C   0  0  2  0  0  3  0  0  0  0  0  0
   36.5540   24.5390   40.5630 C   0  0  0  0  0  3  0  0  0  0  0  0
   35.6520   24.9050   41.1340 H   0  0  0  0  0  0  0  0  0  0  0  0
   36.1650   23.2930   40.0650 O   0  0  0  0  0  0  0  0  0  0  0  0
   37.1730   22.6440   39.3700 C   0  0  0  0  0  2  0  0  0  0  0  0
   38.4930   22.6740   40.1350 C   0  0  0  0  0  2  0  0  0  0  0  0
  1  4  1  6  0  0  0
  1  3  1  0  0  0  0
  1  2  1  0  0  0  0
  2  6  1  0  0  0  0
  2  5  1  0  0  0  0
  3  7  1  6  0  0  0
  3 26  1  0  0  0  0
  3  2  1  0  0  0  0
  8 13  1  0  0  0  0
  9 10  1  0  0  0  0
  9  8  2  0  0  0  0
 10 11  2  0  0  0  0
 11 16  1  0  0  0  0
 11 12  1  0  0  0  0
 12  1  1  0  0  0  0
 13 12  2  0  0  0  0
 14  9  1  0  0  0  0
 15 10  1  0  0  0  0
 17 18  2  0  0  0  0
 17 22  1  0  0  0  0
 18 19  1  0  0  0  0
 19  8  1  0  0  0  0
 19 20  2  0  0  0  0
 21 20  1  0  0  0  0
 21 25  1  0  0  0  0
 22 21  2  0  0  0  0
 23 17  1  0  0  0  0
 24 18  1  0  0  0  0
 28 27  2  6  0  0  0
 28 29  1  0  0  0  0
 28 26  1  0  0  0  0
 30 29  1  0  0  0  0
 31 28  1  0  0  0  0
 33 34  1  0  0  0  0
 33 32  1  0  0  0  0
 34 31  1  6  0  0  0
 35 36  1  0  0  0  0
 35 34  1  0  0  0  0
 37 35  1  0  0  0  0
 38 37  1  0  0  0  0
 38 39  1  0  0  0  0
 39 33  1  0  0  0  0
M  END
>  <minimizedAffinity>
-6.14676046

$$$$

 OpenBabel03242521093D

 39 42  0  0  1  0  0  0  0  0999 V2000
   36.6770   30.2040   41.6060 C   0  0  2  0  0  0  0  0  0  0  0  0
   35.8840   30.2680   40.3630 C   0  0  0  0  0  0  0  0  0  0  0  0
   37.2660   30.9160   40.4850 C   0  0  1  0  0  0  0  0  0  0  0  0
   36.2780   30.8620   42.4390 H   0  0  0  0  0  0  0  0  0  0  0  0
   35.0630   30.9850   40.2320 H   0  0  0  0  0  0  0  0  0  0  0  0
   35.7500   29.3490   39.7830 H   0  0  0  0  0  0  0  0  0  0  0  0
   37.9130   30.4940   39.6940 H   0  0  0  0  0  0  0  0  0  0  0  0
   37.5250   26.6190   41.5550 C   0  0  0  0  0  0  0  0  0  0  0  0
   38.1410   26.5570   42.7910 C   0  0  0  0  0  0  0  0  0  0  0  0
   38.3040   27.6220   43.6510 C   0  0  0  0  0  0  0  0  0  0  0  0
   37.8120   28.8480   43.2460 C   0  0  0  0  0  0  0  0  0  0  0  0
   37.2060   28.8870   42.0200 C   0  0  0  0  0  0  0  0  0  0  0  0
   37.0740   27.8360   41.2310 N   0  0  0  0  0  0  0  0  0  0  0  0
   38.5390   25.5930   43.1350 H   0  0  0  0  0  0  0  0  0  0  0  0
   38.7990   27.4990   44.6100 H   0  0  0  0  0  0  0  0  0  0  0  0
   37.9560   29.6600   43.9450 H   0  0  0  0  0  0  0  0  0  0  0  0
   36.5770   23.3180   40.0020 C   0  0  0  0  0  0  0  0  0  0  0  0
   36.6010   24.3500   40.9540 C   0  0  0  0  0  0  0  0  0  0  0  0
   37.3820   25.4550   40.6780 C   0  0  0  0  0  0  0  0  0  0  0  0
   38.0780   25.4950   39.5190 N   0  0  0  0  0  0  0  0  0  0  0  0
   38.0270   24.4690   38.6180 C   0  0  0  0  0  0  0  0  0  0  0  0
   37.2790   23.4020   38.8760 N   0  0  0  0  0  0  0  0  0  0  0  0
   35.9310   22.4920   40.3140 H   0  0  0  0  0  0  0  0  0  0  0  0
   36.0750   24.3820   41.8910 H   0  0  0  0  0  0  0  0  0  0  0  0
   38.6150   24.5740   37.7090 H   0  0  0  0  0  0  0  0  0  0  0  0
   37.2820   32.3190   40.4570 O   0  0  0  0  0  0  0  0  0  0  0  0
   38.6470   34.4640   40.7040 O   0  0  0  0  0  0  0  0  0  0  0  0
   38.8380   32.9600   40.4640 P   0  0  1  0  0  0  0  0  0  0  0  0
   39.7200   32.3690   41.7560 O   0  0  0  0  0  0  0  0  0  0  0  0
   40.4490   31.7890   41.4160 H   0  0  0  0  0  0  0  0  0  0  0  0
   39.6410   32.8460   38.9910 O   0  0  0  0  0  0  0  0  0  0  0  0
   41.4370   33.8930   40.7130 H   0  0  0  0  0  0  0  0  0  0  0  0
   41.7040   33.6900   39.7450 N   0  0  0  0  0  0  0  0  0  0  0  0
   41.0040   32.5770   39.1350 C   0  0  2  0  0  3  0  0  0  0  0  0
   41.6660   32.3130   37.8080 C   0  0  0  0  0  3  0  0  0  0  0  0
   42.0390   31.2480   37.8030 H   0  0  0  0  0  0  0  0  0  0  0  0
   42.8180   33.0830   37.6310 O   0  0  0  0  0  0  0  0  0  0  0  0
   42.5740   34.4460   37.6660 C   0  0  0  0  0  2  0  0  0  0  0  0
   41.6900   34.8290   38.8490 C   0  0  0  0  0  2  0  0  0  0  0  0
  1 12  1  0  0  0  0
  1  4  1  1  0  0  0
  2  3  1  0  0  0  0
  2  1  1  0  0  0  0
  3  7  1  6  0  0  0
  3  1  1  0  0  0  0
  5  2  1  0  0  0  0
  6  2  1  0  0  0  0
  8  9  1  0  0  0  0
  9 14  1  0  0  0  0
  9 10  2  0  0  0  0
 10 15  1  0  0  0  0
 11 10  1  0  0  0  0
 11 16  1  0  0  0  0
 12 11  2  0  0  0  0
 13  8  2  0  0  0  0
 13 12  1  0  0  0  0
 17 23  1  0  0  0  0
 17 18  1  0  0  0  0
 18 24  1  0  0  0  0
 19 18  2  0  0  0  0
 19  8  1  0  0  0  0
 20 19  1  0  0  0  0
 21 22  1  0  0  0  0
 21 20  2  0  0  0  0
 22 17  2  0  0  0  0
 25 21  1  0  0  0  0
 26 28  1  0  0  0  0
 26  3  1  0  0  0  0
 28 27  2  1  0  0  0
 28 29  1  0  0  0  0
 30 29  1  0  0  0  0
 31 28  1  0  0  0  0
 33 32  1  0  0  0  0
 34 31  1  6  0  0  0
 34 33  1  0  0  0  0
 35 34  1  0  0  0  0
 36 35  1  0  0  0  0
 37 38  1  0  0  0  0
 37 35  1  0  0  0  0
 38 39  1  0  0  0  0
 39 33  1  0  0  0  0
M  END
>  <minimizedAffinity>
-5.83205128

$$$$

 OpenBabel03242521093D

 39 42  0  0  1  0  0  0  0  0999 V2000
   37.6770   30.9100   40.2050 C   0  0  2  0  0  0  0  0  0  0  0  0
   36.2010   30.9210   40.1490 C   0  0  0  0  0  0  0  0  0  0  0  0
   36.9680   30.4660   41.3930 C   0  0  1  0  0  0  0  0  0  0  0  0
   38.1530   30.0860   39.5910 H   0  0  0  0  0  0  0  0  0  0  0  0
   35.6320   30.1220   39.6560 H   0  0  0  0  0  0  0  0  0  0  0  0
   35.6880   31.8870   40.1340 H   0  0  0  0  0  0  0  0  0  0  0  0
   36.6400   31.0900   42.2440 H   0  0  0  0  0  0  0  0  0  0  0  0
   40.3590   33.4260   40.4330 C   0  0  0  0  0  0  0  0  0  0  0  0
   39.5870   34.5430   40.1750 C   0  0  0  0  0  0  0  0  0  0  0  0
   38.2310   34.5310   39.9250 C   0  0  0  0  0  0  0  0  0  0  0  0
   37.5940   33.3050   39.9330 C   0  0  0  0  0  0  0  0  0  0  0  0
   38.3760   32.2130   40.1910 C   0  0  0  0  0  0  0  0  0  0  0  0
   39.6750   32.2770   40.4250 N   0  0  0  0  0  0  0  0  0  0  0  0
   40.0710   35.5290   40.1640 H   0  0  0  0  0  0  0  0  0  0  0  0
   37.6880   35.4510   39.7300 H   0  0  0  0  0  0  0  0  0  0  0  0
   36.5320   33.3330   39.7340 H   0  0  0  0  0  0  0  0  0  0  0  0
   43.8600   34.5250   41.2920 C   0  0  0  0  0  0  0  0  0  0  0  0
   42.4750   34.6320   41.0900 C   0  0  0  0  0  0  0  0  0  0  0  0
   41.7990   33.4970   40.6900 C   0  0  0  0  0  0  0  0  0  0  0  0
   42.4910   32.3470   40.5130 N   0  0  0  0  0  0  0  0  0  0  0  0
   43.8400   32.2850   40.7210 C   0  0  0  0  0  0  0  0  0  0  0  0
   44.4970   33.3730   41.1060 N   0  0  0  0  0  0  0  0  0  0  0  0
   44.3000   35.4770   41.6060 H   0  0  0  0  0  0  0  0  0  0  0  0
   41.8670   35.5100   41.2110 H   0  0  0  0  0  0  0  0  0  0  0  0
   44.3260   31.3250   40.5580 H   0  0  0  0  0  0  0  0  0  0  0  0
   36.8720   29.0990   41.6990 O   0  0  0  0  0  0  0  0  0  0  0  0
   38.7470   29.7920   43.2880 O   0  0  0  0  0  0  0  0  0  0  0  0
   37.7110   28.6760   43.0950 P   0  0  1  0  0  0  0  0  0  0  0  0
   36.7030   28.7130   44.4290 O   0  0  0  0  0  0  0  0  0  0  0  0
   36.5780   27.7900   44.7700 H   0  0  0  0  0  0  0  0  0  0  0  0
   38.6060   27.2590   42.9650 O   0  0  0  0  0  0  0  0  0  0  0  0
   40.3070   27.5200   40.8860 H   0  0  0  0  0  0  0  0  0  0  0  0
   40.5950   27.0180   41.7310 N   0  0  0  0  0  0  0  0  0  0  0  0
   39.9840   27.4860   42.9600 C   0  0  2  0  0  3  0  0  0  0  0  0
   40.6730   26.7720   44.0950 C   0  0  0  0  0  3  0  0  0  0  0  0
   41.1240   27.5470   44.7790 H   0  0  0  0  0  0  0  0  0  0  0  0
   41.7650   26.0190   43.6570 O   0  0  0  0  0  0  0  0  0  0  0  0
   41.4190   25.0330   42.7470 C   0  0  0  0  0  2  0  0  0  0  0  0
   40.5020   25.5740   41.6540 C   0  0  0  0  0  2  0  0  0  0  0  0
  1  4  1  6  0  0  0
  1  3  1  0  0  0  0
  2  1  1  0  0  0  0
  2  3  1  0  0  0  0
  3 26  1  0  0  0  0
  3  7  1  1  0  0  0
  5  2  1  0  0  0  0
  6  2  1  0  0  0  0
  8 19  1  0  0  0  0
  9  8  2  0  0  0  0
 10 11  2  0  0  0  0
 10  9  1  0  0  0  0
 11 12  1  0  0  0  0
 12  1  1  0  0  0  0
 12 13  2  0  0  0  0
 13  8  1  0  0  0  0
 14  9  1  0  0  0  0
 15 10  1  0  0  0  0
 16 11  1  0  0  0  0
 17 23  1  0  0  0  0
 18 24  1  0  0  0  0
 18 17  2  0  0  0  0
 19 18  1  0  0  0  0
 20 19  2  0  0  0  0
 20 21  1  0  0  0  0
 21 22  2  0  0  0  0
 22 17  1  0  0  0  0
 25 21  1  0  0  0  0
 26 28  1  0  0  0  0
 28 27  2  1  0  0  0
 28 29  1  0  0  0  0
 29 30  1  0  0  0  0
 31 28  1  0  0  0  0
 32 33  1  0  0  0  0
 33 34  1  0  0  0  0
 34 31  1  6  0  0  0
 34 35  1  0  0  0  0
 35 36  1  0  0  0  0
 37 35  1  0  0  0  0
 38 37  1  0  0  0  0
 39 33  1  0  0  0  0
 39 38  1  0  0  0  0
M  END
>  <minimizedAffinity>
-5.76107788

$$$$

 OpenBabel03242521093D

 39 42  0  0  1  0  0  0  0  0999 V2000
   37.2060   30.7620   40.1000 C   0  0  2  0  0  0  0  0  0  0  0  0
   37.4380   30.4920   38.6680 C   0  0  0  0  0  0  0  0  0  0  0  0
   38.3760   31.3740   39.4960 C   0  0  1  0  0  0  0  0  0  0  0  0
   36.3410   31.4680   40.3000 H   0  0  0  0  0  0  0  0  0  0  0  0
   36.8970   31.0310   37.8790 H   0  0  0  0  0  0  0  0  0  0  0  0
   37.7410   29.4830   38.3700 H   0  0  0  0  0  0  0  0  0  0  0  0
   39.3930   30.9460   39.4320 H   0  0  0  0  0  0  0  0  0  0  0  0
   38.7230   28.3460   42.4320 C   0  0  0  0  0  0  0  0  0  0  0  0
   37.5820   27.6180   42.7110 C   0  0  0  0  0  0  0  0  0  0  0  0
   36.3320   27.8670   42.1850 C   0  0  0  0  0  0  0  0  0  0  0  0
   36.2110   28.9280   41.3100 C   0  0  0  0  0  0  0  0  0  0  0  0
   37.3520   29.6350   41.0470 C   0  0  0  0  0  0  0  0  0  0  0  0
   38.5290   29.3570   41.5770 N   0  0  0  0  0  0  0  0  0  0  0  0
   37.6540   26.7680   43.4040 H   0  0  0  0  0  0  0  0  0  0  0  0
   35.4780   27.2500   42.4510 H   0  0  0  0  0  0  0  0  0  0  0  0
   35.2180   29.0940   40.9170 H   0  0  0  0  0  0  0  0  0  0  0  0
   41.6100   26.7880   44.2870 C   0  0  0  0  0  0  0  0  0  0  0  0
   40.3020   26.9300   43.7980 C   0  0  0  0  0  0  0  0  0  0  0  0
   40.0280   28.0390   43.0230 C   0  0  0  0  0  0  0  0  0  0  0  0
   41.0170   28.9270   42.7720 N   0  0  0  0  0  0  0  0  0  0  0  0
   42.2780   28.7520   43.2670 C   0  0  0  0  0  0  0  0  0  0  0  0
   42.5500   27.6870   44.0140 N   0  0  0  0  0  0  0  0  0  0  0  0
   41.7230   25.8790   44.8870 H   0  0  0  0  0  0  0  0  0  0  0  0
   39.4720   26.2650   43.9580 H   0  0  0  0  0  0  0  0  0  0  0  0
   43.0200   29.5090   43.0230 H   0  0  0  0  0  0  0  0  0  0  0  0
   38.3780   32.7380   39.1620 O   0  0  0  0  0  0  0  0  0  0  0  0
   39.2240   35.0970   39.6540 O   0  0  0  0  0  0  0  0  0  0  0  0
   39.4270   33.6470   40.1140 P   0  0  1  0  0  0  0  0  0  0  0  0
   38.9800   33.5800   41.7240 O   0  0  0  0  0  0  0  0  0  0  0  0
   39.6700   33.0850   42.2350 H   0  0  0  0  0  0  0  0  0  0  0  0
   41.0560   33.3240   39.8530 O   0  0  0  0  0  0  0  0  0  0  0  0
   39.9950   33.4190   37.3730 H   0  0  0  0  0  0  0  0  0  0  0  0
   41.0050   33.3010   37.5010 N   0  0  0  0  0  0  0  0  0  0  0  0
   41.5490   33.9240   38.6920 C   0  0  2  0  0  3  0  0  0  0  0  0
   43.0490   33.8160   38.6000 C   0  0  0  0  0  3  0  0  0  0  0  0
   43.4820   34.8570   38.6370 H   0  0  0  0  0  0  0  0  0  0  0  0
   43.4670   33.3120   37.3650 O   0  0  0  0  0  0  0  0  0  0  0  0
   42.9810   32.0420   37.1020 C   0  0  0  0  0  2  0  0  0  0  0  0
   41.4870   31.9390   37.3940 C   0  0  0  0  0  2  0  0  0  0  0  0
  1  4  1  1  0  0  0
  1 12  1  0  0  0  0
  2  3  1  0  0  0  0
  2  1  1  0  0  0  0
  3  7  1  1  0  0  0
  3  1  1  0  0  0  0
  5  2  1  0  0  0  0
  6  2  1  0  0  0  0
  8  9  1  0  0  0  0
  8 19  1  0  0  0  0
  9 14  1  0  0  0  0
 10 15  1  0  0  0  0
 10  9  2  0  0  0  0
 11 10  1  0  0  0  0
 12 11  2  0  0  0  0
 12 13  1  0  0  0  0
 13  8  2  0  0  0  0
 16 11  1  0  0  0  0
 17 23  1  0  0  0  0
 18 24  1  0  0  0  0
 18 17  2  0  0  0  0
 19 18  1  0  0  0  0
 20 19  2  0  0  0  0
 20 21  1  0  0  0  0
 21 22  2  0  0  0  0
 22 17  1  0  0  0  0
 25 21  1  0  0  0  0
 26  3  1  0  0  0  0
 26 28  1  0  0  0  0
 28 27  2  6  0  0  0
 28 29  1  0  0  0  0
 29 30  1  0  0  0  0
 31 28  1  0  0  0  0
 32 33  1  0  0  0  0
 33 34  1  0  0  0  0
 34 31  1  1  0  0  0
 35 36  1  0  0  0  0
 35 34  1  0  0  0  0
 37 35  1  0  0  0  0
 38 37  1  0  0  0  0
 38 39  1  0  0  0  0
 39 33  1  0  0  0  0
M  END
>  <minimizedAffinity>
-5.76005936

$$$$

 OpenBabel03242521093D

 39 42  0  0  1  0  0  0  0  0999 V2000
   36.5500   28.6900   41.9150 C   0  0  2  0  0  0  0  0  0  0  0  0
   35.6520   28.6670   40.7440 C   0  0  0  0  0  0  0  0  0  0  0  0
   36.8420   29.6240   40.8420 C   0  0  1  0  0  0  0  0  0  0  0  0
   36.0850   29.1480   42.8410 H   0  0  0  0  0  0  0  0  0  0  0  0
   34.6740   29.1660   40.7510 H   0  0  0  0  0  0  0  0  0  0  0  0
   35.6880   27.8000   40.0760 H   0  0  0  0  0  0  0  0  0  0  0  0
   37.4950   29.4500   39.9670 H   0  0  0  0  0  0  0  0  0  0  0  0
   39.4910   26.6430   42.7740 C   0  0  0  0  0  0  0  0  0  0  0  0
   38.9340   25.4040   42.5220 C   0  0  0  0  0  0  0  0  0  0  0  0
   37.6440   25.1870   42.0860 C   0  0  0  0  0  0  0  0  0  0  0  0
   36.8450   26.2960   41.8870 C   0  0  0  0  0  0  0  0  0  0  0  0
   37.4160   27.5130   42.1430 C   0  0  0  0  0  0  0  0  0  0  0  0
   38.6600   27.6690   42.5600 N   0  0  0  0  0  0  0  0  0  0  0  0
   39.5500   24.5070   42.6730 H   0  0  0  0  0  0  0  0  0  0  0  0
   37.2730   24.1810   41.9070 H   0  0  0  0  0  0  0  0  0  0  0  0
   35.8410   26.0900   41.5450 H   0  0  0  0  0  0  0  0  0  0  0  0
   42.9960   26.1310   44.0610 C   0  0  0  0  0  0  0  0  0  0  0  0
   41.7010   25.7900   43.6420 C   0  0  0  0  0  0  0  0  0  0  0  0
   40.8690   26.8160   43.2400 C   0  0  0  0  0  0  0  0  0  0  0  0
   41.3320   28.0870   43.2670 N   0  0  0  0  0  0  0  0  0  0  0  0
   42.6010   28.3770   43.6810 C   0  0  0  0  0  0  0  0  0  0  0  0
   43.4070   27.3950   44.0700 N   0  0  0  0  0  0  0  0  0  0  0  0
   43.5740   25.2500   44.3570 H   0  0  0  0  0  0  0  0  0  0  0  0
   41.2710   24.8050   43.5960 H   0  0  0  0  0  0  0  0  0  0  0  0
   42.9010   29.4230   43.6750 H   0  0  0  0  0  0  0  0  0  0  0  0
   36.5180   30.9840   40.9700 O   0  0  0  0  0  0  0  0  0  0  0  0
   37.0280   31.4060   38.5040 O   0  0  0  0  0  0  0  0  0  0  0  0
   37.3600   31.9660   39.8940 P   0  0  1  0  0  0  0  0  0  0  0  0
   36.7790   33.5340   39.9380 O   0  0  0  0  0  0  0  0  0  0  0  0
   37.4740   34.1290   40.3190 H   0  0  0  0  0  0  0  0  0  0  0  0
   39.0330   31.8630   40.0250 O   0  0  0  0  0  0  0  0  0  0  0  0
   40.3410   34.1480   40.6190 H   0  0  0  0  0  0  0  0  0  0  0  0
   40.5990   33.2690   41.0780 N   0  0  0  0  0  0  0  0  0  0  0  0
   39.5110   32.3260   41.2520 C   0  0  2  0  0  3  0  0  0  0  0  0
   40.0340   31.2030   42.1100 C   0  0  0  0  0  3  0  0  0  0  0  0
   39.3900   31.1330   43.0340 H   0  0  0  0  0  0  0  0  0  0  0  0
   41.3150   31.4670   42.6000 O   0  0  0  0  0  0  0  0  0  0  0  0
   42.2560   31.6470   41.6000 C   0  0  0  0  0  2  0  0  0  0  0  0
   41.7500   32.5920   40.5140 C   0  0  0  0  0  2  0  0  0  0  0  0
  1 12  1  0  0  0  0
  1  4  1  1  0  0  0
  2  5  1  0  0  0  0
  2  3  1  0  0  0  0
  2  1  1  0  0  0  0
  3  7  1  6  0  0  0
  3 26  1  0  0  0  0
  3  1  1  0  0  0  0
  6  2  1  0  0  0  0
  8 19  1  0  0  0  0
  9 14  1  0  0  0  0
  9  8  2  0  0  0  0
 10  9  1  0  0  0  0
 11 10  2  0  0  0  0
 11 12  1  0  0  0  0
 12 13  2  0  0  0  0
 13  8  1  0  0  0  0
 15 10  1  0  0  0  0
 16 11  1  0  0  0  0
 17 22  1  0  0  0  0
 17 23  1  0  0  0  0
 18 17  2  0  0  0  0
 19 20  2  0  0  0  0
 19 18  1  0  0  0  0
 20 21  1  0  0  0  0
 21 22  2  0  0  0  0
 24 18  1  0  0  0  0
 25 21  1  0  0  0  0
 28 27  2  6  0  0  0
 28 29  1  0  0  0  0
 28 31  1  0  0  0  0
 28 26  1  0  0  0  0
 29 30  1  0  0  0  0
 32 33  1  0  0  0  0
 33 34  1  0  0  0  0
 34 31  1  6  0  0  0
 34 35  1  0  0  0  0
 35 37  1  0  0  0  0
 35 36  1  0  0  0  0
 38 37  1  0  0  0  0
 39 33  1  0  0  0  0
 39 38  1  0  0  0  0
M  END
>  <minimizedAffinity>
-5.66305304

$$$$

 OpenBabel03242521093D

 39 42  0  0  1  0  0  0  0  0999 V2000
   37.1560   32.1200   40.4790 C   0  0  2  0  0  0  0  0  0  0  0  0
   37.3310   33.2020   39.4910 C   0  0  0  0  0  0  0  0  0  0  0  0
   38.5190   32.4870   40.1390 C   0  0  1  0  0  0  0  0  0  0  0  0
   36.7990   32.4780   41.4930 H   0  0  0  0  0  0  0  0  0  0  0  0
   37.2410   34.2610   39.7660 H   0  0  0  0  0  0  0  0  0  0  0  0
   37.0630   33.0040   38.4480 H   0  0  0  0  0  0  0  0  0  0  0  0
   39.1420   32.0590   39.3320 H   0  0  0  0  0  0  0  0  0  0  0  0
   35.9620   29.4580   38.2290 C   0  0  0  0  0  0  0  0  0  0  0  0
   35.5440   28.5680   39.2000 C   0  0  0  0  0  0  0  0  0  0  0  0
   35.6290   28.7800   40.5600 C   0  0  0  0  0  0  0  0  0  0  0  0
   36.1750   29.9750   40.9850 C   0  0  0  0  0  0  0  0  0  0  0  0
   36.5820   30.8410   40.0070 C   0  0  0  0  0  0  0  0  0  0  0  0
   36.4790   30.5920   38.7140 N   0  0  0  0  0  0  0  0  0  0  0  0
   35.1050   27.6110   38.8870 H   0  0  0  0  0  0  0  0  0  0  0  0
   35.2790   28.0330   41.2670 H   0  0  0  0  0  0  0  0  0  0  0  0
   36.2260   30.1070   42.0560 H   0  0  0  0  0  0  0  0  0  0  0  0
   36.4640   29.2920   34.4970 C   0  0  0  0  0  0  0  0  0  0  0  0
   36.7170   29.6550   35.8300 C   0  0  0  0  0  0  0  0  0  0  0  0
   35.8500   29.1800   36.7950 C   0  0  0  0  0  0  0  0  0  0  0  0
   34.8130   28.3980   36.4200 N   0  0  0  0  0  0  0  0  0  0  0  0
   34.6020   28.0680   35.1110 C   0  0  0  0  0  0  0  0  0  0  0  0
   35.4310   28.5200   34.1760 N   0  0  0  0  0  0  0  0  0  0  0  0
   37.2050   29.7180   33.8130 H   0  0  0  0  0  0  0  0  0  0  0  0
   37.5190   30.2700   36.1950 H   0  0  0  0  0  0  0  0  0  0  0  0
   33.7460   27.4350   34.8880 H   0  0  0  0  0  0  0  0  0  0  0  0
   39.2900   33.2650   41.0160 O   0  0  0  0  0  0  0  0  0  0  0  0
   40.3820   35.0960   39.6100 O   0  0  0  0  0  0  0  0  0  0  0  0
   40.7370   33.7900   40.3330 P   0  0  1  0  0  0  0  0  0  0  0  0
   41.8500   34.1770   41.5200 O   0  0  0  0  0  0  0  0  0  0  0  0
   42.5980   33.5270   41.4910 H   0  0  0  0  0  0  0  0  0  0  0  0
   41.3490   32.7750   39.1410 O   0  0  0  0  0  0  0  0  0  0  0  0
   40.9510   32.8940   36.4740 H   0  0  0  0  0  0  0  0  0  0  0  0
   41.9010   32.8520   36.8550 N   0  0  0  0  0  0  0  0  0  0  0  0
   42.0660   33.4620   38.1590 C   0  0  2  0  0  3  0  0  0  0  0  0
   43.5440   33.4780   38.4540 C   0  0  0  0  0  3  0  0  0  0  0  0
   43.8600   34.5480   38.6240 H   0  0  0  0  0  0  0  0  0  0  0  0
   44.3050   33.0640   37.3580 O   0  0  0  0  0  0  0  0  0  0  0  0
   44.0160   31.7720   36.9510 C   0  0  0  0  0  2  0  0  0  0  0  0
   42.5120   31.5380   36.8450 C   0  0  0  0  0  2  0  0  0  0  0  0
  1  4  1  1  0  0  0
  2  5  1  0  0  0  0
  2  3  1  0  0  0  0
  2  1  1  0  0  0  0
  3  7  1  6  0  0  0
  3  1  1  0  0  0  0
  3 26  1  0  0  0  0
  6  2  1  0  0  0  0
  8 13  2  0  0  0  0
  8  9  1  0  0  0  0
  9 10  2  0  0  0  0
 10 11  1  0  0  0  0
 10 15  1  0  0  0  0
 11 16  1  0  0  0  0
 12  1  1  0  0  0  0
 12 11  2  0  0  0  0
 13 12  1  0  0  0  0
 14  9  1  0  0  0  0
 17 18  1  0  0  0  0
 18 24  1  0  0  0  0
 18 19  2  0  0  0  0
 19  8  1  0  0  0  0
 20 19  1  0  0  0  0
 21 20  2  0  0  0  0
 22 17  2  0  0  0  0
 22 21  1  0  0  0  0
 23 17  1  0  0  0  0
 25 21  1  0  0  0  0
 28 27  2  6  0  0  0
 28 26  1  0  0  0  0
 28 29  1  0  0  0  0
 30 29  1  0  0  0  0
 31 28  1  0  0  0  0
 32 33  1  0  0  0  0
 33 34  1  0  0  0  0
 34 35  1  0  0  0  0
 34 31  1  1  0  0  0
 35 36  1  0  0  0  0
 37 35  1  0  0  0  0
 38 37  1  0  0  0  0
 39 33  1  0  0  0  0
 39 38  1  0  0  0  0
M  END
>  <minimizedAffinity>
-5.66095209

$$$$
