
 OpenBabel03242512083D

 32 34  0  0  1  0  0  0  0  0999 V2000
   48.1970   34.5620   41.2400 C   0  0  1  0  0  0  0  0  0  0  0  0
   48.8510   35.9180   41.7140 C   0  0  0  0  0  0  0  0  0  0  0  0
   49.1060   34.6340   42.3800 C   0  0  2  0  0  0  0  0  0  0  0  0
   48.5890   34.2160   40.2710 H   0  0  0  0  0  0  0  0  0  0  0  0
   48.1590   36.6760   42.1270 H   0  0  0  0  0  0  0  0  0  0  0  0
   49.5840   36.3340   40.9900 H   0  0  0  0  0  0  0  0  0  0  0  0
   48.6070   34.3050   43.3030 H   0  0  0  0  0  0  0  0  0  0  0  0
   46.7210   34.5550   41.4520 C   0  0  0  0  0  0  0  0  0  0  0  0
   46.0140   34.3230   40.4790 O   0  0  0  0  0  0  0  0  0  0  0  0
   45.3960   35.9250   42.9960 C   0  0  0  0  0  0  0  0  0  0  0  0
   46.0850   34.7960   42.7050 C   0  0  0  0  0  0  0  0  0  0  0  0
   46.1610   33.8030   43.7240 C   0  0  0  0  0  0  0  0  0  0  0  0
   45.5650   33.9990   44.9210 N   0  0  0  0  0  0  0  0  0  0  0  0
   44.8830   35.1580   45.1630 C   0  0  0  0  0  0  0  0  0  0  0  0
   44.8070   36.0830   44.2220 N   0  0  0  0  0  0  0  0  0  0  0  0
   45.3440   36.6720   42.2150 H   0  0  0  0  0  0  0  0  0  0  0  0
   46.6660   32.8750   43.6250 H   0  0  0  0  0  0  0  0  0  0  0  0
   44.3690   35.4300   46.0700 H   0  0  0  0  0  0  0  0  0  0  0  0
   50.4200   34.1930   42.2630 O   0  0  0  0  0  0  0  0  0  0  0  0
   49.1130   32.0620   42.9010 O   0  0  0  0  0  0  0  0  0  0  0  0
   50.3570   32.4950   42.1480 P   0  0  2  0  0  0  0  0  0  0  0  0
   51.7280   31.7460   42.7200 O   0  0  0  0  0  0  0  0  0  0  0  0
   51.5430   31.1990   43.5400 H   0  0  0  0  0  0  0  0  0  0  0  0
   50.0540   32.1160   40.5040 O   0  0  0  0  0  0  0  0  0  0  0  0
   52.5380   32.2910   40.9900 H   0  0  0  0  0  0  0  0  0  0  0  0
   52.3250   31.9480   40.0320 N   0  0  0  0  0  0  0  0  0  0  0  0
   51.0220   31.3160   39.9570 C   0  0  1  0  0  0  0  0  0  0  0  0
   50.9830   30.0120   40.7270 C   0  0  0  0  0  0  0  0  0  0  0  0
   50.1310   29.4200   40.3510 H   0  0  0  0  0  0  0  0  0  0  0  0
   52.1790   29.3300   40.6990 O   0  0  0  0  0  0  0  0  0  0  0  0
   52.9690   29.6320   39.6030 C   0  0  0  0  0  0  0  0  0  0  0  0
   53.3830   31.0800   39.6050 C   0  0  0  0  0  0  0  0  0  0  0  0
  1  4  1  6  0  0  0
  1  8  1  0  0  0  0
  1  2  1  0  0  0  0
  1  3  1  0  0  0  0
  2  5  1  0  0  0  0
  2  3  1  0  0  0  0
  3  7  1  1  0  0  0
  6  2  1  0  0  0  0
  8 11  1  0  0  0  0
  9  8  2  0  0  0  0
 10 15  1  0  0  0  0
 11 10  2  0  0  0  0
 11 12  1  0  0  0  0
 12 13  2  0  0  0  0
 13 14  1  0  0  0  0
 14 18  1  0  0  0  0
 15 14  2  0  0  0  0
 16 10  1  0  0  0  0
 17 12  1  0  0  0  0
 19  3  1  0  0  0  0
 21 19  1  0  0  0  0
 21 22  1  0  0  0  0
 21 20  2  1  0  0  0
 22 23  1  0  0  0  0
 24 21  1  0  0  0  0
 26 25  1  0  0  0  0
 27 26  1  0  0  0  0
 27 24  1  1  0  0  0
 27 28  1  0  0  0  0
 29 28  1  0  0  0  0
 30 28  1  0  0  0  0
 31 32  1  0  0  0  0
 31 30  1  0  0  0  0
 32 26  1  0  0  0  0
M  END
>  <minimizedAffinity>
-5.32530499

>  <minimizedRMSD>
1.32839131

$$$$
