
 OpenBabel03252506453D

 41 44  0  0  1  0  0  0  0  0999 V2000
   49.7640   33.5590   41.4180 N   0  0  1  0  0  0  0  0  0  0  0  0
   50.6580   32.8610   42.3120 C   0  0  0  0  0  0  0  0  0  0  0  0
   51.1490   31.5430   41.7740 C   0  0  0  0  0  0  0  0  0  0  0  0
   49.9830   30.5980   41.6630 C   0  0  0  0  0  0  0  0  0  0  0  0
   48.7030   31.3330   41.2800 C   0  0  0  0  0  0  0  0  0  0  0  0
   49.0960   32.6030   40.5860 C   0  0  2  0  0  0  0  0  0  0  0  0
   50.0600   32.6060   43.2260 H   0  0  0  0  0  0  0  0  0  0  0  0
   51.4790   33.5090   42.6850 H   0  0  0  0  0  0  0  0  0  0  0  0
   51.8100   31.6030   40.9130 H   0  0  0  0  0  0  0  0  0  0  0  0
   51.7920   31.1210   42.5970 H   0  0  0  0  0  0  0  0  0  0  0  0
   49.8260   30.0740   42.6170 H   0  0  0  0  0  0  0  0  0  0  0  0
   50.1970   29.8950   40.8320 H   0  0  0  0  0  0  0  0  0  0  0  0
   48.1780   31.6310   42.2390 H   0  0  0  0  0  0  0  0  0  0  0  0
   48.0140   30.7610   40.6900 H   0  0  0  0  0  0  0  0  0  0  0  0
   48.1130   33.0900   40.3130 H   0  0  0  0  0  0  0  0  0  0  0  0
   47.4920   34.6740   41.9050 C   0  0  1  0  0  0  0  0  0  0  0  0
   48.5390   35.7000   41.6850 C   0  0  0  0  0  0  0  0  0  0  0  0
   48.9120   34.3730   42.2090 C   0  0  2  0  0  0  0  0  0  0  0  0
   47.0280   34.2560   40.9630 H   0  0  0  0  0  0  0  0  0  0  0  0
   48.8450   35.9640   40.6450 H   0  0  0  0  0  0  0  0  0  0  0  0
   48.5850   36.5810   42.3640 H   0  0  0  0  0  0  0  0  0  0  0  0
   49.1320   34.3450   43.3140 H   0  0  0  0  0  0  0  0  0  0  0  0
   45.6440   35.9540   43.0320 C   0  0  0  0  0  0  0  0  0  0  0  0
   46.5290   34.8680   42.9890 C   0  0  0  0  0  0  0  0  0  0  0  0
   46.4430   33.9410   44.0490 C   0  0  0  0  0  0  0  0  0  0  0  0
   45.5260   34.1470   45.0300 N   0  0  0  0  0  0  0  0  0  0  0  0
   44.6960   35.1960   45.0370 C   0  0  0  0  0  0  0  0  0  0  0  0
   44.7450   36.1210   44.0310 N   0  0  0  0  0  0  0  0  0  0  0  0
   45.7320   36.6530   42.2050 H   0  0  0  0  0  0  0  0  0  0  0  0
   47.1000   33.0690   44.0850 H   0  0  0  0  0  0  0  0  0  0  0  0
   44.0050   35.2610   45.8680 H   0  0  0  0  0  0  0  0  0  0  0  0
   49.7880   32.3280   39.3600 N   0  0  0  0  0  0  0  0  0  0  0  0
   49.8960   31.2630   39.2380 H   0  0  0  0  0  0  0  0  0  0  0  0
   48.3910   31.7180   36.5470 H   0  0  0  0  0  0  0  0  0  0  0  0
   48.3790   31.5650   37.5820 N   0  0  0  0  0  0  0  0  0  0  0  0
   49.0510   32.7060   38.1760 C   0  0  1  0  0  3  0  0  0  0  0  0
   48.1190   33.8520   38.3890 C   0  0  0  0  0  3  0  0  0  0  0  0
   48.6400   34.8300   38.3120 H   0  0  0  0  0  0  0  0  0  0  0  0
   47.1900   33.7780   37.3060 O   0  0  0  0  0  0  0  0  0  0  0  0
   46.2660   32.8030   37.6830 C   0  0  0  0  0  2  0  0  0  0  0  0
   46.9720   31.4860   37.9440 C   0  0  0  0  0  2  0  0  0  0  0  0
  1 18  1  0  0  0  0
  1  2  1  1  0  0  0
  2  8  1  0  0  0  0
  2  7  1  0  0  0  0
  3  2  1  0  0  0  0
  3 10  1  0  0  0  0
  4  3  1  0  0  0  0
  4 11  1  0  0  0  0
  5  4  1  0  0  0  0
  5 13  1  0  0  0  0
  6 15  1  6  0  0  0
  6  5  1  0  0  0  0
  6  1  1  0  0  0  0
  9  3  1  0  0  0  0
 12  4  1  0  0  0  0
 14  5  1  0  0  0  0
 16 19  1  6  0  0  0
 16 18  1  0  0  0  0
 16 24  1  0  0  0  0
 17 16  1  0  0  0  0
 17 18  1  0  0  0  0
 17 21  1  0  0  0  0
 18 22  1  1  0  0  0
 20 17  1  0  0  0  0
 23 28  1  0  0  0  0
 24 23  2  0  0  0  0
 24 25  1  0  0  0  0
 25 30  1  0  0  0  0
 25 26  2  0  0  0  0
 26 27  1  0  0  0  0
 27 31  1  0  0  0  0
 28 27  2  0  0  0  0
 29 23  1  0  0  0  0
 32  6  1  0  0  0  0
 33 32  1  0  0  0  0
 34 35  1  0  0  0  0
 35 41  1  0  0  0  0
 35 36  1  0  0  0  0
 36 37  1  0  0  0  0
 36 32  1  1  0  0  0
 38 37  1  0  0  0  0
 39 40  1  0  0  0  0
 39 37  1  0  0  0  0
 40 41  1  0  0  0  0
M  END
>  <minimizedAffinity>
-5.20896912

>  <minimizedRMSD>
1.72246659

$$$$
