REMARK  Name = 
REMARK  3 active torsions:
REMARK  status: ('A' for Active; 'I' for Inactive)
REMARK    1  A    between atoms: C_1  and  C_7
REMARK    2  A    between atoms: C_3  and  N_16
REMARK    3  A    between atoms: C_5  and  C_11
REMARK                            x       y       z     vdW  Elec       q    Type
REMARK                         _______ _______ _______ _____ _____    ______ ____
ROOT
ATOM      1  C   UNL     1      47.843  34.790  42.415  0.00  0.00    +0.000 A 
ATOM      2  C   UNL     1      48.109  33.567  43.071  0.00  0.00    +0.000 A 
ATOM      3  C   UNL     1      47.178  33.106  44.019  0.00  0.00    +0.000 A 
ATOM      4  N   UNL     1      46.082  33.873  44.238  0.00  0.00    +0.000 NA
ATOM      5  C   UNL     1      45.843  35.027  43.611  0.00  0.00    +0.000 A 
ATOM      6  N   UNL     1      46.732  35.479  42.698  0.00  0.00    +0.000 NA
ATOM      7  H   UNL     1      49.006  33.010  42.843  0.00  0.00    +0.000 HD
ENDROOT
BRANCH   3   8
ATOM      8  N   UNL     1      47.402  31.880  44.705  0.00  0.00    +0.000 N 
ATOM      9  C   UNL     1      47.518  30.673  43.950  0.00  0.00    +0.000 C 
ATOM     10  H   UNL     1      48.491  30.710  43.383  0.00  0.00    +0.000 HD
ATOM     11  C   UNL     1      47.526  29.440  44.795  0.00  0.00    +0.000 C 
ATOM     12  H   UNL     1      48.517  28.906  44.755  0.00  0.00    +0.000 HD
ATOM     13  O   UNL     1      47.147  29.624  46.107  0.00  0.00    +0.000 OA
ATOM     14  C   UNL     1      47.900  30.607  46.741  0.00  0.00    +0.000 C 
ATOM     15  C   UNL     1      47.499  31.929  46.144  0.00  0.00    +0.000 C 
ENDBRANCH   3   8
BRANCH   1  16
ATOM     16  C   UNL     1      48.840  35.264  41.414  0.00  0.00    +0.000 C 
ATOM     17  F   UNL     1      48.381  35.170  40.138  0.00  0.00    +0.000 F 
ATOM     18  F   UNL     1      49.194  36.570  41.734  0.00  0.00    +0.000 F 
ATOM     19  F   UNL     1      50.023  34.506  41.577  0.00  0.00    +0.000 F 
ENDBRANCH   1  16
BRANCH   5  20
ATOM     20  C   UNL     1      44.625  35.828  43.890  0.00  0.00    +0.000 C 
ATOM     21  F   UNL     1      43.638  35.575  42.980  0.00  0.00    +0.000 F 
ATOM     22  F   UNL     1      44.937  37.201  43.922  0.00  0.00    +0.000 F 
ATOM     23  F   UNL     1      44.116  35.550  45.145  0.00  0.00    +0.000 F 
ENDBRANCH   5  20
TORSDOF 3
