
 OpenBabel03252502303D

 23 24  0  0  0  0  0  0  0  0999 V2000
   47.8270   34.7810   42.4190 C   0  0  0  0  0  0  0  0  0  0  0  0
   48.0720   33.5830   43.1270 C   0  0  0  0  0  0  0  0  0  0  0  0
   47.1220   33.1670   44.0770 C   0  0  0  0  0  0  0  0  0  0  0  0
   46.0280   33.9500   44.2470 N   0  0  0  0  0  0  0  0  0  0  0  0
   45.8090   35.0800   43.5710 C   0  0  0  0  0  0  0  0  0  0  0  0
   46.7170   35.4890   42.6560 N   0  0  0  0  0  0  0  0  0  0  0  0
   48.9680   33.0110   42.9370 H   0  0  0  0  0  0  0  0  0  0  0  0
   47.3240   31.9670   44.8150 N   0  0  0  0  0  0  0  0  0  0  0  0
   46.9560   31.9310   46.1950 C   0  0  0  0  0  3  0  0  0  0  0  0
   45.8330   31.9580   46.2560 H   0  0  0  0  0  0  0  0  0  0  0  0
   47.4250   30.7000   46.9020 C   0  0  0  0  0  3  0  0  0  0  0  0
   46.5670   30.0480   47.2300 H   0  0  0  0  0  0  0  0  0  0  0  0
   48.3520   29.9450   46.2190 O   0  0  0  0  0  0  0  0  0  0  0  0
   47.9090   29.5890   44.9480 C   0  0  0  0  0  2  0  0  0  0  0  0
   47.8980   30.8430   44.1160 C   0  0  0  0  0  2  0  0  0  0  0  0
   48.8440   35.2070   41.4170 C   0  0  0  0  0  0  0  0  0  0  0  0
   48.3910   35.1040   40.1400 F   0  0  0  0  0  0  0  0  0  0  0  0
   49.2340   36.5080   41.7170 F   0  0  0  0  0  0  0  0  0  0  0  0
   50.0030   34.4180   41.6020 F   0  0  0  0  0  0  0  0  0  0  0  0
   44.5930   35.9000   43.7970 C   0  0  0  0  0  0  0  0  0  0  0  0
   43.6170   35.6130   42.8850 F   0  0  0  0  0  0  0  0  0  0  0  0
   44.9140   37.2710   43.7730 F   0  0  0  0  0  0  0  0  0  0  0  0
   44.0650   35.6810   45.0560 F   0  0  0  0  0  0  0  0  0  0  0  0
  1  6  2  0  0  0  0
  1  2  1  0  0  0  0
  2  3  2  0  0  0  0
  3  4  1  0  0  0  0
  3  8  1  0  0  0  0
  5 20  1  0  0  0  0
  5  4  2  0  0  0  0
  6  5  1  0  0  0  0
  7  2  1  0  0  0  0
  8  9  1  0  0  0  0
  9 10  1  0  0  0  0
  9 11  1  0  0  0  0
 11 12  1  0  0  0  0
 13 11  1  0  0  0  0
 14 13  1  0  0  0  0
 15  8  1  0  0  0  0
 15 14  1  0  0  0  0
 16 19  1  0  0  0  0
 16 18  1  0  0  0  0
 16  1  1  0  0  0  0
 17 16  1  0  0  0  0
 20 23  1  0  0  0  0
 21 20  1  0  0  0  0
 22 20  1  0  0  0  0
M  END
>  <minimizedAffinity>
-5.66931534

>  <minimizedRMSD>
0.848563015

$$$$
