
 OpenBabel03252507223D

 46 49  0  0  1  0  0  0  0  0999 V2000
   47.2850   33.6790   42.7770 C   0  0  0  0  0  0  0  0  0  0  0  0
   48.4200   33.5070   43.3100 O   0  0  0  0  0  0  0  0  0  0  0  0
   46.9340   33.1450   41.5120 N   0  0  0  0  0  0  0  0  0  0  0  0
   45.7050   32.4590   41.0750 C   0  0  0  0  0  0  0  0  0  0  0  0
   45.1770   33.1160   39.8140 C   0  0  0  0  0  0  0  0  0  0  0  0
   46.1610   32.9500   38.6870 C   0  0  0  0  0  0  0  0  0  0  0  0
   47.4850   32.4690   39.2420 C   0  0  0  0  0  0  0  0  0  0  0  0
   47.8960   33.2420   40.4450 C   0  0  2  0  0  0  0  0  0  0  0  0
   45.8680   31.3800   40.9750 H   0  0  0  0  0  0  0  0  0  0  0  0
   44.9390   32.6970   41.8680 H   0  0  0  0  0  0  0  0  0  0  0  0
   44.1620   32.7410   39.5860 H   0  0  0  0  0  0  0  0  0  0  0  0
   45.1370   34.2150   40.0270 H   0  0  0  0  0  0  0  0  0  0  0  0
   46.2540   33.8730   38.0770 H   0  0  0  0  0  0  0  0  0  0  0  0
   45.7520   32.1340   38.0270 H   0  0  0  0  0  0  0  0  0  0  0  0
   47.3250   31.4020   39.5450 H   0  0  0  0  0  0  0  0  0  0  0  0
   48.2620   32.4640   38.4690 H   0  0  0  0  0  0  0  0  0  0  0  0
   47.9010   34.3360   40.1380 H   0  0  0  0  0  0  0  0  0  0  0  0
   45.9170   35.7080   42.9440 C   0  0  0  0  0  0  0  0  0  0  0  0
   46.3030   34.4600   43.4960 C   0  0  0  0  0  0  0  0  0  0  0  0
   45.7420   34.0350   44.6780 C   0  0  0  0  0  0  0  0  0  0  0  0
   44.8370   34.8260   45.2760 N   0  0  0  0  0  0  0  0  0  0  0  0
   44.4500   36.0280   44.7660 C   0  0  0  0  0  0  0  0  0  0  0  0
   45.0050   36.4430   43.6010 N   0  0  0  0  0  0  0  0  0  0  0  0
   46.3290   36.0770   42.0260 H   0  0  0  0  0  0  0  0  0  0  0  0
   43.7150   36.5380   45.3700 H   0  0  0  0  0  0  0  0  0  0  0  0
   46.1620   32.7500   45.2240 C   0  0  0  0  0  0  0  0  0  0  0  0
   45.7550   31.6000   44.6410 C   0  0  0  0  0  0  0  0  0  0  0  0
   46.1680   30.3880   45.1720 C   0  0  0  0  0  0  0  0  0  0  0  0
   46.9880   30.3030   46.2870 C   0  0  0  0  0  0  0  0  0  0  0  0
   47.3720   31.5110   46.8400 C   0  0  0  0  0  0  0  0  0  0  0  0
   46.9620   32.6780   46.3110 N   0  0  0  0  0  0  0  0  0  0  0  0
   45.1200   31.5320   43.7710 H   0  0  0  0  0  0  0  0  0  0  0  0
   45.8830   29.4270   44.7540 H   0  0  0  0  0  0  0  0  0  0  0  0
   47.3370   29.3890   46.7400 H   0  0  0  0  0  0  0  0  0  0  0  0
   48.0220   31.5710   47.7200 H   0  0  0  0  0  0  0  0  0  0  0  0
   49.2820   32.8740   40.8440 C   0  0  0  0  0  0  0  0  0  0  0  0
   49.4820   33.0010   41.9060 H   0  0  0  0  0  0  0  0  0  0  0  0
   49.9640   33.5790   40.2770 H   0  0  0  0  0  0  0  0  0  0  0  0
   49.6950   31.5490   40.4400 N   0  0  0  0  0  0  0  0  0  0  0  0
   50.9400   31.5630   39.7660 C   0  0  0  0  0  0  0  0  0  0  0  0
   51.0750   32.4520   39.1410 H   0  0  0  0  0  0  0  0  0  0  0  0
   52.1430   31.3120   40.6610 C   0  0  0  0  0  0  0  0  0  0  0  0
   53.0240   31.2850   39.9710 H   0  0  0  0  0  0  0  0  0  0  0  0
   52.0460   30.0710   41.2340 O   0  0  0  0  0  0  0  0  0  0  0  0
   50.7800   29.6380   41.5380 C   0  0  0  0  0  0  0  0  0  0  0  0
   49.7720   30.7470   41.6270 C   0  0  0  0  0  0  0  0  0  0  0  0
  1  2  2  0  0  0  0
  1 19  1  0  0  0  0
  3  1  1  0  0  0  0
  4  3  1  0  0  0  0
  4 10  1  0  0  0  0
  5 12  1  0  0  0  0
  5  4  1  0  0  0  0
  6  7  1  0  0  0  0
  6  5  1  0  0  0  0
  7 15  1  0  0  0  0
  7  8  1  0  0  0  0
  8 17  1  6  0  0  0
  8 36  1  0  0  0  0
  8  3  1  0  0  0  0
  9  4  1  0  0  0  0
 11  5  1  0  0  0  0
 13  6  1  0  0  0  0
 14  6  1  0  0  0  0
 16  7  1  0  0  0  0
 18 19  2  0  0  0  0
 18 23  1  0  0  0  0
 19 20  1  0  0  0  0
 20 26  1  0  0  0  0
 20 21  2  0  0  0  0
 22 21  1  0  0  0  0
 22 25  1  0  0  0  0
 23 22  2  0  0  0  0
 24 18  1  0  0  0  0
 26 31  1  0  0  0  0
 27 28  1  0  0  0  0
 27 26  2  0  0  0  0
 28 29  2  0  0  0  0
 29 34  1  0  0  0  0
 29 30  1  0  0  0  0
 30 35  1  0  0  0  0
 31 30  2  0  0  0  0
 32 27  1  0  0  0  0
 33 28  1  0  0  0  0
 36 37  1  0  0  0  0
 38 36  1  0  0  0  0
 39 36  1  0  0  0  0
 39 46  1  0  0  0  0
 40 39  1  0  0  0  0
 40 42  1  0  0  0  0
 41 40  1  0  0  0  0
 42 44  1  0  0  0  0
 43 42  1  0  0  0  0
 44 45  1  0  0  0  0
 45 46  1  0  0  0  0
M  END
>  <minimizedAffinity>
-5.11954308

>  <minimizedRMSD>
1.07313895

$$$$
