
 OpenBabel03252503483D

 43 46  0  0  1  0  0  0  0  0999 V2000
   38.1570   28.1350   42.7820 C   0  0  0  0  0  0  0  0  0  0  0  0
   37.4060   27.2250   42.0370 C   0  0  0  0  0  0  0  0  0  0  0  0
   37.0170   27.6310   40.7610 C   0  0  0  0  0  0  0  0  0  0  0  0
   37.3540   28.8470   40.2690 N   0  0  0  0  0  0  0  0  0  0  0  0
   38.0840   29.7000   41.0280 C   0  0  0  0  0  0  0  0  0  0  0  0
   38.4890   29.3520   42.2840 N   0  0  0  0  0  0  0  0  0  0  0  0
   38.5060   27.9240   43.7740 H   0  0  0  0  0  0  0  0  0  0  0  0
   36.4350   27.0490   40.0940 H   0  0  0  0  0  0  0  0  0  0  0  0
   37.1730   31.6930   39.8540 C   0  0  2  0  0  0  0  0  0  0  0  0
   38.4300   30.9980   40.4550 C   0  0  1  0  0  0  0  0  0  0  0  0
   38.8020   31.9560   41.3350 O   0  0  0  0  0  0  0  0  0  0  0  0
   38.7540   33.1590   40.6860 C   0  0  0  0  0  0  0  0  0  0  0  0
   37.8530   33.0190   39.4820 C   0  0  2  0  0  0  0  0  0  0  0  0
   36.8260   31.1540   38.9740 H   0  0  0  0  0  0  0  0  0  0  0  0
   39.1950   30.9220   39.6390 H   0  0  0  0  0  0  0  0  0  0  0  0
   39.7970   33.4670   40.3880 H   0  0  0  0  0  0  0  0  0  0  0  0
   38.3650   33.9980   41.3120 H   0  0  0  0  0  0  0  0  0  0  0  0
   38.4710   32.9390   38.5830 H   0  0  0  0  0  0  0  0  0  0  0  0
   36.2730   31.9500   40.8190 O   0  0  0  0  0  0  0  0  0  0  0  0
   36.6820   32.0500   41.7090 H   0  0  0  0  0  0  0  0  0  0  0  0
   36.9570   34.0510   39.3360 O   0  0  0  0  0  0  0  0  0  0  0  0
   36.7980   34.5090   40.2200 H   0  0  0  0  0  0  0  0  0  0  0  0
   37.0590   25.9280   42.5750 C   0  0  0  0  0  0  0  0  0  0  0  0
   35.9770   25.9650   42.8740 H   0  0  0  0  0  0  0  0  0  0  0  0
   37.6500   25.7600   43.4970 H   0  0  0  0  0  0  0  0  0  0  0  0
   37.2690   24.8800   41.5680 C   0  0  0  0  0  0  0  0  0  0  0  0
   36.2920   24.1950   40.9010 C   0  0  0  0  0  0  0  0  0  0  0  0
   36.5640   23.2180   39.9720 C   0  0  0  0  0  0  0  0  0  0  0  0
   37.8760   22.9150   39.7030 C   0  0  0  0  0  0  0  0  0  0  0  0
   38.8990   23.5950   40.3660 C   0  0  0  0  0  0  0  0  0  0  0  0
   38.5910   24.5860   41.3060 C   0  0  0  0  0  0  0  0  0  0  0  0
   35.2850   24.4990   41.1770 H   0  0  0  0  0  0  0  0  0  0  0  0
   35.6940   22.7770   39.5380 H   0  0  0  0  0  0  0  0  0  0  0  0
   38.0170   22.1380   38.9650 H   0  0  0  0  0  0  0  0  0  0  0  0
   39.8630   23.2330   40.0350 H   0  0  0  0  0  0  0  0  0  0  0  0
   39.8180   25.1110   41.7920 N   0  0  0  0  0  0  0  0  0  0  0  0
   40.7080   26.0050   41.0720 C   0  0  0  0  0  3  0  0  0  0  0  0
   40.4350   26.0400   39.9890 H   0  0  0  0  0  0  0  0  0  0  0  0
   42.0780   25.3380   41.1390 C   0  0  0  0  0  3  0  0  0  0  0  0
   41.9050   24.2710   40.8210 H   0  0  0  0  0  0  0  0  0  0  0  0
   42.5360   25.3080   42.4320 O   0  0  0  0  0  0  0  0  0  0  0  0
   41.5570   25.5290   43.3700 C   0  0  0  0  0  2  0  0  0  0  0  0
   40.2820   24.7450   43.1400 C   0  0  0  0  0  2  0  0  0  0  0  0
  1  7  1  0  0  0  0
  2 23  1  0  0  0  0
  2  1  2  0  0  0  0
  3  2  1  0  0  0  0
  4  3  2  0  0  0  0
  4  5  1  0  0  0  0
  5  6  2  0  0  0  0
  6  1  1  0  0  0  0
  8  3  1  0  0  0  0
  9 14  1  6  0  0  0
  9 10  1  0  0  0  0
  9 19  1  0  0  0  0
 10 15  1  6  0  0  0
 10  5  1  0  0  0  0
 10 11  1  0  0  0  0
 12 17  1  0  0  0  0
 12 11  1  0  0  0  0
 13 18  1  6  0  0  0
 13  9  1  0  0  0  0
 13 12  1  0  0  0  0
 16 12  1  0  0  0  0
 19 20  1  0  0  0  0
 21 13  1  0  0  0  0
 21 22  1  0  0  0  0
 23 24  1  0  0  0  0
 23 25  1  0  0  0  0
 26 23  1  0  0  0  0
 27 32  1  0  0  0  0
 27 26  2  0  0  0  0
 28 27  1  0  0  0  0
 29 28  2  0  0  0  0
 29 30  1  0  0  0  0
 30 31  2  0  0  0  0
 31 26  1  0  0  0  0
 31 36  1  0  0  0  0
 33 28  1  0  0  0  0
 34 29  1  0  0  0  0
 35 30  1  0  0  0  0
 36 43  1  0  0  0  0
 37 39  1  0  0  0  0
 37 36  1  0  0  0  0
 38 37  1  0  0  0  0
 39 41  1  0  0  0  0
 40 39  1  0  0  0  0
 41 42  1  0  0  0  0
 43 42  1  0  0  0  0
M  END
>  <minimizedAffinity>
-6.48333645

$$$$

 OpenBabel03252503483D

 43 46  0  0  1  0  0  0  0  0999 V2000
   37.6470   30.1280   38.7410 C   0  0  0  0  0  0  0  0  0  0  0  0
   37.1470   30.0550   40.0420 C   0  0  0  0  0  0  0  0  0  0  0  0
   37.8630   30.7340   41.0270 C   0  0  0  0  0  0  0  0  0  0  0  0
   38.9880   31.4290   40.7350 N   0  0  0  0  0  0  0  0  0  0  0  0
   39.4390   31.4720   39.4570 C   0  0  0  0  0  0  0  0  0  0  0  0
   38.7740   30.8250   38.4560 N   0  0  0  0  0  0  0  0  0  0  0  0
   37.1730   29.6430   37.9100 H   0  0  0  0  0  0  0  0  0  0  0  0
   37.6070   30.7530   42.0550 H   0  0  0  0  0  0  0  0  0  0  0  0
   41.0240   32.1770   37.6760 C   0  0  2  0  0  0  0  0  0  0  0  0
   40.6510   32.2390   39.1870 C   0  0  1  0  0  0  0  0  0  0  0  0
   40.5470   33.5820   39.3240 O   0  0  0  0  0  0  0  0  0  0  0  0
   41.6330   34.1480   38.7170 C   0  0  0  0  0  0  0  0  0  0  0  0
   42.2080   33.1540   37.7360 C   0  0  2  0  0  0  0  0  0  0  0  0
   41.3420   31.1710   37.4060 H   0  0  0  0  0  0  0  0  0  0  0  0
   41.5360   31.8720   39.7680 H   0  0  0  0  0  0  0  0  0  0  0  0
   42.3910   34.4410   39.5000 H   0  0  0  0  0  0  0  0  0  0  0  0
   41.4050   35.0890   38.1610 H   0  0  0  0  0  0  0  0  0  0  0  0
   43.1060   32.7040   38.1710 H   0  0  0  0  0  0  0  0  0  0  0  0
   40.0600   32.7450   36.9320 O   0  0  0  0  0  0  0  0  0  0  0  0
   39.5430   33.4230   37.4240 H   0  0  0  0  0  0  0  0  0  0  0  0
   42.5100   33.6960   36.5100 O   0  0  0  0  0  0  0  0  0  0  0  0
   41.9710   34.5320   36.3510 H   0  0  0  0  0  0  0  0  0  0  0  0
   35.9410   29.3120   40.3370 C   0  0  0  0  0  0  0  0  0  0  0  0
   35.0690   29.9460   40.0220 H   0  0  0  0  0  0  0  0  0  0  0  0
   35.8710   29.1780   41.4350 H   0  0  0  0  0  0  0  0  0  0  0  0
   35.9280   28.0380   39.6070 C   0  0  0  0  0  0  0  0  0  0  0  0
   35.2740   27.7870   38.4330 C   0  0  0  0  0  0  0  0  0  0  0  0
   35.3030   26.5630   37.8080 C   0  0  0  0  0  0  0  0  0  0  0  0
   36.0190   25.5450   38.3880 C   0  0  0  0  0  0  0  0  0  0  0  0
   36.6980   25.7670   39.5880 C   0  0  0  0  0  0  0  0  0  0  0  0
   36.6520   27.0250   40.2010 C   0  0  0  0  0  0  0  0  0  0  0  0
   34.7340   28.6480   38.0470 H   0  0  0  0  0  0  0  0  0  0  0  0
   34.7430   26.5270   36.8990 H   0  0  0  0  0  0  0  0  0  0  0  0
   35.9960   24.6110   37.8450 H   0  0  0  0  0  0  0  0  0  0  0  0
   37.2060   24.8640   39.9010 H   0  0  0  0  0  0  0  0  0  0  0  0
   37.4460   26.9570   41.3770 N   0  0  0  0  0  0  0  0  0  0  0  0
   36.9480   26.8090   42.7340 C   0  0  0  0  0  3  0  0  0  0  0  0
   35.8490   27.0010   42.7710 H   0  0  0  0  0  0  0  0  0  0  0  0
   37.6000   27.9430   43.5190 C   0  0  0  0  0  3  0  0  0  0  0  0
   37.4190   28.8710   42.9060 H   0  0  0  0  0  0  0  0  0  0  0  0
   38.9580   27.7610   43.5910 O   0  0  0  0  0  0  0  0  0  0  0  0
   39.4430   26.8590   42.6760 C   0  0  0  0  0  2  0  0  0  0  0  0
   38.9110   27.0450   41.2710 C   0  0  0  0  0  2  0  0  0  0  0  0
  1  2  1  0  0  0  0
  2 23  1  0  0  0  0
  2  3  2  0  0  0  0
  3  8  1  0  0  0  0
  4  3  1  0  0  0  0
  5  4  2  0  0  0  0
  6  1  2  0  0  0  0
  6  5  1  0  0  0  0
  7  1  1  0  0  0  0
  9 14  1  6  0  0  0
  9 13  1  0  0  0  0
  9 10  1  0  0  0  0
 10 11  1  0  0  0  0
 10  5  1  0  0  0  0
 10 15  1  1  0  0  0
 12 11  1  0  0  0  0
 12 16  1  0  0  0  0
 13 18  1  1  0  0  0
 13 12  1  0  0  0  0
 17 12  1  0  0  0  0
 19 20  1  0  0  0  0
 19  9  1  0  0  0  0
 21 13  1  0  0  0  0
 22 21  1  0  0  0  0
 23 25  1  0  0  0  0
 24 23  1  0  0  0  0
 26 31  1  0  0  0  0
 26 23  1  0  0  0  0
 27 26  2  0  0  0  0
 28 29  2  0  0  0  0
 28 27  1  0  0  0  0
 29 30  1  0  0  0  0
 30 35  1  0  0  0  0
 30 31  2  0  0  0  0
 31 36  1  0  0  0  0
 32 27  1  0  0  0  0
 33 28  1  0  0  0  0
 34 29  1  0  0  0  0
 36 37  1  0  0  0  0
 37 38  1  0  0  0  0
 37 39  1  0  0  0  0
 39 41  1  0  0  0  0
 40 39  1  0  0  0  0
 42 41  1  0  0  0  0
 43 36  1  0  0  0  0
 43 42  1  0  0  0  0
M  END
>  <minimizedAffinity>
-6.31413555

$$$$

 OpenBabel03252503483D

 43 46  0  0  1  0  0  0  0  0999 V2000
   38.5960   29.0870   38.6240 C   0  0  0  0  0  0  0  0  0  0  0  0
   37.4440   29.4550   39.3210 C   0  0  0  0  0  0  0  0  0  0  0  0
   37.4340   30.7300   39.8860 C   0  0  0  0  0  0  0  0  0  0  0  0
   38.4900   31.5680   39.7630 N   0  0  0  0  0  0  0  0  0  0  0  0
   39.5900   31.1690   39.0780 C   0  0  0  0  0  0  0  0  0  0  0  0
   39.6500   29.9310   38.5060 N   0  0  0  0  0  0  0  0  0  0  0  0
   38.7070   28.1300   38.1520 H   0  0  0  0  0  0  0  0  0  0  0  0
   36.6350   31.1330   40.4510 H   0  0  0  0  0  0  0  0  0  0  0  0
   41.2160   32.1870   37.4980 C   0  0  2  0  0  0  0  0  0  0  0  0
   40.7010   32.1090   38.9650 C   0  0  1  0  0  0  0  0  0  0  0  0
   40.3970   33.4140   39.1520 O   0  0  0  0  0  0  0  0  0  0  0  0
   41.4430   34.1580   38.6830 C   0  0  0  0  0  0  0  0  0  0  0  0
   42.2400   33.3110   37.7190 C   0  0  2  0  0  0  0  0  0  0  0  0
   41.6970   31.2510   37.2150 H   0  0  0  0  0  0  0  0  0  0  0  0
   41.5720   31.8320   39.6140 H   0  0  0  0  0  0  0  0  0  0  0  0
   42.0770   34.5040   39.5490 H   0  0  0  0  0  0  0  0  0  0  0  0
   41.1370   35.0900   38.1500 H   0  0  0  0  0  0  0  0  0  0  0  0
   43.1490   32.9620   38.2200 H   0  0  0  0  0  0  0  0  0  0  0  0
   40.2550   32.6610   36.6880 O   0  0  0  0  0  0  0  0  0  0  0  0
   39.6040   33.2330   37.1570 H   0  0  0  0  0  0  0  0  0  0  0  0
   42.5740   33.9600   36.5550 O   0  0  0  0  0  0  0  0  0  0  0  0
   41.9400   34.7230   36.3810 H   0  0  0  0  0  0  0  0  0  0  0  0
   36.3220   28.5490   39.4390 C   0  0  0  0  0  0  0  0  0  0  0  0
   36.1580   28.0820   38.4300 H   0  0  0  0  0  0  0  0  0  0  0  0
   35.4160   29.1410   39.6780 H   0  0  0  0  0  0  0  0  0  0  0  0
   36.6010   27.5100   40.4370 C   0  0  0  0  0  0  0  0  0  0  0  0
   36.6870   27.6920   41.7900 C   0  0  0  0  0  0  0  0  0  0  0  0
   36.9580   26.6690   42.6670 C   0  0  0  0  0  0  0  0  0  0  0  0
   37.1530   25.4070   42.1640 C   0  0  0  0  0  0  0  0  0  0  0  0
   37.0730   25.1840   40.7880 C   0  0  0  0  0  0  0  0  0  0  0  0
   36.7940   26.2460   39.9190 C   0  0  0  0  0  0  0  0  0  0  0  0
   36.5190   28.7210   42.0980 H   0  0  0  0  0  0  0  0  0  0  0  0
   36.9910   26.9720   43.6900 H   0  0  0  0  0  0  0  0  0  0  0  0
   37.3630   24.6520   42.9090 H   0  0  0  0  0  0  0  0  0  0  0  0
   37.2510   24.1400   40.5680 H   0  0  0  0  0  0  0  0  0  0  0  0
   36.7520   25.7200   38.6000 N   0  0  0  0  0  0  0  0  0  0  0  0
   37.8800   25.6080   37.6900 C   0  0  0  0  0  3  0  0  0  0  0  0
   38.7430   26.2130   38.0610 H   0  0  0  0  0  0  0  0  0  0  0  0
   37.4160   26.2820   36.4020 C   0  0  0  0  0  3  0  0  0  0  0  0
   36.9930   27.2750   36.7220 H   0  0  0  0  0  0  0  0  0  0  0  0
   36.3940   25.5690   35.8280 O   0  0  0  0  0  0  0  0  0  0  0  0
   35.7970   24.6740   36.6810 C   0  0  0  0  0  2  0  0  0  0  0  0
   35.4760   25.2330   38.0510 C   0  0  0  0  0  2  0  0  0  0  0  0
  1  2  1  0  0  0  0
  2 23  1  0  0  0  0
  2  3  2  0  0  0  0
  3  8  1  0  0  0  0
  4  3  1  0  0  0  0
  5  4  2  0  0  0  0
  6  1  2  0  0  0  0
  6  5  1  0  0  0  0
  7  1  1  0  0  0  0
  9 14  1  6  0  0  0
  9 13  1  0  0  0  0
  9 10  1  0  0  0  0
 10  5  1  0  0  0  0
 10 11  1  0  0  0  0
 10 15  1  1  0  0  0
 12 11  1  0  0  0  0
 12 16  1  0  0  0  0
 13 18  1  1  0  0  0
 13 12  1  0  0  0  0
 17 12  1  0  0  0  0
 19 20  1  0  0  0  0
 19  9  1  0  0  0  0
 21 13  1  0  0  0  0
 22 21  1  0  0  0  0
 23 25  1  0  0  0  0
 23 26  1  0  0  0  0
 24 23  1  0  0  0  0
 26 27  1  0  0  0  0
 27 32  1  0  0  0  0
 27 28  2  0  0  0  0
 28 33  1  0  0  0  0
 29 28  1  0  0  0  0
 29 34  1  0  0  0  0
 30 29  2  0  0  0  0
 31 26  2  0  0  0  0
 31 30  1  0  0  0  0
 35 30  1  0  0  0  0
 36 31  1  0  0  0  0
 37 38  1  0  0  0  0
 37 36  1  0  0  0  0
 39 40  1  0  0  0  0
 39 37  1  0  0  0  0
 41 39  1  0  0  0  0
 41 42  1  0  0  0  0
 42 43  1  0  0  0  0
 43 36  1  0  0  0  0
M  END
>  <minimizedAffinity>
-6.09153986

$$$$

 OpenBabel03252503483D

 43 46  0  0  1  0  0  0  0  0999 V2000
   39.0520   31.4860   37.8820 C   0  0  0  0  0  0  0  0  0  0  0  0
   38.3810   31.6820   39.0900 C   0  0  0  0  0  0  0  0  0  0  0  0
   39.1390   32.1640   40.1560 C   0  0  0  0  0  0  0  0  0  0  0  0
   40.4600   32.4290   40.0260 N   0  0  0  0  0  0  0  0  0  0  0  0
   41.0730   32.2220   38.8340 C   0  0  0  0  0  0  0  0  0  0  0  0
   40.3760   31.7520   37.7590 N   0  0  0  0  0  0  0  0  0  0  0  0
   38.5640   31.1200   37.0000 H   0  0  0  0  0  0  0  0  0  0  0  0
   38.7630   32.3460   41.1300 H   0  0  0  0  0  0  0  0  0  0  0  0
   42.9070   32.8030   37.2610 C   0  0  2  0  0  0  0  0  0  0  0  0
   42.4970   32.5280   38.7370 C   0  0  1  0  0  0  0  0  0  0  0  0
   42.8910   33.7000   39.2890 O   0  0  0  0  0  0  0  0  0  0  0  0
   44.1440   33.9810   38.8180 C   0  0  0  0  0  0  0  0  0  0  0  0
   44.3640   33.2010   37.5430 C   0  0  2  0  0  0  0  0  0  0  0  0
   42.8440   31.8880   36.6740 H   0  0  0  0  0  0  0  0  0  0  0  0
   43.1460   31.6980   39.1190 H   0  0  0  0  0  0  0  0  0  0  0  0
   44.9090   33.7130   39.6030 H   0  0  0  0  0  0  0  0  0  0  0  0
   44.3150   35.0610   38.5950 H   0  0  0  0  0  0  0  0  0  0  0  0
   45.0030   32.3390   37.7600 H   0  0  0  0  0  0  0  0  0  0  0  0
   42.2690   33.8890   36.7910 O   0  0  0  0  0  0  0  0  0  0  0  0
   42.0140   34.5210   37.5010 H   0  0  0  0  0  0  0  0  0  0  0  0
   44.9170   33.9430   36.5280 O   0  0  0  0  0  0  0  0  0  0  0  0
   44.7380   34.9240   36.6690 H   0  0  0  0  0  0  0  0  0  0  0  0
   36.9670   31.4000   39.2120 C   0  0  0  0  0  0  0  0  0  0  0  0
   36.4150   32.1770   38.6180 H   0  0  0  0  0  0  0  0  0  0  0  0
   36.6740   31.5260   40.2730 H   0  0  0  0  0  0  0  0  0  0  0  0
   36.6630   30.0590   38.6950 C   0  0  0  0  0  0  0  0  0  0  0  0
   36.0350   29.7730   37.5140 C   0  0  0  0  0  0  0  0  0  0  0  0
   35.7770   28.4900   37.0960 C   0  0  0  0  0  0  0  0  0  0  0  0
   36.1660   27.4460   37.9000 C   0  0  0  0  0  0  0  0  0  0  0  0
   36.8080   27.7020   39.1130 C   0  0  0  0  0  0  0  0  0  0  0  0
   37.0590   29.0210   39.5110 C   0  0  0  0  0  0  0  0  0  0  0  0
   35.7640   30.6580   36.9440 H   0  0  0  0  0  0  0  0  0  0  0  0
   35.2810   28.4310   36.1520 H   0  0  0  0  0  0  0  0  0  0  0  0
   35.9300   26.4650   37.5110 H   0  0  0  0  0  0  0  0  0  0  0  0
   37.0420   26.7730   39.6140 H   0  0  0  0  0  0  0  0  0  0  0  0
   37.7380   28.9690   40.7590 N   0  0  0  0  0  0  0  0  0  0  0  0
   39.1210   28.5750   40.9610 C   0  0  0  0  0  3  0  0  0  0  0  0
   39.5250   28.0790   40.0450 H   0  0  0  0  0  0  0  0  0  0  0  0
   39.0710   27.4950   42.0370 C   0  0  0  0  0  3  0  0  0  0  0  0
   38.2800   26.7700   41.6940 H   0  0  0  0  0  0  0  0  0  0  0  0
   38.6480   28.0240   43.2310 O   0  0  0  0  0  0  0  0  0  0  0  0
   38.0400   29.2490   43.1080 C   0  0  0  0  0  2  0  0  0  0  0  0
   37.0210   29.3320   41.9920 C   0  0  0  0  0  2  0  0  0  0  0  0
  1  2  1  0  0  0  0
  2 23  1  0  0  0  0
  2  3  2  0  0  0  0
  3  8  1  0  0  0  0
  4  3  1  0  0  0  0
  5  4  2  0  0  0  0
  6  1  2  0  0  0  0
  6  5  1  0  0  0  0
  7  1  1  0  0  0  0
  9 14  1  6  0  0  0
  9 13  1  0  0  0  0
  9 10  1  0  0  0  0
 10  5  1  0  0  0  0
 10 15  1  1  0  0  0
 10 11  1  0  0  0  0
 12 11  1  0  0  0  0
 12 16  1  0  0  0  0
 13 18  1  1  0  0  0
 13 12  1  0  0  0  0
 17 12  1  0  0  0  0
 19  9  1  0  0  0  0
 19 20  1  0  0  0  0
 21 22  1  0  0  0  0
 21 13  1  0  0  0  0
 23 25  1  0  0  0  0
 24 23  1  0  0  0  0
 26 23  1  0  0  0  0
 26 31  1  0  0  0  0
 27 26  2  0  0  0  0
 28 27  1  0  0  0  0
 28 29  2  0  0  0  0
 29 30  1  0  0  0  0
 30 31  2  0  0  0  0
 30 35  1  0  0  0  0
 31 36  1  0  0  0  0
 32 27  1  0  0  0  0
 33 28  1  0  0  0  0
 34 29  1  0  0  0  0
 36 37  1  0  0  0  0
 36 43  1  0  0  0  0
 37 39  1  0  0  0  0
 38 37  1  0  0  0  0
 39 41  1  0  0  0  0
 40 39  1  0  0  0  0
 42 41  1  0  0  0  0
 43 42  1  0  0  0  0
M  END
>  <minimizedAffinity>
-6.07567215

$$$$

 OpenBabel03252503483D

 43 46  0  0  1  0  0  0  0  0999 V2000
   39.4090   28.5050   37.6370 C   0  0  0  0  0  0  0  0  0  0  0  0
   38.7910   28.2680   38.8650 C   0  0  0  0  0  0  0  0  0  0  0  0
   39.1870   29.0750   39.9310 C   0  0  0  0  0  0  0  0  0  0  0  0
   40.1240   30.0410   39.7810 N   0  0  0  0  0  0  0  0  0  0  0  0
   40.7000   30.2360   38.5690 C   0  0  0  0  0  0  0  0  0  0  0  0
   40.3470   29.4730   37.4930 N   0  0  0  0  0  0  0  0  0  0  0  0
   39.1780   27.9420   36.7530 H   0  0  0  0  0  0  0  0  0  0  0  0
   38.8130   28.9970   40.9190 H   0  0  0  0  0  0  0  0  0  0  0  0
   41.6080   31.9930   37.0640 C   0  0  2  0  0  0  0  0  0  0  0  0
   41.7000   31.2930   38.4510 C   0  0  1  0  0  0  0  0  0  0  0  0
   41.5180   32.3730   39.2460 O   0  0  0  0  0  0  0  0  0  0  0  0
   42.3170   33.3770   38.7730 C   0  0  0  0  0  0  0  0  0  0  0  0
   42.6600   33.0790   37.3330 C   0  0  2  0  0  0  0  0  0  0  0  0
   41.9220   31.3110   36.2750 H   0  0  0  0  0  0  0  0  0  0  0  0
   42.7480   30.9140   38.5690 H   0  0  0  0  0  0  0  0  0  0  0  0
   43.2430   33.4530   39.4110 H   0  0  0  0  0  0  0  0  0  0  0  0
   41.8470   34.3890   38.8130 H   0  0  0  0  0  0  0  0  0  0  0  0
   43.6850   32.6960   37.2840 H   0  0  0  0  0  0  0  0  0  0  0  0
   40.4180   32.6010   36.9230 O   0  0  0  0  0  0  0  0  0  0  0  0
   40.0120   32.8550   37.7830 H   0  0  0  0  0  0  0  0  0  0  0  0
   42.5310   34.1610   36.4960 O   0  0  0  0  0  0  0  0  0  0  0  0
   41.8950   34.8370   36.8880 H   0  0  0  0  0  0  0  0  0  0  0  0
   37.7880   27.2360   39.0090 C   0  0  0  0  0  0  0  0  0  0  0  0
   38.2490   26.2680   38.6730 H   0  0  0  0  0  0  0  0  0  0  0  0
   36.9510   27.4600   38.3160 H   0  0  0  0  0  0  0  0  0  0  0  0
   37.3530   27.1290   40.4070 C   0  0  0  0  0  0  0  0  0  0  0  0
   36.6830   28.0850   41.1190 C   0  0  0  0  0  0  0  0  0  0  0  0
   36.3120   27.9170   42.4320 C   0  0  0  0  0  0  0  0  0  0  0  0
   36.6300   26.7370   43.0580 C   0  0  0  0  0  0  0  0  0  0  0  0
   37.3140   25.7400   42.3620 C   0  0  0  0  0  0  0  0  0  0  0  0
   37.6780   25.9390   41.0240 C   0  0  0  0  0  0  0  0  0  0  0  0
   36.4740   28.9840   40.5450 H   0  0  0  0  0  0  0  0  0  0  0  0
   35.7950   28.7530   42.8480 H   0  0  0  0  0  0  0  0  0  0  0  0
   36.3090   26.6730   44.0890 H   0  0  0  0  0  0  0  0  0  0  0  0
   37.4810   24.8840   43.0020 H   0  0  0  0  0  0  0  0  0  0  0  0
   38.3320   24.7590   40.5780 N   0  0  0  0  0  0  0  0  0  0  0  0
   39.7600   24.6060   40.3610 C   0  0  0  0  0  3  0  0  0  0  0  0
   40.2640   25.6030   40.3520 H   0  0  0  0  0  0  0  0  0  0  0  0
   39.8870   24.0570   38.9440 C   0  0  0  0  0  3  0  0  0  0  0  0
   39.2480   24.7290   38.3060 H   0  0  0  0  0  0  0  0  0  0  0  0
   39.3550   22.7940   38.8670 O   0  0  0  0  0  0  0  0  0  0  0  0
   38.5360   22.4760   39.9220 C   0  0  0  0  0  2  0  0  0  0  0  0
   37.5390   23.5530   40.2890 C   0  0  0  0  0  2  0  0  0  0  0  0
  1  2  1  0  0  0  0
  2 23  1  0  0  0  0
  2  3  2  0  0  0  0
  3  8  1  0  0  0  0
  4  3  1  0  0  0  0
  5  4  2  0  0  0  0
  6  1  2  0  0  0  0
  6  5  1  0  0  0  0
  7  1  1  0  0  0  0
  9 14  1  6  0  0  0
  9 13  1  0  0  0  0
  9 10  1  0  0  0  0
 10  5  1  0  0  0  0
 10 15  1  1  0  0  0
 10 11  1  0  0  0  0
 12 17  1  0  0  0  0
 12 11  1  0  0  0  0
 12 16  1  0  0  0  0
 13 18  1  6  0  0  0
 13 12  1  0  0  0  0
 19  9  1  0  0  0  0
 19 20  1  0  0  0  0
 21 22  1  0  0  0  0
 21 13  1  0  0  0  0
 23 26  1  0  0  0  0
 24 23  1  0  0  0  0
 25 23  1  0  0  0  0
 26 31  2  0  0  0  0
 26 27  1  0  0  0  0
 27 28  2  0  0  0  0
 28 33  1  0  0  0  0
 28 29  1  0  0  0  0
 29 34  1  0  0  0  0
 30 35  1  0  0  0  0
 30 29  2  0  0  0  0
 31 30  1  0  0  0  0
 32 27  1  0  0  0  0
 36 31  1  0  0  0  0
 37 36  1  0  0  0  0
 38 37  1  0  0  0  0
 39 37  1  0  0  0  0
 40 39  1  0  0  0  0
 41 39  1  0  0  0  0
 41 42  1  0  0  0  0
 42 43  1  0  0  0  0
 43 36  1  0  0  0  0
M  END
>  <minimizedAffinity>
-5.89799261

$$$$

 OpenBabel03252503483D

 43 46  0  0  1  0  0  0  0  0999 V2000
   39.6680   30.7770   39.2840 C   0  0  0  0  0  0  0  0  0  0  0  0
   38.9170   31.5380   40.1800 C   0  0  0  0  0  0  0  0  0  0  0  0
   39.5470   32.6500   40.7370 C   0  0  0  0  0  0  0  0  0  0  0  0
   40.8230   32.9760   40.4230 N   0  0  0  0  0  0  0  0  0  0  0  0
   41.5160   32.2060   39.5480 C   0  0  0  0  0  0  0  0  0  0  0  0
   40.9460   31.1070   38.9740 N   0  0  0  0  0  0  0  0  0  0  0  0
   39.2800   29.9020   38.7990 H   0  0  0  0  0  0  0  0  0  0  0  0
   39.1020   33.3070   41.4400 H   0  0  0  0  0  0  0  0  0  0  0  0
   43.1500   32.5180   37.7000 C   0  0  2  0  0  0  0  0  0  0  0  0
   42.8870   32.5990   39.2330 C   0  0  1  0  0  0  0  0  0  0  0  0
   43.1920   33.9020   39.4320 O   0  0  0  0  0  0  0  0  0  0  0  0
   44.3660   34.1590   38.7800 C   0  0  0  0  0  0  0  0  0  0  0  0
   44.5710   33.1000   37.7240 C   0  0  2  0  0  0  0  0  0  0  0  0
   43.1420   31.4810   37.3690 H   0  0  0  0  0  0  0  0  0  0  0  0
   43.6510   31.9540   39.7400 H   0  0  0  0  0  0  0  0  0  0  0  0
   45.2140   34.1700   39.5240 H   0  0  0  0  0  0  0  0  0  0  0  0
   44.4000   35.1560   38.2790 H   0  0  0  0  0  0  0  0  0  0  0  0
   45.3160   32.3810   38.0810 H   0  0  0  0  0  0  0  0  0  0  0  0
   42.3620   33.3870   37.0430 O   0  0  0  0  0  0  0  0  0  0  0  0
   42.0940   34.1570   37.5950 H   0  0  0  0  0  0  0  0  0  0  0  0
   44.9600   33.5990   36.5050 O   0  0  0  0  0  0  0  0  0  0  0  0
   44.6860   34.5650   36.4150 H   0  0  0  0  0  0  0  0  0  0  0  0
   37.5530   31.1800   40.5020 C   0  0  0  0  0  0  0  0  0  0  0  0
   37.0200   30.9780   39.5340 H   0  0  0  0  0  0  0  0  0  0  0  0
   37.0610   32.0560   40.9710 H   0  0  0  0  0  0  0  0  0  0  0  0
   37.5200   29.9860   41.3560 C   0  0  0  0  0  0  0  0  0  0  0  0
   38.1460   29.8390   42.5620 C   0  0  0  0  0  0  0  0  0  0  0  0
   38.0750   28.6860   43.3060 C   0  0  0  0  0  0  0  0  0  0  0  0
   37.3440   27.6320   42.8160 C   0  0  0  0  0  0  0  0  0  0  0  0
   36.6920   27.7470   41.5870 C   0  0  0  0  0  0  0  0  0  0  0  0
   36.7810   28.9360   40.8520 C   0  0  0  0  0  0  0  0  0  0  0  0
   38.7010   30.7220   42.8710 H   0  0  0  0  0  0  0  0  0  0  0  0
   38.6170   28.7280   44.2250 H   0  0  0  0  0  0  0  0  0  0  0  0
   37.3320   26.7570   43.4520 H   0  0  0  0  0  0  0  0  0  0  0  0
   36.1670   26.8300   41.3560 H   0  0  0  0  0  0  0  0  0  0  0  0
   36.0070   28.7680   39.6730 N   0  0  0  0  0  0  0  0  0  0  0  0
   36.4960   28.2820   38.3940 C   0  0  0  0  0  3  0  0  0  0  0  0
   37.6130   28.2860   38.3750 H   0  0  0  0  0  0  0  0  0  0  0  0
   36.0550   29.3320   37.3780 C   0  0  0  0  0  3  0  0  0  0  0  0
   36.3770   30.3200   37.8130 H   0  0  0  0  0  0  0  0  0  0  0  0
   34.6870   29.3580   37.2760 O   0  0  0  0  0  0  0  0  0  0  0  0
   34.0440   28.7400   38.3200 C   0  0  0  0  0  2  0  0  0  0  0  0
   34.5750   29.1080   39.6890 C   0  0  0  0  0  2  0  0  0  0  0  0
  1  2  1  0  0  0  0
  2 23  1  0  0  0  0
  2  3  2  0  0  0  0
  3  8  1  0  0  0  0
  4  3  1  0  0  0  0
  5  4  2  0  0  0  0
  6  1  2  0  0  0  0
  6  5  1  0  0  0  0
  7  1  1  0  0  0  0
  9 14  1  6  0  0  0
  9 13  1  0  0  0  0
  9 10  1  0  0  0  0
 10 11  1  0  0  0  0
 10  5  1  0  0  0  0
 10 15  1  1  0  0  0
 12 11  1  0  0  0  0
 12 16  1  0  0  0  0
 13 18  1  1  0  0  0
 13 12  1  0  0  0  0
 17 12  1  0  0  0  0
 19 20  1  0  0  0  0
 19  9  1  0  0  0  0
 21 13  1  0  0  0  0
 22 21  1  0  0  0  0
 23 25  1  0  0  0  0
 23 26  1  0  0  0  0
 24 23  1  0  0  0  0
 26 27  1  0  0  0  0
 27 32  1  0  0  0  0
 27 28  2  0  0  0  0
 28 33  1  0  0  0  0
 29 28  1  0  0  0  0
 29 34  1  0  0  0  0
 30 29  2  0  0  0  0
 31 26  2  0  0  0  0
 31 30  1  0  0  0  0
 35 30  1  0  0  0  0
 36 43  1  0  0  0  0
 36 31  1  0  0  0  0
 37 36  1  0  0  0  0
 38 37  1  0  0  0  0
 39 40  1  0  0  0  0
 39 37  1  0  0  0  0
 41 39  1  0  0  0  0
 41 42  1  0  0  0  0
 42 43  1  0  0  0  0
M  END
>  <minimizedAffinity>
-5.86952877

$$$$

 OpenBabel03252503483D

 43 46  0  0  1  0  0  0  0  0999 V2000
   37.0800   27.6870   40.1730 C   0  0  0  0  0  0  0  0  0  0  0  0
   36.4270   28.7900   40.7230 C   0  0  0  0  0  0  0  0  0  0  0  0
   36.8020   29.1600   42.0140 C   0  0  0  0  0  0  0  0  0  0  0  0
   37.7530   28.4830   42.6990 N   0  0  0  0  0  0  0  0  0  0  0  0
   38.3610   27.4150   42.1260 C   0  0  0  0  0  0  0  0  0  0  0  0
   38.0310   27.0120   40.8650 N   0  0  0  0  0  0  0  0  0  0  0  0
   36.8670   27.3190   39.1880 H   0  0  0  0  0  0  0  0  0  0  0  0
   36.3810   29.9670   42.5580 H   0  0  0  0  0  0  0  0  0  0  0  0
   40.1310   25.6730   42.0180 C   0  0  2  0  0  0  0  0  0  0  0  0
   39.3870   26.7190   42.8980 C   0  0  1  0  0  0  0  0  0  0  0  0
   40.4480   27.4650   43.2840 O   0  0  0  0  0  0  0  0  0  0  0  0
   41.4380   26.6080   43.6790 C   0  0  0  0  0  0  0  0  0  0  0  0
   41.1720   25.2530   43.0670 C   0  0  2  0  0  0  0  0  0  0  0  0
   39.4630   24.8530   41.7590 H   0  0  0  0  0  0  0  0  0  0  0  0
   38.9680   26.1770   43.7860 H   0  0  0  0  0  0  0  0  0  0  0  0
   41.4620   26.5550   44.8050 H   0  0  0  0  0  0  0  0  0  0  0  0
   42.4640   26.9280   43.3760 H   0  0  0  0  0  0  0  0  0  0  0  0
   40.7560   24.5930   43.8340 H   0  0  0  0  0  0  0  0  0  0  0  0
   40.7840   26.2840   41.0150 O   0  0  0  0  0  0  0  0  0  0  0  0
   41.0250   27.2150   41.2230 H   0  0  0  0  0  0  0  0  0  0  0  0
   42.2820   24.6690   42.5080 O   0  0  0  0  0  0  0  0  0  0  0  0
   42.9670   25.3690   42.2700 H   0  0  0  0  0  0  0  0  0  0  0  0
   35.4160   29.5070   39.9770 C   0  0  0  0  0  0  0  0  0  0  0  0
   35.3800   30.5560   40.3780 H   0  0  0  0  0  0  0  0  0  0  0  0
   34.4310   29.0420   40.1830 H   0  0  0  0  0  0  0  0  0  0  0  0
   35.7460   29.5250   38.5460 C   0  0  0  0  0  0  0  0  0  0  0  0
   35.1160   28.8130   37.5640 C   0  0  0  0  0  0  0  0  0  0  0  0
   35.4850   28.8760   36.2410 C   0  0  0  0  0  0  0  0  0  0  0  0
   36.5340   29.6890   35.8900 C   0  0  0  0  0  0  0  0  0  0  0  0
   37.2000   30.4300   36.8680 C   0  0  0  0  0  0  0  0  0  0  0  0
   36.8010   30.3470   38.2070 C   0  0  0  0  0  0  0  0  0  0  0  0
   34.3000   28.1970   37.9320 H   0  0  0  0  0  0  0  0  0  0  0  0
   34.8960   28.2620   35.5960 H   0  0  0  0  0  0  0  0  0  0  0  0
   36.7710   29.6900   34.8350 H   0  0  0  0  0  0  0  0  0  0  0  0
   37.9940   31.0120   36.4190 H   0  0  0  0  0  0  0  0  0  0  0  0
   37.6350   31.2180   38.9580 N   0  0  0  0  0  0  0  0  0  0  0  0
   39.0630   31.0560   39.1720 C   0  0  0  0  0  3  0  0  0  0  0  0
   39.3880   30.0280   38.8810 H   0  0  0  0  0  0  0  0  0  0  0  0
   39.2470   31.1420   40.6840 C   0  0  0  0  0  3  0  0  0  0  0  0
   38.4860   30.4340   41.1170 H   0  0  0  0  0  0  0  0  0  0  0  0
   38.9360   32.4000   41.1360 O   0  0  0  0  0  0  0  0  0  0  0  0
   38.2110   33.1450   40.2390 C   0  0  0  0  0  2  0  0  0  0  0  0
   37.0530   32.4060   39.6030 C   0  0  0  0  0  2  0  0  0  0  0  0
  1  2  2  0  0  0  0
  1  6  1  0  0  0  0
  2  3  1  0  0  0  0
  3  8  1  0  0  0  0
  3  4  2  0  0  0  0
  5  4  1  0  0  0  0
  5 10  1  0  0  0  0
  6  5  2  0  0  0  0
  7  1  1  0  0  0  0
  9 14  1  6  0  0  0
  9 10  1  0  0  0  0
  9 13  1  0  0  0  0
 10 11  1  0  0  0  0
 10 15  1  1  0  0  0
 11 12  1  0  0  0  0
 12 16  1  0  0  0  0
 13 12  1  0  0  0  0
 13 18  1  1  0  0  0
 17 12  1  0  0  0  0
 19 20  1  0  0  0  0
 19  9  1  0  0  0  0
 21 13  1  0  0  0  0
 22 21  1  0  0  0  0
 23 25  1  0  0  0  0
 23 24  1  0  0  0  0
 23  2  1  0  0  0  0
 26 23  1  0  0  0  0
 27 32  1  0  0  0  0
 27 26  2  0  0  0  0
 28 27  1  0  0  0  0
 29 28  2  0  0  0  0
 29 30  1  0  0  0  0
 30 31  2  0  0  0  0
 31 26  1  0  0  0  0
 31 36  1  0  0  0  0
 33 28  1  0  0  0  0
 34 29  1  0  0  0  0
 35 30  1  0  0  0  0
 36 37  1  0  0  0  0
 36 43  1  0  0  0  0
 37 39  1  0  0  0  0
 38 37  1  0  0  0  0
 39 40  1  0  0  0  0
 39 41  1  0  0  0  0
 42 41  1  0  0  0  0
 43 42  1  0  0  0  0
M  END
>  <minimizedAffinity>
-5.82485294

$$$$

 OpenBabel03252503483D

 43 46  0  0  1  0  0  0  0  0999 V2000
   35.3940   28.9430   39.8890 C   0  0  0  0  0  0  0  0  0  0  0  0
   36.2690   29.9950   40.1630 C   0  0  0  0  0  0  0  0  0  0  0  0
   36.8100   30.6610   39.0640 C   0  0  0  0  0  0  0  0  0  0  0  0
   36.5000   30.3060   37.7950 N   0  0  0  0  0  0  0  0  0  0  0  0
   35.6450   29.2770   37.5750 C   0  0  0  0  0  0  0  0  0  0  0  0
   35.0880   28.5920   38.6160 N   0  0  0  0  0  0  0  0  0  0  0  0
   34.9230   28.3650   40.6600 H   0  0  0  0  0  0  0  0  0  0  0  0
   37.4960   31.4660   39.1240 H   0  0  0  0  0  0  0  0  0  0  0  0
   36.3720   29.5610   35.2150 C   0  0  2  0  0  0  0  0  0  0  0  0
   35.3340   28.9330   36.1910 C   0  0  1  0  0  0  0  0  0  0  0  0
   35.4860   27.6310   35.8530 O   0  0  0  0  0  0  0  0  0  0  0  0
   35.4900   27.5530   34.4880 C   0  0  0  0  0  0  0  0  0  0  0  0
   35.8370   28.9120   33.9300 C   0  0  2  0  0  0  0  0  0  0  0  0
   36.2670   30.6440   35.1970 H   0  0  0  0  0  0  0  0  0  0  0  0
   34.3180   29.2850   35.8740 H   0  0  0  0  0  0  0  0  0  0  0  0
   34.4790   27.2040   34.1290 H   0  0  0  0  0  0  0  0  0  0  0  0
   36.2200   26.8150   34.0770 H   0  0  0  0  0  0  0  0  0  0  0  0
   34.9220   29.3910   33.5650 H   0  0  0  0  0  0  0  0  0  0  0  0
   37.5970   29.0590   35.4480 O   0  0  0  0  0  0  0  0  0  0  0  0
   37.5750   28.1600   35.8490 H   0  0  0  0  0  0  0  0  0  0  0  0
   36.7720   28.8770   32.9240 O   0  0  0  0  0  0  0  0  0  0  0  0
   37.3250   28.0370   32.9850 H   0  0  0  0  0  0  0  0  0  0  0  0
   36.5860   30.3660   41.5250 C   0  0  0  0  0  0  0  0  0  0  0  0
   35.6150   30.5180   42.0690 H   0  0  0  0  0  0  0  0  0  0  0  0
   37.1110   31.3420   41.5100 H   0  0  0  0  0  0  0  0  0  0  0  0
   37.3700   29.3100   42.1780 C   0  0  0  0  0  0  0  0  0  0  0  0
   36.8690   28.2550   42.8890 C   0  0  0  0  0  0  0  0  0  0  0  0
   37.6670   27.3040   43.4790 C   0  0  0  0  0  0  0  0  0  0  0  0
   39.0290   27.4190   43.3520 C   0  0  0  0  0  0  0  0  0  0  0  0
   39.5750   28.4840   42.6340 C   0  0  0  0  0  0  0  0  0  0  0  0
   38.7370   29.4370   42.0420 C   0  0  0  0  0  0  0  0  0  0  0  0
   35.7830   28.2440   42.9370 H   0  0  0  0  0  0  0  0  0  0  0  0
   37.1260   26.5440   43.9980 H   0  0  0  0  0  0  0  0  0  0  0  0
   39.5950   26.6390   43.8420 H   0  0  0  0  0  0  0  0  0  0  0  0
   40.6550   28.4200   42.6350 H   0  0  0  0  0  0  0  0  0  0  0  0
   39.5640   30.3750   41.3670 N   0  0  0  0  0  0  0  0  0  0  0  0
   39.8780   31.7180   41.8240 C   0  0  0  0  0  3  0  0  0  0  0  0
   39.1940   32.0190   42.6530 H   0  0  0  0  0  0  0  0  0  0  0  0
   39.5380   32.6250   40.6460 C   0  0  0  0  0  3  0  0  0  0  0  0
   38.5010   32.3220   40.3270 H   0  0  0  0  0  0  0  0  0  0  0  0
   40.3780   32.3780   39.5890 O   0  0  0  0  0  0  0  0  0  0  0  0
   41.0480   31.1840   39.6850 C   0  0  0  0  0  2  0  0  0  0  0  0
   40.1810   30.0080   40.0820 C   0  0  0  0  0  2  0  0  0  0  0  0
  1  2  1  0  0  0  0
  1  7  1  0  0  0  0
  2 23  1  0  0  0  0
  3  8  1  0  0  0  0
  3  2  2  0  0  0  0
  4  3  1  0  0  0  0
  5  4  2  0  0  0  0
  5  6  1  0  0  0  0
  6  1  2  0  0  0  0
  9 14  1  6  0  0  0
  9 19  1  0  0  0  0
  9 10  1  0  0  0  0
 10 15  1  6  0  0  0
 10  5  1  0  0  0  0
 11 10  1  0  0  0  0
 12 11  1  0  0  0  0
 13 18  1  6  0  0  0
 13 12  1  0  0  0  0
 13  9  1  0  0  0  0
 16 12  1  0  0  0  0
 17 12  1  0  0  0  0
 19 20  1  0  0  0  0
 21 22  1  0  0  0  0
 21 13  1  0  0  0  0
 23 24  1  0  0  0  0
 23 26  1  0  0  0  0
 25 23  1  0  0  0  0
 26 27  1  0  0  0  0
 27 32  1  0  0  0  0
 27 28  2  0  0  0  0
 28 33  1  0  0  0  0
 29 28  1  0  0  0  0
 29 34  1  0  0  0  0
 30 35  1  0  0  0  0
 30 29  2  0  0  0  0
 31 26  2  0  0  0  0
 31 30  1  0  0  0  0
 36 37  1  0  0  0  0
 36 31  1  0  0  0  0
 37 38  1  0  0  0  0
 39 37  1  0  0  0  0
 40 39  1  0  0  0  0
 41 42  1  0  0  0  0
 41 39  1  0  0  0  0
 42 43  1  0  0  0  0
 43 36  1  0  0  0  0
M  END
>  <minimizedAffinity>
-5.82273531

$$$$

 OpenBabel03252503483D

 43 46  0  0  1  0  0  0  0  0999 V2000
   36.5370   30.0280   38.7930 C   0  0  0  0  0  0  0  0  0  0  0  0
   35.8200   29.8200   39.9720 C   0  0  0  0  0  0  0  0  0  0  0  0
   34.5570   29.2450   39.8430 C   0  0  0  0  0  0  0  0  0  0  0  0
   34.0520   28.9040   38.6330 N   0  0  0  0  0  0  0  0  0  0  0  0
   34.7830   29.1250   37.5130 C   0  0  0  0  0  0  0  0  0  0  0  0
   36.0260   29.6860   37.5850 N   0  0  0  0  0  0  0  0  0  0  0  0
   37.5180   30.4630   38.7800 H   0  0  0  0  0  0  0  0  0  0  0  0
   33.9000   29.0430   40.6490 H   0  0  0  0  0  0  0  0  0  0  0  0
   34.0630   27.1880   36.1320 C   0  0  2  0  0  0  0  0  0  0  0  0
   34.2030   28.7360   36.2320 C   0  0  1  0  0  0  0  0  0  0  0  0
   32.9080   29.0780   36.0380 O   0  0  0  0  0  0  0  0  0  0  0  0
   32.4410   28.3580   34.9740 C   0  0  0  0  0  0  0  0  0  0  0  0
   33.3320   27.1540   34.7820 C   0  0  2  0  0  0  0  0  0  0  0  0
   35.0450   26.7230   36.0740 H   0  0  0  0  0  0  0  0  0  0  0  0
   34.8150   29.0760   35.3560 H   0  0  0  0  0  0  0  0  0  0  0  0
   32.4260   29.0110   34.0540 H   0  0  0  0  0  0  0  0  0  0  0  0
   31.3920   27.9950   35.0950 H   0  0  0  0  0  0  0  0  0  0  0  0
   34.0000   27.3370   33.9350 H   0  0  0  0  0  0  0  0  0  0  0  0
   33.2140   26.7330   37.0700 O   0  0  0  0  0  0  0  0  0  0  0  0
   32.5540   27.4070   37.3510 H   0  0  0  0  0  0  0  0  0  0  0  0
   32.6440   25.9810   34.5810 O   0  0  0  0  0  0  0  0  0  0  0  0
   31.7120   26.0490   34.9580 H   0  0  0  0  0  0  0  0  0  0  0  0
   36.3750   30.1840   41.2570 C   0  0  0  0  0  0  0  0  0  0  0  0
   35.5210   30.4880   41.9200 H   0  0  0  0  0  0  0  0  0  0  0  0
   37.0200   31.0760   41.1220 H   0  0  0  0  0  0  0  0  0  0  0  0
   37.0950   29.0500   41.8490 C   0  0  0  0  0  0  0  0  0  0  0  0
   36.5290   27.9320   42.3970 C   0  0  0  0  0  0  0  0  0  0  0  0
   37.2680   26.9090   42.9400 C   0  0  0  0  0  0  0  0  0  0  0  0
   38.6370   27.0120   42.9340 C   0  0  0  0  0  0  0  0  0  0  0  0
   39.2490   28.1390   42.3830 C   0  0  0  0  0  0  0  0  0  0  0  0
   38.4690   29.1660   41.8350 C   0  0  0  0  0  0  0  0  0  0  0  0
   35.4420   27.9360   42.3590 H   0  0  0  0  0  0  0  0  0  0  0  0
   36.6800   26.1060   43.3270 H   0  0  0  0  0  0  0  0  0  0  0  0
   39.1550   26.1730   43.3780 H   0  0  0  0  0  0  0  0  0  0  0  0
   40.3250   28.0560   42.4610 H   0  0  0  0  0  0  0  0  0  0  0  0
   39.3570   30.1570   41.3360 N   0  0  0  0  0  0  0  0  0  0  0  0
   39.7080   31.3990   42.0010 C   0  0  0  0  0  3  0  0  0  0  0  0
   39.0080   31.6030   42.8470 H   0  0  0  0  0  0  0  0  0  0  0  0
   39.4460   32.4890   40.9660 C   0  0  0  0  0  3  0  0  0  0  0  0
   38.4090   32.2850   40.5760 H   0  0  0  0  0  0  0  0  0  0  0  0
   40.3110   32.3670   39.9080 O   0  0  0  0  0  0  0  0  0  0  0  0
   40.9300   31.1430   39.8400 C   0  0  0  0  0  2  0  0  0  0  0  0
   40.0030   29.9610   40.0280 C   0  0  0  0  0  2  0  0  0  0  0  0
  1  2  1  0  0  0  0
  2 23  1  0  0  0  0
  3  2  2  0  0  0  0
  3  8  1  0  0  0  0
  4  3  1  0  0  0  0
  5  6  1  0  0  0  0
  5  4  2  0  0  0  0
  6  1  2  0  0  0  0
  7  1  1  0  0  0  0
  9 14  1  6  0  0  0
  9 10  1  0  0  0  0
  9 19  1  0  0  0  0
 10 15  1  6  0  0  0
 10  5  1  0  0  0  0
 11 10  1  0  0  0  0
 12 17  1  0  0  0  0
 12 11  1  0  0  0  0
 13 18  1  6  0  0  0
 13 12  1  0  0  0  0
 13  9  1  0  0  0  0
 16 12  1  0  0  0  0
 19 20  1  0  0  0  0
 21 13  1  0  0  0  0
 21 22  1  0  0  0  0
 23 26  1  0  0  0  0
 23 24  1  0  0  0  0
 25 23  1  0  0  0  0
 26 27  1  0  0  0  0
 27 28  2  0  0  0  0
 28 33  1  0  0  0  0
 29 28  1  0  0  0  0
 29 34  1  0  0  0  0
 30 35  1  0  0  0  0
 30 29  2  0  0  0  0
 31 26  2  0  0  0  0
 31 30  1  0  0  0  0
 32 27  1  0  0  0  0
 36 31  1  0  0  0  0
 36 37  1  0  0  0  0
 37 38  1  0  0  0  0
 39 37  1  0  0  0  0
 40 39  1  0  0  0  0
 41 39  1  0  0  0  0
 42 41  1  0  0  0  0
 42 43  1  0  0  0  0
 43 36  1  0  0  0  0
M  END
>  <minimizedAffinity>
-5.41600609

$$$$
