
     RDKit          3D

 29 30  0  0  0  0  0  0  0  0999 V2000
   47.8430   34.7899   42.4154 C   0  0  0  0  0  0  0  0  0  0  0  0
   48.1092   33.5667   43.0712 C   0  0  0  0  0  0  0  0  0  0  0  0
   47.1777   33.1061   44.0186 C   0  0  0  0  0  0  0  0  0  0  0  0
   46.0824   33.8728   44.2378 N   0  0  0  0  0  0  0  0  0  0  0  0
   45.8435   35.0270   43.6107 C   0  0  0  0  0  0  0  0  0  0  0  0
   46.7317   35.4792   42.6984 N   0  0  0  0  0  0  0  0  0  0  0  0
   48.8399   35.2637   41.4145 C   0  0  0  0  0  0  0  0  0  0  0  0
   48.3810   35.1699   40.1378 F   0  0  0  0  0  0  0  0  0  0  0  0
   49.1943   36.5699   41.7343 F   0  0  0  0  0  0  0  0  0  0  0  0
   50.0235   34.5056   41.5773 F   0  0  0  0  0  0  0  0  0  0  0  0
   44.6248   35.8279   43.8902 C   0  0  0  0  0  0  0  0  0  0  0  0
   43.6383   35.5750   42.9797 F   0  0  0  0  0  0  0  0  0  0  0  0
   44.9365   37.2009   43.9221 F   0  0  0  0  0  0  0  0  0  0  0  0
   44.1163   35.5504   45.1450 F   0  0  0  0  0  0  0  0  0  0  0  0
   49.0060   33.0099   42.8432 H   0  0  0  0  0  0  0  0  0  0  0  0
   47.4017   31.8800   44.7051 N   0  0  0  0  0  0  0  0  0  0  0  0
   46.4463   30.8256   44.5724 C   0  0  2  0  0  0  0  0  0  0  0  0
   46.5136   30.4259   43.5217 H   0  0  0  0  0  0  0  0  0  0  0  0
   46.6827   29.6876   45.5122 C   0  0  2  0  0  0  0  0  0  0  0  0
   46.9711   28.7436   44.9701 H   0  0  0  0  0  0  0  0  0  0  0  0
   47.5814   29.9377   46.5260 O   0  0  0  0  0  0  0  0  0  0  0  0
   48.8085   30.3834   46.0453 C   0  0  0  0  0  0  0  0  0  0  0  0
   48.5972   31.7721   45.5062 C   0  0  0  0  0  0  0  0  0  0  0  0
   45.4151   31.2400   44.7272 H   0  0  0  0  0  0  0  0  0  0  0  0
   45.7177   29.4170   46.0290 H   0  0  0  0  0  0  0  0  0  0  0  0
   49.5147   30.4514   46.8940 H   0  0  0  0  0  0  0  0  0  0  0  0
   49.1880   29.7532   45.2042 H   0  0  0  0  0  0  0  0  0  0  0  0
   48.5084   32.5219   46.3263 H   0  0  0  0  0  0  0  0  0  0  0  0
   49.4584   32.0699   44.8593 H   0  0  0  0  0  0  0  0  0  0  0  0
  1  6  2  0
  1  2  1  0
  2  3  2  0
  3  4  1  0
  5 11  1  0
  5  4  2  0
  6  5  1  0
  7 10  1  0
  7  9  1  0
  7  1  1  0
  8  7  1  0
 11 13  1  0
 11 14  1  0
 12 11  1  0
  2 15  1  0
 16 17  1  0
 17 18  1  6
 17 19  1  0
 19 20  1  6
 19 21  1  0
 21 22  1  0
 22 23  1  0
 23 16  1  0
 17 24  1  0
 19 25  1  0
 22 26  1  0
 22 27  1  0
 23 28  1  0
 23 29  1  0
  3 16  1  0
M  ISO  3  15  14  18   8  20  15
M  END
>  <DihAtoms>  (1) 
1,2,15,16

>  <DihDeg>  (1) 
0.008620249646936017

$$$$
