REMARK  Name = 
REMARK  3 active torsions:
REMARK  status: ('A' for Active; 'I' for Inactive)
REMARK    1  A    between atoms: C_1  and  C_9
REMARK    2  A    between atoms: C_2  and  C_13
REMARK    3  A    between atoms: C_13  and  N_23
REMARK                            x       y       z     vdW  Elec       q    Type
REMARK                         _______ _______ _______ _____ _____    ______ ____
ROOT
ATOM      1  C   UNL     1      46.601  34.423  41.451  0.00  0.00    +0.000 A 
ATOM      2  C   UNL     1      47.886  34.907  41.242  0.00  0.00    +0.000 A 
ATOM      3  C   UNL     1      48.525  34.648  40.055  0.00  0.00    +0.000 A 
ATOM      4  C   UNL     1      47.888  33.912  39.089  0.00  0.00    +0.000 A 
ATOM      5  C   UNL     1      46.618  33.416  39.259  0.00  0.00    +0.000 A 
ATOM      6  C   UNL     1      45.997  33.701  40.482  0.00  0.00    +0.000 A 
ATOM      7  H   UNL     1      49.523  35.009  39.844  0.00  0.00    +0.000 HD
ATOM      8  H   UNL     1      48.378  33.703  38.157  0.00  0.00    +0.000 HD
ATOM      9  H   UNL     1      46.089  32.830  38.502  0.00  0.00    +0.000 HD
ATOM     10  H   UNL     1      44.982  33.310  40.632  0.00  0.00    +0.000 HD
ENDROOT
BRANCH   1  13
ATOM     11  C   UNL     1      44.693  36.062  44.269  0.00  0.00    +0.000 A 
ATOM     12  C   UNL     1      45.235  35.858  42.982  0.00  0.00    +0.000 A 
ATOM     13  C   UNL     1      45.991  34.731  42.729  0.00  0.00    +0.000 A 
ATOM     14  N   UNL     1      46.165  33.873  43.767  0.00  0.00    +0.000 NA
ATOM     15  C   UNL     1      45.656  34.054  44.996  0.00  0.00    +0.000 A 
ATOM     16  N   UNL     1      44.914  35.156  45.251  0.00  0.00    +0.000 NA
ATOM     17  H   UNL     1      44.112  36.941  44.438  0.00  0.00    +0.000 HD
ATOM     18  H   UNL     1      45.071  36.559  42.201  0.00  0.00    +0.000 HD
ATOM     19  H   UNL     1      45.858  33.298  45.761  0.00  0.00    +0.000 HD
ENDBRANCH   1  13
BRANCH   2  20
ATOM     20  C   UNL     1      48.561  35.723  42.295  0.00  0.00    +0.000 C 
ATOM     21  H   UNL     1      48.424  35.223  43.284  0.00  0.00    +0.000 HD
ATOM     22  H   UNL     1      48.046  36.704  42.307  0.00  0.00    +0.000 HD
BRANCH  20  23
ATOM     23  N   UNL     1      49.957  35.939  42.042  0.00  0.00    +0.000 NA
ATOM     24  C   UNL     1      50.646  35.165  43.100  0.00  0.00    +0.000 C 
ATOM     25  H   UNL     1      50.422  34.107  42.893  0.00  0.00    +0.000 HD
ATOM     26  C   UNL     1      52.110  35.511  42.981  0.00  0.00    +0.000 C 
ATOM     27  H   UNL     1      52.649  35.232  43.883  0.00  0.00    +0.000 HD
ATOM     28  O   UNL     1      52.580  34.966  41.806  0.00  0.00    +0.000 OA
ATOM     29  C   UNL     1      51.607  34.418  40.995  0.00  0.00    +0.000 C 
ATOM     30  C   UNL     1      50.379  35.252  40.812  0.00  0.00    +0.000 C 
ENDBRANCH  20  23
ENDBRANCH   2  20
TORSDOF 3
