
 OpenBabel03252507223D

 46 49  0  0  1  0  0  0  0  0999 V2000
   46.7470   33.1470   43.0370 C   0  0  0  0  0  0  0  0  0  0  0  0
   47.9970   33.1240   43.2280 O   0  0  0  0  0  0  0  0  0  0  0  0
   46.0890   32.3090   42.1020 N   0  0  0  0  0  0  0  0  0  0  0  0
   44.8470   31.5250   42.2320 C   0  0  0  0  0  0  0  0  0  0  0  0
   43.9230   31.8410   41.0720 C   0  0  0  0  0  0  0  0  0  0  0  0
   44.5480   31.4050   39.7730 C   0  0  0  0  0  0  0  0  0  0  0  0
   46.0110   31.0900   39.9990 C   0  0  0  0  0  0  0  0  0  0  0  0
   46.6870   32.1440   40.8030 C   0  0  2  0  0  0  0  0  0  0  0  0
   45.0640   30.4570   42.3460 H   0  0  0  0  0  0  0  0  0  0  0  0
   44.3280   31.9490   43.1400 H   0  0  0  0  0  0  0  0  0  0  0  0
   42.9210   31.4120   41.2570 H   0  0  0  0  0  0  0  0  0  0  0  0
   43.8550   32.9580   41.0200 H   0  0  0  0  0  0  0  0  0  0  0  0
   44.3820   32.1470   38.9630 H   0  0  0  0  0  0  0  0  0  0  0  0
   44.0340   30.4460   39.4810 H   0  0  0  0  0  0  0  0  0  0  0  0
   46.0360   30.1320   40.5800 H   0  0  0  0  0  0  0  0  0  0  0  0
   46.5270   30.8980   39.0510 H   0  0  0  0  0  0  0  0  0  0  0  0
   46.5120   33.1260   40.2580 H   0  0  0  0  0  0  0  0  0  0  0  0
   45.4910   35.2500   43.1680 C   0  0  0  0  0  0  0  0  0  0  0  0
   45.9540   34.0750   43.8140 C   0  0  0  0  0  0  0  0  0  0  0  0
   45.6420   33.8550   45.1350 C   0  0  0  0  0  0  0  0  0  0  0  0
   44.9000   34.7720   45.7770 N   0  0  0  0  0  0  0  0  0  0  0  0
   44.4430   35.9070   45.1800 C   0  0  0  0  0  0  0  0  0  0  0  0
   44.7530   36.1200   43.8770 N   0  0  0  0  0  0  0  0  0  0  0  0
   45.7110   35.4600   42.1410 H   0  0  0  0  0  0  0  0  0  0  0  0
   43.8620   36.5380   45.8350 H   0  0  0  0  0  0  0  0  0  0  0  0
   46.1360   32.6400   45.7730 C   0  0  0  0  0  0  0  0  0  0  0  0
   45.5940   31.4420   45.4590 C   0  0  0  0  0  0  0  0  0  0  0  0
   46.0800   30.2980   46.0740 C   0  0  0  0  0  0  0  0  0  0  0  0
   47.1070   30.3300   47.0050 C   0  0  0  0  0  0  0  0  0  0  0  0
   47.6210   31.5830   47.2850 C   0  0  0  0  0  0  0  0  0  0  0  0
   47.1370   32.6830   46.6790 N   0  0  0  0  0  0  0  0  0  0  0  0
   44.7940   31.2840   44.7530 H   0  0  0  0  0  0  0  0  0  0  0  0
   45.6950   29.3030   45.8680 H   0  0  0  0  0  0  0  0  0  0  0  0
   47.5200   29.4730   47.5120 H   0  0  0  0  0  0  0  0  0  0  0  0
   48.4370   31.7340   48.0010 H   0  0  0  0  0  0  0  0  0  0  0  0
   48.1550   31.8990   40.8400 C   0  0  0  0  0  0  0  0  0  0  0  0
   48.4330   30.8650   40.6500 H   0  0  0  0  0  0  0  0  0  0  0  0
   48.4850   32.1590   41.8920 H   0  0  0  0  0  0  0  0  0  0  0  0
   48.9330   32.7640   39.9820 N   0  0  0  0  0  0  0  0  0  0  0  0
   49.4640   32.0710   38.8690 C   0  0  0  0  0  3  0  0  0  0  0  0
   49.7540   31.0410   39.1070 H   0  0  0  0  0  0  0  0  0  0  0  0
   48.6060   32.1390   37.6150 C   0  0  0  0  0  3  0  0  0  0  0  0
   49.1940   31.6100   36.8250 H   0  0  0  0  0  0  0  0  0  0  0  0
   48.4740   33.4430   37.2130 O   0  0  0  0  0  0  0  0  0  0  0  0
   48.4300   34.3880   38.2070 C   0  0  0  0  0  2  0  0  0  0  0  0
   48.0670   33.8250   39.5510 C   0  0  0  0  0  2  0  0  0  0  0  0
  1  2  2  0  0  0  0
  1 19  1  0  0  0  0
  3  4  1  0  0  0  0
  3  1  1  0  0  0  0
  4  9  1  0  0  0  0
  4 10  1  0  0  0  0
  5 11  1  0  0  0  0
  5  4  1  0  0  0  0
  6  7  1  0  0  0  0
  6  5  1  0  0  0  0
  7 15  1  0  0  0  0
  7  8  1  0  0  0  0
  8 17  1  6  0  0  0
  8 36  1  0  0  0  0
  8  3  1  0  0  0  0
 12  5  1  0  0  0  0
 13  6  1  0  0  0  0
 14  6  1  0  0  0  0
 16  7  1  0  0  0  0
 18 19  2  0  0  0  0
 18 23  1  0  0  0  0
 19 20  1  0  0  0  0
 20 26  1  0  0  0  0
 20 21  2  0  0  0  0
 22 21  1  0  0  0  0
 22 25  1  0  0  0  0
 23 22  2  0  0  0  0
 24 18  1  0  0  0  0
 26 31  1  0  0  0  0
 27 26  2  0  0  0  0
 27 28  1  0  0  0  0
 28 29  2  0  0  0  0
 29 30  1  0  0  0  0
 29 34  1  0  0  0  0
 30 35  1  0  0  0  0
 31 30  2  0  0  0  0
 32 27  1  0  0  0  0
 33 28  1  0  0  0  0
 36 38  1  0  0  0  0
 37 36  1  0  0  0  0
 39 36  1  0  0  0  0
 40 41  1  0  0  0  0
 40 39  1  0  0  0  0
 42 40  1  0  0  0  0
 43 42  1  0  0  0  0
 44 42  1  0  0  0  0
 44 45  1  0  0  0  0
 45 46  1  0  0  0  0
 46 39  1  0  0  0  0
M  END
>  <minimizedAffinity>
-4.90818119

>  <minimizedRMSD>
1.49745798

$$$$
