
     RDKit          3D

 29 30  0  0  0  0  0  0  0  0999 V2000
   47.8430   34.7899   42.4154 C   0  0  0  0  0  0  0  0  0  0  0  0
   48.1092   33.5667   43.0712 C   0  0  0  0  0  0  0  0  0  0  0  0
   47.1777   33.1061   44.0186 C   0  0  0  0  0  0  0  0  0  0  0  0
   46.0824   33.8728   44.2378 N   0  0  0  0  0  0  0  0  0  0  0  0
   45.8435   35.0270   43.6107 C   0  0  0  0  0  0  0  0  0  0  0  0
   46.7317   35.4792   42.6984 N   0  0  0  0  0  0  0  0  0  0  0  0
   48.8399   35.2637   41.4145 C   0  0  0  0  0  0  0  0  0  0  0  0
   48.3810   35.1699   40.1378 F   0  0  0  0  0  0  0  0  0  0  0  0
   49.1943   36.5699   41.7343 F   0  0  0  0  0  0  0  0  0  0  0  0
   50.0235   34.5056   41.5773 F   0  0  0  0  0  0  0  0  0  0  0  0
   44.6248   35.8279   43.8902 C   0  0  0  0  0  0  0  0  0  0  0  0
   43.6383   35.5750   42.9797 F   0  0  0  0  0  0  0  0  0  0  0  0
   44.9365   37.2009   43.9221 F   0  0  0  0  0  0  0  0  0  0  0  0
   44.1163   35.5504   45.1450 F   0  0  0  0  0  0  0  0  0  0  0  0
   49.0060   33.0099   42.8432 H   0  0  0  0  0  0  0  0  0  0  0  0
   47.4017   31.8800   44.7051 N   0  0  0  0  0  0  0  0  0  0  0  0
   47.5182   30.6727   43.9495 C   0  0  2  0  0  0  0  0  0  0  0  0
   48.4909   30.7096   43.3832 H   0  0  0  0  0  0  0  0  0  0  0  0
   47.5264   29.4404   44.7955 C   0  0  2  0  0  0  0  0  0  0  0  0
   48.5165   28.9056   44.7551 H   0  0  0  0  0  0  0  0  0  0  0  0
   47.1474   29.6240   46.1073 O   0  0  0  0  0  0  0  0  0  0  0  0
   47.9001   30.6072   46.7414 C   0  0  0  0  0  0  0  0  0  0  0  0
   47.4993   31.9287   46.1441 C   0  0  0  0  0  0  0  0  0  0  0  0
   46.6790   30.6195   43.2067 H   0  0  0  0  0  0  0  0  0  0  0  0
   46.7973   28.6891   44.3767 H   0  0  0  0  0  0  0  0  0  0  0  0
   47.6279   30.6215   47.8134 H   0  0  0  0  0  0  0  0  0  0  0  0
   48.9963   30.4805   46.5657 H   0  0  0  0  0  0  0  0  0  0  0  0
   46.5088   32.2686   46.5263 H   0  0  0  0  0  0  0  0  0  0  0  0
   48.2541   32.7122   46.3995 H   0  0  0  0  0  0  0  0  0  0  0  0
  1  6  2  0
  1  2  1  0
  2  3  2  0
  3  4  1  0
  5 11  1  0
  5  4  2  0
  6  5  1  0
  7 10  1  0
  7  9  1  0
  7  1  1  0
  8  7  1  0
 11 13  1  0
 11 14  1  0
 12 11  1  0
  2 15  1  0
 16 17  1  0
 17 18  1  6
 17 19  1  0
 19 20  1  1
 19 21  1  0
 21 22  1  0
 22 23  1  0
 23 16  1  0
 17 24  1  0
 19 25  1  0
 22 26  1  0
 22 27  1  0
 23 28  1  0
 23 29  1  0
  3 16  1  0
M  ISO  3  15  14  18   8  20  15
M  END
>  <DihAtoms>  (1) 
1,2,15,16

>  <DihDeg>  (1) 
0.008620249646936017

$$$$
