
 OpenBabel03252503463D

 43 46  0  0  1  0  0  0  0  0999 V2000
   45.1340   34.7810   44.7870 C   0  0  0  0  0  0  0  0  0  0  0  0
   46.0560   34.5420   43.7680 C   0  0  0  0  0  0  0  0  0  0  0  0
   46.9150   33.4570   43.9440 C   0  0  0  0  0  0  0  0  0  0  0  0
   46.8540   32.6750   45.0480 N   0  0  0  0  0  0  0  0  0  0  0  0
   45.9420   32.9450   46.0130 C   0  0  0  0  0  0  0  0  0  0  0  0
   45.0790   33.9960   45.8900 N   0  0  0  0  0  0  0  0  0  0  0  0
   44.4290   35.5890   44.7520 H   0  0  0  0  0  0  0  0  0  0  0  0
   47.6710   33.1680   43.2600 H   0  0  0  0  0  0  0  0  0  0  0  0
   47.3470   31.7690   47.6930 C   0  0  2  0  0  0  0  0  0  0  0  0
   45.9070   32.0720   47.1820 C   0  0  1  0  0  0  0  0  0  0  0  0
   45.3910   32.6100   48.3110 O   0  0  0  0  0  0  0  0  0  0  0  0
   45.7440   31.8030   49.3570 C   0  0  0  0  0  0  0  0  0  0  0  0
   46.9390   30.9760   48.9440 C   0  0  2  0  0  0  0  0  0  0  0  0
   47.8800   31.1470   46.9750 H   0  0  0  0  0  0  0  0  0  0  0  0
   45.4090   31.0890   46.9750 H   0  0  0  0  0  0  0  0  0  0  0  0
   44.8690   31.1510   49.6410 H   0  0  0  0  0  0  0  0  0  0  0  0
   46.0140   32.3570   50.2880 H   0  0  0  0  0  0  0  0  0  0  0  0
   46.6040   29.9610   48.7100 H   0  0  0  0  0  0  0  0  0  0  0  0
   47.9470   32.9000   48.1010 O   0  0  0  0  0  0  0  0  0  0  0  0
   47.3080   33.5900   48.3940 H   0  0  0  0  0  0  0  0  0  0  0  0
   47.9340   30.9280   49.8890 O   0  0  0  0  0  0  0  0  0  0  0  0
   47.8730   31.7210   50.5070 H   0  0  0  0  0  0  0  0  0  0  0  0
   46.1050   35.3830   42.5920 C   0  0  0  0  0  0  0  0  0  0  0  0
   47.0730   35.1670   42.0630 H   0  0  0  0  0  0  0  0  0  0  0  0
   46.1380   36.4420   42.9190 H   0  0  0  0  0  0  0  0  0  0  0  0
   44.9700   35.0980   41.7060 C   0  0  0  0  0  0  0  0  0  0  0  0
   43.7230   35.6510   41.7890 C   0  0  0  0  0  0  0  0  0  0  0  0
   42.7030   35.3310   40.9250 C   0  0  0  0  0  0  0  0  0  0  0  0
   42.9470   34.4130   39.9320 C   0  0  0  0  0  0  0  0  0  0  0  0
   44.2100   33.8290   39.8180 C   0  0  0  0  0  0  0  0  0  0  0  0
   45.2290   34.1760   40.7130 C   0  0  0  0  0  0  0  0  0  0  0  0
   43.6200   36.3650   42.6030 H   0  0  0  0  0  0  0  0  0  0  0  0
   41.7890   35.8470   41.1200 H   0  0  0  0  0  0  0  0  0  0  0  0
   42.1020   34.2080   39.2900 H   0  0  0  0  0  0  0  0  0  0  0  0
   44.2260   33.1350   38.9890 H   0  0  0  0  0  0  0  0  0  0  0  0
   46.3910   33.4480   40.3410 N   0  0  0  0  0  0  0  0  0  0  0  0
   46.5460   32.0050   40.3890 C   0  0  0  0  0  3  0  0  0  0  0  0
   45.7240   31.5430   40.9890 H   0  0  0  0  0  0  0  0  0  0  0  0
   47.8280   31.7720   41.1820 C   0  0  0  0  0  3  0  0  0  0  0  0
   47.7220   32.4010   42.1100 H   0  0  0  0  0  0  0  0  0  0  0  0
   48.9140   32.2470   40.4910 O   0  0  0  0  0  0  0  0  0  0  0  0
   48.5890   33.1110   39.4760 C   0  0  0  0  0  2  0  0  0  0  0  0
   47.5780   34.1740   39.8590 C   0  0  0  0  0  2  0  0  0  0  0  0
  1  6  1  0  0  0  0
  2  3  1  0  0  0  0
  2  1  2  0  0  0  0
  3  4  2  0  0  0  0
  4  5  1  0  0  0  0
  5 10  1  0  0  0  0
  6  5  2  0  0  0  0
  7  1  1  0  0  0  0
  8  3  1  0  0  0  0
  9 14  1  6  0  0  0
  9 19  1  0  0  0  0
  9 13  1  0  0  0  0
 10 15  1  6  0  0  0
 10  9  1  0  0  0  0
 10 11  1  0  0  0  0
 11 12  1  0  0  0  0
 12 16  1  0  0  0  0
 12 17  1  0  0  0  0
 13 18  1  6  0  0  0
 13 12  1  0  0  0  0
 13 21  1  0  0  0  0
 19 20  1  0  0  0  0
 21 22  1  0  0  0  0
 23 25  1  0  0  0  0
 23  2  1  0  0  0  0
 24 23  1  0  0  0  0
 26 27  1  0  0  0  0
 26 23  1  0  0  0  0
 27 32  1  0  0  0  0
 28 33  1  0  0  0  0
 28 27  2  0  0  0  0
 29 28  1  0  0  0  0
 30 29  2  0  0  0  0
 30 31  1  0  0  0  0
 31 26  2  0  0  0  0
 34 29  1  0  0  0  0
 35 30  1  0  0  0  0
 36 37  1  0  0  0  0
 36 31  1  0  0  0  0
 37 38  1  0  0  0  0
 37 39  1  0  0  0  0
 39 40  1  0  0  0  0
 41 39  1  0  0  0  0
 42 43  1  0  0  0  0
 42 41  1  0  0  0  0
 43 36  1  0  0  0  0
M  END
>  <minimizedAffinity>
-6.87039566

>  <minimizedRMSD>
0.522290766

$$$$
