
 OpenBabel03242512323D

 37 39  0  0  1  0  0  0  0  0999 V2000
   38.6680   28.4740   41.4920 C   0  0  1  0  0  0  0  0  0  0  0  0
   38.0700   29.2450   42.6710 C   0  0  0  0  0  0  0  0  0  0  0  0
   37.5310   28.2770   43.6770 C   0  0  0  0  0  0  0  0  0  0  0  0
   36.5640   27.3540   43.0130 C   0  0  0  0  0  0  0  0  0  0  0  0
   37.1820   26.6300   41.8610 C   0  0  0  0  0  0  0  0  0  0  0  0
   37.5450   27.7130   40.8010 C   0  0  2  0  0  0  0  0  0  0  0  0
   39.3870   27.7360   41.8250 H   0  0  0  0  0  0  0  0  0  0  0  0
   37.2170   29.8330   42.2330 H   0  0  0  0  0  0  0  0  0  0  0  0
   38.8020   29.9050   43.1310 H   0  0  0  0  0  0  0  0  0  0  0  0
   37.0250   28.8310   44.4900 H   0  0  0  0  0  0  0  0  0  0  0  0
   38.3610   27.6370   44.0580 H   0  0  0  0  0  0  0  0  0  0  0  0
   35.6530   27.8770   42.6480 H   0  0  0  0  0  0  0  0  0  0  0  0
   36.2170   26.6150   43.7760 H   0  0  0  0  0  0  0  0  0  0  0  0
   38.0850   26.0950   42.1640 H   0  0  0  0  0  0  0  0  0  0  0  0
   36.3890   26.0050   41.4290 H   0  0  0  0  0  0  0  0  0  0  0  0
   36.6640   28.3860   40.8000 H   0  0  0  0  0  0  0  0  0  0  0  0
   37.7510   27.1550   39.5490 N   0  0  1  0  0  0  0  0  0  0  0  0
   38.3510   25.8930   39.3950 C   0  0  0  0  0  3  0  0  0  0  0  0
   38.9470   25.6540   40.3170 H   0  0  0  0  0  0  0  0  0  0  0  0
   37.4260   24.7630   39.0360 C   0  0  0  0  0  3  0  0  0  0  0  0
   36.7730   24.4130   39.8300 H   0  0  0  0  0  0  0  0  0  0  0  0
   36.7440   25.1450   37.8830 O   0  0  0  0  0  0  0  0  0  0  0  0
   35.9150   26.1880   38.2060 C   0  0  0  0  0  2  0  0  0  0  0  0
   36.6220   27.4120   38.6900 C   0  0  0  0  0  2  0  0  0  0  0  0
   39.2850   29.4770   40.5890 C   0  0  0  0  0  0  0  0  0  0  0  0
   40.4240   29.1160   40.1840 O   0  0  0  0  0  0  0  0  0  0  0  0
   38.4450   33.0040   40.6460 C   0  0  0  0  0  0  0  0  0  0  0  0
   37.4680   33.1320   39.6420 C   0  0  0  0  0  0  0  0  0  0  0  0
   37.0980   31.9760   38.9240 C   0  0  0  0  0  0  0  0  0  0  0  0
   37.7310   30.8470   39.2810 N   0  0  0  0  0  0  0  0  0  0  0  0
   38.6450   30.7220   40.2190 C   0  0  0  0  0  0  0  0  0  0  0  0
   39.0200   31.8140   40.9260 N   0  0  0  0  0  0  0  0  0  0  0  0
   38.8200   34.1600   41.3690 N   0  0  0  0  0  0  0  0  0  0  0  0
   37.0240   34.0950   39.4400 H   0  0  0  0  0  0  0  0  0  0  0  0
   36.3590   32.0500   38.1590 H   0  0  0  0  0  0  0  0  0  0  0  0
   39.7580   34.1960   41.8040 H   0  0  0  0  0  0  0  0  0  0  0  0
   38.1720   34.9640   41.4650 H   0  0  0  0  0  0  0  0  0  0  0  0
  1  7  1  1  0  0  0
  1  2  1  0  0  0  0
  2  9  1  0  0  0  0
  2  3  1  0  0  0  0
  3 11  1  0  0  0  0
  3 10  1  0  0  0  0
  4  3  1  0  0  0  0
  4 13  1  0  0  0  0
  5 14  1  0  0  0  0
  5  4  1  0  0  0  0
  6 16  1  6  0  0  0
  6  1  1  0  0  0  0
  6  5  1  0  0  0  0
  8  2  1  0  0  0  0
 12  4  1  0  0  0  0
 15  5  1  0  0  0  0
 17 24  1  1  0  0  0
 17  6  1  0  0  0  0
 18 17  1  0  0  0  0
 18 19  1  0  0  0  0
 20 18  1  0  0  0  0
 20 21  1  0  0  0  0
 22 23  1  0  0  0  0
 22 20  1  0  0  0  0
 23 24  1  0  0  0  0
 25  1  1  0  0  0  0
 26 25  2  0  0  0  0
 27 32  1  0  0  0  0
 27 33  1  0  0  0  0
 28 27  2  0  0  0  0
 29 30  2  0  0  0  0
 29 28  1  0  0  0  0
 30 31  1  0  0  0  0
 31 25  1  0  0  0  0
 31 32  2  0  0  0  0
 33 37  1  0  0  0  0
 33 36  1  0  0  0  0
 34 28  1  0  0  0  0
 35 29  1  0  0  0  0
M  END
>  <minimizedAffinity>
-5.43808126

$$$$

 OpenBabel03242512323D

 37 39  0  0  1  0  0  0  0  0999 V2000
   38.3500   27.1820   42.0360 C   0  0  1  0  0  0  0  0  0  0  0  0
   38.8200   27.3760   43.4800 C   0  0  0  0  0  0  0  0  0  0  0  0
   40.1210   26.6610   43.6790 C   0  0  0  0  0  0  0  0  0  0  0  0
   39.9680   25.2290   43.2850 C   0  0  0  0  0  0  0  0  0  0  0  0
   39.4960   25.0840   41.8760 C   0  0  0  0  0  0  0  0  0  0  0  0
   38.0670   25.7020   41.8210 C   0  0  2  0  0  0  0  0  0  0  0  0
   39.1190   27.4600   41.3270 H   0  0  0  0  0  0  0  0  0  0  0  0
   38.0310   26.8850   44.1130 H   0  0  0  0  0  0  0  0  0  0  0  0
   38.9220   28.4290   43.7300 H   0  0  0  0  0  0  0  0  0  0  0  0
   40.4220   26.7300   44.7410 H   0  0  0  0  0  0  0  0  0  0  0  0
   40.8890   27.0930   42.9960 H   0  0  0  0  0  0  0  0  0  0  0  0
   39.2680   24.6750   43.9470 H   0  0  0  0  0  0  0  0  0  0  0  0
   40.9650   24.7360   43.3980 H   0  0  0  0  0  0  0  0  0  0  0  0
   40.1510   25.6110   41.1780 H   0  0  0  0  0  0  0  0  0  0  0  0
   39.3910   24.0050   41.6960 H   0  0  0  0  0  0  0  0  0  0  0  0
   37.5860   25.3350   42.7510 H   0  0  0  0  0  0  0  0  0  0  0  0
   37.3700   25.2830   40.6980 N   0  0  1  0  0  0  0  0  0  0  0  0
   37.9350   25.3500   39.4130 C   0  0  0  0  0  3  0  0  0  0  0  0
   38.7650   26.1070   39.4150 H   0  0  0  0  0  0  0  0  0  0  0  0
   38.3920   24.0430   38.8260 C   0  0  0  0  0  3  0  0  0  0  0  0
   39.2940   23.6180   39.2560 H   0  0  0  0  0  0  0  0  0  0  0  0
   37.3000   23.1800   38.8550 O   0  0  0  0  0  0  0  0  0  0  0  0
   37.0190   22.8950   40.1660 C   0  0  0  0  0  2  0  0  0  0  0  0
   36.6270   24.0810   40.9850 C   0  0  0  0  0  2  0  0  0  0  0  0
   37.1250   28.0030   41.8690 C   0  0  0  0  0  0  0  0  0  0  0  0
   36.2720   27.7770   42.7700 O   0  0  0  0  0  0  0  0  0  0  0  0
   36.8400   31.2040   40.1890 C   0  0  0  0  0  0  0  0  0  0  0  0
   36.5630   30.8580   38.8540 C   0  0  0  0  0  0  0  0  0  0  0  0
   36.4820   29.4900   38.5250 C   0  0  0  0  0  0  0  0  0  0  0  0
   36.6820   28.6380   39.5450 N   0  0  0  0  0  0  0  0  0  0  0  0
   36.9400   28.9560   40.7940 C   0  0  0  0  0  0  0  0  0  0  0  0
   37.0240   30.2620   41.1400 N   0  0  0  0  0  0  0  0  0  0  0  0
   36.9220   32.5760   40.5240 N   0  0  0  0  0  0  0  0  0  0  0  0
   36.4200   31.6320   38.1140 H   0  0  0  0  0  0  0  0  0  0  0  0
   36.2740   29.2050   37.5190 H   0  0  0  0  0  0  0  0  0  0  0  0
   37.4850   32.8570   41.3450 H   0  0  0  0  0  0  0  0  0  0  0  0
   36.4300   33.2930   39.9620 H   0  0  0  0  0  0  0  0  0  0  0  0
  1  7  1  6  0  0  0
  1  2  1  0  0  0  0
  2  3  1  0  0  0  0
  2  9  1  0  0  0  0
  2  8  1  0  0  0  0
  3 10  1  0  0  0  0
  4 13  1  0  0  0  0
  4  3  1  0  0  0  0
  4 12  1  0  0  0  0
  5  4  1  0  0  0  0
  6  5  1  0  0  0  0
  6  1  1  0  0  0  0
  6 16  1  1  0  0  0
 11  3  1  0  0  0  0
 14  5  1  0  0  0  0
 15  5  1  0  0  0  0
 17 24  1  1  0  0  0
 17  6  1  0  0  0  0
 18 19  1  0  0  0  0
 18 17  1  0  0  0  0
 20 22  1  0  0  0  0
 20 21  1  0  0  0  0
 20 18  1  0  0  0  0
 22 23  1  0  0  0  0
 23 24  1  0  0  0  0
 25  1  1  0  0  0  0
 25 26  2  0  0  0  0
 27 33  1  0  0  0  0
 27 32  1  0  0  0  0
 28 27  2  0  0  0  0
 29 28  1  0  0  0  0
 29 30  2  0  0  0  0
 30 31  1  0  0  0  0
 31 32  2  0  0  0  0
 31 25  1  0  0  0  0
 33 36  1  0  0  0  0
 34 28  1  0  0  0  0
 35 29  1  0  0  0  0
 37 33  1  0  0  0  0
M  END
>  <minimizedAffinity>
-5.43315172

$$$$

 OpenBabel03242512323D

 37 39  0  0  1  0  0  0  0  0999 V2000
   36.2820   30.3600   39.4910 C   0  0  1  0  0  0  0  0  0  0  0  0
   36.7580   31.5770   40.2880 C   0  0  0  0  0  0  0  0  0  0  0  0
   37.1850   32.6560   39.3420 C   0  0  0  0  0  0  0  0  0  0  0  0
   38.2110   32.1170   38.4010 C   0  0  0  0  0  0  0  0  0  0  0  0
   37.7120   30.9240   37.6530 C   0  0  0  0  0  0  0  0  0  0  0  0
   37.4670   29.8070   38.7120 C   0  0  2  0  0  0  0  0  0  0  0  0
   35.5280   30.6330   38.7640 H   0  0  0  0  0  0  0  0  0  0  0  0
   37.6550   31.2170   40.8630 H   0  0  0  0  0  0  0  0  0  0  0  0
   35.9850   31.9430   40.9600 H   0  0  0  0  0  0  0  0  0  0  0  0
   37.6060   33.5040   39.9130 H   0  0  0  0  0  0  0  0  0  0  0  0
   36.3160   32.9620   38.7140 H   0  0  0  0  0  0  0  0  0  0  0  0
   39.1570   31.8370   38.9130 H   0  0  0  0  0  0  0  0  0  0  0  0
   38.4720   32.9280   37.6790 H   0  0  0  0  0  0  0  0  0  0  0  0
   36.7800   31.1430   37.1270 H   0  0  0  0  0  0  0  0  0  0  0  0
   38.5420   30.5910   37.0160 H   0  0  0  0  0  0  0  0  0  0  0  0
   38.3470   29.8830   39.3820 H   0  0  0  0  0  0  0  0  0  0  0  0
   37.3890   28.5540   38.1250 N   0  0  1  0  0  0  0  0  0  0  0  0
   36.6910   28.3440   36.9230 C   0  0  0  0  0  3  0  0  0  0  0  0
   35.9460   29.1730   36.7820 H   0  0  0  0  0  0  0  0  0  0  0  0
   37.5380   28.1580   35.6940 C   0  0  0  0  0  3  0  0  0  0  0  0
   38.0280   29.0490   35.3140 H   0  0  0  0  0  0  0  0  0  0  0  0
   38.4160   27.1100   35.9600 O   0  0  0  0  0  0  0  0  0  0  0  0
   39.2930   27.5250   36.9290 C   0  0  0  0  0  2  0  0  0  0  0  0
   38.6520   27.8660   38.2350 C   0  0  0  0  0  2  0  0  0  0  0  0
   35.7670   29.3760   40.4750 C   0  0  0  0  0  0  0  0  0  0  0  0
   34.5350   29.1550   40.3280 O   0  0  0  0  0  0  0  0  0  0  0  0
   37.4460   26.7390   42.3140 C   0  0  0  0  0  0  0  0  0  0  0  0
   38.0970   27.4200   43.3580 C   0  0  0  0  0  0  0  0  0  0  0  0
   37.9600   28.8220   43.4230 C   0  0  0  0  0  0  0  0  0  0  0  0
   37.2050   29.3740   42.4590 N   0  0  0  0  0  0  0  0  0  0  0  0
   36.5950   28.7420   41.4820 C   0  0  0  0  0  0  0  0  0  0  0  0
   36.7070   27.3950   41.3930 N   0  0  0  0  0  0  0  0  0  0  0  0
   37.5810   25.3320   42.2440 N   0  0  0  0  0  0  0  0  0  0  0  0
   38.6810   26.8710   44.0810 H   0  0  0  0  0  0  0  0  0  0  0  0
   38.4450   29.3590   44.2070 H   0  0  0  0  0  0  0  0  0  0  0  0
   37.4670   24.8640   41.3280 H   0  0  0  0  0  0  0  0  0  0  0  0
   37.7890   24.7730   43.0900 H   0  0  0  0  0  0  0  0  0  0  0  0
  1  7  1  6  0  0  0
  1  2  1  0  0  0  0
  1 25  1  0  0  0  0
  2  8  1  0  0  0  0
  2  9  1  0  0  0  0
  3 10  1  0  0  0  0
  3  2  1  0  0  0  0
  4 12  1  0  0  0  0
  4  3  1  0  0  0  0
  5  4  1  0  0  0  0
  5  6  1  0  0  0  0
  6 16  1  1  0  0  0
  6  1  1  0  0  0  0
 11  3  1  0  0  0  0
 13  4  1  0  0  0  0
 14  5  1  0  0  0  0
 15  5  1  0  0  0  0
 17 24  1  6  0  0  0
 17  6  1  0  0  0  0
 18 17  1  0  0  0  0
 19 18  1  0  0  0  0
 20 22  1  0  0  0  0
 20 18  1  0  0  0  0
 21 20  1  0  0  0  0
 22 23  1  0  0  0  0
 23 24  1  0  0  0  0
 25 31  1  0  0  0  0
 26 25  2  0  0  0  0
 27 28  1  0  0  0  0
 28 29  2  0  0  0  0
 28 34  1  0  0  0  0
 29 35  1  0  0  0  0
 30 29  1  0  0  0  0
 31 30  2  0  0  0  0
 32 31  1  0  0  0  0
 32 27  2  0  0  0  0
 33 27  1  0  0  0  0
 33 37  1  0  0  0  0
 36 33  1  0  0  0  0
M  END
>  <minimizedAffinity>
-5.30869913

$$$$

 OpenBabel03242512323D

 37 39  0  0  1  0  0  0  0  0999 V2000
   37.7820   30.3240   38.7090 C   0  0  1  0  0  0  0  0  0  0  0  0
   37.0270   29.8310   37.4720 C   0  0  0  0  0  0  0  0  0  0  0  0
   35.5830   29.6350   37.8150 C   0  0  0  0  0  0  0  0  0  0  0  0
   35.4700   28.7220   38.9900 C   0  0  0  0  0  0  0  0  0  0  0  0
   36.2290   29.2320   40.1710 C   0  0  0  0  0  0  0  0  0  0  0  0
   37.7340   29.2290   39.7660 C   0  0  2  0  0  0  0  0  0  0  0  0
   37.3080   31.1970   39.1410 H   0  0  0  0  0  0  0  0  0  0  0  0
   37.4860   28.8330   37.2290 H   0  0  0  0  0  0  0  0  0  0  0  0
   37.1310   30.5210   36.6380 H   0  0  0  0  0  0  0  0  0  0  0  0
   35.0530   29.2010   36.9470 H   0  0  0  0  0  0  0  0  0  0  0  0
   35.1430   30.6090   38.1330 H   0  0  0  0  0  0  0  0  0  0  0  0
   35.8210   27.6910   38.7680 H   0  0  0  0  0  0  0  0  0  0  0  0
   34.3870   28.6350   39.2520 H   0  0  0  0  0  0  0  0  0  0  0  0
   35.9210   30.2460   40.4360 H   0  0  0  0  0  0  0  0  0  0  0  0
   36.1050   28.4820   40.9640 H   0  0  0  0  0  0  0  0  0  0  0  0
   37.8590   28.2680   39.2270 H   0  0  0  0  0  0  0  0  0  0  0  0
   38.5630   29.2950   40.8740 N   0  0  1  0  0  0  0  0  0  0  0  0
   38.1330   29.8690   42.0830 C   0  0  0  0  0  3  0  0  0  0  0  0
   37.2720   30.5600   41.8760 H   0  0  0  0  0  0  0  0  0  0  0  0
   37.8030   28.9050   43.1890 C   0  0  0  0  0  3  0  0  0  0  0  0
   36.8830   28.3400   43.0700 H   0  0  0  0  0  0  0  0  0  0  0  0
   38.9260   28.1040   43.3790 O   0  0  0  0  0  0  0  0  0  0  0  0
   39.0830   27.3190   42.2660 C   0  0  0  0  0  2  0  0  0  0  0  0
   39.3290   28.0800   41.0040 C   0  0  0  0  0  2  0  0  0  0  0  0
   39.1740   30.6090   38.2800 C   0  0  0  0  0  0  0  0  0  0  0  0
   39.6780   29.6520   37.6310 O   0  0  0  0  0  0  0  0  0  0  0  0
   41.4060   33.4310   37.8330 C   0  0  0  0  0  0  0  0  0  0  0  0
   41.2660   34.1610   39.0270 C   0  0  0  0  0  0  0  0  0  0  0  0
   40.3750   33.6730   40.0050 C   0  0  0  0  0  0  0  0  0  0  0  0
   39.7360   32.5340   39.6860 N   0  0  0  0  0  0  0  0  0  0  0  0
   39.8640   31.8480   38.5720 C   0  0  0  0  0  0  0  0  0  0  0  0
   40.7130   32.2930   37.6150 N   0  0  0  0  0  0  0  0  0  0  0  0
   42.2990   33.9180   36.8500 N   0  0  0  0  0  0  0  0  0  0  0  0
   41.8330   35.0680   39.1760 H   0  0  0  0  0  0  0  0  0  0  0  0
   40.2530   34.2100   40.9170 H   0  0  0  0  0  0  0  0  0  0  0  0
   42.1430   33.6590   35.8610 H   0  0  0  0  0  0  0  0  0  0  0  0
   43.0980   34.5250   37.1080 H   0  0  0  0  0  0  0  0  0  0  0  0
  1  7  1  1  0  0  0
  1  6  1  0  0  0  0
  2  3  1  0  0  0  0
  2  1  1  0  0  0  0
  3 11  1  0  0  0  0
  3  4  1  0  0  0  0
  4 13  1  0  0  0  0
  4  5  1  0  0  0  0
  5 14  1  0  0  0  0
  5 15  1  0  0  0  0
  6 16  1  6  0  0  0
  6  5  1  0  0  0  0
  6 17  1  0  0  0  0
  8  2  1  0  0  0  0
  9  2  1  0  0  0  0
 10  3  1  0  0  0  0
 12  4  1  0  0  0  0
 17 24  1  1  0  0  0
 17 18  1  0  0  0  0
 18 20  1  0  0  0  0
 19 18  1  0  0  0  0
 20 22  1  0  0  0  0
 21 20  1  0  0  0  0
 23 22  1  0  0  0  0
 24 23  1  0  0  0  0
 25 31  1  0  0  0  0
 25  1  1  0  0  0  0
 26 25  2  0  0  0  0
 27 28  1  0  0  0  0
 28 34  1  0  0  0  0
 28 29  2  0  0  0  0
 29 35  1  0  0  0  0
 30 29  1  0  0  0  0
 31 30  2  0  0  0  0
 32 27  2  0  0  0  0
 32 31  1  0  0  0  0
 33 37  1  0  0  0  0
 33 27  1  0  0  0  0
 36 33  1  0  0  0  0
M  END
>  <minimizedAffinity>
-5.29076576

$$$$

 OpenBabel03242512323D

 37 39  0  0  1  0  0  0  0  0999 V2000
   36.4880   29.0340   38.8920 C   0  0  1  0  0  0  0  0  0  0  0  0
   35.3510   28.7390   37.9100 C   0  0  0  0  0  0  0  0  0  0  0  0
   35.8810   28.7730   36.5110 C   0  0  0  0  0  0  0  0  0  0  0  0
   36.5600   30.0800   36.2670 C   0  0  0  0  0  0  0  0  0  0  0  0
   37.6530   30.3360   37.2520 C   0  0  0  0  0  0  0  0  0  0  0  0
   36.9720   30.4560   38.6490 C   0  0  2  0  0  0  0  0  0  0  0  0
   37.3360   28.3820   38.7250 H   0  0  0  0  0  0  0  0  0  0  0  0
   34.6200   29.5830   38.0470 H   0  0  0  0  0  0  0  0  0  0  0  0
   34.8820   27.7800   38.1170 H   0  0  0  0  0  0  0  0  0  0  0  0
   35.0470   28.6430   35.7960 H   0  0  0  0  0  0  0  0  0  0  0  0
   36.6640   27.9880   36.3920 H   0  0  0  0  0  0  0  0  0  0  0  0
   35.8570   30.9410   36.2940 H   0  0  0  0  0  0  0  0  0  0  0  0
   36.9860   30.0560   35.2340 H   0  0  0  0  0  0  0  0  0  0  0  0
   38.3780   29.5180   37.2660 H   0  0  0  0  0  0  0  0  0  0  0  0
   38.0660   31.3230   37.0050 H   0  0  0  0  0  0  0  0  0  0  0  0
   36.0670   31.0660   38.4480 H   0  0  0  0  0  0  0  0  0  0  0  0
   37.8010   31.0770   39.5700 N   0  0  1  0  0  0  0  0  0  0  0  0
   39.1850   31.1910   39.3570 C   0  0  0  0  0  3  0  0  0  0  0  0
   39.5090   30.4090   38.6180 H   0  0  0  0  0  0  0  0  0  0  0  0
   39.6800   32.5540   38.9600 C   0  0  0  0  0  3  0  0  0  0  0  0
   39.4460   32.8680   37.9460 H   0  0  0  0  0  0  0  0  0  0  0  0
   39.2420   33.4470   39.9340 O   0  0  0  0  0  0  0  0  0  0  0  0
   37.8760   33.5320   39.8490 C   0  0  0  0  0  2  0  0  0  0  0  0
   37.1600   32.2480   40.1160 C   0  0  0  0  0  2  0  0  0  0  0  0
   35.9300   28.8730   40.2580 C   0  0  0  0  0  0  0  0  0  0  0  0
   34.7150   29.2060   40.3200 O   0  0  0  0  0  0  0  0  0  0  0  0
   37.6920   26.5360   42.3990 C   0  0  0  0  0  0  0  0  0  0  0  0
   38.1120   27.3270   43.4840 C   0  0  0  0  0  0  0  0  0  0  0  0
   37.7880   28.6990   43.4710 C   0  0  0  0  0  0  0  0  0  0  0  0
   37.0950   29.1180   42.3990 N   0  0  0  0  0  0  0  0  0  0  0  0
   36.6990   28.3840   41.3840 C   0  0  0  0  0  0  0  0  0  0  0  0
   36.9960   27.0620   41.3680 N   0  0  0  0  0  0  0  0  0  0  0  0
   38.0150   25.1590   42.4080 N   0  0  0  0  0  0  0  0  0  0  0  0
   38.6670   26.8800   44.2960 H   0  0  0  0  0  0  0  0  0  0  0  0
   38.0970   29.3170   44.2830 H   0  0  0  0  0  0  0  0  0  0  0  0
   38.0790   24.6550   41.5060 H   0  0  0  0  0  0  0  0  0  0  0  0
   38.1860   24.6560   43.2970 H   0  0  0  0  0  0  0  0  0  0  0  0
  1  7  1  6  0  0  0
  1 25  1  0  0  0  0
  2  8  1  0  0  0  0
  2  9  1  0  0  0  0
  2  1  1  0  0  0  0
  3  2  1  0  0  0  0
  4 12  1  0  0  0  0
  4  3  1  0  0  0  0
  4  5  1  0  0  0  0
  5 14  1  0  0  0  0
  5  6  1  0  0  0  0
  6 16  1  6  0  0  0
  6  1  1  0  0  0  0
  6 17  1  0  0  0  0
 10  3  1  0  0  0  0
 11  3  1  0  0  0  0
 13  4  1  0  0  0  0
 15  5  1  0  0  0  0
 17 24  1  6  0  0  0
 18 17  1  0  0  0  0
 19 18  1  0  0  0  0
 20 18  1  0  0  0  0
 20 22  1  0  0  0  0
 21 20  1  0  0  0  0
 23 22  1  0  0  0  0
 23 24  1  0  0  0  0
 25 26  2  0  0  0  0
 25 31  1  0  0  0  0
 27 33  1  0  0  0  0
 27 28  1  0  0  0  0
 28 34  1  0  0  0  0
 29 28  2  0  0  0  0
 29 35  1  0  0  0  0
 30 29  1  0  0  0  0
 31 30  2  0  0  0  0
 32 31  1  0  0  0  0
 32 27  2  0  0  0  0
 33 37  1  0  0  0  0
 36 33  1  0  0  0  0
M  END
>  <minimizedAffinity>
-5.25286674

$$$$

 OpenBabel03242512323D

 37 39  0  0  1  0  0  0  0  0999 V2000
   38.8030   27.9880   41.2650 C   0  0  1  0  0  0  0  0  0  0  0  0
   38.2310   29.2330   41.9460 C   0  0  0  0  0  0  0  0  0  0  0  0
   37.7720   28.8780   43.3260 C   0  0  0  0  0  0  0  0  0  0  0  0
   36.8100   27.7380   43.2540 C   0  0  0  0  0  0  0  0  0  0  0  0
   37.4030   26.5490   42.5720 C   0  0  0  0  0  0  0  0  0  0  0  0
   37.6800   26.9750   41.0990 C   0  0  2  0  0  0  0  0  0  0  0  0
   39.5630   27.5160   41.8750 H   0  0  0  0  0  0  0  0  0  0  0  0
   37.3380   29.5220   41.3260 H   0  0  0  0  0  0  0  0  0  0  0  0
   38.9580   30.0400   41.9830 H   0  0  0  0  0  0  0  0  0  0  0  0
   37.2830   29.7550   43.7910 H   0  0  0  0  0  0  0  0  0  0  0  0
   38.6400   28.5160   43.9240 H   0  0  0  0  0  0  0  0  0  0  0  0
   35.8660   28.0060   42.7320 H   0  0  0  0  0  0  0  0  0  0  0  0
   36.5250   27.4650   44.3000 H   0  0  0  0  0  0  0  0  0  0  0  0
   38.3370   26.2400   43.0470 H   0  0  0  0  0  0  0  0  0  0  0  0
   36.6140   25.7840   42.5470 H   0  0  0  0  0  0  0  0  0  0  0  0
   36.7750   27.5520   40.8180 H   0  0  0  0  0  0  0  0  0  0  0  0
   37.8500   25.8760   40.2710 N   0  0  1  0  0  0  0  0  0  0  0  0
   38.7240   24.8280   40.6090 C   0  0  0  0  0  3  0  0  0  0  0  0
   39.4790   25.2030   41.3510 H   0  0  0  0  0  0  0  0  0  0  0  0
   38.0750   23.5580   41.0870 C   0  0  0  0  0  3  0  0  0  0  0  0
   37.6450   23.5900   42.0840 H   0  0  0  0  0  0  0  0  0  0  0  0
   37.1700   23.1680   40.1030 O   0  0  0  0  0  0  0  0  0  0  0  0
   36.1550   24.0880   40.0690 C   0  0  0  0  0  2  0  0  0  0  0  0
   36.5870   25.4710   39.7040 C   0  0  0  0  0  2  0  0  0  0  0  0
   39.3440   28.4250   39.9540 C   0  0  0  0  0  0  0  0  0  0  0  0
   40.4660   27.9070   39.7030 O   0  0  0  0  0  0  0  0  0  0  0  0
   38.8300   31.1950   37.6700 C   0  0  0  0  0  0  0  0  0  0  0  0
   37.4500   31.1570   37.4030 C   0  0  0  0  0  0  0  0  0  0  0  0
   36.6810   30.1480   38.0180 C   0  0  0  0  0  0  0  0  0  0  0  0
   37.3630   29.3070   38.8140 N   0  0  0  0  0  0  0  0  0  0  0  0
   38.6520   29.3380   39.0670 C   0  0  0  0  0  0  0  0  0  0  0  0
   39.4160   30.2960   38.4910 N   0  0  0  0  0  0  0  0  0  0  0  0
   39.6060   32.2050   37.0550 N   0  0  0  0  0  0  0  0  0  0  0  0
   37.0070   31.8880   36.7430 H   0  0  0  0  0  0  0  0  0  0  0  0
   35.6330   30.1010   37.8290 H   0  0  0  0  0  0  0  0  0  0  0  0
   40.6160   32.0400   36.9060 H   0  0  0  0  0  0  0  0  0  0  0  0
   39.1770   33.1000   36.7550 H   0  0  0  0  0  0  0  0  0  0  0  0
  1  7  1  1  0  0  0
  1  2  1  0  0  0  0
  2  9  1  0  0  0  0
  2  3  1  0  0  0  0
  3 10  1  0  0  0  0
  3 11  1  0  0  0  0
  4  3  1  0  0  0  0
  4 13  1  0  0  0  0
  5 14  1  0  0  0  0
  5  4  1  0  0  0  0
  6 16  1  6  0  0  0
  6  1  1  0  0  0  0
  6  5  1  0  0  0  0
  8  2  1  0  0  0  0
 12  4  1  0  0  0  0
 15  5  1  0  0  0  0
 17 24  1  1  0  0  0
 17 18  1  0  0  0  0
 17  6  1  0  0  0  0
 18 20  1  0  0  0  0
 18 19  1  0  0  0  0
 20 21  1  0  0  0  0
 22 20  1  0  0  0  0
 23 22  1  0  0  0  0
 24 23  1  0  0  0  0
 25  1  1  0  0  0  0
 26 25  2  0  0  0  0
 27 32  1  0  0  0  0
 28 27  2  0  0  0  0
 28 29  1  0  0  0  0
 29 30  2  0  0  0  0
 30 31  1  0  0  0  0
 31 25  1  0  0  0  0
 32 31  2  0  0  0  0
 33 27  1  0  0  0  0
 34 28  1  0  0  0  0
 35 29  1  0  0  0  0
 36 33  1  0  0  0  0
 37 33  1  0  0  0  0
M  END
>  <minimizedAffinity>
-5.24463844

$$$$

 OpenBabel03242512323D

 37 39  0  0  1  0  0  0  0  0999 V2000
   37.7700   29.2790   41.3040 C   0  0  1  0  0  0  0  0  0  0  0  0
   37.4050   29.1550   42.7850 C   0  0  0  0  0  0  0  0  0  0  0  0
   37.7400   27.7770   43.2660 C   0  0  0  0  0  0  0  0  0  0  0  0
   37.0670   26.7680   42.3960 C   0  0  0  0  0  0  0  0  0  0  0  0
   37.4400   26.9310   40.9590 C   0  0  0  0  0  0  0  0  0  0  0  0
   36.8920   28.3200   40.5130 C   0  0  2  0  0  0  0  0  0  0  0  0
   38.7970   28.9850   41.1230 H   0  0  0  0  0  0  0  0  0  0  0  0
   36.2890   29.2960   42.8240 H   0  0  0  0  0  0  0  0  0  0  0  0
   37.9140   29.9030   43.3880 H   0  0  0  0  0  0  0  0  0  0  0  0
   37.4010   27.6580   44.3130 H   0  0  0  0  0  0  0  0  0  0  0  0
   38.8350   27.6030   43.1570 H   0  0  0  0  0  0  0  0  0  0  0  0
   35.9590   26.8040   42.4760 H   0  0  0  0  0  0  0  0  0  0  0  0
   37.3750   25.7530   42.7490 H   0  0  0  0  0  0  0  0  0  0  0  0
   38.5230   26.9020   40.8210 H   0  0  0  0  0  0  0  0  0  0  0  0
   36.8770   26.1670   40.4060 H   0  0  0  0  0  0  0  0  0  0  0  0
   35.8840   28.3650   40.9740 H   0  0  0  0  0  0  0  0  0  0  0  0
   36.8170   28.4220   39.1330 N   0  0  1  0  0  0  0  0  0  0  0  0
   37.6740   27.6910   38.2930 C   0  0  0  0  0  3  0  0  0  0  0  0
   38.5890   27.3910   38.8720 H   0  0  0  0  0  0  0  0  0  0  0  0
   37.0600   26.5090   37.5940 C   0  0  0  0  0  3  0  0  0  0  0  0
   36.8500   25.6450   38.2170 H   0  0  0  0  0  0  0  0  0  0  0  0
   35.9480   26.9790   36.9000 O   0  0  0  0  0  0  0  0  0  0  0  0
   35.0080   27.3700   37.8180 C   0  0  0  0  0  2  0  0  0  0  0  0
   35.4410   28.4900   38.7060 C   0  0  0  0  0  2  0  0  0  0  0  0
   37.5250   30.6900   40.9170 C   0  0  0  0  0  0  0  0  0  0  0  0
   36.3450   31.0560   41.1690 O   0  0  0  0  0  0  0  0  0  0  0  0
   39.5640   32.2510   38.3570 C   0  0  0  0  0  0  0  0  0  0  0  0
   40.4370   33.0810   39.0830 C   0  0  0  0  0  0  0  0  0  0  0  0
   40.3130   33.1090   40.4870 C   0  0  0  0  0  0  0  0  0  0  0  0
   39.3510   32.3220   40.9980 N   0  0  0  0  0  0  0  0  0  0  0  0
   38.5330   31.5440   40.3240 C   0  0  0  0  0  0  0  0  0  0  0  0
   38.6290   31.4960   38.9730 N   0  0  0  0  0  0  0  0  0  0  0  0
   39.6840   32.2200   36.9480 N   0  0  0  0  0  0  0  0  0  0  0  0
   41.1760   33.6740   38.5650 H   0  0  0  0  0  0  0  0  0  0  0  0
   40.9640   33.7310   41.0580 H   0  0  0  0  0  0  0  0  0  0  0  0
   38.8590   31.9590   36.3810 H   0  0  0  0  0  0  0  0  0  0  0  0
   40.5810   32.4540   36.4830 H   0  0  0  0  0  0  0  0  0  0  0  0
  1  7  1  6  0  0  0
  1  2  1  0  0  0  0
  2  8  1  0  0  0  0
  2  3  1  0  0  0  0
  2  9  1  0  0  0  0
  3 10  1  0  0  0  0
  4 12  1  0  0  0  0
  4 13  1  0  0  0  0
  4  3  1  0  0  0  0
  5  4  1  0  0  0  0
  6  5  1  0  0  0  0
  6 16  1  1  0  0  0
  6  1  1  0  0  0  0
 11  3  1  0  0  0  0
 14  5  1  0  0  0  0
 15  5  1  0  0  0  0
 17 24  1  6  0  0  0
 17  6  1  0  0  0  0
 18 19  1  0  0  0  0
 18 17  1  0  0  0  0
 20 21  1  0  0  0  0
 20 18  1  0  0  0  0
 22 20  1  0  0  0  0
 22 23  1  0  0  0  0
 23 24  1  0  0  0  0
 25 26  2  0  0  0  0
 25  1  1  0  0  0  0
 27 32  2  0  0  0  0
 27 28  1  0  0  0  0
 28 29  2  0  0  0  0
 29 30  1  0  0  0  0
 29 35  1  0  0  0  0
 31 25  1  0  0  0  0
 31 30  2  0  0  0  0
 32 31  1  0  0  0  0
 33 27  1  0  0  0  0
 34 28  1  0  0  0  0
 36 33  1  0  0  0  0
 37 33  1  0  0  0  0
M  END
>  <minimizedAffinity>
-5.23236084

$$$$

 OpenBabel03242512323D

 37 39  0  0  1  0  0  0  0  0999 V2000
   37.3520   30.0700   38.8410 C   0  0  1  0  0  0  0  0  0  0  0  0
   36.6270   29.5910   37.5810 C   0  0  0  0  0  0  0  0  0  0  0  0
   35.1910   29.3190   37.9070 C   0  0  0  0  0  0  0  0  0  0  0  0
   35.1120   28.3580   39.0460 C   0  0  0  0  0  0  0  0  0  0  0  0
   35.8420   28.8560   40.2510 C   0  0  0  0  0  0  0  0  0  0  0  0
   37.3480   28.9350   39.8550 C   0  0  2  0  0  0  0  0  0  0  0  0
   36.8390   30.9040   39.3020 H   0  0  0  0  0  0  0  0  0  0  0  0
   37.1300   28.6240   37.3030 H   0  0  0  0  0  0  0  0  0  0  0  0
   36.7040   30.3170   36.7750 H   0  0  0  0  0  0  0  0  0  0  0  0
   34.6840   28.8950   37.0200 H   0  0  0  0  0  0  0  0  0  0  0  0
   34.7070   30.2600   38.2590 H   0  0  0  0  0  0  0  0  0  0  0  0
   35.5100   27.3520   38.7870 H   0  0  0  0  0  0  0  0  0  0  0  0
   34.0330   28.2130   39.2970 H   0  0  0  0  0  0  0  0  0  0  0  0
   35.4890   29.8450   40.5520 H   0  0  0  0  0  0  0  0  0  0  0  0
   35.7480   28.0720   41.0140 H   0  0  0  0  0  0  0  0  0  0  0  0
   37.5180   28.0010   39.2820 H   0  0  0  0  0  0  0  0  0  0  0  0
   38.1680   28.9950   40.9710 N   0  0  1  0  0  0  0  0  0  0  0  0
   37.7160   29.5320   42.1890 C   0  0  0  0  0  3  0  0  0  0  0  0
   36.8410   30.2080   41.9910 H   0  0  0  0  0  0  0  0  0  0  0  0
   37.4020   28.5360   43.2710 C   0  0  0  0  0  3  0  0  0  0  0  0
   36.4950   27.9530   43.1320 H   0  0  0  0  0  0  0  0  0  0  0  0
   38.5420   27.7570   43.4510 O   0  0  0  0  0  0  0  0  0  0  0  0
   38.7240   27.0010   42.3220 C   0  0  0  0  0  2  0  0  0  0  0  0
   38.9610   27.7960   41.0800 C   0  0  0  0  0  2  0  0  0  0  0  0
   38.7320   30.4320   38.4320 C   0  0  0  0  0  0  0  0  0  0  0  0
   39.2620   29.5480   37.7050 O   0  0  0  0  0  0  0  0  0  0  0  0
   39.3980   33.4710   40.2940 C   0  0  0  0  0  0  0  0  0  0  0  0
   40.5070   34.0320   39.6350 C   0  0  0  0  0  0  0  0  0  0  0  0
   41.0420   33.3410   38.5280 C   0  0  0  0  0  0  0  0  0  0  0  0
   40.4220   32.1920   38.2110 N   0  0  0  0  0  0  0  0  0  0  0  0
   39.3860   31.6640   38.8230 C   0  0  0  0  0  0  0  0  0  0  0  0
   38.8500   32.3050   39.8890 N   0  0  0  0  0  0  0  0  0  0  0  0
   38.8580   34.1610   41.4050 N   0  0  0  0  0  0  0  0  0  0  0  0
   40.9250   34.9670   39.9790 H   0  0  0  0  0  0  0  0  0  0  0  0
   41.8820   33.7480   38.0140 H   0  0  0  0  0  0  0  0  0  0  0  0
   38.3390   33.6260   42.1210 H   0  0  0  0  0  0  0  0  0  0  0  0
   38.9770   35.1860   41.5060 H   0  0  0  0  0  0  0  0  0  0  0  0
  1  7  1  1  0  0  0
  1  6  1  0  0  0  0
  2  3  1  0  0  0  0
  2  1  1  0  0  0  0
  3 11  1  0  0  0  0
  3  4  1  0  0  0  0
  4 13  1  0  0  0  0
  4  5  1  0  0  0  0
  5 14  1  0  0  0  0
  5 15  1  0  0  0  0
  6 16  1  6  0  0  0
  6  5  1  0  0  0  0
  6 17  1  0  0  0  0
  8  2  1  0  0  0  0
  9  2  1  0  0  0  0
 10  3  1  0  0  0  0
 12  4  1  0  0  0  0
 17 24  1  1  0  0  0
 17 18  1  0  0  0  0
 18 20  1  0  0  0  0
 19 18  1  0  0  0  0
 20 22  1  0  0  0  0
 21 20  1  0  0  0  0
 23 22  1  0  0  0  0
 24 23  1  0  0  0  0
 25 31  1  0  0  0  0
 25  1  1  0  0  0  0
 26 25  2  0  0  0  0
 27 33  1  0  0  0  0
 28 34  1  0  0  0  0
 28 27  2  0  0  0  0
 29 28  1  0  0  0  0
 30 29  2  0  0  0  0
 30 31  1  0  0  0  0
 31 32  2  0  0  0  0
 32 27  1  0  0  0  0
 33 37  1  0  0  0  0
 33 36  1  0  0  0  0
 35 29  1  0  0  0  0
M  END
>  <minimizedAffinity>
-5.23014927

$$$$

 OpenBabel03242512323D

 37 39  0  0  1  0  0  0  0  0999 V2000
   37.3650   28.5360   40.9930 C   0  0  1  0  0  0  0  0  0  0  0  0
   35.8560   28.7890   40.9870 C   0  0  0  0  0  0  0  0  0  0  0  0
   35.4180   29.1510   39.6020 C   0  0  0  0  0  0  0  0  0  0  0  0
   36.2220   30.3090   39.1110 C   0  0  0  0  0  0  0  0  0  0  0  0
   37.6890   30.0260   39.1450 C   0  0  0  0  0  0  0  0  0  0  0  0
   38.0700   29.8390   40.6440 C   0  0  2  0  0  0  0  0  0  0  0  0
   37.6500   27.8140   40.2370 H   0  0  0  0  0  0  0  0  0  0  0  0
   35.7060   29.6750   41.6630 H   0  0  0  0  0  0  0  0  0  0  0  0
   35.3030   27.9250   41.3480 H   0  0  0  0  0  0  0  0  0  0  0  0
   34.3440   29.4150   39.6110 H   0  0  0  0  0  0  0  0  0  0  0  0
   35.6370   28.3040   38.9110 H   0  0  0  0  0  0  0  0  0  0  0  0
   36.0320   31.2390   39.6900 H   0  0  0  0  0  0  0  0  0  0  0  0
   35.9070   30.5230   38.0610 H   0  0  0  0  0  0  0  0  0  0  0  0
   37.9330   29.1190   38.5870 H   0  0  0  0  0  0  0  0  0  0  0  0
   38.1860   30.9400   38.7940 H   0  0  0  0  0  0  0  0  0  0  0  0
   37.5100   30.6460   41.1600 H   0  0  0  0  0  0  0  0  0  0  0  0
   39.4350   29.9670   40.8450 N   0  0  1  0  0  0  0  0  0  0  0  0
   40.3600   29.6750   39.8280 C   0  0  0  0  0  3  0  0  0  0  0  0
   39.8770   28.9940   39.0760 H   0  0  0  0  0  0  0  0  0  0  0  0
   40.9990   30.8610   39.1580 C   0  0  0  0  0  3  0  0  0  0  0  0
   40.3610   31.4280   38.4860 H   0  0  0  0  0  0  0  0  0  0  0  0
   41.5760   31.6340   40.1620 O   0  0  0  0  0  0  0  0  0  0  0  0
   40.5670   32.1640   40.9240 C   0  0  0  0  0  2  0  0  0  0  0  0
   39.7220   31.1480   41.6220 C   0  0  0  0  0  2  0  0  0  0  0  0
   37.7190   28.0710   42.3580 C   0  0  0  0  0  0  0  0  0  0  0  0
   37.3000   28.8560   43.2520 O   0  0  0  0  0  0  0  0  0  0  0  0
   38.5970   24.5540   42.2670 C   0  0  0  0  0  0  0  0  0  0  0  0
   39.7370   24.4720   43.0870 C   0  0  0  0  0  0  0  0  0  0  0  0
   40.2180   25.6590   43.6760 C   0  0  0  0  0  0  0  0  0  0  0  0
   39.5220   26.7710   43.3870 N   0  0  0  0  0  0  0  0  0  0  0  0
   38.4560   26.8530   42.6230 C   0  0  0  0  0  0  0  0  0  0  0  0
   37.9700   25.7290   42.0430 N   0  0  0  0  0  0  0  0  0  0  0  0
   38.1110   23.3660   41.6730 N   0  0  0  0  0  0  0  0  0  0  0  0
   40.2180   23.5190   43.2490 H   0  0  0  0  0  0  0  0  0  0  0  0
   41.0810   25.6200   44.3010 H   0  0  0  0  0  0  0  0  0  0  0  0
   37.5600   23.4330   40.7990 H   0  0  0  0  0  0  0  0  0  0  0  0
   38.2980   22.4400   42.0980 H   0  0  0  0  0  0  0  0  0  0  0  0
  1  7  1  6  0  0  0
  1 25  1  0  0  0  0
  2  1  1  0  0  0  0
  2  9  1  0  0  0  0
  2  8  1  0  0  0  0
  3 10  1  0  0  0  0
  3  2  1  0  0  0  0
  4  5  1  0  0  0  0
  4  3  1  0  0  0  0
  4 12  1  0  0  0  0
  5  6  1  0  0  0  0
  6 17  1  0  0  0  0
  6  1  1  0  0  0  0
  6 16  1  1  0  0  0
 11  3  1  0  0  0  0
 13  4  1  0  0  0  0
 14  5  1  0  0  0  0
 15  5  1  0  0  0  0
 17 24  1  6  0  0  0
 18 17  1  0  0  0  0
 19 18  1  0  0  0  0
 20 18  1  0  0  0  0
 20 22  1  0  0  0  0
 21 20  1  0  0  0  0
 22 23  1  0  0  0  0
 23 24  1  0  0  0  0
 25 31  1  0  0  0  0
 25 26  2  0  0  0  0
 27 28  1  0  0  0  0
 28 34  1  0  0  0  0
 28 29  2  0  0  0  0
 29 35  1  0  0  0  0
 30 29  1  0  0  0  0
 31 30  2  0  0  0  0
 32 27  2  0  0  0  0
 32 31  1  0  0  0  0
 33 37  1  0  0  0  0
 33 27  1  0  0  0  0
 36 33  1  0  0  0  0
M  END
>  <minimizedAffinity>
-5.17195845

$$$$
