REMARK  Name = 
REMARK  4 active torsions:
REMARK  status: ('A' for Active; 'I' for Inactive)
REMARK    1  A    between atoms: C_1  and  C_10
REMARK    2  A    between atoms: C_8  and  C_21
REMARK    3  A    between atoms: C_11  and  C_15
REMARK    4  A    between atoms: C_21  and  N_39
REMARK                            x       y       z     vdW  Elec       q    Type
REMARK                         _______ _______ _______ _____ _____    ______ ____
ROOT
ATOM      1  C   UNL     1      47.328  33.626  42.842  0.00  0.00    +0.000 C 
ATOM      2  O   UNL     1      48.421  33.404  43.439  0.00  0.00    +0.000 OA
ATOM      3  N   UNL     1      47.035  33.127  41.548  0.00  0.00    +0.000 N 
ATOM      4  C   UNL     1      45.811  32.494  41.025  0.00  0.00    +0.000 C 
ATOM      5  C   UNL     1      45.384  33.192  39.748  0.00  0.00    +0.000 C 
ATOM      6  C   UNL     1      46.428  33.010  38.679  0.00  0.00    +0.000 C 
ATOM      7  C   UNL     1      47.698  32.472  39.302  0.00  0.00    +0.000 C 
ATOM      8  C   UNL     1      48.062  33.208  40.543  0.00  0.00    +0.000 C 
ATOM      9  H   UNL     1      45.942  31.412  40.914  0.00  0.00    +0.000 HD
ATOM     10  H   UNL     1      45.008  32.746  41.776  0.00  0.00    +0.000 HD
ATOM     11  H   UNL     1      44.372  32.858  39.453  0.00  0.00    +0.000 HD
ATOM     12  H   UNL     1      45.370  34.288  39.980  0.00  0.00    +0.000 HD
ATOM     13  H   UNL     1      46.590  33.940  38.094  0.00  0.00    +0.000 HD
ATOM     14  H   UNL     1      46.031  32.221  37.980  0.00  0.00    +0.000 HD
ATOM     15  H   UNL     1      47.483  31.406  39.574  0.00  0.00    +0.000 HD
ATOM     16  H   UNL     1      48.520  32.452  38.577  0.00  0.00    +0.000 HD
ATOM     17  H   UNL     1      48.125  34.307  40.258  0.00  0.00    +0.000 HD
ENDROOT
BRANCH   1  19
ATOM     18  C   UNL     1      45.961  35.661  42.920  0.00  0.00    +0.000 A 
ATOM     19  C   UNL     1      46.332  34.429  43.517  0.00  0.00    +0.000 A 
ATOM     20  C   UNL     1      45.745  34.040  44.698  0.00  0.00    +0.000 A 
ATOM     21  N   UNL     1      44.829  34.850  45.253  0.00  0.00    +0.000 NA
ATOM     22  C   UNL     1      44.455  36.037  44.700  0.00  0.00    +0.000 A 
ATOM     23  N   UNL     1      45.036  36.417  43.535  0.00  0.00    +0.000 NA
ATOM     24  H   UNL     1      46.393  36.002  42.001  0.00  0.00    +0.000 HD
ATOM     25  H   UNL     1      43.709  36.566  45.272  0.00  0.00    +0.000 HD
BRANCH  20  26
ATOM     26  C   UNL     1      46.150  32.771  45.291  0.00  0.00    +0.000 A 
ATOM     27  C   UNL     1      45.770  31.605  44.721  0.00  0.00    +0.000 A 
ATOM     28  C   UNL     1      46.168  30.409  45.297  0.00  0.00    +0.000 A 
ATOM     29  C   UNL     1      46.947  30.355  46.443  0.00  0.00    +0.000 A 
ATOM     30  C   UNL     1      47.305  31.578  46.980  0.00  0.00    +0.000 A 
ATOM     31  N   UNL     1      46.909  32.730  46.408  0.00  0.00    +0.000 NA
ATOM     32  H   UNL     1      45.167  31.513  43.831  0.00  0.00    +0.000 HD
ATOM     33  H   UNL     1      45.903  29.436  44.892  0.00  0.00    +0.000 HD
ATOM     34  H   UNL     1      47.283  29.454  46.931  0.00  0.00    +0.000 HD
ATOM     35  H   UNL     1      47.922  31.663  47.882  0.00  0.00    +0.000 HD
ENDBRANCH  20  26
ENDBRANCH   1  19
BRANCH   8  36
ATOM     36  C   UNL     1      49.408  32.783  41.017  0.00  0.00    +0.000 C 
ATOM     37  H   UNL     1      49.413  31.816  41.516  0.00  0.00    +0.000 HD
ATOM     38  H   UNL     1      49.730  33.564  41.772  0.00  0.00    +0.000 HD
BRANCH  36  39
ATOM     39  N   UNL     1      50.438  32.798  40.003  0.00  0.00    +0.000 NA
ATOM     40  C   UNL     1      51.491  31.901  40.301  0.00  0.00    +0.000 C 
ATOM     41  H   UNL     1      51.704  31.837  41.374  0.00  0.00    +0.000 HD
ATOM     42  C   UNL     1      51.345  30.525  39.671  0.00  0.00    +0.000 C 
ATOM     43  H   UNL     1      52.279  29.974  39.942  0.00  0.00    +0.000 HD
ATOM     44  O   UNL     1      51.329  30.639  38.304  0.00  0.00    +0.000 OA
ATOM     45  C   UNL     1      50.739  31.768  37.793  0.00  0.00    +0.000 C 
ATOM     46  C   UNL     1      49.814  32.450  38.759  0.00  0.00    +0.000 C 
ENDBRANCH  36  39
ENDBRANCH   8  36
TORSDOF 4
