REMARK  Name = 
REMARK  4 active torsions:
REMARK  status: ('A' for Active; 'I' for Inactive)
REMARK    1  A    between atoms: C_1  and  C_6
REMARK    2  A    between atoms: C_1  and  C_8
REMARK    3  A    between atoms: C_8  and  C_9
REMARK    4  A    between atoms: C_14  and  N_26
REMARK                            x       y       z     vdW  Elec       q    Type
REMARK                         _______ _______ _______ _____ _____    ______ ____
ROOT
ATOM      1  C   UNL     1      46.213  32.042  47.429  0.00  0.00    +0.000 A 
ATOM      2  C   UNL     1      45.841  32.265  48.727  0.00  0.00    +0.000 A 
ATOM      3  C   UNL     1      45.230  31.358  49.537  0.00  0.00    +0.000 A 
ATOM      4  C   UNL     1      44.974  30.131  48.995  0.00  0.00    +0.000 A 
ATOM      5  C   UNL     1      45.336  29.855  47.676  0.00  0.00    +0.000 A 
ATOM      6  C   UNL     1      45.964  30.815  46.880  0.00  0.00    +0.000 A 
ATOM      7  H   UNL     1      46.109  33.288  49.021  0.00  0.00    +0.000 HD
ATOM      8  H   UNL     1      45.032  31.755  50.518  0.00  0.00    +0.000 HD
ATOM      9  H   UNL     1      44.477  29.498  49.754  0.00  0.00    +0.000 HD
ATOM     10  H   UNL     1      45.007  28.812  47.534  0.00  0.00    +0.000 HD
ENDROOT
BRANCH   6  11
ATOM     11  N   UNL     1      46.110  30.036  45.677  0.00  0.00    +0.000 N 
ATOM     12  C   UNL     1      47.013  29.087  45.056  0.00  0.00    +0.000 C 
ATOM     13  H   UNL     1      47.719  28.631  45.794  0.00  0.00    +0.000 HD
ATOM     14  C   UNL     1      46.252  27.996  44.389  0.00  0.00    +0.000 C 
ATOM     15  H   UNL     1      46.818  27.573  43.502  0.00  0.00    +0.000 HD
ATOM     16  O   UNL     1      44.996  28.312  43.936  0.00  0.00    +0.000 OA
ATOM     17  C   UNL     1      44.930  29.660  43.584  0.00  0.00    +0.000 C 
ATOM     18  C   UNL     1      44.913  30.411  44.900  0.00  0.00    +0.000 C 
ENDBRANCH   6  11
BRANCH   1  19
ATOM     19  C   UNL     1      46.849  32.937  46.440  0.00  0.00    +0.000 C 
ATOM     20  H   UNL     1      47.952  32.744  46.420  0.00  0.00    +0.000 HD
ATOM     21  H   UNL     1      46.704  33.959  46.768  0.00  0.00    +0.000 HD
BRANCH  19  22
ATOM     22  C   UNL     1      46.350  32.674  45.036  0.00  0.00    +0.000 C 
ATOM     23  H   UNL     1      45.340  32.170  45.220  0.00  0.00    +0.000 HD
ATOM     24  H   UNL     1      47.031  32.140  44.411  0.00  0.00    +0.000 HD
BRANCH  22  29
ATOM     25  C   UNL     1      44.566  35.859  44.611  0.00  0.00    +0.000 A 
ATOM     26  C   UNL     1      45.021  36.297  43.343  0.00  0.00    +0.000 A 
ATOM     27  C   UNL     1      45.952  35.472  42.690  0.00  0.00    +0.000 A 
ATOM     28  N   UNL     1      46.365  34.337  43.267  0.00  0.00    +0.000 NA
ATOM     29  C   UNL     1      45.882  33.977  44.493  0.00  0.00    +0.000 A 
ATOM     30  N   UNL     1      45.011  34.708  45.152  0.00  0.00    +0.000 NA
ATOM     31  H   UNL     1      43.848  36.417  45.204  0.00  0.00    +0.000 HD
ATOM     32  H   UNL     1      44.619  37.230  42.973  0.00  0.00    +0.000 HD
ATOM     33  H   UNL     1      46.292  35.818  41.723  0.00  0.00    +0.000 HD
ENDBRANCH  22  29
ENDBRANCH  19  22
ENDBRANCH   1  19
TORSDOF 4
