
     RDKit          3D

 50 53  0  0  0  0  0  0  0  0999 V2000
   47.4091   33.0161   44.4029 C   0  0  2  0  0  0  0  0  0  0  0  0
   47.2296   33.2904   42.9541 C   0  0  1  0  0  0  0  0  0  0  0  0
   47.0485   32.0099   42.1385 C   0  0  0  0  0  0  0  0  0  0  0  0
   48.1654   31.2359   42.4691 O   0  0  0  0  0  0  0  0  0  0  0  0
   48.0690   30.7220   43.7432 C   0  0  0  0  0  0  0  0  0  0  0  0
   47.1916   31.5133   44.6618 C   0  0  1  0  0  0  0  0  0  0  0  0
   44.9784   36.1750   42.7756 C   0  0  0  0  0  0  0  0  0  0  0  0
   43.8829   35.7111   41.9839 C   0  0  0  0  0  0  0  0  0  0  0  0
   43.9776   34.3714   41.5307 C   0  0  0  0  0  0  0  0  0  0  0  0
   45.0617   33.6358   41.8626 N   0  0  0  0  0  0  0  0  0  0  0  0
   46.0652   34.1348   42.6152 C   0  0  0  0  0  0  0  0  0  0  0  0
   46.0251   35.4055   43.0731 N   0  0  0  0  0  0  0  0  0  0  0  0
   44.8993   37.4579   43.2172 O   0  0  0  0  0  0  0  0  0  0  0  0
   46.5317   33.7263   45.2270 O   0  0  0  0  0  0  0  0  0  0  0  0
   47.4566   31.3013   45.9963 O   0  0  0  0  0  0  0  0  0  0  0  0
   45.9231   29.0946   46.2800 F   0  0  0  0  0  0  0  0  0  0  0  0
   45.9988   30.1021   47.1728 C   0  0  0  0  0  0  0  0  0  0  0  0
   46.7503   31.2563   47.1126 C   0  0  0  0  0  0  0  0  0  0  0  0
   46.6175   32.1046   48.2002 C   0  0  0  0  0  0  0  0  0  0  0  0
   45.8182   31.8887   49.2999 C   0  0  0  0  0  0  0  0  0  0  0  0
   45.0969   30.7338   49.3096 C   0  0  0  0  0  0  0  0  0  0  0  0
   45.1645   29.8262   48.2689 C   0  0  0  0  0  0  0  0  0  0  0  0
   48.4417   33.2371   44.7273 H   0  0  0  0  0  0  0  0  0  0  0  0
   48.1703   33.7709   42.5725 H   0  0  0  0  0  0  0  0  0  0  0  0
   47.0916   32.2104   41.0694 H   0  0  0  0  0  0  0  0  0  0  0  0
   46.1019   31.5007   42.4022 H   0  0  0  0  0  0  0  0  0  0  0  0
   49.1046   30.7786   44.1802 H   0  0  0  0  0  0  0  0  0  0  0  0
   47.7864   29.6572   43.7769 H   0  0  0  0  0  0  0  0  0  0  0  0
   46.1144   31.3609   44.4666 H   0  0  0  0  0  0  0  0  0  0  0  0
   43.0517   36.3443   41.7556 H   0  0  0  0  0  0  0  0  0  0  0  0
   43.1838   33.9725   40.9331 H   0  0  0  0  0  0  0  0  0  0  0  0
   45.3947   38.1989   42.7313 H   0  0  0  0  0  0  0  0  0  0  0  0
   45.7153   33.1825   45.3863 H   0  0  0  0  0  0  0  0  0  0  0  0
   47.2483   33.0040   48.0785 H   0  0  0  0  0  0  0  0  0  0  0  0
   45.8249   32.6531   50.0714 H   0  0  0  0  0  0  0  0  0  0  0  0
   44.4637   30.5678   50.1861 H   0  0  0  0  0  0  0  0  0  0  0  0
   44.3494   28.6703   48.4326 N   0  0  0  0  0  0  0  0  0  0  0  0
   44.7505   27.4291   49.0680 C   0  0  1  0  0  0  0  0  0  0  0  0
   45.8297   27.2808   49.1401 H   0  0  0  0  0  0  0  0  0  0  0  0
   44.1846   26.3311   48.1580 C   0  0  2  0  0  0  0  0  0  0  0  0
   44.5681   25.3387   48.3850 H   0  0  0  0  0  0  0  0  0  0  0  0
   42.8224   26.3956   48.3268 O   0  0  0  0  0  0  0  0  0  0  0  0
   42.2369   27.5255   47.8256 C   0  0  0  0  0  0  0  0  0  0  0  0
   43.0189   28.7823   47.9090 C   0  0  0  0  0  0  0  0  0  0  0  0
   44.3267   27.3011   50.0869 H   0  0  0  0  0  0  0  0  0  0  0  0
   44.4133   26.6338   47.1038 H   0  0  0  0  0  0  0  0  0  0  0  0
   42.0386   27.3231   46.7320 H   0  0  0  0  0  0  0  0  0  0  0  0
   41.2216   27.6528   48.2731 H   0  0  0  0  0  0  0  0  0  0  0  0
   43.0623   29.3230   46.9229 H   0  0  0  0  0  0  0  0  0  0  0  0
   42.4697   29.5051   48.5808 H   0  0  0  0  0  0  0  0  0  0  0  0
  1  6  1  0
  1 14  1  0
  2  1  1  0
  3  4  1  0
  3  2  1  0
  4  5  1  0
  5  6  1  0
  6 15  1  0
  7 12  2  0
  7 13  1  0
  8  7  1  0
  9 10  1  0
  9  8  2  0
 10 11  2  0
 11  2  1  0
 11 12  1  0
 15 18  1  0
 16 17  1  0
 17 22  2  0
 18 17  1  0
 18 19  2  0
 19 20  1  0
 20 21  2  0
 22 21  1  0
  1 23  1  1
  2 24  1  6
  3 25  1  0
  3 26  1  0
  5 27  1  0
  5 28  1  0
  6 29  1  1
  8 30  1  0
  9 31  1  0
 13 32  1  0
 14 33  1  0
 19 34  1  0
 20 35  1  0
 21 36  1  0
 37 38  1  0
 38 39  1  1
 38 40  1  0
 40 41  1  1
 40 42  1  0
 42 43  1  0
 43 44  1  0
 44 37  1  0
 38 45  1  0
 40 46  1  0
 43 47  1  0
 43 48  1  0
 44 49  1  0
 44 50  1  0
 22 37  1  0
M  ISO  8  23  13  24  13  25  13  26  13  27  13  28  13  29  13  30  14
M  ISO  8  31  14  32   3  33   3  34  14  35  14  36  14  39   8  41  15
M  END
>  <DihAtoms>  (1) 
16,21,36,37

>  <DihDeg>  (1) 
59.99673509186569

$$$$
