
 OpenBabel03242511413D

 33 35  0  0  0  0  0  0  0  0999 V2000
   46.2300   31.8870   47.1680 C   0  0  0  0  0  0  0  0  0  0  0  0
   45.8050   32.3970   48.3650 C   0  0  0  0  0  0  0  0  0  0  0  0
   45.2490   31.6740   49.3750 C   0  0  0  0  0  0  0  0  0  0  0  0
   45.1100   30.3330   49.1610 C   0  0  0  0  0  0  0  0  0  0  0  0
   45.5290   29.7650   47.9570 C   0  0  0  0  0  0  0  0  0  0  0  0
   46.0970   30.5440   46.9470 C   0  0  0  0  0  0  0  0  0  0  0  0
   45.9800   33.4800   48.3920 H   0  0  0  0  0  0  0  0  0  0  0  0
   44.9920   32.2870   50.2230 H   0  0  0  0  0  0  0  0  0  0  0  0
   44.6460   29.8710   50.0520 H   0  0  0  0  0  0  0  0  0  0  0  0
   45.2910   28.6960   48.0820 H   0  0  0  0  0  0  0  0  0  0  0  0
   46.3400   29.5030   45.9810 N   0  0  0  0  0  0  0  0  0  0  0  0
   47.4280   28.8630   45.2700 C   0  0  0  0  0  3  0  0  0  0  0  0
   48.4210   29.0670   45.7420 H   0  0  0  0  0  0  0  0  0  0  0  0
   47.2230   27.3890   45.2100 C   0  0  0  0  0  3  0  0  0  0  0  0
   47.6960   26.9380   44.2850 H   0  0  0  0  0  0  0  0  0  0  0  0
   45.9240   26.9490   45.2410 O   0  0  0  0  0  0  0  0  0  0  0  0
   45.0760   27.8950   44.6670 C   0  0  0  0  0  2  0  0  0  0  0  0
   44.9810   29.0110   45.6870 C   0  0  0  0  0  2  0  0  0  0  0  0
   46.8170   32.5550   45.9880 C   0  0  0  0  0  0  0  0  0  0  0  0
   47.7520   32.0190   45.6850 H   0  0  0  0  0  0  0  0  0  0  0  0
   47.0970   33.5610   46.2760 H   0  0  0  0  0  0  0  0  0  0  0  0
   45.8940   32.5010   44.7900 C   0  0  0  0  0  0  0  0  0  0  0  0
   44.8910   32.2150   45.2600 H   0  0  0  0  0  0  0  0  0  0  0  0
   46.2310   31.8770   43.9930 H   0  0  0  0  0  0  0  0  0  0  0  0
   44.6090   35.9450   44.8160 C   0  0  0  0  0  0  0  0  0  0  0  0
   45.0270   36.4360   43.5550 C   0  0  0  0  0  0  0  0  0  0  0  0
   45.7620   35.5510   42.7480 C   0  0  0  0  0  0  0  0  0  0  0  0
   46.0340   34.3140   43.1820 N   0  0  0  0  0  0  0  0  0  0  0  0
   45.5970   33.9080   44.4100 C   0  0  0  0  0  0  0  0  0  0  0  0
   44.9070   34.6910   45.2090 N   0  0  0  0  0  0  0  0  0  0  0  0
   44.0370   36.5410   45.5200 H   0  0  0  0  0  0  0  0  0  0  0  0
   44.7500   37.4510   43.3080 H   0  0  0  0  0  0  0  0  0  0  0  0
   46.0760   35.9390   41.7880 H   0  0  0  0  0  0  0  0  0  0  0  0
  1  2  1  0  0  0  0
  2  7  1  0  0  0  0
  2  3  2  0  0  0  0
  3  8  1  0  0  0  0
  4  3  1  0  0  0  0
  4  9  1  0  0  0  0
  5 10  1  0  0  0  0
  5  4  2  0  0  0  0
  6  1  2  0  0  0  0
  6  5  1  0  0  0  0
 11  6  1  0  0  0  0
 12 13  1  0  0  0  0
 12 11  1  0  0  0  0
 14 16  1  0  0  0  0
 14 12  1  0  0  0  0
 15 14  1  0  0  0  0
 17 16  1  0  0  0  0
 17 18  1  0  0  0  0
 18 11  1  0  0  0  0
 19 21  1  0  0  0  0
 19  1  1  0  0  0  0
 20 19  1  0  0  0  0
 22 23  1  0  0  0  0
 22 19  1  0  0  0  0
 24 22  1  0  0  0  0
 25 30  1  0  0  0  0
 25 31  1  0  0  0  0
 26 25  2  0  0  0  0
 27 28  2  0  0  0  0
 27 26  1  0  0  0  0
 28 29  1  0  0  0  0
 29 22  1  0  0  0  0
 29 30  2  0  0  0  0
 32 26  1  0  0  0  0
 33 27  1  0  0  0  0
M  END
>  <minimizedAffinity>
-4.81642389

>  <minimizedRMSD>
0.649195611

$$$$
