
 OpenBabel03242518453D

 44 47  0  0  1  0  0  0  0  0999 V2000
   47.2850   32.8420   44.4980 C   0  0  2  0  0  0  0  0  0  0  0  0
   47.3230   33.3300   43.0960 C   0  0  1  0  0  0  0  0  0  0  0  0
   47.3580   32.1860   42.0830 C   0  0  0  0  0  0  0  0  0  0  0  0
   48.4560   31.4160   42.4790 O   0  0  0  0  0  0  0  0  0  0  0  0
   48.1920   30.7070   43.6300 C   0  0  0  0  0  0  0  0  0  0  0  0
   47.1290   31.3100   44.4940 C   0  0  1  0  0  0  0  0  0  0  0  0
   48.2360   33.0520   45.0200 H   0  0  0  0  0  0  0  0  0  0  0  0
   48.2780   33.9030   42.9520 H   0  0  0  0  0  0  0  0  0  0  0  0
   47.5590   32.5520   41.0770 H   0  0  0  0  0  0  0  0  0  0  0  0
   46.4180   31.6050   42.1060 H   0  0  0  0  0  0  0  0  0  0  0  0
   49.1380   30.7380   44.2380 H   0  0  0  0  0  0  0  0  0  0  0  0
   47.9770   29.6390   43.4590 H   0  0  0  0  0  0  0  0  0  0  0  0
   46.1080   31.1460   44.1000 H   0  0  0  0  0  0  0  0  0  0  0  0
   45.0010   36.1580   42.8930 C   0  0  0  0  0  0  0  0  0  0  0  0
   44.0220   35.7350   41.9430 C   0  0  0  0  0  0  0  0  0  0  0  0
   44.2180   34.4420   41.3950 C   0  0  0  0  0  0  0  0  0  0  0  0
   45.2830   33.7110   41.7900 N   0  0  0  0  0  0  0  0  0  0  0  0
   46.1740   34.1700   42.6930 C   0  0  0  0  0  0  0  0  0  0  0  0
   46.0350   35.3950   43.2470 N   0  0  0  0  0  0  0  0  0  0  0  0
   43.2000   36.3630   41.6720 H   0  0  0  0  0  0  0  0  0  0  0  0
   43.5130   34.0750   40.6770 H   0  0  0  0  0  0  0  0  0  0  0  0
   44.8250   37.3960   43.4270 O   0  0  0  0  0  0  0  0  0  0  0  0
   45.3460   38.1890   43.0650 H   0  0  0  0  0  0  0  0  0  0  0  0
   46.2430   33.3790   45.2580 O   0  0  0  0  0  0  0  0  0  0  0  0
   45.4490   32.7850   45.1960 H   0  0  0  0  0  0  0  0  0  0  0  0
   47.1900   30.9040   45.8080 O   0  0  0  0  0  0  0  0  0  0  0  0
   45.2340   29.0470   45.9540 F   0  0  0  0  0  0  0  0  0  0  0  0
   46.4690   28.9090   46.4770 C   0  0  0  0  0  0  0  0  0  0  0  0
   47.5230   29.7960   46.4490 C   0  0  0  0  0  0  0  0  0  0  0  0
   48.6790   29.3600   47.0760 C   0  0  0  0  0  0  0  0  0  0  0  0
   48.8490   28.1460   47.7030 C   0  0  0  0  0  0  0  0  0  0  0  0
   47.7770   27.3060   47.7020 C   0  0  0  0  0  0  0  0  0  0  0  0
   46.5800   27.6560   47.1020 C   0  0  0  0  0  0  0  0  0  0  0  0
   49.4760   30.1230   47.0110 H   0  0  0  0  0  0  0  0  0  0  0  0
   49.8200   27.9530   48.1480 H   0  0  0  0  0  0  0  0  0  0  0  0
   47.9170   26.3440   48.2020 H   0  0  0  0  0  0  0  0  0  0  0  0
   45.5590   26.6670   47.1900 N   0  0  0  0  0  0  0  0  0  0  0  0
   45.2450   25.6770   46.1770 C   0  0  0  0  0  3  0  0  0  0  0  0
   45.6120   25.9140   45.1770 H   0  0  0  0  0  0  0  0  0  0  0  0
   43.7120   25.6570   46.1220 C   0  0  0  0  0  3  0  0  0  0  0  0
   43.3150   25.1090   45.2700 H   0  0  0  0  0  0  0  0  0  0  0  0
   43.3210   25.0900   47.3120 O   0  0  0  0  0  0  0  0  0  0  0  0
   43.5670   25.8550   48.4180 C   0  0  0  0  0  3  0  0  0  0  0  0
   44.7940   26.6860   48.4020 C   0  0  0  0  0  3  0  0  0  0  0  0
  1  7  1  1  0  0  0
  1 24  1  0  0  0  0
  2  8  1  6  0  0  0
  2  1  1  0  0  0  0
  3 10  1  0  0  0  0
  3  4  1  0  0  0  0
  3  2  1  0  0  0  0
  4  5  1  0  0  0  0
  5 11  1  0  0  0  0
  5  6  1  0  0  0  0
  6 13  1  6  0  0  0
  6  1  1  0  0  0  0
  6 26  1  0  0  0  0
  9  3  1  0  0  0  0
 12  5  1  0  0  0  0
 14 19  1  0  0  0  0
 14 22  1  0  0  0  0
 15 14  2  0  0  0  0
 16 17  2  0  0  0  0
 16 15  1  0  0  0  0
 17 18  1  0  0  0  0
 18  2  1  0  0  0  0
 18 19  2  0  0  0  0
 20 15  1  0  0  0  0
 21 16  1  0  0  0  0
 23 22  1  0  0  0  0
 25 24  1  0  0  0  0
 26 29  1  0  0  0  0
 27 28  1  0  0  0  0
 28 33  1  0  0  0  0
 29 28  2  0  0  0  0
 29 30  1  0  0  0  0
 30 31  2  0  0  0  0
 31 35  1  0  0  0  0
 32 31  1  0  0  0  0
 32 36  1  0  0  0  0
 33 37  1  0  0  0  0
 33 32  2  0  0  0  0
 34 30  1  0  0  0  0
 37 44  1  0  0  0  0
 38 37  1  0  0  0  0
 39 38  1  0  0  0  0
 40 38  1  0  0  0  0
 40 42  1  0  0  0  0
 41 40  1  0  0  0  0
 42 43  1  0  0  0  0
 44 43  2  0  0  0  0
M  END
>  <minimizedAffinity>
-4.94271231

>  <minimizedRMSD>
2.02359557

$$$$
