
 OpenBabel03242518453D

 44 47  0  0  1  0  0  0  0  0999 V2000
   48.3050   32.9910   43.2050 C   0  0  2  0  0  0  0  0  0  0  0  0
   47.9070   34.4200   43.1150 C   0  0  1  0  0  0  0  0  0  0  0  0
   48.7620   35.1990   42.1170 C   0  0  0  0  0  0  0  0  0  0  0  0
   50.0740   34.9680   42.5420 O   0  0  0  0  0  0  0  0  0  0  0  0
   50.4840   33.6850   42.2550 C   0  0  0  0  0  0  0  0  0  0  0  0
   49.3680   32.6960   42.1300 C   0  0  1  0  0  0  0  0  0  0  0  0
   48.7810   32.7700   44.1770 H   0  0  0  0  0  0  0  0  0  0  0  0
   48.0860   34.8950   44.1160 H   0  0  0  0  0  0  0  0  0  0  0  0
   48.5790   36.2700   42.1860 H   0  0  0  0  0  0  0  0  0  0  0  0
   48.5950   34.8410   41.0840 H   0  0  0  0  0  0  0  0  0  0  0  0
   51.0970   33.3490   43.1370 H   0  0  0  0  0  0  0  0  0  0  0  0
   51.1500   33.6120   41.3800 H   0  0  0  0  0  0  0  0  0  0  0  0
   48.8160   32.7850   41.1760 H   0  0  0  0  0  0  0  0  0  0  0  0
   44.3640   35.3470   43.2330 C   0  0  0  0  0  0  0  0  0  0  0  0
   43.8940   35.0910   41.9080 C   0  0  0  0  0  0  0  0  0  0  0  0
   44.8620   34.5910   41.0010 C   0  0  0  0  0  0  0  0  0  0  0  0
   46.1280   34.3920   41.4270 N   0  0  0  0  0  0  0  0  0  0  0  0
   46.5090   34.6560   42.6950 C   0  0  0  0  0  0  0  0  0  0  0  0
   45.6270   35.1340   43.6010 N   0  0  0  0  0  0  0  0  0  0  0  0
   42.8770   35.2690   41.6330 H   0  0  0  0  0  0  0  0  0  0  0  0
   44.5640   34.3820   39.9930 H   0  0  0  0  0  0  0  0  0  0  0  0
   43.4460   35.8260   44.1140 O   0  0  0  0  0  0  0  0  0  0  0  0
   43.4000   36.8200   44.3170 H   0  0  0  0  0  0  0  0  0  0  0  0
   47.2480   32.0960   43.0230 O   0  0  0  0  0  0  0  0  0  0  0  0
   47.1820   31.8530   42.0610 H   0  0  0  0  0  0  0  0  0  0  0  0
   49.7640   31.3910   42.3170 O   0  0  0  0  0  0  0  0  0  0  0  0
   48.1900   29.9280   40.6790 F   0  0  0  0  0  0  0  0  0  0  0  0
   49.5240   29.7800   40.8020 C   0  0  0  0  0  0  0  0  0  0  0  0
   50.4010   30.4770   41.6040 C   0  0  0  0  0  0  0  0  0  0  0  0
   51.7280   30.0920   41.5030 C   0  0  0  0  0  0  0  0  0  0  0  0
   52.2210   29.0980   40.6860 C   0  0  0  0  0  0  0  0  0  0  0  0
   51.3120   28.4410   39.9140 C   0  0  0  0  0  0  0  0  0  0  0  0
   49.9660   28.7540   39.9490 C   0  0  0  0  0  0  0  0  0  0  0  0
   52.3670   30.6950   42.1740 H   0  0  0  0  0  0  0  0  0  0  0  0
   53.2900   28.9170   40.7210 H   0  0  0  0  0  0  0  0  0  0  0  0
   51.7090   27.6530   39.2680 H   0  0  0  0  0  0  0  0  0  0  0  0
   49.1490   27.9740   39.0810 N   0  0  0  0  0  0  0  0  0  0  0  0
   48.4220   26.7740   39.4490 C   0  0  0  0  0  3  0  0  0  0  0  0
   48.7770   26.2850   40.3580 H   0  0  0  0  0  0  0  0  0  0  0  0
   48.6500   25.8120   38.2770 C   0  0  0  0  0  3  0  0  0  0  0  0
   48.3370   24.7910   38.4860 H   0  0  0  0  0  0  0  0  0  0  0  0
   47.9440   26.3520   37.2290 O   0  0  0  0  0  0  0  0  0  0  0  0
   48.4480   27.5290   36.7470 C   0  0  0  0  0  3  0  0  0  0  0  0
   49.0660   28.4500   37.7310 C   0  0  0  0  0  3  0  0  0  0  0  0
  1  7  1  1  0  0  0
  2  1  1  0  0  0  0
  2  8  1  1  0  0  0
  3  9  1  0  0  0  0
  3  4  1  0  0  0  0
  3  2  1  0  0  0  0
  5  4  1  0  0  0  0
  5 11  1  0  0  0  0
  6 13  1  6  0  0  0
  6  5  1  0  0  0  0
  6 26  1  0  0  0  0
  6  1  1  0  0  0  0
 10  3  1  0  0  0  0
 12  5  1  0  0  0  0
 14 19  1  0  0  0  0
 14 22  1  0  0  0  0
 15 14  2  0  0  0  0
 16 17  2  0  0  0  0
 16 15  1  0  0  0  0
 17 18  1  0  0  0  0
 18  2  1  0  0  0  0
 18 19  2  0  0  0  0
 20 15  1  0  0  0  0
 21 16  1  0  0  0  0
 22 23  1  0  0  0  0
 24  1  1  0  0  0  0
 25 24  1  0  0  0  0
 27 28  1  0  0  0  0
 28 29  1  0  0  0  0
 29 26  1  0  0  0  0
 30 29  2  0  0  0  0
 30 34  1  0  0  0  0
 31 35  1  0  0  0  0
 31 30  1  0  0  0  0
 32 33  1  0  0  0  0
 32 31  2  0  0  0  0
 33 28  2  0  0  0  0
 36 32  1  0  0  0  0
 37 38  1  0  0  0  0
 37 33  1  0  0  0  0
 38 39  1  0  0  0  0
 40 41  1  0  0  0  0
 40 38  1  0  0  0  0
 42 40  1  0  0  0  0
 43 42  1  0  0  0  0
 43 44  2  0  0  0  0
 44 37  1  0  0  0  0
M  END
>  <minimizedAffinity>
-4.5930891

>  <minimizedRMSD>
7.17927027

$$$$
