
 OpenBabel03242511413D

 33 35  0  0  0  0  0  0  0  0999 V2000
   46.2300   32.0030   47.2730 C   0  0  0  0  0  0  0  0  0  0  0  0
   45.4330   32.3800   48.3200 C   0  0  0  0  0  0  0  0  0  0  0  0
   44.9000   31.5380   49.2460 C   0  0  0  0  0  0  0  0  0  0  0  0
   45.1930   30.2110   49.1040 C   0  0  0  0  0  0  0  0  0  0  0  0
   46.0020   29.7780   48.0530 C   0  0  0  0  0  0  0  0  0  0  0  0
   46.5310   30.6780   47.1260 C   0  0  0  0  0  0  0  0  0  0  0  0
   45.2870   33.4680   48.3040 H   0  0  0  0  0  0  0  0  0  0  0  0
   44.3070   32.0580   49.9780 H   0  0  0  0  0  0  0  0  0  0  0  0
   44.6990   29.6440   49.9150 H   0  0  0  0  0  0  0  0  0  0  0  0
   46.0530   28.6870   48.2040 H   0  0  0  0  0  0  0  0  0  0  0  0
   47.2570   29.7420   46.3060 N   0  0  0  0  0  0  0  0  0  0  0  0
   48.6130   29.3900   45.9340 C   0  0  0  0  0  3  0  0  0  0  0  0
   49.3680   29.8150   46.6420 H   0  0  0  0  0  0  0  0  0  0  0  0
   48.7800   27.9120   45.8900 C   0  0  0  0  0  3  0  0  0  0  0  0
   49.5740   27.6030   45.1410 H   0  0  0  0  0  0  0  0  0  0  0  0
   47.6600   27.1760   45.5980 O   0  0  0  0  0  0  0  0  0  0  0  0
   46.7980   27.9050   44.7790 C   0  0  0  0  0  2  0  0  0  0  0  0
   46.1780   28.9480   45.6870 C   0  0  0  0  0  2  0  0  0  0  0  0
   46.8430   32.8010   46.1900 C   0  0  0  0  0  0  0  0  0  0  0  0
   47.8820   32.4300   45.9990 H   0  0  0  0  0  0  0  0  0  0  0  0
   46.9210   33.8260   46.5310 H   0  0  0  0  0  0  0  0  0  0  0  0
   46.0950   32.6510   44.8840 C   0  0  0  0  0  0  0  0  0  0  0  0
   45.0780   32.2530   45.2220 H   0  0  0  0  0  0  0  0  0  0  0  0
   46.5990   32.0720   44.1420 H   0  0  0  0  0  0  0  0  0  0  0  0
   44.5410   35.9800   44.7770 C   0  0  0  0  0  0  0  0  0  0  0  0
   44.9480   36.4670   43.5110 C   0  0  0  0  0  0  0  0  0  0  0  0
   45.7700   35.6210   42.7470 C   0  0  0  0  0  0  0  0  0  0  0  0
   46.1280   34.4220   43.2240 N   0  0  0  0  0  0  0  0  0  0  0  0
   45.6970   34.0180   44.4550 C   0  0  0  0  0  0  0  0  0  0  0  0
   44.9280   34.7660   45.2150 N   0  0  0  0  0  0  0  0  0  0  0  0
   43.9070   36.5490   45.4510 H   0  0  0  0  0  0  0  0  0  0  0  0
   44.5980   37.4490   43.2270 H   0  0  0  0  0  0  0  0  0  0  0  0
   46.0740   36.0040   41.7820 H   0  0  0  0  0  0  0  0  0  0  0  0
  1  2  1  0  0  0  0
  2  3  2  0  0  0  0
  3  8  1  0  0  0  0
  4  3  1  0  0  0  0
  4  9  1  0  0  0  0
  5 10  1  0  0  0  0
  5  4  2  0  0  0  0
  6  1  2  0  0  0  0
  6  5  1  0  0  0  0
  7  2  1  0  0  0  0
 11  6  1  0  0  0  0
 12 11  1  0  0  0  0
 12 13  1  0  0  0  0
 14 12  1  0  0  0  0
 15 14  1  0  0  0  0
 16 14  1  0  0  0  0
 17 16  1  0  0  0  0
 17 18  1  0  0  0  0
 18 11  1  0  0  0  0
 19 21  1  0  0  0  0
 19  1  1  0  0  0  0
 20 19  1  0  0  0  0
 22 23  1  0  0  0  0
 22 19  1  0  0  0  0
 24 22  1  0  0  0  0
 25 30  1  0  0  0  0
 25 31  1  0  0  0  0
 26 25  2  0  0  0  0
 27 28  2  0  0  0  0
 27 26  1  0  0  0  0
 28 29  1  0  0  0  0
 29 22  1  0  0  0  0
 29 30  2  0  0  0  0
 32 26  1  0  0  0  0
 33 27  1  0  0  0  0
M  END
>  <minimizedAffinity>
-4.71886683

>  <minimizedRMSD>
1.40510845

$$$$
