
 OpenBabel03242518453D

 44 47  0  0  1  0  0  0  0  0999 V2000
   47.4720   32.9690   44.3950 C   0  0  2  0  0  0  0  0  0  0  0  0
   47.3770   33.3590   42.9650 C   0  0  1  0  0  0  0  0  0  0  0  0
   47.3080   32.1480   42.0360 C   0  0  0  0  0  0  0  0  0  0  0  0
   48.4350   31.3930   42.3780 O   0  0  0  0  0  0  0  0  0  0  0  0
   48.2770   30.7680   43.5950 C   0  0  0  0  0  0  0  0  0  0  0  0
   47.3060   31.4410   44.5120 C   0  0  1  0  0  0  0  0  0  0  0  0
   48.4700   33.2020   44.8080 H   0  0  0  0  0  0  0  0  0  0  0  0
   48.3180   33.9080   42.6910 H   0  0  0  0  0  0  0  0  0  0  0  0
   47.4140   32.4400   40.9920 H   0  0  0  0  0  0  0  0  0  0  0  0
   46.3710   31.5810   42.1880 H   0  0  0  0  0  0  0  0  0  0  0  0
   49.2780   30.8280   44.1060 H   0  0  0  0  0  0  0  0  0  0  0  0
   48.0410   29.6930   43.5200 H   0  0  0  0  0  0  0  0  0  0  0  0
   46.2520   31.2640   44.2300 H   0  0  0  0  0  0  0  0  0  0  0  0
   45.0310   36.1710   42.8430 C   0  0  0  0  0  0  0  0  0  0  0  0
   43.9960   35.7200   41.9670 C   0  0  0  0  0  0  0  0  0  0  0  0
   44.1640   34.4160   41.4390 C   0  0  0  0  0  0  0  0  0  0  0  0
   45.2570   33.6990   41.7830 N   0  0  0  0  0  0  0  0  0  0  0  0
   46.2000   34.1830   42.6160 C   0  0  0  0  0  0  0  0  0  0  0  0
   46.0900   35.4210   43.1480 N   0  0  0  0  0  0  0  0  0  0  0  0
   43.1550   36.3380   41.7340 H   0  0  0  0  0  0  0  0  0  0  0  0
   43.4170   34.0280   40.7760 H   0  0  0  0  0  0  0  0  0  0  0  0
   44.8820   37.4200   43.3570 O   0  0  0  0  0  0  0  0  0  0  0  0
   45.3740   38.2070   42.9440 H   0  0  0  0  0  0  0  0  0  0  0  0
   46.5110   33.5700   45.2120 O   0  0  0  0  0  0  0  0  0  0  0  0
   45.7100   32.9820   45.2670 H   0  0  0  0  0  0  0  0  0  0  0  0
   47.4910   31.1260   45.8390 O   0  0  0  0  0  0  0  0  0  0  0  0
   46.3890   28.6680   45.6380 F   0  0  0  0  0  0  0  0  0  0  0  0
   46.1970   29.5170   46.6670 C   0  0  0  0  0  0  0  0  0  0  0  0
   46.7160   30.7800   46.8540 C   0  0  0  0  0  0  0  0  0  0  0  0
   46.3350   31.4080   48.0290 C   0  0  0  0  0  0  0  0  0  0  0  0
   45.5040   30.8820   48.9920 C   0  0  0  0  0  0  0  0  0  0  0  0
   45.0190   29.6310   48.7590 C   0  0  0  0  0  0  0  0  0  0  0  0
   45.3430   28.9270   47.6140 C   0  0  0  0  0  0  0  0  0  0  0  0
   46.7900   32.4120   48.1050 H   0  0  0  0  0  0  0  0  0  0  0  0
   45.3010   31.5020   49.8590 H   0  0  0  0  0  0  0  0  0  0  0  0
   44.3590   29.2190   49.5280 H   0  0  0  0  0  0  0  0  0  0  0  0
   44.7530   27.6340   47.5220 N   0  0  0  0  0  0  0  0  0  0  0  0
   45.1220   26.4730   48.3090 C   0  0  0  0  0  3  0  0  0  0  0  0
   46.1100   26.5280   48.7700 H   0  0  0  0  0  0  0  0  0  0  0  0
   45.1360   25.3150   47.3030 C   0  0  0  0  0  3  0  0  0  0  0  0
   45.5890   24.4060   47.6930 H   0  0  0  0  0  0  0  0  0  0  0  0
   43.8170   25.1180   46.9680 O   0  0  0  0  0  0  0  0  0  0  0  0
   43.2530   26.1310   46.2450 C   0  0  0  0  0  3  0  0  0  0  0  0
   43.7050   27.5100   46.5510 C   0  0  0  0  0  3  0  0  0  0  0  0
  1  6  1  0  0  0  0
  1  7  1  1  0  0  0
  1 24  1  0  0  0  0
  2  8  1  6  0  0  0
  2  1  1  0  0  0  0
  3 10  1  0  0  0  0
  3  4  1  0  0  0  0
  3  2  1  0  0  0  0
  4  5  1  0  0  0  0
  5 11  1  0  0  0  0
  5  6  1  0  0  0  0
  6 13  1  6  0  0  0
  6 26  1  0  0  0  0
  9  3  1  0  0  0  0
 12  5  1  0  0  0  0
 14 19  1  0  0  0  0
 14 22  1  0  0  0  0
 15 14  2  0  0  0  0
 16 17  2  0  0  0  0
 16 15  1  0  0  0  0
 17 18  1  0  0  0  0
 18  2  1  0  0  0  0
 18 19  2  0  0  0  0
 20 15  1  0  0  0  0
 21 16  1  0  0  0  0
 23 22  1  0  0  0  0
 24 25  1  0  0  0  0
 26 29  1  0  0  0  0
 27 28  1  0  0  0  0
 28 29  2  0  0  0  0
 28 33  1  0  0  0  0
 29 30  1  0  0  0  0
 30 34  1  0  0  0  0
 30 31  2  0  0  0  0
 31 35  1  0  0  0  0
 32 31  1  0  0  0  0
 32 36  1  0  0  0  0
 33 32  2  0  0  0  0
 37 33  1  0  0  0  0
 37 38  1  0  0  0  0
 38 39  1  0  0  0  0
 40 41  1  0  0  0  0
 40 38  1  0  0  0  0
 42 40  1  0  0  0  0
 43 44  2  0  0  0  0
 43 42  1  0  0  0  0
 44 37  1  0  0  0  0
M  END
>  <minimizedAffinity>
-5.37857008

>  <minimizedRMSD>
0.968390584

$$$$
