
 OpenBabel03252505283D

 27 28  0  0  1  0  0  0  0  0999 V2000
   46.5870   31.1270   48.8340 O   0  0  0  0  0  0  0  0  0  0  0  0
   45.7290   31.6270   47.6670 P   0  0  1  0  0  0  0  0  0  0  0  0
   44.2760   32.2610   48.1840 O   0  0  0  0  0  0  0  0  0  0  0  0
   44.3850   32.5910   49.1100 H   0  0  0  0  0  0  0  0  0  0  0  0
   46.6640   32.7760   46.8510 O   0  0  0  0  0  0  0  0  0  0  0  0
   44.7380   35.1110   44.9920 C   0  0  0  0  0  0  0  0  0  0  0  0
   45.3320   35.1300   43.7060 C   0  0  0  0  0  0  0  0  0  0  0  0
   46.4450   34.2820   43.5210 C   0  0  0  0  0  0  0  0  0  0  0  0
   46.8650   33.5200   44.5620 N   0  0  0  0  0  0  0  0  0  0  0  0
   46.2600   33.5410   45.7680 C   0  0  0  0  0  0  0  0  0  0  0  0
   45.1940   34.3400   45.9820 N   0  0  0  0  0  0  0  0  0  0  0  0
   43.8760   35.7600   45.1550 H   0  0  0  0  0  0  0  0  0  0  0  0
   44.9640   35.7540   42.9040 H   0  0  0  0  0  0  0  0  0  0  0  0
   46.9480   34.2460   42.5630 H   0  0  0  0  0  0  0  0  0  0  0  0
   45.4340   30.2690   46.7080 O   0  0  0  0  0  0  0  0  0  0  0  0
   47.0290   28.5320   47.0730 C   0  0  2  0  0  3  0  0  0  0  0  0
   45.7170   29.1470   47.5190 C   0  0  2  0  0  3  0  0  0  0  0  0
   44.6380   28.3050   47.4130 O   0  0  0  0  0  0  0  0  0  0  0  0
   44.7660   27.1210   48.1030 C   0  0  0  0  0  2  0  0  0  0  0  0
   46.1030   26.4610   47.9180 C   0  0  2  0  0  3  0  0  0  0  0  0
   46.7320   27.0990   46.6770 C   0  0  1  0  0  3  0  0  0  0  0  0
   47.9620   28.4680   48.1120 O   0  0  0  0  0  0  0  0  0  0  0  0
   47.5780   28.6370   49.0020 H   0  0  0  0  0  0  0  0  0  0  0  0
   46.0540   25.0880   47.8100 O   0  0  0  0  0  0  0  0  0  0  0  0
   47.0040   24.7780   47.9060 H   0  0  0  0  0  0  0  0  0  0  0  0
   45.7880   27.1220   45.6590 O   0  0  0  0  0  0  0  0  0  0  0  0
   45.9190   27.9100   45.0700 H   0  0  0  0  0  0  0  0  0  0  0  0
  2  3  1  0  0  0  0
  2  1  2  1  0  0  0
  3  4  1  0  0  0  0
  5  2  1  0  0  0  0
  6 12  1  0  0  0  0
  6 11  1  0  0  0  0
  7  6  2  0  0  0  0
  8  7  1  0  0  0  0
  8  9  2  0  0  0  0
  9 10  1  0  0  0  0
 10 11  2  0  0  0  0
 10  5  1  0  0  0  0
 13  7  1  0  0  0  0
 14  8  1  0  0  0  0
 15  2  1  0  0  0  0
 16 17  1  0  0  0  0
 16 22  1  1  0  0  0
 17 15  1  6  0  0  0
 18 17  1  0  0  0  0
 18 19  1  0  0  0  0
 20 24  1  6  0  0  0
 20 19  1  0  0  0  0
 21 26  1  6  0  0  0
 21 16  1  0  0  0  0
 21 20  1  0  0  0  0
 22 23  1  0  0  0  0
 24 25  1  0  0  0  0
 27 26  1  0  0  0  0
M  END
>  <minimizedAffinity>
-4.78697205

>  <minimizedRMSD>
1.89739156

$$$$
