REMARK  Name = 
REMARK  11 active torsions:
REMARK  status: ('A' for Active; 'I' for Inactive)
REMARK    1  A    between atoms: N_1  and  C_7
REMARK    2  A    between atoms: C_6  and  O_15
REMARK    3  A    between atoms: C_7  and  C_8
REMARK    4  A    between atoms: C_8  and  C_11
REMARK    5  A    between atoms: O_15  and  P_17
REMARK    6  A    between atoms: P_17  and  O_18
REMARK    7  A    between atoms: P_17  and  O_19
REMARK    8  A    between atoms: O_19  and  C_39
REMARK    9  A    between atoms: O_37  and  C_38
REMARK   10  A    between atoms: C_42  and  O_43
REMARK   11  A    between atoms: C_44  and  O_45
REMARK                            x       y       z     vdW  Elec       q    Type
REMARK                         _______ _______ _______ _____ _____    ______ ____
ROOT
ATOM      1  N   UNL     1      47.171  34.159  43.084  0.00  0.00    +0.000 NA
ATOM      2  C   UNL     1      46.658  35.359  42.527  0.00  0.00    +0.000 C 
ATOM      3  C   UNL     1      45.178  35.589  42.743  0.00  0.00    +0.000 C 
ATOM      4  C   UNL     1      44.644  35.043  44.034  0.00  0.00    +0.000 C 
ATOM      5  C   UNL     1      45.745  34.469  44.894  0.00  0.00    +0.000 C 
ATOM      6  C   UNL     1      46.411  33.398  43.958  0.00  0.00    +0.000 C 
ATOM      7  H   UNL     1      46.847  35.516  41.462  0.00  0.00    +0.000 HD
ATOM      8  H   UNL     1      47.180  36.215  43.046  0.00  0.00    +0.000 HD
ATOM      9  H   UNL     1      44.618  35.208  41.854  0.00  0.00    +0.000 HD
ATOM     10  H   UNL     1      44.978  36.691  42.728  0.00  0.00    +0.000 HD
ATOM     11  H   UNL     1      44.023  35.786  44.590  0.00  0.00    +0.000 HD
ATOM     12  H   UNL     1      43.964  34.200  43.789  0.00  0.00    +0.000 HD
ATOM     13  H   UNL     1      46.491  35.195  45.222  0.00  0.00    +0.000 HD
ATOM     14  H   UNL     1      45.259  33.883  45.687  0.00  0.00    +0.000 HD
ATOM     15  H   UNL     1      45.570  32.803  43.560  0.00  0.00    +0.000 HD
ENDROOT
BRANCH   1  16
ATOM     16  C   UNL     1      48.151  33.504  42.268  0.00  0.00    +0.000 C 
ATOM     17  H   UNL     1      48.825  34.265  41.855  0.00  0.00    +0.000 HD
ATOM     18  H   UNL     1      48.745  32.835  42.941  0.00  0.00    +0.000 HD
BRANCH  16  19
ATOM     19  C   UNL     1      47.448  32.651  41.258  0.00  0.00    +0.000 C 
ATOM     20  H   UNL     1      46.368  32.903  41.216  0.00  0.00    +0.000 HD
ATOM     21  H   UNL     1      47.508  31.582  41.464  0.00  0.00    +0.000 HD
BRANCH  19  24
ATOM     22  C   UNL     1      49.324  32.281  38.025  0.00  0.00    +0.000 A 
ATOM     23  C   UNL     1      48.803  32.013  39.305  0.00  0.00    +0.000 A 
ATOM     24  C   UNL     1      47.992  32.947  39.906  0.00  0.00    +0.000 A 
ATOM     25  N   UNL     1      47.739  34.079  39.231  0.00  0.00    +0.000 NA
ATOM     26  C   UNL     1      48.243  34.322  38.011  0.00  0.00    +0.000 A 
ATOM     27  N   UNL     1      49.033  33.437  37.398  0.00  0.00    +0.000 NA
ATOM     28  H   UNL     1      49.945  31.500  37.631  0.00  0.00    +0.000 HD
ATOM     29  H   UNL     1      49.028  31.088  39.820  0.00  0.00    +0.000 HD
ATOM     30  H   UNL     1      47.946  35.283  37.595  0.00  0.00    +0.000 HD
ENDBRANCH  19  24
ENDBRANCH  16  19
ENDBRANCH   1  16
BRANCH   6  31
ATOM     31  O   UNL     1      47.209  32.697  44.856  0.00  0.00    +0.000 OA
BRANCH  31  33
ATOM     32  O   UNL     1      46.001  30.545  43.872  0.00  0.00    +0.000 OA
ATOM     33  P   UNL     1      46.664  31.125  45.115  0.00  0.00    +0.000 P 
BRANCH  33  34
ATOM     34  O   UNL     1      45.410  31.246  46.274  0.00  0.00    +0.000 OA
ATOM     35  H   UNL     1      44.545  31.398  45.815  0.00  0.00    +0.000 HD
ENDBRANCH  33  34
BRANCH  33  36
ATOM     36  O   UNL     1      47.833  30.120  45.739  0.00  0.00    +0.000 OA
BRANCH  36  38
ATOM     37  C   UNL     1      49.609  30.635  44.301  0.00  0.00    +0.000 C 
ATOM     38  C   UNL     1      48.664  29.542  44.801  0.00  0.00    +0.000 C 
ATOM     39  O   UNL     1      47.876  29.054  43.761  0.00  0.00    +0.000 OA
ATOM     40  C   UNL     1      48.647  28.743  42.644  0.00  0.00    +0.000 C 
ATOM     41  C   UNL     1      49.239  29.967  41.989  0.00  0.00    +0.000 C 
ATOM     42  C   UNL     1      49.085  31.121  42.971  0.00  0.00    +0.000 C 
BRANCH  37  43
ATOM     43  O   UNL     1      50.889  30.068  44.181  0.00  0.00    +0.000 OA
ATOM     44  H   UNL     1      50.905  29.134  44.554  0.00  0.00    +0.000 HD
ENDBRANCH  37  43
BRANCH  41  45
ATOM     45  O   UNL     1      50.608  29.782  41.724  0.00  0.00    +0.000 OA
ATOM     46  H   UNL     1      50.972  30.701  41.625  0.00  0.00    +0.000 HD
ENDBRANCH  41  45
BRANCH  42  47
ATOM     47  O   UNL     1      47.701  31.308  43.106  0.00  0.00    +0.000 OA
ATOM     48  H   UNL     1      47.454  32.267  43.080  0.00  0.00    +0.000 HD
ENDBRANCH  42  47
ENDBRANCH  36  38
ENDBRANCH  33  36
ENDBRANCH  31  33
ENDBRANCH   6  31
TORSDOF 11
