
 OpenBabel03252505433D

 45 48  0  0  1  0  0  0  0  0999 V2000
   42.6850   34.8490   40.2600 C   0  0  0  0  0  0  0  0  0  0  0  0
   42.5420   35.1890   38.9360 C   0  0  0  0  0  0  0  0  0  0  0  0
   41.3550   35.0790   38.2590 C   0  0  0  0  0  0  0  0  0  0  0  0
   40.2810   34.6120   38.9430 N   0  0  0  0  0  0  0  0  0  0  0  0
   40.4070   34.2690   40.2590 C   0  0  0  0  0  0  0  0  0  0  0  0
   41.5820   34.3830   40.9130 N   0  0  0  0  0  0  0  0  0  0  0  0
   43.3900   35.5560   38.3990 H   0  0  0  0  0  0  0  0  0  0  0  0
   41.2480   35.3500   37.2100 H   0  0  0  0  0  0  0  0  0  0  0  0
   43.9690   34.6360   42.3640 C   0  0  1  0  0  0  0  0  0  0  0  0
   44.1730   36.1290   41.9360 C   0  0  0  0  0  0  0  0  0  0  0  0
   44.0160   34.9600   40.9690 C   0  0  2  0  0  0  0  0  0  0  0  0
   42.9840   34.5160   42.8920 H   0  0  0  0  0  0  0  0  0  0  0  0
   45.1880   36.5410   42.0780 H   0  0  0  0  0  0  0  0  0  0  0  0
   43.3010   36.7930   41.9900 H   0  0  0  0  0  0  0  0  0  0  0  0
   44.8430   34.8550   40.2710 H   0  0  0  0  0  0  0  0  0  0  0  0
   45.1060   34.0780   43.1270 C   0  0  0  0  0  0  0  0  0  0  0  0
   46.3440   33.9600   42.4590 C   0  0  0  0  0  0  0  0  0  0  0  0
   47.4280   33.4400   43.1530 C   0  0  0  0  0  0  0  0  0  0  0  0
   47.2380   33.0720   44.4470 N   0  0  0  0  0  0  0  0  0  0  0  0
   46.0530   33.1980   45.0460 C   0  0  0  0  0  0  0  0  0  0  0  0
   45.0150   33.6990   44.3680 N   0  0  0  0  0  0  0  0  0  0  0  0
   46.4380   34.2730   41.4180 H   0  0  0  0  0  0  0  0  0  0  0  0
   48.4120   33.3310   42.6700 H   0  0  0  0  0  0  0  0  0  0  0  0
   46.0500   32.7390   46.4780 C   0  0  0  0  0  0  0  0  0  0  0  0
   45.0810   33.3990   47.2190 F   0  0  0  0  0  0  0  0  0  0  0  0
   47.2870   33.0900   47.0680 F   0  0  0  0  0  0  0  0  0  0  0  0
   45.9580   31.3750   46.5300 F   0  0  0  0  0  0  0  0  0  0  0  0
   39.2590   33.7510   41.0270 C   0  0  0  0  0  0  0  0  0  0  0  0
   38.4140   34.4730   40.8390 H   0  0  0  0  0  0  0  0  0  0  0  0
   39.4680   33.7180   42.0950 H   0  0  0  0  0  0  0  0  0  0  0  0
   38.7900   32.4220   40.5090 C   0  0  0  0  0  0  0  0  0  0  0  0
   37.7010   32.3890   40.3660 H   0  0  0  0  0  0  0  0  0  0  0  0
   39.3230   32.2290   39.5350 H   0  0  0  0  0  0  0  0  0  0  0  0
   39.6860   30.1030   40.6680 C   0  0  1  0  0  3  0  0  0  0  0  0
   39.1600   31.3060   41.4250 C   0  0  1  0  0  3  0  0  0  0  0  0
   39.9700   31.6180   42.4780 O   0  0  0  0  0  0  0  0  0  0  0  0
   40.8940   30.6290   42.7930 C   0  0  0  0  0  2  0  0  0  0  0  0
   40.3080   29.2580   42.8620 C   0  0  2  0  0  3  0  0  0  0  0  0
   39.5770   28.9130   41.6000 C   0  0  2  0  0  3  0  0  0  0  0  0
   38.9660   29.9230   39.4900 O   0  0  0  0  0  0  0  0  0  0  0  0
   39.6370   29.7920   38.7660 H   0  0  0  0  0  0  0  0  0  0  0  0
   39.5760   29.0360   44.0240 O   0  0  0  0  0  0  0  0  0  0  0  0
   38.6110   28.8790   43.8600 H   0  0  0  0  0  0  0  0  0  0  0  0
   40.0170   27.7400   40.9930 O   0  0  0  0  0  0  0  0  0  0  0  0
   39.2370   27.3550   40.4860 H   0  0  0  0  0  0  0  0  0  0  0  0
  1  6  1  0  0  0  0
  1 11  1  0  0  0  0
  2  1  2  0  0  0  0
  3  2  1  0  0  0  0
  3  4  2  0  0  0  0
  4  5  1  0  0  0  0
  5  6  2  0  0  0  0
  5 28  1  0  0  0  0
  7  2  1  0  0  0  0
  8  3  1  0  0  0  0
  9 12  1  1  0  0  0
  9 16  1  0  0  0  0
 10 14  1  0  0  0  0
 10 13  1  0  0  0  0
 10  9  1  0  0  0  0
 11 15  1  6  0  0  0
 11 10  1  0  0  0  0
 11  9  1  0  0  0  0
 16 21  1  0  0  0  0
 17 16  2  0  0  0  0
 17 18  1  0  0  0  0
 18 19  2  0  0  0  0
 19 20  1  0  0  0  0
 20 24  1  0  0  0  0
 21 20  2  0  0  0  0
 22 17  1  0  0  0  0
 23 18  1  0  0  0  0
 24 27  1  0  0  0  0
 24 26  1  0  0  0  0
 24 25  1  0  0  0  0
 28 30  1  0  0  0  0
 29 28  1  0  0  0  0
 31 28  1  0  0  0  0
 32 31  1  0  0  0  0
 33 31  1  0  0  0  0
 34 40  1  6  0  0  0
 34 35  1  0  0  0  0
 34 39  1  0  0  0  0
 35 31  1  6  0  0  0
 35 36  1  0  0  0  0
 36 37  1  0  0  0  0
 37 38  1  0  0  0  0
 38 42  1  1  0  0  0
 39 44  1  6  0  0  0
 39 38  1  0  0  0  0
 41 40  1  0  0  0  0
 43 42  1  0  0  0  0
 45 44  1  0  0  0  0
M  END
>  <minimizedAffinity>
-6.20098495

>  <minimizedRMSD>
2.24932194

$$$$
