
 OpenBabel03242523303D

 25 26  0  0  1  0  0  0  0  0999 V2000
   46.1440   31.5000   45.2110 S   0  0  0  0  0  0  0  0  0  0  0  0
   48.3540   29.8610   45.5620 C   0  0  1  0  0  3  0  0  0  0  0  0
   46.9980   30.2050   46.0930 C   0  0  2  0  0  3  0  0  0  0  0  0
   46.1870   29.0990   46.2860 O   0  0  0  0  0  0  0  0  0  0  0  0
   46.6580   28.2480   47.2790 C   0  0  0  0  0  2  0  0  0  0  0  0
   48.0960   28.4350   47.6300 C   0  0  1  0  0  3  0  0  0  0  0  0
   48.9040   28.7120   46.3830 C   0  0  1  0  0  3  0  0  0  0  0  0
   48.3320   29.4550   44.2240 O   0  0  0  0  0  0  0  0  0  0  0  0
   47.7020   28.7140   44.1240 H   0  0  0  0  0  0  0  0  0  0  0  0
   48.3320   29.3250   48.6670 O   0  0  0  0  0  0  0  0  0  0  0  0
   49.0110   29.0100   49.3100 H   0  0  0  0  0  0  0  0  0  0  0  0
   48.8790   27.5270   45.6430 O   0  0  0  0  0  0  0  0  0  0  0  0
   49.7690   27.3270   45.2270 H   0  0  0  0  0  0  0  0  0  0  0  0
   45.9870   33.0520   46.1180 C   0  0  0  0  0  0  0  0  0  0  0  0
   46.9850   33.3520   46.5560 H   0  0  0  0  0  0  0  0  0  0  0  0
   45.2700   32.9580   46.9620 H   0  0  0  0  0  0  0  0  0  0  0  0
   44.4900   36.0470   44.5250 C   0  0  0  0  0  0  0  0  0  0  0  0
   45.1330   36.0300   43.3000 C   0  0  0  0  0  0  0  0  0  0  0  0
   46.0640   35.0090   43.0200 C   0  0  0  0  0  0  0  0  0  0  0  0
   46.3130   34.0500   43.9740 N   0  0  0  0  0  0  0  0  0  0  0  0
   45.6560   34.1140   45.1560 C   0  0  0  0  0  0  0  0  0  0  0  0
   44.7670   35.0930   45.4180 N   0  0  0  0  0  0  0  0  0  0  0  0
   43.8030   36.8640   44.6320 H   0  0  0  0  0  0  0  0  0  0  0  0
   45.0530   36.7020   42.4450 H   0  0  0  0  0  0  0  0  0  0  0  0
   46.6200   34.9100   42.0930 H   0  0  0  0  0  0  0  0  0  0  0  0
  1 14  1  0  0  0  0
  2  8  1  6  0  0  0
  2  3  1  0  0  0  0
  2  7  1  0  0  0  0
  3  1  1  6  0  0  0
  3  4  1  0  0  0  0
  4  5  1  0  0  0  0
  5  6  1  0  0  0  0
  6 10  1  1  0  0  0
  7 12  1  6  0  0  0
  7  6  1  0  0  0  0
  9  8  1  0  0  0  0
 10 11  1  0  0  0  0
 13 12  1  0  0  0  0
 14 15  1  0  0  0  0
 14 16  1  0  0  0  0
 17 23  1  0  0  0  0
 17 22  1  0  0  0  0
 18 17  2  0  0  0  0
 19 18  1  0  0  0  0
 19 20  2  0  0  0  0
 20 21  1  0  0  0  0
 21 22  2  0  0  0  0
 21 14  1  0  0  0  0
 24 18  1  0  0  0  0
 25 19  1  0  0  0  0
M  END
>  <minimizedAffinity>
-3.89105177

>  <minimizedRMSD>
0.84953481

$$$$
