
     RDKit          3D

 28 29  0  0  0  0  0  0  0  0999 V2000
   44.5179   36.0423   44.5413 C   0  0  0  0  0  0  0  0  0  0  0  0
   45.1765   36.0571   43.3099 C   0  0  0  0  0  0  0  0  0  0  0  0
   46.0801   35.0382   43.0144 C   0  0  0  0  0  0  0  0  0  0  0  0
   46.2768   34.0645   43.9586 N   0  0  0  0  0  0  0  0  0  0  0  0
   45.6274   34.0760   45.1377 C   0  0  0  0  0  0  0  0  0  0  0  0
   44.7467   35.0674   45.4280 N   0  0  0  0  0  0  0  0  0  0  0  0
   46.8016   34.9295   41.8330 O   0  0  0  0  0  0  0  0  0  0  0  0
   43.8223   36.8339   44.7592 H   0  0  0  0  0  0  0  0  0  0  0  0
   45.0331   36.8208   42.5494 H   0  0  0  0  0  0  0  0  0  0  0  0
   45.8932   33.2328   45.7797 H   0  0  0  0  0  0  0  0  0  0  0  0
   49.8748   34.7449   42.0225 O   0  0  0  0  0  0  0  0  0  0  0  0
   48.8738   33.9049   42.5165 C   0  0  1  0  0  0  0  0  0  0  0  0
   47.7076   33.8634   41.5963 C   0  0  1  0  0  0  0  0  0  0  0  0
   47.0047   32.7131   41.4912 O   0  0  0  0  0  0  0  0  0  0  0  0
   47.4232   31.6384   42.2372 C   0  0  0  0  0  0  0  0  0  0  0  0
   48.9096   31.5003   41.9487 C   0  0  2  0  0  0  0  0  0  0  0  0
   49.3636   30.2507   42.2608 O   0  0  0  0  0  0  0  0  0  0  0  0
   49.5205   32.5885   42.8137 C   0  0  1  0  0  0  0  0  0  0  0  0
   50.8923   32.5772   42.5371 O   0  0  0  0  0  0  0  0  0  0  0  0
   50.5555   34.9997   42.6654 H   0  0  0  0  0  0  0  0  0  0  0  0
   48.5435   34.3422   43.4823 H   0  0  0  0  0  0  0  0  0  0  0  0
   48.1062   34.0870   40.5634 H   0  0  0  0  0  0  0  0  0  0  0  0
   46.8681   30.7445   41.9252 H   0  0  0  0  0  0  0  0  0  0  0  0
   47.2587   31.8324   43.3303 H   0  0  0  0  0  0  0  0  0  0  0  0
   49.1281   31.8095   40.8933 H   0  0  0  0  0  0  0  0  0  0  0  0
   50.2305   30.3102   42.7276 H   0  0  0  0  0  0  0  0  0  0  0  0
   49.4220   32.2978   43.8848 H   0  0  0  0  0  0  0  0  0  0  0  0
   51.4408   32.5557   43.3753 H   0  0  0  0  0  0  0  0  0  0  0  0
  1  6  2  0
  2  1  1  0
  3  2  2  0
  3  4  1  0
  4  5  2  0
  5  6  1  0
  7  3  1  0
  1  8  1  0
  2  9  1  0
  5 10  1  0
 11 12  1  0
 12 13  1  0
 13 14  1  0
 14 15  1  0
 15 16  1  0
 16 17  1  0
 16 18  1  0
 18 19  1  0
 18 12  1  0
 11 20  1  0
 12 21  1  1
 13 22  1  6
 15 23  1  0
 15 24  1  0
 16 25  1  6
 17 26  1  0
 18 27  1  1
 19 28  1  0
  7 13  1  0
M  ISO  3   8  14   9  14  10  14
M  END
>  <DihAtoms>  (1) 
2,6,12,11

>  <DihDeg>  (1) 
114.2406486629493

$$$$
