
     RDKit          3D

 54 56  0  0  0  0  0  0  0  0999 V2000
   43.6546   34.9567   41.8836 C   0  0  0  0  0  0  0  0  0  0  0  0
   43.9042   33.6325   42.1841 C   0  0  0  0  0  0  0  0  0  0  0  0
   44.9755   33.3383   43.0088 C   0  0  0  0  0  0  0  0  0  0  0  0
   45.7607   34.3380   43.5086 C   0  0  0  0  0  0  0  0  0  0  0  0
   45.5223   35.6611   43.2165 C   0  0  0  0  0  0  0  0  0  0  0  0
   44.4462   35.9124   42.3918 C   0  0  0  0  0  0  0  0  0  0  0  0
   40.2328   35.7997   40.5188 C   0  0  0  0  0  0  0  0  0  0  0  0
   41.2624   35.5812   41.4519 C   0  0  0  0  0  0  0  0  0  0  0  0
   42.5126   35.2098   41.0095 C   0  0  0  0  0  0  0  0  0  0  0  0
   42.6811   35.0732   39.6634 N   0  0  0  0  0  0  0  0  0  0  0  0
   41.6806   35.2866   38.7733 C   0  0  0  0  0  0  0  0  0  0  0  0
   40.4682   35.6476   39.2151 N   0  0  0  0  0  0  0  0  0  0  0  0
   43.0448   32.5482   41.6363 C   0  0  0  0  0  0  0  0  0  0  0  0
   42.7074   31.5233   42.5683 N   0  0  0  0  0  0  0  0  0  0  0  0
   41.0313   31.1471   42.5610 S   0  0  0  0  0  0  0  0  0  0  0  0
   40.2017   32.3935   42.4446 O   0  0  0  0  0  0  0  0  0  0  0  0
   40.6486   30.3637   43.7757 O   0  0  0  0  0  0  0  0  0  0  0  0
   40.7633   30.1907   41.2056 O   0  0  0  0  0  0  0  0  0  0  0  0
   40.0817   29.0416   41.6050 C   0  0  0  0  0  0  0  0  0  0  0  0
   40.9151   27.8309   41.2091 C   0  0  0  0  0  0  0  0  0  0  0  0
   45.1724   32.2906   43.2462 H   0  0  0  0  0  0  0  0  0  0  0  0
   46.5775   34.0197   44.1455 H   0  0  0  0  0  0  0  0  0  0  0  0
   46.1579   36.4455   43.6232 H   0  0  0  0  0  0  0  0  0  0  0  0
   44.2019   36.9391   42.1210 H   0  0  0  0  0  0  0  0  0  0  0  0
   39.2534   36.0944   40.9211 H   0  0  0  0  0  0  0  0  0  0  0  0
   41.1455   35.6846   42.5141 H   0  0  0  0  0  0  0  0  0  0  0  0
   41.8706   35.1629   37.7065 H   0  0  0  0  0  0  0  0  0  0  0  0
   43.5175   32.1576   40.7020 H   0  0  0  0  0  0  0  0  0  0  0  0
   42.0767   33.0277   41.3240 H   0  0  0  0  0  0  0  0  0  0  0  0
   42.8931   31.8912   43.5406 H   0  0  0  0  0  0  0  0  0  0  0  0
   39.6095   32.6737   43.1643 H   0  0  0  0  0  0  0  0  0  0  0  0
   40.7473   30.7476   44.6700 H   0  0  0  0  0  0  0  0  0  0  0  0
   39.1604   29.0147   40.9881 H   0  0  0  0  0  0  0  0  0  0  0  0
   39.8137   29.0289   42.6676 H   0  0  0  0  0  0  0  0  0  0  0  0
   41.0763   27.8582   40.1213 H   0  0  0  0  0  0  0  0  0  0  0  0
   41.8867   27.8363   41.7633 H   0  0  0  0  0  0  0  0  0  0  0  0
   37.8640   26.0313   41.2845 O   0  0  0  0  0  0  0  0  0  0  0  0
   38.7392   26.8945   41.9906 C   0  0  2  0  0  0  0  0  0  0  0  0
   40.1585   26.6022   41.6564 C   0  0  2  0  0  0  0  0  0  0  0  0
   40.8887   26.0554   42.7061 O   0  0  0  0  0  0  0  0  0  0  0  0
   40.2211   25.0894   43.4172 C   0  0  0  0  0  0  0  0  0  0  0  0
   39.0296   25.6522   44.1527 C   0  0  2  0  0  0  0  0  0  0  0  0
   38.0674   24.6738   44.4029 O   0  0  0  0  0  0  0  0  0  0  0  0
   38.4004   26.8106   43.4582 C   0  0  2  0  0  0  0  0  0  0  0  0
   36.9933   26.6765   43.5030 O   0  0  0  0  0  0  0  0  0  0  0  0
   38.3233   25.6031   40.5349 H   0  0  0  0  0  0  0  0  0  0  0  0
   38.4488   27.9070   41.6431 H   0  0  0  0  0  0  0  0  0  0  0  0
   40.1732   25.8500   40.8239 H   0  0  0  0  0  0  0  0  0  0  0  0
   39.8394   24.2460   42.7811 H   0  0  0  0  0  0  0  0  0  0  0  0
   40.9565   24.6296   44.1088 H   0  0  0  0  0  0  0  0  0  0  0  0
   39.4017   25.9847   45.1662 H   0  0  0  0  0  0  0  0  0  0  0  0
   37.2514   25.1474   44.7049 H   0  0  0  0  0  0  0  0  0  0  0  0
   38.6166   27.7520   43.9952 H   0  0  0  0  0  0  0  0  0  0  0  0
   36.6675   27.4447   42.9332 H   0  0  0  0  0  0  0  0  0  0  0  0
  1  2  1  0
  1  6  2  0
  2  3  2  0
  3  4  1  0
  5  4  2  0
  6  5  1  0
  7  8  2  0
  9  8  1  0
  9  1  1  0
 10  9  2  0
 11 12  2  0
 11 10  1  0
 12  7  1  0
 13  2  1  0
 13 14  1  0
 15 14  1  0
 15 17  1  0
 16 15  1  0
 18 19  1  0
 18 15  1  0
 20 19  1  0
  3 21  1  0
  4 22  1  0
  5 23  1  0
  6 24  1  0
  7 25  1  0
  8 26  1  0
 11 27  1  0
 13 28  1  0
 13 29  1  0
 14 30  1  0
 16 31  1  0
 17 32  1  0
 19 33  1  0
 19 34  1  0
 20 35  1  0
 20 36  1  0
 37 38  1  0
 38 39  1  0
 39 40  1  0
 40 41  1  0
 41 42  1  0
 42 43  1  0
 42 44  1  0
 44 45  1  0
 44 38  1  0
 37 46  1  0
 38 47  1  6
 39 48  1  6
 41 49  1  0
 41 50  1  0
 42 51  1  1
 43 52  1  0
 44 53  1  1
 45 54  1  0
 20 39  1  0
M  ISO  8  21  14  22  14  23  14  24  14  25  14  26  14  27  14  28   8
M  ISO  8  29   8  30   5  31   3  32   3  33   8  34   8  35   8  36   8
M  END
>  <DihAtoms>  (1) 
18,19,38,37

>  <DihDeg>  (1) 
60.17457067771947

$$$$
