
 OpenBabel03242510483D

 42 44  0  0  1  0  0  0  0  0999 V2000
   47.2810   32.5610   40.8160 C   0  0  1  0  0  0  0  0  0  0  0  0
   48.5540   32.1360   40.2020 C   0  0  2  0  0  0  0  0  0  0  0  0
   49.6320   32.2080   41.1430 O   0  0  0  0  0  0  0  0  0  0  0  0
   49.8530   33.5750   41.3360 C   0  0  0  0  0  0  0  0  0  0  0  0
   48.7190   34.1780   42.1380 C   0  0  1  0  0  0  0  0  0  0  0  0
   47.4920   33.3010   42.1240 C   0  0  1  0  0  0  0  0  0  0  0  0
   46.6570   31.6710   41.0680 H   0  0  0  0  0  0  0  0  0  0  0  0
   48.5540   31.0420   39.9560 H   0  0  0  0  0  0  0  0  0  0  0  0
   50.0200   34.1050   40.3780 H   0  0  0  0  0  0  0  0  0  0  0  0
   50.8350   33.6280   41.8760 H   0  0  0  0  0  0  0  0  0  0  0  0
   48.4950   35.1980   41.7610 H   0  0  0  0  0  0  0  0  0  0  0  0
   47.4970   32.6280   43.0000 H   0  0  0  0  0  0  0  0  0  0  0  0
   46.5180   33.3400   39.9230 O   0  0  0  0  0  0  0  0  0  0  0  0
   45.9190   32.7520   39.3920 H   0  0  0  0  0  0  0  0  0  0  0  0
   49.1890   34.2440   43.4630 O   0  0  0  0  0  0  0  0  0  0  0  0
   49.2920   33.2910   43.7390 H   0  0  0  0  0  0  0  0  0  0  0  0
   48.9750   32.8750   39.0630 O   0  0  0  0  0  0  0  0  0  0  0  0
   51.5900   31.1840   37.2930 C   0  0  0  0  0  0  0  0  0  0  0  0
   50.9520   30.6850   36.1490 C   0  0  0  0  0  0  0  0  0  0  0  0
   49.5890   30.9470   35.9980 C   0  0  0  0  0  0  0  0  0  0  0  0
   48.9570   31.6680   36.9640 N   0  0  0  0  0  0  0  0  0  0  0  0
   49.5810   32.1320   38.0420 C   0  0  0  0  0  0  0  0  0  0  0  0
   50.9070   31.8950   38.2190 N   0  0  0  0  0  0  0  0  0  0  0  0
   51.4940   30.1130   35.4010 H   0  0  0  0  0  0  0  0  0  0  0  0
   49.0350   30.5940   35.1420 H   0  0  0  0  0  0  0  0  0  0  0  0
   53.0540   30.8910   37.4480 C   0  0  0  0  0  0  0  0  0  0  0  0
   53.7570   32.0170   37.7510 F   0  0  0  0  0  0  0  0  0  0  0  0
   53.1960   29.9020   38.4100 F   0  0  0  0  0  0  0  0  0  0  0  0
   53.5190   30.3000   36.2510 F   0  0  0  0  0  0  0  0  0  0  0  0
   46.3780   34.1580   42.2990 O   0  0  0  0  0  0  0  0  0  0  0  0
   44.0930   34.0110   42.7060 C   0  0  1  0  0  0  0  0  0  0  0  0
   45.4680   33.6090   43.2330 C   0  0  2  0  0  0  0  0  0  0  0  0
   45.7360   34.2520   44.4190 O   0  0  0  0  0  0  0  0  0  0  0  0
   44.7760   35.1190   44.8680 C   0  0  0  0  0  0  0  0  0  0  0  0
   44.2870   36.1230   43.8710 C   0  0  2  0  0  0  0  0  0  0  0  0
   44.2140   35.5090   42.4960 C   0  0  2  0  0  0  0  0  0  0  0  0
   43.7950   33.3290   41.5510 O   0  0  0  0  0  0  0  0  0  0  0  0
   43.9270   32.3700   41.7410 H   0  0  0  0  0  0  0  0  0  0  0  0
   44.9850   37.3230   43.8780 O   0  0  0  0  0  0  0  0  0  0  0  0
   44.3580   38.0020   43.4740 H   0  0  0  0  0  0  0  0  0  0  0  0
   43.1630   36.0170   41.7440 O   0  0  0  0  0  0  0  0  0  0  0  0
   43.3630   35.8180   40.7740 H   0  0  0  0  0  0  0  0  0  0  0  0
  1  7  1  1  0  0  0
  1  6  1  0  0  0  0
  2  8  1  6  0  0  0
  2  1  1  0  0  0  0
  2  3  1  0  0  0  0
  3  4  1  0  0  0  0
  4 10  1  0  0  0  0
  4  5  1  0  0  0  0
  5 11  1  6  0  0  0
  5 15  1  0  0  0  0
  6  5  1  0  0  0  0
  6 30  1  0  0  0  0
  6 12  1  1  0  0  0
  9  4  1  0  0  0  0
 13  1  1  0  0  0  0
 14 13  1  0  0  0  0
 15 16  1  0  0  0  0
 17  2  1  0  0  0  0
 18 26  1  0  0  0  0
 18 23  1  0  0  0  0
 19 18  2  0  0  0  0
 20 19  1  0  0  0  0
 20 21  2  0  0  0  0
 21 22  1  0  0  0  0
 22 23  2  0  0  0  0
 22 17  1  0  0  0  0
 24 19  1  0  0  0  0
 25 20  1  0  0  0  0
 26 27  1  0  0  0  0
 26 28  1  0  0  0  0
 29 26  1  0  0  0  0
 31 37  1  6  0  0  0
 31 32  1  0  0  0  0
 32 30  1  6  0  0  0
 32 33  1  0  0  0  0
 33 34  1  0  0  0  0
 35 39  1  6  0  0  0
 35 34  1  0  0  0  0
 36 41  1  1  0  0  0
 36 31  1  0  0  0  0
 36 35  1  0  0  0  0
 37 38  1  0  0  0  0
 40 39  1  0  0  0  0
 42 41  1  0  0  0  0
M  END
>  <minimizedAffinity>
-5.17680788

>  <minimizedRMSD>
3.07242227

$$$$
