
 OpenBabel03252507463D

 40 42  0  0  1  0  0  0  0  0999 V2000
   48.8150   33.7600   41.4180 C   0  0  0  0  0  0  0  0  0  0  0  0
   48.7430   32.3980   41.2000 C   0  0  0  0  0  0  0  0  0  0  0  0
   49.7620   31.5460   41.6010 C   0  0  0  0  0  0  0  0  0  0  0  0
   50.8400   32.1250   42.2250 N   0  0  0  0  0  0  0  0  0  0  0  0
   50.8740   33.4560   42.4200 C   0  0  0  0  0  0  0  0  0  0  0  0
   49.8890   34.2490   42.0270 N   0  0  0  0  0  0  0  0  0  0  0  0
   49.7100   30.4800   41.4330 H   0  0  0  0  0  0  0  0  0  0  0  0
   51.7050   33.9510   42.9070 H   0  0  0  0  0  0  0  0  0  0  0  0
   47.6800   34.5780   40.9530 C   0  0  0  0  0  0  0  0  0  0  0  0
   46.9700   33.9750   40.3470 H   0  0  0  0  0  0  0  0  0  0  0  0
   48.0210   35.4110   40.2960 H   0  0  0  0  0  0  0  0  0  0  0  0
   46.8650   35.1440   42.0890 C   0  0  0  0  0  0  0  0  0  0  0  0
   47.1750   36.2000   42.2480 H   0  0  0  0  0  0  0  0  0  0  0  0
   47.1000   34.5480   42.9930 H   0  0  0  0  0  0  0  0  0  0  0  0
   45.3950   35.0330   41.8950 C   0  0  0  0  0  0  0  0  0  0  0  0
   44.5130   35.7070   42.7900 C   0  0  0  0  0  0  0  0  0  0  0  0
   42.8500   35.2660   42.1390 S   0  0  0  0  0  0  0  0  0  0  0  0
   43.6410   34.2300   40.7480 C   0  0  0  0  0  0  0  0  0  0  0  0
   44.7510   34.3650   40.9640 N   0  0  0  0  0  0  0  0  0  0  0  0
   44.7800   36.3180   43.6320 H   0  0  0  0  0  0  0  0  0  0  0  0
   42.8910   33.5460   39.7900 O   0  0  0  0  0  0  0  0  0  0  0  0
   41.0390   33.5720   37.8990 O   0  0  0  0  0  0  0  0  0  0  0  0
   41.9570   34.4750   38.7190 P   0  0  0  0  0  0  0  0  0  0  0  0
   41.0320   35.5480   39.6280 O   0  0  0  0  0  0  0  0  0  0  0  0
   40.2110   35.7310   39.1270 H   0  0  0  0  0  0  0  0  0  0  0  0
   42.9860   35.3660   37.7010 O   0  0  0  0  0  0  0  0  0  0  0  0
   42.5600   35.6870   36.8900 H   0  0  0  0  0  0  0  0  0  0  0  0
   47.2950   31.6930   40.3730 S   0  0  0  0  0  0  0  0  0  0  0  0
   49.2330   30.4220   39.0200 C   0  0  2  0  0  3  0  0  0  0  0  0
   47.7860   30.8950   38.8550 C   0  0  2  0  0  3  0  0  0  0  0  0
   47.6890   31.8410   37.8330 O   0  0  0  0  0  0  0  0  0  0  0  0
   48.7690   32.7120   37.9790 C   0  0  0  0  0  2  0  0  0  0  0  0
   49.9350   32.0720   37.2620 C   0  0  2  0  0  3  0  0  0  0  0  0
   50.0190   30.6370   37.7470 C   0  0  1  0  0  3  0  0  0  0  0  0
   49.2510   29.0540   39.2870 O   0  0  0  0  0  0  0  0  0  0  0  0
   50.1780   28.7760   39.3220 H   0  0  0  0  0  0  0  0  0  0  0  0
   51.1140   32.7820   37.4850 O   0  0  0  0  0  0  0  0  0  0  0  0
   51.9090   32.2180   37.3360 H   0  0  0  0  0  0  0  0  0  0  0  0
   51.3430   30.3220   38.0160 O   0  0  0  0  0  0  0  0  0  0  0  0
   51.5720   30.2600   38.9600 H   0  0  0  0  0  0  0  0  0  0  0  0
  1  6  1  0  0  0  0
  2  1  2  0  0  0  0
  2  3  1  0  0  0  0
  3  4  2  0  0  0  0
  4  5  1  0  0  0  0
  5  8  1  0  0  0  0
  6  5  2  0  0  0  0
  7  3  1  0  0  0  0
  9  1  1  0  0  0  0
  9 12  1  0  0  0  0
 10  9  1  0  0  0  0
 11  9  1  0  0  0  0
 12 13  1  0  0  0  0
 12 14  1  0  0  0  0
 15 12  1  0  0  0  0
 15 16  2  0  0  0  0
 16 20  1  0  0  0  0
 17 16  1  0  0  0  0
 18 19  2  0  0  0  0
 18 17  1  0  0  0  0
 19 15  1  0  0  0  0
 21 18  1  0  0  0  0
 22 23  2  0  0  0  0
 23 24  1  0  0  0  0
 23 21  1  0  0  0  0
 25 24  1  0  0  0  0
 26 23  1  0  0  0  0
 27 26  1  0  0  0  0
 28  2  1  0  0  0  0
 29 35  1  6  0  0  0
 30 29  1  0  0  0  0
 30 28  1  1  0  0  0
 31 32  1  0  0  0  0
 31 30  1  0  0  0  0
 33 37  1  1  0  0  0
 33 34  1  0  0  0  0
 33 32  1  0  0  0  0
 34 39  1  1  0  0  0
 34 29  1  0  0  0  0
 35 36  1  0  0  0  0
 38 37  1  0  0  0  0
 39 40  1  0  0  0  0
M  END
>  <minimizedAffinity>
-4.9981575

>  <minimizedRMSD>
1.15731096

$$$$
