
 OpenBabel03242521433D

 41 43  0  0  1  0  0  0  0  0999 V2000
   45.1990   35.8070   44.1180 C   0  0  0  0  0  0  0  0  0  0  0  0
   46.1500   35.0250   43.4630 C   0  0  0  0  0  0  0  0  0  0  0  0
   46.6080   33.8430   44.0680 C   0  0  0  0  0  0  0  0  0  0  0  0
   46.0910   33.5330   45.2630 N   0  0  0  0  0  0  0  0  0  0  0  0
   45.1690   34.3030   45.8850 C   0  0  0  0  0  0  0  0  0  0  0  0
   44.7200   35.4400   45.3170 N   0  0  0  0  0  0  0  0  0  0  0  0
   46.4960   35.3670   42.5070 H   0  0  0  0  0  0  0  0  0  0  0  0
   44.8080   33.9770   46.8460 H   0  0  0  0  0  0  0  0  0  0  0  0
   48.6130   33.8710   42.6110 C   0  0  2  0  0  0  0  0  0  0  0  0
   47.6000   33.0610   43.3430 C   0  0  2  0  0  0  0  0  0  0  0  0
   47.0560   32.2860   42.2770 O   0  0  0  0  0  0  0  0  0  0  0  0
   48.1950   31.7640   41.6980 C   0  0  0  0  0  0  0  0  0  0  0  0
   49.3390   32.7120   41.8940 C   0  0  1  0  0  0  0  0  0  0  0  0
   48.1870   34.4560   41.7680 H   0  0  0  0  0  0  0  0  0  0  0  0
   48.0700   32.3230   43.9920 H   0  0  0  0  0  0  0  0  0  0  0  0
   48.0340   31.4570   40.6500 H   0  0  0  0  0  0  0  0  0  0  0  0
   48.4480   30.8320   42.2550 H   0  0  0  0  0  0  0  0  0  0  0  0
   50.1450   32.3350   42.5370 H   0  0  0  0  0  0  0  0  0  0  0  0
   49.4170   34.6360   43.3970 O   0  0  0  0  0  0  0  0  0  0  0  0
   50.2740   34.8530   42.9160 H   0  0  0  0  0  0  0  0  0  0  0  0
   49.8990   33.1960   40.7180 O   0  0  0  0  0  0  0  0  0  0  0  0
   50.5880   32.6100   40.3640 H   0  0  0  0  0  0  0  0  0  0  0  0
   44.7310   37.0740   43.4490 C   0  0  0  0  0  0  0  0  0  0  0  0
   45.2920   37.2330   42.5290 H   0  0  0  0  0  0  0  0  0  0  0  0
   43.6400   36.9770   43.2630 H   0  0  0  0  0  0  0  0  0  0  0  0
   45.2850   39.4880   44.0670 C   0  0  0  0  0  0  0  0  0  0  0  0
   45.4230   39.7830   42.8480 O   0  0  0  0  0  0  0  0  0  0  0  0
   44.9910   38.1500   44.4010 N   0  0  0  0  0  0  0  0  0  0  0  0
   44.9560   37.9080   45.4200 H   0  0  0  0  0  0  0  0  0  0  0  0
   44.6580   41.7680   44.8870 C   0  0  2  0  0  3  0  0  0  0  0  0
   45.4240   40.5090   45.1660 C   0  0  1  0  0  3  0  0  0  0  0  0
   45.1280   39.9520   46.3970 O   0  0  0  0  0  0  0  0  0  0  0  0
   44.2200   40.6320   47.1620 C   0  0  0  0  0  2  0  0  0  0  0  0
   44.5030   42.1070   47.2850 C   0  0  2  0  0  3  0  0  0  0  0  0
   45.0400   42.7150   46.0320 C   0  0  2  0  0  3  0  0  0  0  0  0
   43.2790   41.5980   44.8870 O   0  0  0  0  0  0  0  0  0  0  0  0
   42.8640   42.4910   44.9530 H   0  0  0  0  0  0  0  0  0  0  0  0
   45.4020   42.3890   48.3060 O   0  0  0  0  0  0  0  0  0  0  0  0
   46.1200   41.7070   48.2980 H   0  0  0  0  0  0  0  0  0  0  0  0
   44.4580   43.9380   45.7220 O   0  0  0  0  0  0  0  0  0  0  0  0
   45.1530   44.6600   45.7250 H   0  0  0  0  0  0  0  0  0  0  0  0
  1  6  1  0  0  0  0
  2  3  1  0  0  0  0
  2  1  2  0  0  0  0
  3  4  2  0  0  0  0
  4  5  1  0  0  0  0
  5  8  1  0  0  0  0
  6  5  2  0  0  0  0
  7  2  1  0  0  0  0
  9 14  1  6  0  0  0
  9 10  1  0  0  0  0
  9 19  1  0  0  0  0
 10 15  1  1  0  0  0
 10  3  1  0  0  0  0
 11 10  1  0  0  0  0
 12 13  1  0  0  0  0
 12 17  1  0  0  0  0
 12 11  1  0  0  0  0
 13 18  1  1  0  0  0
 13  9  1  0  0  0  0
 16 12  1  0  0  0  0
 20 19  1  0  0  0  0
 21 13  1  0  0  0  0
 22 21  1  0  0  0  0
 23  1  1  0  0  0  0
 23 28  1  0  0  0  0
 24 23  1  0  0  0  0
 25 23  1  0  0  0  0
 26 28  1  0  0  0  0
 27 26  2  0  0  0  0
 28 29  1  0  0  0  0
 30 36  1  1  0  0  0
 30 31  1  0  0  0  0
 30 35  1  0  0  0  0
 31 26  1  6  0  0  0
 31 32  1  0  0  0  0
 32 33  1  0  0  0  0
 33 34  1  0  0  0  0
 34 38  1  1  0  0  0
 35 40  1  6  0  0  0
 35 34  1  0  0  0  0
 36 37  1  0  0  0  0
 39 38  1  0  0  0  0
 40 41  1  0  0  0  0
M  END
>  <minimizedAffinity>
-2.94511008

>  <minimizedRMSD>
0.965895474

$$$$
