
 OpenBabel03242520493D

 22 23  0  0  1  0  0  0  0  0999 V2000
   36.5940   30.5470   40.6950 C   0  0  1  0  0  3  0  0  0  0  0  0
   36.0690   29.4530   39.8360 C   0  0  1  0  0  3  0  0  0  0  0  0
   36.6310   29.2540   38.6230 O   0  0  0  0  0  0  0  0  0  0  0  0
   37.6520   30.0910   38.2470 C   0  0  0  0  0  2  0  0  0  0  0  0
   37.1270   31.4990   38.4780 C   0  0  1  0  0  3  0  0  0  0  0  0
   37.2760   31.6700   39.9790 C   0  0  1  0  0  3  0  0  0  0  0  0
   35.5760   31.1170   41.4630 O   0  0  0  0  0  0  0  0  0  0  0  0
   35.8760   31.6690   42.2030 H   0  0  0  0  0  0  0  0  0  0  0  0
   37.8360   32.4200   37.7610 O   0  0  0  0  0  0  0  0  0  0  0  0
   38.0240   33.2130   38.3160 H   0  0  0  0  0  0  0  0  0  0  0  0
   36.7320   32.9240   40.2820 O   0  0  0  0  0  0  0  0  0  0  0  0
   37.3510   33.4710   40.8480 H   0  0  0  0  0  0  0  0  0  0  0  0
   36.0200   28.2130   40.5230 O   0  0  0  0  0  0  0  0  0  0  0  0
   37.8220   27.4520   43.6790 C   0  0  0  0  0  0  0  0  0  0  0  0
   36.7720   27.8390   42.8450 C   0  0  0  0  0  0  0  0  0  0  0  0
   36.9720   27.8500   41.4660 C   0  0  0  0  0  0  0  0  0  0  0  0
   38.2050   27.4760   40.9970 N   0  0  0  0  0  0  0  0  0  0  0  0
   39.1990   27.1050   41.8260 C   0  0  0  0  0  0  0  0  0  0  0  0
   39.0060   27.0940   43.1680 N   0  0  0  0  0  0  0  0  0  0  0  0
   37.6560   27.4470   44.7430 H   0  0  0  0  0  0  0  0  0  0  0  0
   35.7890   28.1410   43.2000 H   0  0  0  0  0  0  0  0  0  0  0  0
   40.1170   26.8360   41.2970 H   0  0  0  0  0  0  0  0  0  0  0  0
  1  7  1  6  0  0  0
  2 13  1  1  0  0  0
  2  1  1  0  0  0  0
  3  2  1  0  0  0  0
  4  5  1  0  0  0  0
  4  3  1  0  0  0  0
  5  9  1  6  0  0  0
  5  6  1  0  0  0  0
  6 11  1  1  0  0  0
  6  1  1  0  0  0  0
  7  8  1  0  0  0  0
  9 10  1  0  0  0  0
 11 12  1  0  0  0  0
 13 16  1  0  0  0  0
 14 20  1  0  0  0  0
 15 21  1  0  0  0  0
 15 14  2  0  0  0  0
 16 15  1  0  0  0  0
 17 16  2  0  0  0  0
 17 18  1  0  0  0  0
 18 19  2  0  0  0  0
 19 14  1  0  0  0  0
 22 18  1  0  0  0  0
M  END
>  <minimizedAffinity>
-5.47641754

$$$$

 OpenBabel03242520493D

 22 23  0  0  1  0  0  0  0  0999 V2000
   38.2630   32.3960   40.3060 C   0  0  1  0  0  3  0  0  0  0  0  0
   36.9610   31.7830   39.9340 C   0  0  1  0  0  3  0  0  0  0  0  0
   36.9080   30.9750   38.8520 O   0  0  0  0  0  0  0  0  0  0  0  0
   38.0690   30.7780   38.1450 C   0  0  0  0  0  2  0  0  0  0  0  0
   38.6150   32.1710   37.8700 C   0  0  1  0  0  3  0  0  0  0  0  0
   39.2540   32.5470   39.1950 C   0  0  1  0  0  3  0  0  0  0  0  0
   38.0820   33.6640   40.8610 O   0  0  0  0  0  0  0  0  0  0  0  0
   38.8520   34.0230   41.3310 H   0  0  0  0  0  0  0  0  0  0  0  0
   39.5020   32.1620   36.8310 O   0  0  0  0  0  0  0  0  0  0  0  0
   40.2850   32.7200   37.0470 H   0  0  0  0  0  0  0  0  0  0  0  0
   39.7120   33.8610   39.0440 O   0  0  0  0  0  0  0  0  0  0  0  0
   40.6640   33.9600   39.3380 H   0  0  0  0  0  0  0  0  0  0  0  0
   36.3540   31.1150   41.0300 O   0  0  0  0  0  0  0  0  0  0  0  0
   36.7710   27.4840   41.6860 C   0  0  0  0  0  0  0  0  0  0  0  0
   36.2190   28.6530   41.1580 C   0  0  0  0  0  0  0  0  0  0  0  0
   36.7980   29.8800   41.4810 C   0  0  0  0  0  0  0  0  0  0  0  0
   37.8900   29.8720   42.3090 N   0  0  0  0  0  0  0  0  0  0  0  0
   38.4010   28.7280   42.8030 C   0  0  0  0  0  0  0  0  0  0  0  0
   37.8390   27.5340   42.4900 N   0  0  0  0  0  0  0  0  0  0  0  0
   36.3160   26.5430   41.4300 H   0  0  0  0  0  0  0  0  0  0  0  0
   35.3530   28.6780   40.5010 H   0  0  0  0  0  0  0  0  0  0  0  0
   39.2690   28.8910   43.4450 H   0  0  0  0  0  0  0  0  0  0  0  0
  1  7  1  6  0  0  0
  2  1  1  0  0  0  0
  2 13  1  1  0  0  0
  3  2  1  0  0  0  0
  4  3  1  0  0  0  0
  5  9  1  6  0  0  0
  5  4  1  0  0  0  0
  5  6  1  0  0  0  0
  6 11  1  6  0  0  0
  6  1  1  0  0  0  0
  7  8  1  0  0  0  0
  9 10  1  0  0  0  0
 11 12  1  0  0  0  0
 13 16  1  0  0  0  0
 14 19  1  0  0  0  0
 15 16  1  0  0  0  0
 15 14  2  0  0  0  0
 16 17  2  0  0  0  0
 17 18  1  0  0  0  0
 18 22  1  0  0  0  0
 19 18  2  0  0  0  0
 20 14  1  0  0  0  0
 21 15  1  0  0  0  0
M  END
>  <minimizedAffinity>
-5.21854019

$$$$

 OpenBabel03242520493D

 22 23  0  0  1  0  0  0  0  0999 V2000
   37.1150   30.8730   41.2350 C   0  0  1  0  0  3  0  0  0  0  0  0
   37.4900   29.5460   40.6820 C   0  0  1  0  0  3  0  0  0  0  0  0
   38.6320   29.4400   39.9660 O   0  0  0  0  0  0  0  0  0  0  0  0
   39.3760   30.5790   39.7780 C   0  0  0  0  0  2  0  0  0  0  0  0
   38.3970   31.6200   39.2590 C   0  0  1  0  0  3  0  0  0  0  0  0
   37.6780   32.0620   40.5210 C   0  0  1  0  0  3  0  0  0  0  0  0
   35.7290   31.0360   41.2590 O   0  0  0  0  0  0  0  0  0  0  0  0
   35.4070   31.7670   41.8090 H   0  0  0  0  0  0  0  0  0  0  0  0
   39.0460   32.6420   38.6270 O   0  0  0  0  0  0  0  0  0  0  0  0
   38.6560   33.5090   38.8910 H   0  0  0  0  0  0  0  0  0  0  0  0
   36.6950   32.9700   40.1090 O   0  0  0  0  0  0  0  0  0  0  0  0
   36.7190   33.8140   40.6470 H   0  0  0  0  0  0  0  0  0  0  0  0
   37.4810   28.5330   41.6750 O   0  0  0  0  0  0  0  0  0  0  0  0
   37.0250   24.8510   41.8280 C   0  0  0  0  0  0  0  0  0  0  0  0
   37.3290   26.1400   42.2670 C   0  0  0  0  0  0  0  0  0  0  0  0
   37.2120   27.2040   41.3740 C   0  0  0  0  0  0  0  0  0  0  0  0
   36.7990   26.9240   40.0980 N   0  0  0  0  0  0  0  0  0  0  0  0
   36.5110   25.6690   39.7020 C   0  0  0  0  0  0  0  0  0  0  0  0
   36.6250   24.6330   40.5700 N   0  0  0  0  0  0  0  0  0  0  0  0
   37.1190   24.0360   42.5260 H   0  0  0  0  0  0  0  0  0  0  0  0
   37.6590   26.3810   43.2760 H   0  0  0  0  0  0  0  0  0  0  0  0
   36.1970   25.6130   38.6580 H   0  0  0  0  0  0  0  0  0  0  0  0
  1  7  1  6  0  0  0
  2  1  1  0  0  0  0
  2 13  1  1  0  0  0
  3  2  1  0  0  0  0
  4  3  1  0  0  0  0
  5  9  1  1  0  0  0
  5  4  1  0  0  0  0
  5  6  1  0  0  0  0
  6 11  1  6  0  0  0
  6  1  1  0  0  0  0
  7  8  1  0  0  0  0
  9 10  1  0  0  0  0
 11 12  1  0  0  0  0
 14 15  1  0  0  0  0
 14 20  1  0  0  0  0
 15 21  1  0  0  0  0
 16 13  1  0  0  0  0
 16 15  2  0  0  0  0
 17 16  1  0  0  0  0
 18 17  2  0  0  0  0
 18 19  1  0  0  0  0
 19 14  2  0  0  0  0
 22 18  1  0  0  0  0
M  END
>  <minimizedAffinity>
-5.09778786

$$$$

 OpenBabel03242520493D

 22 23  0  0  1  0  0  0  0  0999 V2000
   38.1320   32.2140   40.3360 C   0  0  1  0  0  3  0  0  0  0  0  0
   38.5360   30.7890   40.4520 C   0  0  1  0  0  3  0  0  0  0  0  0
   39.5110   30.3230   39.6400 O   0  0  0  0  0  0  0  0  0  0  0  0
   40.0630   31.1980   38.7370 C   0  0  0  0  0  2  0  0  0  0  0  0
   38.8840   31.8300   38.0140 C   0  0  1  0  0  3  0  0  0  0  0  0
   38.3940   32.8630   39.0130 C   0  0  1  0  0  3  0  0  0  0  0  0
   36.7700   32.3740   40.6010 O   0  0  0  0  0  0  0  0  0  0  0  0
   36.4860   33.2870   40.7690 H   0  0  0  0  0  0  0  0  0  0  0  0
   39.2660   32.3770   36.8220 O   0  0  0  0  0  0  0  0  0  0  0  0
   38.8410   33.2590   36.7000 H   0  0  0  0  0  0  0  0  0  0  0  0
   37.2490   33.4350   38.4460 O   0  0  0  0  0  0  0  0  0  0  0  0
   37.2850   34.4360   38.4660 H   0  0  0  0  0  0  0  0  0  0  0  0
   38.8490   30.4310   41.7890 O   0  0  0  0  0  0  0  0  0  0  0  0
   38.6590   27.1970   43.6040 C   0  0  0  0  0  0  0  0  0  0  0  0
   39.2230   28.3670   43.0930 C   0  0  0  0  0  0  0  0  0  0  0  0
   38.4220   29.2370   42.3550 C   0  0  0  0  0  0  0  0  0  0  0  0
   37.1080   28.8920   42.1680 N   0  0  0  0  0  0  0  0  0  0  0  0
   36.5920   27.7570   42.6740 C   0  0  0  0  0  0  0  0  0  0  0  0
   37.3700   26.9090   43.3930 N   0  0  0  0  0  0  0  0  0  0  0  0
   39.2870   26.5330   44.1730 H   0  0  0  0  0  0  0  0  0  0  0  0
   40.2620   28.6560   43.2300 H   0  0  0  0  0  0  0  0  0  0  0  0
   35.5330   27.6270   42.4390 H   0  0  0  0  0  0  0  0  0  0  0  0
  1  2  1  0  0  0  0
  1  7  1  6  0  0  0
  2 13  1  1  0  0  0
  3  2  1  0  0  0  0
  4  3  1  0  0  0  0
  5  9  1  6  0  0  0
  5  4  1  0  0  0  0
  5  6  1  0  0  0  0
  6 11  1  6  0  0  0
  6  1  1  0  0  0  0
  7  8  1  0  0  0  0
 10  9  1  0  0  0  0
 11 12  1  0  0  0  0
 13 16  1  0  0  0  0
 14 20  1  0  0  0  0
 15 21  1  0  0  0  0
 15 14  2  0  0  0  0
 16 15  1  0  0  0  0
 17 16  2  0  0  0  0
 17 18  1  0  0  0  0
 18 19  2  0  0  0  0
 19 14  1  0  0  0  0
 22 18  1  0  0  0  0
M  END
>  <minimizedAffinity>
-4.99824762

$$$$

 OpenBabel03242520493D

 22 23  0  0  1  0  0  0  0  0999 V2000
   37.4980   31.5940   40.1500 C   0  0  1  0  0  3  0  0  0  0  0  0
   38.9360   31.6900   40.5100 C   0  0  1  0  0  3  0  0  0  0  0  0
   39.5520   30.6010   41.0210 O   0  0  0  0  0  0  0  0  0  0  0  0
   38.8010   29.4640   41.1920 C   0  0  0  0  0  2  0  0  0  0  0  0
   37.5640   29.9080   41.9560 C   0  0  1  0  0  3  0  0  0  0  0  0
   36.7120   30.5450   40.8730 C   0  0  1  0  0  3  0  0  0  0  0  0
   36.8430   32.8080   40.3660 O   0  0  0  0  0  0  0  0  0  0  0  0
   35.9720   32.8890   39.9440 H   0  0  0  0  0  0  0  0  0  0  0  0
   36.9510   28.8530   42.5690 O   0  0  0  0  0  0  0  0  0  0  0  0
   35.9730   28.9120   42.4520 H   0  0  0  0  0  0  0  0  0  0  0  0
   35.5810   31.0560   41.5200 O   0  0  0  0  0  0  0  0  0  0  0  0
   34.7340   30.7750   41.0650 H   0  0  0  0  0  0  0  0  0  0  0  0
   39.7210   32.1970   39.4420 O   0  0  0  0  0  0  0  0  0  0  0  0
   42.5800   34.1520   40.7780 C   0  0  0  0  0  0  0  0  0  0  0  0
   41.2840   33.6410   40.6940 C   0  0  0  0  0  0  0  0  0  0  0  0
   40.9650   32.7770   39.6470 C   0  0  0  0  0  0  0  0  0  0  0  0
   41.9530   32.4730   38.7470 N   0  0  0  0  0  0  0  0  0  0  0  0
   43.1950   32.9810   38.8540 C   0  0  0  0  0  0  0  0  0  0  0  0
   43.5070   33.8220   39.8720 N   0  0  0  0  0  0  0  0  0  0  0  0
   42.8150   34.8190   41.5910 H   0  0  0  0  0  0  0  0  0  0  0  0
   40.4880   33.8710   41.3980 H   0  0  0  0  0  0  0  0  0  0  0  0
   43.8650   32.6430   38.0600 H   0  0  0  0  0  0  0  0  0  0  0  0
  1  7  1  1  0  0  0
  1  2  1  0  0  0  0
  1  6  1  0  0  0  0
  2 13  1  6  0  0  0
  2  3  1  0  0  0  0
  3  4  1  0  0  0  0
  4  5  1  0  0  0  0
  5  9  1  6  0  0  0
  6 11  1  1  0  0  0
  6  5  1  0  0  0  0
  8  7  1  0  0  0  0
 10  9  1  0  0  0  0
 12 11  1  0  0  0  0
 13 16  1  0  0  0  0
 14 20  1  0  0  0  0
 15 14  1  0  0  0  0
 15 21  1  0  0  0  0
 16 15  2  0  0  0  0
 17 18  2  0  0  0  0
 17 16  1  0  0  0  0
 18 19  1  0  0  0  0
 19 14  2  0  0  0  0
 22 18  1  0  0  0  0
M  END
>  <minimizedAffinity>
-4.86680412

$$$$

 OpenBabel03242520493D

 22 23  0  0  1  0  0  0  0  0999 V2000
   37.7620   31.5140   40.6480 C   0  0  1  0  0  3  0  0  0  0  0  0
   38.9290   31.6260   41.5610 C   0  0  1  0  0  3  0  0  0  0  0  0
   39.3510   30.5200   42.2140 O   0  0  0  0  0  0  0  0  0  0  0  0
   38.6610   29.3510   42.0040 C   0  0  0  0  0  2  0  0  0  0  0  0
   37.1980   29.7000   42.2290 C   0  0  1  0  0  3  0  0  0  0  0  0
   36.8160   30.3900   40.9320 C   0  0  1  0  0  3  0  0  0  0  0  0
   37.0070   32.6880   40.6500 O   0  0  0  0  0  0  0  0  0  0  0  0
   36.3740   32.7740   39.9190 H   0  0  0  0  0  0  0  0  0  0  0  0
   36.4540   28.5830   42.4820 O   0  0  0  0  0  0  0  0  0  0  0  0
   35.6020   28.6220   41.9850 H   0  0  0  0  0  0  0  0  0  0  0  0
   35.4920   30.8160   41.0970 O   0  0  0  0  0  0  0  0  0  0  0  0
   34.9150   30.5450   40.3250 H   0  0  0  0  0  0  0  0  0  0  0  0
   40.0440   32.2340   40.9300 O   0  0  0  0  0  0  0  0  0  0  0  0
   40.8120   32.1210   37.2980 C   0  0  0  0  0  0  0  0  0  0  0  0
   40.3320   32.6250   38.5090 C   0  0  0  0  0  0  0  0  0  0  0  0
   40.4740   31.8580   39.6640 C   0  0  0  0  0  0  0  0  0  0  0  0
   41.0840   30.6360   39.5480 N   0  0  0  0  0  0  0  0  0  0  0  0
   41.5380   30.1760   38.3670 C   0  0  0  0  0  0  0  0  0  0  0  0
   41.4000   30.9210   37.2420 N   0  0  0  0  0  0  0  0  0  0  0  0
   40.6970   32.7210   36.4120 H   0  0  0  0  0  0  0  0  0  0  0  0
   39.8450   33.5910   38.6190 H   0  0  0  0  0  0  0  0  0  0  0  0
   41.9980   29.1880   38.4420 H   0  0  0  0  0  0  0  0  0  0  0  0
  1  7  1  1  0  0  0
  1  6  1  0  0  0  0
  1  2  1  0  0  0  0
  2 13  1  6  0  0  0
  2  3  1  0  0  0  0
  4  3  1  0  0  0  0
  4  5  1  0  0  0  0
  5  9  1  6  0  0  0
  6 11  1  1  0  0  0
  6  5  1  0  0  0  0
  8  7  1  0  0  0  0
 10  9  1  0  0  0  0
 12 11  1  0  0  0  0
 14 15  1  0  0  0  0
 15 21  1  0  0  0  0
 15 16  2  0  0  0  0
 16 13  1  0  0  0  0
 17 16  1  0  0  0  0
 18 22  1  0  0  0  0
 18 17  2  0  0  0  0
 19 14  2  0  0  0  0
 19 18  1  0  0  0  0
 20 14  1  0  0  0  0
M  END
>  <minimizedAffinity>
-4.83586121

$$$$

 OpenBabel03242520493D

 22 23  0  0  1  0  0  0  0  0999 V2000
   37.3790   30.6610   38.7890 C   0  0  1  0  0  3  0  0  0  0  0  0
   38.3720   30.5400   39.8870 C   0  0  1  0  0  3  0  0  0  0  0  0
   39.3720   31.4470   39.9620 O   0  0  0  0  0  0  0  0  0  0  0  0
   39.4180   32.4270   39.0000 C   0  0  0  0  0  2  0  0  0  0  0  0
   39.3260   31.6930   37.6710 C   0  0  1  0  0  3  0  0  0  0  0  0
   37.8440   31.3820   37.5630 C   0  0  1  0  0  3  0  0  0  0  0  0
   36.9320   29.4050   38.3730 O   0  0  0  0  0  0  0  0  0  0  0  0
   36.1280   29.4110   37.8300 H   0  0  0  0  0  0  0  0  0  0  0  0
   39.7880   32.4650   36.6440 O   0  0  0  0  0  0  0  0  0  0  0  0
   39.1880   32.3890   35.8650 H   0  0  0  0  0  0  0  0  0  0  0  0
   37.6920   30.6290   36.3930 O   0  0  0  0  0  0  0  0  0  0  0  0
   36.9600   30.9890   35.8120 H   0  0  0  0  0  0  0  0  0  0  0  0
   37.7520   30.4420   41.1590 O   0  0  0  0  0  0  0  0  0  0  0  0
   36.9660   27.3090   42.9910 C   0  0  0  0  0  0  0  0  0  0  0  0
   36.7520   28.4360   42.1970 C   0  0  0  0  0  0  0  0  0  0  0  0
   37.8220   29.2890   41.9300 C   0  0  0  0  0  0  0  0  0  0  0  0
   39.0410   28.9700   42.4690 N   0  0  0  0  0  0  0  0  0  0  0  0
   39.2180   27.8750   43.2310 C   0  0  0  0  0  0  0  0  0  0  0  0
   38.1780   27.0440   43.4920 N   0  0  0  0  0  0  0  0  0  0  0  0
   36.1320   26.6570   43.1910 H   0  0  0  0  0  0  0  0  0  0  0  0
   35.7920   28.7050   41.7620 H   0  0  0  0  0  0  0  0  0  0  0  0
   40.2460   27.7610   43.5840 H   0  0  0  0  0  0  0  0  0  0  0  0
  1  7  1  6  0  0  0
  1  2  1  0  0  0  0
  2  3  1  0  0  0  0
  2 13  1  1  0  0  0
  4  3  1  0  0  0  0
  5  9  1  6  0  0  0
  5  4  1  0  0  0  0
  6 11  1  6  0  0  0
  6  5  1  0  0  0  0
  6  1  1  0  0  0  0
  8  7  1  0  0  0  0
 10  9  1  0  0  0  0
 12 11  1  0  0  0  0
 13 16  1  0  0  0  0
 14 20  1  0  0  0  0
 14 19  1  0  0  0  0
 15 14  2  0  0  0  0
 16 15  1  0  0  0  0
 16 17  2  0  0  0  0
 17 18  1  0  0  0  0
 18 19  2  0  0  0  0
 18 22  1  0  0  0  0
 21 15  1  0  0  0  0
M  END
>  <minimizedAffinity>
-4.68816376

$$$$

 OpenBabel03242520493D

 22 23  0  0  1  0  0  0  0  0999 V2000
   39.0750   32.0130   38.8300 C   0  0  1  0  0  3  0  0  0  0  0  0
   38.9280   30.7160   39.5390 C   0  0  1  0  0  3  0  0  0  0  0  0
   39.9840   29.8720   39.5750 O   0  0  0  0  0  0  0  0  0  0  0  0
   41.1350   30.2610   38.9350 C   0  0  0  0  0  2  0  0  0  0  0  0
   40.7010   30.6730   37.5370 C   0  0  1  0  0  3  0  0  0  0  0  0
   40.1230   32.0590   37.7620 C   0  0  1  0  0  3  0  0  0  0  0  0
   37.8740   32.4000   38.2340 O   0  0  0  0  0  0  0  0  0  0  0  0
   37.8300   33.3290   37.9550 H   0  0  0  0  0  0  0  0  0  0  0  0
   41.7530   30.6660   36.6670 O   0  0  0  0  0  0  0  0  0  0  0  0
   41.7240   31.4670   36.0910 H   0  0  0  0  0  0  0  0  0  0  0  0
   39.6230   32.4740   36.5220 O   0  0  0  0  0  0  0  0  0  0  0  0
   39.9410   33.3930   36.2820 H   0  0  0  0  0  0  0  0  0  0  0  0
   38.4350   30.8820   40.8590 O   0  0  0  0  0  0  0  0  0  0  0  0
   36.3210   28.0100   41.8940 C   0  0  0  0  0  0  0  0  0  0  0  0
   36.8290   29.0180   41.0740 C   0  0  0  0  0  0  0  0  0  0  0  0
   37.8400   29.8440   41.5630 C   0  0  0  0  0  0  0  0  0  0  0  0
   38.2860   29.6190   42.8400 N   0  0  0  0  0  0  0  0  0  0  0  0
   37.7770   28.6370   43.6080 C   0  0  0  0  0  0  0  0  0  0  0  0
   36.7930   27.8330   43.1340 N   0  0  0  0  0  0  0  0  0  0  0  0
   35.5400   27.3780   41.5060 H   0  0  0  0  0  0  0  0  0  0  0  0
   36.4870   29.2120   40.0590 H   0  0  0  0  0  0  0  0  0  0  0  0
   38.2380   28.5880   44.5980 H   0  0  0  0  0  0  0  0  0  0  0  0
  1  7  1  6  0  0  0
  1  2  1  0  0  0  0
  2  3  1  0  0  0  0
  2 13  1  1  0  0  0
  4  3  1  0  0  0  0
  5  9  1  6  0  0  0
  5  6  1  0  0  0  0
  5  4  1  0  0  0  0
  6 11  1  6  0  0  0
  6  1  1  0  0  0  0
  8  7  1  0  0  0  0
 10  9  1  0  0  0  0
 12 11  1  0  0  0  0
 13 16  1  0  0  0  0
 14 19  1  0  0  0  0
 15 16  1  0  0  0  0
 15 14  2  0  0  0  0
 16 17  2  0  0  0  0
 17 18  1  0  0  0  0
 18 22  1  0  0  0  0
 19 18  2  0  0  0  0
 20 14  1  0  0  0  0
 21 15  1  0  0  0  0
M  END
>  <minimizedAffinity>
-4.68568182

$$$$

 OpenBabel03242520493D

 22 23  0  0  1  0  0  0  0  0999 V2000
   37.2820   30.1770   39.8000 C   0  0  1  0  0  3  0  0  0  0  0  0
   38.7480   29.9590   39.8980 C   0  0  1  0  0  3  0  0  0  0  0  0
   39.2160   29.1010   40.8320 O   0  0  0  0  0  0  0  0  0  0  0  0
   38.3010   28.4870   41.6510 C   0  0  0  0  0  2  0  0  0  0  0  0
   37.4340   29.6090   42.2000 C   0  0  1  0  0  3  0  0  0  0  0  0
   36.4960   29.9040   41.0440 C   0  0  1  0  0  3  0  0  0  0  0  0
   36.9920   31.4890   39.4200 O   0  0  0  0  0  0  0  0  0  0  0  0
   36.0830   31.6410   39.1170 H   0  0  0  0  0  0  0  0  0  0  0  0
   36.7810   29.2230   43.3360 O   0  0  0  0  0  0  0  0  0  0  0  0
   35.8450   29.5340   43.3120 H   0  0  0  0  0  0  0  0  0  0  0  0
   35.7140   30.9920   41.4490 O   0  0  0  0  0  0  0  0  0  0  0  0
   34.7370   30.8230   41.3020 H   0  0  0  0  0  0  0  0  0  0  0  0
   39.3230   29.6250   38.6450 O   0  0  0  0  0  0  0  0  0  0  0  0
   42.2920   30.8550   36.7840 C   0  0  0  0  0  0  0  0  0  0  0  0
   41.4000   29.9400   37.3480 C   0  0  0  0  0  0  0  0  0  0  0  0
   40.2870   30.4180   38.0370 C   0  0  0  0  0  0  0  0  0  0  0  0
   40.1250   31.7760   38.1260 N   0  0  0  0  0  0  0  0  0  0  0  0
   41.0020   32.6350   37.5720 C   0  0  0  0  0  0  0  0  0  0  0  0
   42.0860   32.1720   36.9010 N   0  0  0  0  0  0  0  0  0  0  0  0
   43.1480   30.4750   36.2550 H   0  0  0  0  0  0  0  0  0  0  0  0
   41.5130   28.8600   37.2880 H   0  0  0  0  0  0  0  0  0  0  0  0
   40.7320   33.6820   37.7300 H   0  0  0  0  0  0  0  0  0  0  0  0
  1  7  1  1  0  0  0
  1  2  1  0  0  0  0
  1  6  1  0  0  0  0
  2 13  1  6  0  0  0
  2  3  1  0  0  0  0
  3  4  1  0  0  0  0
  4  5  1  0  0  0  0
  5  9  1  1  0  0  0
  6 11  1  1  0  0  0
  6  5  1  0  0  0  0
  8  7  1  0  0  0  0
 10  9  1  0  0  0  0
 12 11  1  0  0  0  0
 14 19  2  0  0  0  0
 14 15  1  0  0  0  0
 15 16  2  0  0  0  0
 16 17  1  0  0  0  0
 16 13  1  0  0  0  0
 18 22  1  0  0  0  0
 18 17  2  0  0  0  0
 19 18  1  0  0  0  0
 20 14  1  0  0  0  0
 21 15  1  0  0  0  0
M  END
>  <minimizedAffinity>
-4.68268681

$$$$
