
 OpenBabel03252508033D

 45 48  0  0  1  0  0  0  0  0999 V2000
   41.7450   33.3350   41.3620 C   0  0  0  0  0  0  0  0  0  0  0  0
   42.7000   34.3330   41.2890 C   0  0  0  0  0  0  0  0  0  0  0  0
   42.2890   35.6290   40.9980 C   0  0  0  0  0  0  0  0  0  0  0  0
   40.9630   35.9320   40.7820 C   0  0  0  0  0  0  0  0  0  0  0  0
   40.0100   34.9520   40.8500 C   0  0  0  0  0  0  0  0  0  0  0  0
   40.4150   33.6820   41.1370 C   0  0  0  0  0  0  0  0  0  0  0  0
   42.9670   36.4790   40.9160 H   0  0  0  0  0  0  0  0  0  0  0  0
   40.6510   36.9300   40.5590 H   0  0  0  0  0  0  0  0  0  0  0  0
   38.9820   35.1550   40.6870 H   0  0  0  0  0  0  0  0  0  0  0  0
   39.6620   32.9030   41.1910 H   0  0  0  0  0  0  0  0  0  0  0  0
   42.1690   31.7390   41.6170 S   0  0  0  0  0  0  0  0  0  0  0  0
   42.2720   31.1160   40.2670 O   0  0  0  0  0  0  0  0  0  0  0  0
   40.9680   31.0900   42.4010 O   0  0  0  0  0  0  0  0  0  0  0  0
   42.8230   29.4040   42.5190 C   0  0  2  0  0  3  0  0  0  0  0  0
   43.2870   30.8540   42.4210 C   0  0  1  0  0  3  0  0  0  0  0  0
   44.5640   30.6890   41.8150 O   0  0  0  0  0  0  0  0  0  0  0  0
   45.3820   29.8290   42.5040 C   0  0  0  0  0  2  0  0  0  0  0  0
   45.0740   28.4500   41.9440 C   0  0  1  0  0  3  0  0  0  0  0  0
   43.5850   28.4300   41.6740 C   0  0  2  0  0  3  0  0  0  0  0  0
   41.4780   29.2850   42.0870 O   0  0  0  0  0  0  0  0  0  0  0  0
   41.3820   28.8150   41.2450 H   0  0  0  0  0  0  0  0  0  0  0  0
   45.7130   28.2860   40.7160 O   0  0  0  0  0  0  0  0  0  0  0  0
   45.7640   27.2950   40.5470 H   0  0  0  0  0  0  0  0  0  0  0  0
   43.3070   28.6120   40.3380 O   0  0  0  0  0  0  0  0  0  0  0  0
   44.0890   28.6890   39.7640 H   0  0  0  0  0  0  0  0  0  0  0  0
   44.1320   34.0830   41.5080 C   0  0  0  0  0  0  0  0  0  0  0  0
   44.9470   33.7160   40.6010 O   0  0  0  0  0  0  0  0  0  0  0  0
   44.5340   34.2980   42.8640 C   0  0  0  0  0  0  0  0  0  0  0  0
   44.2900   35.6030   43.3950 C   0  0  0  0  0  0  0  0  0  0  0  0
   44.6580   35.8250   44.7240 C   0  0  0  0  0  0  0  0  0  0  0  0
   45.2170   34.7970   45.4170 N   0  0  0  0  0  0  0  0  0  0  0  0
   45.4290   33.5620   44.8590 C   0  0  0  0  0  0  0  0  0  0  0  0
   45.0860   33.3830   43.6390 N   0  0  0  0  0  0  0  0  0  0  0  0
   43.8610   36.4400   42.9060 H   0  0  0  0  0  0  0  0  0  0  0  0
   44.5150   36.7850   45.2230 H   0  0  0  0  0  0  0  0  0  0  0  0
   46.0220   32.4980   45.6950 C   0  0  1  0  0  0  0  0  0  0  0  0
   46.9380   32.8870   46.8320 C   0  0  0  0  0  0  0  0  0  0  0  0
   45.5290   32.4600   47.0950 C   0  0  1  0  0  0  0  0  0  0  0  0
   46.2380   31.5330   45.2310 H   0  0  0  0  0  0  0  0  0  0  0  0
   47.2580   33.9400   46.9270 H   0  0  0  0  0  0  0  0  0  0  0  0
   47.7250   32.1850   47.1580 H   0  0  0  0  0  0  0  0  0  0  0  0
   45.3480   31.5070   47.6150 H   0  0  0  0  0  0  0  0  0  0  0  0
   44.7160   33.5470   47.6110 N   0  0  0  0  0  0  0  0  0  0  0  0
   43.9270   33.1960   48.2120 H   0  0  0  0  0  0  0  0  0  0  0  0
   45.2540   34.1940   48.2490 H   0  0  0  0  0  0  0  0  0  0  0  0
  1 11  1  0  0  0  0
  2  1  1  0  0  0  0
  2 26  1  0  0  0  0
  3  2  2  0  0  0  0
  4  5  2  0  0  0  0
  4  3  1  0  0  0  0
  5  6  1  0  0  0  0
  6 10  1  0  0  0  0
  6  1  2  0  0  0  0
  7  3  1  0  0  0  0
  8  4  1  0  0  0  0
  9  5  1  0  0  0  0
 11 13  2  0  0  0  0
 12 11  2  0  0  0  0
 14 20  1  6  0  0  0
 15 11  1  6  0  0  0
 15 14  1  0  0  0  0
 16 15  1  0  0  0  0
 16 17  1  0  0  0  0
 18 22  1  6  0  0  0
 18 17  1  0  0  0  0
 19 24  1  6  0  0  0
 19 18  1  0  0  0  0
 19 14  1  0  0  0  0
 21 20  1  0  0  0  0
 23 22  1  0  0  0  0
 25 24  1  0  0  0  0
 26 28  1  0  0  0  0
 27 26  2  0  0  0  0
 28 29  2  0  0  0  0
 28 33  1  0  0  0  0
 29 30  1  0  0  0  0
 30 35  1  0  0  0  0
 30 31  2  0  0  0  0
 32 31  1  0  0  0  0
 32 36  1  0  0  0  0
 33 32  2  0  0  0  0
 34 29  1  0  0  0  0
 36 39  1  6  0  0  0
 36 37  1  0  0  0  0
 36 38  1  0  0  0  0
 37 40  1  0  0  0  0
 37 38  1  0  0  0  0
 37 41  1  0  0  0  0
 38 43  1  0  0  0  0
 38 42  1  1  0  0  0
 43 44  1  0  0  0  0
 43 45  1  0  0  0  0
M  END
>  <minimizedAffinity>
-5.87475061

>  <minimizedRMSD>
0.6177755

$$$$
