
 OpenBabel03242517103D

 50 53  0  0  1  0  0  0  0  0999 V2000
   46.1940   33.6420   43.3650 C   0  0  2  0  0  0  0  0  0  0  0  0
   45.3220   34.6410   42.6860 C   0  0  2  0  0  0  0  0  0  0  0  0
   45.1360   35.8820   43.4780 C   0  0  0  0  0  0  0  0  0  0  0  0
   44.6890   35.6540   44.8990 C   0  0  0  0  0  0  0  0  0  0  0  0
   45.2670   34.4220   45.5310 C   0  0  0  0  0  0  0  0  0  0  0  0
   46.5120   33.9480   44.8020 C   0  0  0  0  0  0  0  0  0  0  0  0
   45.6650   32.6410   43.3540 H   0  0  0  0  0  0  0  0  0  0  0  0
   45.8020   34.9300   41.7300 H   0  0  0  0  0  0  0  0  0  0  0  0
   44.3920   36.5410   42.9840 H   0  0  0  0  0  0  0  0  0  0  0  0
   46.0740   36.4800   43.5220 H   0  0  0  0  0  0  0  0  0  0  0  0
   44.8150   36.5610   45.4930 H   0  0  0  0  0  0  0  0  0  0  0  0
   43.5780   35.4670   44.8310 H   0  0  0  0  0  0  0  0  0  0  0  0
   45.6180   34.7110   46.5600 H   0  0  0  0  0  0  0  0  0  0  0  0
   44.5640   33.5780   45.6230 H   0  0  0  0  0  0  0  0  0  0  0  0
   47.3090   34.6570   44.9870 H   0  0  0  0  0  0  0  0  0  0  0  0
   46.8110   32.9910   45.3020 H   0  0  0  0  0  0  0  0  0  0  0  0
   43.0340   34.9190   41.6470 C   0  0  1  0  0  0  0  0  0  0  0  0
   43.9890   34.0160   42.3360 C   0  0  1  0  0  0  0  0  0  0  0  0
   44.2300   32.9170   41.5190 O   0  0  0  0  0  0  0  0  0  0  0  0
   43.8730   33.2550   40.2260 C   0  0  0  0  0  0  0  0  0  0  0  0
   42.5890   34.0350   40.4720 C   0  0  2  0  0  0  0  0  0  0  0  0
   43.4820   35.8520   41.2600 H   0  0  0  0  0  0  0  0  0  0  0  0
   43.5670   33.6160   43.3030 H   0  0  0  0  0  0  0  0  0  0  0  0
   44.6340   33.9490   39.8310 H   0  0  0  0  0  0  0  0  0  0  0  0
   43.7130   32.3680   39.6180 H   0  0  0  0  0  0  0  0  0  0  0  0
   41.7980   33.3340   40.7570 H   0  0  0  0  0  0  0  0  0  0  0  0
   41.9190   35.2350   42.3920 O   0  0  0  0  0  0  0  0  0  0  0  0
   41.5250   34.3780   42.7180 H   0  0  0  0  0  0  0  0  0  0  0  0
   42.2550   34.8350   39.3900 O   0  0  0  0  0  0  0  0  0  0  0  0
   40.4460   34.0210   38.0220 C   0  0  2  0  0  0  0  0  0  0  0  0
   40.9100   34.9220   39.1390 C   0  0  1  0  0  0  0  0  0  0  0  0
   40.2410   34.5550   40.3090 O   0  0  0  0  0  0  0  0  0  0  0  0
   38.9490   35.0680   40.2110 C   0  0  0  0  0  0  0  0  0  0  0  0
   38.2200   34.2820   39.1450 C   0  0  1  0  0  0  0  0  0  0  0  0
   38.9630   34.2460   37.8340 C   0  0  2  0  0  0  0  0  0  0  0  0
   40.6570   32.6810   38.2460 O   0  0  0  0  0  0  0  0  0  0  0  0
   40.8450   32.1590   37.4340 H   0  0  0  0  0  0  0  0  0  0  0  0
   37.9960   32.9990   39.6020 O   0  0  0  0  0  0  0  0  0  0  0  0
   37.7390   32.4180   38.8210 H   0  0  0  0  0  0  0  0  0  0  0  0
   38.4050   33.2300   37.0600 O   0  0  0  0  0  0  0  0  0  0  0  0
   38.4500   33.4370   36.0770 H   0  0  0  0  0  0  0  0  0  0  0  0
   47.4610   33.4180   42.6430 C   0  0  0  0  0  0  0  0  0  0  0  0
   48.4740   34.3310   42.9370 C   0  0  0  0  0  0  0  0  0  0  0  0
   49.7280   34.2230   42.3180 C   0  0  0  0  0  0  0  0  0  0  0  0
   49.8620   33.1680   41.4210 N   0  0  0  0  0  0  0  0  0  0  0  0
   48.8540   32.3050   41.1630 C   0  0  0  0  0  0  0  0  0  0  0  0
   47.6480   32.4230   41.7710 N   0  0  0  0  0  0  0  0  0  0  0  0
   48.5180   35.1900   43.5880 H   0  0  0  0  0  0  0  0  0  0  0  0
   50.5820   34.8400   42.4440 H   0  0  0  0  0  0  0  0  0  0  0  0
   49.0800   31.5240   40.4460 H   0  0  0  0  0  0  0  0  0  0  0  0
  1  7  1  6  0  0  0
  1  6  1  0  0  0  0
  2  8  1  6  0  0  0
  2  1  1  0  0  0  0
  2  3  1  0  0  0  0
  3 10  1  0  0  0  0
  3  4  1  0  0  0  0
  4 11  1  0  0  0  0
  4  5  1  0  0  0  0
  5 14  1  0  0  0  0
  5 13  1  0  0  0  0
  6 15  1  0  0  0  0
  6 16  1  0  0  0  0
  6  5  1  0  0  0  0
  9  3  1  0  0  0  0
 12  4  1  0  0  0  0
 17 22  1  6  0  0  0
 17 18  1  0  0  0  0
 17 27  1  0  0  0  0
 18  2  1  0  0  0  0
 18 23  1  1  0  0  0
 19 18  1  0  0  0  0
 20 21  1  0  0  0  0
 20 19  1  0  0  0  0
 21 26  1  1  0  0  0
 21 17  1  0  0  0  0
 24 20  1  0  0  0  0
 25 20  1  0  0  0  0
 27 28  1  0  0  0  0
 29 21  1  0  0  0  0
 30 36  1  1  0  0  0
 30 31  1  0  0  0  0
 31 29  1  1  0  0  0
 31 32  1  0  0  0  0
 33 32  1  0  0  0  0
 34 38  1  1  0  0  0
 34 33  1  0  0  0  0
 35 40  1  6  0  0  0
 35 30  1  0  0  0  0
 35 34  1  0  0  0  0
 37 36  1  0  0  0  0
 39 38  1  0  0  0  0
 41 40  1  0  0  0  0
 42 43  1  0  0  0  0
 42  1  1  0  0  0  0
 43 48  1  0  0  0  0
 44 49  1  0  0  0  0
 44 43  2  0  0  0  0
 45 44  1  0  0  0  0
 46 45  2  0  0  0  0
 46 47  1  0  0  0  0
 47 42  2  0  0  0  0
 50 46  1  0  0  0  0
M  END
>  <minimizedAffinity>
-6.47816086

>  <minimizedRMSD>
0.921763837

$$$$
