
     RDKit          3D

 28 29  0  0  0  0  0  0  0  0999 V2000
   44.5179   36.0423   44.5413 C   0  0  0  0  0  0  0  0  0  0  0  0
   45.1765   36.0571   43.3099 C   0  0  0  0  0  0  0  0  0  0  0  0
   46.0801   35.0382   43.0144 C   0  0  0  0  0  0  0  0  0  0  0  0
   46.2768   34.0645   43.9586 N   0  0  0  0  0  0  0  0  0  0  0  0
   45.6274   34.0760   45.1377 C   0  0  0  0  0  0  0  0  0  0  0  0
   44.7467   35.0674   45.4280 N   0  0  0  0  0  0  0  0  0  0  0  0
   46.8016   34.9295   41.8330 O   0  0  0  0  0  0  0  0  0  0  0  0
   43.8223   36.8339   44.7592 H   0  0  0  0  0  0  0  0  0  0  0  0
   45.0331   36.8208   42.5494 H   0  0  0  0  0  0  0  0  0  0  0  0
   45.8932   33.2328   45.7797 H   0  0  0  0  0  0  0  0  0  0  0  0
   49.7267   34.8782   40.8553 O   0  0  0  0  0  0  0  0  0  0  0  0
   49.1077   34.2340   41.9294 C   0  0  1  0  0  0  0  0  0  0  0  0
   47.7076   33.8634   41.5963 C   0  0  1  0  0  0  0  0  0  0  0  0
   47.1924   32.7315   42.1269 O   0  0  0  0  0  0  0  0  0  0  0  0
   48.0060   31.9782   42.9376 C   0  0  0  0  0  0  0  0  0  0  0  0
   49.2905   31.7796   42.1489 C   0  0  2  0  0  0  0  0  0  0  0  0
   50.0059   30.7165   42.6212 O   0  0  0  0  0  0  0  0  0  0  0  0
   50.0049   33.1067   42.3338 C   0  0  1  0  0  0  0  0  0  0  0  0
   51.1696   33.0293   41.5617 O   0  0  0  0  0  0  0  0  0  0  0  0
   50.5481   35.3471   41.0719 H   0  0  0  0  0  0  0  0  0  0  0  0
   49.0880   34.9640   42.7660 H   0  0  0  0  0  0  0  0  0  0  0  0
   47.6683   33.7345   40.4748 H   0  0  0  0  0  0  0  0  0  0  0  0
   47.5141   31.0210   43.1530 H   0  0  0  0  0  0  0  0  0  0  0  0
   48.2209   32.5250   43.8938 H   0  0  0  0  0  0  0  0  0  0  0  0
   49.0646   31.7203   41.0522 H   0  0  0  0  0  0  0  0  0  0  0  0
   50.9639   30.9460   42.6711 H   0  0  0  0  0  0  0  0  0  0  0  0
   50.3442   33.1910   43.3918 H   0  0  0  0  0  0  0  0  0  0  0  0
   51.9806   33.3013   42.0834 H   0  0  0  0  0  0  0  0  0  0  0  0
  1  6  2  0
  2  1  1  0
  3  2  2  0
  3  4  1  0
  4  5  2  0
  5  6  1  0
  7  3  1  0
  1  8  1  0
  2  9  1  0
  5 10  1  0
 11 12  1  0
 12 13  1  0
 13 14  1  0
 14 15  1  0
 15 16  1  0
 16 17  1  0
 16 18  1  0
 18 19  1  0
 18 12  1  0
 11 20  1  0
 12 21  1  1
 13 22  1  6
 15 23  1  0
 15 24  1  0
 16 25  1  6
 17 26  1  0
 18 27  1  1
 19 28  1  0
  7 13  1  0
M  ISO  3   8  14   9  14  10  14
M  END
>  <DihAtoms>  (1) 
2,6,12,11

>  <DihDeg>  (1) 
114.2406486629493

$$$$
