
     RDKit          3D

 45 47  0  0  0  0  0  0  0  0999 V2000
   45.1355   33.5000   41.1541 F   0  0  0  0  0  0  0  0  0  0  0  0
   46.3348   34.0834   41.0483 C   0  0  0  0  0  0  0  0  0  0  0  0
   46.8406   34.8012   42.1184 C   0  0  0  0  0  0  0  0  0  0  0  0
   48.0762   35.4354   42.0900 C   0  0  0  0  0  0  0  0  0  0  0  0
   48.8529   35.3512   40.9336 C   0  0  0  0  0  0  0  0  0  0  0  0
   48.3153   34.6258   39.8857 C   0  0  0  0  0  0  0  0  0  0  0  0
   47.1092   34.0005   39.8976 C   0  0  0  0  0  0  0  0  0  0  0  0
   45.4519   34.0156   45.4232 C   0  0  0  0  0  0  0  0  0  0  0  0
   44.6041   35.1321   45.6541 C   0  0  0  0  0  0  0  0  0  0  0  0
   44.5196   36.1465   44.6663 C   0  0  0  0  0  0  0  0  0  0  0  0
   45.2749   35.9750   43.5393 N   0  0  0  0  0  0  0  0  0  0  0  0
   46.0607   34.9132   43.3553 C   0  0  0  0  0  0  0  0  0  0  0  0
   46.1444   33.9487   44.2885 N   0  0  0  0  0  0  0  0  0  0  0  0
   45.5168   33.0246   46.4202 N   0  0  0  0  0  0  0  0  0  0  0  0
   46.6780   33.3102   38.7991 O   0  0  0  0  0  0  0  0  0  0  0  0
   48.0627   34.6735   36.9986 O   0  0  0  0  0  0  0  0  0  0  0  0
   47.3294   33.3754   37.2495 P   0  0  2  0  0  0  0  0  0  0  0  0
   46.0542   33.1929   36.1246 O   0  0  0  0  0  0  0  0  0  0  0  0
   48.3797   32.0968   36.9317 O   0  0  0  0  0  0  0  0  0  0  0  0
   48.4102   35.9838   42.9717 H   0  0  0  0  0  0  0  0  0  0  0  0
   49.8056   35.8582   40.9542 H   0  0  0  0  0  0  0  0  0  0  0  0
   49.0221   34.6365   39.0603 H   0  0  0  0  0  0  0  0  0  0  0  0
   44.0340   35.2173   46.5544 H   0  0  0  0  0  0  0  0  0  0  0  0
   43.8904   36.9984   44.8118 H   0  0  0  0  0  0  0  0  0  0  0  0
   46.3782   32.6822   46.9404 H   0  0  0  0  0  0  0  0  0  0  0  0
   44.6729   32.4867   46.7770 H   0  0  0  0  0  0  0  0  0  0  0  0
   45.3767   32.6127   36.5415 H   0  0  0  0  0  0  0  0  0  0  0  0
   49.8013   31.4175   34.2683 O   0  0  0  0  0  0  0  0  0  0  0  0
   49.1722   30.5983   35.2196 C   0  0  1  0  0  0  0  0  0  0  0  0
   48.0139   31.2869   35.8985 C   0  0  2  0  0  0  0  0  0  0  0  0
   47.2674   31.9118   34.9110 O   0  0  0  0  0  0  0  0  0  0  0  0
   46.5538   30.8868   34.2652 C   0  0  0  0  0  0  0  0  0  0  0  0
   47.4614   29.8981   33.5972 C   0  0  1  0  0  0  0  0  0  0  0  0
   47.8564   30.3770   32.3706 O   0  0  0  0  0  0  0  0  0  0  0  0
   48.5935   29.4294   34.4468 C   0  0  2  0  0  0  0  0  0  0  0  0
   48.2812   28.3550   35.2763 O   0  0  0  0  0  0  0  0  0  0  0  0
   49.6943   32.3540   34.5698 H   0  0  0  0  0  0  0  0  0  0  0  0
   49.9108   30.2269   35.9592 H   0  0  0  0  0  0  0  0  0  0  0  0
   47.3810   30.4736   36.3142 H   0  0  0  0  0  0  0  0  0  0  0  0
   45.8507   31.2764   33.5098 H   0  0  0  0  0  0  0  0  0  0  0  0
   46.0261   30.3158   35.0778 H   0  0  0  0  0  0  0  0  0  0  0  0
   46.8198   28.9928   33.3958 H   0  0  0  0  0  0  0  0  0  0  0  0
   48.7974   30.6080   32.3041 H   0  0  0  0  0  0  0  0  0  0  0  0
   49.4183   29.0884   33.7602 H   0  0  0  0  0  0  0  0  0  0  0  0
   48.2634   27.5623   34.6835 H   0  0  0  0  0  0  0  0  0  0  0  0
  2  1  1  0
  2  3  2  0
  3 12  1  0
  4  3  1  0
  5  4  2  0
  6  7  2  0
  6  5  1  0
  7  2  1  0
  8  9  2  0
  8 14  1  0
 10  9  1  0
 11 10  2  0
 12 11  1  0
 12 13  2  0
 13  8  1  0
 15  7  1  0
 16 17  2  0
 17 15  1  1
 18 17  1  0
 19 17  1  0
  4 20  1  0
  5 21  1  0
  6 22  1  0
  9 23  1  0
 10 24  1  0
 14 25  1  0
 14 26  1  0
 18 27  1  0
 28 29  1  0
 29 30  1  0
 30 31  1  0
 31 32  1  0
 32 33  1  0
 33 34  1  0
 33 35  1  0
 35 36  1  0
 35 29  1  0
 28 37  1  0
 29 38  1  1
 30 39  1  1
 32 40  1  0
 32 41  1  0
 33 42  1  6
 34 43  1  0
 35 44  1  6
 36 45  1  0
 19 30  1  0
M  ISO  6  20  14  21  14  22  14  23  14  24  14  27   3
M  END
>  <DihAtoms>  (1) 
16,18,29,28

>  <DihDeg>  (1) 
-116.99691791199146

$$$$
