
 OpenBabel03242523493D

 29 31  0  0  1  0  0  0  0  0999 V2000
   44.6180   34.3270   41.6290 C   0  0  0  0  0  0  0  0  0  0  0  0
   45.8970   34.4470   41.0650 C   0  0  0  0  0  0  0  0  0  0  0  0
   46.9890   34.6100   41.9190 C   0  0  0  0  0  0  0  0  0  0  0  0
   46.7790   34.6460   43.2800 N   0  0  0  0  0  0  0  0  0  0  0  0
   45.5390   34.5260   43.7740 C   0  0  0  0  0  0  0  0  0  0  0  0
   44.4670   34.3680   42.9630 N   0  0  0  0  0  0  0  0  0  0  0  0
   46.1770   34.4330   40.0380 H   0  0  0  0  0  0  0  0  0  0  0  0
   45.3970   34.5570   44.8480 H   0  0  0  0  0  0  0  0  0  0  0  0
   48.3790   34.7250   41.3630 C   0  0  0  0  0  0  0  0  0  0  0  0
   49.0920   36.0330   41.4940 C   0  0  0  0  0  0  0  0  0  0  0  0
   49.5030   34.7890   42.2820 C   0  0  0  0  0  0  0  0  0  0  0  0
   48.4380   34.2640   40.3580 H   0  0  0  0  0  0  0  0  0  0  0  0
   49.8290   36.2730   40.7070 H   0  0  0  0  0  0  0  0  0  0  0  0
   48.6460   36.8850   42.0100 H   0  0  0  0  0  0  0  0  0  0  0  0
   50.4600   34.2980   42.0760 H   0  0  0  0  0  0  0  0  0  0  0  0
   49.2450   34.8850   43.3590 H   0  0  0  0  0  0  0  0  0  0  0  0
   43.5630   34.1730   40.8230 O   0  0  0  0  0  0  0  0  0  0  0  0
   42.8800   34.5720   38.6320 C   0  0  1  0  0  0  0  0  0  0  0  0
   42.9580   35.1630   40.0560 C   0  0  1  0  0  0  0  0  0  0  0  0
   41.6670   35.3170   40.5670 O   0  0  0  0  0  0  0  0  0  0  0  0
   40.7160   35.6220   39.6020 C   0  0  0  0  0  0  0  0  0  0  0  0
   40.4800   34.4580   38.6540 C   0  0  2  0  0  0  0  0  0  0  0  0
   41.7360   33.5780   38.7000 C   0  0  1  0  0  0  0  0  0  0  0  0
   42.5850   35.5930   37.7150 O   0  0  0  0  0  0  0  0  0  0  0  0
   43.0690   36.4230   38.0210 H   0  0  0  0  0  0  0  0  0  0  0  0
   40.4620   34.9670   37.3420 O   0  0  0  0  0  0  0  0  0  0  0  0
   40.8280   34.3110   36.6960 H   0  0  0  0  0  0  0  0  0  0  0  0
   41.7420   32.6750   37.6530 O   0  0  0  0  0  0  0  0  0  0  0  0
   42.5690   32.8430   37.1230 H   0  0  0  0  0  0  0  0  0  0  0  0
  1  6  1  0  0  0  0
  2  1  2  0  0  0  0
  2  3  1  0  0  0  0
  3  4  2  0  0  0  0
  4  5  1  0  0  0  0
  5  8  1  0  0  0  0
  6  5  2  0  0  0  0
  7  2  1  0  0  0  0
  9 10  1  0  0  0  0
  9  3  1  0  0  0  0
  9 11  1  0  0  0  0
 10 14  1  0  0  0  0
 10 11  1  0  0  0  0
 11 16  1  0  0  0  0
 12  9  1  0  0  0  0
 13 10  1  0  0  0  0
 15 11  1  0  0  0  0
 17  1  1  0  0  0  0
 18 24  1  6  0  0  0
 18 23  1  0  0  0  0
 18 19  1  0  0  0  0
 19 20  1  0  0  0  0
 19 17  1  1  0  0  0
 21 20  1  0  0  0  0
 22 26  1  6  0  0  0
 22 23  1  0  0  0  0
 22 21  1  0  0  0  0
 23 28  1  6  0  0  0
 24 25  1  0  0  0  0
 27 26  1  0  0  0  0
 29 28  1  0  0  0  0
M  END
>  <minimizedAffinity>
-6.06202126

>  <minimizedRMSD>
2.78992271

$$$$
