
 OpenBabel03252508003D

 32 34  0  0  1  0  0  0  0  0999 V2000
   47.0440   31.7750   44.7760 C   0  0  0  0  0  0  0  0  0  0  0  0
   46.8910   33.1910   44.6590 C   0  0  0  0  0  0  0  0  0  0  0  0
   46.0870   33.8150   45.6210 C   0  0  0  0  0  0  0  0  0  0  0  0
   45.5180   33.0510   46.5810 N   0  0  0  0  0  0  0  0  0  0  0  0
   45.7100   31.6890   46.6310 C   0  0  0  0  0  0  0  0  0  0  0  0
   46.4580   31.0560   45.7470 N   0  0  0  0  0  0  0  0  0  0  0  0
   47.3770   33.7390   43.8640 H   0  0  0  0  0  0  0  0  0  0  0  0
   45.9340   34.8790   45.5870 H   0  0  0  0  0  0  0  0  0  0  0  0
   45.0620   30.9180   47.7350 C   0  0  1  0  0  0  0  0  0  0  0  0
   45.9340   30.3110   48.8120 C   0  0  0  0  0  0  0  0  0  0  0  0
   45.1480   31.5700   49.0580 C   0  0  1  0  0  0  0  0  0  0  0  0
   44.1630   30.3240   47.5020 H   0  0  0  0  0  0  0  0  0  0  0  0
   47.0240   30.3750   48.5750 H   0  0  0  0  0  0  0  0  0  0  0  0
   45.6290   29.3570   49.2510 H   0  0  0  0  0  0  0  0  0  0  0  0
   44.3690   31.4510   49.8280 H   0  0  0  0  0  0  0  0  0  0  0  0
   45.9920   32.7260   49.2500 N   0  0  0  0  0  0  0  0  0  0  0  0
   46.9890   32.5950   49.1470 H   0  0  0  0  0  0  0  0  0  0  0  0
   45.5640   33.6320   49.1130 H   0  0  0  0  0  0  0  0  0  0  0  0
   47.8900   31.1860   43.7680 C   0  0  0  0  0  0  0  0  0  0  0  0
   48.8050   30.3280   44.0340 O   0  0  0  0  0  0  0  0  0  0  0  0
   49.1910   31.5860   41.7870 C   0  0  1  0  0  3  0  0  0  0  0  0
   47.7750   31.5260   42.3200 C   0  0  2  0  0  3  0  0  0  0  0  0
   47.1400   32.7610   42.2520 O   0  0  0  0  0  0  0  0  0  0  0  0
   47.1560   33.3000   40.9760 C   0  0  0  0  0  2  0  0  0  0  0  0
   48.5440   33.5280   40.4490 C   0  0  1  0  0  3  0  0  0  0  0  0
   49.2680   32.2120   40.4280 C   0  0  1  0  0  3  0  0  0  0  0  0
   49.9870   32.3150   42.6640 O   0  0  0  0  0  0  0  0  0  0  0  0
   49.8510   33.2960   42.5880 H   0  0  0  0  0  0  0  0  0  0  0  0
   48.4270   33.9360   39.1130 O   0  0  0  0  0  0  0  0  0  0  0  0
   49.0110   34.7120   38.9380 H   0  0  0  0  0  0  0  0  0  0  0  0
   50.6380   32.4560   40.1880 O   0  0  0  0  0  0  0  0  0  0  0  0
   51.1250   32.6190   41.0450 H   0  0  0  0  0  0  0  0  0  0  0  0
  1  6  1  0  0  0  0
  2  1  2  0  0  0  0
  2  3  1  0  0  0  0
  3  4  2  0  0  0  0
  4  5  1  0  0  0  0
  5  9  1  0  0  0  0
  6  5  2  0  0  0  0
  7  2  1  0  0  0  0
  8  3  1  0  0  0  0
  9 12  1  6  0  0  0
  9 10  1  0  0  0  0
  9 11  1  0  0  0  0
 10 11  1  0  0  0  0
 10 14  1  0  0  0  0
 11 16  1  0  0  0  0
 11 15  1  1  0  0  0
 13 10  1  0  0  0  0
 17 16  1  0  0  0  0
 18 16  1  0  0  0  0
 19 20  2  0  0  0  0
 19  1  1  0  0  0  0
 21 22  1  0  0  0  0
 21 27  1  1  0  0  0
 22 19  1  1  0  0  0
 23 22  1  0  0  0  0
 24 23  1  0  0  0  0
 25 29  1  6  0  0  0
 25 24  1  0  0  0  0
 26 31  1  1  0  0  0
 26 25  1  0  0  0  0
 26 21  1  0  0  0  0
 28 27  1  0  0  0  0
 30 29  1  0  0  0  0
 31 32  1  0  0  0  0
M  END
>  <minimizedAffinity>
-4.67605734

>  <minimizedRMSD>
3.26882958

$$$$
