REMARK  Name = 
REMARK  9 active torsions:
REMARK  status: ('A' for Active; 'I' for Inactive)
REMARK    1  A    between atoms: C_3  and  O_7
REMARK    2  A    between atoms: O_7  and  P_9
REMARK    3  A    between atoms: P_9  and  O_10
REMARK    4  A    between atoms: P_9  and  O_11
REMARK    5  A    between atoms: O_11  and  C_12
REMARK    6  A    between atoms: C_12  and  C_20
REMARK    7  A    between atoms: O_18  and  C_19
REMARK    8  A    between atoms: C_23  and  O_24
REMARK    9  A    between atoms: C_25  and  O_26
REMARK                            x       y       z     vdW  Elec       q    Type
REMARK                         _______ _______ _______ _____ _____    ______ ____
ROOT
ATOM      1  O   UNL     1      47.455  32.257  48.144  0.00  0.00    +0.000 OA
ENDROOT
BRANCH   1   3
ATOM      2  O   UNL     1      45.343  30.866  47.469  0.00  0.00    +0.000 OA
ATOM      3  P   UNL     1      45.813  32.102  48.270  0.00  0.00    +0.000 P 
BRANCH   3   4
ATOM      4  O   UNL     1      45.328  31.825  49.855  0.00  0.00    +0.000 OA
ATOM      5  H   UNL     1      44.652  32.468  50.189  0.00  0.00    +0.000 HD
ENDBRANCH   3   4
BRANCH   3   6
ATOM      6  O   UNL     1      45.040  33.464  47.646  0.00  0.00    +0.000 OA
BRANCH   6   9
ATOM      7  C   UNL     1      46.540  33.629  44.341  0.00  0.00    +0.000 A 
ATOM      8  C   UNL     1      46.245  33.216  45.652  0.00  0.00    +0.000 A 
ATOM      9  C   UNL     1      45.293  33.906  46.365  0.00  0.00    +0.000 A 
ATOM     10  N   UNL     1      44.687  34.953  45.760  0.00  0.00    +0.000 NA
ATOM     11  C   UNL     1      44.964  35.350  44.513  0.00  0.00    +0.000 A 
ATOM     12  N   UNL     1      45.903  34.677  43.797  0.00  0.00    +0.000 NA
ATOM     13  H   UNL     1      47.270  33.153  43.700  0.00  0.00    +0.000 HD
ATOM     14  H   UNL     1      46.829  32.377  45.928  0.00  0.00    +0.000 HD
ATOM     15  H   UNL     1      44.465  36.184  44.063  0.00  0.00    +0.000 HD
ENDBRANCH   6   9
ENDBRANCH   3   6
ENDBRANCH   1   3
BRANCH   1  16
ATOM     16  C   UNL     1      48.468  31.442  48.521  0.00  0.00    +0.000 C 
ATOM     17  O   UNL     1      49.210  31.954  49.430  0.00  0.00    +0.000 OA
BRANCH  16  19
ATOM     18  C   UNL     1      49.545  29.806  50.035  0.00  0.00    +0.000 C 
ATOM     19  C   UNL     1      49.374  30.281  48.609  0.00  0.00    +0.000 C 
ATOM     20  O   UNL     1      50.592  30.525  47.987  0.00  0.00    +0.000 OA
ATOM     21  C   UNL     1      51.613  30.889  48.832  0.00  0.00    +0.000 C 
ATOM     22  C   UNL     1      51.932  29.925  49.928  0.00  0.00    +0.000 C 
ATOM     23  C   UNL     1      50.789  28.926  50.000  0.00  0.00    +0.000 C 
BRANCH  18  24
ATOM     24  O   UNL     1      48.426  29.034  50.424  0.00  0.00    +0.000 OA
ATOM     25  H   UNL     1      48.643  28.074  50.288  0.00  0.00    +0.000 HD
ENDBRANCH  18  24
BRANCH  22  26
ATOM     26  O   UNL     1      51.909  30.588  51.176  0.00  0.00    +0.000 OA
ATOM     27  H   UNL     1      52.447  31.407  51.171  0.00  0.00    +0.000 HD
ENDBRANCH  22  26
BRANCH  23  28
ATOM     28  O   UNL     1      50.895  28.111  51.114  0.00  0.00    +0.000 OA
ATOM     29  H   UNL     1      50.116  28.196  51.694  0.00  0.00    +0.000 HD
ENDBRANCH  23  28
ENDBRANCH  16  19
ENDBRANCH   1  16
TORSDOF 9
