REMARK  Name = 
REMARK  10 active torsions:
REMARK  status: ('A' for Active; 'I' for Inactive)
REMARK    1  A    between atoms: C_3  and  C_12
REMARK    2  A    between atoms: C_7  and  O_15
REMARK    3  A    between atoms: C_8  and  N_14
REMARK    4  A    between atoms: O_15  and  P_17
REMARK    5  A    between atoms: P_17  and  O_18
REMARK    6  A    between atoms: P_17  and  O_19
REMARK    7  A    between atoms: O_19  and  C_30
REMARK    8  A    between atoms: O_28  and  C_29
REMARK    9  A    between atoms: C_33  and  O_34
REMARK   10  A    between atoms: C_35  and  O_36
REMARK                            x       y       z     vdW  Elec       q    Type
REMARK                         _______ _______ _______ _____ _____    ______ ____
ROOT
ATOM      1  F   UNL     1      45.136  33.500  41.154  0.00  0.00    +0.000 F 
ATOM      2  C   UNL     1      46.335  34.083  41.048  0.00  0.00    +0.000 A 
ATOM      3  C   UNL     1      46.841  34.801  42.118  0.00  0.00    +0.000 A 
ATOM      4  C   UNL     1      48.076  35.435  42.090  0.00  0.00    +0.000 A 
ATOM      5  C   UNL     1      48.853  35.351  40.934  0.00  0.00    +0.000 A 
ATOM      6  C   UNL     1      48.315  34.626  39.886  0.00  0.00    +0.000 A 
ATOM      7  C   UNL     1      47.109  34.001  39.898  0.00  0.00    +0.000 A 
ATOM      8  H   UNL     1      48.410  35.984  42.972  0.00  0.00    +0.000 HD
ATOM      9  H   UNL     1      49.806  35.858  40.954  0.00  0.00    +0.000 HD
ATOM     10  H   UNL     1      49.022  34.636  39.060  0.00  0.00    +0.000 HD
ENDROOT
BRANCH   3  15
ATOM     11  C   UNL     1      45.452  34.016  45.423  0.00  0.00    +0.000 A 
ATOM     12  C   UNL     1      44.604  35.132  45.654  0.00  0.00    +0.000 A 
ATOM     13  C   UNL     1      44.520  36.147  44.666  0.00  0.00    +0.000 A 
ATOM     14  N   UNL     1      45.275  35.975  43.539  0.00  0.00    +0.000 NA
ATOM     15  C   UNL     1      46.061  34.913  43.355  0.00  0.00    +0.000 A 
ATOM     16  N   UNL     1      46.144  33.949  44.288  0.00  0.00    +0.000 NA
ATOM     17  H   UNL     1      44.034  35.217  46.554  0.00  0.00    +0.000 HD
ATOM     18  H   UNL     1      43.890  36.998  44.812  0.00  0.00    +0.000 HD
BRANCH  11  19
ATOM     19  N   UNL     1      45.517  33.025  46.420  0.00  0.00    +0.000 N 
ATOM     20  H   UNL     1      46.378  32.682  46.940  0.00  0.00    +0.000 HD
ATOM     21  H   UNL     1      44.673  32.487  46.777  0.00  0.00    +0.000 HD
ENDBRANCH  11  19
ENDBRANCH   3  15
BRANCH   7  22
ATOM     22  O   UNL     1      46.678  33.310  38.799  0.00  0.00    +0.000 OA
BRANCH  22  24
ATOM     23  O   UNL     1      48.063  34.673  36.999  0.00  0.00    +0.000 OA
ATOM     24  P   UNL     1      47.329  33.375  37.249  0.00  0.00    +0.000 P 
BRANCH  24  25
ATOM     25  O   UNL     1      46.054  33.193  36.125  0.00  0.00    +0.000 OA
ATOM     26  H   UNL     1      45.377  32.613  36.541  0.00  0.00    +0.000 HD
ENDBRANCH  24  25
BRANCH  24  27
ATOM     27  O   UNL     1      48.380  32.097  36.932  0.00  0.00    +0.000 OA
BRANCH  27  29
ATOM     28  C   UNL     1      49.172  30.598  35.220  0.00  0.00    +0.000 C 
ATOM     29  C   UNL     1      48.014  31.287  35.898  0.00  0.00    +0.000 C 
ATOM     30  O   UNL     1      47.267  31.912  34.911  0.00  0.00    +0.000 OA
ATOM     31  C   UNL     1      46.554  30.887  34.265  0.00  0.00    +0.000 C 
ATOM     32  C   UNL     1      47.461  29.898  33.597  0.00  0.00    +0.000 C 
ATOM     33  C   UNL     1      48.593  29.429  34.447  0.00  0.00    +0.000 C 
BRANCH  28  34
ATOM     34  O   UNL     1      49.801  31.418  34.268  0.00  0.00    +0.000 OA
ATOM     35  H   UNL     1      49.694  32.354  34.570  0.00  0.00    +0.000 HD
ENDBRANCH  28  34
BRANCH  32  36
ATOM     36  O   UNL     1      47.856  30.377  32.371  0.00  0.00    +0.000 OA
ATOM     37  H   UNL     1      48.797  30.608  32.304  0.00  0.00    +0.000 HD
ENDBRANCH  32  36
BRANCH  33  38
ATOM     38  O   UNL     1      48.281  28.355  35.276  0.00  0.00    +0.000 OA
ATOM     39  H   UNL     1      48.263  27.562  34.684  0.00  0.00    +0.000 HD
ENDBRANCH  33  38
ENDBRANCH  27  29
ENDBRANCH  24  27
ENDBRANCH  22  24
ENDBRANCH   7  22
TORSDOF 10
