
 OpenBabel03252504303D

 36 37  0  0  1  0  0  0  0  0999 V2000
   45.2860   35.6540   43.2520 C   0  0  0  0  0  0  0  0  0  0  0  0
   46.0670   35.1180   42.6820 H   0  0  0  0  0  0  0  0  0  0  0  0
   45.5630   36.7220   43.3700 H   0  0  0  0  0  0  0  0  0  0  0  0
   43.8070   35.2650   41.2140 C   0  0  0  0  0  3  0  0  0  0  0  0
   43.9730   35.6590   42.4830 C   0  0  0  0  0  3  0  0  0  0  0  0
   42.5210   35.3480   40.7060 O   0  0  0  0  0  0  0  0  0  0  0  0
   41.3550   35.5360   41.4070 C   0  0  0  0  0  0  0  0  0  0  0  0
   41.5560   35.1930   42.4700 H   0  0  0  0  0  0  0  0  0  0  0  0
   40.9980   36.5630   41.4670 H   0  0  0  0  0  0  0  0  0  0  0  0
   40.1970   33.4320   41.6740 C   0  0  0  0  0  0  0  0  0  0  0  0
   40.2450   34.6510   40.9660 C   0  0  0  0  0  0  0  0  0  0  0  0
   39.3030   34.8490   40.0070 C   0  0  0  0  0  0  0  0  0  0  0  0
   38.4100   33.8790   39.8140 N   0  0  0  0  0  0  0  0  0  0  0  0
   38.3600   32.7380   40.4750 C   0  0  0  0  0  0  0  0  0  0  0  0
   39.2920   32.4560   41.4750 N   0  0  0  0  0  0  0  0  0  0  0  0
   40.8970   33.1510   42.4680 H   0  0  0  0  0  0  0  0  0  0  0  0
   39.3930   35.7990   39.5010 H   0  0  0  0  0  0  0  0  0  0  0  0
   37.6030   31.9850   40.2690 H   0  0  0  0  0  0  0  0  0  0  0  0
   45.0340   35.0990   44.4800 O   0  0  0  0  0  0  0  0  0  0  0  0
   45.1600   32.5380   43.7990 O   0  0  0  0  0  0  0  0  0  0  0  0
   45.7870   33.5920   44.6670 P   0  0  1  0  0  0  0  0  0  0  0  0
   47.4310   33.7230   44.2500 O   0  0  0  0  0  0  0  0  0  0  0  0
   47.9890   33.8580   45.0490 H   0  0  0  0  0  0  0  0  0  0  0  0
   45.6980   33.1590   46.3030 O   0  0  0  0  0  0  0  0  0  0  0  0
   46.1570   31.6820   48.0480 C   0  0  1  0  0  3  0  0  0  0  0  0
   46.0500   31.8650   46.5480 C   0  0  2  0  0  3  0  0  0  0  0  0
   47.2410   31.5660   45.9080 O   0  0  0  0  0  0  0  0  0  0  0  0
   47.7320   30.3020   46.1530 C   0  0  0  0  0  2  0  0  0  0  0  0
   47.6520   29.8440   47.5690 C   0  0  1  0  0  3  0  0  0  0  0  0
   47.4830   31.0680   48.4410 C   0  0  2  0  0  3  0  0  0  0  0  0
   46.0510   32.9060   48.7060 O   0  0  0  0  0  0  0  0  0  0  0  0
   46.9000   33.3700   48.8470 H   0  0  0  0  0  0  0  0  0  0  0  0
   46.5500   29.0060   47.7540 O   0  0  0  0  0  0  0  0  0  0  0  0
   46.4330   28.3980   46.9900 H   0  0  0  0  0  0  0  0  0  0  0  0
   47.4750   30.7730   49.7880 O   0  0  0  0  0  0  0  0  0  0  0  0
   48.2600   30.2010   49.9820 H   0  0  0  0  0  0  0  0  0  0  0  0
  1  3  1  0  0  0  0
  1 19  1  0  0  0  0
  2  1  1  0  0  0  0
  4  5  2  0  0  0  0
  5  1  1  0  0  0  0
  6  4  1  0  0  0  0
  6  7  1  0  0  0  0
  7  9  1  0  0  0  0
  7  8  1  0  0  0  0
 10 16  1  0  0  0  0
 11  7  1  0  0  0  0
 11 10  2  0  0  0  0
 12 11  1  0  0  0  0
 13 12  2  0  0  0  0
 13 14  1  0  0  0  0
 14 15  2  0  0  0  0
 15 10  1  0  0  0  0
 17 12  1  0  0  0  0
 18 14  1  0  0  0  0
 19 21  1  0  0  0  0
 21 20  2  6  0  0  0
 21 24  1  0  0  0  0
 22 21  1  0  0  0  0
 22 23  1  0  0  0  0
 25 30  1  0  0  0  0
 25 31  1  1  0  0  0
 26 24  1  1  0  0  0
 26 25  1  0  0  0  0
 27 28  1  0  0  0  0
 27 26  1  0  0  0  0
 28 29  1  0  0  0  0
 29 33  1  6  0  0  0
 29 30  1  0  0  0  0
 30 35  1  1  0  0  0
 31 32  1  0  0  0  0
 34 33  1  0  0  0  0
 35 36  1  0  0  0  0
M  END
>  <minimizedAffinity>
-6.07674026

>  <minimizedRMSD>
1.214239

$$$$
