
     RDKit          3D

 28 29  0  0  0  0  0  0  0  0999 V2000
   44.2720   35.7278   44.2664 C   0  0  0  0  0  0  0  0  0  0  0  0
   44.4222   34.9213   43.1342 C   0  0  0  0  0  0  0  0  0  0  0  0
   45.0601   33.6880   43.2666 C   0  0  0  0  0  0  0  0  0  0  0  0
   45.5046   33.3416   44.5166 N   0  0  0  0  0  0  0  0  0  0  0  0
   45.3394   34.1435   45.5713 C   0  0  0  0  0  0  0  0  0  0  0  0
   44.7278   35.3435   45.4828 N   0  0  0  0  0  0  0  0  0  0  0  0
   43.8118   35.4334   41.5330 S   0  0  0  0  0  0  0  0  0  0  0  0
   43.7849   36.6922   44.1974 H   0  0  0  0  0  0  0  0  0  0  0  0
   45.1689   33.0750   42.3825 H   0  0  0  0  0  0  0  0  0  0  0  0
   45.7688   33.6586   46.4419 H   0  0  0  0  0  0  0  0  0  0  0  0
   42.4737   34.3497   39.0371 O   0  0  0  0  0  0  0  0  0  0  0  0
   42.0238   33.7860   40.2156 C   0  0  2  0  0  0  0  0  0  0  0  0
   42.1353   34.8189   41.3186 C   0  0  1  0  0  0  0  0  0  0  0  0
   41.7328   34.2572   42.5508 O   0  0  0  0  0  0  0  0  0  0  0  0
   42.7396   33.3217   42.8560 C   0  0  0  0  0  0  0  0  0  0  0  0
   42.5749   32.1051   41.9678 C   0  0  1  0  0  0  0  0  0  0  0  0
   41.2809   31.6019   42.0946 O   0  0  0  0  0  0  0  0  0  0  0  0
   42.8300   32.5478   40.5369 C   0  0  1  0  0  0  0  0  0  0  0  0
   42.4930   31.5571   39.6395 O   0  0  0  0  0  0  0  0  0  0  0  0
   42.9279   33.6811   38.4416 H   0  0  0  0  0  0  0  0  0  0  0  0
   40.9541   33.5466   40.0553 H   0  0  0  0  0  0  0  0  0  0  0  0
   41.4059   35.6179   41.0551 H   0  0  0  0  0  0  0  0  0  0  0  0
   42.6548   32.9478   43.8989 H   0  0  0  0  0  0  0  0  0  0  0  0
   43.7574   33.7289   42.7572 H   0  0  0  0  0  0  0  0  0  0  0  0
   43.3218   31.3592   42.2411 H   0  0  0  0  0  0  0  0  0  0  0  0
   40.8344   32.0684   42.8339 H   0  0  0  0  0  0  0  0  0  0  0  0
   43.9071   32.7718   40.4247 H   0  0  0  0  0  0  0  0  0  0  0  0
   43.2888   30.9539   39.5462 H   0  0  0  0  0  0  0  0  0  0  0  0
  1  6  2  0
  2  3  2  0
  2  1  1  0
  3  4  1  0
  4  5  2  0
  6  5  1  0
  7  2  1  0
  1  8  1  0
  3  9  1  0
  5 10  1  0
 11 12  1  0
 12 13  1  0
 13 14  1  0
 14 15  1  0
 15 16  1  0
 16 17  1  0
 16 18  1  0
 18 19  1  0
 18 12  1  0
 11 20  1  0
 12 21  1  6
 13 22  1  6
 15 23  1  0
 15 24  1  0
 16 25  1  1
 17 26  1  0
 18 27  1  1
 19 28  1  0
  7 13  1  0
M  ISO  3   8  14   9  14  10  14
M  END
>  <DihAtoms>  (1) 
1,6,12,11

>  <DihDeg>  (1) 
65.96712231661348

$$$$
