
     RDKit          3D

 46 48  0  0  0  0  0  0  0  0999 V2000
   47.8347   33.9942   42.0066 N   0  0  0  0  0  0  0  0  0  0  0  0
   47.8680   34.8824   40.9077 C   0  0  0  0  0  0  0  0  0  0  0  0
   49.0447   35.7304   41.2154 C   0  0  0  0  0  0  0  0  0  0  0  0
   49.6767   35.2280   42.5086 C   0  0  0  0  0  0  0  0  0  0  0  0
   49.0966   33.8092   42.5964 C   0  0  2  0  0  0  0  0  0  0  0  0
   46.6397   33.4462   42.4039 C   0  0  0  0  0  0  0  0  0  0  0  0
   44.6240   35.9463   44.4115 C   0  0  0  0  0  0  0  0  0  0  0  0
   45.2880   35.3698   43.2835 C   0  0  0  0  0  0  0  0  0  0  0  0
   45.9503   34.1564   43.4609 C   0  0  0  0  0  0  0  0  0  0  0  0
   45.9204   33.6049   44.6941 N   0  0  0  0  0  0  0  0  0  0  0  0
   45.2750   34.1748   45.7708 C   0  0  0  0  0  0  0  0  0  0  0  0
   44.6343   35.3357   45.6229 N   0  0  0  0  0  0  0  0  0  0  0  0
   49.8426   33.0269   41.7041 O   0  0  0  0  0  0  0  0  0  0  0  0
   49.1363   30.9966   43.2617 O   0  0  0  0  0  0  0  0  0  0  0  0
   50.1036   31.4690   42.2044 P   0  0  2  0  0  0  0  0  0  0  0  0
   51.6575   31.3832   42.8791 O   0  0  0  0  0  0  0  0  0  0  0  0
   50.1085   30.3830   40.8766 O   0  0  0  0  0  0  0  0  0  0  0  0
   47.3536   35.1065   40.0114 H   0  0  0  0  0  0  0  0  0  0  0  0
   49.4772   36.5594   40.6710 H   0  0  0  0  0  0  0  0  0  0  0  0
   50.7529   35.2031   42.3331 H   0  0  0  0  0  0  0  0  0  0  0  0
   49.3400   35.8370   43.3663 H   0  0  0  0  0  0  0  0  0  0  0  0
   49.0432   33.4205   43.6093 H   0  0  0  0  0  0  0  0  0  0  0  0
   46.8384   32.3840   42.7019 H   0  0  0  0  0  0  0  0  0  0  0  0
   45.8893   33.3143   41.5918 H   0  0  0  0  0  0  0  0  0  0  0  0
   44.1076   36.8884   44.2806 H   0  0  0  0  0  0  0  0  0  0  0  0
   45.2895   35.8365   42.3257 H   0  0  0  0  0  0  0  0  0  0  0  0
   45.3081   33.6547   46.7195 H   0  0  0  0  0  0  0  0  0  0  0  0
   51.7824   30.6105   43.4834 H   0  0  0  0  0  0  0  0  0  0  0  0
   52.4042   29.1697   41.2147 O   0  0  0  0  0  0  0  0  0  0  0  0
   52.2360   29.7196   39.9228 C   0  0  2  0  0  0  0  0  0  0  0  0
   51.1621   30.7719   40.0490 C   0  0  1  0  0  0  0  0  0  0  0  0
   50.7165   31.2250   38.8154 O   0  0  0  0  0  0  0  0  0  0  0  0
   50.2481   30.2035   37.9993 C   0  0  0  0  0  0  0  0  0  0  0  0
   51.2195   29.0856   37.7912 C   0  0  2  0  0  0  0  0  0  0  0  0
   50.4902   28.0113   37.2338 O   0  0  0  0  0  0  0  0  0  0  0  0
   51.8505   28.5642   39.0408 C   0  0  1  0  0  0  0  0  0  0  0  0
   53.0543   27.9448   38.6411 O   0  0  0  0  0  0  0  0  0  0  0  0
   51.7034   28.4535   41.3424 H   0  0  0  0  0  0  0  0  0  0  0  0
   53.1739   30.1924   39.6164 H   0  0  0  0  0  0  0  0  0  0  0  0
   51.6350   31.6512   40.5353 H   0  0  0  0  0  0  0  0  0  0  0  0
   49.2718   29.7882   38.3305 H   0  0  0  0  0  0  0  0  0  0  0  0
   50.0442   30.6686   37.0090 H   0  0  0  0  0  0  0  0  0  0  0  0
   51.9908   29.3376   37.0195 H   0  0  0  0  0  0  0  0  0  0  0  0
   49.6391   28.3233   36.8139 H   0  0  0  0  0  0  0  0  0  0  0  0
   51.1872   27.8566   39.5813 H   0  0  0  0  0  0  0  0  0  0  0  0
   52.9504   27.4677   37.7811 H   0  0  0  0  0  0  0  0  0  0  0  0
  1  6  1  0
  1  5  1  0
  2  3  2  0
  2  1  1  0
  3  4  1  0
  4  5  1  0
  6  9  1  0
  7 12  2  0
  8  9  2  0
  8  7  1  0
  9 10  1  0
 10 11  2  0
 12 11  1  0
 15 13  1  6
 13  5  1  0
 15 16  1  0
 15 14  2  0
 17 15  1  0
  2 18  1  0
  3 19  1  0
  4 20  1  0
  4 21  1  0
  5 22  1  1
  6 23  1  0
  6 24  1  0
  7 25  1  0
  8 26  1  0
 11 27  1  0
 16 28  1  0
 29 30  1  0
 30 31  1  0
 31 32  1  0
 32 33  1  0
 33 34  1  0
 34 35  1  0
 34 36  1  0
 36 37  1  0
 36 30  1  0
 29 38  1  0
 30 39  1  6
 31 40  1  1
 33 41  1  0
 33 42  1  0
 34 43  1  6
 35 44  1  0
 36 45  1  1
 37 46  1  0
 17 31  1  0
M  ISO  8  18  13  19  13  20  13  21  13  22  13  23   8  24   8  25  14
M  ISO  3  26  14  27  14  28   3
M  END
>  <DihAtoms>  (1) 
14,16,30,29

>  <DihDeg>  (1) 
116.72444489644721

$$$$
