
     RDKit          3D

 28 29  0  0  0  0  0  0  0  0999 V2000
   44.5179   36.0423   44.5413 C   0  0  0  0  0  0  0  0  0  0  0  0
   45.1765   36.0571   43.3099 C   0  0  0  0  0  0  0  0  0  0  0  0
   46.0801   35.0382   43.0144 C   0  0  0  0  0  0  0  0  0  0  0  0
   46.2768   34.0645   43.9586 N   0  0  0  0  0  0  0  0  0  0  0  0
   45.6274   34.0760   45.1377 C   0  0  0  0  0  0  0  0  0  0  0  0
   44.7467   35.0674   45.4280 N   0  0  0  0  0  0  0  0  0  0  0  0
   46.8016   34.9295   41.8330 O   0  0  0  0  0  0  0  0  0  0  0  0
   43.8223   36.8339   44.7592 H   0  0  0  0  0  0  0  0  0  0  0  0
   45.0331   36.8208   42.5494 H   0  0  0  0  0  0  0  0  0  0  0  0
   45.8932   33.2328   45.7797 H   0  0  0  0  0  0  0  0  0  0  0  0
   49.7703   34.5342   42.5714 O   0  0  0  0  0  0  0  0  0  0  0  0
   48.6691   33.6867   42.7156 C   0  0  1  0  0  0  0  0  0  0  0  0
   47.7076   33.8634   41.5963 C   0  0  1  0  0  0  0  0  0  0  0  0
   47.0088   32.7889   41.1656 O   0  0  0  0  0  0  0  0  0  0  0  0
   47.2423   31.5852   41.7845 C   0  0  0  0  0  0  0  0  0  0  0  0
   48.7521   31.4071   41.7658 C   0  0  2  0  0  0  0  0  0  0  0  0
   49.1016   30.0988   41.9424 O   0  0  0  0  0  0  0  0  0  0  0  0
   49.2086   32.3035   42.9032 C   0  0  1  0  0  0  0  0  0  0  0  0
   50.6072   32.2552   42.8956 O   0  0  0  0  0  0  0  0  0  0  0  0
   50.3167   34.6412   43.3660 H   0  0  0  0  0  0  0  0  0  0  0  0
   48.1658   33.9817   43.6605 H   0  0  0  0  0  0  0  0  0  0  0  0
   48.3088   34.2263   40.7116 H   0  0  0  0  0  0  0  0  0  0  0  0
   46.7362   30.7878   41.2253 H   0  0  0  0  0  0  0  0  0  0  0  0
   46.8698   31.6101   42.8429 H   0  0  0  0  0  0  0  0  0  0  0  0
   49.1836   31.8686   40.8395 H   0  0  0  0  0  0  0  0  0  0  0  0
   49.8602   30.0307   42.5692 H   0  0  0  0  0  0  0  0  0  0  0  0
   48.8920   31.8506   43.8708 H   0  0  0  0  0  0  0  0  0  0  0  0
   50.9780   32.0665   43.8071 H   0  0  0  0  0  0  0  0  0  0  0  0
  1  6  2  0
  2  1  1  0
  3  2  2  0
  3  4  1  0
  4  5  2  0
  5  6  1  0
  7  3  1  0
  1  8  1  0
  2  9  1  0
  5 10  1  0
 11 12  1  0
 12 13  1  0
 13 14  1  0
 14 15  1  0
 15 16  1  0
 16 17  1  0
 16 18  1  0
 18 19  1  0
 18 12  1  0
 11 20  1  0
 12 21  1  1
 13 22  1  6
 15 23  1  0
 15 24  1  0
 16 25  1  6
 17 26  1  0
 18 27  1  1
 19 28  1  0
  7 13  1  0
M  ISO  3   8  14   9  14  10  14
M  END
>  <DihAtoms>  (1) 
2,6,12,11

>  <DihDeg>  (1) 
114.2406486629493

$$$$
