
 OpenBabel03252505433D

 45 48  0  0  1  0  0  0  0  0999 V2000
   42.6980   34.8540   40.2880 C   0  0  0  0  0  0  0  0  0  0  0  0
   42.5590   35.1580   38.9540 C   0  0  0  0  0  0  0  0  0  0  0  0
   41.3710   35.0450   38.2810 C   0  0  0  0  0  0  0  0  0  0  0  0
   40.2910   34.6110   38.9770 N   0  0  0  0  0  0  0  0  0  0  0  0
   40.4120   34.3040   40.3020 C   0  0  0  0  0  0  0  0  0  0  0  0
   41.5890   34.4210   40.9530 N   0  0  0  0  0  0  0  0  0  0  0  0
   43.4120   35.4990   38.4070 H   0  0  0  0  0  0  0  0  0  0  0  0
   41.2670   35.2880   37.2250 H   0  0  0  0  0  0  0  0  0  0  0  0
   43.9850   34.6550   42.3920 C   0  0  1  0  0  0  0  0  0  0  0  0
   44.1920   36.1440   41.9510 C   0  0  0  0  0  0  0  0  0  0  0  0
   44.0310   34.9670   40.9940 C   0  0  2  0  0  0  0  0  0  0  0  0
   43.0000   34.5410   42.9210 H   0  0  0  0  0  0  0  0  0  0  0  0
   45.2080   36.5550   42.0880 H   0  0  0  0  0  0  0  0  0  0  0  0
   43.3220   36.8110   42.0010 H   0  0  0  0  0  0  0  0  0  0  0  0
   44.8560   34.8550   40.2950 H   0  0  0  0  0  0  0  0  0  0  0  0
   45.1220   34.1000   43.1570 C   0  0  0  0  0  0  0  0  0  0  0  0
   46.3650   34.0010   42.4970 C   0  0  0  0  0  0  0  0  0  0  0  0
   47.4490   33.4850   43.1930 C   0  0  0  0  0  0  0  0  0  0  0  0
   47.2540   33.1030   44.4820 N   0  0  0  0  0  0  0  0  0  0  0  0
   46.0630   33.2120   45.0740 C   0  0  0  0  0  0  0  0  0  0  0  0
   45.0260   33.7090   44.3930 N   0  0  0  0  0  0  0  0  0  0  0  0
   46.4640   34.3250   41.4590 H   0  0  0  0  0  0  0  0  0  0  0  0
   48.4380   33.3900   42.7160 H   0  0  0  0  0  0  0  0  0  0  0  0
   46.0550   32.7380   46.5020 C   0  0  0  0  0  0  0  0  0  0  0  0
   45.0880   33.3960   47.2470 F   0  0  0  0  0  0  0  0  0  0  0  0
   47.2920   33.0770   47.0980 F   0  0  0  0  0  0  0  0  0  0  0  0
   45.9560   31.3740   46.5390 F   0  0  0  0  0  0  0  0  0  0  0  0
   39.2580   33.8230   41.0850 C   0  0  0  0  0  0  0  0  0  0  0  0
   38.5380   34.6880   41.1320 H   0  0  0  0  0  0  0  0  0  0  0  0
   39.5430   33.5420   42.0970 H   0  0  0  0  0  0  0  0  0  0  0  0
   38.5270   32.7150   40.3830 C   0  0  0  0  0  0  0  0  0  0  0  0
   37.4380   32.7800   40.5190 H   0  0  0  0  0  0  0  0  0  0  0  0
   38.7930   32.7700   39.2900 H   0  0  0  0  0  0  0  0  0  0  0  0
   37.7880   30.4400   41.0820 C   0  0  1  0  0  3  0  0  0  0  0  0
   38.9630   31.3710   40.8610 C   0  0  1  0  0  3  0  0  0  0  0  0
   39.9510   30.7570   40.1470 O   0  0  0  0  0  0  0  0  0  0  0  0
   39.8000   29.3790   40.0430 C   0  0  0  0  0  2  0  0  0  0  0  0
   39.4770   28.7090   41.3370 C   0  0  2  0  0  3  0  0  0  0  0  0
   38.2740   29.3240   41.9840 C   0  0  2  0  0  3  0  0  0  0  0  0
   36.7160   31.1400   41.6310 O   0  0  0  0  0  0  0  0  0  0  0  0
   35.9130   30.8890   41.0980 H   0  0  0  0  0  0  0  0  0  0  0  0
   40.5800   28.5890   42.1780 O   0  0  0  0  0  0  0  0  0  0  0  0
   40.4930   29.1080   43.0190 H   0  0  0  0  0  0  0  0  0  0  0  0
   37.2600   28.4160   42.2720 O   0  0  0  0  0  0  0  0  0  0  0  0
   36.7530   28.7740   43.0650 H   0  0  0  0  0  0  0  0  0  0  0  0
  1  6  1  0  0  0  0
  1 11  1  0  0  0  0
  2  1  2  0  0  0  0
  3  2  1  0  0  0  0
  3  4  2  0  0  0  0
  4  5  1  0  0  0  0
  5  6  2  0  0  0  0
  5 28  1  0  0  0  0
  7  2  1  0  0  0  0
  8  3  1  0  0  0  0
  9 12  1  1  0  0  0
  9 16  1  0  0  0  0
 10 14  1  0  0  0  0
 10 13  1  0  0  0  0
 10  9  1  0  0  0  0
 11 15  1  6  0  0  0
 11 10  1  0  0  0  0
 11  9  1  0  0  0  0
 16 21  1  0  0  0  0
 17 16  2  0  0  0  0
 17 18  1  0  0  0  0
 18 19  2  0  0  0  0
 19 20  1  0  0  0  0
 20 24  1  0  0  0  0
 21 20  2  0  0  0  0
 22 17  1  0  0  0  0
 23 18  1  0  0  0  0
 24 27  1  0  0  0  0
 24 26  1  0  0  0  0
 24 25  1  0  0  0  0
 28 29  1  0  0  0  0
 28 30  1  0  0  0  0
 31 32  1  0  0  0  0
 31 28  1  0  0  0  0
 33 31  1  0  0  0  0
 34 40  1  1  0  0  0
 34 39  1  0  0  0  0
 35 31  1  6  0  0  0
 35 34  1  0  0  0  0
 36 35  1  0  0  0  0
 37 36  1  0  0  0  0
 37 38  1  0  0  0  0
 38 39  1  0  0  0  0
 38 42  1  1  0  0  0
 39 44  1  6  0  0  0
 41 40  1  0  0  0  0
 42 43  1  0  0  0  0
 44 45  1  0  0  0  0
M  END
>  <minimizedAffinity>
-6.58240366

>  <minimizedRMSD>
1.62068629

$$$$
