
 OpenBabel03252505433D

 45 48  0  0  1  0  0  0  0  0999 V2000
   42.6840   34.8490   40.2610 C   0  0  0  0  0  0  0  0  0  0  0  0
   42.5400   35.1900   38.9360 C   0  0  0  0  0  0  0  0  0  0  0  0
   41.3540   35.0790   38.2600 C   0  0  0  0  0  0  0  0  0  0  0  0
   40.2800   34.6100   38.9430 N   0  0  0  0  0  0  0  0  0  0  0  0
   40.4060   34.2680   40.2590 C   0  0  0  0  0  0  0  0  0  0  0  0
   41.5810   34.3820   40.9130 N   0  0  0  0  0  0  0  0  0  0  0  0
   43.3890   35.5570   38.3990 H   0  0  0  0  0  0  0  0  0  0  0  0
   41.2460   35.3500   37.2110 H   0  0  0  0  0  0  0  0  0  0  0  0
   43.9680   34.6380   42.3650 C   0  0  1  0  0  0  0  0  0  0  0  0
   44.1710   36.1310   41.9360 C   0  0  0  0  0  0  0  0  0  0  0  0
   44.0150   34.9610   40.9700 C   0  0  2  0  0  0  0  0  0  0  0  0
   42.9830   34.5170   42.8920 H   0  0  0  0  0  0  0  0  0  0  0  0
   45.1860   36.5430   42.0780 H   0  0  0  0  0  0  0  0  0  0  0  0
   43.2990   36.7940   41.9900 H   0  0  0  0  0  0  0  0  0  0  0  0
   44.8420   34.8560   40.2710 H   0  0  0  0  0  0  0  0  0  0  0  0
   45.1050   34.0800   43.1280 C   0  0  0  0  0  0  0  0  0  0  0  0
   46.3440   33.9650   42.4610 C   0  0  0  0  0  0  0  0  0  0  0  0
   47.4280   33.4470   43.1550 C   0  0  0  0  0  0  0  0  0  0  0  0
   47.2380   33.0770   44.4480 N   0  0  0  0  0  0  0  0  0  0  0  0
   46.0520   33.2010   45.0470 C   0  0  0  0  0  0  0  0  0  0  0  0
   45.0140   33.7000   44.3680 N   0  0  0  0  0  0  0  0  0  0  0  0
   46.4380   34.2800   41.4200 H   0  0  0  0  0  0  0  0  0  0  0  0
   48.4120   33.3400   42.6720 H   0  0  0  0  0  0  0  0  0  0  0  0
   46.0490   32.7390   46.4780 C   0  0  0  0  0  0  0  0  0  0  0  0
   45.0810   33.4010   47.2200 F   0  0  0  0  0  0  0  0  0  0  0  0
   47.2870   33.0880   47.0680 F   0  0  0  0  0  0  0  0  0  0  0  0
   45.9540   31.3760   46.5280 F   0  0  0  0  0  0  0  0  0  0  0  0
   39.2590   33.7490   41.0270 C   0  0  0  0  0  0  0  0  0  0  0  0
   38.4130   34.4690   40.8390 H   0  0  0  0  0  0  0  0  0  0  0  0
   39.4670   33.7160   42.0950 H   0  0  0  0  0  0  0  0  0  0  0  0
   38.7920   32.4180   40.5100 C   0  0  0  0  0  0  0  0  0  0  0  0
   37.7030   32.3840   40.3660 H   0  0  0  0  0  0  0  0  0  0  0  0
   39.3260   32.2250   39.5360 H   0  0  0  0  0  0  0  0  0  0  0  0
   39.6860   30.0980   40.6710 C   0  0  1  0  0  3  0  0  0  0  0  0
   39.1630   31.3030   41.4280 C   0  0  1  0  0  3  0  0  0  0  0  0
   39.9730   31.6160   42.4800 O   0  0  0  0  0  0  0  0  0  0  0  0
   40.8970   30.6260   42.7950 C   0  0  0  0  0  2  0  0  0  0  0  0
   40.3090   29.2560   42.8660 C   0  0  2  0  0  3  0  0  0  0  0  0
   39.5780   28.9110   41.6060 C   0  0  2  0  0  3  0  0  0  0  0  0
   38.9650   29.9180   39.4930 O   0  0  0  0  0  0  0  0  0  0  0  0
   39.6370   29.7850   38.7700 H   0  0  0  0  0  0  0  0  0  0  0  0
   39.5790   29.0360   44.0290 O   0  0  0  0  0  0  0  0  0  0  0  0
   38.6130   28.8800   43.8660 H   0  0  0  0  0  0  0  0  0  0  0  0
   40.0170   27.7370   40.9990 O   0  0  0  0  0  0  0  0  0  0  0  0
   39.2360   27.3520   40.4930 H   0  0  0  0  0  0  0  0  0  0  0  0
  1  6  1  0  0  0  0
  1 11  1  0  0  0  0
  2  1  2  0  0  0  0
  3  2  1  0  0  0  0
  3  4  2  0  0  0  0
  4  5  1  0  0  0  0
  5  6  2  0  0  0  0
  5 28  1  0  0  0  0
  7  2  1  0  0  0  0
  8  3  1  0  0  0  0
  9 12  1  1  0  0  0
  9 16  1  0  0  0  0
 10 14  1  0  0  0  0
 10 13  1  0  0  0  0
 10  9  1  0  0  0  0
 11 15  1  6  0  0  0
 11 10  1  0  0  0  0
 11  9  1  0  0  0  0
 16 21  1  0  0  0  0
 17 16  2  0  0  0  0
 17 18  1  0  0  0  0
 18 19  2  0  0  0  0
 19 20  1  0  0  0  0
 20 24  1  0  0  0  0
 21 20  2  0  0  0  0
 22 17  1  0  0  0  0
 23 18  1  0  0  0  0
 24 27  1  0  0  0  0
 24 26  1  0  0  0  0
 24 25  1  0  0  0  0
 28 30  1  0  0  0  0
 29 28  1  0  0  0  0
 31 28  1  0  0  0  0
 32 31  1  0  0  0  0
 33 31  1  0  0  0  0
 34 40  1  6  0  0  0
 34 35  1  0  0  0  0
 34 39  1  0  0  0  0
 35 31  1  6  0  0  0
 35 36  1  0  0  0  0
 36 37  1  0  0  0  0
 37 38  1  0  0  0  0
 38 42  1  1  0  0  0
 39 44  1  6  0  0  0
 39 38  1  0  0  0  0
 41 40  1  0  0  0  0
 43 42  1  0  0  0  0
 45 44  1  0  0  0  0
M  END
>  <minimizedAffinity>
-6.20120525

>  <minimizedRMSD>
2.29181623

$$$$
