
 OpenBabel03242516363D

 47 50  0  0  1  0  0  0  0  0999 V2000
   39.4150   31.8220   41.3790 C   0  0  1  0  0  0  0  0  0  0  0  0
   37.9420   31.4330   40.8560 C   0  0  1  0  0  0  0  0  0  0  0  0
   38.1130   31.7560   39.5600 O   0  0  0  0  0  0  0  0  0  0  0  0
   39.2040   30.9000   39.2370 C   0  0  0  0  0  0  0  0  0  0  0  0
   40.2520   31.3740   40.2160 C   0  0  1  0  0  0  0  0  0  0  0  0
   39.5880   31.3450   42.3270 H   0  0  0  0  0  0  0  0  0  0  0  0
   37.3450   31.9820   41.5800 H   0  0  0  0  0  0  0  0  0  0  0  0
   39.5390   31.0460   38.1950 H   0  0  0  0  0  0  0  0  0  0  0  0
   38.9680   29.8470   39.3820 H   0  0  0  0  0  0  0  0  0  0  0  0
   40.8780   30.5360   40.5900 H   0  0  0  0  0  0  0  0  0  0  0  0
   39.4190   33.2230   41.3850 O   0  0  0  0  0  0  0  0  0  0  0  0
   39.5060   33.5370   40.4630 H   0  0  0  0  0  0  0  0  0  0  0  0
   37.9160   30.0440   40.9860 O   0  0  0  0  0  0  0  0  0  0  0  0
   36.8060   28.1570   41.8930 C   0  0  2  0  0  0  0  0  0  0  0  0
   38.2150   27.5080   41.9180 C   0  0  1  0  0  0  0  0  0  0  0  0
   38.6210   27.9060   43.1570 O   0  0  0  0  0  0  0  0  0  0  0  0
   38.3790   29.2940   43.1600 C   0  0  0  0  0  0  0  0  0  0  0  0
   37.2900   29.5730   42.1030 C   0  0  1  0  0  0  0  0  0  0  0  0
   36.3120   27.9840   40.9350 H   0  0  0  0  0  0  0  0  0  0  0  0
   38.7590   28.0100   41.0740 H   0  0  0  0  0  0  0  0  0  0  0  0
   39.3100   29.7840   42.8350 H   0  0  0  0  0  0  0  0  0  0  0  0
   38.0760   29.6560   44.1490 H   0  0  0  0  0  0  0  0  0  0  0  0
   36.4820   30.2200   42.4810 H   0  0  0  0  0  0  0  0  0  0  0  0
   38.6570   23.7330   41.7940 C   0  0  0  0  0  0  0  0  0  0  0  0
   38.9980   25.0550   42.0900 C   0  0  0  0  0  0  0  0  0  0  0  0
   38.1260   26.0560   41.7180 C   0  0  0  0  0  0  0  0  0  0  0  0
   36.9680   25.6770   41.0740 N   0  0  0  0  0  0  0  0  0  0  0  0
   36.6670   24.3950   40.8040 C   0  0  0  0  0  0  0  0  0  0  0  0
   37.5180   23.4230   41.1680 N   0  0  0  0  0  0  0  0  0  0  0  0
   39.4020   23.0190   42.1240 H   0  0  0  0  0  0  0  0  0  0  0  0
   39.8710   25.4230   42.5820 H   0  0  0  0  0  0  0  0  0  0  0  0
   35.7430   24.1440   40.2960 H   0  0  0  0  0  0  0  0  0  0  0  0
   36.0960   27.8170   43.0130 O   0  0  0  0  0  0  0  0  0  0  0  0
   35.1310   27.7520   42.8530 H   0  0  0  0  0  0  0  0  0  0  0  0
   40.9610   32.4150   39.6510 O   0  0  0  0  0  0  0  0  0  0  0  0
   42.2300   32.4020   37.6280 C   0  0  1  0  0  3  0  0  0  0  0  0
   42.0930   31.8880   39.0350 C   0  0  1  0  0  3  0  0  0  0  0  0
   43.2450   32.0490   39.7740 O   0  0  0  0  0  0  0  0  0  0  0  0
   43.7420   33.3080   39.8980 C   0  0  0  0  0  2  0  0  0  0  0  0
   43.6470   34.1830   38.6970 C   0  0  2  0  0  3  0  0  0  0  0  0
   43.2220   33.4920   37.4430 C   0  0  2  0  0  3  0  0  0  0  0  0
   42.4430   31.3570   36.7300 O   0  0  0  0  0  0  0  0  0  0  0  0
   42.8390   30.6130   37.2610 H   0  0  0  0  0  0  0  0  0  0  0  0
   44.8640   34.8090   38.4160 O   0  0  0  0  0  0  0  0  0  0  0  0
   44.9530   35.0210   37.4440 H   0  0  0  0  0  0  0  0  0  0  0  0
   42.7660   34.4690   36.5480 O   0  0  0  0  0  0  0  0  0  0  0  0
   42.4040   34.0740   35.7200 H   0  0  0  0  0  0  0  0  0  0  0  0
  1 11  1  0  0  0  0
  1  6  1  1  0  0  0
  2 13  1  0  0  0  0
  2  1  1  0  0  0  0
  2  7  1  1  0  0  0
  3  2  1  0  0  0  0
  4  9  1  0  0  0  0
  4  3  1  0  0  0  0
  4  5  1  0  0  0  0
  5 10  1  1  0  0  0
  5  1  1  0  0  0  0
  8  4  1  0  0  0  0
 12 11  1  0  0  0  0
 13 18  1  0  0  0  0
 14 19  1  6  0  0  0
 14 15  1  0  0  0  0
 14 18  1  0  0  0  0
 14 33  1  0  0  0  0
 15 20  1  6  0  0  0
 15 16  1  0  0  0  0
 16 17  1  0  0  0  0
 17 22  1  0  0  0  0
 18 23  1  1  0  0  0
 18 17  1  0  0  0  0
 21 17  1  0  0  0  0
 24 25  1  0  0  0  0
 24 30  1  0  0  0  0
 25 31  1  0  0  0  0
 26 15  1  0  0  0  0
 26 25  2  0  0  0  0
 27 26  1  0  0  0  0
 28 27  2  0  0  0  0
 28 29  1  0  0  0  0
 29 24  2  0  0  0  0
 32 28  1  0  0  0  0
 34 33  1  0  0  0  0
 35  5  1  0  0  0  0
 36 42  1  6  0  0  0
 36 37  1  0  0  0  0
 37 35  1  1  0  0  0
 37 38  1  0  0  0  0
 38 39  1  0  0  0  0
 40 44  1  6  0  0  0
 40 39  1  0  0  0  0
 41 46  1  6  0  0  0
 41 36  1  0  0  0  0
 41 40  1  0  0  0  0
 42 43  1  0  0  0  0
 45 44  1  0  0  0  0
 47 46  1  0  0  0  0
M  END
>  <minimizedAffinity>
-7.06100225

$$$$

 OpenBabel03242516363D

 47 50  0  0  1  0  0  0  0  0999 V2000
   38.0440   32.4740   40.8070 C   0  0  1  0  0  0  0  0  0  0  0  0
   37.3390   31.2090   40.1000 C   0  0  1  0  0  0  0  0  0  0  0  0
   37.8730   31.3600   38.8740 O   0  0  0  0  0  0  0  0  0  0  0  0
   39.2570   31.2820   39.1980 C   0  0  0  0  0  0  0  0  0  0  0  0
   39.3990   32.4340   40.1650 C   0  0  1  0  0  0  0  0  0  0  0  0
   37.9960   32.3510   41.8730 H   0  0  0  0  0  0  0  0  0  0  0  0
   36.3060   31.4020   40.3770 H   0  0  0  0  0  0  0  0  0  0  0  0
   39.8920   31.4310   38.3070 H   0  0  0  0  0  0  0  0  0  0  0  0
   39.5260   30.3340   39.6620 H   0  0  0  0  0  0  0  0  0  0  0  0
   40.1200   32.2040   40.9790 H   0  0  0  0  0  0  0  0  0  0  0  0
   37.3650   33.5830   40.2840 O   0  0  0  0  0  0  0  0  0  0  0  0
   37.6770   33.7360   39.3700 H   0  0  0  0  0  0  0  0  0  0  0  0
   37.9370   30.1190   40.7330 O   0  0  0  0  0  0  0  0  0  0  0  0
   36.8590   28.2610   41.7330 C   0  0  2  0  0  0  0  0  0  0  0  0
   38.2780   27.6380   41.7890 C   0  0  1  0  0  0  0  0  0  0  0  0
   38.6780   28.1030   43.0060 O   0  0  0  0  0  0  0  0  0  0  0  0
   38.4120   29.4860   42.9420 C   0  0  0  0  0  0  0  0  0  0  0  0
   37.3180   29.6940   41.8730 C   0  0  1  0  0  0  0  0  0  0  0  0
   36.3680   28.0330   40.7850 H   0  0  0  0  0  0  0  0  0  0  0  0
   38.8140   28.1070   40.9210 H   0  0  0  0  0  0  0  0  0  0  0  0
   39.3350   29.9750   42.5920 H   0  0  0  0  0  0  0  0  0  0  0  0
   38.1020   29.8910   43.9120 H   0  0  0  0  0  0  0  0  0  0  0  0
   36.5000   30.3450   42.2190 H   0  0  0  0  0  0  0  0  0  0  0  0
   38.8110   23.8730   41.8010 C   0  0  0  0  0  0  0  0  0  0  0  0
   39.1370   25.2150   42.0120 C   0  0  0  0  0  0  0  0  0  0  0  0
   38.2150   26.1770   41.6610 C   0  0  0  0  0  0  0  0  0  0  0  0
   37.0230   25.7410   41.1220 N   0  0  0  0  0  0  0  0  0  0  0  0
   36.7370   24.4420   40.9320 C   0  0  0  0  0  0  0  0  0  0  0  0
   37.6390   23.5080   41.2760 N   0  0  0  0  0  0  0  0  0  0  0  0
   39.5970   23.1920   42.1070 H   0  0  0  0  0  0  0  0  0  0  0  0
   40.0330   25.6260   42.4220 H   0  0  0  0  0  0  0  0  0  0  0  0
   35.7860   24.1460   40.5060 H   0  0  0  0  0  0  0  0  0  0  0  0
   36.1550   27.9650   42.8690 O   0  0  0  0  0  0  0  0  0  0  0  0
   35.1900   27.8760   42.7120 H   0  0  0  0  0  0  0  0  0  0  0  0
   39.6780   33.5860   39.4580 O   0  0  0  0  0  0  0  0  0  0  0  0
   41.7990   33.4400   40.5440 C   0  0  1  0  0  3  0  0  0  0  0  0
   40.6340   34.3110   40.1640 C   0  0  1  0  0  3  0  0  0  0  0  0
   41.0220   35.4710   39.5290 O   0  0  0  0  0  0  0  0  0  0  0  0
   41.7660   35.3500   38.3970 C   0  0  0  0  0  2  0  0  0  0  0  0
   42.7820   34.2630   38.3800 C   0  0  2  0  0  3  0  0  0  0  0  0
   43.0080   33.5880   39.6940 C   0  0  2  0  0  3  0  0  0  0  0  0
   42.1050   33.5730   41.8980 O   0  0  0  0  0  0  0  0  0  0  0  0
   41.7620   34.4670   42.1720 H   0  0  0  0  0  0  0  0  0  0  0  0
   44.0270   34.7250   37.9480 O   0  0  0  0  0  0  0  0  0  0  0  0
   44.7740   34.1820   38.3280 H   0  0  0  0  0  0  0  0  0  0  0  0
   43.6270   32.3570   39.4430 O   0  0  0  0  0  0  0  0  0  0  0  0
   43.7450   31.8250   40.2650 H   0  0  0  0  0  0  0  0  0  0  0  0
  1  6  1  1  0  0  0
  2  7  1  1  0  0  0
  2 13  1  0  0  0  0
  2  1  1  0  0  0  0
  3  4  1  0  0  0  0
  3  2  1  0  0  0  0
  4  9  1  0  0  0  0
  4  5  1  0  0  0  0
  5  1  1  0  0  0  0
  5 10  1  1  0  0  0
  8  4  1  0  0  0  0
 11  1  1  0  0  0  0
 12 11  1  0  0  0  0
 13 18  1  0  0  0  0
 14 19  1  6  0  0  0
 14 15  1  0  0  0  0
 14 18  1  0  0  0  0
 14 33  1  0  0  0  0
 15 20  1  6  0  0  0
 15 16  1  0  0  0  0
 17 16  1  0  0  0  0
 17 22  1  0  0  0  0
 18 23  1  1  0  0  0
 18 17  1  0  0  0  0
 21 17  1  0  0  0  0
 24 25  1  0  0  0  0
 24 30  1  0  0  0  0
 25 31  1  0  0  0  0
 26 15  1  0  0  0  0
 26 25  2  0  0  0  0
 27 26  1  0  0  0  0
 28 27  2  0  0  0  0
 28 29  1  0  0  0  0
 29 24  2  0  0  0  0
 32 28  1  0  0  0  0
 34 33  1  0  0  0  0
 35  5  1  0  0  0  0
 36 42  1  1  0  0  0
 37 35  1  6  0  0  0
 37 36  1  0  0  0  0
 38 37  1  0  0  0  0
 39 38  1  0  0  0  0
 40 44  1  1  0  0  0
 40 39  1  0  0  0  0
 40 41  1  0  0  0  0
 41 46  1  6  0  0  0
 41 36  1  0  0  0  0
 42 43  1  0  0  0  0
 44 45  1  0  0  0  0
 46 47  1  0  0  0  0
M  END
>  <minimizedAffinity>
-6.8383112

$$$$

 OpenBabel03242516363D

 47 50  0  0  1  0  0  0  0  0999 V2000
   36.6320   28.2290   41.6300 C   0  0  1  0  0  0  0  0  0  0  0  0
   36.9790   29.7970   41.7540 C   0  0  1  0  0  0  0  0  0  0  0  0
   38.0740   29.6840   42.5290 O   0  0  0  0  0  0  0  0  0  0  0  0
   38.8830   28.8670   41.6900 C   0  0  0  0  0  0  0  0  0  0  0  0
   38.0100   27.6440   41.5380 C   0  0  1  0  0  0  0  0  0  0  0  0
   35.9730   28.0810   40.7930 H   0  0  0  0  0  0  0  0  0  0  0  0
   36.0080   30.1710   42.0690 H   0  0  0  0  0  0  0  0  0  0  0  0
   39.8420   28.6120   42.1740 H   0  0  0  0  0  0  0  0  0  0  0  0
   39.0930   29.3310   40.7270 H   0  0  0  0  0  0  0  0  0  0  0  0
   38.0910   27.2010   40.5220 H   0  0  0  0  0  0  0  0  0  0  0  0
   36.1150   27.8900   42.8880 O   0  0  0  0  0  0  0  0  0  0  0  0
   36.8570   27.8230   43.5200 H   0  0  0  0  0  0  0  0  0  0  0  0
   37.3630   30.1400   40.4570 O   0  0  0  0  0  0  0  0  0  0  0  0
   37.5380   32.4970   40.2890 C   0  0  2  0  0  0  0  0  0  0  0  0
   38.7250   32.2070   39.3340 C   0  0  1  0  0  0  0  0  0  0  0  0
   38.0490   32.1390   38.1530 O   0  0  0  0  0  0  0  0  0  0  0  0
   36.9970   31.2400   38.4180 C   0  0  0  0  0  0  0  0  0  0  0  0
   36.7580   31.2500   39.9430 C   0  0  1  0  0  0  0  0  0  0  0  0
   37.8730   32.5490   41.3270 H   0  0  0  0  0  0  0  0  0  0  0  0
   39.1240   31.2200   39.6910 H   0  0  0  0  0  0  0  0  0  0  0  0
   37.3490   30.2380   38.1290 H   0  0  0  0  0  0  0  0  0  0  0  0
   36.0840   31.5030   37.8710 H   0  0  0  0  0  0  0  0  0  0  0  0
   35.6950   31.3560   40.2090 H   0  0  0  0  0  0  0  0  0  0  0  0
   41.6740   34.5780   38.9570 C   0  0  0  0  0  0  0  0  0  0  0  0
   40.8830   33.4600   38.6790 C   0  0  0  0  0  0  0  0  0  0  0  0
   39.7400   33.2640   39.4230 C   0  0  0  0  0  0  0  0  0  0  0  0
   39.4540   34.1950   40.3980 N   0  0  0  0  0  0  0  0  0  0  0  0
   40.2350   35.2620   40.6420 C   0  0  0  0  0  0  0  0  0  0  0  0
   41.3470   35.4500   39.9150 N   0  0  0  0  0  0  0  0  0  0  0  0
   42.5500   34.6470   38.3220 H   0  0  0  0  0  0  0  0  0  0  0  0
   41.0390   32.7020   37.9440 H   0  0  0  0  0  0  0  0  0  0  0  0
   39.9700   35.9700   41.4200 H   0  0  0  0  0  0  0  0  0  0  0  0
   36.8000   33.5570   39.8360 O   0  0  0  0  0  0  0  0  0  0  0  0
   36.3970   34.0840   40.5590 H   0  0  0  0  0  0  0  0  0  0  0  0
   38.2760   26.7670   42.5700 O   0  0  0  0  0  0  0  0  0  0  0  0
   39.6710   25.7210   40.9390 C   0  0  1  0  0  3  0  0  0  0  0  0
   38.6400   25.5410   42.0190 C   0  0  1  0  0  3  0  0  0  0  0  0
   39.0140   24.6060   42.9600 O   0  0  0  0  0  0  0  0  0  0  0  0
   40.1890   24.8050   43.6130 C   0  0  0  0  0  2  0  0  0  0  0  0
   41.3120   25.3610   42.8090 C   0  0  2  0  0  3  0  0  0  0  0  0
   41.0690   25.4160   41.3370 C   0  0  2  0  0  3  0  0  0  0  0  0
   39.3070   25.0360   39.7800 O   0  0  0  0  0  0  0  0  0  0  0  0
   38.6970   24.3050   40.0700 H   0  0  0  0  0  0  0  0  0  0  0  0
   42.4900   24.6320   42.9940 O   0  0  0  0  0  0  0  0  0  0  0  0
   43.0860   24.6890   42.1940 H   0  0  0  0  0  0  0  0  0  0  0  0
   41.9810   26.3260   40.7850 O   0  0  0  0  0  0  0  0  0  0  0  0
   41.8300   26.4640   39.8200 H   0  0  0  0  0  0  0  0  0  0  0  0
  1  6  1  6  0  0  0
  1  2  1  0  0  0  0
  1 11  1  0  0  0  0
  2  7  1  1  0  0  0
  2  3  1  0  0  0  0
  4  8  1  0  0  0  0
  4  3  1  0  0  0  0
  5 10  1  6  0  0  0
  5  1  1  0  0  0  0
  5  4  1  0  0  0  0
  5 35  1  0  0  0  0
  9  4  1  0  0  0  0
 11 12  1  0  0  0  0
 13  2  1  0  0  0  0
 14 19  1  1  0  0  0
 15 26  1  0  0  0  0
 15 20  1  1  0  0  0
 15 14  1  0  0  0  0
 16 17  1  0  0  0  0
 16 15  1  0  0  0  0
 17 18  1  0  0  0  0
 18 23  1  1  0  0  0
 18 14  1  0  0  0  0
 18 13  1  0  0  0  0
 21 17  1  0  0  0  0
 22 17  1  0  0  0  0
 24 29  1  0  0  0  0
 25 24  2  0  0  0  0
 25 26  1  0  0  0  0
 26 27  2  0  0  0  0
 27 28  1  0  0  0  0
 28 32  1  0  0  0  0
 29 28  2  0  0  0  0
 30 24  1  0  0  0  0
 31 25  1  0  0  0  0
 33 14  1  0  0  0  0
 33 34  1  0  0  0  0
 36 42  1  6  0  0  0
 36 41  1  0  0  0  0
 36 37  1  0  0  0  0
 37 35  1  1  0  0  0
 37 38  1  0  0  0  0
 38 39  1  0  0  0  0
 40 44  1  6  0  0  0
 40 39  1  0  0  0  0
 41 46  1  1  0  0  0
 41 40  1  0  0  0  0
 42 43  1  0  0  0  0
 45 44  1  0  0  0  0
 47 46  1  0  0  0  0
M  END
>  <minimizedAffinity>
-6.81626463

$$$$

 OpenBabel03242516363D

 47 50  0  0  1  0  0  0  0  0999 V2000
   40.2780   29.6930   41.1850 C   0  0  1  0  0  0  0  0  0  0  0  0
   39.5190   30.0420   42.5630 C   0  0  1  0  0  0  0  0  0  0  0  0
   39.5590   31.3840   42.4640 O   0  0  0  0  0  0  0  0  0  0  0  0
   38.8640   31.5580   41.2340 C   0  0  0  0  0  0  0  0  0  0  0  0
   39.7320   30.7640   40.2870 C   0  0  1  0  0  0  0  0  0  0  0  0
   40.0720   28.6720   40.9210 H   0  0  0  0  0  0  0  0  0  0  0  0
   40.1030   29.4330   43.2480 H   0  0  0  0  0  0  0  0  0  0  0  0
   38.8230   32.6210   40.9380 H   0  0  0  0  0  0  0  0  0  0  0  0
   37.8470   31.1680   41.2670 H   0  0  0  0  0  0  0  0  0  0  0  0
   39.1310   30.2420   39.5130 H   0  0  0  0  0  0  0  0  0  0  0  0
   41.6190   30.0050   41.4440 O   0  0  0  0  0  0  0  0  0  0  0  0
   41.7220   30.9770   41.4220 H   0  0  0  0  0  0  0  0  0  0  0  0
   38.2160   29.6000   42.3280 O   0  0  0  0  0  0  0  0  0  0  0  0
   36.7360   27.7600   42.5210 C   0  0  2  0  0  0  0  0  0  0  0  0
   37.7510   27.0200   41.6110 C   0  0  1  0  0  0  0  0  0  0  0  0
   38.5720   26.5030   42.5680 O   0  0  0  0  0  0  0  0  0  0  0  0
   38.8840   27.6120   43.3790 C   0  0  0  0  0  0  0  0  0  0  0  0
   37.7570   28.6500   43.1920 C   0  0  1  0  0  0  0  0  0  0  0  0
   35.9920   28.2930   41.9260 H   0  0  0  0  0  0  0  0  0  0  0  0
   38.2170   27.8400   41.0030 H   0  0  0  0  0  0  0  0  0  0  0  0
   39.8190   28.0430   42.9880 H   0  0  0  0  0  0  0  0  0  0  0  0
   38.9970   27.3330   44.4330 H   0  0  0  0  0  0  0  0  0  0  0  0
   37.3770   29.0450   44.1480 H   0  0  0  0  0  0  0  0  0  0  0  0
   36.0010   25.0360   38.8790 C   0  0  0  0  0  0  0  0  0  0  0  0
   36.5940   26.1530   39.4740 C   0  0  0  0  0  0  0  0  0  0  0  0
   37.0710   26.0340   40.7610 C   0  0  0  0  0  0  0  0  0  0  0  0
   36.9280   24.8100   41.3770 N   0  0  0  0  0  0  0  0  0  0  0  0
   36.3540   23.7520   40.7780 C   0  0  0  0  0  0  0  0  0  0  0  0
   35.8910   23.8720   39.5240 N   0  0  0  0  0  0  0  0  0  0  0  0
   35.6570   25.2260   37.8690 H   0  0  0  0  0  0  0  0  0  0  0  0
   36.7400   27.1270   39.0620 H   0  0  0  0  0  0  0  0  0  0  0  0
   36.2640   22.8070   41.3010 H   0  0  0  0  0  0  0  0  0  0  0  0
   36.2530   26.9220   43.4900 O   0  0  0  0  0  0  0  0  0  0  0  0
   35.3270   27.1220   43.7470 H   0  0  0  0  0  0  0  0  0  0  0  0
   40.7240   31.5850   39.7890 O   0  0  0  0  0  0  0  0  0  0  0  0
   40.6020   33.9390   39.4110 C   0  0  1  0  0  3  0  0  0  0  0  0
   40.1250   32.5700   39.0090 C   0  0  1  0  0  3  0  0  0  0  0  0
   40.2400   32.3440   37.6550 O   0  0  0  0  0  0  0  0  0  0  0  0
   41.4730   32.4740   37.0980 C   0  0  0  0  0  2  0  0  0  0  0  0
   42.3270   33.5770   37.6170 C   0  0  2  0  0  3  0  0  0  0  0  0
   41.6330   34.5380   38.5260 C   0  0  2  0  0  3  0  0  0  0  0  0
   39.5290   34.8070   39.6080 O   0  0  0  0  0  0  0  0  0  0  0  0
   38.7760   34.4430   39.0670 H   0  0  0  0  0  0  0  0  0  0  0  0
   42.8810   34.3330   36.5820 O   0  0  0  0  0  0  0  0  0  0  0  0
   43.0680   35.2710   36.8710 H   0  0  0  0  0  0  0  0  0  0  0  0
   42.6140   35.2240   39.2540 O   0  0  0  0  0  0  0  0  0  0  0  0
   42.2230   35.8300   39.9270 H   0  0  0  0  0  0  0  0  0  0  0  0
  1  6  1  6  0  0  0
  1 11  1  0  0  0  0
  1  2  1  0  0  0  0
  2  7  1  1  0  0  0
  3  2  1  0  0  0  0
  4  9  1  0  0  0  0
  4  3  1  0  0  0  0
  5 10  1  6  0  0  0
  5  1  1  0  0  0  0
  5  4  1  0  0  0  0
  8  4  1  0  0  0  0
 12 11  1  0  0  0  0
 13  2  1  0  0  0  0
 13 18  1  0  0  0  0
 14 19  1  6  0  0  0
 14 18  1  0  0  0  0
 14 33  1  0  0  0  0
 15 20  1  6  0  0  0
 15 14  1  0  0  0  0
 15 16  1  0  0  0  0
 16 17  1  0  0  0  0
 17 22  1  0  0  0  0
 18 17  1  0  0  0  0
 18 23  1  1  0  0  0
 21 17  1  0  0  0  0
 24 25  2  0  0  0  0
 24 29  1  0  0  0  0
 25 26  1  0  0  0  0
 26 27  2  0  0  0  0
 26 15  1  0  0  0  0
 28 32  1  0  0  0  0
 28 27  1  0  0  0  0
 29 28  2  0  0  0  0
 30 24  1  0  0  0  0
 31 25  1  0  0  0  0
 33 34  1  0  0  0  0
 35  5  1  0  0  0  0
 36 42  1  6  0  0  0
 37 36  1  0  0  0  0
 37 35  1  1  0  0  0
 38 37  1  0  0  0  0
 39 40  1  0  0  0  0
 39 38  1  0  0  0  0
 40 44  1  6  0  0  0
 40 41  1  0  0  0  0
 41 46  1  1  0  0  0
 41 36  1  0  0  0  0
 43 42  1  0  0  0  0
 44 45  1  0  0  0  0
 46 47  1  0  0  0  0
M  END
>  <minimizedAffinity>
-6.81004572

$$$$

 OpenBabel03242516363D

 47 50  0  0  1  0  0  0  0  0999 V2000
   37.6400   32.1150   40.5150 C   0  0  1  0  0  0  0  0  0  0  0  0
   36.9610   31.0900   39.4740 C   0  0  1  0  0  0  0  0  0  0  0  0
   37.5030   31.5840   38.3460 O   0  0  0  0  0  0  0  0  0  0  0  0
   38.8850   31.4360   38.6530 C   0  0  0  0  0  0  0  0  0  0  0  0
   39.0010   32.2730   39.9050 C   0  0  1  0  0  0  0  0  0  0  0  0
   37.5850   31.6980   41.5040 H   0  0  0  0  0  0  0  0  0  0  0  0
   35.9230   31.1840   39.7800 H   0  0  0  0  0  0  0  0  0  0  0  0
   39.5260   31.8360   37.8480 H   0  0  0  0  0  0  0  0  0  0  0  0
   39.1660   30.4000   38.8370 H   0  0  0  0  0  0  0  0  0  0  0  0
   39.7180   31.8330   40.6320 H   0  0  0  0  0  0  0  0  0  0  0  0
   36.9480   33.3170   40.3150 O   0  0  0  0  0  0  0  0  0  0  0  0
   37.2660   33.7230   39.4850 H   0  0  0  0  0  0  0  0  0  0  0  0
   37.5710   29.8730   39.7840 O   0  0  0  0  0  0  0  0  0  0  0  0
   37.5330   27.5140   40.0090 C   0  0  2  0  0  0  0  0  0  0  0  0
   37.7240   27.7900   41.5240 C   0  0  1  0  0  0  0  0  0  0  0  0
   36.4170   27.8800   41.9000 O   0  0  0  0  0  0  0  0  0  0  0  0
   35.8650   28.7970   40.9820 C   0  0  0  0  0  0  0  0  0  0  0  0
   36.7570   28.7800   39.7230 C   0  0  1  0  0  0  0  0  0  0  0  0
   38.4950   27.4480   39.4990 H   0  0  0  0  0  0  0  0  0  0  0  0
   38.2770   28.7660   41.5530 H   0  0  0  0  0  0  0  0  0  0  0  0
   35.9360   29.7950   41.4430 H   0  0  0  0  0  0  0  0  0  0  0  0
   34.8250   28.5570   40.7360 H   0  0  0  0  0  0  0  0  0  0  0  0
   36.1780   28.6920   38.7900 H   0  0  0  0  0  0  0  0  0  0  0  0
   40.1480   25.5820   43.4490 C   0  0  0  0  0  0  0  0  0  0  0  0
   39.6250   26.7740   42.9410 C   0  0  0  0  0  0  0  0  0  0  0  0
   38.4920   26.7130   42.1600 C   0  0  0  0  0  0  0  0  0  0  0  0
   37.9490   25.4670   41.9330 N   0  0  0  0  0  0  0  0  0  0  0  0
   38.4740   24.3360   42.4360 C   0  0  0  0  0  0  0  0  0  0  0  0
   39.5780   24.4000   43.1970 N   0  0  0  0  0  0  0  0  0  0  0  0
   41.0370   25.7300   44.0510 H   0  0  0  0  0  0  0  0  0  0  0  0
   39.9880   27.7690   43.0740 H   0  0  0  0  0  0  0  0  0  0  0  0
   38.0120   23.3770   42.2310 H   0  0  0  0  0  0  0  0  0  0  0  0
   36.6670   26.4730   39.8120 O   0  0  0  0  0  0  0  0  0  0  0  0
   36.8720   25.9480   39.0090 H   0  0  0  0  0  0  0  0  0  0  0  0
   39.2680   33.5800   39.5530 O   0  0  0  0  0  0  0  0  0  0  0  0
   41.4040   33.0570   40.4820 C   0  0  1  0  0  3  0  0  0  0  0  0
   40.2850   34.0560   40.3760 C   0  0  1  0  0  3  0  0  0  0  0  0
   40.7270   35.3140   40.0310 O   0  0  0  0  0  0  0  0  0  0  0  0
   41.4320   35.4390   38.8750 C   0  0  0  0  0  2  0  0  0  0  0  0
   42.3780   34.3370   38.5490 C   0  0  2  0  0  3  0  0  0  0  0  0
   42.5970   33.3470   39.6460 C   0  0  2  0  0  3  0  0  0  0  0  0
   41.7540   32.8330   41.8130 O   0  0  0  0  0  0  0  0  0  0  0  0
   41.4740   33.6480   42.3130 H   0  0  0  0  0  0  0  0  0  0  0  0
   43.6370   34.8260   38.1930 O   0  0  0  0  0  0  0  0  0  0  0  0
   44.3590   34.1660   38.3970 H   0  0  0  0  0  0  0  0  0  0  0  0
   43.1320   32.1850   39.0740 O   0  0  0  0  0  0  0  0  0  0  0  0
   43.2380   31.4600   39.7350 H   0  0  0  0  0  0  0  0  0  0  0  0
  1  6  1  1  0  0  0
  2  7  1  1  0  0  0
  2 13  1  0  0  0  0
  2  1  1  0  0  0  0
  3  4  1  0  0  0  0
  3  2  1  0  0  0  0
  4  9  1  0  0  0  0
  4  5  1  0  0  0  0
  5  1  1  0  0  0  0
  5 10  1  1  0  0  0
  8  4  1  0  0  0  0
 11  1  1  0  0  0  0
 12 11  1  0  0  0  0
 14 19  1  6  0  0  0
 14 15  1  0  0  0  0
 15 20  1  1  0  0  0
 15 16  1  0  0  0  0
 15 26  1  0  0  0  0
 17 21  1  0  0  0  0
 17 16  1  0  0  0  0
 18 23  1  6  0  0  0
 18 13  1  0  0  0  0
 18 14  1  0  0  0  0
 18 17  1  0  0  0  0
 22 17  1  0  0  0  0
 24 30  1  0  0  0  0
 25 31  1  0  0  0  0
 25 24  2  0  0  0  0
 26 25  1  0  0  0  0
 27 26  2  0  0  0  0
 27 28  1  0  0  0  0
 28 29  2  0  0  0  0
 29 24  1  0  0  0  0
 32 28  1  0  0  0  0
 33 14  1  0  0  0  0
 34 33  1  0  0  0  0
 35  5  1  0  0  0  0
 36 42  1  1  0  0  0
 37 35  1  6  0  0  0
 37 36  1  0  0  0  0
 38 37  1  0  0  0  0
 39 38  1  0  0  0  0
 40 44  1  1  0  0  0
 40 39  1  0  0  0  0
 40 41  1  0  0  0  0
 41 46  1  6  0  0  0
 41 36  1  0  0  0  0
 42 43  1  0  0  0  0
 44 45  1  0  0  0  0
 46 47  1  0  0  0  0
M  END
>  <minimizedAffinity>
-6.7662878

$$$$

 OpenBabel03242516363D

 47 50  0  0  1  0  0  0  0  0999 V2000
   38.7980   32.0030   38.0020 C   0  0  1  0  0  0  0  0  0  0  0  0
   38.4880   30.4230   38.0480 C   0  0  1  0  0  0  0  0  0  0  0  0
   39.7360   29.9960   38.3150 O   0  0  0  0  0  0  0  0  0  0  0  0
   39.9730   30.6840   39.5380 C   0  0  0  0  0  0  0  0  0  0  0  0
   39.8080   32.1220   39.1050 C   0  0  1  0  0  0  0  0  0  0  0  0
   37.8760   32.5450   38.1130 H   0  0  0  0  0  0  0  0  0  0  0  0
   37.9630   30.3160   37.1020 H   0  0  0  0  0  0  0  0  0  0  0  0
   40.9940   30.4990   39.9170 H   0  0  0  0  0  0  0  0  0  0  0  0
   39.2600   30.4160   40.3160 H   0  0  0  0  0  0  0  0  0  0  0  0
   39.3310   32.7400   39.8960 H   0  0  0  0  0  0  0  0  0  0  0  0
   39.4770   32.1850   36.7900 O   0  0  0  0  0  0  0  0  0  0  0  0
   40.3930   31.8620   36.8960 H   0  0  0  0  0  0  0  0  0  0  0  0
   37.6990   30.2880   39.1910 O   0  0  0  0  0  0  0  0  0  0  0  0
   36.6020   28.2000   38.9590 C   0  0  2  0  0  0  0  0  0  0  0  0
   36.8890   28.0330   40.4740 C   0  0  1  0  0  0  0  0  0  0  0  0
   35.7600   28.6070   40.9790 O   0  0  0  0  0  0  0  0  0  0  0  0
   35.6850   29.8460   40.3100 C   0  0  0  0  0  0  0  0  0  0  0  0
   36.4800   29.7060   38.9950 C   0  0  1  0  0  0  0  0  0  0  0  0
   37.4340   27.8270   38.3600 H   0  0  0  0  0  0  0  0  0  0  0  0
   37.8220   28.6340   40.6410 H   0  0  0  0  0  0  0  0  0  0  0  0
   36.1950   30.5860   40.9460 H   0  0  0  0  0  0  0  0  0  0  0  0
   34.6490   30.1470   40.1190 H   0  0  0  0  0  0  0  0  0  0  0  0
   35.9290   30.0840   38.1190 H   0  0  0  0  0  0  0  0  0  0  0  0
   37.2160   24.6030   42.0830 C   0  0  0  0  0  0  0  0  0  0  0  0
   37.0040   25.9830   42.0370 C   0  0  0  0  0  0  0  0  0  0  0  0
   37.0860   26.6190   40.8180 C   0  0  0  0  0  0  0  0  0  0  0  0
   37.3740   25.8400   39.7180 N   0  0  0  0  0  0  0  0  0  0  0  0
   37.5730   24.5130   39.7930 C   0  0  0  0  0  0  0  0  0  0  0  0
   37.4920   23.8970   40.9840 N   0  0  0  0  0  0  0  0  0  0  0  0
   37.1320   24.1940   43.0830 H   0  0  0  0  0  0  0  0  0  0  0  0
   36.7770   26.6490   42.8410 H   0  0  0  0  0  0  0  0  0  0  0  0
   37.7970   23.9400   38.9010 H   0  0  0  0  0  0  0  0  0  0  0  0
   35.3610   27.7160   38.6450 O   0  0  0  0  0  0  0  0  0  0  0  0
   35.3120   27.3400   37.7400 H   0  0  0  0  0  0  0  0  0  0  0  0
   41.0210   32.6010   38.6550 O   0  0  0  0  0  0  0  0  0  0  0  0
   41.1660   34.1250   40.4860 C   0  0  1  0  0  3  0  0  0  0  0  0
   41.1120   33.9480   38.9940 C   0  0  1  0  0  3  0  0  0  0  0  0
   42.1300   34.6100   38.3430 O   0  0  0  0  0  0  0  0  0  0  0  0
   43.4070   34.3040   38.6970 C   0  0  0  0  0  2  0  0  0  0  0  0
   43.6560   34.0500   40.1420 C   0  0  2  0  0  3  0  0  0  0  0  0
   42.5160   34.3840   41.0480 C   0  0  2  0  0  3  0  0  0  0  0  0
   40.2420   35.0790   40.9130 O   0  0  0  0  0  0  0  0  0  0  0  0
   40.0730   35.6690   40.1290 H   0  0  0  0  0  0  0  0  0  0  0  0
   44.7620   34.7630   40.6090 O   0  0  0  0  0  0  0  0  0  0  0  0
   44.6880   34.9580   41.5860 H   0  0  0  0  0  0  0  0  0  0  0  0
   42.7190   33.7090   42.2590 O   0  0  0  0  0  0  0  0  0  0  0  0
   41.9650   33.8310   42.8830 H   0  0  0  0  0  0  0  0  0  0  0  0
  1  2  1  0  0  0  0
  1  6  1  1  0  0  0
  1  5  1  0  0  0  0
  2  7  1  6  0  0  0
  2  3  1  0  0  0  0
  2 13  1  0  0  0  0
  3  4  1  0  0  0  0
  4  8  1  0  0  0  0
  4  9  1  0  0  0  0
  5  4  1  0  0  0  0
  5 10  1  1  0  0  0
 11 12  1  0  0  0  0
 11  1  1  0  0  0  0
 14 19  1  6  0  0  0
 14 18  1  0  0  0  0
 14 15  1  0  0  0  0
 15 20  1  1  0  0  0
 15 26  1  0  0  0  0
 15 16  1  0  0  0  0
 17 21  1  0  0  0  0
 17 16  1  0  0  0  0
 18 23  1  6  0  0  0
 18 13  1  0  0  0  0
 18 17  1  0  0  0  0
 22 17  1  0  0  0  0
 24 30  1  0  0  0  0
 25 24  1  0  0  0  0
 25 31  1  0  0  0  0
 26 25  2  0  0  0  0
 27 28  2  0  0  0  0
 27 26  1  0  0  0  0
 28 29  1  0  0  0  0
 29 24  2  0  0  0  0
 32 28  1  0  0  0  0
 33 14  1  0  0  0  0
 34 33  1  0  0  0  0
 35  5  1  0  0  0  0
 36 42  1  6  0  0  0
 36 41  1  0  0  0  0
 37 35  1  1  0  0  0
 37 36  1  0  0  0  0
 38 39  1  0  0  0  0
 38 37  1  0  0  0  0
 39 40  1  0  0  0  0
 40 44  1  1  0  0  0
 40 41  1  0  0  0  0
 41 46  1  1  0  0  0
 43 42  1  0  0  0  0
 44 45  1  0  0  0  0
 46 47  1  0  0  0  0
M  END
>  <minimizedAffinity>
-6.43353462

$$$$

 OpenBabel03242516363D

 47 50  0  0  1  0  0  0  0  0999 V2000
   40.4330   28.8240   41.9370 C   0  0  1  0  0  0  0  0  0  0  0  0
   39.3570   28.1050   42.8970 C   0  0  1  0  0  0  0  0  0  0  0  0
   38.4860   29.1260   42.9990 O   0  0  0  0  0  0  0  0  0  0  0  0
   38.1640   29.3100   41.6240 C   0  0  0  0  0  0  0  0  0  0  0  0
   39.5240   29.6110   41.0400 C   0  0  1  0  0  0  0  0  0  0  0  0
   41.0520   28.0730   41.4810 H   0  0  0  0  0  0  0  0  0  0  0  0
   40.0240   27.7510   43.6800 H   0  0  0  0  0  0  0  0  0  0  0  0
   37.4730   30.1590   41.4790 H   0  0  0  0  0  0  0  0  0  0  0  0
   37.7230   28.4220   41.1740 H   0  0  0  0  0  0  0  0  0  0  0  0
   39.6430   29.1790   40.0240 H   0  0  0  0  0  0  0  0  0  0  0  0
   41.0870   29.7350   42.7770 O   0  0  0  0  0  0  0  0  0  0  0  0
   40.4960   30.4990   42.9270 H   0  0  0  0  0  0  0  0  0  0  0  0
   38.8140   27.1140   42.0780 O   0  0  0  0  0  0  0  0  0  0  0  0
   37.9390   24.9140   41.9890 C   0  0  2  0  0  0  0  0  0  0  0  0
   38.3870   24.9400   40.5040 C   0  0  1  0  0  0  0  0  0  0  0  0
   39.6560   24.4650   40.6460 O   0  0  0  0  0  0  0  0  0  0  0  0
   40.2060   25.2720   41.6630 C   0  0  0  0  0  0  0  0  0  0  0  0
   39.0300   25.8320   42.4910 C   0  0  1  0  0  0  0  0  0  0  0  0
   36.9280   25.3090   42.1000 H   0  0  0  0  0  0  0  0  0  0  0  0
   38.3330   26.0250   40.2240 H   0  0  0  0  0  0  0  0  0  0  0  0
   40.7110   26.1150   41.1660 H   0  0  0  0  0  0  0  0  0  0  0  0
   40.9080   24.7170   42.2940 H   0  0  0  0  0  0  0  0  0  0  0  0
   39.1790   25.7190   43.5760 H   0  0  0  0  0  0  0  0  0  0  0  0
   36.7040   22.7420   37.8970 C   0  0  0  0  0  0  0  0  0  0  0  0
   37.7350   23.4900   38.4720 C   0  0  0  0  0  0  0  0  0  0  0  0
   37.4950   24.1210   39.6730 C   0  0  0  0  0  0  0  0  0  0  0  0
   36.2430   23.9690   40.2270 N   0  0  0  0  0  0  0  0  0  0  0  0
   35.2700   23.2420   39.6500 C   0  0  0  0  0  0  0  0  0  0  0  0
   35.5080   22.6280   38.4800 N   0  0  0  0  0  0  0  0  0  0  0  0
   36.9860   22.2840   36.9560 H   0  0  0  0  0  0  0  0  0  0  0  0
   38.7240   23.6510   38.1040 H   0  0  0  0  0  0  0  0  0  0  0  0
   34.2990   23.1500   40.1230 H   0  0  0  0  0  0  0  0  0  0  0  0
   38.1760   23.6860   42.5450 O   0  0  0  0  0  0  0  0  0  0  0  0
   37.5210   23.4410   43.2330 H   0  0  0  0  0  0  0  0  0  0  0  0
   39.7590   30.9690   41.1180 O   0  0  0  0  0  0  0  0  0  0  0  0
   38.2710   32.7990   40.7500 C   0  0  1  0  0  3  0  0  0  0  0  0
   38.9710   31.6050   40.1630 C   0  0  1  0  0  3  0  0  0  0  0  0
   39.6510   31.9050   39.0020 O   0  0  0  0  0  0  0  0  0  0  0  0
   40.5940   32.8820   39.0600 C   0  0  0  0  0  2  0  0  0  0  0  0
   40.2840   34.0580   39.9190 C   0  0  2  0  0  3  0  0  0  0  0  0
   38.8810   34.1150   40.4290 C   0  0  2  0  0  3  0  0  0  0  0  0
   36.9090   32.7790   40.4520 O   0  0  0  0  0  0  0  0  0  0  0  0
   36.8150   32.2300   39.6270 H   0  0  0  0  0  0  0  0  0  0  0  0
   40.5170   35.2620   39.2510 O   0  0  0  0  0  0  0  0  0  0  0  0
   39.9370   35.9960   39.6020 H   0  0  0  0  0  0  0  0  0  0  0  0
   38.8590   34.9850   41.5270 O   0  0  0  0  0  0  0  0  0  0  0  0
   37.9720   35.0180   41.9580 H   0  0  0  0  0  0  0  0  0  0  0  0
  1  6  1  6  0  0  0
  1 11  1  0  0  0  0
  1  2  1  0  0  0  0
  2  3  1  0  0  0  0
  2  7  1  1  0  0  0
  4  3  1  0  0  0  0
  5 10  1  6  0  0  0
  5 35  1  0  0  0  0
  5  4  1  0  0  0  0
  5  1  1  0  0  0  0
  8  4  1  0  0  0  0
  9  4  1  0  0  0  0
 11 12  1  0  0  0  0
 13 18  1  0  0  0  0
 13  2  1  0  0  0  0
 14 19  1  1  0  0  0
 14 18  1  0  0  0  0
 14 33  1  0  0  0  0
 15 20  1  6  0  0  0
 15 16  1  0  0  0  0
 15 14  1  0  0  0  0
 16 17  1  0  0  0  0
 17 22  1  0  0  0  0
 17 18  1  0  0  0  0
 18 23  1  1  0  0  0
 21 17  1  0  0  0  0
 24 25  2  0  0  0  0
 24 29  1  0  0  0  0
 25 26  1  0  0  0  0
 26 27  2  0  0  0  0
 26 15  1  0  0  0  0
 28 32  1  0  0  0  0
 28 27  1  0  0  0  0
 29 28  2  0  0  0  0
 30 24  1  0  0  0  0
 31 25  1  0  0  0  0
 33 34  1  0  0  0  0
 36 42  1  6  0  0  0
 37 36  1  0  0  0  0
 37 35  1  1  0  0  0
 38 39  1  0  0  0  0
 38 37  1  0  0  0  0
 39 40  1  0  0  0  0
 40 44  1  6  0  0  0
 40 41  1  0  0  0  0
 41 36  1  0  0  0  0
 41 46  1  1  0  0  0
 43 42  1  0  0  0  0
 44 45  1  0  0  0  0
 46 47  1  0  0  0  0
M  END
>  <minimizedAffinity>
-6.31003857

$$$$

 OpenBabel03242516363D

 47 50  0  0  1  0  0  0  0  0999 V2000
   37.1160   27.9510   39.7140 C   0  0  1  0  0  0  0  0  0  0  0  0
   36.1790   29.1420   40.2590 C   0  0  1  0  0  0  0  0  0  0  0  0
   35.8390   28.5880   41.4380 O   0  0  0  0  0  0  0  0  0  0  0  0
   37.1320   28.4160   42.0080 C   0  0  0  0  0  0  0  0  0  0  0  0
   37.7910   27.5230   40.9840 C   0  0  1  0  0  0  0  0  0  0  0  0
   37.7390   28.3280   38.9240 H   0  0  0  0  0  0  0  0  0  0  0  0
   35.5270   29.2660   39.3980 H   0  0  0  0  0  0  0  0  0  0  0  0
   37.0790   27.9190   42.9920 H   0  0  0  0  0  0  0  0  0  0  0  0
   37.6690   29.3560   42.1230 H   0  0  0  0  0  0  0  0  0  0  0  0
   38.8680   27.7630   40.8570 H   0  0  0  0  0  0  0  0  0  0  0  0
   36.2130   26.9400   39.3570 O   0  0  0  0  0  0  0  0  0  0  0  0
   35.8920   26.5080   40.1730 H   0  0  0  0  0  0  0  0  0  0  0  0
   37.0850   30.1810   40.4810 O   0  0  0  0  0  0  0  0  0  0  0  0
   37.5890   32.4960   40.5160 C   0  0  2  0  0  0  0  0  0  0  0  0
   38.8810   32.0890   39.7610 C   0  0  1  0  0  0  0  0  0  0  0  0
   38.4270   32.1740   38.4790 O   0  0  0  0  0  0  0  0  0  0  0  0
   37.2360   31.4190   38.4940 C   0  0  0  0  0  0  0  0  0  0  0  0
   36.7300   31.3880   39.9520 C   0  0  1  0  0  0  0  0  0  0  0  0
   37.7350   32.4500   41.5970 H   0  0  0  0  0  0  0  0  0  0  0  0
   39.0790   31.0400   40.1090 H   0  0  0  0  0  0  0  0  0  0  0  0
   37.5030   30.3920   38.1980 H   0  0  0  0  0  0  0  0  0  0  0  0
   36.4790   31.8320   37.8180 H   0  0  0  0  0  0  0  0  0  0  0  0
   35.6590   31.6280   40.0380 H   0  0  0  0  0  0  0  0  0  0  0  0
   42.0780   33.7800   40.9380 C   0  0  0  0  0  0  0  0  0  0  0  0
   41.1670   32.7340   40.7700 C   0  0  0  0  0  0  0  0  0  0  0  0
   39.9910   32.9890   40.0990 C   0  0  0  0  0  0  0  0  0  0  0  0
   39.7940   34.2730   39.6370 N   0  0  0  0  0  0  0  0  0  0  0  0
   40.6900   35.2590   39.8130 C   0  0  0  0  0  0  0  0  0  0  0  0
   41.8350   35.0060   40.4670 N   0  0  0  0  0  0  0  0  0  0  0  0
   42.9710   33.4840   41.4760 H   0  0  0  0  0  0  0  0  0  0  0  0
   41.2500   31.7210   41.0970 H   0  0  0  0  0  0  0  0  0  0  0  0
   40.4930   36.2540   39.4310 H   0  0  0  0  0  0  0  0  0  0  0  0
   37.0870   33.6690   40.0200 O   0  0  0  0  0  0  0  0  0  0  0  0
   36.6320   34.2110   40.6990 H   0  0  0  0  0  0  0  0  0  0  0  0
   37.5280   26.2040   41.2980 O   0  0  0  0  0  0  0  0  0  0  0  0
   38.5220   24.1250   41.9220 C   0  0  1  0  0  3  0  0  0  0  0  0
   38.7390   25.5680   41.5580 C   0  0  1  0  0  3  0  0  0  0  0  0
   39.6710   25.7290   40.5560 O   0  0  0  0  0  0  0  0  0  0  0  0
   39.4440   25.0920   39.3770 C   0  0  0  0  0  2  0  0  0  0  0  0
   38.8510   23.7290   39.4600 C   0  0  2  0  0  3  0  0  0  0  0  0
   38.7900   23.1480   40.8350 C   0  0  2  0  0  3  0  0  0  0  0  0
   39.2070   23.7930   43.0900 O   0  0  0  0  0  0  0  0  0  0  0  0
   39.9570   24.4430   43.1650 H   0  0  0  0  0  0  0  0  0  0  0  0
   39.5470   22.8130   38.6690 O   0  0  0  0  0  0  0  0  0  0  0  0
   39.4670   21.8830   39.0260 H   0  0  0  0  0  0  0  0  0  0  0  0
   37.8510   22.1090   40.8210 O   0  0  0  0  0  0  0  0  0  0  0  0
   37.7090   21.7240   41.7180 H   0  0  0  0  0  0  0  0  0  0  0  0
  1  6  1  6  0  0  0
  1  2  1  0  0  0  0
  1  5  1  0  0  0  0
  2  7  1  6  0  0  0
  2 13  1  0  0  0  0
  2  3  1  0  0  0  0
  3  4  1  0  0  0  0
  4  9  1  0  0  0  0
  4  8  1  0  0  0  0
  5 10  1  6  0  0  0
  5 35  1  0  0  0  0
  5  4  1  0  0  0  0
 11  1  1  0  0  0  0
 11 12  1  0  0  0  0
 14 19  1  1  0  0  0
 15 26  1  0  0  0  0
 15 20  1  1  0  0  0
 15 14  1  0  0  0  0
 16 17  1  0  0  0  0
 16 15  1  0  0  0  0
 17 18  1  0  0  0  0
 18 23  1  1  0  0  0
 18 13  1  0  0  0  0
 18 14  1  0  0  0  0
 21 17  1  0  0  0  0
 22 17  1  0  0  0  0
 24 30  1  0  0  0  0
 25 24  1  0  0  0  0
 25 31  1  0  0  0  0
 26 25  2  0  0  0  0
 27 28  2  0  0  0  0
 27 26  1  0  0  0  0
 28 29  1  0  0  0  0
 29 24  2  0  0  0  0
 32 28  1  0  0  0  0
 33 14  1  0  0  0  0
 33 34  1  0  0  0  0
 36 42  1  1  0  0  0
 37 35  1  6  0  0  0
 37 36  1  0  0  0  0
 38 37  1  0  0  0  0
 39 40  1  0  0  0  0
 39 38  1  0  0  0  0
 40 44  1  6  0  0  0
 40 41  1  0  0  0  0
 41 46  1  6  0  0  0
 41 36  1  0  0  0  0
 42 43  1  0  0  0  0
 44 45  1  0  0  0  0
 46 47  1  0  0  0  0
M  END
>  <minimizedAffinity>
-6.23301792

$$$$

 OpenBabel03242516363D

 47 50  0  0  1  0  0  0  0  0999 V2000
   37.4560   29.2080   39.9250 C   0  0  1  0  0  0  0  0  0  0  0  0
   36.6710   30.3510   40.7470 C   0  0  1  0  0  0  0  0  0  0  0  0
   36.5440   29.6880   41.9120 O   0  0  0  0  0  0  0  0  0  0  0  0
   37.9160   29.4500   42.2080 C   0  0  0  0  0  0  0  0  0  0  0  0
   38.3460   28.6540   40.9990 C   0  0  1  0  0  0  0  0  0  0  0  0
   37.9290   29.6540   39.0700 H   0  0  0  0  0  0  0  0  0  0  0  0
   35.8720   30.5620   40.0400 H   0  0  0  0  0  0  0  0  0  0  0  0
   38.0350   28.8610   43.1340 H   0  0  0  0  0  0  0  0  0  0  0  0
   38.4900   30.3700   42.3060 H   0  0  0  0  0  0  0  0  0  0  0  0
   39.3860   28.8950   40.6930 H   0  0  0  0  0  0  0  0  0  0  0  0
   36.4750   28.2450   39.6540 O   0  0  0  0  0  0  0  0  0  0  0  0
   36.3010   27.7390   40.4720 H   0  0  0  0  0  0  0  0  0  0  0  0
   37.6300   31.3540   40.8880 O   0  0  0  0  0  0  0  0  0  0  0  0
   38.6200   33.3540   40.0910 C   0  0  2  0  0  0  0  0  0  0  0  0
   39.3370   32.4330   39.0700 C   0  0  1  0  0  0  0  0  0  0  0  0
   38.4150   32.4510   38.0670 O   0  0  0  0  0  0  0  0  0  0  0  0
   37.2050   32.1360   38.7170 C   0  0  0  0  0  0  0  0  0  0  0  0
   37.3730   32.5080   40.2060 C   0  0  1  0  0  0  0  0  0  0  0  0
   39.1960   33.4400   41.0140 H   0  0  0  0  0  0  0  0  0  0  0  0
   39.4160   31.4480   39.6020 H   0  0  0  0  0  0  0  0  0  0  0  0
   37.0760   31.0440   38.6460 H   0  0  0  0  0  0  0  0  0  0  0  0
   36.3500   32.6560   38.2710 H   0  0  0  0  0  0  0  0  0  0  0  0
   36.5260   33.0930   40.5990 H   0  0  0  0  0  0  0  0  0  0  0  0
   42.6060   33.5260   37.4630 C   0  0  0  0  0  0  0  0  0  0  0  0
   41.3580   32.9020   37.5350 C   0  0  0  0  0  0  0  0  0  0  0  0
   40.6600   32.9680   38.7210 C   0  0  0  0  0  0  0  0  0  0  0  0
   41.2490   33.6510   39.7630 N   0  0  0  0  0  0  0  0  0  0  0  0
   42.4520   34.2420   39.6630 C   0  0  0  0  0  0  0  0  0  0  0  0
   43.1290   34.1760   38.5060 N   0  0  0  0  0  0  0  0  0  0  0  0
   43.0780   33.4210   36.4920 H   0  0  0  0  0  0  0  0  0  0  0  0
   40.8410   32.3590   36.7750 H   0  0  0  0  0  0  0  0  0  0  0  0
   42.8760   34.7700   40.5100 H   0  0  0  0  0  0  0  0  0  0  0  0
   38.2400   34.5290   39.5000 O   0  0  0  0  0  0  0  0  0  0  0  0
   38.2540   35.2930   40.1160 H   0  0  0  0  0  0  0  0  0  0  0  0
   38.1110   27.3140   41.2330 O   0  0  0  0  0  0  0  0  0  0  0  0
   40.2770   26.7920   42.0900 C   0  0  1  0  0  3  0  0  0  0  0  0
   39.2860   26.6130   40.9740 C   0  0  1  0  0  3  0  0  0  0  0  0
   39.0750   25.2890   40.6570 O   0  0  0  0  0  0  0  0  0  0  0  0
   38.6520   24.4630   41.6510 C   0  0  0  0  0  2  0  0  0  0  0  0
   39.2340   24.6940   43.0020 C   0  0  2  0  0  3  0  0  0  0  0  0
   40.3750   25.6570   43.0430 C   0  0  2  0  0  3  0  0  0  0  0  0
   41.5300   27.1550   41.5950 O   0  0  0  0  0  0  0  0  0  0  0  0
   41.5620   26.8230   40.6560 H   0  0  0  0  0  0  0  0  0  0  0  0
   39.6910   23.5070   43.5780 O   0  0  0  0  0  0  0  0  0  0  0  0
   40.4340   23.6740   44.2240 H   0  0  0  0  0  0  0  0  0  0  0  0
   40.5200   26.0950   44.3660 O   0  0  0  0  0  0  0  0  0  0  0  0
   41.2150   26.7890   44.4540 H   0  0  0  0  0  0  0  0  0  0  0  0
  1  6  1  6  0  0  0
  1  2  1  0  0  0  0
  1  5  1  0  0  0  0
  2  7  1  6  0  0  0
  2 13  1  0  0  0  0
  2  3  1  0  0  0  0
  3  4  1  0  0  0  0
  4  9  1  0  0  0  0
  4  8  1  0  0  0  0
  5 10  1  6  0  0  0
  5 35  1  0  0  0  0
  5  4  1  0  0  0  0
 11  1  1  0  0  0  0
 11 12  1  0  0  0  0
 14 18  1  0  0  0  0
 14 19  1  1  0  0  0
 15 20  1  1  0  0  0
 15 14  1  0  0  0  0
 16 17  1  0  0  0  0
 16 15  1  0  0  0  0
 17 18  1  0  0  0  0
 18 23  1  1  0  0  0
 18 13  1  0  0  0  0
 21 17  1  0  0  0  0
 22 17  1  0  0  0  0
 24 25  2  0  0  0  0
 24 29  1  0  0  0  0
 25 26  1  0  0  0  0
 26 15  1  0  0  0  0
 26 27  2  0  0  0  0
 28 27  1  0  0  0  0
 28 32  1  0  0  0  0
 29 28  2  0  0  0  0
 30 24  1  0  0  0  0
 31 25  1  0  0  0  0
 33 14  1  0  0  0  0
 33 34  1  0  0  0  0
 36 42  1  6  0  0  0
 36 41  1  0  0  0  0
 37 35  1  1  0  0  0
 37 36  1  0  0  0  0
 38 37  1  0  0  0  0
 38 39  1  0  0  0  0
 39 40  1  0  0  0  0
 40 41  1  0  0  0  0
 40 44  1  6  0  0  0
 41 46  1  1  0  0  0
 43 42  1  0  0  0  0
 44 45  1  0  0  0  0
 46 47  1  0  0  0  0
M  END
>  <minimizedAffinity>
-6.14016104

$$$$
