
     RDKit          3D

 31 32  0  0  0  0  0  0  0  0999 V2000
   44.5023   35.9994   44.5295 C   0  0  0  0  0  0  0  0  0  0  0  0
   45.1988   35.8808   43.3399 C   0  0  0  0  0  0  0  0  0  0  0  0
   46.1226   34.8291   43.1788 C   0  0  0  0  0  0  0  0  0  0  0  0
   46.3124   33.9397   44.2121 N   0  0  0  0  0  0  0  0  0  0  0  0
   45.6043   34.1019   45.3553 C   0  0  0  0  0  0  0  0  0  0  0  0
   44.7215   35.1110   45.5023 N   0  0  0  0  0  0  0  0  0  0  0  0
   45.8721   33.1099   46.4070 C   0  0  0  0  0  0  0  0  0  0  0  0
   46.4891   31.6082   45.6201 S   0  0  0  0  0  0  0  0  0  0  0  0
   43.8252   36.8324   44.5428 H   0  0  0  0  0  0  0  0  0  0  0  0
   45.1688   36.4882   42.4337 H   0  0  0  0  0  0  0  0  0  0  0  0
   46.7180   34.6528   42.2890 H   0  0  0  0  0  0  0  0  0  0  0  0
   46.6779   33.5736   47.0495 H   0  0  0  0  0  0  0  0  0  0  0  0
   45.0044   32.8964   47.0667 H   0  0  0  0  0  0  0  0  0  0  0  0
   49.2205   30.7521   46.9444 O   0  0  0  0  0  0  0  0  0  0  0  0
   48.0353   30.5107   47.6450 C   0  0  1  0  0  0  0  0  0  0  0  0
   46.8603   30.2759   46.7480 C   0  0  2  0  0  0  0  0  0  0  0  0
   46.9023   29.0527   46.0967 O   0  0  0  0  0  0  0  0  0  0  0  0
   46.7984   27.9729   46.9647 C   0  0  0  0  0  0  0  0  0  0  0  0
   47.0913   28.2910   48.3929 C   0  0  2  0  0  0  0  0  0  0  0  0
   45.9851   28.6481   49.1482 O   0  0  0  0  0  0  0  0  0  0  0  0
   48.2420   29.2652   48.4838 C   0  0  1  0  0  0  0  0  0  0  0  0
   49.3696   28.5639   48.0473 O   0  0  0  0  0  0  0  0  0  0  0  0
   49.3796   30.0186   46.3191 H   0  0  0  0  0  0  0  0  0  0  0  0
   47.7868   31.3488   48.3272 H   0  0  0  0  0  0  0  0  0  0  0  0
   45.9635   30.2321   47.4362 H   0  0  0  0  0  0  0  0  0  0  0  0
   47.5336   27.2031   46.6332 H   0  0  0  0  0  0  0  0  0  0  0  0
   45.8010   27.4767   46.8720 H   0  0  0  0  0  0  0  0  0  0  0  0
   47.4669   27.3479   48.8793 H   0  0  0  0  0  0  0  0  0  0  0  0
   45.9680   28.2356   50.0453 H   0  0  0  0  0  0  0  0  0  0  0  0
   48.4419   29.5294   49.5567 H   0  0  0  0  0  0  0  0  0  0  0  0
   50.1775   28.7701   48.6035 H   0  0  0  0  0  0  0  0  0  0  0  0
  1  6  2  0
  2  1  1  0
  3  2  2  0
  3  4  1  0
  4  5  2  0
  5  6  1  0
  5  7  1  0
  8  7  1  0
  1  9  1  0
  2 10  1  0
  3 11  1  0
  7 12  1  0
  7 13  1  0
 14 15  1  0
 15 16  1  0
 16 17  1  0
 17 18  1  0
 18 19  1  0
 19 20  1  0
 19 21  1  0
 21 22  1  0
 21 15  1  0
 14 23  1  0
 15 24  1  1
 16 25  1  1
 18 26  1  0
 18 27  1  0
 19 28  1  1
 20 29  1  0
 21 30  1  1
 22 31  1  0
  8 16  1  0
M  ISO  5   9  14  10  14  11  14  12   8  13   8
M  END
>  <DihAtoms>  (1) 
6,7,15,14

>  <DihDeg>  (1) 
66.42944879891922

$$$$
