
 OpenBabel03252502243D

 37 39  0  0  1  0  0  0  0  0999 V2000
   46.9840   34.6990   42.2640 N   0  0  0  0  0  0  0  0  0  0  0  0
   48.4290   34.6790   42.3900 C   0  0  0  0  0  0  0  0  0  0  0  0
   48.9170   35.5580   41.2220 C   0  0  0  0  0  0  0  0  0  0  0  0
   48.6130   34.8360   39.9300 C   0  0  0  0  0  0  0  0  0  0  0  0
   47.2620   34.2000   39.8830 C   0  0  0  0  0  0  0  0  0  0  0  0
   46.3380   34.5710   41.0030 C   0  0  1  0  0  0  0  0  0  0  0  0
   48.7950   35.0390   43.3450 H   0  0  0  0  0  0  0  0  0  0  0  0
   48.7630   33.6550   42.1150 H   0  0  0  0  0  0  0  0  0  0  0  0
   48.3020   36.4990   41.2820 H   0  0  0  0  0  0  0  0  0  0  0  0
   49.9880   35.7600   41.2720 H   0  0  0  0  0  0  0  0  0  0  0  0
   48.8030   35.5430   39.0970 H   0  0  0  0  0  0  0  0  0  0  0  0
   49.3970   34.0350   39.8400 H   0  0  0  0  0  0  0  0  0  0  0  0
   47.3550   33.0800   39.8950 H   0  0  0  0  0  0  0  0  0  0  0  0
   46.8140   34.4440   38.8980 H   0  0  0  0  0  0  0  0  0  0  0  0
   45.9020   35.5720   40.7700 H   0  0  0  0  0  0  0  0  0  0  0  0
   44.4980   35.9810   44.7520 C   0  0  0  0  0  0  0  0  0  0  0  0
   45.2680   35.9340   43.5760 C   0  0  0  0  0  0  0  0  0  0  0  0
   46.1540   34.8490   43.4180 C   0  0  0  0  0  0  0  0  0  0  0  0
   46.2000   33.9290   44.4130 N   0  0  0  0  0  0  0  0  0  0  0  0
   45.4430   34.0100   45.5300 C   0  0  0  0  0  0  0  0  0  0  0  0
   44.5820   35.0570   45.6900 N   0  0  0  0  0  0  0  0  0  0  0  0
   43.8160   36.8060   44.8860 H   0  0  0  0  0  0  0  0  0  0  0  0
   45.2160   36.6770   42.7960 H   0  0  0  0  0  0  0  0  0  0  0  0
   45.5070   33.2550   46.3040 H   0  0  0  0  0  0  0  0  0  0  0  0
   45.3470   33.5800   41.0900 O   0  0  0  0  0  0  0  0  0  0  0  0
   43.4980   33.8560   39.5410 C   0  0  2  0  0  3  0  0  0  0  0  0
   44.0740   34.0510   40.8970 C   0  0  1  0  0  3  0  0  0  0  0  0
   43.1490   33.6970   41.8510 O   0  0  0  0  0  0  0  0  0  0  0  0
   43.2110   32.2880   41.9830 C   0  0  0  0  0  2  0  0  0  0  0  0
   42.9990   31.6430   40.6410 C   0  0  1  0  0  3  0  0  0  0  0  0
   42.5680   32.6620   39.5990 C   0  0  2  0  0  3  0  0  0  0  0  0
   44.4440   33.5700   38.5640 O   0  0  0  0  0  0  0  0  0  0  0  0
   44.0380   33.6180   37.6760 H   0  0  0  0  0  0  0  0  0  0  0  0
   44.1790   31.0260   40.2600 O   0  0  0  0  0  0  0  0  0  0  0  0
   44.0550   30.5730   39.3720 H   0  0  0  0  0  0  0  0  0  0  0  0
   42.5510   32.0480   38.3510 O   0  0  0  0  0  0  0  0  0  0  0  0
   42.2080   32.6750   37.6900 H   0  0  0  0  0  0  0  0  0  0  0  0
  1  2  1  0  0  0  0
  1 18  1  0  0  0  0
  2  7  1  0  0  0  0
  3 10  1  0  0  0  0
  3  9  1  0  0  0  0
  3  2  1  0  0  0  0
  4  3  1  0  0  0  0
  5 13  1  0  0  0  0
  5  4  1  0  0  0  0
  5  6  1  0  0  0  0
  6 15  1  6  0  0  0
  6 25  1  0  0  0  0
  6  1  1  0  0  0  0
  8  2  1  0  0  0  0
 11  4  1  0  0  0  0
 12  4  1  0  0  0  0
 14  5  1  0  0  0  0
 16 22  1  0  0  0  0
 16 21  1  0  0  0  0
 17 16  2  0  0  0  0
 18 17  1  0  0  0  0
 18 19  2  0  0  0  0
 19 20  1  0  0  0  0
 20 21  2  0  0  0  0
 20 24  1  0  0  0  0
 23 17  1  0  0  0  0
 26 32  1  6  0  0  0
 26 31  1  0  0  0  0
 26 27  1  0  0  0  0
 27 25  1  6  0  0  0
 27 28  1  0  0  0  0
 28 29  1  0  0  0  0
 30 34  1  6  0  0  0
 30 29  1  0  0  0  0
 31 36  1  6  0  0  0
 31 30  1  0  0  0  0
 33 32  1  0  0  0  0
 35 34  1  0  0  0  0
 37 36  1  0  0  0  0
M  END
>  <minimizedAffinity>
-5.52032757

>  <minimizedRMSD>
0.452016711

$$$$
