REMARK  Name = 
REMARK  10 active torsions:
REMARK  status: ('A' for Active; 'I' for Inactive)
REMARK    1  A    between atoms: C_3  and  C_8
REMARK    2  A    between atoms: C_7  and  O_15
REMARK    3  A    between atoms: C_8  and  C_13
REMARK    4  A    between atoms: O_15  and  P_17
REMARK    5  A    between atoms: P_17  and  O_18
REMARK    6  A    between atoms: P_17  and  O_19
REMARK    7  A    between atoms: O_19  and  C_31
REMARK    8  A    between atoms: O_29  and  C_30
REMARK    9  A    between atoms: C_34  and  O_35
REMARK   10  A    between atoms: C_36  and  O_37
REMARK                            x       y       z     vdW  Elec       q    Type
REMARK                         _______ _______ _______ _____ _____    ______ ____
ROOT
ATOM      1 BR   UNL     1      45.733  29.887  44.870  0.00  0.00    +0.000 Br
ATOM      2  C   UNL     1      45.694  30.598  46.667  0.00  0.00    +0.000 A 
ATOM      3  C   UNL     1      46.327  31.800  46.841  0.00  0.00    +0.000 A 
ATOM      4  C   UNL     1      46.284  32.291  48.146  0.00  0.00    +0.000 A 
ATOM      5  C   UNL     1      45.655  31.625  49.191  0.00  0.00    +0.000 A 
ATOM      6  C   UNL     1      45.048  30.427  48.922  0.00  0.00    +0.000 A 
ATOM      7  C   UNL     1      45.058  29.894  47.655  0.00  0.00    +0.000 A 
ATOM      8  H   UNL     1      46.754  33.233  48.388  0.00  0.00    +0.000 HD
ATOM      9  H   UNL     1      45.651  32.053  50.193  0.00  0.00    +0.000 HD
ATOM     10  H   UNL     1      44.549  29.891  49.733  0.00  0.00    +0.000 HD
ENDROOT
BRANCH   3  11
ATOM     11  C   UNL     1      47.023  32.601  45.832  0.00  0.00    +0.000 C 
ATOM     12  H   UNL     1      47.292  31.904  44.997  0.00  0.00    +0.000 HD
ATOM     13  H   UNL     1      47.987  32.995  46.215  0.00  0.00    +0.000 HD
BRANCH  11  18
ATOM     14  C   UNL     1      44.506  35.329  45.383  0.00  0.00    +0.000 A 
ATOM     15  C   UNL     1      44.753  35.702  44.056  0.00  0.00    +0.000 A 
ATOM     16  C   UNL     1      45.743  35.041  43.351  0.00  0.00    +0.000 A 
ATOM     17  N   UNL     1      46.429  34.065  43.970  0.00  0.00    +0.000 NA
ATOM     18  C   UNL     1      46.190  33.701  45.261  0.00  0.00    +0.000 A 
ATOM     19  N   UNL     1      45.219  34.359  45.932  0.00  0.00    +0.000 NA
ATOM     20  H   UNL     1      43.775  35.740  46.069  0.00  0.00    +0.000 HD
ATOM     21  H   UNL     1      44.131  36.494  43.694  0.00  0.00    +0.000 HD
ATOM     22  H   UNL     1      45.914  35.346  42.332  0.00  0.00    +0.000 HD
ENDBRANCH  11  18
ENDBRANCH   3  11
BRANCH   7  23
ATOM     23  O   UNL     1      44.432  28.668  47.396  0.00  0.00    +0.000 OA
BRANCH  23  25
ATOM     24  O   UNL     1      44.535  26.091  47.022  0.00  0.00    +0.000 OA
ATOM     25  P   UNL     1      45.031  27.181  47.963  0.00  0.00    +0.000 P 
BRANCH  25  26
ATOM     26  O   UNL     1      44.434  26.946  49.515  0.00  0.00    +0.000 OA
ATOM     27  H   UNL     1      44.088  26.021  49.643  0.00  0.00    +0.000 HD
ENDBRANCH  25  26
BRANCH  25  28
ATOM     28  O   UNL     1      46.724  27.133  47.963  0.00  0.00    +0.000 OA
BRANCH  28  30
ATOM     29  C   UNL     1      48.685  26.275  49.051  0.00  0.00    +0.000 C 
ATOM     30  C   UNL     1      47.222  26.642  49.167  0.00  0.00    +0.000 C 
ATOM     31  O   UNL     1      46.502  25.532  49.592  0.00  0.00    +0.000 OA
ATOM     32  C   UNL     1      46.774  24.382  48.866  0.00  0.00    +0.000 C 
ATOM     33  C   UNL     1      48.186  23.901  48.992  0.00  0.00    +0.000 C 
ATOM     34  C   UNL     1      48.950  24.966  49.775  0.00  0.00    +0.000 C 
BRANCH  29  35
ATOM     35  O   UNL     1      49.525  27.229  49.651  0.00  0.00    +0.000 OA
ATOM     36  H   UNL     1      50.399  26.774  49.746  0.00  0.00    +0.000 HD
ENDBRANCH  29  35
BRANCH  33  37
ATOM     37  O   UNL     1      48.305  22.709  49.671  0.00  0.00    +0.000 OA
ATOM     38  H   UNL     1      49.258  22.635  49.937  0.00  0.00    +0.000 HD
ENDBRANCH  33  37
BRANCH  34  39
ATOM     39  O   UNL     1      48.503  25.089  51.083  0.00  0.00    +0.000 OA
ATOM     40  H   UNL     1      48.011  24.305  51.420  0.00  0.00    +0.000 HD
ENDBRANCH  34  39
ENDBRANCH  28  30
ENDBRANCH  25  28
ENDBRANCH  23  25
ENDBRANCH   7  23
TORSDOF 10
