REMARK  Name = 
REMARK  7 active torsions:
REMARK  status: ('A' for Active; 'I' for Inactive)
REMARK    1  A    between atoms: C_1  and  C_11
REMARK    2  A    between atoms: C_5  and  C_7
REMARK    3  A    between atoms: C_9  and  N_10
REMARK    4  A    between atoms: C_11  and  C_23
REMARK    5  A    between atoms: O_21  and  C_22
REMARK    6  A    between atoms: C_26  and  O_27
REMARK    7  A    between atoms: C_28  and  O_29
REMARK                            x       y       z     vdW  Elec       q    Type
REMARK                         _______ _______ _______ _____ _____    ______ ____
ROOT
ATOM      1  C   UNL     1      46.269  34.746  43.240  0.00  0.00    +0.000 A 
ATOM      2  C   UNL     1      45.305  35.741  43.592  0.00  0.00    +0.000 A 
ATOM      3  C   UNL     1      44.654  35.574  44.820  0.00  0.00    +0.000 A 
ATOM      4  N   UNL     1      44.974  34.502  45.580  0.00  0.00    +0.000 NA
ATOM      5  C   UNL     1      45.914  33.582  45.175  0.00  0.00    +0.000 A 
ATOM      6  N   UNL     1      46.554  33.696  44.026  0.00  0.00    +0.000 NA
ATOM      7  H   UNL     1      45.100  36.574  42.934  0.00  0.00    +0.000 HD
ATOM      8  H   UNL     1      43.918  36.289  45.142  0.00  0.00    +0.000 HD
ENDROOT
BRANCH   5   9
ATOM      9  C   UNL     1      46.226  32.435  46.081  0.00  0.00    +0.000 C 
ATOM     10  C   UNL     1      47.039  32.690  47.331  0.00  0.00    +0.000 C 
ATOM     11  C   UNL     1      45.548  32.499  47.392  0.00  0.00    +0.000 C 
ATOM     12  H   UNL     1      46.401  31.444  45.630  0.00  0.00    +0.000 HD
ATOM     13  H   UNL     1      47.468  33.721  47.366  0.00  0.00    +0.000 HD
ATOM     14  H   UNL     1      47.725  31.910  47.673  0.00  0.00    +0.000 HD
ATOM     15  H   UNL     1      45.249  31.596  47.949  0.00  0.00    +0.000 HD
BRANCH  11  16
ATOM     16  N   UNL     1      44.848  33.696  47.795  0.00  0.00    +0.000 NA
ATOM     17  H   UNL     1      45.400  34.531  47.936  0.00  0.00    +0.000 HD
ATOM     18  H   UNL     1      43.864  33.749  47.568  0.00  0.00    +0.000 HD
ENDBRANCH  11  16
ENDBRANCH   5   9
BRANCH   1  19
ATOM     19  C   UNL     1      46.917  34.973  41.972  0.00  0.00    +0.000 C 
ATOM     20  O   UNL     1      48.087  35.486  41.864  0.00  0.00    +0.000 OA
BRANCH  19  22
ATOM     21  C   UNL     1      44.994  35.429  40.603  0.00  0.00    +0.000 C 
ATOM     22  C   UNL     1      46.279  34.629  40.668  0.00  0.00    +0.000 C 
ATOM     23  O   UNL     1      46.037  33.260  40.695  0.00  0.00    +0.000 OA
ATOM     24  C   UNL     1      45.253  32.834  39.635  0.00  0.00    +0.000 C 
ATOM     25  C   UNL     1      43.900  33.483  39.606  0.00  0.00    +0.000 C 
ATOM     26  C   UNL     1      44.086  34.969  39.505  0.00  0.00    +0.000 C 
BRANCH  21  27
ATOM     27  O   UNL     1      44.321  35.325  41.817  0.00  0.00    +0.000 OA
ATOM     28  H   UNL     1      43.849  34.459  41.926  0.00  0.00    +0.000 HD
ENDBRANCH  21  27
BRANCH  25  29
ATOM     29  O   UNL     1      43.265  33.083  38.422  0.00  0.00    +0.000 OA
ATOM     30  H   UNL     1      42.333  32.811  38.605  0.00  0.00    +0.000 HD
ENDBRANCH  25  29
BRANCH  26  31
ATOM     31  O   UNL     1      42.841  35.596  39.740  0.00  0.00    +0.000 OA
ATOM     32  H   UNL     1      42.705  35.760  40.716  0.00  0.00    +0.000 HD
ENDBRANCH  26  31
ENDBRANCH  19  22
ENDBRANCH   1  19
TORSDOF 7
