
     RDKit          3D

 28 29  0  0  0  0  0  0  0  0999 V2000
   44.2720   35.7278   44.2664 C   0  0  0  0  0  0  0  0  0  0  0  0
   44.4222   34.9213   43.1342 C   0  0  0  0  0  0  0  0  0  0  0  0
   45.0601   33.6880   43.2666 C   0  0  0  0  0  0  0  0  0  0  0  0
   45.5046   33.3416   44.5166 N   0  0  0  0  0  0  0  0  0  0  0  0
   45.3394   34.1435   45.5713 C   0  0  0  0  0  0  0  0  0  0  0  0
   44.7278   35.3435   45.4828 N   0  0  0  0  0  0  0  0  0  0  0  0
   43.8118   35.4334   41.5330 S   0  0  0  0  0  0  0  0  0  0  0  0
   43.7849   36.6922   44.1974 H   0  0  0  0  0  0  0  0  0  0  0  0
   45.1689   33.0750   42.3825 H   0  0  0  0  0  0  0  0  0  0  0  0
   45.7688   33.6586   46.4419 H   0  0  0  0  0  0  0  0  0  0  0  0
   42.0519   35.4908   39.0644 O   0  0  0  0  0  0  0  0  0  0  0  0
   41.8384   34.4049   39.8916 C   0  0  2  0  0  0  0  0  0  0  0  0
   42.1353   34.8189   41.3186 C   0  0  1  0  0  0  0  0  0  0  0  0
   41.9783   33.7149   42.1859 O   0  0  0  0  0  0  0  0  0  0  0  0
   43.0399   32.8524   41.8527 C   0  0  0  0  0  0  0  0  0  0  0  0
   42.7337   32.1722   40.5338 C   0  0  1  0  0  0  0  0  0  0  0  0
   41.4945   31.5377   40.6083 O   0  0  0  0  0  0  0  0  0  0  0  0
   42.7111   33.2477   39.4608 C   0  0  1  0  0  0  0  0  0  0  0  0
   42.2301   32.7531   38.2673 O   0  0  0  0  0  0  0  0  0  0  0  0
   42.3989   35.2221   38.1614 H   0  0  0  0  0  0  0  0  0  0  0  0
   40.7618   34.1583   39.8064 H   0  0  0  0  0  0  0  0  0  0  0  0
   41.3562   35.5701   41.5805 H   0  0  0  0  0  0  0  0  0  0  0  0
   43.1566   32.0337   42.5948 H   0  0  0  0  0  0  0  0  0  0  0  0
   44.0146   33.3611   41.8002 H   0  0  0  0  0  0  0  0  0  0  0  0
   43.5309   31.4650   40.3027 H   0  0  0  0  0  0  0  0  0  0  0  0
   41.1852   31.5628   41.5396 H   0  0  0  0  0  0  0  0  0  0  0  0
   43.7446   33.6071   39.3011 H   0  0  0  0  0  0  0  0  0  0  0  0
   43.0049   32.3457   37.7778 H   0  0  0  0  0  0  0  0  0  0  0  0
  1  6  2  0
  2  3  2  0
  2  1  1  0
  3  4  1  0
  4  5  2  0
  6  5  1  0
  7  2  1  0
  1  8  1  0
  3  9  1  0
  5 10  1  0
 11 12  1  0
 12 13  1  0
 13 14  1  0
 14 15  1  0
 15 16  1  0
 16 17  1  0
 16 18  1  0
 18 19  1  0
 18 12  1  0
 11 20  1  0
 12 21  1  1
 13 22  1  1
 15 23  1  0
 15 24  1  0
 16 25  1  6
 17 26  1  0
 18 27  1  6
 19 28  1  0
  7 13  1  0
M  ISO  3   8  14   9  14  10  14
M  END
>  <DihAtoms>  (1) 
1,6,12,11

>  <DihDeg>  (1) 
65.96712231661348

$$$$
