
     RDKit          3D

 46 48  0  0  0  0  0  0  0  0999 V2000
   45.7332   29.8866   44.8696 Br  0  0  0  0  0  0  0  0  0  0  0  0
   45.6940   30.5978   46.6673 C   0  0  0  0  0  0  0  0  0  0  0  0
   46.3266   31.7996   46.8408 C   0  0  0  0  0  0  0  0  0  0  0  0
   46.2840   32.2907   48.1462 C   0  0  0  0  0  0  0  0  0  0  0  0
   45.6549   31.6247   49.1913 C   0  0  0  0  0  0  0  0  0  0  0  0
   45.0483   30.4274   48.9215 C   0  0  0  0  0  0  0  0  0  0  0  0
   45.0579   29.8943   47.6549 C   0  0  0  0  0  0  0  0  0  0  0  0
   47.0226   32.6006   45.8319 C   0  0  0  0  0  0  0  0  0  0  0  0
   44.5063   35.3287   45.3835 C   0  0  0  0  0  0  0  0  0  0  0  0
   44.7530   35.7024   44.0556 C   0  0  0  0  0  0  0  0  0  0  0  0
   45.7427   35.0412   43.3510 C   0  0  0  0  0  0  0  0  0  0  0  0
   46.4293   34.0645   43.9702 N   0  0  0  0  0  0  0  0  0  0  0  0
   46.1901   33.7007   45.2609 C   0  0  0  0  0  0  0  0  0  0  0  0
   45.2186   34.3592   45.9324 N   0  0  0  0  0  0  0  0  0  0  0  0
   44.4324   28.6682   47.3964 O   0  0  0  0  0  0  0  0  0  0  0  0
   44.5348   26.0914   47.0223 O   0  0  0  0  0  0  0  0  0  0  0  0
   45.0308   27.1813   47.9630 P   0  0  2  0  0  0  0  0  0  0  0  0
   44.4335   26.9458   49.5147 O   0  0  0  0  0  0  0  0  0  0  0  0
   46.7239   27.1330   47.9634 O   0  0  0  0  0  0  0  0  0  0  0  0
   46.7543   33.2330   48.3876 H   0  0  0  0  0  0  0  0  0  0  0  0
   45.6511   32.0531   50.1929 H   0  0  0  0  0  0  0  0  0  0  0  0
   44.5491   29.8911   49.7332 H   0  0  0  0  0  0  0  0  0  0  0  0
   47.2924   31.9045   44.9972 H   0  0  0  0  0  0  0  0  0  0  0  0
   47.9868   32.9947   46.2152 H   0  0  0  0  0  0  0  0  0  0  0  0
   43.7754   35.7400   46.0686 H   0  0  0  0  0  0  0  0  0  0  0  0
   44.1310   36.4939   43.6940 H   0  0  0  0  0  0  0  0  0  0  0  0
   45.9142   35.3457   42.3319 H   0  0  0  0  0  0  0  0  0  0  0  0
   44.0878   26.0214   49.6429 H   0  0  0  0  0  0  0  0  0  0  0  0
   49.5250   27.2291   49.6510 O   0  0  0  0  0  0  0  0  0  0  0  0
   48.6848   26.2747   49.0510 C   0  0  2  0  0  0  0  0  0  0  0  0
   47.2221   26.6416   49.1667 C   0  0  2  0  0  0  0  0  0  0  0  0
   46.5021   25.5318   49.5923 O   0  0  0  0  0  0  0  0  0  0  0  0
   46.7743   24.3820   48.8657 C   0  0  0  0  0  0  0  0  0  0  0  0
   48.1857   23.9010   48.9918 C   0  0  2  0  0  0  0  0  0  0  0  0
   48.3047   22.7088   49.6712 O   0  0  0  0  0  0  0  0  0  0  0  0
   48.9503   24.9664   49.7753 C   0  0  2  0  0  0  0  0  0  0  0  0
   48.5026   25.0889   51.0829 O   0  0  0  0  0  0  0  0  0  0  0  0
   50.3994   26.7736   49.7463 H   0  0  0  0  0  0  0  0  0  0  0  0
   49.0255   26.1653   48.0026 H   0  0  0  0  0  0  0  0  0  0  0  0
   47.1210   27.4275   49.9333 H   0  0  0  0  0  0  0  0  0  0  0  0
   46.5548   24.4794   47.7747 H   0  0  0  0  0  0  0  0  0  0  0  0
   46.1302   23.5872   49.3045 H   0  0  0  0  0  0  0  0  0  0  0  0
   48.7213   23.7869   48.0273 H   0  0  0  0  0  0  0  0  0  0  0  0
   49.2578   22.6352   49.9368 H   0  0  0  0  0  0  0  0  0  0  0  0
   50.0627   24.7832   49.7171 H   0  0  0  0  0  0  0  0  0  0  0  0
   48.0108   24.3045   51.4201 H   0  0  0  0  0  0  0  0  0  0  0  0
  1  2  1  0
  2  3  2  0
  2  7  1  0
  3  4  1  0
  4  5  2  0
  6  5  1  0
  7  6  2  0
  8  3  1  0
  9 14  2  0
 10  9  1  0
 11 12  1  0
 11 10  2  0
 12 13  2  0
 13  8  1  0
 13 14  1  0
 15  7  1  0
 17 15  1  6
 16 17  2  0
 17 18  1  0
 19 17  1  0
  4 20  1  0
  5 21  1  0
  6 22  1  0
  8 23  1  0
  8 24  1  0
  9 25  1  0
 10 26  1  0
 11 27  1  0
 18 28  1  0
 29 30  1  0
 30 31  1  0
 31 32  1  0
 32 33  1  0
 33 34  1  0
 34 35  1  0
 34 36  1  0
 36 37  1  0
 36 30  1  0
 29 38  1  0
 30 39  1  6
 31 40  1  1
 33 41  1  0
 33 42  1  0
 34 43  1  6
 35 44  1  0
 36 45  1  1
 37 46  1  0
 19 31  1  0
M  ISO  8  20  14  21  14  22  14  23   8  24   8  25  14  26  14  27  14
M  ISO  1  28   3
M  END
>  <DihAtoms>  (1) 
16,18,30,29

>  <DihDeg>  (1) 
-119.18307097789459

$$$$
