
 OpenBabel03252507463D

 40 42  0  0  1  0  0  0  0  0999 V2000
   48.7100   33.9040   41.2460 C   0  0  0  0  0  0  0  0  0  0  0  0
   48.9450   32.6710   40.6690 C   0  0  0  0  0  0  0  0  0  0  0  0
   50.0920   31.9450   40.9540 C   0  0  0  0  0  0  0  0  0  0  0  0
   50.9790   32.5140   41.8370 N   0  0  0  0  0  0  0  0  0  0  0  0
   50.7150   33.7180   42.3780 C   0  0  0  0  0  0  0  0  0  0  0  0
   49.6110   34.3910   42.0900 N   0  0  0  0  0  0  0  0  0  0  0  0
   50.2800   30.9810   40.5050 H   0  0  0  0  0  0  0  0  0  0  0  0
   51.3860   34.2000   43.0770 H   0  0  0  0  0  0  0  0  0  0  0  0
   47.4600   34.5940   40.8770 C   0  0  0  0  0  0  0  0  0  0  0  0
   46.8100   33.9440   40.2540 H   0  0  0  0  0  0  0  0  0  0  0  0
   47.6630   35.5060   40.2680 H   0  0  0  0  0  0  0  0  0  0  0  0
   46.6260   34.9720   42.0750 C   0  0  0  0  0  0  0  0  0  0  0  0
   46.9540   35.9770   42.4240 H   0  0  0  0  0  0  0  0  0  0  0  0
   46.8260   34.2220   42.8660 H   0  0  0  0  0  0  0  0  0  0  0  0
   45.1610   34.9320   41.8320 C   0  0  0  0  0  0  0  0  0  0  0  0
   44.2730   35.5350   42.7720 C   0  0  0  0  0  0  0  0  0  0  0  0
   42.6180   35.2240   42.0330 S   0  0  0  0  0  0  0  0  0  0  0  0
   43.4180   34.3180   40.5590 C   0  0  0  0  0  0  0  0  0  0  0  0
   44.5250   34.3910   40.8170 N   0  0  0  0  0  0  0  0  0  0  0  0
   44.5340   36.0420   43.6820 H   0  0  0  0  0  0  0  0  0  0  0  0
   42.6760   33.7660   39.5130 O   0  0  0  0  0  0  0  0  0  0  0  0
   40.7140   34.0580   37.7600 O   0  0  0  0  0  0  0  0  0  0  0  0
   41.7610   34.8310   38.5590 P   0  0  0  0  0  0  0  0  0  0  0  0
   40.9970   35.9270   39.5830 O   0  0  0  0  0  0  0  0  0  0  0  0
   40.1640   36.2080   39.1510 H   0  0  0  0  0  0  0  0  0  0  0  0
   42.7960   35.6870   37.5170 O   0  0  0  0  0  0  0  0  0  0  0  0
   42.3490   36.0890   36.7550 H   0  0  0  0  0  0  0  0  0  0  0  0
   47.7390   31.9720   39.5130 S   0  0  0  0  0  0  0  0  0  0  0  0
   48.8620   32.6090   37.1610 C   0  0  2  0  0  3  0  0  0  0  0  0
   48.5670   31.3930   38.0420 C   0  0  2  0  0  3  0  0  0  0  0  0
   47.7000   30.5120   37.3930 O   0  0  0  0  0  0  0  0  0  0  0  0
   46.7050   31.2850   36.7920 C   0  0  0  0  0  2  0  0  0  0  0  0
   47.2540   31.7200   35.4520 C   0  0  2  0  0  3  0  0  0  0  0  0
   48.6390   32.2860   35.7020 C   0  0  1  0  0  3  0  0  0  0  0  0
   50.2030   32.9720   37.2990 O   0  0  0  0  0  0  0  0  0  0  0  0
   50.3730   33.7000   36.6830 H   0  0  0  0  0  0  0  0  0  0  0  0
   46.4030   32.6380   34.8350 O   0  0  0  0  0  0  0  0  0  0  0  0
   46.8840   33.1790   34.1640 H   0  0  0  0  0  0  0  0  0  0  0  0
   48.7870   33.4640   34.9850 O   0  0  0  0  0  0  0  0  0  0  0  0
   48.7670   34.2800   35.5180 H   0  0  0  0  0  0  0  0  0  0  0  0
  1  6  1  0  0  0  0
  2  3  1  0  0  0  0
  2  1  2  0  0  0  0
  3  4  2  0  0  0  0
  4  5  1  0  0  0  0
  5  8  1  0  0  0  0
  6  5  2  0  0  0  0
  7  3  1  0  0  0  0
  9  1  1  0  0  0  0
  9 12  1  0  0  0  0
 10  9  1  0  0  0  0
 11  9  1  0  0  0  0
 12 13  1  0  0  0  0
 12 14  1  0  0  0  0
 15 12  1  0  0  0  0
 15 16  2  0  0  0  0
 16 20  1  0  0  0  0
 17 16  1  0  0  0  0
 18 19  2  0  0  0  0
 18 17  1  0  0  0  0
 19 15  1  0  0  0  0
 21 18  1  0  0  0  0
 22 23  2  0  0  0  0
 23 21  1  0  0  0  0
 23 24  1  0  0  0  0
 25 24  1  0  0  0  0
 26 23  1  0  0  0  0
 27 26  1  0  0  0  0
 28  2  1  0  0  0  0
 29 35  1  6  0  0  0
 29 30  1  0  0  0  0
 30 28  1  1  0  0  0
 31 30  1  0  0  0  0
 32 31  1  0  0  0  0
 33 37  1  1  0  0  0
 33 34  1  0  0  0  0
 33 32  1  0  0  0  0
 34 39  1  6  0  0  0
 34 29  1  0  0  0  0
 36 35  1  0  0  0  0
 38 37  1  0  0  0  0
 39 40  1  0  0  0  0
M  END
>  <minimizedAffinity>
-5.87304926

>  <minimizedRMSD>
1.75358653

$$$$
