
 OpenBabel03252507463D

 40 42  0  0  1  0  0  0  0  0999 V2000
   48.4710   33.9240   41.2740 C   0  0  0  0  0  0  0  0  0  0  0  0
   48.9610   32.7400   40.7570 C   0  0  0  0  0  0  0  0  0  0  0  0
   50.2130   32.2590   41.1140 C   0  0  0  0  0  0  0  0  0  0  0  0
   50.9340   33.0170   42.0050 N   0  0  0  0  0  0  0  0  0  0  0  0
   50.4220   34.1640   42.4860 C   0  0  0  0  0  0  0  0  0  0  0  0
   49.2240   34.6030   42.1300 N   0  0  0  0  0  0  0  0  0  0  0  0
   50.6010   31.3340   40.7120 H   0  0  0  0  0  0  0  0  0  0  0  0
   50.9580   34.7890   43.1900 H   0  0  0  0  0  0  0  0  0  0  0  0
   47.1300   34.3490   40.8310 C   0  0  0  0  0  0  0  0  0  0  0  0
   46.5410   33.4880   40.4490 H   0  0  0  0  0  0  0  0  0  0  0  0
   47.1910   35.0810   39.9930 H   0  0  0  0  0  0  0  0  0  0  0  0
   46.3060   34.9400   41.9480 C   0  0  0  0  0  0  0  0  0  0  0  0
   46.6430   35.9870   42.1110 H   0  0  0  0  0  0  0  0  0  0  0  0
   46.5050   34.3400   42.8580 H   0  0  0  0  0  0  0  0  0  0  0  0
   44.8390   34.8690   41.7220 C   0  0  0  0  0  0  0  0  0  0  0  0
   43.9470   35.3130   42.7420 C   0  0  0  0  0  0  0  0  0  0  0  0
   42.2910   35.0270   41.9950 S   0  0  0  0  0  0  0  0  0  0  0  0
   43.0970   34.3450   40.4080 C   0  0  0  0  0  0  0  0  0  0  0  0
   44.2050   34.4320   40.6570 N   0  0  0  0  0  0  0  0  0  0  0  0
   44.2040   35.7140   43.7050 H   0  0  0  0  0  0  0  0  0  0  0  0
   42.3580   33.8960   39.3120 O   0  0  0  0  0  0  0  0  0  0  0  0
   40.4150   34.3710   37.5770 O   0  0  0  0  0  0  0  0  0  0  0  0
   41.4750   35.0540   38.4390 P   0  0  0  0  0  0  0  0  0  0  0  0
   40.7310   36.0850   39.5420 O   0  0  0  0  0  0  0  0  0  0  0  0
   39.9070   36.4190   39.1290 H   0  0  0  0  0  0  0  0  0  0  0  0
   42.5380   35.9630   37.4730 O   0  0  0  0  0  0  0  0  0  0  0  0
   42.1050   36.4340   36.7420 H   0  0  0  0  0  0  0  0  0  0  0  0
   47.9640   31.7860   39.5860 S   0  0  0  0  0  0  0  0  0  0  0  0
   50.2890   30.7790   38.7070 C   0  0  2  0  0  3  0  0  0  0  0  0
   48.8640   30.3410   39.0510 C   0  0  2  0  0  3  0  0  0  0  0  0
   48.2150   29.8380   37.9220 O   0  0  0  0  0  0  0  0  0  0  0  0
   48.5220   30.6900   36.8610 C   0  0  0  0  0  2  0  0  0  0  0  0
   49.8430   30.2170   36.3010 C   0  0  2  0  0  3  0  0  0  0  0  0
   50.7910   30.0600   37.4760 C   0  0  1  0  0  3  0  0  0  0  0  0
   51.1470   30.4440   39.7540 O   0  0  0  0  0  0  0  0  0  0  0  0
   52.0470   30.6740   39.4800 H   0  0  0  0  0  0  0  0  0  0  0  0
   50.3280   31.1020   35.3380 O   0  0  0  0  0  0  0  0  0  0  0  0
   51.3040   31.0110   35.2220 H   0  0  0  0  0  0  0  0  0  0  0  0
   52.0230   30.6070   37.1460 O   0  0  0  0  0  0  0  0  0  0  0  0
   52.2290   31.4570   37.5760 H   0  0  0  0  0  0  0  0  0  0  0  0
  1  6  1  0  0  0  0
  2  3  1  0  0  0  0
  2  1  2  0  0  0  0
  3  4  2  0  0  0  0
  4  5  1  0  0  0  0
  5  8  1  0  0  0  0
  6  5  2  0  0  0  0
  7  3  1  0  0  0  0
  9  1  1  0  0  0  0
  9 12  1  0  0  0  0
 10  9  1  0  0  0  0
 11  9  1  0  0  0  0
 12 13  1  0  0  0  0
 12 14  1  0  0  0  0
 15 12  1  0  0  0  0
 15 16  2  0  0  0  0
 16 20  1  0  0  0  0
 17 16  1  0  0  0  0
 18 19  2  0  0  0  0
 18 17  1  0  0  0  0
 19 15  1  0  0  0  0
 21 18  1  0  0  0  0
 22 23  2  0  0  0  0
 23 21  1  0  0  0  0
 23 24  1  0  0  0  0
 25 24  1  0  0  0  0
 26 23  1  0  0  0  0
 27 26  1  0  0  0  0
 28  2  1  0  0  0  0
 29 30  1  0  0  0  0
 29 35  1  1  0  0  0
 30 28  1  6  0  0  0
 31 30  1  0  0  0  0
 32 31  1  0  0  0  0
 33 37  1  6  0  0  0
 33 32  1  0  0  0  0
 33 34  1  0  0  0  0
 34 39  1  6  0  0  0
 34 29  1  0  0  0  0
 36 35  1  0  0  0  0
 38 37  1  0  0  0  0
 39 40  1  0  0  0  0
M  END
>  <minimizedAffinity>
-4.79580164

>  <minimizedRMSD>
0.178206012

$$$$
