
 OpenBabel03252507463D

 40 42  0  0  1  0  0  0  0  0999 V2000
   48.4590   33.2910   40.3070 C   0  0  0  0  0  0  0  0  0  0  0  0
   48.6110   32.3760   39.2830 C   0  0  0  0  0  0  0  0  0  0  0  0
   49.6300   31.4350   39.2980 C   0  0  0  0  0  0  0  0  0  0  0  0
   50.4750   31.4580   40.3820 N   0  0  0  0  0  0  0  0  0  0  0  0
   50.2940   32.3640   41.3600 C   0  0  0  0  0  0  0  0  0  0  0  0
   49.3140   33.2530   41.3230 N   0  0  0  0  0  0  0  0  0  0  0  0
   49.7530   30.7180   38.4990 H   0  0  0  0  0  0  0  0  0  0  0  0
   50.9370   32.4150   42.2300 H   0  0  0  0  0  0  0  0  0  0  0  0
   47.3440   34.2500   40.1950 C   0  0  0  0  0  0  0  0  0  0  0  0
   46.5240   33.8420   39.5670 H   0  0  0  0  0  0  0  0  0  0  0  0
   47.6700   35.1970   39.7060 H   0  0  0  0  0  0  0  0  0  0  0  0
   46.7140   34.5700   41.5270 C   0  0  0  0  0  0  0  0  0  0  0  0
   47.2020   35.4840   41.9330 H   0  0  0  0  0  0  0  0  0  0  0  0
   46.9130   33.7130   42.2010 H   0  0  0  0  0  0  0  0  0  0  0  0
   45.2360   34.7190   41.4790 C   0  0  0  0  0  0  0  0  0  0  0  0
   44.5730   35.4980   42.4720 C   0  0  0  0  0  0  0  0  0  0  0  0
   42.8050   35.3730   41.9810 S   0  0  0  0  0  0  0  0  0  0  0  0
   43.2690   34.2720   40.4950 C   0  0  0  0  0  0  0  0  0  0  0  0
   44.4010   34.2070   40.6020 N   0  0  0  0  0  0  0  0  0  0  0  0
   45.0200   36.0220   43.2960 H   0  0  0  0  0  0  0  0  0  0  0  0
   42.3240   33.7620   39.6030 O   0  0  0  0  0  0  0  0  0  0  0  0
   40.5270   34.1440   37.6960 O   0  0  0  0  0  0  0  0  0  0  0  0
   41.5330   34.8690   38.5870 P   0  0  0  0  0  0  0  0  0  0  0  0
   40.7300   35.9870   39.5560 O   0  0  0  0  0  0  0  0  0  0  0  0
   39.9470   36.3030   39.0590 H   0  0  0  0  0  0  0  0  0  0  0  0
   42.6840   35.6910   37.6440 O   0  0  0  0  0  0  0  0  0  0  0  0
   42.3170   36.1170   36.8520 H   0  0  0  0  0  0  0  0  0  0  0  0
   47.4660   32.3950   37.8810 S   0  0  0  0  0  0  0  0  0  0  0  0
   49.0300   32.2350   35.7070 C   0  0  2  0  0  3  0  0  0  0  0  0
   48.0970   31.3730   36.5610 C   0  0  2  0  0  3  0  0  0  0  0  0
   47.0050   30.9350   35.8110 O   0  0  0  0  0  0  0  0  0  0  0  0
   46.5660   32.0220   35.0530 C   0  0  0  0  0  2  0  0  0  0  0  0
   47.4100   32.0360   33.7990 C   0  0  2  0  0  3  0  0  0  0  0  0
   48.8590   31.9230   34.2380 C   0  0  1  0  0  3  0  0  0  0  0  0
   50.3570   31.9520   36.0330 O   0  0  0  0  0  0  0  0  0  0  0  0
   50.9200   32.4650   35.4340 H   0  0  0  0  0  0  0  0  0  0  0  0
   47.1690   33.1840   33.0420 O   0  0  0  0  0  0  0  0  0  0  0  0
   47.9220   33.3830   32.4390 H   0  0  0  0  0  0  0  0  0  0  0  0
   49.6240   32.8330   33.5250 O   0  0  0  0  0  0  0  0  0  0  0  0
   49.9240   33.6110   34.0310 H   0  0  0  0  0  0  0  0  0  0  0  0
  1  6  1  0  0  0  0
  2  3  1  0  0  0  0
  2  1  2  0  0  0  0
  3  4  2  0  0  0  0
  4  5  1  0  0  0  0
  5  8  1  0  0  0  0
  6  5  2  0  0  0  0
  7  3  1  0  0  0  0
  9  1  1  0  0  0  0
  9 12  1  0  0  0  0
 10  9  1  0  0  0  0
 11  9  1  0  0  0  0
 12 13  1  0  0  0  0
 12 14  1  0  0  0  0
 15 12  1  0  0  0  0
 15 16  2  0  0  0  0
 16 20  1  0  0  0  0
 17 16  1  0  0  0  0
 18 19  2  0  0  0  0
 18 17  1  0  0  0  0
 19 15  1  0  0  0  0
 21 18  1  0  0  0  0
 22 23  2  0  0  0  0
 23 24  1  0  0  0  0
 23 21  1  0  0  0  0
 25 24  1  0  0  0  0
 26 23  1  0  0  0  0
 27 26  1  0  0  0  0
 28  2  1  0  0  0  0
 29 35  1  1  0  0  0
 29 30  1  0  0  0  0
 30 28  1  1  0  0  0
 31 30  1  0  0  0  0
 32 31  1  0  0  0  0
 33 37  1  1  0  0  0
 33 34  1  0  0  0  0
 33 32  1  0  0  0  0
 34 39  1  6  0  0  0
 34 29  1  0  0  0  0
 36 35  1  0  0  0  0
 38 37  1  0  0  0  0
 39 40  1  0  0  0  0
M  END
>  <minimizedAffinity>
-6.05698109

>  <minimizedRMSD>
2.84688687

$$$$
