
     RDKit          3D

 51 54  0  0  0  0  0  0  0  0999 V2000
   44.5995   34.4338   42.9315 C   0  0  0  0  0  0  0  0  0  0  0  0
   44.3068   35.6898   43.5490 C   0  0  0  0  0  0  0  0  0  0  0  0
   44.6222   35.8169   44.9040 C   0  0  0  0  0  0  0  0  0  0  0  0
   45.1786   34.7509   45.5379 N   0  0  0  0  0  0  0  0  0  0  0  0
   45.4389   33.5664   44.8971 C   0  0  0  0  0  0  0  0  0  0  0  0
   45.1434   33.4735   43.6548 N   0  0  0  0  0  0  0  0  0  0  0  0
   46.0249   32.4536   45.6717 C   0  0  1  0  0  0  0  0  0  0  0  0
   46.9567   32.7726   46.8184 C   0  0  0  0  0  0  0  0  0  0  0  0
   45.5454   32.3511   47.0732 C   0  0  1  0  0  0  0  0  0  0  0  0
   44.7525   33.4208   47.6522 N   0  0  0  0  0  0  0  0  0  0  0  0
   44.2496   34.3151   41.5493 C   0  0  0  0  0  0  0  0  0  0  0  0
   45.1201   34.1470   40.6343 O   0  0  0  0  0  0  0  0  0  0  0  0
   41.9611   33.3124   41.3594 C   0  0  0  0  0  0  0  0  0  0  0  0
   42.8018   34.4096   41.3142 C   0  0  0  0  0  0  0  0  0  0  0  0
   42.2552   35.6575   41.0354 C   0  0  0  0  0  0  0  0  0  0  0  0
   40.9064   35.8155   40.8054 C   0  0  0  0  0  0  0  0  0  0  0  0
   40.0658   34.7367   40.8457 C   0  0  0  0  0  0  0  0  0  0  0  0
   40.6039   33.5139   41.1199 C   0  0  0  0  0  0  0  0  0  0  0  0
   42.5547   31.7678   41.5972 S   0  0  0  0  0  0  0  0  0  0  0  0
   42.4555   31.0779   40.2802 O   0  0  0  0  0  0  0  0  0  0  0  0
   41.5779   31.0801   42.6222 O   0  0  0  0  0  0  0  0  0  0  0  0
   43.8757   36.5531   43.1086 H   0  0  0  0  0  0  0  0  0  0  0  0
   44.4397   36.7336   45.4684 H   0  0  0  0  0  0  0  0  0  0  0  0
   46.2243   31.5110   45.1574 H   0  0  0  0  0  0  0  0  0  0  0  0
   47.2917   33.8149   46.9629 H   0  0  0  0  0  0  0  0  0  0  0  0
   47.7382   32.0448   47.1004 H   0  0  0  0  0  0  0  0  0  0  0  0
   45.3574   31.3746   47.5460 H   0  0  0  0  0  0  0  0  0  0  0  0
   43.9635   33.0498   48.2418 H   0  0  0  0  0  0  0  0  0  0  0  0
   45.3037   34.0276   48.3163 H   0  0  0  0  0  0  0  0  0  0  0  0
   42.8356   36.5784   40.9750 H   0  0  0  0  0  0  0  0  0  0  0  0
   40.4887   36.7768   40.5923 H   0  0  0  0  0  0  0  0  0  0  0  0
   39.0243   34.8284   40.6717 H   0  0  0  0  0  0  0  0  0  0  0  0
   39.9415   32.6568   41.1530 H   0  0  0  0  0  0  0  0  0  0  0  0
   42.9473   29.3673   40.7017 O   0  0  0  0  0  0  0  0  0  0  0  0
   44.0685   29.6715   41.5138 C   0  0  2  0  0  0  0  0  0  0  0  0
   43.8724   31.0144   42.2107 C   0  0  1  0  0  0  0  0  0  0  0  0
   45.1421   31.6183   41.9980 O   0  0  0  0  0  0  0  0  0  0  0  0
   46.1880   30.8465   42.4382 C   0  0  0  0  0  0  0  0  0  0  0  0
   46.5511   29.9560   41.2607 C   0  0  2  0  0  0  0  0  0  0  0  0
   47.3001   30.6807   40.3345 O   0  0  0  0  0  0  0  0  0  0  0  0
   45.2439   29.5976   40.5878 C   0  0  2  0  0  0  0  0  0  0  0  0
   45.0289   30.3527   39.4569 O   0  0  0  0  0  0  0  0  0  0  0  0
   43.1332   29.4088   39.7515 H   0  0  0  0  0  0  0  0  0  0  0  0
   44.1297   28.7966   42.1666 H   0  0  0  0  0  0  0  0  0  0  0  0
   43.8100   30.6836   43.2713 H   0  0  0  0  0  0  0  0  0  0  0  0
   45.8448   30.2545   43.3028 H   0  0  0  0  0  0  0  0  0  0  0  0
   47.0335   31.5104   42.7117 H   0  0  0  0  0  0  0  0  0  0  0  0
   47.1544   29.0884   41.5676 H   0  0  0  0  0  0  0  0  0  0  0  0
   47.7862   30.0072   39.7662 H   0  0  0  0  0  0  0  0  0  0  0  0
   45.3246   28.5357   40.2819 H   0  0  0  0  0  0  0  0  0  0  0  0
   45.7479   30.9696   39.2325 H   0  0  0  0  0  0  0  0  0  0  0  0
  1  2  2  0
  1  6  1  0
  2  3  1  0
  3  4  2  0
  5  4  1  0
  5  7  1  0
  6  5  2  0
  7  8  1  0
  7  9  1  0
  8  9  1  0
  9 10  1  0
 11  1  1  0
 12 11  2  0
 13 19  1  0
 14 13  1  0
 14 11  1  0
 15 14  2  0
 16 17  2  0
 16 15  1  0
 17 18  1  0
 18 13  2  0
 19 21  2  0
 20 19  2  0
  2 22  1  0
  3 23  1  0
  7 24  1  6
  8 25  1  0
  8 26  1  0
  9 27  1  1
 10 28  1  0
 10 29  1  0
 15 30  1  0
 16 31  1  0
 17 32  1  0
 18 33  1  0
 34 35  1  0
 35 36  1  0
 36 37  1  0
 37 38  1  0
 38 39  1  0
 39 40  1  0
 39 41  1  0
 41 42  1  0
 41 35  1  0
 34 43  1  0
 35 44  1  1
 36 45  1  1
 38 46  1  0
 38 47  1  0
 39 48  1  1
 40 49  1  0
 41 50  1  6
 42 51  1  0
 19 36  1  0
M  ISO  8  22  14  23  14  24  13  25  13  26  13  27  13  28   5  29   5
M  ISO  4  30  14  31  14  32  14  33  14
M  END
>  <DihAtoms>  (1) 
12,18,35,34

>  <DihDeg>  (1) 
177.97736906179907

$$$$
