
 OpenBabel03242522513D

 29 30  0  0  1  0  0  0  0  0999 V2000
   47.4340   32.0270   48.2570 O   0  0  0  0  0  0  0  0  0  0  0  0
   45.2700   30.7260   47.5670 O   0  0  0  0  0  0  0  0  0  0  0  0
   45.7810   31.9800   48.3130 P   0  0  1  0  0  0  0  0  0  0  0  0
   45.2100   31.8340   49.8870 O   0  0  0  0  0  0  0  0  0  0  0  0
   44.5610   32.5360   50.1480 H   0  0  0  0  0  0  0  0  0  0  0  0
   45.1240   33.3440   47.5710 O   0  0  0  0  0  0  0  0  0  0  0  0
   46.9070   33.3180   44.4060 C   0  0  0  0  0  0  0  0  0  0  0  0
   46.5070   32.9910   45.7130 C   0  0  0  0  0  0  0  0  0  0  0  0
   45.4790   33.7010   46.2880 C   0  0  0  0  0  0  0  0  0  0  0  0
   44.9050   34.6840   45.5580 N   0  0  0  0  0  0  0  0  0  0  0  0
   45.2820   35.0000   44.3140 C   0  0  0  0  0  0  0  0  0  0  0  0
   46.2970   34.3060   43.7330 N   0  0  0  0  0  0  0  0  0  0  0  0
   47.7020   32.8200   43.8670 H   0  0  0  0  0  0  0  0  0  0  0  0
   47.0830   32.1910   46.0990 H   0  0  0  0  0  0  0  0  0  0  0  0
   44.8060   35.7850   43.7620 H   0  0  0  0  0  0  0  0  0  0  0  0
   48.3740   31.1390   48.6570 C   0  0  0  0  0  0  0  0  0  0  0  0
   49.3910   31.6970   49.1980 O   0  0  0  0  0  0  0  0  0  0  0  0
   50.1200   30.0200   50.0100 C   0  0  2  0  0  3  0  0  0  0  0  0
   49.0870   29.8730   48.9150 C   0  0  2  0  0  3  0  0  0  0  0  0
   49.6260   29.3360   47.7540 O   0  0  0  0  0  0  0  0  0  0  0  0
   50.9620   29.5930   47.5600 C   0  0  0  0  0  2  0  0  0  0  0  0
   51.8810   29.1430   48.6490 C   0  0  2  0  0  3  0  0  0  0  0  0
   51.0200   28.8010   49.8540 C   0  0  1  0  0  3  0  0  0  0  0  0
   49.4890   29.9890   51.2760 O   0  0  0  0  0  0  0  0  0  0  0  0
   49.5360   29.0610   51.6280 H   0  0  0  0  0  0  0  0  0  0  0  0
   52.6880   30.2220   49.0780 O   0  0  0  0  0  0  0  0  0  0  0  0
   53.1220   30.6810   48.3280 H   0  0  0  0  0  0  0  0  0  0  0  0
   51.7920   28.5640   50.9790 O   0  0  0  0  0  0  0  0  0  0  0  0
   51.5720   29.1820   51.7010 H   0  0  0  0  0  0  0  0  0  0  0  0
  1  3  1  0  0  0  0
  1 16  1  0  0  0  0
  3  2  2  6  0  0  0
  3  4  1  0  0  0  0
  4  5  1  0  0  0  0
  6  3  1  0  0  0  0
  7  8  1  0  0  0  0
  8 14  1  0  0  0  0
  8  9  2  0  0  0  0
  9  6  1  0  0  0  0
 10  9  1  0  0  0  0
 11 10  2  0  0  0  0
 12 11  1  0  0  0  0
 12  7  2  0  0  0  0
 13  7  1  0  0  0  0
 15 11  1  0  0  0  0
 16 17  2  0  0  0  0
 18 24  1  1  0  0  0
 19 16  1  6  0  0  0
 19 18  1  0  0  0  0
 20 19  1  0  0  0  0
 21 20  1  0  0  0  0
 21 22  1  0  0  0  0
 22 26  1  1  0  0  0
 22 23  1  0  0  0  0
 23 18  1  0  0  0  0
 23 28  1  1  0  0  0
 24 25  1  0  0  0  0
 27 26  1  0  0  0  0
 28 29  1  0  0  0  0
M  END
>  <minimizedAffinity>
-5.10578346

>  <minimizedRMSD>
0.733413577

$$$$
