
 OpenBabel03242521443D

 41 43  0  0  1  0  0  0  0  0999 V2000
   45.1980   35.8000   44.1250 C   0  0  0  0  0  0  0  0  0  0  0  0
   46.1490   35.0200   43.4690 C   0  0  0  0  0  0  0  0  0  0  0  0
   46.6110   33.8380   44.0740 C   0  0  0  0  0  0  0  0  0  0  0  0
   46.0970   33.5280   45.2700 N   0  0  0  0  0  0  0  0  0  0  0  0
   45.1740   34.2960   45.8930 C   0  0  0  0  0  0  0  0  0  0  0  0
   44.7220   35.4320   45.3250 N   0  0  0  0  0  0  0  0  0  0  0  0
   46.4930   35.3620   42.5130 H   0  0  0  0  0  0  0  0  0  0  0  0
   44.8160   33.9700   46.8550 H   0  0  0  0  0  0  0  0  0  0  0  0
   48.6130   33.8710   42.6140 C   0  0  2  0  0  0  0  0  0  0  0  0
   47.6040   33.0580   43.3470 C   0  0  2  0  0  0  0  0  0  0  0  0
   47.0590   32.2810   42.2830 O   0  0  0  0  0  0  0  0  0  0  0  0
   48.1980   31.7620   41.7030 C   0  0  0  0  0  0  0  0  0  0  0  0
   49.3400   32.7130   41.8960 C   0  0  1  0  0  0  0  0  0  0  0  0
   48.1850   34.4540   41.7700 H   0  0  0  0  0  0  0  0  0  0  0  0
   48.0760   32.3220   43.9960 H   0  0  0  0  0  0  0  0  0  0  0  0
   48.0360   31.4540   40.6540 H   0  0  0  0  0  0  0  0  0  0  0  0
   48.4550   30.8300   42.2600 H   0  0  0  0  0  0  0  0  0  0  0  0
   50.1480   32.3370   42.5370 H   0  0  0  0  0  0  0  0  0  0  0  0
   49.4170   34.6370   43.3980 O   0  0  0  0  0  0  0  0  0  0  0  0
   50.2720   34.8560   42.9150 H   0  0  0  0  0  0  0  0  0  0  0  0
   49.8970   33.1970   40.7180 O   0  0  0  0  0  0  0  0  0  0  0  0
   50.5870   32.6120   40.3640 H   0  0  0  0  0  0  0  0  0  0  0  0
   44.7270   37.0660   43.4570 C   0  0  0  0  0  0  0  0  0  0  0  0
   45.2850   37.2250   42.5350 H   0  0  0  0  0  0  0  0  0  0  0  0
   43.6360   36.9670   43.2740 H   0  0  0  0  0  0  0  0  0  0  0  0
   45.2840   39.4810   44.0720 C   0  0  0  0  0  0  0  0  0  0  0  0
   45.4210   39.7730   42.8510 O   0  0  0  0  0  0  0  0  0  0  0  0
   44.9880   38.1430   44.4070 N   0  0  0  0  0  0  0  0  0  0  0  0
   44.9530   37.9030   45.4260 H   0  0  0  0  0  0  0  0  0  0  0  0
   44.6600   41.7620   44.8860 C   0  0  2  0  0  3  0  0  0  0  0  0
   45.4240   40.5020   45.1690 C   0  0  1  0  0  3  0  0  0  0  0  0
   45.1260   39.9490   46.4010 O   0  0  0  0  0  0  0  0  0  0  0  0
   44.2190   40.6300   47.1640 C   0  0  0  0  0  2  0  0  0  0  0  0
   44.5050   42.1050   47.2840 C   0  0  2  0  0  3  0  0  0  0  0  0
   45.0430   42.7100   46.0300 C   0  0  2  0  0  3  0  0  0  0  0  0
   43.2820   41.5950   44.8870 O   0  0  0  0  0  0  0  0  0  0  0  0
   42.8670   42.4890   44.9510 H   0  0  0  0  0  0  0  0  0  0  0  0
   45.4040   42.3880   48.3060 O   0  0  0  0  0  0  0  0  0  0  0  0
   46.1200   41.7050   48.2990 H   0  0  0  0  0  0  0  0  0  0  0  0
   44.4640   43.9350   45.7190 O   0  0  0  0  0  0  0  0  0  0  0  0
   45.1590   44.6550   45.7210 H   0  0  0  0  0  0  0  0  0  0  0  0
  1  6  1  0  0  0  0
  2  3  1  0  0  0  0
  2  1  2  0  0  0  0
  3  4  2  0  0  0  0
  4  5  1  0  0  0  0
  5  8  1  0  0  0  0
  6  5  2  0  0  0  0
  7  2  1  0  0  0  0
  9 14  1  6  0  0  0
  9 10  1  0  0  0  0
  9 19  1  0  0  0  0
 10 15  1  1  0  0  0
 10  3  1  0  0  0  0
 11 10  1  0  0  0  0
 12 13  1  0  0  0  0
 12 17  1  0  0  0  0
 12 11  1  0  0  0  0
 13 18  1  1  0  0  0
 13  9  1  0  0  0  0
 16 12  1  0  0  0  0
 20 19  1  0  0  0  0
 21 13  1  0  0  0  0
 22 21  1  0  0  0  0
 23  1  1  0  0  0  0
 23 28  1  0  0  0  0
 24 23  1  0  0  0  0
 25 23  1  0  0  0  0
 26 28  1  0  0  0  0
 27 26  2  0  0  0  0
 28 29  1  0  0  0  0
 30 36  1  1  0  0  0
 30 31  1  0  0  0  0
 30 35  1  0  0  0  0
 31 26  1  6  0  0  0
 31 32  1  0  0  0  0
 32 33  1  0  0  0  0
 33 34  1  0  0  0  0
 34 38  1  1  0  0  0
 35 40  1  6  0  0  0
 35 34  1  0  0  0  0
 36 37  1  0  0  0  0
 39 38  1  0  0  0  0
 40 41  1  0  0  0  0
M  END
>  <minimizedAffinity>
-2.94739723

>  <minimizedRMSD>
1.14931309

$$$$
