
 OpenBabel03252507473D

 40 42  0  0  1  0  0  0  0  0999 V2000
   36.8870   26.8320   41.3490 C   0  0  0  0  0  0  0  0  0  0  0  0
   36.7820   27.1870   40.0180 C   0  0  0  0  0  0  0  0  0  0  0  0
   37.1380   26.3080   39.0050 C   0  0  0  0  0  0  0  0  0  0  0  0
   37.5970   25.0720   39.3940 N   0  0  0  0  0  0  0  0  0  0  0  0
   37.6850   24.7640   40.7000 C   0  0  0  0  0  0  0  0  0  0  0  0
   37.3390   25.6200   41.6500 N   0  0  0  0  0  0  0  0  0  0  0  0
   37.0570   26.5800   37.9630 H   0  0  0  0  0  0  0  0  0  0  0  0
   38.0410   23.8030   41.0480 H   0  0  0  0  0  0  0  0  0  0  0  0
   36.4820   27.8390   42.3490 C   0  0  0  0  0  0  0  0  0  0  0  0
   35.4640   27.6310   42.7390 H   0  0  0  0  0  0  0  0  0  0  0  0
   36.4430   28.8600   41.9050 H   0  0  0  0  0  0  0  0  0  0  0  0
   37.3850   27.8560   43.5570 C   0  0  0  0  0  0  0  0  0  0  0  0
   37.3440   26.8520   44.0350 H   0  0  0  0  0  0  0  0  0  0  0  0
   36.9850   28.6170   44.2570 H   0  0  0  0  0  0  0  0  0  0  0  0
   38.7840   28.2620   43.2640 C   0  0  0  0  0  0  0  0  0  0  0  0
   39.0510   29.5810   42.7900 C   0  0  0  0  0  0  0  0  0  0  0  0
   40.8780   29.5830   42.5850 S   0  0  0  0  0  0  0  0  0  0  0  0
   40.9730   27.7750   43.1830 C   0  0  0  0  0  0  0  0  0  0  0  0
   39.8760   27.5420   43.3840 N   0  0  0  0  0  0  0  0  0  0  0  0
   38.3390   30.3640   42.6050 H   0  0  0  0  0  0  0  0  0  0  0  0
   42.1740   27.0710   43.2860 O   0  0  0  0  0  0  0  0  0  0  0  0
   40.8190   24.8060   43.0810 O   0  0  0  0  0  0  0  0  0  0  0  0
   42.1730   25.4480   42.7880 P   0  0  0  0  0  0  0  0  0  0  0  0
   42.4720   25.4100   41.1310 O   0  0  0  0  0  0  0  0  0  0  0  0
   42.0320   24.6130   40.7680 H   0  0  0  0  0  0  0  0  0  0  0  0
   43.4190   24.6120   43.5870 O   0  0  0  0  0  0  0  0  0  0  0  0
   43.3110   23.6470   43.5890 H   0  0  0  0  0  0  0  0  0  0  0  0
   36.1690   28.8300   39.5680 S   0  0  0  0  0  0  0  0  0  0  0  0
   36.8490   31.4250   39.5090 C   0  0  2  0  0  3  0  0  0  0  0  0
   37.4420   30.0510   39.8330 C   0  0  2  0  0  3  0  0  0  0  0  0
   38.4970   29.7520   38.9680 O   0  0  0  0  0  0  0  0  0  0  0  0
   38.0960   30.1320   37.6870 C   0  0  0  0  0  2  0  0  0  0  0  0
   38.4180   31.6030   37.5570 C   0  0  2  0  0  3  0  0  0  0  0  0
   37.8560   32.2900   38.7870 C   0  0  1  0  0  3  0  0  0  0  0  0
   36.5170   32.0820   40.6930 O   0  0  0  0  0  0  0  0  0  0  0  0
   36.2060   32.9700   40.4570 H   0  0  0  0  0  0  0  0  0  0  0  0
   37.9060   32.1280   36.3700 O   0  0  0  0  0  0  0  0  0  0  0  0
   37.7960   33.1050   36.4260 H   0  0  0  0  0  0  0  0  0  0  0  0
   37.2070   33.4550   38.4030 O   0  0  0  0  0  0  0  0  0  0  0  0
   36.2340   33.4200   38.4390 H   0  0  0  0  0  0  0  0  0  0  0  0
  1  6  1  0  0  0  0
  1  9  1  0  0  0  0
  2  1  2  0  0  0  0
  3  4  2  0  0  0  0
  3  2  1  0  0  0  0
  4  5  1  0  0  0  0
  5  8  1  0  0  0  0
  5  6  2  0  0  0  0
  7  3  1  0  0  0  0
  9 10  1  0  0  0  0
  9 12  1  0  0  0  0
 11  9  1  0  0  0  0
 12 13  1  0  0  0  0
 12 14  1  0  0  0  0
 15 19  1  0  0  0  0
 15 12  1  0  0  0  0
 16 15  2  0  0  0  0
 17 16  1  0  0  0  0
 17 18  1  0  0  0  0
 18 21  1  0  0  0  0
 18 19  2  0  0  0  0
 20 16  1  0  0  0  0
 23 22  2  0  0  0  0
 23 21  1  0  0  0  0
 23 26  1  0  0  0  0
 24 23  1  0  0  0  0
 25 24  1  0  0  0  0
 26 27  1  0  0  0  0
 28  2  1  0  0  0  0
 29 30  1  0  0  0  0
 29 35  1  1  0  0  0
 30 28  1  6  0  0  0
 31 30  1  0  0  0  0
 32 31  1  0  0  0  0
 33 37  1  6  0  0  0
 33 32  1  0  0  0  0
 33 34  1  0  0  0  0
 34 39  1  6  0  0  0
 34 29  1  0  0  0  0
 36 35  1  0  0  0  0
 37 38  1  0  0  0  0
 39 40  1  0  0  0  0
M  END
>  <minimizedAffinity>
-6.36893749

$$$$

 OpenBabel03252507473D

 40 42  0  0  1  0  0  0  0  0999 V2000
   37.1130   29.5500   40.7690 C   0  0  0  0  0  0  0  0  0  0  0  0
   37.7060   30.0230   39.6150 C   0  0  0  0  0  0  0  0  0  0  0  0
   36.9950   30.1320   38.4280 C   0  0  0  0  0  0  0  0  0  0  0  0
   35.6760   29.7480   38.4620 N   0  0  0  0  0  0  0  0  0  0  0  0
   35.1340   29.2920   39.6060 C   0  0  0  0  0  0  0  0  0  0  0  0
   35.8330   29.1970   40.7260 N   0  0  0  0  0  0  0  0  0  0  0  0
   37.4550   30.5020   37.5230 H   0  0  0  0  0  0  0  0  0  0  0  0
   34.0990   28.9800   39.6740 H   0  0  0  0  0  0  0  0  0  0  0  0
   37.9550   29.4720   41.9770 C   0  0  0  0  0  0  0  0  0  0  0  0
   37.9830   30.4460   42.5110 H   0  0  0  0  0  0  0  0  0  0  0  0
   39.0110   29.2270   41.7220 H   0  0  0  0  0  0  0  0  0  0  0  0
   37.4410   28.4730   42.9830 C   0  0  0  0  0  0  0  0  0  0  0  0
   36.3300   28.4720   42.9360 H   0  0  0  0  0  0  0  0  0  0  0  0
   37.7700   28.8140   43.9850 H   0  0  0  0  0  0  0  0  0  0  0  0
   37.9940   27.1040   42.8140 C   0  0  0  0  0  0  0  0  0  0  0  0
   37.2640   26.1360   42.0620 C   0  0  0  0  0  0  0  0  0  0  0  0
   38.3420   24.6490   42.1480 S   0  0  0  0  0  0  0  0  0  0  0  0
   39.6150   25.6010   43.2020 C   0  0  0  0  0  0  0  0  0  0  0  0
   39.1240   26.6250   43.2840 N   0  0  0  0  0  0  0  0  0  0  0  0
   36.3160   26.2690   41.5740 H   0  0  0  0  0  0  0  0  0  0  0  0
   40.7980   25.0250   43.6670 O   0  0  0  0  0  0  0  0  0  0  0  0
   42.4660   27.0500   43.3120 O   0  0  0  0  0  0  0  0  0  0  0  0
   42.2540   25.5730   42.9860 P   0  0  0  0  0  0  0  0  0  0  0  0
   43.5110   24.6620   43.6370 O   0  0  0  0  0  0  0  0  0  0  0  0
   44.3140   25.2230   43.6410 H   0  0  0  0  0  0  0  0  0  0  0  0
   42.2160   25.3300   41.3040 O   0  0  0  0  0  0  0  0  0  0  0  0
   42.8600   25.8650   40.8120 H   0  0  0  0  0  0  0  0  0  0  0  0
   39.4480   30.5150   39.6330 S   0  0  0  0  0  0  0  0  0  0  0  0
   40.5060   32.2200   37.8520 C   0  0  2  0  0  3  0  0  0  0  0  0
   39.6120   32.2080   39.0950 C   0  0  2  0  0  3  0  0  0  0  0  0
   40.2060   32.9240   40.1370 O   0  0  0  0  0  0  0  0  0  0  0  0
   41.5550   32.5720   40.1580 C   0  0  0  0  0  2  0  0  0  0  0  0
   42.2470   33.4700   39.1580 C   0  0  2  0  0  3  0  0  0  0  0  0
   41.4440   33.4050   37.8740 C   0  0  1  0  0  3  0  0  0  0  0  0
   39.7150   32.3440   36.7090 O   0  0  0  0  0  0  0  0  0  0  0  0
   40.3120   32.4130   35.9480 H   0  0  0  0  0  0  0  0  0  0  0  0
   43.5770   33.0910   38.9770 O   0  0  0  0  0  0  0  0  0  0  0  0
   43.9300   33.4140   38.1150 H   0  0  0  0  0  0  0  0  0  0  0  0
   42.3100   33.2710   36.7990 O   0  0  0  0  0  0  0  0  0  0  0  0
   42.3310   32.3880   36.3890 H   0  0  0  0  0  0  0  0  0  0  0  0
  1  9  1  0  0  0  0
  2 28  1  0  0  0  0
  2  1  2  0  0  0  0
  3  4  2  0  0  0  0
  3  2  1  0  0  0  0
  4  5  1  0  0  0  0
  5  8  1  0  0  0  0
  5  6  2  0  0  0  0
  6  1  1  0  0  0  0
  7  3  1  0  0  0  0
  9 10  1  0  0  0  0
  9 12  1  0  0  0  0
 11  9  1  0  0  0  0
 12 14  1  0  0  0  0
 13 12  1  0  0  0  0
 15 12  1  0  0  0  0
 15 19  1  0  0  0  0
 16 17  1  0  0  0  0
 16 15  2  0  0  0  0
 17 18  1  0  0  0  0
 18 19  2  0  0  0  0
 18 21  1  0  0  0  0
 20 16  1  0  0  0  0
 23 22  2  0  0  0  0
 23 24  1  0  0  0  0
 23 21  1  0  0  0  0
 24 25  1  0  0  0  0
 26 23  1  0  0  0  0
 27 26  1  0  0  0  0
 29 35  1  6  0  0  0
 29 34  1  0  0  0  0
 29 30  1  0  0  0  0
 30 28  1  1  0  0  0
 30 31  1  0  0  0  0
 31 32  1  0  0  0  0
 33 37  1  6  0  0  0
 33 32  1  0  0  0  0
 34 39  1  6  0  0  0
 34 33  1  0  0  0  0
 36 35  1  0  0  0  0
 38 37  1  0  0  0  0
 40 39  1  0  0  0  0
M  END
>  <minimizedAffinity>
-6.26383162

$$$$

 OpenBabel03252507473D

 40 42  0  0  1  0  0  0  0  0999 V2000
   39.0030   28.6400   41.9800 C   0  0  0  0  0  0  0  0  0  0  0  0
   38.1000   28.1630   41.0480 C   0  0  0  0  0  0  0  0  0  0  0  0
   36.9150   27.5540   41.4350 C   0  0  0  0  0  0  0  0  0  0  0  0
   36.6870   27.4510   42.7860 N   0  0  0  0  0  0  0  0  0  0  0  0
   37.5900   27.9270   43.6630 C   0  0  0  0  0  0  0  0  0  0  0  0
   38.7150   28.5050   43.2690 N   0  0  0  0  0  0  0  0  0  0  0  0
   36.2070   27.1800   40.7100 H   0  0  0  0  0  0  0  0  0  0  0  0
   37.4480   27.8660   44.7340 H   0  0  0  0  0  0  0  0  0  0  0  0
   40.2320   29.2710   41.4650 C   0  0  0  0  0  0  0  0  0  0  0  0
   40.0150   29.9250   40.5940 H   0  0  0  0  0  0  0  0  0  0  0  0
   40.9620   28.5090   41.1090 H   0  0  0  0  0  0  0  0  0  0  0  0
   40.9010   30.1610   42.4830 C   0  0  0  0  0  0  0  0  0  0  0  0
   41.6060   29.5400   43.0780 H   0  0  0  0  0  0  0  0  0  0  0  0
   40.1070   30.5590   43.1460 H   0  0  0  0  0  0  0  0  0  0  0  0
   41.5800   31.3470   41.8990 C   0  0  0  0  0  0  0  0  0  0  0  0
   42.6630   31.9560   42.5990 C   0  0  0  0  0  0  0  0  0  0  0  0
   43.1440   33.3410   41.4890 S   0  0  0  0  0  0  0  0  0  0  0  0
   41.7790   32.8570   40.2500 C   0  0  0  0  0  0  0  0  0  0  0  0
   41.3130   31.9540   40.7640 N   0  0  0  0  0  0  0  0  0  0  0  0
   43.0790   31.6570   43.5430 H   0  0  0  0  0  0  0  0  0  0  0  0
   41.5530   33.5500   39.0600 O   0  0  0  0  0  0  0  0  0  0  0  0
   43.4710   32.0910   37.9640 O   0  0  0  0  0  0  0  0  0  0  0  0
   42.2170   32.9000   37.6390 P   0  0  0  0  0  0  0  0  0  0  0  0
   41.0630   31.8990   36.9330 O   0  0  0  0  0  0  0  0  0  0  0  0
   41.5390   31.2000   36.4370 H   0  0  0  0  0  0  0  0  0  0  0  0
   42.5820   34.1610   36.5590 O   0  0  0  0  0  0  0  0  0  0  0  0
   43.2160   33.9180   35.8650 H   0  0  0  0  0  0  0  0  0  0  0  0
   38.4570   28.3290   39.2810 S   0  0  0  0  0  0  0  0  0  0  0  0
   38.0080   30.1880   37.3990 C   0  0  2  0  0  3  0  0  0  0  0  0
   37.2850   29.4390   38.5220 C   0  0  2  0  0  3  0  0  0  0  0  0
   36.8490   30.3280   39.5080 O   0  0  0  0  0  0  0  0  0  0  0  0
   37.8890   31.2300   39.7320 C   0  0  0  0  0  2  0  0  0  0  0  0
   37.7410   32.3210   38.6970 C   0  0  2  0  0  3  0  0  0  0  0  0
   37.5780   31.6360   37.3530 C   0  0  1  0  0  3  0  0  0  0  0  0
   37.6760   29.6220   36.1700 O   0  0  0  0  0  0  0  0  0  0  0  0
   38.0960   30.1560   35.4780 H   0  0  0  0  0  0  0  0  0  0  0  0
   38.8280   33.1940   38.7240 O   0  0  0  0  0  0  0  0  0  0  0  0
   38.9260   33.6750   37.8700 H   0  0  0  0  0  0  0  0  0  0  0  0
   38.3730   32.2780   36.4140 O   0  0  0  0  0  0  0  0  0  0  0  0
   39.1720   31.7910   36.1440 H   0  0  0  0  0  0  0  0  0  0  0  0
  1  6  1  0  0  0  0
  2  3  1  0  0  0  0
  2  1  2  0  0  0  0
  3  4  2  0  0  0  0
  4  5  1  0  0  0  0
  5  8  1  0  0  0  0
  6  5  2  0  0  0  0
  7  3  1  0  0  0  0
  9  1  1  0  0  0  0
  9 12  1  0  0  0  0
 10  9  1  0  0  0  0
 11  9  1  0  0  0  0
 12 13  1  0  0  0  0
 12 14  1  0  0  0  0
 15 12  1  0  0  0  0
 15 16  2  0  0  0  0
 16 20  1  0  0  0  0
 17 16  1  0  0  0  0
 18 19  2  0  0  0  0
 18 17  1  0  0  0  0
 19 15  1  0  0  0  0
 21 18  1  0  0  0  0
 23 22  2  0  0  0  0
 23 21  1  0  0  0  0
 24 23  1  0  0  0  0
 25 24  1  0  0  0  0
 26 23  1  0  0  0  0
 27 26  1  0  0  0  0
 28  2  1  0  0  0  0
 29 35  1  6  0  0  0
 29 30  1  0  0  0  0
 30 28  1  1  0  0  0
 30 31  1  0  0  0  0
 31 32  1  0  0  0  0
 33 37  1  6  0  0  0
 33 32  1  0  0  0  0
 34 39  1  6  0  0  0
 34 29  1  0  0  0  0
 34 33  1  0  0  0  0
 36 35  1  0  0  0  0
 38 37  1  0  0  0  0
 40 39  1  0  0  0  0
M  END
>  <minimizedAffinity>
-6.13752937

$$$$

 OpenBabel03252507473D

 40 42  0  0  1  0  0  0  0  0999 V2000
   37.9210   26.4870   41.9520 C   0  0  0  0  0  0  0  0  0  0  0  0
   38.5540   27.4040   42.7680 C   0  0  0  0  0  0  0  0  0  0  0  0
   39.5570   27.0200   43.6470 C   0  0  0  0  0  0  0  0  0  0  0  0
   39.8860   25.6850   43.6610 N   0  0  0  0  0  0  0  0  0  0  0  0
   39.2460   24.8230   42.8510 C   0  0  0  0  0  0  0  0  0  0  0  0
   38.2920   25.2140   42.0200 N   0  0  0  0  0  0  0  0  0  0  0  0
   40.0550   27.7330   44.2870 H   0  0  0  0  0  0  0  0  0  0  0  0
   39.4760   23.7650   42.8310 H   0  0  0  0  0  0  0  0  0  0  0  0
   36.8680   26.9970   41.0530 C   0  0  0  0  0  0  0  0  0  0  0  0
   37.0000   28.0820   40.8550 H   0  0  0  0  0  0  0  0  0  0  0  0
   35.8560   26.8850   41.5070 H   0  0  0  0  0  0  0  0  0  0  0  0
   36.8830   26.3320   39.7000 C   0  0  0  0  0  0  0  0  0  0  0  0
   35.8320   26.1090   39.4110 H   0  0  0  0  0  0  0  0  0  0  0  0
   37.4480   25.3840   39.8040 H   0  0  0  0  0  0  0  0  0  0  0  0
   37.5820   27.1140   38.6480 C   0  0  0  0  0  0  0  0  0  0  0  0
   38.9920   26.9720   38.4840 C   0  0  0  0  0  0  0  0  0  0  0  0
   39.3620   28.1170   37.0920 S   0  0  0  0  0  0  0  0  0  0  0  0
   37.5220   28.6000   36.9670 C   0  0  0  0  0  0  0  0  0  0  0  0
   37.0620   27.9670   37.7940 N   0  0  0  0  0  0  0  0  0  0  0  0
   39.6550   26.3430   39.0490 H   0  0  0  0  0  0  0  0  0  0  0  0
   37.0400   29.5160   36.0310 O   0  0  0  0  0  0  0  0  0  0  0  0
   34.7630   29.3160   34.6950 O   0  0  0  0  0  0  0  0  0  0  0  0
   36.2310   28.8950   34.6740 P   0  0  0  0  0  0  0  0  0  0  0  0
   36.9770   29.5080   33.2950 O   0  0  0  0  0  0  0  0  0  0  0  0
   36.3010   29.5590   32.5880 H   0  0  0  0  0  0  0  0  0  0  0  0
   36.3680   27.2010   34.6630 O   0  0  0  0  0  0  0  0  0  0  0  0
   35.7100   26.7530   34.1060 H   0  0  0  0  0  0  0  0  0  0  0  0
   38.0760   29.1490   42.7040 S   0  0  0  0  0  0  0  0  0  0  0  0
   39.2690   31.4540   42.0230 C   0  0  2  0  0  3  0  0  0  0  0  0
   39.0920   30.0180   41.5220 C   0  0  2  0  0  3  0  0  0  0  0  0
   38.4200   30.0020   40.2980 O   0  0  0  0  0  0  0  0  0  0  0  0
   37.3710   30.9160   40.3950 C   0  0  0  0  0  2  0  0  0  0  0  0
   37.9480   32.2690   40.0490 C   0  0  2  0  0  3  0  0  0  0  0  0
   39.2090   32.4360   40.8760 C   0  0  1  0  0  3  0  0  0  0  0  0
   40.5240   31.5910   42.6150 O   0  0  0  0  0  0  0  0  0  0  0  0
   40.6300   32.5230   42.8620 H   0  0  0  0  0  0  0  0  0  0  0  0
   37.0210   33.2850   40.2760 O   0  0  0  0  0  0  0  0  0  0  0  0
   37.4630   34.1580   40.3940 H   0  0  0  0  0  0  0  0  0  0  0  0
   39.2330   33.7130   41.4180 O   0  0  0  0  0  0  0  0  0  0  0  0
   39.0500   33.7630   42.3730 H   0  0  0  0  0  0  0  0  0  0  0  0
  1  6  2  0  0  0  0
  1  2  1  0  0  0  0
  2  3  2  0  0  0  0
  3  4  1  0  0  0  0
  3  7  1  0  0  0  0
  5  4  2  0  0  0  0
  6  5  1  0  0  0  0
  8  5  1  0  0  0  0
  9 11  1  0  0  0  0
  9  1  1  0  0  0  0
 10  9  1  0  0  0  0
 12 14  1  0  0  0  0
 12  9  1  0  0  0  0
 13 12  1  0  0  0  0
 15 12  1  0  0  0  0
 16 15  2  0  0  0  0
 16 20  1  0  0  0  0
 17 16  1  0  0  0  0
 18 17  1  0  0  0  0
 18 19  2  0  0  0  0
 19 15  1  0  0  0  0
 21 18  1  0  0  0  0
 23 22  2  0  0  0  0
 23 21  1  0  0  0  0
 24 23  1  0  0  0  0
 25 24  1  0  0  0  0
 26 23  1  0  0  0  0
 27 26  1  0  0  0  0
 28  2  1  0  0  0  0
 29 35  1  6  0  0  0
 30 29  1  0  0  0  0
 30 28  1  1  0  0  0
 31 32  1  0  0  0  0
 31 30  1  0  0  0  0
 33 37  1  1  0  0  0
 33 32  1  0  0  0  0
 33 34  1  0  0  0  0
 34 39  1  1  0  0  0
 34 29  1  0  0  0  0
 35 36  1  0  0  0  0
 37 38  1  0  0  0  0
 39 40  1  0  0  0  0
M  END
>  <minimizedAffinity>
-5.91125631

$$$$

 OpenBabel03252507473D

 40 42  0  0  1  0  0  0  0  0999 V2000
   37.1040   29.1680   41.6860 C   0  0  0  0  0  0  0  0  0  0  0  0
   38.3190   29.7570   41.9790 C   0  0  0  0  0  0  0  0  0  0  0  0
   39.2320   29.1490   42.8280 C   0  0  0  0  0  0  0  0  0  0  0  0
   38.8670   27.9350   43.3590 N   0  0  0  0  0  0  0  0  0  0  0  0
   37.6750   27.3930   43.0500 C   0  0  0  0  0  0  0  0  0  0  0  0
   36.8190   27.9940   42.2370 N   0  0  0  0  0  0  0  0  0  0  0  0
   40.1830   29.6060   43.0600 H   0  0  0  0  0  0  0  0  0  0  0  0
   37.3500   26.4400   43.4470 H   0  0  0  0  0  0  0  0  0  0  0  0
   36.2040   29.8960   40.7720 C   0  0  0  0  0  0  0  0  0  0  0  0
   36.7140   30.1420   39.8170 H   0  0  0  0  0  0  0  0  0  0  0  0
   35.8780   30.8680   41.2100 H   0  0  0  0  0  0  0  0  0  0  0  0
   34.9880   29.0920   40.3880 C   0  0  0  0  0  0  0  0  0  0  0  0
   34.1060   29.5240   40.9100 H   0  0  0  0  0  0  0  0  0  0  0  0
   35.1540   28.0530   40.7370 H   0  0  0  0  0  0  0  0  0  0  0  0
   34.7600   28.9990   38.9220 C   0  0  0  0  0  0  0  0  0  0  0  0
   35.8770   28.9070   38.0390 C   0  0  0  0  0  0  0  0  0  0  0  0
   35.0850   28.8180   36.3820 S   0  0  0  0  0  0  0  0  0  0  0  0
   33.3540   28.9220   37.1740 C   0  0  0  0  0  0  0  0  0  0  0  0
   33.6130   28.9890   38.2820 N   0  0  0  0  0  0  0  0  0  0  0  0
   36.9180   28.8960   38.3040 H   0  0  0  0  0  0  0  0  0  0  0  0
   32.1750   28.9050   36.4280 O   0  0  0  0  0  0  0  0  0  0  0  0
   30.9030   31.2250   36.5140 O   0  0  0  0  0  0  0  0  0  0  0  0
   30.8570   29.7890   37.0310 P   0  0  0  0  0  0  0  0  0  0  0  0
   29.4420   29.0420   36.5050 O   0  0  0  0  0  0  0  0  0  0  0  0
   28.7520   29.7330   36.4280 H   0  0  0  0  0  0  0  0  0  0  0  0
   30.8900   29.7620   38.7300 O   0  0  0  0  0  0  0  0  0  0  0  0
   30.3630   30.4630   39.1480 H   0  0  0  0  0  0  0  0  0  0  0  0
   38.7440   31.3580   41.2480 S   0  0  0  0  0  0  0  0  0  0  0  0
   40.5210   32.5780   39.6500 C   0  0  2  0  0  3  0  0  0  0  0  0
   40.2360   31.2120   40.2820 C   0  0  2  0  0  3  0  0  0  0  0  0
   40.0060   30.2510   39.2950 O   0  0  0  0  0  0  0  0  0  0  0  0
   39.1820   30.8390   38.3350 C   0  0  0  0  0  2  0  0  0  0  0  0
   40.0950   31.5810   37.3860 C   0  0  2  0  0  3  0  0  0  0  0  0
   41.0280   32.4220   38.2350 C   0  0  1  0  0  3  0  0  0  0  0  0
   41.5180   33.2290   40.3740 O   0  0  0  0  0  0  0  0  0  0  0  0
   41.7200   34.0590   39.9130 H   0  0  0  0  0  0  0  0  0  0  0  0
   39.3630   32.3450   36.4770 O   0  0  0  0  0  0  0  0  0  0  0  0
   39.9060   33.0760   36.1000 H   0  0  0  0  0  0  0  0  0  0  0  0
   41.1260   33.6920   37.6850 O   0  0  0  0  0  0  0  0  0  0  0  0
   40.6580   34.3940   38.1710 H   0  0  0  0  0  0  0  0  0  0  0  0
  1  2  2  0  0  0  0
  1  6  1  0  0  0  0
  2  3  1  0  0  0  0
  3  7  1  0  0  0  0
  3  4  2  0  0  0  0
  5  4  1  0  0  0  0
  5  8  1  0  0  0  0
  6  5  2  0  0  0  0
  9 11  1  0  0  0  0
  9  1  1  0  0  0  0
 10  9  1  0  0  0  0
 12 14  1  0  0  0  0
 12  9  1  0  0  0  0
 12 13  1  0  0  0  0
 15 12  1  0  0  0  0
 16 20  1  0  0  0  0
 16 15  2  0  0  0  0
 17 18  1  0  0  0  0
 17 16  1  0  0  0  0
 18 19  2  0  0  0  0
 19 15  1  0  0  0  0
 21 23  1  0  0  0  0
 21 18  1  0  0  0  0
 22 23  2  0  0  0  0
 23 26  1  0  0  0  0
 24 23  1  0  0  0  0
 25 24  1  0  0  0  0
 26 27  1  0  0  0  0
 28  2  1  0  0  0  0
 29 30  1  0  0  0  0
 29 35  1  1  0  0  0
 30 28  1  1  0  0  0
 31 30  1  0  0  0  0
 32 31  1  0  0  0  0
 33 37  1  6  0  0  0
 33 34  1  0  0  0  0
 33 32  1  0  0  0  0
 34 39  1  6  0  0  0
 34 29  1  0  0  0  0
 36 35  1  0  0  0  0
 38 37  1  0  0  0  0
 39 40  1  0  0  0  0
M  END
>  <minimizedAffinity>
-5.9003253

$$$$

 OpenBabel03252507473D

 40 42  0  0  1  0  0  0  0  0999 V2000
   37.2420   26.7590   41.6190 C   0  0  0  0  0  0  0  0  0  0  0  0
   36.6440   27.2300   40.4660 C   0  0  0  0  0  0  0  0  0  0  0  0
   36.4700   26.4160   39.3560 C   0  0  0  0  0  0  0  0  0  0  0  0
   36.9210   25.1220   39.4630 N   0  0  0  0  0  0  0  0  0  0  0  0
   37.4980   24.7000   40.6030 C   0  0  0  0  0  0  0  0  0  0  0  0
   37.6530   25.4960   41.6500 N   0  0  0  0  0  0  0  0  0  0  0  0
   36.0030   26.7800   38.4520 H   0  0  0  0  0  0  0  0  0  0  0  0
   37.8660   23.6890   40.7280 H   0  0  0  0  0  0  0  0  0  0  0  0
   37.3790   27.7040   42.7420 C   0  0  0  0  0  0  0  0  0  0  0  0
   36.4810   27.6850   43.3960 H   0  0  0  0  0  0  0  0  0  0  0  0
   37.4790   28.7530   42.3810 H   0  0  0  0  0  0  0  0  0  0  0  0
   38.5430   27.3740   43.6430 C   0  0  0  0  0  0  0  0  0  0  0  0
   38.5760   26.2710   43.7790 H   0  0  0  0  0  0  0  0  0  0  0  0
   38.3540   27.8630   44.6190 H   0  0  0  0  0  0  0  0  0  0  0  0
   39.8470   27.9020   43.1660 C   0  0  0  0  0  0  0  0  0  0  0  0
   41.0600   27.3560   43.6800 C   0  0  0  0  0  0  0  0  0  0  0  0
   42.3540   28.3210   42.7980 S   0  0  0  0  0  0  0  0  0  0  0  0
   41.0160   29.3150   41.8720 C   0  0  0  0  0  0  0  0  0  0  0  0
   40.0600   28.8560   42.2870 N   0  0  0  0  0  0  0  0  0  0  0  0
   41.1660   26.5700   44.4050 H   0  0  0  0  0  0  0  0  0  0  0  0
   41.3180   30.3180   40.9480 O   0  0  0  0  0  0  0  0  0  0  0  0
   41.2530   32.8710   40.2520 O   0  0  0  0  0  0  0  0  0  0  0  0
   41.0930   31.9270   41.4410 P   0  0  0  0  0  0  0  0  0  0  0  0
   39.5390   32.0680   42.0720 O   0  0  0  0  0  0  0  0  0  0  0  0
   39.2390   32.9880   41.9220 H   0  0  0  0  0  0  0  0  0  0  0  0
   42.2150   32.3050   42.6610 O   0  0  0  0  0  0  0  0  0  0  0  0
   42.3530   33.2570   42.7920 H   0  0  0  0  0  0  0  0  0  0  0  0
   36.0700   28.9450   40.3840 S   0  0  0  0  0  0  0  0  0  0  0  0
   36.9470   31.3860   39.6960 C   0  0  2  0  0  3  0  0  0  0  0  0
   37.4630   30.0500   40.2370 C   0  0  2  0  0  3  0  0  0  0  0  0
   38.3650   29.4710   39.3410 O   0  0  0  0  0  0  0  0  0  0  0  0
   37.8290   29.6260   38.0630 C   0  0  0  0  0  2  0  0  0  0  0  0
   38.2490   30.9970   37.5860 C   0  0  2  0  0  3  0  0  0  0  0  0
   37.9160   31.9740   38.6970 C   0  0  1  0  0  3  0  0  0  0  0  0
   36.8310   32.3000   40.7430 O   0  0  0  0  0  0  0  0  0  0  0  0
   36.5650   33.1500   40.3600 H   0  0  0  0  0  0  0  0  0  0  0  0
   37.6280   31.3240   36.3810 O   0  0  0  0  0  0  0  0  0  0  0  0
   37.6070   32.2990   36.2390 H   0  0  0  0  0  0  0  0  0  0  0  0
   37.3180   33.1010   38.1500 O   0  0  0  0  0  0  0  0  0  0  0  0
   36.3600   33.1790   38.3030 H   0  0  0  0  0  0  0  0  0  0  0  0
  1  6  1  0  0  0  0
  1  9  1  0  0  0  0
  2  1  2  0  0  0  0
  3  4  2  0  0  0  0
  3  2  1  0  0  0  0
  4  5  1  0  0  0  0
  5  8  1  0  0  0  0
  5  6  2  0  0  0  0
  7  3  1  0  0  0  0
  9 10  1  0  0  0  0
  9 12  1  0  0  0  0
 11  9  1  0  0  0  0
 12 13  1  0  0  0  0
 12 14  1  0  0  0  0
 15 12  1  0  0  0  0
 15 16  2  0  0  0  0
 16 20  1  0  0  0  0
 17 16  1  0  0  0  0
 18 19  2  0  0  0  0
 18 17  1  0  0  0  0
 19 15  1  0  0  0  0
 21 23  1  0  0  0  0
 21 18  1  0  0  0  0
 22 23  2  0  0  0  0
 23 24  1  0  0  0  0
 23 26  1  0  0  0  0
 25 24  1  0  0  0  0
 26 27  1  0  0  0  0
 28  2  1  0  0  0  0
 29 30  1  0  0  0  0
 29 35  1  1  0  0  0
 30 28  1  6  0  0  0
 31 30  1  0  0  0  0
 32 31  1  0  0  0  0
 33 37  1  6  0  0  0
 33 32  1  0  0  0  0
 33 34  1  0  0  0  0
 34 39  1  6  0  0  0
 34 29  1  0  0  0  0
 36 35  1  0  0  0  0
 38 37  1  0  0  0  0
 39 40  1  0  0  0  0
M  END
>  <minimizedAffinity>
-5.72450781

$$$$

 OpenBabel03252507473D

 40 42  0  0  1  0  0  0  0  0999 V2000
   36.9430   30.0960   38.8110 C   0  0  0  0  0  0  0  0  0  0  0  0
   36.8370   28.9100   39.5110 C   0  0  0  0  0  0  0  0  0  0  0  0
   37.0520   27.6840   38.8970 C   0  0  0  0  0  0  0  0  0  0  0  0
   37.3760   27.7130   37.5610 N   0  0  0  0  0  0  0  0  0  0  0  0
   37.4710   28.8880   36.9140 C   0  0  0  0  0  0  0  0  0  0  0  0
   37.2600   30.0460   37.5220 N   0  0  0  0  0  0  0  0  0  0  0  0
   36.9690   26.7540   39.4400 H   0  0  0  0  0  0  0  0  0  0  0  0
   37.7240   28.9540   35.8630 H   0  0  0  0  0  0  0  0  0  0  0  0
   36.6950   31.3440   39.5570 C   0  0  0  0  0  0  0  0  0  0  0  0
   37.1800   31.3190   40.5550 H   0  0  0  0  0  0  0  0  0  0  0  0
   35.6070   31.4970   39.7430 H   0  0  0  0  0  0  0  0  0  0  0  0
   37.2560   32.5590   38.8630 C   0  0  0  0  0  0  0  0  0  0  0  0
   36.5050   33.3770   38.9310 H   0  0  0  0  0  0  0  0  0  0  0  0
   37.4150   32.2890   37.8000 H   0  0  0  0  0  0  0  0  0  0  0  0
   38.5810   32.9940   39.3780 C   0  0  0  0  0  0  0  0  0  0  0  0
   38.6490   33.9770   40.4090 C   0  0  0  0  0  0  0  0  0  0  0  0
   40.4580   34.1610   40.6840 S   0  0  0  0  0  0  0  0  0  0  0  0
   40.8210   32.8590   39.3390 C   0  0  0  0  0  0  0  0  0  0  0  0
   39.7700   32.5800   39.0000 N   0  0  0  0  0  0  0  0  0  0  0  0
   37.8280   34.4750   40.8910 H   0  0  0  0  0  0  0  0  0  0  0  0
   42.1150   32.4680   38.9900 O   0  0  0  0  0  0  0  0  0  0  0  0
   43.9000   31.8530   37.1340 O   0  0  0  0  0  0  0  0  0  0  0  0
   42.4960   32.4180   37.3360 P   0  0  0  0  0  0  0  0  0  0  0  0
   41.3700   31.4290   36.5690 O   0  0  0  0  0  0  0  0  0  0  0  0
   41.8090   31.0270   35.7910 H   0  0  0  0  0  0  0  0  0  0  0  0
   42.3810   33.9840   36.6840 O   0  0  0  0  0  0  0  0  0  0  0  0
   42.8520   34.0980   35.8430 H   0  0  0  0  0  0  0  0  0  0  0  0
   36.4070   28.9360   41.2700 S   0  0  0  0  0  0  0  0  0  0  0  0
   39.0740   28.8800   41.5610 C   0  0  2  0  0  3  0  0  0  0  0  0
   37.8190   29.4390   42.2370 C   0  0  2  0  0  3  0  0  0  0  0  0
   37.6650   28.8990   43.5160 O   0  0  0  0  0  0  0  0  0  0  0  0
   37.9430   27.5350   43.4200 C   0  0  0  0  0  2  0  0  0  0  0  0
   39.4420   27.3930   43.5500 C   0  0  2  0  0  3  0  0  0  0  0  0
   40.0660   28.3860   42.5880 C   0  0  1  0  0  3  0  0  0  0  0  0
   39.7030   29.8910   40.8350 O   0  0  0  0  0  0  0  0  0  0  0  0
   40.5240   29.5230   40.4730 H   0  0  0  0  0  0  0  0  0  0  0  0
   39.8470   26.0820   43.3010 O   0  0  0  0  0  0  0  0  0  0  0  0
   40.7970   26.0400   43.0410 H   0  0  0  0  0  0  0  0  0  0  0  0
   41.1030   27.7700   41.9040 O   0  0  0  0  0  0  0  0  0  0  0  0
   40.9170   27.5550   40.9720 H   0  0  0  0  0  0  0  0  0  0  0  0
  1  2  1  0  0  0  0
  1  9  1  0  0  0  0
  2 28  1  0  0  0  0
  3  7  1  0  0  0  0
  3  2  2  0  0  0  0
  4  3  1  0  0  0  0
  5  6  1  0  0  0  0
  5  4  2  0  0  0  0
  6  1  2  0  0  0  0
  8  5  1  0  0  0  0
  9 11  1  0  0  0  0
  9 10  1  0  0  0  0
 12 13  1  0  0  0  0
 12 15  1  0  0  0  0
 12  9  1  0  0  0  0
 14 12  1  0  0  0  0
 15 16  2  0  0  0  0
 16 17  1  0  0  0  0
 16 20  1  0  0  0  0
 18 17  1  0  0  0  0
 19 18  2  0  0  0  0
 19 15  1  0  0  0  0
 21 18  1  0  0  0  0
 22 23  2  0  0  0  0
 23 21  1  0  0  0  0
 24 23  1  0  0  0  0
 25 24  1  0  0  0  0
 26 23  1  0  0  0  0
 27 26  1  0  0  0  0
 29 35  1  1  0  0  0
 29 30  1  0  0  0  0
 29 34  1  0  0  0  0
 30 28  1  6  0  0  0
 30 31  1  0  0  0  0
 32 31  1  0  0  0  0
 32 33  1  0  0  0  0
 33 37  1  6  0  0  0
 34 39  1  6  0  0  0
 34 33  1  0  0  0  0
 36 35  1  0  0  0  0
 38 37  1  0  0  0  0
 40 39  1  0  0  0  0
M  END
>  <minimizedAffinity>
-5.6791172

$$$$

 OpenBabel03252507473D

 40 42  0  0  1  0  0  0  0  0999 V2000
   36.9340   27.5380   40.6320 C   0  0  0  0  0  0  0  0  0  0  0  0
   37.6560   28.4140   41.4190 C   0  0  0  0  0  0  0  0  0  0  0  0
   38.3260   27.9820   42.5540 C   0  0  0  0  0  0  0  0  0  0  0  0
   38.2360   26.6440   42.8520 N   0  0  0  0  0  0  0  0  0  0  0  0
   37.5230   25.8220   42.0610 C   0  0  0  0  0  0  0  0  0  0  0  0
   36.8910   26.2580   40.9820 N   0  0  0  0  0  0  0  0  0  0  0  0
   38.8920   28.6640   43.1730 H   0  0  0  0  0  0  0  0  0  0  0  0
   37.4260   24.7620   42.2610 H   0  0  0  0  0  0  0  0  0  0  0  0
   36.2570   28.0970   39.4460 C   0  0  0  0  0  0  0  0  0  0  0  0
   36.8330   28.9440   39.0170 H   0  0  0  0  0  0  0  0  0  0  0  0
   35.2520   28.5030   39.7050 H   0  0  0  0  0  0  0  0  0  0  0  0
   36.1160   27.0940   38.3280 C   0  0  0  0  0  0  0  0  0  0  0  0
   35.8350   26.1140   38.7740 H   0  0  0  0  0  0  0  0  0  0  0  0
   37.1040   27.0080   37.8340 H   0  0  0  0  0  0  0  0  0  0  0  0
   35.1600   27.5020   37.2660 C   0  0  0  0  0  0  0  0  0  0  0  0
   33.9270   26.8000   37.1190 C   0  0  0  0  0  0  0  0  0  0  0  0
   33.1260   27.6650   35.7070 S   0  0  0  0  0  0  0  0  0  0  0  0
   34.6160   28.8450   35.5520 C   0  0  0  0  0  0  0  0  0  0  0  0
   35.2920   28.4720   36.3890 N   0  0  0  0  0  0  0  0  0  0  0  0
   33.5750   25.9710   37.7040 H   0  0  0  0  0  0  0  0  0  0  0  0
   34.6870   29.8560   34.5930 O   0  0  0  0  0  0  0  0  0  0  0  0
   36.1180   31.3410   32.9330 O   0  0  0  0  0  0  0  0  0  0  0  0
   36.2320   30.3360   34.0760 P   0  0  0  0  0  0  0  0  0  0  0  0
   37.0220   31.0480   35.3810 O   0  0  0  0  0  0  0  0  0  0  0  0
   37.6520   31.7070   35.0240 H   0  0  0  0  0  0  0  0  0  0  0  0
   37.1120   28.9670   33.5850 O   0  0  0  0  0  0  0  0  0  0  0  0
   37.8730   29.1680   33.0160 H   0  0  0  0  0  0  0  0  0  0  0  0
   37.7380   30.1670   40.9740 S   0  0  0  0  0  0  0  0  0  0  0  0
   39.4330   32.1090   40.2290 C   0  0  2  0  0  3  0  0  0  0  0  0
   39.4150   30.6140   40.5570 C   0  0  2  0  0  3  0  0  0  0  0  0
   39.7850   29.8590   39.4420 O   0  0  0  0  0  0  0  0  0  0  0  0
   39.1330   30.4120   38.3390 C   0  0  0  0  0  2  0  0  0  0  0  0
   40.0050   31.5460   37.8500 C   0  0  2  0  0  3  0  0  0  0  0  0
   40.3480   32.3940   39.0600 C   0  0  1  0  0  3  0  0  0  0  0  0
   39.9290   32.8210   41.3210 O   0  0  0  0  0  0  0  0  0  0  0  0
   39.9880   33.7530   41.0590 H   0  0  0  0  0  0  0  0  0  0  0  0
   39.3660   32.2760   36.8490 O   0  0  0  0  0  0  0  0  0  0  0  0
   39.7410   33.1840   36.7690 H   0  0  0  0  0  0  0  0  0  0  0  0
   40.2030   33.7350   38.7340 O   0  0  0  0  0  0  0  0  0  0  0  0
   39.4230   34.1740   39.1160 H   0  0  0  0  0  0  0  0  0  0  0  0
  1  6  2  0  0  0  0
  1  2  1  0  0  0  0
  2  3  2  0  0  0  0
  3  4  1  0  0  0  0
  3  7  1  0  0  0  0
  5  8  1  0  0  0  0
  5  4  2  0  0  0  0
  6  5  1  0  0  0  0
  9 11  1  0  0  0  0
  9  1  1  0  0  0  0
 10  9  1  0  0  0  0
 12 13  1  0  0  0  0
 12  9  1  0  0  0  0
 14 12  1  0  0  0  0
 15 12  1  0  0  0  0
 16 15  2  0  0  0  0
 16 20  1  0  0  0  0
 17 16  1  0  0  0  0
 18 17  1  0  0  0  0
 18 19  2  0  0  0  0
 19 15  1  0  0  0  0
 21 18  1  0  0  0  0
 22 23  2  0  0  0  0
 23 21  1  0  0  0  0
 23 24  1  0  0  0  0
 25 24  1  0  0  0  0
 26 23  1  0  0  0  0
 27 26  1  0  0  0  0
 28  2  1  0  0  0  0
 29 30  1  0  0  0  0
 29 35  1  1  0  0  0
 30 28  1  6  0  0  0
 31 30  1  0  0  0  0
 32 31  1  0  0  0  0
 33 37  1  6  0  0  0
 33 32  1  0  0  0  0
 33 34  1  0  0  0  0
 34 39  1  6  0  0  0
 34 29  1  0  0  0  0
 36 35  1  0  0  0  0
 38 37  1  0  0  0  0
 39 40  1  0  0  0  0
M  END
>  <minimizedAffinity>
-5.64263391

$$$$

 OpenBabel03252507473D

 40 42  0  0  1  0  0  0  0  0999 V2000
   40.5170   31.1790   40.3490 C   0  0  0  0  0  0  0  0  0  0  0  0
   39.9670   31.5850   39.1490 C   0  0  0  0  0  0  0  0  0  0  0  0
   40.0760   32.8970   38.7100 C   0  0  0  0  0  0  0  0  0  0  0  0
   40.7560   33.7670   39.5280 N   0  0  0  0  0  0  0  0  0  0  0  0
   41.2780   33.3340   40.6900 C   0  0  0  0  0  0  0  0  0  0  0  0
   41.1620   32.0760   41.0870 N   0  0  0  0  0  0  0  0  0  0  0  0
   39.6470   33.2190   37.7720 H   0  0  0  0  0  0  0  0  0  0  0  0
   41.8210   33.9860   41.3620 H   0  0  0  0  0  0  0  0  0  0  0  0
   40.3470   29.7630   40.7250 C   0  0  0  0  0  0  0  0  0  0  0  0
   41.1820   29.1410   40.3390 H   0  0  0  0  0  0  0  0  0  0  0  0
   39.4130   29.3370   40.2900 H   0  0  0  0  0  0  0  0  0  0  0  0
   40.3410   29.5520   42.2180 C   0  0  0  0  0  0  0  0  0  0  0  0
   39.6400   30.2880   42.6710 H   0  0  0  0  0  0  0  0  0  0  0  0
   41.3700   29.7470   42.5830 H   0  0  0  0  0  0  0  0  0  0  0  0
   40.0140   28.1640   42.6340 C   0  0  0  0  0  0  0  0  0  0  0  0
   40.9300   27.4380   43.4510 C   0  0  0  0  0  0  0  0  0  0  0  0
   40.0850   25.8200   43.6800 S   0  0  0  0  0  0  0  0  0  0  0  0
   38.6170   26.4080   42.6160 C   0  0  0  0  0  0  0  0  0  0  0  0
   38.9400   27.4650   42.3410 N   0  0  0  0  0  0  0  0  0  0  0  0
   41.8770   27.7760   43.8280 H   0  0  0  0  0  0  0  0  0  0  0  0
   37.5050   25.6070   42.3460 O   0  0  0  0  0  0  0  0  0  0  0  0
   36.2350   24.1060   40.5740 O   0  0  0  0  0  0  0  0  0  0  0  0
   37.6260   24.5120   41.0540 P   0  0  0  0  0  0  0  0  0  0  0  0
   38.4590   25.2700   39.8030 O   0  0  0  0  0  0  0  0  0  0  0  0
   38.1440   24.8840   38.9590 H   0  0  0  0  0  0  0  0  0  0  0  0
   38.5110   23.1480   41.5520 O   0  0  0  0  0  0  0  0  0  0  0  0
   38.3820   22.3660   40.9910 H   0  0  0  0  0  0  0  0  0  0  0  0
   39.0820   30.3920   38.1140 S   0  0  0  0  0  0  0  0  0  0  0  0
   37.0600   31.0600   39.7480 C   0  0  2  0  0  3  0  0  0  0  0  0
   37.3210   30.6010   38.3110 C   0  0  2  0  0  3  0  0  0  0  0  0
   36.7220   29.3630   38.0720 O   0  0  0  0  0  0  0  0  0  0  0  0
   36.9710   28.5660   39.1900 C   0  0  0  0  0  2  0  0  0  0  0  0
   35.8880   28.8850   40.1940 C   0  0  2  0  0  3  0  0  0  0  0  0
   35.8250   30.3960   40.3110 C   0  0  1  0  0  3  0  0  0  0  0  0
   36.8320   32.4360   39.7660 O   0  0  0  0  0  0  0  0  0  0  0  0
   36.6080   32.6830   40.6760 H   0  0  0  0  0  0  0  0  0  0  0  0
   36.1360   28.2640   41.4180 O   0  0  0  0  0  0  0  0  0  0  0  0
   35.6660   28.7180   42.1550 H   0  0  0  0  0  0  0  0  0  0  0  0
   35.7360   30.7480   41.6500 O   0  0  0  0  0  0  0  0  0  0  0  0
   36.5460   31.1260   42.0360 H   0  0  0  0  0  0  0  0  0  0  0  0
  1  9  1  0  0  0  0
  1  6  1  0  0  0  0
  2  1  2  0  0  0  0
  3  2  1  0  0  0  0
  3  4  2  0  0  0  0
  4  5  1  0  0  0  0
  5  6  2  0  0  0  0
  5  8  1  0  0  0  0
  7  3  1  0  0  0  0
  9 12  1  0  0  0  0
 10  9  1  0  0  0  0
 11  9  1  0  0  0  0
 12 14  1  0  0  0  0
 12 15  1  0  0  0  0
 12 13  1  0  0  0  0
 15 16  2  0  0  0  0
 16 17  1  0  0  0  0
 16 20  1  0  0  0  0
 18 17  1  0  0  0  0
 19 18  2  0  0  0  0
 19 15  1  0  0  0  0
 21 18  1  0  0  0  0
 22 23  2  0  0  0  0
 23 26  1  0  0  0  0
 23 21  1  0  0  0  0
 24 23  1  0  0  0  0
 25 24  1  0  0  0  0
 27 26  1  0  0  0  0
 28  2  1  0  0  0  0
 29 35  1  6  0  0  0
 29 34  1  0  0  0  0
 30 28  1  1  0  0  0
 30 29  1  0  0  0  0
 31 30  1  0  0  0  0
 31 32  1  0  0  0  0
 32 33  1  0  0  0  0
 33 34  1  0  0  0  0
 33 37  1  1  0  0  0
 34 39  1  1  0  0  0
 35 36  1  0  0  0  0
 37 38  1  0  0  0  0
 39 40  1  0  0  0  0
M  END
>  <minimizedAffinity>
-5.6243453

$$$$
