
 OpenBabel03252502563D

 40 42  0  0  1  0  0  0  0  0999 V2000
   45.5910   29.9380   44.7010 Br  0  0  0  0  0  0  0  0  0  0  0  0
   45.6590   30.5310   46.5400 C   0  0  0  0  0  0  0  0  0  0  0  0
   46.3510   31.6920   46.7610 C   0  0  0  0  0  0  0  0  0  0  0  0
   46.3860   32.0980   48.0950 C   0  0  0  0  0  0  0  0  0  0  0  0
   45.7730   31.3910   49.1230 C   0  0  0  0  0  0  0  0  0  0  0  0
   45.1030   30.2390   48.8060 C   0  0  0  0  0  0  0  0  0  0  0  0
   45.0360   29.7900   47.5090 C   0  0  0  0  0  0  0  0  0  0  0  0
   46.9060   33.0020   48.3750 H   0  0  0  0  0  0  0  0  0  0  0  0
   45.8300   31.7520   50.1490 H   0  0  0  0  0  0  0  0  0  0  0  0
   44.6160   29.6720   49.6030 H   0  0  0  0  0  0  0  0  0  0  0  0
   47.0380   32.5280   45.7750 C   0  0  0  0  0  0  0  0  0  0  0  0
   47.2960   31.8620   44.9110 H   0  0  0  0  0  0  0  0  0  0  0  0
   48.0080   32.9050   46.1610 H   0  0  0  0  0  0  0  0  0  0  0  0
   44.5370   35.2890   45.4620 C   0  0  0  0  0  0  0  0  0  0  0  0
   44.7560   35.6970   44.1400 C   0  0  0  0  0  0  0  0  0  0  0  0
   45.7240   35.0480   43.3940 C   0  0  0  0  0  0  0  0  0  0  0  0
   46.4150   34.0490   43.9690 N   0  0  0  0  0  0  0  0  0  0  0  0
   46.2020   33.6510   45.2550 C   0  0  0  0  0  0  0  0  0  0  0  0
   45.2530   34.2980   45.9660 N   0  0  0  0  0  0  0  0  0  0  0  0
   43.8250   35.6860   46.1760 H   0  0  0  0  0  0  0  0  0  0  0  0
   44.1330   36.5040   43.8160 H   0  0  0  0  0  0  0  0  0  0  0  0
   45.8740   35.3810   42.3800 H   0  0  0  0  0  0  0  0  0  0  0  0
   44.3460   28.6110   47.2010 O   0  0  0  0  0  0  0  0  0  0  0  0
   44.1460   26.0410   46.8160 O   0  0  0  0  0  0  0  0  0  0  0  0
   44.8960   27.0670   47.6550 P   0  0  2  0  0  0  0  0  0  0  0  0
   44.5600   26.8640   49.2880 O   0  0  0  0  0  0  0  0  0  0  0  0
   44.1590   25.9720   49.4750 H   0  0  0  0  0  0  0  0  0  0  0  0
   46.5510   26.8670   47.3580 O   0  0  0  0  0  0  0  0  0  0  0  0
   48.6820   26.2380   48.2700 C   0  0  2  0  0  3  0  0  0  0  0  0
   47.1750   26.1700   48.3890 C   0  0  2  0  0  3  0  0  0  0  0  0
   46.7760   24.8390   48.4090 O   0  0  0  0  0  0  0  0  0  0  0  0
   47.3300   24.0780   47.3900 C   0  0  0  0  0  2  0  0  0  0  0  0
   48.8200   23.9540   47.4630 C   0  0  1  0  0  3  0  0  0  0  0  0
   49.2890   24.8810   48.5820 C   0  0  2  0  0  3  0  0  0  0  0  0
   49.2510   27.1400   49.1860 O   0  0  0  0  0  0  0  0  0  0  0  0
   50.2150   26.9130   49.2000 H   0  0  0  0  0  0  0  0  0  0  0  0
   49.2550   22.6810   47.7570 O   0  0  0  0  0  0  0  0  0  0  0  0
   50.1970   22.7720   48.0540 H   0  0  0  0  0  0  0  0  0  0  0  0
   48.8410   24.4770   49.8320 O   0  0  0  0  0  0  0  0  0  0  0  0
   48.5760   23.5290   49.8820 H   0  0  0  0  0  0  0  0  0  0  0  0
  1  2  1  0  0  0  0
  2  3  2  0  0  0  0
  2  7  1  0  0  0  0
  3  4  1  0  0  0  0
  4  8  1  0  0  0  0
  4  5  2  0  0  0  0
  5  9  1  0  0  0  0
  6  5  1  0  0  0  0
  6 10  1  0  0  0  0
  7  6  2  0  0  0  0
 11 13  1  0  0  0  0
 11  3  1  0  0  0  0
 12 11  1  0  0  0  0
 14 19  1  0  0  0  0
 14 20  1  0  0  0  0
 15 14  2  0  0  0  0
 16 17  2  0  0  0  0
 16 15  1  0  0  0  0
 17 18  1  0  0  0  0
 18 11  1  0  0  0  0
 18 19  2  0  0  0  0
 21 15  1  0  0  0  0
 22 16  1  0  0  0  0
 23  7  1  0  0  0  0
 23 25  1  0  0  0  0
 25 24  2  6  0  0  0
 25 26  1  0  0  0  0
 26 27  1  0  0  0  0
 28 25  1  0  0  0  0
 29 30  1  0  0  0  0
 29 34  1  0  0  0  0
 29 35  1  1  0  0  0
 30 28  1  6  0  0  0
 30 31  1  0  0  0  0
 32 33  1  0  0  0  0
 32 31  1  0  0  0  0
 33 37  1  1  0  0  0
 33 34  1  0  0  0  0
 34 39  1  1  0  0  0
 35 36  1  0  0  0  0
 37 38  1  0  0  0  0
 39 40  1  0  0  0  0
M  END
>  <minimizedAffinity>
-5.45680571

>  <minimizedRMSD>
0.989821136

$$$$
