
 OpenBabel03242522503D

 29 30  0  0  1  0  0  0  0  0999 V2000
   47.9910   32.1590   48.7400 O   0  0  0  0  0  0  0  0  0  0  0  0
   46.5590   29.9700   48.6520 O   0  0  0  0  0  0  0  0  0  0  0  0
   46.4700   31.5130   48.6820 P   0  0  1  0  0  0  0  0  0  0  0  0
   45.5760   31.8880   50.0550 O   0  0  0  0  0  0  0  0  0  0  0  0
   44.7070   32.3240   49.8650 H   0  0  0  0  0  0  0  0  0  0  0  0
   45.6610   32.0250   47.2940 O   0  0  0  0  0  0  0  0  0  0  0  0
   47.6420   31.2350   44.3530 C   0  0  0  0  0  0  0  0  0  0  0  0
   46.9450   31.1000   45.5660 C   0  0  0  0  0  0  0  0  0  0  0  0
   46.3310   32.2070   46.1030 C   0  0  0  0  0  0  0  0  0  0  0  0
   46.4310   33.3740   45.4270 N   0  0  0  0  0  0  0  0  0  0  0  0
   47.0930   33.5080   44.2730 C   0  0  0  0  0  0  0  0  0  0  0  0
   47.7050   32.4220   43.7310 N   0  0  0  0  0  0  0  0  0  0  0  0
   48.1560   30.4260   43.8500 H   0  0  0  0  0  0  0  0  0  0  0  0
   46.9880   30.1040   45.9220 H   0  0  0  0  0  0  0  0  0  0  0  0
   47.1530   34.4480   43.7630 H   0  0  0  0  0  0  0  0  0  0  0  0
   49.1790   31.6330   49.1220 C   0  0  0  0  0  0  0  0  0  0  0  0
   50.0060   32.5160   49.5410 O   0  0  0  0  0  0  0  0  0  0  0  0
   49.7210   29.3820   49.9970 C   0  0  2  0  0  3  0  0  0  0  0  0
   50.2570   30.6670   49.4070 C   0  0  2  0  0  3  0  0  0  0  0  0
   51.2610   31.2250   50.1880 O   0  0  0  0  0  0  0  0  0  0  0  0
   51.1820   30.9360   51.5290 C   0  0  0  0  0  2  0  0  0  0  0  0
   51.1830   29.4850   51.8880 C   0  0  2  0  0  3  0  0  0  0  0  0
   50.9410   28.7020   50.6090 C   0  0  1  0  0  3  0  0  0  0  0  0
   49.1850   28.5660   48.9730 O   0  0  0  0  0  0  0  0  0  0  0  0
   49.8800   27.9150   48.6930 H   0  0  0  0  0  0  0  0  0  0  0  0
   50.0710   29.1890   52.7070 O   0  0  0  0  0  0  0  0  0  0  0  0
   49.9930   29.8070   53.4640 H   0  0  0  0  0  0  0  0  0  0  0  0
   50.7270   27.3580   50.8670 O   0  0  0  0  0  0  0  0  0  0  0  0
   49.8520   27.0690   50.5480 H   0  0  0  0  0  0  0  0  0  0  0  0
  1 16  1  0  0  0  0
  3  2  2  6  0  0  0
  3  1  1  0  0  0  0
  3  4  1  0  0  0  0
  5  4  1  0  0  0  0
  6  3  1  0  0  0  0
  7  8  1  0  0  0  0
  8 14  1  0  0  0  0
  8  9  2  0  0  0  0
  9  6  1  0  0  0  0
 10  9  1  0  0  0  0
 11 10  2  0  0  0  0
 12 11  1  0  0  0  0
 12  7  2  0  0  0  0
 13  7  1  0  0  0  0
 15 11  1  0  0  0  0
 16 17  2  0  0  0  0
 18 24  1  6  0  0  0
 18 23  1  0  0  0  0
 19 16  1  1  0  0  0
 19 18  1  0  0  0  0
 19 20  1  0  0  0  0
 20 21  1  0  0  0  0
 21 22  1  0  0  0  0
 22 26  1  1  0  0  0
 23 28  1  1  0  0  0
 23 22  1  0  0  0  0
 25 24  1  0  0  0  0
 26 27  1  0  0  0  0
 29 28  1  0  0  0  0
M  END
>  <minimizedAffinity>
-4.98029041

>  <minimizedRMSD>
1.67420316

$$$$
