
 OpenBabel03252509023D

 48 50  0  0  1  0  0  0  0  0999 V2000
   36.7210   25.6510   40.2070 N   0  0  0  0  0  0  0  0  0  0  0  0
   36.8420   24.4270   39.4990 C   0  0  0  0  0  0  0  0  0  0  0  0
   38.0760   23.6140   39.8230 C   0  0  0  0  0  0  0  0  0  0  0  0
   38.5510   23.7400   41.2410 C   0  0  0  0  0  0  0  0  0  0  0  0
   37.6110   24.5830   42.0700 C   0  0  0  0  0  0  0  0  0  0  0  0
   37.5510   25.9380   41.2790 C   0  0  2  0  0  0  0  0  0  0  0  0
   36.7880   24.4930   38.4090 H   0  0  0  0  0  0  0  0  0  0  0  0
   35.9630   23.7840   39.7970 H   0  0  0  0  0  0  0  0  0  0  0  0
   38.8760   23.8570   39.0820 H   0  0  0  0  0  0  0  0  0  0  0  0
   37.8560   22.5330   39.6300 H   0  0  0  0  0  0  0  0  0  0  0  0
   38.7540   22.7500   41.7150 H   0  0  0  0  0  0  0  0  0  0  0  0
   39.5240   24.2760   41.2250 H   0  0  0  0  0  0  0  0  0  0  0  0
   36.6080   24.1690   42.1820 H   0  0  0  0  0  0  0  0  0  0  0  0
   38.1400   24.8280   43.0030 H   0  0  0  0  0  0  0  0  0  0  0  0
   38.6050   26.2040   41.0860 H   0  0  0  0  0  0  0  0  0  0  0  0
   36.2000   26.7340   39.4250 C   0  0  0  0  0  0  0  0  0  0  0  0
   35.2560   26.4110   38.9680 H   0  0  0  0  0  0  0  0  0  0  0  0
   35.9790   27.5730   40.1320 H   0  0  0  0  0  0  0  0  0  0  0  0
   37.2560   27.1910   38.4670 C   0  0  0  0  0  0  0  0  0  0  0  0
   37.7400   26.3220   37.9750 H   0  0  0  0  0  0  0  0  0  0  0  0
   38.0550   27.7670   38.9330 H   0  0  0  0  0  0  0  0  0  0  0  0
   34.6420   28.6260   36.1830 C   0  0  0  0  0  0  0  0  0  0  0  0
   35.2570   27.8850   37.2100 C   0  0  0  0  0  0  0  0  0  0  0  0
   36.6190   27.9780   37.3780 C   0  0  0  0  0  0  0  0  0  0  0  0
   37.2960   28.7800   36.5420 N   0  0  0  0  0  0  0  0  0  0  0  0
   36.6970   29.4800   35.5660 C   0  0  0  0  0  0  0  0  0  0  0  0
   35.3770   29.4140   35.3750 N   0  0  0  0  0  0  0  0  0  0  0  0
   33.5790   28.4950   36.1230 H   0  0  0  0  0  0  0  0  0  0  0  0
   34.6780   27.2490   37.8670 H   0  0  0  0  0  0  0  0  0  0  0  0
   37.3820   30.0840   34.9730 H   0  0  0  0  0  0  0  0  0  0  0  0
   36.9290   26.7740   42.2010 O   0  0  0  0  0  0  0  0  0  0  0  0
   39.0810   27.6470   43.4910 O   0  0  0  0  0  0  0  0  0  0  0  0
   37.8940   28.0820   42.6420 P   0  0  2  0  0  0  0  0  0  0  0  0
   36.9340   29.0470   43.6800 O   0  0  0  0  0  0  0  0  0  0  0  0
   37.0410   28.7390   44.6150 H   0  0  0  0  0  0  0  0  0  0  0  0
   38.3480   29.0270   41.3510 O   0  0  0  0  0  0  0  0  0  0  0  0
   36.8210   30.5690   40.4700 C   0  0  2  0  0  3  0  0  0  0  0  0
   37.9810   30.3540   41.4430 C   0  0  2  0  0  3  0  0  0  0  0  0
   39.0780   31.1370   41.0900 O   0  0  0  0  0  0  0  0  0  0  0  0
   38.7030   32.4570   40.8550 C   0  0  0  0  0  2  0  0  0  0  0  0
   37.8490   32.6080   39.6210 C   0  0  1  0  0  3  0  0  0  0  0  0
   37.3820   31.2120   39.2240 C   0  0  1  0  0  3  0  0  0  0  0  0
   35.8810   31.3970   41.1060 O   0  0  0  0  0  0  0  0  0  0  0  0
   36.1320   31.5530   42.0690 H   0  0  0  0  0  0  0  0  0  0  0  0
   36.7160   33.4000   39.8860 O   0  0  0  0  0  0  0  0  0  0  0  0
   36.0730   33.1700   39.1650 H   0  0  0  0  0  0  0  0  0  0  0  0
   38.5500   30.5170   38.8800 O   0  0  0  0  0  0  0  0  0  0  0  0
   38.4360   29.9880   38.0500 H   0  0  0  0  0  0  0  0  0  0  0  0
  1  6  1  0  0  0  0
  2  8  1  0  0  0  0
  2  3  1  0  0  0  0
  2  1  1  0  0  0  0
  3  4  1  0  0  0  0
  4 11  1  0  0  0  0
  4  5  1  0  0  0  0
  5 13  1  0  0  0  0
  5 14  1  0  0  0  0
  6 15  1  6  0  0  0
  6  5  1  0  0  0  0
  6 31  1  0  0  0  0
  7  2  1  0  0  0  0
  9  3  1  0  0  0  0
 10  3  1  0  0  0  0
 12  4  1  0  0  0  0
 16 18  1  0  0  0  0
 16  1  1  0  0  0  0
 17 16  1  0  0  0  0
 19 21  1  0  0  0  0
 19 16  1  0  0  0  0
 20 19  1  0  0  0  0
 22 23  1  0  0  0  0
 23 24  2  0  0  0  0
 23 29  1  0  0  0  0
 24 19  1  0  0  0  0
 25 24  1  0  0  0  0
 26 25  2  0  0  0  0
 27 26  1  0  0  0  0
 27 22  2  0  0  0  0
 28 22  1  0  0  0  0
 30 26  1  0  0  0  0
 31 33  1  0  0  0  0
 33 32  2  1  0  0  0
 33 34  1  0  0  0  0
 34 35  1  0  0  0  0
 36 33  1  0  0  0  0
 37 43  1  1  0  0  0
 37 38  1  0  0  0  0
 38 36  1  6  0  0  0
 39 38  1  0  0  0  0
 40 39  1  0  0  0  0
 41 45  1  1  0  0  0
 41 40  1  0  0  0  0
 42 47  1  1  0  0  0
 42 41  1  0  0  0  0
 42 37  1  0  0  0  0
 43 44  1  0  0  0  0
 46 45  1  0  0  0  0
 48 47  1  0  0  0  0
M  END
>  <minimizedAffinity>
-5.99196386

$$$$

 OpenBabel03252509023D

 48 50  0  0  1  0  0  0  0  0999 V2000
   37.9820   26.9870   42.6250 N   0  0  0  0  0  0  0  0  0  0  0  0
   39.2100   26.5760   43.2050 C   0  0  0  0  0  0  0  0  0  0  0  0
   40.4030   27.4460   42.8750 C   0  0  0  0  0  0  0  0  0  0  0  0
   40.0810   28.9000   42.6880 C   0  0  0  0  0  0  0  0  0  0  0  0
   38.6290   29.1910   42.9830 C   0  0  0  0  0  0  0  0  0  0  0  0
   37.8640   28.2240   42.0110 C   0  0  2  0  0  0  0  0  0  0  0  0
   39.5130   25.5440   43.0120 H   0  0  0  0  0  0  0  0  0  0  0  0
   39.0850   26.6390   44.3250 H   0  0  0  0  0  0  0  0  0  0  0  0
   40.9370   27.0110   41.9950 H   0  0  0  0  0  0  0  0  0  0  0  0
   41.1500   27.3640   43.7050 H   0  0  0  0  0  0  0  0  0  0  0  0
   40.7670   29.5680   43.2630 H   0  0  0  0  0  0  0  0  0  0  0  0
   40.2410   29.1470   41.6180 H   0  0  0  0  0  0  0  0  0  0  0  0
   38.3270   29.0010   44.0140 H   0  0  0  0  0  0  0  0  0  0  0  0
   38.4200   30.1990   42.5950 H   0  0  0  0  0  0  0  0  0  0  0  0
   38.3330   28.3800   41.0230 H   0  0  0  0  0  0  0  0  0  0  0  0
   37.1550   25.9070   42.1720 C   0  0  0  0  0  0  0  0  0  0  0  0
   37.4950   24.9820   42.6540 H   0  0  0  0  0  0  0  0  0  0  0  0
   36.1130   26.1230   42.5210 H   0  0  0  0  0  0  0  0  0  0  0  0
   37.1560   25.8910   40.6750 C   0  0  0  0  0  0  0  0  0  0  0  0
   37.7890   26.7100   40.2750 H   0  0  0  0  0  0  0  0  0  0  0  0
   36.1690   26.0180   40.2310 H   0  0  0  0  0  0  0  0  0  0  0  0
   37.9020   22.2300   40.2860 C   0  0  0  0  0  0  0  0  0  0  0  0
   37.3240   23.4360   40.7260 C   0  0  0  0  0  0  0  0  0  0  0  0
   37.7760   24.6240   40.2020 C   0  0  0  0  0  0  0  0  0  0  0  0
   38.7570   24.5700   39.2880 N   0  0  0  0  0  0  0  0  0  0  0  0
   39.3000   23.4130   38.8780 C   0  0  0  0  0  0  0  0  0  0  0  0
   38.8850   22.2410   39.3650 N   0  0  0  0  0  0  0  0  0  0  0  0
   37.4910   21.3520   40.7450 H   0  0  0  0  0  0  0  0  0  0  0  0
   36.5340   23.4420   41.4650 H   0  0  0  0  0  0  0  0  0  0  0  0
   40.0850   23.5340   38.1330 H   0  0  0  0  0  0  0  0  0  0  0  0
   36.5650   28.7150   42.0900 O   0  0  0  0  0  0  0  0  0  0  0  0
   36.0780   31.1740   41.2100 O   0  0  0  0  0  0  0  0  0  0  0  0
   36.1690   29.7110   40.7920 P   0  0  2  0  0  0  0  0  0  0  0  0
   34.5770   29.2790   40.3340 O   0  0  0  0  0  0  0  0  0  0  0  0
   33.9240   29.8120   40.8550 H   0  0  0  0  0  0  0  0  0  0  0  0
   37.1530   29.4880   39.4700 O   0  0  0  0  0  0  0  0  0  0  0  0
   38.1810   30.2810   37.5200 C   0  0  2  0  0  3  0  0  0  0  0  0
   37.6310   30.6490   38.8990 C   0  0  2  0  0  3  0  0  0  0  0  0
   38.6400   31.1560   39.7160 O   0  0  0  0  0  0  0  0  0  0  0  0
   39.3790   32.1380   39.0600 C   0  0  0  0  0  2  0  0  0  0  0  0
   40.1990   31.5830   37.9220 C   0  0  1  0  0  3  0  0  0  0  0  0
   39.6830   30.1780   37.6380 C   0  0  1  0  0  3  0  0  0  0  0  0
   37.7960   31.2930   36.6250 O   0  0  0  0  0  0  0  0  0  0  0  0
   37.1680   31.9440   37.0660 H   0  0  0  0  0  0  0  0  0  0  0  0
   40.0400   32.3620   36.7610 O   0  0  0  0  0  0  0  0  0  0  0  0
   40.3170   31.7650   36.0170 H   0  0  0  0  0  0  0  0  0  0  0  0
   39.9660   29.4400   38.7960 O   0  0  0  0  0  0  0  0  0  0  0  0
   40.3400   28.5480   38.5850 H   0  0  0  0  0  0  0  0  0  0  0  0
  1  2  1  0  0  0  0
  2  8  1  0  0  0  0
  3  2  1  0  0  0  0
  3 10  1  0  0  0  0
  4  3  1  0  0  0  0
  4  5  1  0  0  0  0
  4 11  1  0  0  0  0
  5 13  1  0  0  0  0
  6 15  1  6  0  0  0
  6 31  1  0  0  0  0
  6  1  1  0  0  0  0
  6  5  1  0  0  0  0
  7  2  1  0  0  0  0
  9  3  1  0  0  0  0
 12  4  1  0  0  0  0
 14  5  1  0  0  0  0
 16 18  1  0  0  0  0
 16  1  1  0  0  0  0
 16 17  1  0  0  0  0
 19 16  1  0  0  0  0
 20 19  1  0  0  0  0
 21 19  1  0  0  0  0
 22 23  1  0  0  0  0
 22 28  1  0  0  0  0
 23 29  1  0  0  0  0
 24 19  1  0  0  0  0
 24 23  2  0  0  0  0
 25 24  1  0  0  0  0
 26 25  2  0  0  0  0
 26 27  1  0  0  0  0
 27 22  2  0  0  0  0
 30 26  1  0  0  0  0
 33 32  2  1  0  0  0
 33 31  1  0  0  0  0
 34 33  1  0  0  0  0
 34 35  1  0  0  0  0
 36 33  1  0  0  0  0
 37 43  1  6  0  0  0
 37 42  1  0  0  0  0
 37 38  1  0  0  0  0
 38 36  1  1  0  0  0
 38 39  1  0  0  0  0
 40 39  1  0  0  0  0
 41 45  1  6  0  0  0
 41 40  1  0  0  0  0
 42 41  1  0  0  0  0
 42 47  1  1  0  0  0
 43 44  1  0  0  0  0
 46 45  1  0  0  0  0
 48 47  1  0  0  0  0
M  END
>  <minimizedAffinity>
-5.95330667

$$$$

 OpenBabel03252509023D

 48 50  0  0  1  0  0  0  0  0999 V2000
   37.7900   27.5800   41.0720 N   0  0  0  0  0  0  0  0  0  0  0  0
   38.0200   26.9340   42.3150 C   0  0  0  0  0  0  0  0  0  0  0  0
   38.7580   27.7630   43.3450 C   0  0  0  0  0  0  0  0  0  0  0  0
   38.4810   29.2350   43.2750 C   0  0  0  0  0  0  0  0  0  0  0  0
   37.4260   29.5550   42.2430 C   0  0  0  0  0  0  0  0  0  0  0  0
   38.0150   28.9390   40.9240 C   0  0  2  0  0  0  0  0  0  0  0  0
   38.5280   25.9670   42.2700 H   0  0  0  0  0  0  0  0  0  0  0  0
   37.0100   26.7140   42.7660 H   0  0  0  0  0  0  0  0  0  0  0  0
   39.8490   27.5300   43.2830 H   0  0  0  0  0  0  0  0  0  0  0  0
   38.4700   27.4070   44.3670 H   0  0  0  0  0  0  0  0  0  0  0  0
   38.2360   29.6730   44.2730 H   0  0  0  0  0  0  0  0  0  0  0  0
   39.4120   29.7390   42.9410 H   0  0  0  0  0  0  0  0  0  0  0  0
   36.4430   29.1280   42.4490 H   0  0  0  0  0  0  0  0  0  0  0  0
   37.4560   30.6420   42.0810 H   0  0  0  0  0  0  0  0  0  0  0  0
   39.0540   29.3090   40.8740 H   0  0  0  0  0  0  0  0  0  0  0  0
   37.9340   26.7250   39.9300 C   0  0  0  0  0  0  0  0  0  0  0  0
   38.3080   27.3250   39.0910 H   0  0  0  0  0  0  0  0  0  0  0  0
   38.7090   25.9590   40.1890 H   0  0  0  0  0  0  0  0  0  0  0  0
   36.6370   26.0180   39.6880 C   0  0  0  0  0  0  0  0  0  0  0  0
   36.2410   26.2610   38.6800 H   0  0  0  0  0  0  0  0  0  0  0  0
   35.8520   26.2780   40.3990 H   0  0  0  0  0  0  0  0  0  0  0  0
   36.1600   22.3420   39.0840 C   0  0  0  0  0  0  0  0  0  0  0  0
   35.9490   23.7330   39.0850 C   0  0  0  0  0  0  0  0  0  0  0  0
   36.8720   24.5500   39.6940 C   0  0  0  0  0  0  0  0  0  0  0  0
   37.9390   23.9680   40.2640 N   0  0  0  0  0  0  0  0  0  0  0  0
   38.1280   22.6390   40.2560 C   0  0  0  0  0  0  0  0  0  0  0  0
   37.2520   21.8170   39.6720 N   0  0  0  0  0  0  0  0  0  0  0  0
   35.3930   21.7810   38.5870 H   0  0  0  0  0  0  0  0  0  0  0  0
   35.0760   24.1690   38.6150 H   0  0  0  0  0  0  0  0  0  0  0  0
   39.0400   22.3210   40.7580 H   0  0  0  0  0  0  0  0  0  0  0  0
   37.1820   29.4950   39.9580 O   0  0  0  0  0  0  0  0  0  0  0  0
   36.7440   32.0730   40.4260 O   0  0  0  0  0  0  0  0  0  0  0  0
   37.5760   31.0940   39.6070 P   0  0  2  0  0  0  0  0  0  0  0  0
   37.0980   31.3520   37.9830 O   0  0  0  0  0  0  0  0  0  0  0  0
   36.1530   31.6490   37.9570 H   0  0  0  0  0  0  0  0  0  0  0  0
   39.2070   31.4050   39.7090 O   0  0  0  0  0  0  0  0  0  0  0  0
   40.4580   31.8280   37.7740 C   0  0  2  0  0  3  0  0  0  0  0  0
   39.6510   32.4450   38.9170 C   0  0  2  0  0  3  0  0  0  0  0  0
   40.4510   33.2770   39.6960 O   0  0  0  0  0  0  0  0  0  0  0  0
   41.1830   34.1610   38.9070 C   0  0  0  0  0  2  0  0  0  0  0  0
   42.2350   33.4650   38.0790 C   0  0  1  0  0  3  0  0  0  0  0  0
   41.9210   31.9740   38.1150 C   0  0  1  0  0  3  0  0  0  0  0  0
   40.1250   32.5200   36.5970 O   0  0  0  0  0  0  0  0  0  0  0  0
   39.3680   33.1630   36.7600 H   0  0  0  0  0  0  0  0  0  0  0  0
   42.1920   33.9000   36.7420 O   0  0  0  0  0  0  0  0  0  0  0  0
   42.6490   33.1830   36.2290 H   0  0  0  0  0  0  0  0  0  0  0  0
   42.0810   31.5960   39.4560 O   0  0  0  0  0  0  0  0  0  0  0  0
   42.5770   30.7430   39.5430 H   0  0  0  0  0  0  0  0  0  0  0  0
  1  2  1  0  0  0  0
  2  8  1  0  0  0  0
  2  3  1  0  0  0  0
  3 10  1  0  0  0  0
  4  3  1  0  0  0  0
  4 11  1  0  0  0  0
  5 13  1  0  0  0  0
  5  4  1  0  0  0  0
  6 15  1  6  0  0  0
  6  1  1  0  0  0  0
  6  5  1  0  0  0  0
  7  2  1  0  0  0  0
  9  3  1  0  0  0  0
 12  4  1  0  0  0  0
 14  5  1  0  0  0  0
 16 18  1  0  0  0  0
 16  1  1  0  0  0  0
 17 16  1  0  0  0  0
 19 24  1  0  0  0  0
 19 16  1  0  0  0  0
 19 21  1  0  0  0  0
 20 19  1  0  0  0  0
 22 23  2  0  0  0  0
 22 27  1  0  0  0  0
 23 24  1  0  0  0  0
 24 25  2  0  0  0  0
 26 25  1  0  0  0  0
 26 30  1  0  0  0  0
 27 26  2  0  0  0  0
 28 22  1  0  0  0  0
 29 23  1  0  0  0  0
 31  6  1  0  0  0  0
 33 36  1  0  0  0  0
 33 31  1  0  0  0  0
 33 32  2  1  0  0  0
 34 33  1  0  0  0  0
 35 34  1  0  0  0  0
 37 43  1  6  0  0  0
 37 42  1  0  0  0  0
 37 38  1  0  0  0  0
 38 39  1  0  0  0  0
 38 36  1  1  0  0  0
 40 39  1  0  0  0  0
 41 45  1  6  0  0  0
 41 42  1  0  0  0  0
 41 40  1  0  0  0  0
 42 47  1  1  0  0  0
 43 44  1  0  0  0  0
 46 45  1  0  0  0  0
 47 48  1  0  0  0  0
M  END
>  <minimizedAffinity>
-5.85711479

$$$$

 OpenBabel03252509023D

 48 50  0  0  1  0  0  0  0  0999 V2000
   37.8910   28.3220   41.6380 N   0  0  0  0  0  0  0  0  0  0  0  0
   37.8590   26.9160   41.4510 C   0  0  0  0  0  0  0  0  0  0  0  0
   39.0320   26.3410   40.6870 C   0  0  0  0  0  0  0  0  0  0  0  0
   40.3280   27.0670   40.8940 C   0  0  0  0  0  0  0  0  0  0  0  0
   40.1930   28.1660   41.9220 C   0  0  0  0  0  0  0  0  0  0  0  0
   39.0320   29.0540   41.3480 C   0  0  2  0  0  0  0  0  0  0  0  0
   36.9560   26.5110   40.9900 H   0  0  0  0  0  0  0  0  0  0  0  0
   37.9010   26.4440   42.4760 H   0  0  0  0  0  0  0  0  0  0  0  0
   38.7560   26.2590   39.6070 H   0  0  0  0  0  0  0  0  0  0  0  0
   39.1810   25.2760   41.0020 H   0  0  0  0  0  0  0  0  0  0  0  0
   41.1740   26.3770   41.1280 H   0  0  0  0  0  0  0  0  0  0  0  0
   40.5950   27.5630   39.9370 H   0  0  0  0  0  0  0  0  0  0  0  0
   39.9400   27.8200   42.9250 H   0  0  0  0  0  0  0  0  0  0  0  0
   41.0920   28.7930   41.8390 H   0  0  0  0  0  0  0  0  0  0  0  0
   39.3020   29.2310   40.2920 H   0  0  0  0  0  0  0  0  0  0  0  0
   36.6120   28.9590   41.5220 C   0  0  0  0  0  0  0  0  0  0  0  0
   35.9570   28.5730   42.3140 H   0  0  0  0  0  0  0  0  0  0  0  0
   36.7720   30.0530   41.7000 H   0  0  0  0  0  0  0  0  0  0  0  0
   36.1060   28.7790   40.1240 C   0  0  0  0  0  0  0  0  0  0  0  0
   34.9980   28.8310   40.0990 H   0  0  0  0  0  0  0  0  0  0  0  0
   36.3810   27.8250   39.6750 H   0  0  0  0  0  0  0  0  0  0  0  0
   37.4410   30.6960   37.1830 C   0  0  0  0  0  0  0  0  0  0  0  0
   36.9820   29.6390   37.9910 C   0  0  0  0  0  0  0  0  0  0  0  0
   36.5900   29.9050   39.2820 C   0  0  0  0  0  0  0  0  0  0  0  0
   36.6680   31.1760   39.7070 N   0  0  0  0  0  0  0  0  0  0  0  0
   37.1090   32.1740   38.9260 C   0  0  0  0  0  0  0  0  0  0  0  0
   37.4970   31.9510   37.6680 N   0  0  0  0  0  0  0  0  0  0  0  0
   37.7260   30.4000   36.1920 H   0  0  0  0  0  0  0  0  0  0  0  0
   36.9320   28.6250   37.6140 H   0  0  0  0  0  0  0  0  0  0  0  0
   37.1130   33.1470   39.4150 H   0  0  0  0  0  0  0  0  0  0  0  0
   39.1280   30.1910   42.1430 O   0  0  0  0  0  0  0  0  0  0  0  0
   41.4520   31.4560   42.3890 O   0  0  0  0  0  0  0  0  0  0  0  0
   40.2060   31.3250   41.5210 P   0  0  2  0  0  0  0  0  0  0  0  0
   39.4180   32.8400   41.6420 O   0  0  0  0  0  0  0  0  0  0  0  0
   39.6070   33.2450   42.5260 H   0  0  0  0  0  0  0  0  0  0  0  0
   40.5730   31.0720   39.9190 O   0  0  0  0  0  0  0  0  0  0  0  0
   41.1930   31.7990   37.7800 C   0  0  2  0  0  3  0  0  0  0  0  0
   40.6870   32.2190   39.1610 C   0  0  2  0  0  3  0  0  0  0  0  0
   41.5980   33.0670   39.7870 O   0  0  0  0  0  0  0  0  0  0  0  0
   42.0030   34.0930   38.9360 C   0  0  0  0  0  2  0  0  0  0  0  0
   42.8380   33.5950   37.7820 C   0  0  1  0  0  3  0  0  0  0  0  0
   42.6760   32.0810   37.7300 C   0  0  1  0  0  3  0  0  0  0  0  0
   40.4880   32.5470   36.8230 O   0  0  0  0  0  0  0  0  0  0  0  0
   39.7540   33.0830   37.2550 H   0  0  0  0  0  0  0  0  0  0  0  0
   42.3870   34.1360   36.5640 O   0  0  0  0  0  0  0  0  0  0  0  0
   42.7430   33.5220   35.8690 H   0  0  0  0  0  0  0  0  0  0  0  0
   43.2360   31.6100   38.9270 O   0  0  0  0  0  0  0  0  0  0  0  0
   43.8070   30.8140   38.7800 H   0  0  0  0  0  0  0  0  0  0  0  0
  2  1  1  0  0  0  0
  2  8  1  0  0  0  0
  3  4  1  0  0  0  0
  3 10  1  0  0  0  0
  3  2  1  0  0  0  0
  4 11  1  0  0  0  0
  4  5  1  0  0  0  0
  5 13  1  0  0  0  0
  6 15  1  6  0  0  0
  6  1  1  0  0  0  0
  6  5  1  0  0  0  0
  6 31  1  0  0  0  0
  7  2  1  0  0  0  0
  9  3  1  0  0  0  0
 12  4  1  0  0  0  0
 14  5  1  0  0  0  0
 16  1  1  0  0  0  0
 16 18  1  0  0  0  0
 16 17  1  0  0  0  0
 19 16  1  0  0  0  0
 20 19  1  0  0  0  0
 21 19  1  0  0  0  0
 22 27  2  0  0  0  0
 22 23  1  0  0  0  0
 23 24  2  0  0  0  0
 24 25  1  0  0  0  0
 24 19  1  0  0  0  0
 26 30  1  0  0  0  0
 26 25  2  0  0  0  0
 27 26  1  0  0  0  0
 28 22  1  0  0  0  0
 29 23  1  0  0  0  0
 33 34  1  0  0  0  0
 33 31  1  0  0  0  0
 33 32  2  1  0  0  0
 34 35  1  0  0  0  0
 36 33  1  0  0  0  0
 37 43  1  6  0  0  0
 37 38  1  0  0  0  0
 38 39  1  0  0  0  0
 38 36  1  1  0  0  0
 40 39  1  0  0  0  0
 41 45  1  6  0  0  0
 41 40  1  0  0  0  0
 42 37  1  0  0  0  0
 42 41  1  0  0  0  0
 42 47  1  1  0  0  0
 43 44  1  0  0  0  0
 46 45  1  0  0  0  0
 48 47  1  0  0  0  0
M  END
>  <minimizedAffinity>
-5.77209759

$$$$

 OpenBabel03252509023D

 48 50  0  0  1  0  0  0  0  0999 V2000
   37.1390   25.8580   39.9660 N   0  0  0  0  0  0  0  0  0  0  0  0
   37.1440   24.5120   39.5170 C   0  0  0  0  0  0  0  0  0  0  0  0
   37.8620   23.5330   40.4210 C   0  0  0  0  0  0  0  0  0  0  0  0
   37.7860   23.8630   41.8820 C   0  0  0  0  0  0  0  0  0  0  0  0
   36.9040   25.0620   42.1380 C   0  0  0  0  0  0  0  0  0  0  0  0
   37.5530   26.1820   41.2480 C   0  0  2  0  0  0  0  0  0  0  0  0
   37.5240   24.3420   38.5070 H   0  0  0  0  0  0  0  0  0  0  0  0
   36.0690   24.1690   39.4870 H   0  0  0  0  0  0  0  0  0  0  0  0
   38.9140   23.4140   40.0630 H   0  0  0  0  0  0  0  0  0  0  0  0
   37.4170   22.5150   40.2760 H   0  0  0  0  0  0  0  0  0  0  0  0
   37.4910   22.9850   42.5050 H   0  0  0  0  0  0  0  0  0  0  0  0
   38.8070   24.1450   42.2180 H   0  0  0  0  0  0  0  0  0  0  0  0
   35.8580   24.9240   41.8610 H   0  0  0  0  0  0  0  0  0  0  0  0
   37.0930   25.3830   43.1720 H   0  0  0  0  0  0  0  0  0  0  0  0
   38.6310   26.1510   41.4890 H   0  0  0  0  0  0  0  0  0  0  0  0
   37.2990   26.8270   38.9210 C   0  0  0  0  0  0  0  0  0  0  0  0
   36.3040   27.1520   38.5930 H   0  0  0  0  0  0  0  0  0  0  0  0
   37.8280   27.7070   39.3680 H   0  0  0  0  0  0  0  0  0  0  0  0
   38.1720   26.2460   37.8520 C   0  0  0  0  0  0  0  0  0  0  0  0
   37.7350   26.4270   36.8480 H   0  0  0  0  0  0  0  0  0  0  0  0
   38.3170   25.1690   37.9370 H   0  0  0  0  0  0  0  0  0  0  0  0
   41.5990   27.3810   36.8140 C   0  0  0  0  0  0  0  0  0  0  0  0
   40.3530   26.7250   36.8180 C   0  0  0  0  0  0  0  0  0  0  0  0
   39.4850   26.9450   37.8610 C   0  0  0  0  0  0  0  0  0  0  0  0
   39.8780   27.7830   38.8330 N   0  0  0  0  0  0  0  0  0  0  0  0
   41.0690   28.4010   38.8170 C   0  0  0  0  0  0  0  0  0  0  0  0
   41.9360   28.2110   37.8200 N   0  0  0  0  0  0  0  0  0  0  0  0
   42.2130   27.1530   35.9650 H   0  0  0  0  0  0  0  0  0  0  0  0
   40.0690   26.0550   36.0160 H   0  0  0  0  0  0  0  0  0  0  0  0
   41.2410   29.0490   39.6750 H   0  0  0  0  0  0  0  0  0  0  0  0
   36.9130   27.3230   41.7220 O   0  0  0  0  0  0  0  0  0  0  0  0
   38.9620   27.6360   43.3840 O   0  0  0  0  0  0  0  0  0  0  0  0
   37.9680   28.3790   42.5010 P   0  0  2  0  0  0  0  0  0  0  0  0
   37.0050   29.2910   43.5840 O   0  0  0  0  0  0  0  0  0  0  0  0
   36.9430   28.8190   44.4540 H   0  0  0  0  0  0  0  0  0  0  0  0
   38.7120   29.4470   41.4660 O   0  0  0  0  0  0  0  0  0  0  0  0
   37.0720   30.8150   40.5030 C   0  0  2  0  0  3  0  0  0  0  0  0
   38.2210   30.7360   41.5080 C   0  0  2  0  0  3  0  0  0  0  0  0
   39.2500   31.6070   41.1560 O   0  0  0  0  0  0  0  0  0  0  0  0
   38.7620   32.8800   40.8710 C   0  0  0  0  0  2  0  0  0  0  0  0
   37.9280   32.9140   39.6140 C   0  0  1  0  0  3  0  0  0  0  0  0
   37.6030   31.4710   39.2510 C   0  0  1  0  0  3  0  0  0  0  0  0
   36.0440   31.5700   41.0910 O   0  0  0  0  0  0  0  0  0  0  0  0
   36.2540   31.7760   42.0540 H   0  0  0  0  0  0  0  0  0  0  0  0
   36.7220   33.6050   39.8280 O   0  0  0  0  0  0  0  0  0  0  0  0
   36.1210   33.2960   39.1000 H   0  0  0  0  0  0  0  0  0  0  0  0
   38.8380   30.8770   38.9550 O   0  0  0  0  0  0  0  0  0  0  0  0
   38.7940   30.3160   38.1400 H   0  0  0  0  0  0  0  0  0  0  0  0
  1  6  1  0  0  0  0
  2  1  1  0  0  0  0
  2  3  1  0  0  0  0
  3  4  1  0  0  0  0
  4  5  1  0  0  0  0
  4 12  1  0  0  0  0
  4 11  1  0  0  0  0
  5 14  1  0  0  0  0
  6 15  1  1  0  0  0
  6 31  1  0  0  0  0
  6  5  1  0  0  0  0
  7  2  1  0  0  0  0
  8  2  1  0  0  0  0
  9  3  1  0  0  0  0
 10  3  1  0  0  0  0
 13  5  1  0  0  0  0
 16 18  1  0  0  0  0
 16  1  1  0  0  0  0
 17 16  1  0  0  0  0
 19 24  1  0  0  0  0
 19 21  1  0  0  0  0
 19 16  1  0  0  0  0
 20 19  1  0  0  0  0
 22 23  2  0  0  0  0
 22 27  1  0  0  0  0
 23 24  1  0  0  0  0
 24 25  2  0  0  0  0
 26 25  1  0  0  0  0
 26 30  1  0  0  0  0
 27 26  2  0  0  0  0
 28 22  1  0  0  0  0
 29 23  1  0  0  0  0
 31 33  1  0  0  0  0
 33 32  2  1  0  0  0
 33 34  1  0  0  0  0
 34 35  1  0  0  0  0
 36 33  1  0  0  0  0
 37 43  1  1  0  0  0
 37 38  1  0  0  0  0
 38 36  1  6  0  0  0
 39 38  1  0  0  0  0
 40 39  1  0  0  0  0
 41 45  1  1  0  0  0
 41 40  1  0  0  0  0
 42 47  1  1  0  0  0
 42 41  1  0  0  0  0
 42 37  1  0  0  0  0
 43 44  1  0  0  0  0
 46 45  1  0  0  0  0
 48 47  1  0  0  0  0
M  END
>  <minimizedAffinity>
-5.68431425

$$$$

 OpenBabel03252509023D

 48 50  0  0  1  0  0  0  0  0999 V2000
   36.4010   29.2670   39.3190 N   0  0  0  0  0  0  0  0  0  0  0  0
   35.2030   28.5210   39.1720 C   0  0  0  0  0  0  0  0  0  0  0  0
   34.3870   28.8470   37.9400 C   0  0  0  0  0  0  0  0  0  0  0  0
   35.1980   29.2560   36.7460 C   0  0  0  0  0  0  0  0  0  0  0  0
   36.6800   29.1450   37.0140 C   0  0  0  0  0  0  0  0  0  0  0  0
   36.8850   30.0490   38.2820 C   0  0  2  0  0  0  0  0  0  0  0  0
   34.5130   28.5440   40.0190 H   0  0  0  0  0  0  0  0  0  0  0  0
   35.4990   27.4360   39.0650 H   0  0  0  0  0  0  0  0  0  0  0  0
   33.6110   29.6050   38.2090 H   0  0  0  0  0  0  0  0  0  0  0  0
   33.7880   27.9450   37.6550 H   0  0  0  0  0  0  0  0  0  0  0  0
   34.8990   28.7120   35.8180 H   0  0  0  0  0  0  0  0  0  0  0  0
   34.9930   30.3290   36.5490 H   0  0  0  0  0  0  0  0  0  0  0  0
   37.0310   28.1320   37.2170 H   0  0  0  0  0  0  0  0  0  0  0  0
   37.1930   29.6820   36.2030 H   0  0  0  0  0  0  0  0  0  0  0  0
   36.3740   30.9980   38.0430 H   0  0  0  0  0  0  0  0  0  0  0  0
   36.6930   29.6490   40.6700 C   0  0  0  0  0  0  0  0  0  0  0  0
   37.6620   30.1650   40.6830 H   0  0  0  0  0  0  0  0  0  0  0  0
   35.9020   30.3770   40.9840 H   0  0  0  0  0  0  0  0  0  0  0  0
   36.5960   28.4400   41.5470 C   0  0  0  0  0  0  0  0  0  0  0  0
   36.3610   27.5380   40.9460 H   0  0  0  0  0  0  0  0  0  0  0  0
   35.8220   28.5110   42.3130 H   0  0  0  0  0  0  0  0  0  0  0  0
   40.2150   28.8110   42.4800 C   0  0  0  0  0  0  0  0  0  0  0  0
   38.9570   29.0420   41.8920 C   0  0  0  0  0  0  0  0  0  0  0  0
   37.9200   28.1840   42.1740 C   0  0  0  0  0  0  0  0  0  0  0  0
   38.1670   27.1590   43.0040 N   0  0  0  0  0  0  0  0  0  0  0  0
   39.3720   26.9500   43.5570 C   0  0  0  0  0  0  0  0  0  0  0  0
   40.4010   27.7630   43.3060 N   0  0  0  0  0  0  0  0  0  0  0  0
   40.9660   29.5270   42.2070 H   0  0  0  0  0  0  0  0  0  0  0  0
   38.7940   29.8800   41.2270 H   0  0  0  0  0  0  0  0  0  0  0  0
   39.4130   26.0780   44.2070 H   0  0  0  0  0  0  0  0  0  0  0  0
   38.2700   30.1620   38.3270 O   0  0  0  0  0  0  0  0  0  0  0  0
   37.6570   32.6980   38.8260 O   0  0  0  0  0  0  0  0  0  0  0  0
   38.7860   31.7620   38.4140 P   0  0  2  0  0  0  0  0  0  0  0  0
   39.1810   32.2170   36.8110 O   0  0  0  0  0  0  0  0  0  0  0  0
   38.3750   32.5730   36.3570 H   0  0  0  0  0  0  0  0  0  0  0  0
   40.1490   31.9620   39.3450 O   0  0  0  0  0  0  0  0  0  0  0  0
   41.7430   32.5150   37.7200 C   0  0  2  0  0  3  0  0  0  0  0  0
   40.9760   32.9950   38.9530 C   0  0  2  0  0  3  0  0  0  0  0  0
   41.8480   33.2800   40.0010 O   0  0  0  0  0  0  0  0  0  0  0  0
   42.9050   34.0820   39.5770 C   0  0  0  0  0  2  0  0  0  0  0  0
   43.8360   33.3640   38.6310 C   0  0  1  0  0  3  0  0  0  0  0  0
   43.1220   32.0990   38.1720 C   0  0  1  0  0  3  0  0  0  0  0  0
   41.7940   33.5830   36.8090 O   0  0  0  0  0  0  0  0  0  0  0  0
   41.2280   34.3530   37.1250 H   0  0  0  0  0  0  0  0  0  0  0  0
   44.1150   34.1560   37.5020 O   0  0  0  0  0  0  0  0  0  0  0  0
   44.4280   33.5120   36.8140 H   0  0  0  0  0  0  0  0  0  0  0  0
   42.9700   31.3210   39.3290 O   0  0  0  0  0  0  0  0  0  0  0  0
   43.1920   30.3690   39.1670 H   0  0  0  0  0  0  0  0  0  0  0  0
  1 16  1  0  0  0  0
  2  1  1  0  0  0  0
  2  7  1  0  0  0  0
  3  9  1  0  0  0  0
  3  2  1  0  0  0  0
  4  5  1  0  0  0  0
  4  3  1  0  0  0  0
  5 13  1  0  0  0  0
  5  6  1  0  0  0  0
  6 15  1  6  0  0  0
  6 31  1  0  0  0  0
  6  1  1  0  0  0  0
  8  2  1  0  0  0  0
 10  3  1  0  0  0  0
 11  4  1  0  0  0  0
 12  4  1  0  0  0  0
 14  5  1  0  0  0  0
 16 17  1  0  0  0  0
 16 18  1  0  0  0  0
 16 19  1  0  0  0  0
 19 24  1  0  0  0  0
 19 21  1  0  0  0  0
 20 19  1  0  0  0  0
 22 27  1  0  0  0  0
 23 24  1  0  0  0  0
 23 22  2  0  0  0  0
 24 25  2  0  0  0  0
 25 26  1  0  0  0  0
 26 30  1  0  0  0  0
 27 26  2  0  0  0  0
 28 22  1  0  0  0  0
 29 23  1  0  0  0  0
 31 33  1  0  0  0  0
 33 32  2  1  0  0  0
 33 36  1  0  0  0  0
 34 33  1  0  0  0  0
 35 34  1  0  0  0  0
 37 43  1  6  0  0  0
 37 42  1  0  0  0  0
 37 38  1  0  0  0  0
 38 36  1  1  0  0  0
 38 39  1  0  0  0  0
 40 39  1  0  0  0  0
 41 45  1  6  0  0  0
 41 40  1  0  0  0  0
 42 41  1  0  0  0  0
 42 47  1  1  0  0  0
 43 44  1  0  0  0  0
 46 45  1  0  0  0  0
 48 47  1  0  0  0  0
M  END
>  <minimizedAffinity>
-5.65873671

$$$$

 OpenBabel03252509023D

 48 50  0  0  1  0  0  0  0  0999 V2000
   36.9320   30.0230   38.7150 N   0  0  0  0  0  0  0  0  0  0  0  0
   35.8020   29.3330   38.2050 C   0  0  0  0  0  0  0  0  0  0  0  0
   35.7190   29.2590   36.6960 C   0  0  0  0  0  0  0  0  0  0  0  0
   37.0470   29.1940   36.0010 C   0  0  0  0  0  0  0  0  0  0  0  0
   38.1880   29.1070   36.9860 C   0  0  0  0  0  0  0  0  0  0  0  0
   37.9840   30.3790   37.8860 C   0  0  2  0  0  0  0  0  0  0  0  0
   34.8260   29.6790   38.5550 H   0  0  0  0  0  0  0  0  0  0  0  0
   35.8790   28.2640   38.5600 H   0  0  0  0  0  0  0  0  0  0  0  0
   35.0840   30.1010   36.3250 H   0  0  0  0  0  0  0  0  0  0  0  0
   35.1380   28.3450   36.4100 H   0  0  0  0  0  0  0  0  0  0  0  0
   37.0920   28.3810   35.2360 H   0  0  0  0  0  0  0  0  0  0  0  0
   37.1840   30.1440   35.4430 H   0  0  0  0  0  0  0  0  0  0  0  0
   38.1880   28.2080   37.6040 H   0  0  0  0  0  0  0  0  0  0  0  0
   39.1120   29.3080   36.4250 H   0  0  0  0  0  0  0  0  0  0  0  0
   37.8480   31.2130   37.1750 H   0  0  0  0  0  0  0  0  0  0  0  0
   36.6570   30.8290   39.8680 C   0  0  0  0  0  0  0  0  0  0  0  0
   37.6040   31.2420   40.2380 H   0  0  0  0  0  0  0  0  0  0  0  0
   36.0100   31.6780   39.5300 H   0  0  0  0  0  0  0  0  0  0  0  0
   35.8820   30.0130   40.8560 C   0  0  0  0  0  0  0  0  0  0  0  0
   35.2910   29.2290   40.3380 H   0  0  0  0  0  0  0  0  0  0  0  0
   35.1740   30.5920   41.4490 H   0  0  0  0  0  0  0  0  0  0  0  0
   37.4020   27.3250   42.9940 C   0  0  0  0  0  0  0  0  0  0  0  0
   36.5120   28.0180   42.1530 C   0  0  0  0  0  0  0  0  0  0  0  0
   36.8310   29.2920   41.7450 C   0  0  0  0  0  0  0  0  0  0  0  0
   37.9900   29.8130   42.1780 N   0  0  0  0  0  0  0  0  0  0  0  0
   38.8300   29.1410   42.9810 C   0  0  0  0  0  0  0  0  0  0  0  0
   38.5510   27.9020   43.3960 N   0  0  0  0  0  0  0  0  0  0  0  0
   37.0750   26.3390   43.2630 H   0  0  0  0  0  0  0  0  0  0  0  0
   35.5850   27.5660   41.8220 H   0  0  0  0  0  0  0  0  0  0  0  0
   39.7270   29.6970   43.2450 H   0  0  0  0  0  0  0  0  0  0  0  0
   39.1890   30.4300   38.5780 O   0  0  0  0  0  0  0  0  0  0  0  0
   39.3640   33.0070   39.2020 O   0  0  0  0  0  0  0  0  0  0  0  0
   39.9920   31.8960   38.3700 P   0  0  2  0  0  0  0  0  0  0  0  0
   39.7240   32.3530   36.7420 O   0  0  0  0  0  0  0  0  0  0  0  0
   38.8870   32.8800   36.6770 H   0  0  0  0  0  0  0  0  0  0  0  0
   41.6350   31.7820   38.5980 O   0  0  0  0  0  0  0  0  0  0  0  0
   43.7320   30.7850   38.2820 C   0  0  2  0  0  3  0  0  0  0  0  0
   42.2380   30.7170   37.9600 C   0  0  2  0  0  3  0  0  0  0  0  0
   42.0190   30.8480   36.5900 O   0  0  0  0  0  0  0  0  0  0  0  0
   42.8500   30.0010   35.8610 C   0  0  0  0  0  2  0  0  0  0  0  0
   44.3030   30.3970   35.9470 C   0  0  1  0  0  3  0  0  0  0  0  0
   44.4300   31.3960   37.0910 C   0  0  1  0  0  3  0  0  0  0  0  0
   44.1730   29.4750   38.5300 O   0  0  0  0  0  0  0  0  0  0  0  0
   43.3980   28.8320   38.5510 H   0  0  0  0  0  0  0  0  0  0  0  0
   45.1130   29.2830   36.2330 O   0  0  0  0  0  0  0  0  0  0  0  0
   45.9530   29.6680   36.5960 H   0  0  0  0  0  0  0  0  0  0  0  0
   43.6820   32.5120   36.6900 O   0  0  0  0  0  0  0  0  0  0  0  0
   44.1570   33.3620   36.8750 H   0  0  0  0  0  0  0  0  0  0  0  0
  1 16  1  0  0  0  0
  2  7  1  0  0  0  0
  2  8  1  0  0  0  0
  2  1  1  0  0  0  0
  3  2  1  0  0  0  0
  4  3  1  0  0  0  0
  4  5  1  0  0  0  0
  5 13  1  0  0  0  0
  5  6  1  0  0  0  0
  6 15  1  6  0  0  0
  6 31  1  0  0  0  0
  6  1  1  0  0  0  0
  9  3  1  0  0  0  0
 10  3  1  0  0  0  0
 11  4  1  0  0  0  0
 12  4  1  0  0  0  0
 14  5  1  0  0  0  0
 16 17  1  0  0  0  0
 16 19  1  0  0  0  0
 18 16  1  0  0  0  0
 19 21  1  0  0  0  0
 19 24  1  0  0  0  0
 20 19  1  0  0  0  0
 22 28  1  0  0  0  0
 22 27  1  0  0  0  0
 23 22  2  0  0  0  0
 24 23  1  0  0  0  0
 24 25  2  0  0  0  0
 25 26  1  0  0  0  0
 26 30  1  0  0  0  0
 26 27  2  0  0  0  0
 29 23  1  0  0  0  0
 33 31  1  0  0  0  0
 33 36  1  0  0  0  0
 33 32  2  1  0  0  0
 34 33  1  0  0  0  0
 35 34  1  0  0  0  0
 37 43  1  6  0  0  0
 38 37  1  0  0  0  0
 38 36  1  1  0  0  0
 39 38  1  0  0  0  0
 40 41  1  0  0  0  0
 40 39  1  0  0  0  0
 41 45  1  1  0  0  0
 41 42  1  0  0  0  0
 42 47  1  6  0  0  0
 42 37  1  0  0  0  0
 43 44  1  0  0  0  0
 45 46  1  0  0  0  0
 47 48  1  0  0  0  0
M  END
>  <minimizedAffinity>
-5.65745878

$$$$

 OpenBabel03252509023D

 48 50  0  0  1  0  0  0  0  0999 V2000
   36.9300   28.1520   41.0050 N   0  0  0  0  0  0  0  0  0  0  0  0
   37.0660   26.8690   41.5980 C   0  0  0  0  0  0  0  0  0  0  0  0
   38.2400   26.7150   42.5400 C   0  0  0  0  0  0  0  0  0  0  0  0
   38.6020   27.9600   43.2940 C   0  0  0  0  0  0  0  0  0  0  0  0
   37.6290   29.0810   43.0190 C   0  0  0  0  0  0  0  0  0  0  0  0
   37.6800   29.2270   41.4560 C   0  0  2  0  0  0  0  0  0  0  0  0
   37.1030   26.0210   40.9100 H   0  0  0  0  0  0  0  0  0  0  0  0
   36.1440   26.6960   42.2260 H   0  0  0  0  0  0  0  0  0  0  0  0
   39.1060   26.2910   41.9740 H   0  0  0  0  0  0  0  0  0  0  0  0
   37.9990   25.9180   43.2890 H   0  0  0  0  0  0  0  0  0  0  0  0
   38.7310   27.7770   44.3880 H   0  0  0  0  0  0  0  0  0  0  0  0
   39.5910   28.3040   42.9240 H   0  0  0  0  0  0  0  0  0  0  0  0
   36.6050   28.8850   43.3430 H   0  0  0  0  0  0  0  0  0  0  0  0
   38.0880   30.0050   43.4000 H   0  0  0  0  0  0  0  0  0  0  0  0
   38.7550   29.2730   41.2070 H   0  0  0  0  0  0  0  0  0  0  0  0
   36.5130   28.1240   39.6340 C   0  0  0  0  0  0  0  0  0  0  0  0
   35.6150   28.7460   39.5310 H   0  0  0  0  0  0  0  0  0  0  0  0
   37.3340   28.5890   39.0310 H   0  0  0  0  0  0  0  0  0  0  0  0
   36.3610   26.6990   39.2030 C   0  0  0  0  0  0  0  0  0  0  0  0
   35.6970   26.1470   39.9000 H   0  0  0  0  0  0  0  0  0  0  0  0
   37.3000   26.1450   39.1660 H   0  0  0  0  0  0  0  0  0  0  0  0
   35.6710   25.9330   35.5900 C   0  0  0  0  0  0  0  0  0  0  0  0
   36.2980   25.9790   36.8500 C   0  0  0  0  0  0  0  0  0  0  0  0
   35.6880   26.6590   37.8770 C   0  0  0  0  0  0  0  0  0  0  0  0
   34.5120   27.2520   37.6190 N   0  0  0  0  0  0  0  0  0  0  0  0
   33.9250   27.2020   36.4130 C   0  0  0  0  0  0  0  0  0  0  0  0
   34.4890   26.5490   35.3940 N   0  0  0  0  0  0  0  0  0  0  0  0
   36.2150   25.3820   34.8480 H   0  0  0  0  0  0  0  0  0  0  0  0
   37.2470   25.4870   37.0220 H   0  0  0  0  0  0  0  0  0  0  0  0
   32.9750   27.7310   36.3630 H   0  0  0  0  0  0  0  0  0  0  0  0
   37.0150   30.4330   41.2630 O   0  0  0  0  0  0  0  0  0  0  0  0
   39.1570   31.9840   41.5160 O   0  0  0  0  0  0  0  0  0  0  0  0
   38.0050   31.6170   40.5890 P   0  0  2  0  0  0  0  0  0  0  0  0
   37.0450   33.0310   40.4880 O   0  0  0  0  0  0  0  0  0  0  0  0
   37.1190   33.5460   41.3320 H   0  0  0  0  0  0  0  0  0  0  0  0
   38.5190   31.2450   39.0520 O   0  0  0  0  0  0  0  0  0  0  0  0
   40.6080   32.2900   38.8700 C   0  0  2  0  0  3  0  0  0  0  0  0
   39.8640   30.9560   38.9430 C   0  0  2  0  0  3  0  0  0  0  0  0
   40.0590   30.2140   37.7800 O   0  0  0  0  0  0  0  0  0  0  0  0
   41.4070   30.1540   37.4370 C   0  0  0  0  0  2  0  0  0  0  0  0
   41.9560   31.4910   37.0060 C   0  0  1  0  0  3  0  0  0  0  0  0
   40.9410   32.5490   37.4200 C   0  0  1  0  0  3  0  0  0  0  0  0
   41.7640   32.1750   39.6580 O   0  0  0  0  0  0  0  0  0  0  0  0
   41.7700   31.3060   40.1650 H   0  0  0  0  0  0  0  0  0  0  0  0
   43.1770   31.7660   37.6500 O   0  0  0  0  0  0  0  0  0  0  0  0
   43.2820   32.7510   37.5820 H   0  0  0  0  0  0  0  0  0  0  0  0
   39.7910   32.2710   36.6660 O   0  0  0  0  0  0  0  0  0  0  0  0
   39.3900   33.0930   36.2870 H   0  0  0  0  0  0  0  0  0  0  0  0
  1  6  1  0  0  0  0
  1  2  1  0  0  0  0
  2  8  1  0  0  0  0
  2  3  1  0  0  0  0
  3 10  1  0  0  0  0
  3  4  1  0  0  0  0
  4 11  1  0  0  0  0
  5  4  1  0  0  0  0
  5 13  1  0  0  0  0
  5 14  1  0  0  0  0
  6 15  1  6  0  0  0
  6  5  1  0  0  0  0
  7  2  1  0  0  0  0
  9  3  1  0  0  0  0
 12  4  1  0  0  0  0
 16  1  1  0  0  0  0
 17 16  1  0  0  0  0
 18 16  1  0  0  0  0
 19 16  1  0  0  0  0
 19 20  1  0  0  0  0
 21 19  1  0  0  0  0
 22 23  1  0  0  0  0
 23 29  1  0  0  0  0
 23 24  2  0  0  0  0
 24 19  1  0  0  0  0
 25 24  1  0  0  0  0
 26 25  2  0  0  0  0
 27 22  2  0  0  0  0
 27 26  1  0  0  0  0
 28 22  1  0  0  0  0
 30 26  1  0  0  0  0
 31  6  1  0  0  0  0
 33 31  1  0  0  0  0
 33 32  2  1  0  0  0
 34 33  1  0  0  0  0
 34 35  1  0  0  0  0
 36 33  1  0  0  0  0
 37 38  1  0  0  0  0
 37 43  1  1  0  0  0
 38 36  1  6  0  0  0
 39 38  1  0  0  0  0
 40 39  1  0  0  0  0
 41 42  1  0  0  0  0
 41 40  1  0  0  0  0
 41 45  1  1  0  0  0
 42 47  1  6  0  0  0
 42 37  1  0  0  0  0
 43 44  1  0  0  0  0
 46 45  1  0  0  0  0
 48 47  1  0  0  0  0
M  END
>  <minimizedAffinity>
-5.57638884

$$$$

 OpenBabel03252509023D

 48 50  0  0  1  0  0  0  0  0999 V2000
   37.7080   25.9510   42.0450 N   0  0  0  0  0  0  0  0  0  0  0  0
   38.6450   25.0710   42.6470 C   0  0  0  0  0  0  0  0  0  0  0  0
   39.9070   25.7280   43.1620 C   0  0  0  0  0  0  0  0  0  0  0  0
   39.7200   27.1270   43.6690 C   0  0  0  0  0  0  0  0  0  0  0  0
   38.2660   27.5360   43.6510 C   0  0  0  0  0  0  0  0  0  0  0  0
   37.8510   27.3250   42.1510 C   0  0  2  0  0  0  0  0  0  0  0  0
   38.9600   24.2160   42.0440 H   0  0  0  0  0  0  0  0  0  0  0  0
   38.1420   24.6210   43.5520 H   0  0  0  0  0  0  0  0  0  0  0  0
   40.6980   25.6620   42.3740 H   0  0  0  0  0  0  0  0  0  0  0  0
   40.3190   25.1110   44.0010 H   0  0  0  0  0  0  0  0  0  0  0  0
   40.1870   27.2860   44.6710 H   0  0  0  0  0  0  0  0  0  0  0  0
   40.2480   27.8130   42.9740 H   0  0  0  0  0  0  0  0  0  0  0  0
   37.6200   26.9470   44.3050 H   0  0  0  0  0  0  0  0  0  0  0  0
   38.2380   28.6250   43.7980 H   0  0  0  0  0  0  0  0  0  0  0  0
   38.6380   27.8300   41.5630 H   0  0  0  0  0  0  0  0  0  0  0  0
   37.0520   25.4100   40.8900 C   0  0  0  0  0  0  0  0  0  0  0  0
   36.2300   26.0820   40.6110 H   0  0  0  0  0  0  0  0  0  0  0  0
   37.8010   25.4050   40.0590 H   0  0  0  0  0  0  0  0  0  0  0  0
   36.6570   23.9950   41.1760 C   0  0  0  0  0  0  0  0  0  0  0  0
   35.6830   23.9590   41.7070 H   0  0  0  0  0  0  0  0  0  0  0  0
   37.3690   23.4550   41.8010 H   0  0  0  0  0  0  0  0  0  0  0  0
   35.0320   22.7340   38.0330 C   0  0  0  0  0  0  0  0  0  0  0  0
   35.2400   23.4080   39.2510 C   0  0  0  0  0  0  0  0  0  0  0  0
   36.4510   23.2760   39.8910 C   0  0  0  0  0  0  0  0  0  0  0  0
   37.3800   22.5010   39.3110 N   0  0  0  0  0  0  0  0  0  0  0  0
   37.1680   21.8630   38.1500 C   0  0  0  0  0  0  0  0  0  0  0  0
   36.0050   21.9690   37.5020 N   0  0  0  0  0  0  0  0  0  0  0  0
   34.0620   22.8920   37.6040 H   0  0  0  0  0  0  0  0  0  0  0  0
   34.4670   24.0260   39.6900 H   0  0  0  0  0  0  0  0  0  0  0  0
   38.0180   21.2730   37.8090 H   0  0  0  0  0  0  0  0  0  0  0  0
   36.6230   27.9750   42.1050 O   0  0  0  0  0  0  0  0  0  0  0  0
   35.1720   29.6900   40.6860 O   0  0  0  0  0  0  0  0  0  0  0  0
   36.5930   29.2230   40.9750 P   0  0  2  0  0  0  0  0  0  0  0  0
   37.1450   28.5400   39.5050 O   0  0  0  0  0  0  0  0  0  0  0  0
   36.3790   28.1600   39.0050 H   0  0  0  0  0  0  0  0  0  0  0  0
   37.6100   30.4810   41.3600 O   0  0  0  0  0  0  0  0  0  0  0  0
   39.4500   31.1550   40.0770 C   0  0  2  0  0  3  0  0  0  0  0  0
   37.9450   31.3030   40.3030 C   0  0  2  0  0  3  0  0  0  0  0  0
   37.6210   32.6130   40.6490 O   0  0  0  0  0  0  0  0  0  0  0  0
   38.2090   33.5270   39.7780 C   0  0  0  0  0  2  0  0  0  0  0  0
   39.7120   33.5710   39.9100 C   0  0  1  0  0  3  0  0  0  0  0  0
   40.1280   32.3450   40.7130 C   0  0  1  0  0  3  0  0  0  0  0  0
   39.6680   31.1110   38.6900 O   0  0  0  0  0  0  0  0  0  0  0  0
   38.7960   31.0710   38.1890 H   0  0  0  0  0  0  0  0  0  0  0  0
   40.3310   33.5110   38.6480 O   0  0  0  0  0  0  0  0  0  0  0  0
   41.2580   33.2090   38.8360 H   0  0  0  0  0  0  0  0  0  0  0  0
   39.5600   32.5250   41.9820 O   0  0  0  0  0  0  0  0  0  0  0  0
   40.1960   32.3030   42.7080 H   0  0  0  0  0  0  0  0  0  0  0  0
  1  6  1  0  0  0  0
  1  2  1  0  0  0  0
  2  3  1  0  0  0  0
  2  8  1  0  0  0  0
  3  4  1  0  0  0  0
  3 10  1  0  0  0  0
  4 11  1  0  0  0  0
  5  4  1  0  0  0  0
  5 14  1  0  0  0  0
  5 13  1  0  0  0  0
  6 15  1  6  0  0  0
  6  5  1  0  0  0  0
  7  2  1  0  0  0  0
  9  3  1  0  0  0  0
 12  4  1  0  0  0  0
 16 19  1  0  0  0  0
 16  1  1  0  0  0  0
 17 16  1  0  0  0  0
 18 16  1  0  0  0  0
 19 20  1  0  0  0  0
 19 21  1  0  0  0  0
 22 23  1  0  0  0  0
 23 29  1  0  0  0  0
 23 24  2  0  0  0  0
 24 19  1  0  0  0  0
 25 24  1  0  0  0  0
 26 25  2  0  0  0  0
 27 22  2  0  0  0  0
 27 26  1  0  0  0  0
 28 22  1  0  0  0  0
 30 26  1  0  0  0  0
 31  6  1  0  0  0  0
 33 32  2  6  0  0  0
 33 36  1  0  0  0  0
 33 31  1  0  0  0  0
 34 33  1  0  0  0  0
 35 34  1  0  0  0  0
 37 43  1  6  0  0  0
 37 38  1  0  0  0  0
 37 42  1  0  0  0  0
 38 39  1  0  0  0  0
 38 36  1  1  0  0  0
 40 41  1  0  0  0  0
 40 39  1  0  0  0  0
 41 45  1  6  0  0  0
 41 42  1  0  0  0  0
 42 47  1  1  0  0  0
 44 43  1  0  0  0  0
 45 46  1  0  0  0  0
 47 48  1  0  0  0  0
M  END
>  <minimizedAffinity>
-5.49668169

$$$$
