REMARK  Name = 
REMARK  13 active torsions:
REMARK  status: ('A' for Active; 'I' for Inactive)
REMARK    1  A    between atoms: C_1  and  C_9
REMARK    2  A    between atoms: C_2  and  C_13
REMARK    3  A    between atoms: C_13  and  N_14
REMARK    4  A    between atoms: N_14  and  S_15
REMARK    5  A    between atoms: S_15  and  O_16
REMARK    6  A    between atoms: S_15  and  O_17
REMARK    7  A    between atoms: S_15  and  O_18
REMARK    8  A    between atoms: O_18  and  C_19
REMARK    9  A    between atoms: C_19  and  C_20
REMARK   10  A    between atoms: C_20  and  C_39
REMARK   11  A    between atoms: O_37  and  C_38
REMARK   12  A    between atoms: C_42  and  O_43
REMARK   13  A    between atoms: C_44  and  O_45
REMARK                            x       y       z     vdW  Elec       q    Type
REMARK                         _______ _______ _______ _____ _____    ______ ____
ROOT
ATOM      1  N   UNL     1      42.707  31.523  42.568  0.00  0.00    +0.000 NA
ATOM      2  H   UNL     1      42.893  31.891  43.541  0.00  0.00    +0.000 HD
ENDROOT
BRANCH   1   3
ATOM      3  C   UNL     1      43.045  32.548  41.636  0.00  0.00    +0.000 C 
ATOM      4  H   UNL     1      43.517  32.158  40.702  0.00  0.00    +0.000 HD
ATOM      5  H   UNL     1      42.077  33.028  41.324  0.00  0.00    +0.000 HD
BRANCH   3   7
ATOM      6  C   UNL     1      43.655  34.957  41.884  0.00  0.00    +0.000 A 
ATOM      7  C   UNL     1      43.904  33.633  42.184  0.00  0.00    +0.000 A 
ATOM      8  C   UNL     1      44.975  33.338  43.009  0.00  0.00    +0.000 A 
ATOM      9  C   UNL     1      45.761  34.338  43.509  0.00  0.00    +0.000 A 
ATOM     10  C   UNL     1      45.522  35.661  43.217  0.00  0.00    +0.000 A 
ATOM     11  C   UNL     1      44.446  35.912  42.392  0.00  0.00    +0.000 A 
ATOM     12  H   UNL     1      45.172  32.291  43.246  0.00  0.00    +0.000 HD
ATOM     13  H   UNL     1      46.578  34.020  44.145  0.00  0.00    +0.000 HD
ATOM     14  H   UNL     1      46.158  36.446  43.623  0.00  0.00    +0.000 HD
ATOM     15  H   UNL     1      44.202  36.939  42.121  0.00  0.00    +0.000 HD
BRANCH   6  18
ATOM     16  C   UNL     1      40.233  35.800  40.519  0.00  0.00    +0.000 A 
ATOM     17  C   UNL     1      41.262  35.581  41.452  0.00  0.00    +0.000 A 
ATOM     18  C   UNL     1      42.513  35.210  41.010  0.00  0.00    +0.000 A 
ATOM     19  N   UNL     1      42.681  35.073  39.663  0.00  0.00    +0.000 NA
ATOM     20  C   UNL     1      41.681  35.287  38.773  0.00  0.00    +0.000 A 
ATOM     21  N   UNL     1      40.468  35.648  39.215  0.00  0.00    +0.000 NA
ATOM     22  H   UNL     1      39.253  36.094  40.921  0.00  0.00    +0.000 HD
ATOM     23  H   UNL     1      41.145  35.685  42.514  0.00  0.00    +0.000 HD
ATOM     24  H   UNL     1      41.871  35.163  37.706  0.00  0.00    +0.000 HD
ENDBRANCH   6  18
ENDBRANCH   3   7
ENDBRANCH   1   3
BRANCH   1  25
ATOM     25  S   UNL     1      41.031  31.147  42.561  0.00  0.00    +0.000 S 
BRANCH  25  26
ATOM     26  O   UNL     1      40.202  32.394  42.445  0.00  0.00    +0.000 OA
ATOM     27  H   UNL     1      39.609  32.674  43.164  0.00  0.00    +0.000 HD
ENDBRANCH  25  26
BRANCH  25  28
ATOM     28  O   UNL     1      40.649  30.364  43.776  0.00  0.00    +0.000 OA
ATOM     29  H   UNL     1      40.747  30.748  44.670  0.00  0.00    +0.000 HD
ENDBRANCH  25  28
BRANCH  25  30
ATOM     30  O   UNL     1      40.763  30.191  41.206  0.00  0.00    +0.000 OA
BRANCH  30  31
ATOM     31  C   UNL     1      40.082  29.042  41.605  0.00  0.00    +0.000 C 
ATOM     32  H   UNL     1      39.160  29.015  40.988  0.00  0.00    +0.000 HD
ATOM     33  H   UNL     1      39.814  29.029  42.668  0.00  0.00    +0.000 HD
BRANCH  31  34
ATOM     34  C   UNL     1      40.915  27.831  41.209  0.00  0.00    +0.000 C 
ATOM     35  H   UNL     1      41.076  27.858  40.121  0.00  0.00    +0.000 HD
ATOM     36  H   UNL     1      41.887  27.836  41.763  0.00  0.00    +0.000 HD
BRANCH  34  38
ATOM     37  C   UNL     1      40.511  26.185  43.040  0.00  0.00    +0.000 C 
ATOM     38  C   UNL     1      40.158  26.602  41.656  0.00  0.00    +0.000 C 
ATOM     39  O   UNL     1      40.392  25.628  40.692  0.00  0.00    +0.000 OA
ATOM     40  C   UNL     1      40.008  24.363  41.061  0.00  0.00    +0.000 C 
ATOM     41  C   UNL     1      40.831  23.837  42.212  0.00  0.00    +0.000 C 
ATOM     42  C   UNL     1      41.304  24.905  43.136  0.00  0.00    +0.000 C 
BRANCH  37  43
ATOM     43  O   UNL     1      39.349  26.047  43.839  0.00  0.00    +0.000 OA
ATOM     44  H   UNL     1      38.584  26.495  43.427  0.00  0.00    +0.000 HD
ENDBRANCH  37  43
BRANCH  41  45
ATOM     45  O   UNL     1      40.144  22.860  42.934  0.00  0.00    +0.000 OA
ATOM     46  H   UNL     1      40.657  22.709  43.768  0.00  0.00    +0.000 HD
ENDBRANCH  41  45
BRANCH  42  47
ATOM     47  O   UNL     1      41.144  24.474  44.473  0.00  0.00    +0.000 OA
ATOM     48  H   UNL     1      41.398  25.289  45.013  0.00  0.00    +0.000 HD
ENDBRANCH  42  47
ENDBRANCH  34  38
ENDBRANCH  31  34
ENDBRANCH  30  31
ENDBRANCH  25  30
ENDBRANCH   1  25
TORSDOF 13
