REMARK  Name = 
REMARK  6 active torsions:
REMARK  status: ('A' for Active; 'I' for Inactive)
REMARK    1  A    between atoms: N_1  and  C_9
REMARK    2  A    between atoms: C_6  and  O_13
REMARK    3  A    between atoms: O_13  and  C_28
REMARK    4  A    between atoms: O_26  and  C_27
REMARK    5  A    between atoms: C_31  and  O_32
REMARK    6  A    between atoms: C_33  and  O_34
REMARK                            x       y       z     vdW  Elec       q    Type
REMARK                         _______ _______ _______ _____ _____    ______ ____
ROOT
ATOM      1  N   UNL     1      46.883  34.600  42.227  0.00  0.00    +0.000 N 
ATOM      2  C   UNL     1      48.325  34.752  42.257  0.00  0.00    +0.000 C 
ATOM      3  C   UNL     1      48.645  35.535  40.968  0.00  0.00    +0.000 C 
ATOM      4  C   UNL     1      48.357  34.636  39.788  0.00  0.00    +0.000 C 
ATOM      5  C   UNL     1      47.088  33.857  39.903  0.00  0.00    +0.000 C 
ATOM      6  C   UNL     1      46.189  34.255  41.034  0.00  0.00    +0.000 C 
ATOM      7  H   UNL     1      48.698  35.260  43.139  0.00  0.00    +0.000 HD
ATOM      8  H   UNL     1      48.760  33.745  42.076  0.00  0.00    +0.000 HD
ATOM      9  H   UNL     1      47.930  36.404  40.964  0.00  0.00    +0.000 HD
ATOM     10  H   UNL     1      49.687  35.856  40.924  0.00  0.00    +0.000 HD
ATOM     11  H   UNL     1      48.419  35.256  38.871  0.00  0.00    +0.000 HD
ATOM     12  H   UNL     1      49.222  33.920  39.736  0.00  0.00    +0.000 HD
ATOM     13  H   UNL     1      47.310  32.763  40.033  0.00  0.00    +0.000 HD
ATOM     14  H   UNL     1      46.562  33.933  38.929  0.00  0.00    +0.000 HD
ATOM     15  H   UNL     1      45.628  35.168  40.721  0.00  0.00    +0.000 HD
ENDROOT
BRANCH   1  18
ATOM     16  C   UNL     1      44.503  35.974  44.768  0.00  0.00    +0.000 A 
ATOM     17  C   UNL     1      45.219  35.881  43.562  0.00  0.00    +0.000 A 
ATOM     18  C   UNL     1      46.105  34.795  43.410  0.00  0.00    +0.000 A 
ATOM     19  N   UNL     1      46.202  33.918  44.439  0.00  0.00    +0.000 NA
ATOM     20  C   UNL     1      45.495  34.042  45.585  0.00  0.00    +0.000 A 
ATOM     21  N   UNL     1      44.635  35.091  45.740  0.00  0.00    +0.000 NA
ATOM     22  H   UNL     1      43.822  36.800  44.898  0.00  0.00    +0.000 HD
ATOM     23  H   UNL     1      45.127  36.590  42.755  0.00  0.00    +0.000 HD
ATOM     24  H   UNL     1      45.599  33.321  46.386  0.00  0.00    +0.000 HD
ENDBRANCH   1  18
BRANCH   6  25
ATOM     25  O   UNL     1      45.325  33.180  41.297  0.00  0.00    +0.000 OA
BRANCH  25  27
ATOM     26  C   UNL     1      43.310  32.770  40.006  0.00  0.00    +0.000 C 
ATOM     27  C   UNL     1      43.999  33.478  41.117  0.00  0.00    +0.000 C 
ATOM     28  O   UNL     1      43.215  33.446  42.247  0.00  0.00    +0.000 OA
ATOM     29  C   UNL     1      43.428  32.189  42.862  0.00  0.00    +0.000 C 
ATOM     30  C   UNL     1      43.144  31.087  41.877  0.00  0.00    +0.000 C 
ATOM     31  C   UNL     1      42.511  31.631  40.606  0.00  0.00    +0.000 C 
BRANCH  26  32
ATOM     32  O   UNL     1      44.175  32.200  39.080  0.00  0.00    +0.000 OA
ATOM     33  H   UNL     1      43.678  31.899  38.294  0.00  0.00    +0.000 HD
ENDBRANCH  26  32
BRANCH  30  34
ATOM     34  O   UNL     1      44.334  30.440  41.589  0.00  0.00    +0.000 OA
ATOM     35  H   UNL     1      44.165  29.687  40.944  0.00  0.00    +0.000 HD
ENDBRANCH  30  34
BRANCH  31  36
ATOM     36  O   UNL     1      42.428  30.605  39.670  0.00  0.00    +0.000 OA
ATOM     37  H   UNL     1      41.960  30.927  38.881  0.00  0.00    +0.000 HD
ENDBRANCH  31  36
ENDBRANCH  25  27
ENDBRANCH   6  25
TORSDOF 6
