
     RDKit          3D

 28 29  0  0  0  0  0  0  0  0999 V2000
   44.5179   36.0423   44.5413 C   0  0  0  0  0  0  0  0  0  0  0  0
   45.1765   36.0571   43.3099 C   0  0  0  0  0  0  0  0  0  0  0  0
   46.0801   35.0382   43.0144 C   0  0  0  0  0  0  0  0  0  0  0  0
   46.2768   34.0645   43.9586 N   0  0  0  0  0  0  0  0  0  0  0  0
   45.6274   34.0760   45.1377 C   0  0  0  0  0  0  0  0  0  0  0  0
   44.7467   35.0674   45.4280 N   0  0  0  0  0  0  0  0  0  0  0  0
   46.8016   34.9295   41.8330 O   0  0  0  0  0  0  0  0  0  0  0  0
   43.8223   36.8339   44.7592 H   0  0  0  0  0  0  0  0  0  0  0  0
   45.0331   36.8208   42.5494 H   0  0  0  0  0  0  0  0  0  0  0  0
   45.8932   33.2328   45.7797 H   0  0  0  0  0  0  0  0  0  0  0  0
   49.4841   34.7917   40.3165 O   0  0  0  0  0  0  0  0  0  0  0  0
   49.1209   34.3226   41.5813 C   0  0  1  0  0  0  0  0  0  0  0  0
   47.7076   33.8634   41.5963 C   0  0  1  0  0  0  0  0  0  0  0  0
   47.3714   32.8244   42.3936 O   0  0  0  0  0  0  0  0  0  0  0  0
   48.3681   32.2415   43.1375 C   0  0  0  0  0  0  0  0  0  0  0  0
   49.4880   31.9467   42.1525 C   0  0  2  0  0  0  0  0  0  0  0  0
   50.3424   30.9986   42.6386 O   0  0  0  0  0  0  0  0  0  0  0  0
   50.1443   33.3046   41.9762 C   0  0  1  0  0  0  0  0  0  0  0  0
   51.1427   33.1287   41.0114 O   0  0  0  0  0  0  0  0  0  0  0  0
   50.3023   35.3124   40.2878 H   0  0  0  0  0  0  0  0  0  0  0  0
   49.2179   35.1830   42.2766 H   0  0  0  0  0  0  0  0  0  0  0  0
   47.4627   33.5452   40.5405 H   0  0  0  0  0  0  0  0  0  0  0  0
   47.9843   31.3219   43.5974 H   0  0  0  0  0  0  0  0  0  0  0  0
   48.7287   32.9481   43.9314 H   0  0  0  0  0  0  0  0  0  0  0  0
   49.0610   31.6962   41.1465 H   0  0  0  0  0  0  0  0  0  0  0  0
   51.2769   31.2588   42.4602 H   0  0  0  0  0  0  0  0  0  0  0  0
   50.6736   33.5761   42.9183 H   0  0  0  0  0  0  0  0  0  0  0  0
   52.0208   33.5069   41.3114 H   0  0  0  0  0  0  0  0  0  0  0  0
  1  6  2  0
  2  1  1  0
  3  2  2  0
  3  4  1  0
  4  5  2  0
  5  6  1  0
  7  3  1  0
  1  8  1  0
  2  9  1  0
  5 10  1  0
 11 12  1  0
 12 13  1  0
 13 14  1  0
 14 15  1  0
 15 16  1  0
 16 17  1  0
 16 18  1  0
 18 19  1  0
 18 12  1  0
 11 20  1  0
 12 21  1  1
 13 22  1  6
 15 23  1  0
 15 24  1  0
 16 25  1  6
 17 26  1  0
 18 27  1  1
 19 28  1  0
  7 13  1  0
M  ISO  3   8  14   9  14  10  14
M  END
>  <DihAtoms>  (1) 
2,6,12,11

>  <DihDeg>  (1) 
114.2406486629493

$$$$
