
 OpenBabel03252503193D

 42 45  0  0  1  0  0  0  0  0999 V2000
   46.2000   34.0000   40.7250 C   0  0  0  0  0  0  0  0  0  0  0  0
   44.9760   33.3730   40.7160 C   0  0  0  0  0  0  0  0  0  0  0  0
   44.8800   32.7960   39.4870 N   0  0  0  0  0  0  0  0  0  0  0  0
   45.9980   33.0690   38.7950 C   0  0  0  0  0  0  0  0  0  0  0  0
   46.8210   33.8150   39.5590 N   0  0  0  0  0  0  0  0  0  0  0  0
   46.3720   32.6850   37.4900 N   0  0  0  0  0  0  0  0  0  0  0  0
   44.2610   33.3450   41.5010 H   0  0  0  0  0  0  0  0  0  0  0  0
   46.7190   31.7630   37.1030 H   0  0  0  0  0  0  0  0  0  0  0  0
   46.3430   33.3280   36.6910 H   0  0  0  0  0  0  0  0  0  0  0  0
   43.7910   32.0220   38.9570 C   0  0  0  0  0  0  0  0  0  0  0  0
   43.4100   31.3100   39.7500 H   0  0  0  0  0  0  0  0  0  0  0  0
   44.1990   31.3350   38.1680 H   0  0  0  0  0  0  0  0  0  0  0  0
   41.3810   32.0700   38.2910 C   0  0  1  0  0  0  0  0  0  0  0  0
   42.6740   32.7870   38.3480 C   0  0  1  0  0  0  0  0  0  0  0  0
   42.4880   33.9110   39.1860 O   0  0  0  0  0  0  0  0  0  0  0  0
   41.7900   34.8280   38.4160 C   0  0  0  0  0  0  0  0  0  0  0  0
   40.3720   34.3750   38.2940 C   0  0  2  0  0  0  0  0  0  0  0  0
   40.1980   32.9240   37.9540 C   0  0  2  0  0  0  0  0  0  0  0  0
   41.4460   31.0350   37.3520 O   0  0  0  0  0  0  0  0  0  0  0  0
   42.0900   31.2380   36.6180 H   0  0  0  0  0  0  0  0  0  0  0  0
   39.7940   35.1830   37.2870 O   0  0  0  0  0  0  0  0  0  0  0  0
   40.1050   36.1030   37.4840 H   0  0  0  0  0  0  0  0  0  0  0  0
   39.0680   32.4570   38.6390 O   0  0  0  0  0  0  0  0  0  0  0  0
   38.2330   32.6290   38.1290 H   0  0  0  0  0  0  0  0  0  0  0  0
   46.7990   34.7890   41.8560 C   0  0  0  0  0  0  0  0  0  0  0  0
   47.9460   35.3200   41.8360 O   0  0  0  0  0  0  0  0  0  0  0  0
   45.3790   36.1830   43.2760 C   0  0  0  0  0  0  0  0  0  0  0  0
   46.0620   34.9790   43.0510 C   0  0  0  0  0  0  0  0  0  0  0  0
   45.9410   34.0520   44.0760 C   0  0  0  0  0  0  0  0  0  0  0  0
   45.2380   34.2700   45.1850 N   0  0  0  0  0  0  0  0  0  0  0  0
   44.5910   35.4660   45.3490 C   0  0  0  0  0  0  0  0  0  0  0  0
   44.6700   36.4010   44.3970 N   0  0  0  0  0  0  0  0  0  0  0  0
   45.3960   36.9930   42.5470 H   0  0  0  0  0  0  0  0  0  0  0  0
   44.0230   35.6250   46.2600 H   0  0  0  0  0  0  0  0  0  0  0  0
   46.6080   32.7990   43.9280 C   0  0  0  0  0  0  0  0  0  0  0  0
   47.9020   32.4070   43.8310 C   0  0  0  0  0  0  0  0  0  0  0  0
   48.2580   31.1510   43.7000 C   0  0  0  0  0  0  0  0  0  0  0  0
   47.2410   30.2500   43.6650 C   0  0  0  0  0  0  0  0  0  0  0  0
   45.7240   31.2490   43.8280 S   0  0  0  0  0  0  0  0  0  0  0  0
   48.6300   33.2420   43.8720 H   0  0  0  0  0  0  0  0  0  0  0  0
   49.2630   30.7560   43.6160 H   0  0  0  0  0  0  0  0  0  0  0  0
   47.2490   29.1330   43.5620 H   0  0  0  0  0  0  0  0  0  0  0  0
  1 25  1  0  0  0  0
  2  1  2  0  0  0  0
  2  7  1  0  0  0  0
  3  2  1  0  0  0  0
  4  3  1  0  0  0  0
  4  5  2  0  0  0  0
  5  1  1  0  0  0  0
  6  4  1  0  0  0  0
  8  6  1  0  0  0  0
  9  6  1  0  0  0  0
 10  3  1  0  0  0  0
 10 11  1  0  0  0  0
 12 10  1  0  0  0  0
 13 19  1  6  0  0  0
 13 14  1  0  0  0  0
 14 10  1  1  0  0  0
 14 15  1  0  0  0  0
 16 15  1  0  0  0  0
 17 21  1  6  0  0  0
 17 16  1  0  0  0  0
 18 13  1  0  0  0  0
 18 17  1  0  0  0  0
 18 23  1  1  0  0  0
 20 19  1  0  0  0  0
 21 22  1  0  0  0  0
 24 23  1  0  0  0  0
 25 28  1  0  0  0  0
 26 25  2  0  0  0  0
 27 32  1  0  0  0  0
 28 27  2  0  0  0  0
 28 29  1  0  0  0  0
 29 30  2  0  0  0  0
 30 31  1  0  0  0  0
 31 34  1  0  0  0  0
 32 31  2  0  0  0  0
 33 27  1  0  0  0  0
 35 29  1  0  0  0  0
 36 40  1  0  0  0  0
 36 35  2  0  0  0  0
 37 36  1  0  0  0  0
 38 37  2  0  0  0  0
 38 39  1  0  0  0  0
 39 35  1  0  0  0  0
 41 37  1  0  0  0  0
 42 38  1  0  0  0  0
M  END
>  <minimizedAffinity>
-5.65617371

>  <minimizedRMSD>
1.34510577

$$$$
