
 OpenBabel03242521103D

 22 23  0  0  1  0  0  0  0  0999 V2000
   46.8250   32.2890   48.1860 C   0  0  1  0  0  0  0  0  0  0  0  0
   45.6790   32.0820   47.2440 C   0  0  2  0  0  0  0  0  0  0  0  0
   45.0410   30.9010   47.5500 O   0  0  0  0  0  0  0  0  0  0  0  0
   45.7900   29.7660   47.3410 C   0  0  0  0  0  0  0  0  0  0  0  0
   47.2710   29.9450   47.5150 C   0  0  1  0  0  0  0  0  0  0  0  0
   47.5780   31.0310   48.5290 C   0  0  2  0  0  0  0  0  0  0  0  0
   47.6590   33.3400   47.7830 O   0  0  0  0  0  0  0  0  0  0  0  0
   48.5530   33.2640   48.1790 H   0  0  0  0  0  0  0  0  0  0  0  0
   47.8150   28.7670   48.0170 O   0  0  0  0  0  0  0  0  0  0  0  0
   48.2430   28.2580   47.2850 H   0  0  0  0  0  0  0  0  0  0  0  0
   47.2680   30.5270   49.7850 O   0  0  0  0  0  0  0  0  0  0  0  0
   47.1670   29.5290   49.7860 H   0  0  0  0  0  0  0  0  0  0  0  0
   46.1580   32.1580   45.5000 S   0  0  0  0  0  0  0  0  0  0  0  0
   44.6110   35.8250   44.8920 C   0  0  0  0  0  0  0  0  0  0  0  0
   45.0580   36.0940   43.5740 C   0  0  0  0  0  0  0  0  0  0  0  0
   45.8310   35.1070   42.9250 C   0  0  0  0  0  0  0  0  0  0  0  0
   46.0970   33.9680   43.6020 N   0  0  0  0  0  0  0  0  0  0  0  0
   45.6540   33.7450   44.8580 C   0  0  0  0  0  0  0  0  0  0  0  0
   44.9220   34.6610   45.4930 N   0  0  0  0  0  0  0  0  0  0  0  0
   44.0140   36.5620   45.4210 H   0  0  0  0  0  0  0  0  0  0  0  0
   44.8060   37.0300   43.0910 H   0  0  0  0  0  0  0  0  0  0  0  0
   46.1800   35.2940   41.9180 H   0  0  0  0  0  0  0  0  0  0  0  0
  1  7  1  6  0  0  0
  1  6  1  0  0  0  0
  2 13  1  6  0  0  0
  2  3  1  0  0  0  0
  2  1  1  0  0  0  0
  4  5  1  0  0  0  0
  4  3  1  0  0  0  0
  5  9  1  1  0  0  0
  5  6  1  0  0  0  0
  6 11  1  1  0  0  0
  7  8  1  0  0  0  0
 10  9  1  0  0  0  0
 11 12  1  0  0  0  0
 14 20  1  0  0  0  0
 14 19  1  0  0  0  0
 15 14  2  0  0  0  0
 16 15  1  0  0  0  0
 16 17  2  0  0  0  0
 17 18  1  0  0  0  0
 18 19  2  0  0  0  0
 18 13  1  0  0  0  0
 21 15  1  0  0  0  0
 22 16  1  0  0  0  0
M  END
>  <minimizedAffinity>
-5.42008162

>  <minimizedRMSD>
1.69269407

$$$$
