
 OpenBabel03242517123D

 50 53  0  0  1  0  0  0  0  0999 V2000
   37.1480   26.6440   41.3570 C   0  0  2  0  0  0  0  0  0  0  0  0
   37.5420   28.0650   41.1490 C   0  0  2  0  0  0  0  0  0  0  0  0
   38.0780   28.7040   42.3760 C   0  0  0  0  0  0  0  0  0  0  0  0
   37.1980   28.5610   43.5900 C   0  0  0  0  0  0  0  0  0  0  0  0
   36.4690   27.2520   43.6650 C   0  0  0  0  0  0  0  0  0  0  0  0
   37.1210   26.1950   42.7920 C   0  0  0  0  0  0  0  0  0  0  0  0
   36.1010   26.4990   40.9510 H   0  0  0  0  0  0  0  0  0  0  0  0
   38.3420   28.0960   40.3840 H   0  0  0  0  0  0  0  0  0  0  0  0
   38.2480   29.7870   42.1980 H   0  0  0  0  0  0  0  0  0  0  0  0
   39.0770   28.2910   42.6450 H   0  0  0  0  0  0  0  0  0  0  0  0
   37.7480   28.8190   44.4970 H   0  0  0  0  0  0  0  0  0  0  0  0
   36.3980   29.3480   43.4660 H   0  0  0  0  0  0  0  0  0  0  0  0
   36.5760   26.8740   44.7190 H   0  0  0  0  0  0  0  0  0  0  0  0
   35.3960   27.3070   43.4190 H   0  0  0  0  0  0  0  0  0  0  0  0
   38.0690   25.9180   43.2370 H   0  0  0  0  0  0  0  0  0  0  0  0
   36.4600   25.2940   42.8600 H   0  0  0  0  0  0  0  0  0  0  0  0
   36.5920   30.3170   40.5030 C   0  0  1  0  0  0  0  0  0  0  0  0
   36.3750   28.8520   40.5930 C   0  0  1  0  0  0  0  0  0  0  0  0
   36.0930   28.3650   39.3220 O   0  0  0  0  0  0  0  0  0  0  0  0
   36.5420   29.2900   38.3970 C   0  0  0  0  0  0  0  0  0  0  0  0
   36.1290   30.5940   39.0640 C   0  0  2  0  0  0  0  0  0  0  0  0
   37.6440   30.6330   40.6210 H   0  0  0  0  0  0  0  0  0  0  0  0
   35.4880   28.5980   41.2430 H   0  0  0  0  0  0  0  0  0  0  0  0
   37.6450   29.2430   38.3730 H   0  0  0  0  0  0  0  0  0  0  0  0
   36.0640   29.1450   37.4310 H   0  0  0  0  0  0  0  0  0  0  0  0
   35.0430   30.7010   38.9910 H   0  0  0  0  0  0  0  0  0  0  0  0
   35.8050   31.0570   41.3570 O   0  0  0  0  0  0  0  0  0  0  0  0
   34.8600   30.7650   41.2220 H   0  0  0  0  0  0  0  0  0  0  0  0
   36.8260   31.6790   38.5540 O   0  0  0  0  0  0  0  0  0  0  0  0
   38.9840   31.3930   37.5210 C   0  0  2  0  0  3  0  0  0  0  0  0
   38.1790   31.6420   38.7720 C   0  0  1  0  0  3  0  0  0  0  0  0
   38.5520   32.8820   39.2970 O   0  0  0  0  0  0  0  0  0  0  0  0
   39.7820   32.6980   39.9270 C   0  0  0  0  0  2  0  0  0  0  0  0
   40.8190   32.4590   38.8540 C   0  0  1  0  0  3  0  0  0  0  0  0
   40.4430   31.3430   37.9140 C   0  0  2  0  0  3  0  0  0  0  0  0
   38.8300   32.3490   36.5440 O   0  0  0  0  0  0  0  0  0  0  0  0
   38.8980   32.0030   35.6250 H   0  0  0  0  0  0  0  0  0  0  0  0
   41.0200   33.6290   38.1510 O   0  0  0  0  0  0  0  0  0  0  0  0
   41.5140   33.4150   37.3000 H   0  0  0  0  0  0  0  0  0  0  0  0
   41.2600   31.4450   36.7890 O   0  0  0  0  0  0  0  0  0  0  0  0
   41.4520   30.5470   36.3800 H   0  0  0  0  0  0  0  0  0  0  0  0
   37.9930   25.7070   40.5910 C   0  0  0  0  0  0  0  0  0  0  0  0
   37.9170   24.3760   41.0010 C   0  0  0  0  0  0  0  0  0  0  0  0
   38.6700   23.3890   40.3490 C   0  0  0  0  0  0  0  0  0  0  0  0
   39.4670   23.8400   39.3020 N   0  0  0  0  0  0  0  0  0  0  0  0
   39.5130   25.1410   38.9360 C   0  0  0  0  0  0  0  0  0  0  0  0
   38.7780   26.0830   39.5760 N   0  0  0  0  0  0  0  0  0  0  0  0
   37.3640   23.8840   41.7860 H   0  0  0  0  0  0  0  0  0  0  0  0
   38.7110   22.3480   40.5520 H   0  0  0  0  0  0  0  0  0  0  0  0
   40.1710   25.3700   38.1060 H   0  0  0  0  0  0  0  0  0  0  0  0
  1  7  1  6  0  0  0
  1  6  1  0  0  0  0
  2  8  1  6  0  0  0
  2  1  1  0  0  0  0
  2  3  1  0  0  0  0
  3 10  1  0  0  0  0
  3  4  1  0  0  0  0
  4  5  1  0  0  0  0
  4 11  1  0  0  0  0
  5 13  1  0  0  0  0
  6 16  1  0  0  0  0
  6 15  1  0  0  0  0
  6  5  1  0  0  0  0
  9  3  1  0  0  0  0
 12  4  1  0  0  0  0
 14  5  1  0  0  0  0
 17 18  1  0  0  0  0
 17 22  1  1  0  0  0
 17 27  1  0  0  0  0
 18  2  1  0  0  0  0
 18 23  1  1  0  0  0
 19 18  1  0  0  0  0
 20 21  1  0  0  0  0
 20 19  1  0  0  0  0
 21 26  1  6  0  0  0
 21 17  1  0  0  0  0
 24 20  1  0  0  0  0
 25 20  1  0  0  0  0
 28 27  1  0  0  0  0
 29 21  1  0  0  0  0
 30 36  1  6  0  0  0
 30 35  1  0  0  0  0
 30 31  1  0  0  0  0
 31 29  1  6  0  0  0
 31 32  1  0  0  0  0
 32 33  1  0  0  0  0
 34 38  1  6  0  0  0
 34 33  1  0  0  0  0
 35 40  1  6  0  0  0
 35 34  1  0  0  0  0
 37 36  1  0  0  0  0
 39 38  1  0  0  0  0
 41 40  1  0  0  0  0
 42 43  1  0  0  0  0
 42  1  1  0  0  0  0
 43 48  1  0  0  0  0
 44 49  1  0  0  0  0
 44 43  2  0  0  0  0
 45 44  1  0  0  0  0
 46 45  2  0  0  0  0
 46 47  1  0  0  0  0
 47 42  2  0  0  0  0
 50 46  1  0  0  0  0
M  END
>  <minimizedAffinity>
-7.2908287

$$$$

 OpenBabel03242517123D

 50 53  0  0  1  0  0  0  0  0999 V2000
   37.7740   25.9190   41.8530 C   0  0  2  0  0  0  0  0  0  0  0  0
   38.1250   27.2660   41.3230 C   0  0  2  0  0  0  0  0  0  0  0  0
   39.5800   27.5540   41.3900 C   0  0  0  0  0  0  0  0  0  0  0  0
   40.1990   27.3300   42.7450 C   0  0  0  0  0  0  0  0  0  0  0  0
   39.6130   26.1730   43.5000 C   0  0  0  0  0  0  0  0  0  0  0  0
   38.8850   25.2110   42.5780 C   0  0  0  0  0  0  0  0  0  0  0  0
   36.9250   26.0350   42.5920 H   0  0  0  0  0  0  0  0  0  0  0  0
   37.8300   27.3090   40.2570 H   0  0  0  0  0  0  0  0  0  0  0  0
   39.7730   28.6060   41.0920 H   0  0  0  0  0  0  0  0  0  0  0  0
   40.1500   26.9340   40.6620 H   0  0  0  0  0  0  0  0  0  0  0  0
   41.2880   27.3100   42.6720 H   0  0  0  0  0  0  0  0  0  0  0  0
   39.9350   28.2490   43.3440 H   0  0  0  0  0  0  0  0  0  0  0  0
   40.4730   25.5850   43.9240 H   0  0  0  0  0  0  0  0  0  0  0  0
   38.9390   26.4560   44.3260 H   0  0  0  0  0  0  0  0  0  0  0  0
   39.6180   24.6970   41.9690 H   0  0  0  0  0  0  0  0  0  0  0  0
   38.4250   24.4390   43.2460 H   0  0  0  0  0  0  0  0  0  0  0  0
   37.7990   29.7220   41.8250 C   0  0  1  0  0  0  0  0  0  0  0  0
   37.3270   28.3320   42.0420 C   0  0  1  0  0  0  0  0  0  0  0  0
   36.0060   28.2390   41.6200 O   0  0  0  0  0  0  0  0  0  0  0  0
   35.7520   29.2980   40.7660 C   0  0  0  0  0  0  0  0  0  0  0  0
   36.4790   30.4290   41.4790 C   0  0  2  0  0  0  0  0  0  0  0  0
   38.5120   29.8400   40.9910 H   0  0  0  0  0  0  0  0  0  0  0  0
   37.3400   28.0490   43.1350 H   0  0  0  0  0  0  0  0  0  0  0  0
   36.2660   29.0980   39.8100 H   0  0  0  0  0  0  0  0  0  0  0  0
   34.6840   29.4810   40.6740 H   0  0  0  0  0  0  0  0  0  0  0  0
   35.9110   30.7070   42.3720 H   0  0  0  0  0  0  0  0  0  0  0  0
   38.3250   30.3210   42.9490 O   0  0  0  0  0  0  0  0  0  0  0  0
   37.6580   30.2140   43.6840 H   0  0  0  0  0  0  0  0  0  0  0  0
   36.7330   31.4960   40.6310 O   0  0  0  0  0  0  0  0  0  0  0  0
   37.9450   31.7650   38.5650 C   0  0  2  0  0  3  0  0  0  0  0  0
   37.9730   31.4770   40.0460 C   0  0  1  0  0  3  0  0  0  0  0  0
   38.7460   32.4580   40.6720 O   0  0  0  0  0  0  0  0  0  0  0  0
   40.0800   32.1420   40.4180 C   0  0  0  0  0  2  0  0  0  0  0  0
   40.3420   32.3900   38.9510 C   0  0  1  0  0  3  0  0  0  0  0  0
   39.3650   31.6770   38.0520 C   0  0  2  0  0  3  0  0  0  0  0  0
   37.4390   33.0010   38.2350 O   0  0  0  0  0  0  0  0  0  0  0  0
   36.9580   33.0240   37.3770 H   0  0  0  0  0  0  0  0  0  0  0  0
   40.3090   33.7490   38.7090 O   0  0  0  0  0  0  0  0  0  0  0  0
   40.2380   33.9000   37.7160 H   0  0  0  0  0  0  0  0  0  0  0  0
   39.4640   32.2450   36.7830 O   0  0  0  0  0  0  0  0  0  0  0  0
   39.2760   31.5780   36.0550 H   0  0  0  0  0  0  0  0  0  0  0  0
   37.2540   25.0200   40.8040 C   0  0  0  0  0  0  0  0  0  0  0  0
   37.6140   23.6800   40.9470 C   0  0  0  0  0  0  0  0  0  0  0  0
   37.1780   22.7250   40.0160 C   0  0  0  0  0  0  0  0  0  0  0  0
   36.3910   23.2170   38.9800 N   0  0  0  0  0  0  0  0  0  0  0  0
   36.0650   24.5250   38.8770 C   0  0  0  0  0  0  0  0  0  0  0  0
   36.4940   25.4360   39.7860 N   0  0  0  0  0  0  0  0  0  0  0  0
   38.2140   23.1580   41.6750 H   0  0  0  0  0  0  0  0  0  0  0  0
   37.3730   21.6820   40.0000 H   0  0  0  0  0  0  0  0  0  0  0  0
   35.4460   24.7880   38.0270 H   0  0  0  0  0  0  0  0  0  0  0  0
  1  6  1  0  0  0  0
  1  7  1  1  0  0  0
  2  8  1  6  0  0  0
  2  3  1  0  0  0  0
  2  1  1  0  0  0  0
  2 18  1  0  0  0  0
  3  4  1  0  0  0  0
  4 12  1  0  0  0  0
  4  5  1  0  0  0  0
  5 13  1  0  0  0  0
  5 14  1  0  0  0  0
  6 16  1  0  0  0  0
  6  5  1  0  0  0  0
  9  3  1  0  0  0  0
 10  3  1  0  0  0  0
 11  4  1  0  0  0  0
 15  6  1  0  0  0  0
 17 22  1  6  0  0  0
 17 18  1  0  0  0  0
 17 27  1  0  0  0  0
 18 23  1  1  0  0  0
 19 18  1  0  0  0  0
 20 21  1  0  0  0  0
 20 19  1  0  0  0  0
 21 17  1  0  0  0  0
 21 26  1  1  0  0  0
 24 20  1  0  0  0  0
 25 20  1  0  0  0  0
 27 28  1  0  0  0  0
 29 21  1  0  0  0  0
 30 36  1  1  0  0  0
 30 31  1  0  0  0  0
 31 29  1  1  0  0  0
 31 32  1  0  0  0  0
 33 32  1  0  0  0  0
 34 38  1  1  0  0  0
 34 33  1  0  0  0  0
 35 40  1  6  0  0  0
 35 30  1  0  0  0  0
 35 34  1  0  0  0  0
 37 36  1  0  0  0  0
 39 38  1  0  0  0  0
 41 40  1  0  0  0  0
 42 43  1  0  0  0  0
 42  1  1  0  0  0  0
 43 48  1  0  0  0  0
 44 43  2  0  0  0  0
 45 44  1  0  0  0  0
 46 45  2  0  0  0  0
 46 47  1  0  0  0  0
 47 42  2  0  0  0  0
 49 44  1  0  0  0  0
 50 46  1  0  0  0  0
M  END
>  <minimizedAffinity>
-7.03049612

$$$$

 OpenBabel03242517123D

 50 53  0  0  1  0  0  0  0  0999 V2000
   36.6590   26.0830   39.9540 C   0  0  2  0  0  0  0  0  0  0  0  0
   37.4380   27.1990   40.5610 C   0  0  2  0  0  0  0  0  0  0  0  0
   38.4900   26.7300   41.4960 C   0  0  0  0  0  0  0  0  0  0  0  0
   38.0040   25.7740   42.5550 C   0  0  0  0  0  0  0  0  0  0  0  0
   36.9260   24.8420   42.0870 C   0  0  0  0  0  0  0  0  0  0  0  0
   36.8960   24.7330   40.5720 C   0  0  0  0  0  0  0  0  0  0  0  0
   35.5570   26.3080   40.0760 H   0  0  0  0  0  0  0  0  0  0  0  0
   37.9440   27.7530   39.7460 H   0  0  0  0  0  0  0  0  0  0  0  0
   38.9620   27.5980   42.0040 H   0  0  0  0  0  0  0  0  0  0  0  0
   39.3190   26.2220   40.9530 H   0  0  0  0  0  0  0  0  0  0  0  0
   38.8460   25.2760   43.0400 H   0  0  0  0  0  0  0  0  0  0  0  0
   37.5220   26.4260   43.3400 H   0  0  0  0  0  0  0  0  0  0  0  0
   37.1970   23.8130   42.4530 H   0  0  0  0  0  0  0  0  0  0  0  0
   35.9140   25.0890   42.4480 H   0  0  0  0  0  0  0  0  0  0  0  0
   37.7770   24.1930   40.2490 H   0  0  0  0  0  0  0  0  0  0  0  0
   36.0150   24.0830   40.3320 H   0  0  0  0  0  0  0  0  0  0  0  0
   37.1140   29.4780   41.6040 C   0  0  1  0  0  0  0  0  0  0  0  0
   36.5030   28.1750   41.2410 C   0  0  1  0  0  0  0  0  0  0  0  0
   35.4300   28.4090   40.3890 O   0  0  0  0  0  0  0  0  0  0  0  0
   35.5810   29.6700   39.8410 C   0  0  0  0  0  0  0  0  0  0  0  0
   36.0670   30.4570   41.0500 C   0  0  2  0  0  0  0  0  0  0  0  0
   38.0920   29.6750   41.1300 H   0  0  0  0  0  0  0  0  0  0  0  0
   36.0910   27.6380   42.1440 H   0  0  0  0  0  0  0  0  0  0  0  0
   36.3980   29.6260   39.1000 H   0  0  0  0  0  0  0  0  0  0  0  0
   34.6380   30.0440   39.4500 H   0  0  0  0  0  0  0  0  0  0  0  0
   35.2280   30.6010   41.7380 H   0  0  0  0  0  0  0  0  0  0  0  0
   37.2240   29.6910   42.9610 O   0  0  0  0  0  0  0  0  0  0  0  0
   36.3270   29.5210   43.3630 H   0  0  0  0  0  0  0  0  0  0  0  0
   36.6880   31.6410   40.6800 O   0  0  0  0  0  0  0  0  0  0  0  0
   37.6820   31.9420   38.5060 C   0  0  2  0  0  3  0  0  0  0  0  0
   37.8270   31.4790   39.9340 C   0  0  1  0  0  3  0  0  0  0  0  0
   38.8350   32.2300   40.5420 O   0  0  0  0  0  0  0  0  0  0  0  0
   40.0490   31.7220   40.0810 C   0  0  0  0  0  2  0  0  0  0  0  0
   40.1810   32.0950   38.6230 C   0  0  1  0  0  3  0  0  0  0  0  0
   38.9910   31.6730   37.8000 C   0  0  2  0  0  3  0  0  0  0  0  0
   37.3800   33.2760   38.3680 O   0  0  0  0  0  0  0  0  0  0  0  0
   36.8150   33.4850   37.5890 H   0  0  0  0  0  0  0  0  0  0  0  0
   40.3730   33.4580   38.5200 O   0  0  0  0  0  0  0  0  0  0  0  0
   40.2180   33.7350   37.5650 H   0  0  0  0  0  0  0  0  0  0  0  0
   39.0480   32.3620   36.5900 O   0  0  0  0  0  0  0  0  0  0  0  0
   38.6560   31.8290   35.8330 H   0  0  0  0  0  0  0  0  0  0  0  0
   36.8730   25.9730   38.4980 C   0  0  0  0  0  0  0  0  0  0  0  0
   37.9430   25.1620   38.1210 C   0  0  0  0  0  0  0  0  0  0  0  0
   38.2470   24.9750   36.7640 C   0  0  0  0  0  0  0  0  0  0  0  0
   37.4210   25.6460   35.8690 N   0  0  0  0  0  0  0  0  0  0  0  0
   36.3930   26.4250   36.2760 C   0  0  0  0  0  0  0  0  0  0  0  0
   36.1120   26.5950   37.5920 N   0  0  0  0  0  0  0  0  0  0  0  0
   38.6660   24.5950   38.6860 H   0  0  0  0  0  0  0  0  0  0  0  0
   39.0220   24.3920   36.3350 H   0  0  0  0  0  0  0  0  0  0  0  0
   35.8210   26.8960   35.4850 H   0  0  0  0  0  0  0  0  0  0  0  0
  1  7  1  1  0  0  0
  1  2  1  0  0  0  0
  1  6  1  0  0  0  0
  2  8  1  6  0  0  0
  2 18  1  0  0  0  0
  2  3  1  0  0  0  0
  3  9  1  0  0  0  0
  3  4  1  0  0  0  0
  4 11  1  0  0  0  0
  4 12  1  0  0  0  0
  5 14  1  0  0  0  0
  5 13  1  0  0  0  0
  5  4  1  0  0  0  0
  6  5  1  0  0  0  0
 10  3  1  0  0  0  0
 15  6  1  0  0  0  0
 16  6  1  0  0  0  0
 17 22  1  6  0  0  0
 17 27  1  0  0  0  0
 18 17  1  0  0  0  0
 18 23  1  1  0  0  0
 19 18  1  0  0  0  0
 20 19  1  0  0  0  0
 20 21  1  0  0  0  0
 21 17  1  0  0  0  0
 21 26  1  1  0  0  0
 24 20  1  0  0  0  0
 25 20  1  0  0  0  0
 27 28  1  0  0  0  0
 29 21  1  0  0  0  0
 30 36  1  1  0  0  0
 30 31  1  0  0  0  0
 31 32  1  0  0  0  0
 31 29  1  1  0  0  0
 33 32  1  0  0  0  0
 34 38  1  1  0  0  0
 34 33  1  0  0  0  0
 35 40  1  6  0  0  0
 35 30  1  0  0  0  0
 35 34  1  0  0  0  0
 37 36  1  0  0  0  0
 39 38  1  0  0  0  0
 41 40  1  0  0  0  0
 42  1  1  0  0  0  0
 43 42  1  0  0  0  0
 43 48  1  0  0  0  0
 44 43  2  0  0  0  0
 45 46  2  0  0  0  0
 45 44  1  0  0  0  0
 46 47  1  0  0  0  0
 47 42  2  0  0  0  0
 49 44  1  0  0  0  0
 50 46  1  0  0  0  0
M  END
>  <minimizedAffinity>
-6.9000392

$$$$

 OpenBabel03242517123D

 50 53  0  0  1  0  0  0  0  0999 V2000
   37.2190   30.1090   41.0080 C   0  0  2  0  0  0  0  0  0  0  0  0
   38.6340   30.4500   40.6900 C   0  0  2  0  0  0  0  0  0  0  0  0
   39.6030   29.4630   41.2280 C   0  0  0  0  0  0  0  0  0  0  0  0
   39.4370   29.1610   42.6950 C   0  0  0  0  0  0  0  0  0  0  0  0
   38.0120   29.1660   43.1620 C   0  0  0  0  0  0  0  0  0  0  0  0
   37.0410   28.9990   42.0060 C   0  0  0  0  0  0  0  0  0  0  0  0
   36.7200   31.0250   41.4460 H   0  0  0  0  0  0  0  0  0  0  0  0
   38.7510   30.4600   39.5890 H   0  0  0  0  0  0  0  0  0  0  0  0
   40.6410   29.8210   41.0640 H   0  0  0  0  0  0  0  0  0  0  0  0
   39.5380   28.4930   40.6840 H   0  0  0  0  0  0  0  0  0  0  0  0
   39.9940   28.2620   42.9680 H   0  0  0  0  0  0  0  0  0  0  0  0
   39.9350   30.0210   43.2290 H   0  0  0  0  0  0  0  0  0  0  0  0
   37.8700   28.2520   43.8030 H   0  0  0  0  0  0  0  0  0  0  0  0
   37.7220   30.0540   43.7470 H   0  0  0  0  0  0  0  0  0  0  0  0
   37.1220   27.9860   41.6330 H   0  0  0  0  0  0  0  0  0  0  0  0
   36.0180   29.0960   42.4520 H   0  0  0  0  0  0  0  0  0  0  0  0
   40.2640   32.3810   40.7320 C   0  0  1  0  0  0  0  0  0  0  0  0
   38.9540   31.8460   41.1780 C   0  0  1  0  0  0  0  0  0  0  0  0
   37.9510   32.6990   40.7330 O   0  0  0  0  0  0  0  0  0  0  0  0
   38.4600   33.4590   39.6950 C   0  0  0  0  0  0  0  0  0  0  0  0
   39.8550   33.7700   40.2190 C   0  0  2  0  0  0  0  0  0  0  0  0
   40.7400   31.8090   39.9160 H   0  0  0  0  0  0  0  0  0  0  0  0
   38.8750   31.8110   42.3030 H   0  0  0  0  0  0  0  0  0  0  0  0
   38.5560   32.8070   38.8090 H   0  0  0  0  0  0  0  0  0  0  0  0
   37.8650   34.3540   39.5340 H   0  0  0  0  0  0  0  0  0  0  0  0
   39.7740   34.5040   41.0270 H   0  0  0  0  0  0  0  0  0  0  0  0
   41.1790   32.5520   41.7490 O   0  0  0  0  0  0  0  0  0  0  0  0
   40.7320   33.0810   42.4670 H   0  0  0  0  0  0  0  0  0  0  0  0
   40.7140   34.1610   39.2020 O   0  0  0  0  0  0  0  0  0  0  0  0
   42.0830   32.9710   37.6160 C   0  0  2  0  0  3  0  0  0  0  0  0
   41.8170   33.3610   39.0490 C   0  0  1  0  0  3  0  0  0  0  0  0
   42.9200   34.0740   39.5240 O   0  0  0  0  0  0  0  0  0  0  0  0
   43.9180   33.1390   39.7920 C   0  0  0  0  0  2  0  0  0  0  0  0
   44.4100   32.5970   38.4690 C   0  0  1  0  0  3  0  0  0  0  0  0
   43.2960   32.0690   37.6020 C   0  0  2  0  0  3  0  0  0  0  0  0
   42.3190   34.0300   36.7720 O   0  0  0  0  0  0  0  0  0  0  0  0
   42.0030   33.8910   35.8500 H   0  0  0  0  0  0  0  0  0  0  0  0
   45.1040   33.5880   37.8050 O   0  0  0  0  0  0  0  0  0  0  0  0
   45.2160   33.3150   36.8420 H   0  0  0  0  0  0  0  0  0  0  0  0
   43.7950   31.9360   36.3070 O   0  0  0  0  0  0  0  0  0  0  0  0
   43.3610   31.1770   35.8120 H   0  0  0  0  0  0  0  0  0  0  0  0
   36.4350   29.7810   39.8010 C   0  0  0  0  0  0  0  0  0  0  0  0
   35.1580   29.2760   40.0490 C   0  0  0  0  0  0  0  0  0  0  0  0
   34.3140   28.9300   38.9840 C   0  0  0  0  0  0  0  0  0  0  0  0
   34.8430   29.1260   37.7130 N   0  0  0  0  0  0  0  0  0  0  0  0
   36.0870   29.6190   37.5160 C   0  0  0  0  0  0  0  0  0  0  0  0
   36.8920   29.9490   38.5560 N   0  0  0  0  0  0  0  0  0  0  0  0
   34.6210   29.0610   40.9590 H   0  0  0  0  0  0  0  0  0  0  0  0
   33.3280   28.5380   39.0230 H   0  0  0  0  0  0  0  0  0  0  0  0
   36.3880   29.7270   36.4800 H   0  0  0  0  0  0  0  0  0  0  0  0
  1  7  1  1  0  0  0
  1  6  1  0  0  0  0
  2  8  1  6  0  0  0
  2  1  1  0  0  0  0
  2 18  1  0  0  0  0
  2  3  1  0  0  0  0
  3  4  1  0  0  0  0
  4 11  1  0  0  0  0
  4  5  1  0  0  0  0
  4 12  1  0  0  0  0
  5 14  1  0  0  0  0
  5 13  1  0  0  0  0
  6 16  1  0  0  0  0
  6  5  1  0  0  0  0
  9  3  1  0  0  0  0
 10  3  1  0  0  0  0
 15  6  1  0  0  0  0
 17 22  1  6  0  0  0
 17 18  1  0  0  0  0
 17 27  1  0  0  0  0
 18 23  1  1  0  0  0
 19 18  1  0  0  0  0
 20 21  1  0  0  0  0
 20 19  1  0  0  0  0
 21 17  1  0  0  0  0
 21 26  1  1  0  0  0
 24 20  1  0  0  0  0
 25 20  1  0  0  0  0
 27 28  1  0  0  0  0
 29 21  1  0  0  0  0
 30 36  1  6  0  0  0
 30 31  1  0  0  0  0
 31 29  1  6  0  0  0
 31 32  1  0  0  0  0
 32 33  1  0  0  0  0
 34 38  1  6  0  0  0
 34 33  1  0  0  0  0
 35 40  1  6  0  0  0
 35 30  1  0  0  0  0
 35 34  1  0  0  0  0
 37 36  1  0  0  0  0
 39 38  1  0  0  0  0
 41 40  1  0  0  0  0
 42 43  1  0  0  0  0
 42  1  1  0  0  0  0
 43 48  1  0  0  0  0
 44 49  1  0  0  0  0
 44 43  2  0  0  0  0
 45 44  1  0  0  0  0
 46 45  2  0  0  0  0
 46 47  1  0  0  0  0
 47 42  2  0  0  0  0
 50 46  1  0  0  0  0
M  END
>  <minimizedAffinity>
-6.86768007

$$$$

 OpenBabel03242517123D

 50 53  0  0  1  0  0  0  0  0999 V2000
   37.5740   26.3660   39.5930 C   0  0  2  0  0  0  0  0  0  0  0  0
   37.8620   27.0240   40.8980 C   0  0  2  0  0  0  0  0  0  0  0  0
   38.1880   26.0560   41.9750 C   0  0  0  0  0  0  0  0  0  0  0  0
   37.1840   24.9450   42.1410 C   0  0  0  0  0  0  0  0  0  0  0  0
   36.5710   24.4790   40.8540 C   0  0  0  0  0  0  0  0  0  0  0  0
   37.4150   24.8730   39.6540 C   0  0  0  0  0  0  0  0  0  0  0  0
   36.6010   26.7820   39.1910 H   0  0  0  0  0  0  0  0  0  0  0  0
   38.7430   27.6830   40.7700 H   0  0  0  0  0  0  0  0  0  0  0  0
   38.2810   26.5860   42.9470 H   0  0  0  0  0  0  0  0  0  0  0  0
   39.1800   25.5790   41.8050 H   0  0  0  0  0  0  0  0  0  0  0  0
   37.5960   24.1430   42.7560 H   0  0  0  0  0  0  0  0  0  0  0  0
   36.3380   25.4000   42.7330 H   0  0  0  0  0  0  0  0  0  0  0  0
   36.5840   23.3540   40.8690 H   0  0  0  0  0  0  0  0  0  0  0  0
   35.5340   24.8160   40.6880 H   0  0  0  0  0  0  0  0  0  0  0  0
   38.3230   24.2830   39.6640 H   0  0  0  0  0  0  0  0  0  0  0  0
   36.8330   24.5490   38.7540 H   0  0  0  0  0  0  0  0  0  0  0  0
   37.0790   29.3000   41.6700 C   0  0  1  0  0  0  0  0  0  0  0  0
   36.7050   27.9120   41.3000 C   0  0  1  0  0  0  0  0  0  0  0  0
   35.8110   27.9620   40.2360 O   0  0  0  0  0  0  0  0  0  0  0  0
   35.9310   29.2000   39.6300 C   0  0  0  0  0  0  0  0  0  0  0  0
   36.0660   30.1070   40.8440 C   0  0  2  0  0  0  0  0  0  0  0  0
   38.1050   29.5900   41.3860 H   0  0  0  0  0  0  0  0  0  0  0  0
   36.1780   27.3790   42.1430 H   0  0  0  0  0  0  0  0  0  0  0  0
   36.8830   29.2160   39.0710 H   0  0  0  0  0  0  0  0  0  0  0  0
   35.0530   29.4300   39.0310 H   0  0  0  0  0  0  0  0  0  0  0  0
   35.0930   30.1840   41.3390 H   0  0  0  0  0  0  0  0  0  0  0  0
   36.8830   29.6000   43.0010 O   0  0  0  0  0  0  0  0  0  0  0  0
   35.9470   29.3420   43.2300 H   0  0  0  0  0  0  0  0  0  0  0  0
   36.6150   31.3370   40.5110 O   0  0  0  0  0  0  0  0  0  0  0  0
   37.6560   31.8090   38.3890 C   0  0  2  0  0  3  0  0  0  0  0  0
   37.7800   31.2660   39.7910 C   0  0  1  0  0  3  0  0  0  0  0  0
   38.7390   32.0190   40.4730 O   0  0  0  0  0  0  0  0  0  0  0  0
   39.9850   31.5880   40.0190 C   0  0  0  0  0  2  0  0  0  0  0  0
   40.1420   32.0540   38.5900 C   0  0  1  0  0  3  0  0  0  0  0  0
   38.9940   31.6350   37.7090 C   0  0  2  0  0  3  0  0  0  0  0  0
   37.3020   33.1360   38.3210 O   0  0  0  0  0  0  0  0  0  0  0  0
   36.7520   33.3690   37.5400 H   0  0  0  0  0  0  0  0  0  0  0  0
   40.2800   33.4270   38.5750 O   0  0  0  0  0  0  0  0  0  0  0  0
   40.1400   33.7560   37.6340 H   0  0  0  0  0  0  0  0  0  0  0  0
   39.0560   32.3990   36.5430 O   0  0  0  0  0  0  0  0  0  0  0  0
   38.7070   31.8970   35.7450 H   0  0  0  0  0  0  0  0  0  0  0  0
   38.5850   26.6860   38.5670 C   0  0  0  0  0  0  0  0  0  0  0  0
   39.3930   27.7850   38.8600 C   0  0  0  0  0  0  0  0  0  0  0  0
   40.3940   28.1880   37.9640 C   0  0  0  0  0  0  0  0  0  0  0  0
   40.5010   27.4250   36.8050 N   0  0  0  0  0  0  0  0  0  0  0  0
   39.6970   26.3670   36.5590 C   0  0  0  0  0  0  0  0  0  0  0  0
   38.7340   25.9900   37.4350 N   0  0  0  0  0  0  0  0  0  0  0  0
   39.4240   28.4680   39.6940 H   0  0  0  0  0  0  0  0  0  0  0  0
   41.0760   28.9960   38.0550 H   0  0  0  0  0  0  0  0  0  0  0  0
   39.8770   25.8510   35.6220 H   0  0  0  0  0  0  0  0  0  0  0  0
  1  7  1  6  0  0  0
  1  6  1  0  0  0  0
  1  2  1  0  0  0  0
  2  8  1  6  0  0  0
  2 18  1  0  0  0  0
  2  3  1  0  0  0  0
  3  4  1  0  0  0  0
  3  9  1  0  0  0  0
  4 12  1  0  0  0  0
  4 11  1  0  0  0  0
  5 13  1  0  0  0  0
  5  4  1  0  0  0  0
  6 15  1  0  0  0  0
  6  5  1  0  0  0  0
 10  3  1  0  0  0  0
 14  5  1  0  0  0  0
 16  6  1  0  0  0  0
 17 22  1  6  0  0  0
 17 27  1  0  0  0  0
 18 17  1  0  0  0  0
 18 23  1  1  0  0  0
 19 18  1  0  0  0  0
 20 19  1  0  0  0  0
 20 21  1  0  0  0  0
 21 26  1  1  0  0  0
 21 17  1  0  0  0  0
 24 20  1  0  0  0  0
 25 20  1  0  0  0  0
 27 28  1  0  0  0  0
 29 21  1  0  0  0  0
 30 36  1  1  0  0  0
 30 31  1  0  0  0  0
 31 32  1  0  0  0  0
 31 29  1  1  0  0  0
 33 32  1  0  0  0  0
 34 38  1  1  0  0  0
 34 33  1  0  0  0  0
 35 40  1  6  0  0  0
 35 30  1  0  0  0  0
 35 34  1  0  0  0  0
 37 36  1  0  0  0  0
 39 38  1  0  0  0  0
 41 40  1  0  0  0  0
 42 43  1  0  0  0  0
 42  1  1  0  0  0  0
 43 48  1  0  0  0  0
 44 49  1  0  0  0  0
 44 43  2  0  0  0  0
 45 44  1  0  0  0  0
 46 45  2  0  0  0  0
 46 47  1  0  0  0  0
 47 42  2  0  0  0  0
 50 46  1  0  0  0  0
M  END
>  <minimizedAffinity>
-6.75696087

$$$$

 OpenBabel03242517123D

 50 53  0  0  1  0  0  0  0  0999 V2000
   38.5590   27.3870   40.7560 C   0  0  2  0  0  0  0  0  0  0  0  0
   37.1390   26.9660   40.9150 C   0  0  2  0  0  0  0  0  0  0  0  0
   36.5660   26.3790   39.6780 C   0  0  0  0  0  0  0  0  0  0  0  0
   36.7410   27.2270   38.4450 C   0  0  0  0  0  0  0  0  0  0  0  0
   38.0360   27.9840   38.4050 C   0  0  0  0  0  0  0  0  0  0  0  0
   39.0690   27.3830   39.3410 C   0  0  0  0  0  0  0  0  0  0  0  0
   38.6620   28.4480   41.1360 H   0  0  0  0  0  0  0  0  0  0  0  0
   37.0930   26.1870   41.7010 H   0  0  0  0  0  0  0  0  0  0  0  0
   35.4800   26.1890   39.8150 H   0  0  0  0  0  0  0  0  0  0  0  0
   37.0130   25.3830   39.4570 H   0  0  0  0  0  0  0  0  0  0  0  0
   36.5350   26.6450   37.5450 H   0  0  0  0  0  0  0  0  0  0  0  0
   35.9330   28.0120   38.5120 H   0  0  0  0  0  0  0  0  0  0  0  0
   38.4620   27.8550   37.3710 H   0  0  0  0  0  0  0  0  0  0  0  0
   37.9460   29.0630   38.6160 H   0  0  0  0  0  0  0  0  0  0  0  0
   39.3860   26.4290   38.9370 H   0  0  0  0  0  0  0  0  0  0  0  0
   39.9570   28.0630   39.2920 H   0  0  0  0  0  0  0  0  0  0  0  0
   37.0760   29.3120   41.8540 C   0  0  1  0  0  0  0  0  0  0  0  0
   36.3030   28.1290   41.4010 C   0  0  1  0  0  0  0  0  0  0  0  0
   35.4610   28.5180   40.3650 O   0  0  0  0  0  0  0  0  0  0  0  0
   35.9450   29.7020   39.8390 C   0  0  0  0  0  0  0  0  0  0  0  0
   36.3500   30.4410   41.1060 C   0  0  2  0  0  0  0  0  0  0  0  0
   38.1420   29.3020   41.5640 H   0  0  0  0  0  0  0  0  0  0  0  0
   35.6430   27.7200   42.2200 H   0  0  0  0  0  0  0  0  0  0  0  0
   36.8560   29.4730   39.2600 H   0  0  0  0  0  0  0  0  0  0  0  0
   35.1750   30.2260   39.2770 H   0  0  0  0  0  0  0  0  0  0  0  0
   35.4460   30.7700   41.6280 H   0  0  0  0  0  0  0  0  0  0  0  0
   36.9840   29.5630   43.2050 O   0  0  0  0  0  0  0  0  0  0  0  0
   36.0140   29.5820   43.4390 H   0  0  0  0  0  0  0  0  0  0  0  0
   37.2410   31.4710   40.8420 O   0  0  0  0  0  0  0  0  0  0  0  0
   38.1330   31.9430   38.6540 C   0  0  2  0  0  3  0  0  0  0  0  0
   38.2230   31.1570   39.9380 C   0  0  1  0  0  3  0  0  0  0  0  0
   39.4510   31.4370   40.5410 O   0  0  0  0  0  0  0  0  0  0  0  0
   40.4170   30.7170   39.8410 C   0  0  0  0  0  2  0  0  0  0  0  0
   40.5610   31.3460   38.4740 C   0  0  1  0  0  3  0  0  0  0  0  0
   39.2470   31.4720   37.7470 C   0  0  2  0  0  3  0  0  0  0  0  0
   38.2450   33.3050   38.8100 O   0  0  0  0  0  0  0  0  0  0  0  0
   37.7220   33.8310   38.1630 H   0  0  0  0  0  0  0  0  0  0  0  0
   41.1540   32.5850   38.6060 O   0  0  0  0  0  0  0  0  0  0  0  0
   41.0280   33.0980   37.7490 H   0  0  0  0  0  0  0  0  0  0  0  0
   39.4320   32.3640   36.6910 O   0  0  0  0  0  0  0  0  0  0  0  0
   38.8460   32.1440   35.9040 H   0  0  0  0  0  0  0  0  0  0  0  0
   39.4800   26.5870   41.5860 C   0  0  0  0  0  0  0  0  0  0  0  0
   40.5780   26.0610   40.9060 C   0  0  0  0  0  0  0  0  0  0  0  0
   41.5280   25.2850   41.5870 C   0  0  0  0  0  0  0  0  0  0  0  0
   41.2840   25.0940   42.9430 N   0  0  0  0  0  0  0  0  0  0  0  0
   40.2050   25.6220   43.5640 C   0  0  0  0  0  0  0  0  0  0  0  0
   39.2960   26.3700   42.8930 N   0  0  0  0  0  0  0  0  0  0  0  0
   40.8930   26.1110   39.8760 H   0  0  0  0  0  0  0  0  0  0  0  0
   42.4040   24.8260   41.2020 H   0  0  0  0  0  0  0  0  0  0  0  0
   40.1230   25.4040   44.6230 H   0  0  0  0  0  0  0  0  0  0  0  0
  1  2  1  0  0  0  0
  1  7  1  1  0  0  0
  1 42  1  0  0  0  0
  2 18  1  0  0  0  0
  2  8  1  1  0  0  0
  3  9  1  0  0  0  0
  3  2  1  0  0  0  0
  4 12  1  0  0  0  0
  4  3  1  0  0  0  0
  5  4  1  0  0  0  0
  5 14  1  0  0  0  0
  5  6  1  0  0  0  0
  6  1  1  0  0  0  0
 10  3  1  0  0  0  0
 11  4  1  0  0  0  0
 13  5  1  0  0  0  0
 15  6  1  0  0  0  0
 16  6  1  0  0  0  0
 17 22  1  6  0  0  0
 17 27  1  0  0  0  0
 18 17  1  0  0  0  0
 18 23  1  1  0  0  0
 19 18  1  0  0  0  0
 20 19  1  0  0  0  0
 20 21  1  0  0  0  0
 21 26  1  1  0  0  0
 21 17  1  0  0  0  0
 24 20  1  0  0  0  0
 25 20  1  0  0  0  0
 27 28  1  0  0  0  0
 29 21  1  0  0  0  0
 30 36  1  1  0  0  0
 30 31  1  0  0  0  0
 31 32  1  0  0  0  0
 31 29  1  1  0  0  0
 33 32  1  0  0  0  0
 34 38  1  1  0  0  0
 34 33  1  0  0  0  0
 35 40  1  6  0  0  0
 35 34  1  0  0  0  0
 35 30  1  0  0  0  0
 37 36  1  0  0  0  0
 39 38  1  0  0  0  0
 41 40  1  0  0  0  0
 42 47  1  0  0  0  0
 43 42  2  0  0  0  0
 43 44  1  0  0  0  0
 44 45  2  0  0  0  0
 45 46  1  0  0  0  0
 46 50  1  0  0  0  0
 47 46  2  0  0  0  0
 48 43  1  0  0  0  0
 49 44  1  0  0  0  0
M  END
>  <minimizedAffinity>
-6.60458755

$$$$

 OpenBabel03242517123D

 50 53  0  0  1  0  0  0  0  0999 V2000
   37.4910   26.5250   41.1840 C   0  0  2  0  0  0  0  0  0  0  0  0
   38.4780   27.6410   41.1890 C   0  0  2  0  0  0  0  0  0  0  0  0
   38.8920   28.0430   42.5570 C   0  0  0  0  0  0  0  0  0  0  0  0
   37.7480   28.3310   43.4950 C   0  0  0  0  0  0  0  0  0  0  0  0
   36.5500   27.4520   43.2850 C   0  0  0  0  0  0  0  0  0  0  0  0
   36.9080   26.1850   42.5280 C   0  0  0  0  0  0  0  0  0  0  0  0
   36.6240   26.8180   40.5170 H   0  0  0  0  0  0  0  0  0  0  0  0
   39.3880   27.3030   40.6560 H   0  0  0  0  0  0  0  0  0  0  0  0
   39.5350   28.9470   42.5090 H   0  0  0  0  0  0  0  0  0  0  0  0
   39.5200   27.2600   43.0370 H   0  0  0  0  0  0  0  0  0  0  0  0
   38.0990   28.3690   44.5290 H   0  0  0  0  0  0  0  0  0  0  0  0
   37.4090   29.3750   43.2330 H   0  0  0  0  0  0  0  0  0  0  0  0
   36.2120   27.1050   44.3010 H   0  0  0  0  0  0  0  0  0  0  0  0
   35.7010   27.9430   42.7810 H   0  0  0  0  0  0  0  0  0  0  0  0
   37.5030   25.5540   43.1750 H   0  0  0  0  0  0  0  0  0  0  0  0
   35.9390   25.6490   42.3590 H   0  0  0  0  0  0  0  0  0  0  0  0
   38.3710   30.1510   40.9120 C   0  0  1  0  0  0  0  0  0  0  0  0
   37.9320   28.8230   40.4180 C   0  0  1  0  0  0  0  0  0  0  0  0
   38.3240   28.6890   39.0910 O   0  0  0  0  0  0  0  0  0  0  0  0
   39.3330   29.6040   38.8460 C   0  0  0  0  0  0  0  0  0  0  0  0
   38.8150   30.8190   39.6010 C   0  0  2  0  0  0  0  0  0  0  0  0
   39.2190   30.1210   41.6190 H   0  0  0  0  0  0  0  0  0  0  0  0
   36.8080   28.7170   40.4380 H   0  0  0  0  0  0  0  0  0  0  0  0
   40.2490   29.2440   39.3470 H   0  0  0  0  0  0  0  0  0  0  0  0
   39.4450   29.7900   37.7810 H   0  0  0  0  0  0  0  0  0  0  0  0
   37.9730   31.2470   39.0480 H   0  0  0  0  0  0  0  0  0  0  0  0
   37.3610   30.9110   41.4600 O   0  0  0  0  0  0  0  0  0  0  0  0
   36.6130   30.9360   40.8000 H   0  0  0  0  0  0  0  0  0  0  0  0
   39.8250   31.7330   39.8650 O   0  0  0  0  0  0  0  0  0  0  0  0
   40.9480   33.0350   38.1780 C   0  0  2  0  0  3  0  0  0  0  0  0
   40.8410   31.7410   38.9450 C   0  0  1  0  0  3  0  0  0  0  0  0
   42.0360   31.5400   39.6400 O   0  0  0  0  0  0  0  0  0  0  0  0
   42.9740   31.1010   38.7080 C   0  0  0  0  0  2  0  0  0  0  0  0
   43.3030   32.2640   37.8000 C   0  0  1  0  0  3  0  0  0  0  0  0
   42.0780   32.8890   37.1840 C   0  0  2  0  0  3  0  0  0  0  0  0
   41.1940   34.1410   38.9570 O   0  0  0  0  0  0  0  0  0  0  0  0
   40.7890   34.9720   38.6200 H   0  0  0  0  0  0  0  0  0  0  0  0
   44.0140   33.2070   38.5130 O   0  0  0  0  0  0  0  0  0  0  0  0
   44.0190   34.0700   37.9930 H   0  0  0  0  0  0  0  0  0  0  0  0
   42.4490   34.1330   36.6750 O   0  0  0  0  0  0  0  0  0  0  0  0
   41.9120   34.3840   35.8630 H   0  0  0  0  0  0  0  0  0  0  0  0
   38.0380   25.2920   40.5880 C   0  0  0  0  0  0  0  0  0  0  0  0
   37.4880   24.1080   41.0770 C   0  0  0  0  0  0  0  0  0  0  0  0
   37.9230   22.8670   40.5860 C   0  0  0  0  0  0  0  0  0  0  0  0
   38.9130   22.9250   39.6110 N   0  0  0  0  0  0  0  0  0  0  0  0
   39.4210   24.0950   39.1640 C   0  0  0  0  0  0  0  0  0  0  0  0
   38.9890   25.2860   39.6480 N   0  0  0  0  0  0  0  0  0  0  0  0
   36.7370   23.9040   41.8240 H   0  0  0  0  0  0  0  0  0  0  0  0
   37.5970   21.8970   40.8640 H   0  0  0  0  0  0  0  0  0  0  0  0
   40.1870   24.0110   38.4020 H   0  0  0  0  0  0  0  0  0  0  0  0
  1  7  1  6  0  0  0
  1  2  1  0  0  0  0
  1  6  1  0  0  0  0
  2  8  1  6  0  0  0
  2  3  1  0  0  0  0
  3 10  1  0  0  0  0
  3  4  1  0  0  0  0
  4 11  1  0  0  0  0
  5  4  1  0  0  0  0
  5 13  1  0  0  0  0
  6 15  1  0  0  0  0
  6  5  1  0  0  0  0
  9  3  1  0  0  0  0
 12  4  1  0  0  0  0
 14  5  1  0  0  0  0
 16  6  1  0  0  0  0
 17 27  1  0  0  0  0
 17 22  1  1  0  0  0
 18 23  1  1  0  0  0
 18 17  1  0  0  0  0
 18  2  1  0  0  0  0
 19 18  1  0  0  0  0
 20 19  1  0  0  0  0
 20 24  1  0  0  0  0
 20 21  1  0  0  0  0
 21 26  1  6  0  0  0
 21 29  1  0  0  0  0
 21 17  1  0  0  0  0
 25 20  1  0  0  0  0
 28 27  1  0  0  0  0
 30 31  1  0  0  0  0
 30 36  1  1  0  0  0
 31 32  1  0  0  0  0
 31 29  1  1  0  0  0
 33 32  1  0  0  0  0
 34 38  1  1  0  0  0
 34 33  1  0  0  0  0
 35 40  1  1  0  0  0
 35 34  1  0  0  0  0
 35 30  1  0  0  0  0
 37 36  1  0  0  0  0
 39 38  1  0  0  0  0
 41 40  1  0  0  0  0
 42 43  1  0  0  0  0
 42  1  1  0  0  0  0
 43 48  1  0  0  0  0
 44 49  1  0  0  0  0
 44 43  2  0  0  0  0
 45 44  1  0  0  0  0
 46 45  2  0  0  0  0
 46 47  1  0  0  0  0
 47 42  2  0  0  0  0
 50 46  1  0  0  0  0
M  END
>  <minimizedAffinity>
-6.43238449

$$$$

 OpenBabel03242517123D

 50 53  0  0  1  0  0  0  0  0999 V2000
   37.1110   26.2970   40.6150 C   0  0  2  0  0  0  0  0  0  0  0  0
   38.5250   26.5620   41.0020 C   0  0  2  0  0  0  0  0  0  0  0  0
   39.3440   25.3270   41.0910 C   0  0  0  0  0  0  0  0  0  0  0  0
   38.7450   24.2420   41.9480 C   0  0  0  0  0  0  0  0  0  0  0  0
   37.2480   24.1650   41.8780 C   0  0  0  0  0  0  0  0  0  0  0  0
   36.7070   24.8490   40.6340 C   0  0  0  0  0  0  0  0  0  0  0  0
   36.4340   26.8340   41.3460 H   0  0  0  0  0  0  0  0  0  0  0  0
   38.9840   27.2060   40.2260 H   0  0  0  0  0  0  0  0  0  0  0  0
   40.3510   25.5670   41.4910 H   0  0  0  0  0  0  0  0  0  0  0  0
   39.5240   24.8870   40.0840 H   0  0  0  0  0  0  0  0  0  0  0  0
   39.2500   23.2900   41.7730 H   0  0  0  0  0  0  0  0  0  0  0  0
   38.9840   24.5410   43.0100 H   0  0  0  0  0  0  0  0  0  0  0  0
   36.9780   23.0790   41.7610 H   0  0  0  0  0  0  0  0  0  0  0  0
   36.7240   24.5640   42.7620 H   0  0  0  0  0  0  0  0  0  0  0  0
   36.9760   24.2540   39.7710 H   0  0  0  0  0  0  0  0  0  0  0  0
   35.5920   24.8020   40.7220 H   0  0  0  0  0  0  0  0  0  0  0  0
   39.5630   28.4440   42.3340 C   0  0  1  0  0  0  0  0  0  0  0  0
   38.5720   27.3390   42.3000 C   0  0  1  0  0  0  0  0  0  0  0  0
   37.3080   27.8680   42.5310 O   0  0  0  0  0  0  0  0  0  0  0  0
   37.3540   29.2260   42.2700 C   0  0  0  0  0  0  0  0  0  0  0  0
   38.7000   29.5940   42.8770 C   0  0  2  0  0  0  0  0  0  0  0  0
   39.9740   28.7220   41.3480 H   0  0  0  0  0  0  0  0  0  0  0  0
   38.7610   26.5800   43.1130 H   0  0  0  0  0  0  0  0  0  0  0  0
   37.4140   29.3620   41.1760 H   0  0  0  0  0  0  0  0  0  0  0  0
   36.5260   29.7460   42.7440 H   0  0  0  0  0  0  0  0  0  0  0  0
   38.6150   29.5690   43.9680 H   0  0  0  0  0  0  0  0  0  0  0  0
   40.6060   28.2380   43.2100 O   0  0  0  0  0  0  0  0  0  0  0  0
   40.2100   28.0030   44.0960 H   0  0  0  0  0  0  0  0  0  0  0  0
   39.1760   30.8010   42.3870 O   0  0  0  0  0  0  0  0  0  0  0  0
   38.1090   32.3620   40.8930 C   0  0  2  0  0  3  0  0  0  0  0  0
   38.8430   31.0580   41.0820 C   0  0  1  0  0  3  0  0  0  0  0  0
   40.0320   31.1100   40.3500 O   0  0  0  0  0  0  0  0  0  0  0  0
   39.6900   30.9130   39.0130 C   0  0  0  0  0  2  0  0  0  0  0  0
   38.9470   32.1420   38.5410 C   0  0  1  0  0  3  0  0  0  0  0  0
   37.7790   32.4950   39.4240 C   0  0  2  0  0  3  0  0  0  0  0  0
   38.8170   33.4750   41.2820 O   0  0  0  0  0  0  0  0  0  0  0  0
   38.2600   34.2040   41.6400 H   0  0  0  0  0  0  0  0  0  0  0  0
   39.8280   33.2020   38.4670 O   0  0  0  0  0  0  0  0  0  0  0  0
   39.3010   34.0570   38.3940 H   0  0  0  0  0  0  0  0  0  0  0  0
   37.4000   33.8030   39.1220 O   0  0  0  0  0  0  0  0  0  0  0  0
   36.4130   33.9480   39.2450 H   0  0  0  0  0  0  0  0  0  0  0  0
   36.7750   26.8580   39.2920 C   0  0  0  0  0  0  0  0  0  0  0  0
   35.9940   26.0310   38.4840 C   0  0  0  0  0  0  0  0  0  0  0  0
   35.6050   26.4530   37.2040 C   0  0  0  0  0  0  0  0  0  0  0  0
   36.0520   27.7150   36.8300 N   0  0  0  0  0  0  0  0  0  0  0  0
   36.8090   28.4860   37.6430 C   0  0  0  0  0  0  0  0  0  0  0  0
   37.1770   28.0640   38.8780 N   0  0  0  0  0  0  0  0  0  0  0  0
   35.5870   25.0430   38.6270 H   0  0  0  0  0  0  0  0  0  0  0  0
   35.0180   25.9340   36.4890 H   0  0  0  0  0  0  0  0  0  0  0  0
   37.0960   29.4500   37.2400 H   0  0  0  0  0  0  0  0  0  0  0  0
  1  6  1  0  0  0  0
  1  2  1  0  0  0  0
  1  7  1  1  0  0  0
  2  8  1  6  0  0  0
  2  3  1  0  0  0  0
  2 18  1  0  0  0  0
  3  9  1  0  0  0  0
  3  4  1  0  0  0  0
  4 12  1  0  0  0  0
  5  4  1  0  0  0  0
  5 14  1  0  0  0  0
  6 16  1  0  0  0  0
  6  5  1  0  0  0  0
 10  3  1  0  0  0  0
 11  4  1  0  0  0  0
 13  5  1  0  0  0  0
 15  6  1  0  0  0  0
 17 22  1  6  0  0  0
 17 21  1  0  0  0  0
 17 27  1  0  0  0  0
 18 17  1  0  0  0  0
 18 19  1  0  0  0  0
 18 23  1  1  0  0  0
 20 19  1  0  0  0  0
 20 25  1  0  0  0  0
 20 21  1  0  0  0  0
 21 26  1  1  0  0  0
 24 20  1  0  0  0  0
 27 28  1  0  0  0  0
 29 21  1  0  0  0  0
 30 31  1  0  0  0  0
 30 36  1  6  0  0  0
 31 29  1  1  0  0  0
 32 31  1  0  0  0  0
 33 32  1  0  0  0  0
 34 38  1  1  0  0  0
 34 33  1  0  0  0  0
 34 35  1  0  0  0  0
 35 40  1  1  0  0  0
 35 30  1  0  0  0  0
 36 37  1  0  0  0  0
 39 38  1  0  0  0  0
 40 41  1  0  0  0  0
 42  1  1  0  0  0  0
 43 48  1  0  0  0  0
 43 42  2  0  0  0  0
 44 43  1  0  0  0  0
 45 44  2  0  0  0  0
 45 46  1  0  0  0  0
 46 47  2  0  0  0  0
 47 42  1  0  0  0  0
 49 44  1  0  0  0  0
 50 46  1  0  0  0  0
M  END
>  <minimizedAffinity>
-6.38161182

$$$$

 OpenBabel03242517123D

 50 53  0  0  1  0  0  0  0  0999 V2000
   39.8910   32.2740   40.4210 C   0  0  2  0  0  0  0  0  0  0  0  0
   38.7650   31.3430   40.1340 C   0  0  2  0  0  0  0  0  0  0  0  0
   37.8150   31.8750   39.1250 C   0  0  0  0  0  0  0  0  0  0  0  0
   37.3050   33.2630   39.4190 C   0  0  0  0  0  0  0  0  0  0  0  0
   38.3180   34.1610   40.0660 C   0  0  0  0  0  0  0  0  0  0  0  0
   39.7350   33.6570   39.8510 C   0  0  0  0  0  0  0  0  0  0  0  0
   39.9790   32.3930   41.5440 H   0  0  0  0  0  0  0  0  0  0  0  0
   39.1860   30.4030   39.7250 H   0  0  0  0  0  0  0  0  0  0  0  0
   36.9400   31.1980   39.0320 H   0  0  0  0  0  0  0  0  0  0  0  0
   38.2740   31.9030   38.1110 H   0  0  0  0  0  0  0  0  0  0  0  0
   36.8260   33.6920   38.5380 H   0  0  0  0  0  0  0  0  0  0  0  0
   36.4920   33.1190   40.1890 H   0  0  0  0  0  0  0  0  0  0  0  0
   38.2710   35.1500   39.5320 H   0  0  0  0  0  0  0  0  0  0  0  0
   38.1600   34.3340   41.1430 H   0  0  0  0  0  0  0  0  0  0  0  0
   39.9920   33.7890   38.8080 H   0  0  0  0  0  0  0  0  0  0  0  0
   40.3950   34.3480   40.4350 H   0  0  0  0  0  0  0  0  0  0  0  0
   36.9330   30.0140   41.2610 C   0  0  1  0  0  0  0  0  0  0  0  0
   38.0480   30.9810   41.4160 C   0  0  1  0  0  0  0  0  0  0  0  0
   38.9820   30.4450   42.2950 O   0  0  0  0  0  0  0  0  0  0  0  0
   38.7810   29.0780   42.3570 C   0  0  0  0  0  0  0  0  0  0  0  0
   37.2610   29.0070   42.3740 C   0  0  2  0  0  0  0  0  0  0  0  0
   36.9080   29.4950   40.2870 H   0  0  0  0  0  0  0  0  0  0  0  0
   37.7000   31.9560   41.8660 H   0  0  0  0  0  0  0  0  0  0  0  0
   39.1420   28.6360   41.4120 H   0  0  0  0  0  0  0  0  0  0  0  0
   39.2290   28.6540   43.2520 H   0  0  0  0  0  0  0  0  0  0  0  0
   36.9020   29.3400   43.3530 H   0  0  0  0  0  0  0  0  0  0  0  0
   35.6870   30.5450   41.5150 O   0  0  0  0  0  0  0  0  0  0  0  0
   35.7310   30.9950   42.4040 H   0  0  0  0  0  0  0  0  0  0  0  0
   36.7980   27.7500   42.0140 O   0  0  0  0  0  0  0  0  0  0  0  0
   37.8470   25.6000   42.3000 C   0  0  2  0  0  3  0  0  0  0  0  0
   37.7630   26.9000   41.5400 C   0  0  1  0  0  3  0  0  0  0  0  0
   37.4530   26.6140   40.2090 O   0  0  0  0  0  0  0  0  0  0  0  0
   38.6250   26.1510   39.6130 C   0  0  0  0  0  2  0  0  0  0  0  0
   38.9280   24.7870   40.1900 C   0  0  1  0  0  3  0  0  0  0  0  0
   38.9670   24.7850   41.6960 C   0  0  2  0  0  3  0  0  0  0  0  0
   36.6960   24.8480   42.2700 O   0  0  0  0  0  0  0  0  0  0  0  0
   36.5350   24.3220   43.0860 H   0  0  0  0  0  0  0  0  0  0  0  0
   37.9880   23.8840   39.7360 O   0  0  0  0  0  0  0  0  0  0  0  0
   38.0400   23.0520   40.2990 H   0  0  0  0  0  0  0  0  0  0  0  0
   38.8930   23.4580   42.1190 O   0  0  0  0  0  0  0  0  0  0  0  0
   39.3930   23.3080   42.9790 H   0  0  0  0  0  0  0  0  0  0  0  0
   41.1930   31.7350   39.9860 C   0  0  0  0  0  0  0  0  0  0  0  0
   41.1530   30.4330   39.4860 C   0  0  0  0  0  0  0  0  0  0  0  0
   42.3260   29.8090   39.0360 C   0  0  0  0  0  0  0  0  0  0  0  0
   43.4840   30.5740   39.1320 N   0  0  0  0  0  0  0  0  0  0  0  0
   43.4800   31.8330   39.6240 C   0  0  0  0  0  0  0  0  0  0  0  0
   42.3380   32.4230   40.0550 N   0  0  0  0  0  0  0  0  0  0  0  0
   40.3510   29.7230   39.3600 H   0  0  0  0  0  0  0  0  0  0  0  0
   42.4430   28.8340   38.6350 H   0  0  0  0  0  0  0  0  0  0  0  0
   44.4450   32.3280   39.6490 H   0  0  0  0  0  0  0  0  0  0  0  0
  1  7  1  1  0  0  0
  2  8  1  6  0  0  0
  2  1  1  0  0  0  0
  2 18  1  0  0  0  0
  3  4  1  0  0  0  0
  3  2  1  0  0  0  0
  4  5  1  0  0  0  0
  4 12  1  0  0  0  0
  5 14  1  0  0  0  0
  6  5  1  0  0  0  0
  6  1  1  0  0  0  0
  6 16  1  0  0  0  0
  9  3  1  0  0  0  0
 10  3  1  0  0  0  0
 11  4  1  0  0  0  0
 13  5  1  0  0  0  0
 15  6  1  0  0  0  0
 17 22  1  6  0  0  0
 17 18  1  0  0  0  0
 17 27  1  0  0  0  0
 17 21  1  0  0  0  0
 18 23  1  1  0  0  0
 18 19  1  0  0  0  0
 19 20  1  0  0  0  0
 20 21  1  0  0  0  0
 20 25  1  0  0  0  0
 21 26  1  1  0  0  0
 24 20  1  0  0  0  0
 27 28  1  0  0  0  0
 29 21  1  0  0  0  0
 30 36  1  6  0  0  0
 31 29  1  1  0  0  0
 31 30  1  0  0  0  0
 32 31  1  0  0  0  0
 33 34  1  0  0  0  0
 33 32  1  0  0  0  0
 34 38  1  1  0  0  0
 34 35  1  0  0  0  0
 35 40  1  1  0  0  0
 35 30  1  0  0  0  0
 36 37  1  0  0  0  0
 38 39  1  0  0  0  0
 40 41  1  0  0  0  0
 42 47  1  0  0  0  0
 42  1  1  0  0  0  0
 43 42  2  0  0  0  0
 44 45  2  0  0  0  0
 44 43  1  0  0  0  0
 45 46  1  0  0  0  0
 46 50  1  0  0  0  0
 46 47  2  0  0  0  0
 48 43  1  0  0  0  0
 49 44  1  0  0  0  0
M  END
>  <minimizedAffinity>
-6.28193998

$$$$
