
     RDKit          3D

 52 54  0  0  0  0  0  0  0  0999 V2000
   45.1554   32.1045   48.1840 O   0  0  0  0  0  0  0  0  0  0  0  0
   46.9851   30.5696   48.2058 C   0  0  2  0  0  0  0  0  0  0  0  0
   45.5281   30.8003   48.3607 C   0  0  2  0  0  0  0  0  0  0  0  0
   44.8712   29.8812   47.4576 C   0  0  0  0  0  0  0  0  0  0  0  0
   45.7447   28.8212   47.1791 O   0  0  0  0  0  0  0  0  0  0  0  0
   46.8305   29.0169   47.9607 C   0  0  0  0  0  0  0  0  0  0  0  0
   47.7540   30.7347   49.2971 O   0  0  0  0  0  0  0  0  0  0  0  0
   49.0106   31.0902   49.2932 C   0  0  0  0  0  0  0  0  0  0  0  0
   49.7325   30.3243   50.3946 C   0  0  0  0  0  0  0  0  0  0  0  0
   47.1699   32.9943   46.9420 O   0  0  0  0  0  0  0  0  0  0  0  0
   45.7306   32.6708   46.7471 P   0  0  1  0  0  0  0  0  0  0  0  0
   45.5916   31.4702   45.5604 O   0  0  0  0  0  0  0  0  0  0  0  0
   44.9883   34.1310   46.2624 O   0  0  0  0  0  0  0  0  0  0  0  0
   44.9721   36.3862   43.4805 C   0  0  0  0  0  0  0  0  0  0  0  0
   45.0286   35.5309   42.3343 C   0  0  0  0  0  0  0  0  0  0  0  0
   45.0711   34.1593   42.6055 C   0  0  0  0  0  0  0  0  0  0  0  0
   45.0574   33.7263   43.8804 N   0  0  0  0  0  0  0  0  0  0  0  0
   45.0035   34.5683   44.9279 C   0  0  0  0  0  0  0  0  0  0  0  0
   44.9610   35.8939   44.7299 N   0  0  0  0  0  0  0  0  0  0  0  0
   44.9288   37.7467   43.2777 O   0  0  0  0  0  0  0  0  0  0  0  0
   47.4430   30.7608   47.2207 H   0  0  0  0  0  0  0  0  0  0  0  0
   45.3751   30.6366   49.4706 H   0  0  0  0  0  0  0  0  0  0  0  0
   44.1648   29.2971   48.1511 H   0  0  0  0  0  0  0  0  0  0  0  0
   44.1406   30.1378   46.7198 H   0  0  0  0  0  0  0  0  0  0  0  0
   46.5901   28.6481   48.9963 H   0  0  0  0  0  0  0  0  0  0  0  0
   47.7793   28.5835   47.6569 H   0  0  0  0  0  0  0  0  0  0  0  0
   49.3504   32.0723   49.0573 H   0  0  0  0  0  0  0  0  0  0  0  0
   49.4443   30.4891   48.3333 H   0  0  0  0  0  0  0  0  0  0  0  0
   50.7843   30.6697   50.4884 H   0  0  0  0  0  0  0  0  0  0  0  0
   49.7367   29.2395   50.1827 H   0  0  0  0  0  0  0  0  0  0  0  0
   49.1934   30.5508   51.3373 H   0  0  0  0  0  0  0  0  0  0  0  0
   46.2913   31.6606   44.8864 H   0  0  0  0  0  0  0  0  0  0  0  0
   45.0376   35.9112   41.3423 H   0  0  0  0  0  0  0  0  0  0  0  0
   45.1147   33.4735   41.7648 H   0  0  0  0  0  0  0  0  0  0  0  0
   44.7678   37.1289   46.2130 O   0  0  0  0  0  0  0  0  0  0  0  0
   45.5659   38.0857   45.5596 C   0  0  1  0  0  0  0  0  0  0  0  0
   44.8717   38.6611   44.3633 C   0  0  1  0  0  0  0  0  0  0  0  0
   45.4510   39.8599   43.9898 O   0  0  0  0  0  0  0  0  0  0  0  0
   45.1205   40.8912   44.8730 C   0  0  0  0  0  0  0  0  0  0  0  0
   44.9463   40.3384   46.2827 C   0  0  2  0  0  0  0  0  0  0  0  0
   45.1581   41.3751   47.1692 O   0  0  0  0  0  0  0  0  0  0  0  0
   45.9203   39.2108   46.5009 C   0  0  1  0  0  0  0  0  0  0  0  0
   45.8836   38.7559   47.8049 O   0  0  0  0  0  0  0  0  0  0  0  0
   45.2992   36.2884   46.3444 H   0  0  0  0  0  0  0  0  0  0  0  0
   46.5029   37.5873   45.2207 H   0  0  0  0  0  0  0  0  0  0  0  0
   43.7989   38.8607   44.6166 H   0  0  0  0  0  0  0  0  0  0  0  0
   45.8862   41.6697   44.9147 H   0  0  0  0  0  0  0  0  0  0  0  0
   44.1633   41.3209   44.5259 H   0  0  0  0  0  0  0  0  0  0  0  0
   43.9228   39.9232   46.3526 H   0  0  0  0  0  0  0  0  0  0  0  0
   45.3853   40.9741   48.0397 H   0  0  0  0  0  0  0  0  0  0  0  0
   46.9730   39.5225   46.2852 H   0  0  0  0  0  0  0  0  0  0  0  0
   46.7394   38.8654   48.3008 H   0  0  0  0  0  0  0  0  0  0  0  0
  1  3  1  0
  2  3  1  0
  2  7  1  0
  4  3  1  0
  5  4  1  0
  5  6  1  0
  6  2  1  0
  8  7  1  0
  8  9  1  0
 11 10  2  0
 11  1  1  1
 12 11  1  0
 13 11  1  0
 14 19  2  0
 15 16  2  0
 15 14  1  0
 16 17  1  0
 17 18  2  0
 18 13  1  0
 19 18  1  0
 20 14  1  0
  2 21  1  6
  3 22  1  1
  4 23  1  0
  4 24  1  0
  6 25  1  0
  6 26  1  0
  8 27  1  0
  8 28  1  0
  9 29  1  0
  9 30  1  0
  9 31  1  0
 12 32  1  0
 15 33  1  0
 16 34  1  0
 35 36  1  0
 36 37  1  0
 37 38  1  0
 38 39  1  0
 39 40  1  0
 40 41  1  0
 40 42  1  0
 42 43  1  0
 42 36  1  0
 35 44  1  0
 36 45  1  6
 37 46  1  1
 39 47  1  0
 39 48  1  0
 40 49  1  6
 41 50  1  0
 42 51  1  6
 43 52  1  0
 20 37  1  0
M  ISO  8  21  13  22  13  23  13  24  13  25  13  26  13  27   8  28   8
M  ISO  6  29   8  30   8  31   8  32   3  33  14  34  14
M  END
>  <DihAtoms>  (1) 
13,19,36,35

>  <DihDeg>  (1) 
119.88361815603125

$$$$
