
     RDKit          3D

 43 45  0  0  0  0  0  0  0  0999 V2000
   46.8835   34.6002   42.2272 N   0  0  0  0  0  0  0  0  0  0  0  0
   48.3250   34.7517   42.2568 C   0  0  0  0  0  0  0  0  0  0  0  0
   48.6451   35.5345   40.9676 C   0  0  0  0  0  0  0  0  0  0  0  0
   48.3569   34.6365   39.7877 C   0  0  0  0  0  0  0  0  0  0  0  0
   47.0884   33.8568   39.9033 C   0  0  0  0  0  0  0  0  0  0  0  0
   46.1889   34.2553   41.0337 C   0  0  1  0  0  0  0  0  0  0  0  0
   44.5031   35.9744   44.7676 C   0  0  0  0  0  0  0  0  0  0  0  0
   45.2191   35.8807   43.5624 C   0  0  0  0  0  0  0  0  0  0  0  0
   46.1049   34.7948   43.4096 C   0  0  0  0  0  0  0  0  0  0  0  0
   46.2016   33.9177   44.4393 N   0  0  0  0  0  0  0  0  0  0  0  0
   45.4946   34.0424   45.5850 C   0  0  0  0  0  0  0  0  0  0  0  0
   44.6351   35.0910   45.7403 N   0  0  0  0  0  0  0  0  0  0  0  0
   45.3249   33.1801   41.2975 O   0  0  0  0  0  0  0  0  0  0  0  0
   48.6979   35.2596   43.1394 H   0  0  0  0  0  0  0  0  0  0  0  0
   48.7597   33.7446   42.0756 H   0  0  0  0  0  0  0  0  0  0  0  0
   47.9303   36.4038   40.9639 H   0  0  0  0  0  0  0  0  0  0  0  0
   49.6865   35.8557   40.9243 H   0  0  0  0  0  0  0  0  0  0  0  0
   48.4193   35.2564   38.8706 H   0  0  0  0  0  0  0  0  0  0  0  0
   49.2220   33.9205   39.7361 H   0  0  0  0  0  0  0  0  0  0  0  0
   47.3099   32.7634   40.0333 H   0  0  0  0  0  0  0  0  0  0  0  0
   46.5617   33.9328   38.9291 H   0  0  0  0  0  0  0  0  0  0  0  0
   45.6276   35.1682   40.7205 H   0  0  0  0  0  0  0  0  0  0  0  0
   43.8220   36.8000   44.8980 H   0  0  0  0  0  0  0  0  0  0  0  0
   45.1272   36.5905   42.7545 H   0  0  0  0  0  0  0  0  0  0  0  0
   45.5990   33.3207   46.3859 H   0  0  0  0  0  0  0  0  0  0  0  0
   44.4767   35.5088   42.3256 O   0  0  0  0  0  0  0  0  0  0  0  0
   43.5740   34.8507   41.5001 C   0  0  2  0  0  0  0  0  0  0  0  0
   43.9987   33.4782   41.1169 C   0  0  1  0  0  0  0  0  0  0  0  0
   43.4695   33.1526   39.8896 O   0  0  0  0  0  0  0  0  0  0  0  0
   44.3123   33.7307   38.9099 C   0  0  0  0  0  0  0  0  0  0  0  0
   44.4406   35.2091   39.1590 C   0  0  2  0  0  0  0  0  0  0  0  0
   45.7471   35.4788   39.5331 O   0  0  0  0  0  0  0  0  0  0  0  0
   43.4712   35.6750   40.2328 C   0  0  2  0  0  0  0  0  0  0  0  0
   43.7471   37.0031   40.5427 O   0  0  0  0  0  0  0  0  0  0  0  0
   44.0757   36.3271   42.6793 H   0  0  0  0  0  0  0  0  0  0  0  0
   42.5928   34.8913   42.0151 H   0  0  0  0  0  0  0  0  0  0  0  0
   43.4776   32.7987   41.8596 H   0  0  0  0  0  0  0  0  0  0  0  0
   45.2910   33.2573   38.8827 H   0  0  0  0  0  0  0  0  0  0  0  0
   43.7305   33.5890   37.9623 H   0  0  0  0  0  0  0  0  0  0  0  0
   44.1925   35.7684   38.2421 H   0  0  0  0  0  0  0  0  0  0  0  0
   45.8597   36.4654   39.6880 H   0  0  0  0  0  0  0  0  0  0  0  0
   42.4323   35.5859   39.8605 H   0  0  0  0  0  0  0  0  0  0  0  0
   43.0858   37.3287   41.1774 H   0  0  0  0  0  0  0  0  0  0  0  0
  1  2  1  0
  1  9  1  0
  3  2  1  0
  4  5  1  0
  4  3  1  0
  5  6  1  0
  6 13  1  0
  6  1  1  0
  7 12  2  0
  8  7  1  0
  9  8  2  0
  9 10  1  0
 10 11  2  0
 11 12  1  0
  2 14  1  0
  2 15  1  0
  3 16  1  0
  3 17  1  0
  4 18  1  0
  4 19  1  0
  5 20  1  0
  5 21  1  0
  6 22  1  6
  7 23  1  0
  8 24  1  0
 11 25  1  0
 26 27  1  0
 27 28  1  0
 28 29  1  0
 29 30  1  0
 30 31  1  0
 31 32  1  0
 31 33  1  0
 33 34  1  0
 33 27  1  0
 26 35  1  0
 27 36  1  1
 28 37  1  1
 30 38  1  0
 30 39  1  0
 31 40  1  6
 32 41  1  0
 33 42  1  6
 34 43  1  0
 13 28  1  0
M  ISO  8  14  13  15  13  16  13  17  13  18  13  19  13  20  13  21  13
M  ISO  4  22  13  23  14  24  14  25  14
M  END
>  <DihAtoms>  (1) 
5,12,27,26

>  <DihDeg>  (1) 
113.75366388153697

$$$$
