
 OpenBabel03252507463D

 40 42  0  0  1  0  0  0  0  0999 V2000
   48.8270   33.4400   40.3960 C   0  0  0  0  0  0  0  0  0  0  0  0
   48.8170   32.7090   39.2230 C   0  0  0  0  0  0  0  0  0  0  0  0
   49.6110   31.5820   39.0660 C   0  0  0  0  0  0  0  0  0  0  0  0
   50.4030   31.2320   40.1330 N   0  0  0  0  0  0  0  0  0  0  0  0
   50.3850   31.9690   41.2590 C   0  0  0  0  0  0  0  0  0  0  0  0
   49.6180   33.0410   41.3850 N   0  0  0  0  0  0  0  0  0  0  0  0
   49.6060   31.0080   38.1510 H   0  0  0  0  0  0  0  0  0  0  0  0
   50.9930   31.7270   42.1210 H   0  0  0  0  0  0  0  0  0  0  0  0
   47.9460   34.6210   40.4620 C   0  0  0  0  0  0  0  0  0  0  0  0
   47.1110   34.5420   39.7340 H   0  0  0  0  0  0  0  0  0  0  0  0
   48.4970   35.5540   40.2040 H   0  0  0  0  0  0  0  0  0  0  0  0
   47.2920   34.7860   41.8110 C   0  0  0  0  0  0  0  0  0  0  0  0
   47.6900   35.7140   42.2790 H   0  0  0  0  0  0  0  0  0  0  0  0
   47.5770   33.9100   42.4260 H   0  0  0  0  0  0  0  0  0  0  0  0
   45.8070   34.7920   41.7690 C   0  0  0  0  0  0  0  0  0  0  0  0
   45.0790   35.6490   42.6470 C   0  0  0  0  0  0  0  0  0  0  0  0
   43.3280   35.2920   42.2130 S   0  0  0  0  0  0  0  0  0  0  0  0
   43.8840   34.0260   40.9010 C   0  0  0  0  0  0  0  0  0  0  0  0
   45.0180   34.0810   40.9950 N   0  0  0  0  0  0  0  0  0  0  0  0
   45.4810   36.3290   43.3750 H   0  0  0  0  0  0  0  0  0  0  0  0
   42.9860   33.3050   40.1120 O   0  0  0  0  0  0  0  0  0  0  0  0
   41.3640   33.1640   38.0240 O   0  0  0  0  0  0  0  0  0  0  0  0
   42.3520   34.0820   38.7420 P   0  0  0  0  0  0  0  0  0  0  0  0
   41.5620   35.4780   39.2510 O   0  0  0  0  0  0  0  0  0  0  0  0
   40.8420   35.6630   38.6120 H   0  0  0  0  0  0  0  0  0  0  0  0
   43.6240   34.5210   37.7040 O   0  0  0  0  0  0  0  0  0  0  0  0
   43.3470   34.6980   36.7900 H   0  0  0  0  0  0  0  0  0  0  0  0
   47.7510   33.2200   37.8520 S   0  0  0  0  0  0  0  0  0  0  0  0
   48.0710   32.8110   35.2190 C   0  0  2  0  0  0  0  0  0  0  0  0
   47.8550   32.0350   36.5220 C   0  0  2  0  0  0  0  0  0  0  0  0
   46.6460   31.3370   36.4860 O   0  0  0  0  0  0  0  0  0  0  0  0
   45.6940   32.1960   35.9370 C   0  0  0  0  0  0  0  0  0  0  0  0
   45.8080   32.0580   34.4360 C   0  0  2  0  0  0  0  0  0  0  0  0
   47.2780   32.1980   34.0890 C   0  0  1  0  0  0  0  0  0  0  0  0
   49.4160   32.7510   34.8570 O   0  0  0  0  0  0  0  0  0  0  0  0
   49.5080   33.1940   34.0000 H   0  0  0  0  0  0  0  0  0  0  0  0
   45.0120   32.9980   33.7820 O   0  0  0  0  0  0  0  0  0  0  0  0
   45.3250   33.1580   32.8610 H   0  0  0  0  0  0  0  0  0  0  0  0
   47.4100   33.0310   32.9870 O   0  0  0  0  0  0  0  0  0  0  0  0
   47.7560   33.9210   33.1770 H   0  0  0  0  0  0  0  0  0  0  0  0
  1  9  1  0  0  0  0
  1  6  1  0  0  0  0
  2  1  2  0  0  0  0
  3  2  1  0  0  0  0
  3  4  2  0  0  0  0
  4  5  1  0  0  0  0
  5  6  2  0  0  0  0
  5  8  1  0  0  0  0
  7  3  1  0  0  0  0
  9 12  1  0  0  0  0
 10  9  1  0  0  0  0
 11  9  1  0  0  0  0
 12 13  1  0  0  0  0
 12 14  1  0  0  0  0
 15 12  1  0  0  0  0
 15 16  2  0  0  0  0
 16 20  1  0  0  0  0
 17 16  1  0  0  0  0
 18 19  2  0  0  0  0
 18 17  1  0  0  0  0
 19 15  1  0  0  0  0
 21 18  1  0  0  0  0
 22 23  2  0  0  0  0
 23 24  1  0  0  0  0
 23 21  1  0  0  0  0
 25 24  1  0  0  0  0
 26 23  1  0  0  0  0
 27 26  1  0  0  0  0
 28  2  1  0  0  0  0
 29 35  1  6  0  0  0
 29 30  1  0  0  0  0
 30 28  1  1  0  0  0
 31 30  1  0  0  0  0
 32 31  1  0  0  0  0
 33 37  1  6  0  0  0
 33 32  1  0  0  0  0
 34 39  1  6  0  0  0
 34 33  1  0  0  0  0
 34 29  1  0  0  0  0
 36 35  1  0  0  0  0
 38 37  1  0  0  0  0
 39 40  1  0  0  0  0
M  END
>  <minimizedAffinity>
-6.5931406

>  <minimizedRMSD>
3.21128011

$$$$
