
 OpenBabel03252508473D

 48 50  0  0  1  0  0  0  0  0999 V2000
   42.7040   31.5360   42.5980 N   0  0  0  0  0  0  0  0  0  0  0  0
   42.8590   31.9240   43.5680 H   0  0  0  0  0  0  0  0  0  0  0  0
   43.0550   32.5480   41.6560 C   0  0  0  0  0  0  0  0  0  0  0  0
   43.5320   32.1440   40.7310 H   0  0  0  0  0  0  0  0  0  0  0  0
   42.0920   33.0300   41.3310 H   0  0  0  0  0  0  0  0  0  0  0  0
   43.6690   34.9570   41.8920 C   0  0  0  0  0  0  0  0  0  0  0  0
   43.9160   33.6340   42.1980 C   0  0  0  0  0  0  0  0  0  0  0  0
   44.9870   33.3410   43.0240 C   0  0  0  0  0  0  0  0  0  0  0  0
   45.7750   34.3420   43.5190 C   0  0  0  0  0  0  0  0  0  0  0  0
   45.5380   35.6640   43.2200 C   0  0  0  0  0  0  0  0  0  0  0  0
   44.4620   35.9130   42.3950 C   0  0  0  0  0  0  0  0  0  0  0  0
   45.1830   32.2950   43.2660 H   0  0  0  0  0  0  0  0  0  0  0  0
   46.5920   34.0260   44.1560 H   0  0  0  0  0  0  0  0  0  0  0  0
   46.1760   36.4500   43.6220 H   0  0  0  0  0  0  0  0  0  0  0  0
   44.2200   36.9390   42.1190 H   0  0  0  0  0  0  0  0  0  0  0  0
   40.2460   35.7940   40.5260 C   0  0  0  0  0  0  0  0  0  0  0  0
   41.2760   35.5770   41.4590 C   0  0  0  0  0  0  0  0  0  0  0  0
   42.5270   35.2070   41.0180 C   0  0  0  0  0  0  0  0  0  0  0  0
   42.6950   35.0690   39.6710 N   0  0  0  0  0  0  0  0  0  0  0  0
   41.6950   35.2810   38.7800 C   0  0  0  0  0  0  0  0  0  0  0  0
   40.4820   35.6410   39.2220 N   0  0  0  0  0  0  0  0  0  0  0  0
   39.2660   36.0870   40.9270 H   0  0  0  0  0  0  0  0  0  0  0  0
   41.1580   35.6820   42.5210 H   0  0  0  0  0  0  0  0  0  0  0  0
   41.8860   35.1560   37.7140 H   0  0  0  0  0  0  0  0  0  0  0  0
   41.0330   31.1400   42.5530 S   0  0  0  0  0  0  0  0  0  0  0  0
   40.1970   32.3660   42.3220 O   0  0  0  0  0  0  0  0  0  0  0  0
   39.5740   32.6860   42.9980 H   0  0  0  0  0  0  0  0  0  0  0  0
   40.6120   30.4350   43.8020 O   0  0  0  0  0  0  0  0  0  0  0  0
   40.6720   30.8780   44.6710 H   0  0  0  0  0  0  0  0  0  0  0  0
   40.8270   30.0930   41.2550 O   0  0  0  0  0  0  0  0  0  0  0  0
   39.9390   29.0870   41.6370 C   0  0  0  0  0  0  0  0  0  0  0  0
   39.1490   29.0790   40.8580 H   0  0  0  0  0  0  0  0  0  0  0  0
   39.4840   29.2450   42.6220 H   0  0  0  0  0  0  0  0  0  0  0  0
   40.6630   27.7510   41.5470 C   0  0  0  0  0  0  0  0  0  0  0  0
   40.3440   27.2420   40.6250 H   0  0  0  0  0  0  0  0  0  0  0  0
   41.7700   27.9130   41.5580 H   0  0  0  0  0  0  0  0  0  0  0  0
   41.2300   27.2740   43.9290 C   0  0  2  0  0  3  0  0  0  0  0  0
   40.3180   26.9710   42.7940 C   0  0  2  0  0  3  0  0  0  0  0  0
   40.2990   25.6310   42.4230 O   0  0  0  0  0  0  0  0  0  0  0  0
   40.2690   24.7520   43.4760 C   0  0  0  0  0  2  0  0  0  0  0  0
   41.5360   24.8100   44.2950 C   0  0  1  0  0  3  0  0  0  0  0  0
   42.1720   26.1570   44.3050 C   0  0  2  0  0  3  0  0  0  0  0  0
   40.4960   27.6430   45.0840 O   0  0  0  0  0  0  0  0  0  0  0  0
   39.5760   27.8810   44.8540 H   0  0  0  0  0  0  0  0  0  0  0  0
   41.3240   24.3780   45.6050 O   0  0  0  0  0  0  0  0  0  0  0  0
   42.1340   24.6260   46.1200 H   0  0  0  0  0  0  0  0  0  0  0  0
   42.5990   26.4640   45.6170 O   0  0  0  0  0  0  0  0  0  0  0  0
   42.9230   27.4180   45.5400 H   0  0  0  0  0  0  0  0  0  0  0  0
  1  2  1  0  0  0  0
  3  7  1  0  0  0  0
  3  1  1  0  0  0  0
  4  3  1  0  0  0  0
  5  3  1  0  0  0  0
  6  7  2  0  0  0  0
  6 11  1  0  0  0  0
  7  8  1  0  0  0  0
  8 12  1  0  0  0  0
  8  9  2  0  0  0  0
  9 13  1  0  0  0  0
 10  9  1  0  0  0  0
 10 14  1  0  0  0  0
 11 10  2  0  0  0  0
 15 11  1  0  0  0  0
 16 22  1  0  0  0  0
 16 17  1  0  0  0  0
 17 23  1  0  0  0  0
 18 17  2  0  0  0  0
 18  6  1  0  0  0  0
 19 18  1  0  0  0  0
 20 21  1  0  0  0  0
 20 19  2  0  0  0  0
 21 16  2  0  0  0  0
 24 20  1  0  0  0  0
 25  1  1  0  0  0  0
 25 28  1  0  0  0  0
 26 25  1  0  0  0  0
 26 27  1  0  0  0  0
 28 29  1  0  0  0  0
 30 31  1  0  0  0  0
 30 25  1  0  0  0  0
 31 33  1  0  0  0  0
 32 31  1  0  0  0  0
 34 36  1  0  0  0  0
 34 31  1  0  0  0  0
 35 34  1  0  0  0  0
 37 42  1  0  0  0  0
 37 43  1  1  0  0  0
 38 34  1  6  0  0  0
 38 37  1  0  0  0  0
 39 38  1  0  0  0  0
 39 40  1  0  0  0  0
 40 41  1  0  0  0  0
 41 42  1  0  0  0  0
 41 45  1  1  0  0  0
 42 47  1  1  0  0  0
 44 43  1  0  0  0  0
 45 46  1  0  0  0  0
 48 47  1  0  0  0  0
M  END
>  <minimizedAffinity>
-5.3973012

>  <minimizedRMSD>
1.62843919

$$$$
