
 OpenBabel03242517293D

 43 45  0  0  1  0  0  0  0  0999 V2000
   37.5860   33.1720   39.9650 C   0  0  0  0  0  0  0  0  0  0  0  0
   37.2620   32.2430   38.9410 C   0  0  0  0  0  0  0  0  0  0  0  0
   38.2840   31.7880   38.1030 C   0  0  0  0  0  0  0  0  0  0  0  0
   39.5440   32.2530   38.3040 N   0  0  0  0  0  0  0  0  0  0  0  0
   39.8350   33.1390   39.2860 C   0  0  0  0  0  0  0  0  0  0  0  0
   38.8500   33.5780   40.0930 N   0  0  0  0  0  0  0  0  0  0  0  0
   41.1560   33.5740   39.4330 N   0  0  0  0  0  0  0  0  0  0  0  0
   41.8300   34.2200   38.3480 C   0  0  0  0  0  0  0  0  0  0  0  0
   43.3220   34.2590   38.5030 C   0  0  0  0  0  0  0  0  0  0  0  0
   43.8140   34.3650   39.8370 N   0  0  0  0  0  0  0  0  0  0  0  0
   42.7830   34.5190   40.8210 C   0  0  0  0  0  0  0  0  0  0  0  0
   41.8360   33.3590   40.7120 C   0  0  2  0  0  0  0  0  0  0  0  0
   36.8780   33.5760   40.6500 H   0  0  0  0  0  0  0  0  0  0  0  0
   36.2310   31.9430   38.8740 H   0  0  0  0  0  0  0  0  0  0  0  0
   38.0320   31.0860   37.3320 H   0  0  0  0  0  0  0  0  0  0  0  0
   41.4480   35.2580   38.2740 H   0  0  0  0  0  0  0  0  0  0  0  0
   41.6050   33.7400   37.3540 H   0  0  0  0  0  0  0  0  0  0  0  0
   43.6990   35.1310   37.9130 H   0  0  0  0  0  0  0  0  0  0  0  0
   43.7410   33.3590   37.9710 H   0  0  0  0  0  0  0  0  0  0  0  0
   44.4520   33.5630   40.0450 H   0  0  0  0  0  0  0  0  0  0  0  0
   42.2480   35.4570   40.5930 H   0  0  0  0  0  0  0  0  0  0  0  0
   43.2540   34.5560   41.8120 H   0  0  0  0  0  0  0  0  0  0  0  0
   41.0560   33.4180   41.4960 H   0  0  0  0  0  0  0  0  0  0  0  0
   42.5220   32.0390   40.7860 C   0  0  0  0  0  0  0  0  0  0  0  0
   42.4430   31.5500   39.7890 H   0  0  0  0  0  0  0  0  0  0  0  0
   43.5710   32.1830   41.1080 H   0  0  0  0  0  0  0  0  0  0  0  0
   41.8610   31.2280   41.8610 C   0  0  0  0  0  3  0  0  0  0  0  0
   41.0520   30.2100   41.5750 C   0  0  0  0  0  3  0  0  0  0  0  0
   40.3720   29.3730   42.6060 C   0  0  0  0  0  0  0  0  0  0  0  0
   40.4870   28.3040   42.3540 H   0  0  0  0  0  0  0  0  0  0  0  0
   40.8640   29.5560   43.5760 H   0  0  0  0  0  0  0  0  0  0  0  0
   38.0730   28.7920   43.4040 C   0  0  1  0  0  3  0  0  0  0  0  0
   38.8930   29.7260   42.6020 C   0  0  2  0  0  3  0  0  0  0  0  0
   38.4360   30.0220   41.3310 O   0  0  0  0  0  0  0  0  0  0  0  0
   37.7610   28.9690   40.7340 C   0  0  0  0  0  2  0  0  0  0  0  0
   36.4500   28.8560   41.4690 C   0  0  1  0  0  3  0  0  0  0  0  0
   36.7340   28.4120   42.8580 C   0  0  1  0  0  3  0  0  0  0  0  0
   38.7800   27.5970   43.5750 O   0  0  0  0  0  0  0  0  0  0  0  0
   38.3490   27.1130   44.3420 H   0  0  0  0  0  0  0  0  0  0  0  0
   35.8040   30.0870   41.4490 O   0  0  0  0  0  0  0  0  0  0  0  0
   35.1710   30.0920   42.2150 H   0  0  0  0  0  0  0  0  0  0  0  0
   36.4890   27.0330   42.9370 O   0  0  0  0  0  0  0  0  0  0  0  0
   37.2840   26.4970   42.7150 H   0  0  0  0  0  0  0  0  0  0  0  0
  1  6  1  0  0  0  0
  1 13  1  0  0  0  0
  2  1  2  0  0  0  0
  3  4  2  0  0  0  0
  3  2  1  0  0  0  0
  4  5  1  0  0  0  0
  5  7  1  0  0  0  0
  5  6  2  0  0  0  0
  7 12  1  0  0  0  0
  8  9  1  0  0  0  0
  8  7  1  0  0  0  0
  9 10  1  0  0  0  0
 10 20  1  0  0  0  0
 10 11  1  0  0  0  0
 11 22  1  0  0  0  0
 12 24  1  0  0  0  0
 12 11  1  0  0  0  0
 12 23  1  1  0  0  0
 14  2  1  0  0  0  0
 15  3  1  0  0  0  0
 16  8  1  0  0  0  0
 17  8  1  0  0  0  0
 18  9  1  0  0  0  0
 19  9  1  0  0  0  0
 21 11  1  0  0  0  0
 24 26  1  0  0  0  0
 24 27  1  0  0  0  0
 25 24  1  0  0  0  0
 28 27  2  0  0  0  0
 28 29  1  0  0  0  0
 29 31  1  0  0  0  0
 30 29  1  0  0  0  0
 32 38  1  6  0  0  0
 33 29  1  6  0  0  0
 33 32  1  0  0  0  0
 34 33  1  0  0  0  0
 35 34  1  0  0  0  0
 35 36  1  0  0  0  0
 36 40  1  1  0  0  0
 36 37  1  0  0  0  0
 37 42  1  6  0  0  0
 37 32  1  0  0  0  0
 38 39  1  0  0  0  0
 40 41  1  0  0  0  0
 43 42  1  0  0  0  0
M  END
>  <minimizedAffinity>
-5.94757938

$$$$

 OpenBabel03242517293D

 43 45  0  0  1  0  0  0  0  0999 V2000
   37.9280   29.2690   38.2530 C   0  0  0  0  0  0  0  0  0  0  0  0
   36.6100   29.7690   38.0880 C   0  0  0  0  0  0  0  0  0  0  0  0
   35.5590   29.1120   38.7340 C   0  0  0  0  0  0  0  0  0  0  0  0
   35.8430   28.0230   39.4940 N   0  0  0  0  0  0  0  0  0  0  0  0
   37.1070   27.5590   39.6410 C   0  0  0  0  0  0  0  0  0  0  0  0
   38.1190   28.1930   39.0180 N   0  0  0  0  0  0  0  0  0  0  0  0
   37.3240   26.4320   40.4390 N   0  0  0  0  0  0  0  0  0  0  0  0
   36.6710   25.1950   40.1370 C   0  0  0  0  0  0  0  0  0  0  0  0
   36.6710   24.2190   41.2760 C   0  0  0  0  0  0  0  0  0  0  0  0
   37.8080   24.2550   42.1360 N   0  0  0  0  0  0  0  0  0  0  0  0
   38.8280   25.1660   41.7050 C   0  0  0  0  0  0  0  0  0  0  0  0
   38.2280   26.5370   41.5860 C   0  0  2  0  0  0  0  0  0  0  0  0
   38.7910   29.6990   37.8030 H   0  0  0  0  0  0  0  0  0  0  0  0
   36.5010   30.6380   37.4640 H   0  0  0  0  0  0  0  0  0  0  0  0
   34.5660   29.4960   38.6050 H   0  0  0  0  0  0  0  0  0  0  0  0
   37.1860   24.7360   39.2690 H   0  0  0  0  0  0  0  0  0  0  0  0
   35.6010   25.3400   39.8150 H   0  0  0  0  0  0  0  0  0  0  0  0
   36.5850   23.1920   40.8400 H   0  0  0  0  0  0  0  0  0  0  0  0
   35.7100   24.3620   41.8450 H   0  0  0  0  0  0  0  0  0  0  0  0
   37.5030   24.4280   43.1200 H   0  0  0  0  0  0  0  0  0  0  0  0
   39.1760   24.8260   40.7150 H   0  0  0  0  0  0  0  0  0  0  0  0
   39.6400   25.1500   42.4440 H   0  0  0  0  0  0  0  0  0  0  0  0
   39.0030   27.2780   41.3080 H   0  0  0  0  0  0  0  0  0  0  0  0
   37.5360   26.9800   42.8280 C   0  0  0  0  0  0  0  0  0  0  0  0
   36.4420   26.8290   42.6890 H   0  0  0  0  0  0  0  0  0  0  0  0
   37.9360   26.4200   43.6960 H   0  0  0  0  0  0  0  0  0  0  0  0
   37.8760   28.4210   43.0660 C   0  0  0  0  0  3  0  0  0  0  0  0
   38.9390   28.9930   42.5040 C   0  0  0  0  0  3  0  0  0  0  0  0
   39.3210   30.4210   42.7090 C   0  0  0  0  0  0  0  0  0  0  0  0
   38.4620   30.9820   43.1170 H   0  0  0  0  0  0  0  0  0  0  0  0
   40.1400   30.4550   43.4460 H   0  0  0  0  0  0  0  0  0  0  0  0
   41.0350   31.6420   41.3560 C   0  0  1  0  0  3  0  0  0  0  0  0
   39.6980   31.0080   41.3580 C   0  0  2  0  0  3  0  0  0  0  0  0
   38.6620   31.7390   40.8050 O   0  0  0  0  0  0  0  0  0  0  0  0
   38.8050   33.1070   40.9750 C   0  0  0  0  0  2  0  0  0  0  0  0
   39.9350   33.5140   40.0640 C   0  0  1  0  0  3  0  0  0  0  0  0
   41.1900   32.9140   40.5840 C   0  0  1  0  0  3  0  0  0  0  0  0
   41.4010   31.9370   42.6730 O   0  0  0  0  0  0  0  0  0  0  0  0
   42.3950   32.0830   42.6720 H   0  0  0  0  0  0  0  0  0  0  0  0
   39.6610   33.0840   38.7710 O   0  0  0  0  0  0  0  0  0  0  0  0
   40.5310   33.0260   38.2960 H   0  0  0  0  0  0  0  0  0  0  0  0
   41.8850   33.9000   41.3000 O   0  0  0  0  0  0  0  0  0  0  0  0
   41.6280   33.9260   42.2500 H   0  0  0  0  0  0  0  0  0  0  0  0
  1  6  1  0  0  0  0
  2  1  2  0  0  0  0
  2  3  1  0  0  0  0
  3  4  2  0  0  0  0
  4  5  1  0  0  0  0
  5  7  1  0  0  0  0
  6  5  2  0  0  0  0
  7 12  1  0  0  0  0
  8  7  1  0  0  0  0
  8  9  1  0  0  0  0
  9 19  1  0  0  0  0
  9 10  1  0  0  0  0
 10 20  1  0  0  0  0
 11 10  1  0  0  0  0
 11 22  1  0  0  0  0
 12 23  1  6  0  0  0
 12 11  1  0  0  0  0
 12 24  1  0  0  0  0
 13  1  1  0  0  0  0
 14  2  1  0  0  0  0
 15  3  1  0  0  0  0
 16  8  1  0  0  0  0
 17  8  1  0  0  0  0
 18  9  1  0  0  0  0
 21 11  1  0  0  0  0
 24 27  1  0  0  0  0
 24 26  1  0  0  0  0
 25 24  1  0  0  0  0
 28 29  1  0  0  0  0
 28 27  2  0  0  0  0
 29 30  1  0  0  0  0
 29 31  1  0  0  0  0
 32 33  1  0  0  0  0
 32 38  1  1  0  0  0
 33 29  1  1  0  0  0
 34 35  1  0  0  0  0
 34 33  1  0  0  0  0
 36 40  1  6  0  0  0
 36 37  1  0  0  0  0
 36 35  1  0  0  0  0
 37 42  1  1  0  0  0
 37 32  1  0  0  0  0
 39 38  1  0  0  0  0
 41 40  1  0  0  0  0
 42 43  1  0  0  0  0
M  END
>  <minimizedAffinity>
-5.92724705

$$$$

 OpenBabel03242517293D

 43 45  0  0  1  0  0  0  0  0999 V2000
   41.3290   28.8160   40.1070 C   0  0  0  0  0  0  0  0  0  0  0  0
   41.9620   28.8830   41.3760 C   0  0  0  0  0  0  0  0  0  0  0  0
   41.5780   29.8920   42.2630 C   0  0  0  0  0  0  0  0  0  0  0  0
   40.6140   30.7670   41.8730 N   0  0  0  0  0  0  0  0  0  0  0  0
   40.0200   30.6880   40.6590 C   0  0  0  0  0  0  0  0  0  0  0  0
   40.3920   29.7150   39.8050 N   0  0  0  0  0  0  0  0  0  0  0  0
   39.0360   31.6230   40.3270 N   0  0  0  0  0  0  0  0  0  0  0  0
   39.3350   33.0230   40.3350 C   0  0  0  0  0  0  0  0  0  0  0  0
   38.1180   33.8990   40.3620 C   0  0  0  0  0  0  0  0  0  0  0  0
   36.9670   33.4010   39.6830 N   0  0  0  0  0  0  0  0  0  0  0  0
   37.1960   32.1670   38.9900 C   0  0  0  0  0  0  0  0  0  0  0  0
   37.6960   31.1500   39.9730 C   0  0  2  0  0  0  0  0  0  0  0  0
   41.5530   28.0860   39.3650 H   0  0  0  0  0  0  0  0  0  0  0  0
   42.7120   28.1380   41.5780 H   0  0  0  0  0  0  0  0  0  0  0  0
   42.0600   29.9360   43.2200 H   0  0  0  0  0  0  0  0  0  0  0  0
   39.9250   33.2540   39.4250 H   0  0  0  0  0  0  0  0  0  0  0  0
   39.9860   33.3200   41.2050 H   0  0  0  0  0  0  0  0  0  0  0  0
   38.4020   34.8830   39.9100 H   0  0  0  0  0  0  0  0  0  0  0  0
   37.8980   34.1400   41.4400 H   0  0  0  0  0  0  0  0  0  0  0  0
   36.1610   33.3470   40.3450 H   0  0  0  0  0  0  0  0  0  0  0  0
   37.9710   32.3570   38.2270 H   0  0  0  0  0  0  0  0  0  0  0  0
   36.2520   31.8480   38.5320 H   0  0  0  0  0  0  0  0  0  0  0  0
   37.8320   30.1660   39.4800 H   0  0  0  0  0  0  0  0  0  0  0  0
   36.8060   30.9970   41.1570 C   0  0  0  0  0  0  0  0  0  0  0  0
   37.1700   31.6810   41.9560 H   0  0  0  0  0  0  0  0  0  0  0  0
   35.7580   31.2040   40.8630 H   0  0  0  0  0  0  0  0  0  0  0  0
   36.8440   29.5620   41.5900 C   0  0  0  0  0  3  0  0  0  0  0  0
   37.4270   29.1870   42.7260 C   0  0  0  0  0  3  0  0  0  0  0  0
   37.4910   27.7740   43.2010 C   0  0  0  0  0  0  0  0  0  0  0  0
   37.7120   27.7530   44.2830 H   0  0  0  0  0  0  0  0  0  0  0  0
   36.5030   27.3120   43.0390 H   0  0  0  0  0  0  0  0  0  0  0  0
   38.1740   25.8380   41.7700 C   0  0  1  0  0  3  0  0  0  0  0  0
   38.6150   27.0730   42.4550 C   0  0  2  0  0  3  0  0  0  0  0  0
   39.7650   26.9850   43.2170 O   0  0  0  0  0  0  0  0  0  0  0  0
   39.9390   25.7410   43.8030 C   0  0  0  0  0  2  0  0  0  0  0  0
   40.2940   24.8050   42.6770 C   0  0  1  0  0  3  0  0  0  0  0  0
   39.1070   24.6690   41.7950 C   0  0  1  0  0  3  0  0  0  0  0  0
   36.9790   25.3990   42.3500 O   0  0  0  0  0  0  0  0  0  0  0  0
   36.5600   24.7590   41.6990 H   0  0  0  0  0  0  0  0  0  0  0  0
   41.3880   25.3130   41.9840 O   0  0  0  0  0  0  0  0  0  0  0  0
   41.3660   24.9110   41.0760 H   0  0  0  0  0  0  0  0  0  0  0  0
   38.4580   23.4670   42.1150 O   0  0  0  0  0  0  0  0  0  0  0  0
   37.7870   23.5790   42.8260 H   0  0  0  0  0  0  0  0  0  0  0  0
  1  2  1  0  0  0  0
  2 14  1  0  0  0  0
  2  3  2  0  0  0  0
  3 15  1  0  0  0  0
  4  3  1  0  0  0  0
  5  4  2  0  0  0  0
  6  1  2  0  0  0  0
  6  5  1  0  0  0  0
  7  8  1  0  0  0  0
  7  5  1  0  0  0  0
  8  9  1  0  0  0  0
  8 17  1  0  0  0  0
  9 19  1  0  0  0  0
 10 20  1  0  0  0  0
 10  9  1  0  0  0  0
 11 10  1  0  0  0  0
 11 12  1  0  0  0  0
 12 23  1  6  0  0  0
 12  7  1  0  0  0  0
 12 24  1  0  0  0  0
 13  1  1  0  0  0  0
 16  8  1  0  0  0  0
 18  9  1  0  0  0  0
 21 11  1  0  0  0  0
 22 11  1  0  0  0  0
 24 27  1  0  0  0  0
 24 25  1  0  0  0  0
 26 24  1  0  0  0  0
 27 28  2  0  0  0  0
 28 29  1  0  0  0  0
 29 30  1  0  0  0  0
 31 29  1  0  0  0  0
 32 37  1  0  0  0  0
 32 38  1  1  0  0  0
 32 33  1  0  0  0  0
 33 29  1  1  0  0  0
 33 34  1  0  0  0  0
 34 35  1  0  0  0  0
 36 40  1  6  0  0  0
 36 35  1  0  0  0  0
 37 42  1  1  0  0  0
 37 36  1  0  0  0  0
 39 38  1  0  0  0  0
 41 40  1  0  0  0  0
 42 43  1  0  0  0  0
M  END
>  <minimizedAffinity>
-5.80877876

$$$$

 OpenBabel03242517293D

 43 45  0  0  1  0  0  0  0  0999 V2000
   41.7940   25.5550   41.0020 C   0  0  0  0  0  0  0  0  0  0  0  0
   41.3750   24.8290   39.8550 C   0  0  0  0  0  0  0  0  0  0  0  0
   40.0530   24.9660   39.4240 C   0  0  0  0  0  0  0  0  0  0  0  0
   39.2240   25.7880   40.1190 N   0  0  0  0  0  0  0  0  0  0  0  0
   39.6410   26.4720   41.2100 C   0  0  0  0  0  0  0  0  0  0  0  0
   40.9150   26.3400   41.6260 N   0  0  0  0  0  0  0  0  0  0  0  0
   38.7320   27.3000   41.8760 N   0  0  0  0  0  0  0  0  0  0  0  0
   37.5160   26.7610   42.4070 C   0  0  0  0  0  0  0  0  0  0  0  0
   36.4810   27.8000   42.7180 C   0  0  0  0  0  0  0  0  0  0  0  0
   36.9710   29.0660   43.1540 N   0  0  0  0  0  0  0  0  0  0  0  0
   38.3940   29.1070   43.3200 C   0  0  0  0  0  0  0  0  0  0  0  0
   39.0410   28.7230   42.0220 C   0  0  2  0  0  0  0  0  0  0  0  0
   42.7780   25.5160   41.4060 H   0  0  0  0  0  0  0  0  0  0  0  0
   42.1160   24.2090   39.3830 H   0  0  0  0  0  0  0  0  0  0  0  0
   39.7430   24.4150   38.5570 H   0  0  0  0  0  0  0  0  0  0  0  0
   37.7610   26.2060   43.3350 H   0  0  0  0  0  0  0  0  0  0  0  0
   37.0420   26.0060   41.7170 H   0  0  0  0  0  0  0  0  0  0  0  0
   35.8130   27.3820   43.5130 H   0  0  0  0  0  0  0  0  0  0  0  0
   35.8150   27.8960   41.8150 H   0  0  0  0  0  0  0  0  0  0  0  0
   36.6170   29.8200   42.5220 H   0  0  0  0  0  0  0  0  0  0  0  0
   38.6560   28.3690   44.0970 H   0  0  0  0  0  0  0  0  0  0  0  0
   38.6780   30.1240   43.6210 H   0  0  0  0  0  0  0  0  0  0  0  0
   40.1440   28.7980   42.0990 H   0  0  0  0  0  0  0  0  0  0  0  0
   38.5640   29.5380   40.8700 C   0  0  0  0  0  0  0  0  0  0  0  0
   38.0190   28.8660   40.1710 H   0  0  0  0  0  0  0  0  0  0  0  0
   37.9340   30.3710   41.2400 H   0  0  0  0  0  0  0  0  0  0  0  0
   39.7570   30.1730   40.2190 C   0  0  0  0  0  3  0  0  0  0  0  0
   40.1290   29.8620   38.9800 C   0  0  0  0  0  3  0  0  0  0  0  0
   41.3060   30.4640   38.2890 C   0  0  0  0  0  0  0  0  0  0  0  0
   42.2090   29.8650   38.4980 H   0  0  0  0  0  0  0  0  0  0  0  0
   41.1160   30.4380   37.2020 H   0  0  0  0  0  0  0  0  0  0  0  0
   41.2850   32.9210   37.8170 C   0  0  1  0  0  3  0  0  0  0  0  0
   41.5070   31.8690   38.8330 C   0  0  2  0  0  3  0  0  0  0  0  0
   42.6600   31.9690   39.5900 O   0  0  0  0  0  0  0  0  0  0  0  0
   43.7210   32.5320   38.8990 C   0  0  0  0  0  2  0  0  0  0  0  0
   43.3780   33.9910   38.7420 C   0  0  1  0  0  3  0  0  0  0  0  0
   42.2080   34.0980   37.8340 C   0  0  1  0  0  3  0  0  0  0  0  0
   41.3960   32.3550   36.5430 O   0  0  0  0  0  0  0  0  0  0  0  0
   40.9620   32.9940   35.9020 H   0  0  0  0  0  0  0  0  0  0  0  0
   43.1040   34.5360   39.9920 O   0  0  0  0  0  0  0  0  0  0  0  0
   42.5430   35.3410   39.8380 H   0  0  0  0  0  0  0  0  0  0  0  0
   42.6750   34.4370   36.5540 O   0  0  0  0  0  0  0  0  0  0  0  0
   42.8930   33.6450   36.0120 H   0  0  0  0  0  0  0  0  0  0  0  0
  1 13  1  0  0  0  0
  1  6  1  0  0  0  0
  2  1  2  0  0  0  0
  3  2  1  0  0  0  0
  3  4  2  0  0  0  0
  4  5  1  0  0  0  0
  5  6  2  0  0  0  0
  5  7  1  0  0  0  0
  7 12  1  0  0  0  0
  7  8  1  0  0  0  0
  8  9  1  0  0  0  0
  8 16  1  0  0  0  0
  9 10  1  0  0  0  0
  9 18  1  0  0  0  0
 10 11  1  0  0  0  0
 11 22  1  0  0  0  0
 11 21  1  0  0  0  0
 12 23  1  1  0  0  0
 12 11  1  0  0  0  0
 14  2  1  0  0  0  0
 15  3  1  0  0  0  0
 17  8  1  0  0  0  0
 19  9  1  0  0  0  0
 20 10  1  0  0  0  0
 24 26  1  0  0  0  0
 24 12  1  0  0  0  0
 25 24  1  0  0  0  0
 27 24  1  0  0  0  0
 28 27  2  0  0  0  0
 29 30  1  0  0  0  0
 29 28  1  0  0  0  0
 31 29  1  0  0  0  0
 32 38  1  6  0  0  0
 32 37  1  0  0  0  0
 32 33  1  0  0  0  0
 33 29  1  6  0  0  0
 33 34  1  0  0  0  0
 35 34  1  0  0  0  0
 36 35  1  0  0  0  0
 36 40  1  1  0  0  0
 37 42  1  6  0  0  0
 37 36  1  0  0  0  0
 39 38  1  0  0  0  0
 41 40  1  0  0  0  0
 43 42  1  0  0  0  0
M  END
>  <minimizedAffinity>
-5.77776098

$$$$

 OpenBabel03242517293D

 43 45  0  0  1  0  0  0  0  0999 V2000
   37.0160   28.1840   43.3250 C   0  0  0  0  0  0  0  0  0  0  0  0
   38.2680   28.8490   43.4050 C   0  0  0  0  0  0  0  0  0  0  0  0
   39.2790   28.4820   42.5120 C   0  0  0  0  0  0  0  0  0  0  0  0
   39.0200   27.5040   41.6050 N   0  0  0  0  0  0  0  0  0  0  0  0
   37.8200   26.8800   41.5420 C   0  0  0  0  0  0  0  0  0  0  0  0
   36.8460   27.2350   42.4040 N   0  0  0  0  0  0  0  0  0  0  0  0
   37.6260   25.8840   40.5820 N   0  0  0  0  0  0  0  0  0  0  0  0
   38.4740   24.7300   40.5550 C   0  0  0  0  0  0  0  0  0  0  0  0
   38.4180   23.9710   39.2630 C   0  0  0  0  0  0  0  0  0  0  0  0
   37.1640   23.9730   38.5840 N   0  0  0  0  0  0  0  0  0  0  0  0
   36.1170   24.6290   39.3110 C   0  0  0  0  0  0  0  0  0  0  0  0
   36.5450   26.0360   39.6070 C   0  0  2  0  0  0  0  0  0  0  0  0
   36.1870   28.3920   43.9600 H   0  0  0  0  0  0  0  0  0  0  0  0
   38.3610   29.6070   44.1620 H   0  0  0  0  0  0  0  0  0  0  0  0
   40.2210   28.9890   42.5780 H   0  0  0  0  0  0  0  0  0  0  0  0
   38.1670   24.0570   41.3810 H   0  0  0  0  0  0  0  0  0  0  0  0
   39.5540   24.9840   40.7530 H   0  0  0  0  0  0  0  0  0  0  0  0
   38.7050   22.9120   39.4810 H   0  0  0  0  0  0  0  0  0  0  0  0
   39.2500   24.3560   38.6080 H   0  0  0  0  0  0  0  0  0  0  0  0
   37.2840   24.3540   37.6190 H   0  0  0  0  0  0  0  0  0  0  0  0
   35.9780   24.0770   40.2570 H   0  0  0  0  0  0  0  0  0  0  0  0
   35.2070   24.6100   38.6980 H   0  0  0  0  0  0  0  0  0  0  0  0
   35.7350   26.5900   40.1210 H   0  0  0  0  0  0  0  0  0  0  0  0
   36.9680   26.7840   38.3900 C   0  0  0  0  0  0  0  0  0  0  0  0
   38.0770   26.7300   38.3160 H   0  0  0  0  0  0  0  0  0  0  0  0
   36.4600   26.3620   37.5000 H   0  0  0  0  0  0  0  0  0  0  0  0
   36.4840   28.1980   38.5170 C   0  0  0  0  0  3  0  0  0  0  0  0
   37.2870   29.2370   38.2970 C   0  0  0  0  0  3  0  0  0  0  0  0
   36.8560   30.6600   38.4110 C   0  0  0  0  0  0  0  0  0  0  0  0
   37.2530   31.2400   37.5590 H   0  0  0  0  0  0  0  0  0  0  0  0
   35.7540   30.6890   38.3670 H   0  0  0  0  0  0  0  0  0  0  0  0
   37.3480   32.7030   39.7690 C   0  0  1  0  0  3  0  0  0  0  0  0
   37.4240   31.2270   39.7020 C   0  0  2  0  0  3  0  0  0  0  0  0
   38.6380   30.6500   40.0280 O   0  0  0  0  0  0  0  0  0  0  0  0
   39.7270   31.4390   39.6910 C   0  0  0  0  0  2  0  0  0  0  0  0
   39.7100   32.5930   40.6600 C   0  0  1  0  0  3  0  0  0  0  0  0
   38.5120   33.4220   40.3730 C   0  0  1  0  0  3  0  0  0  0  0  0
   37.2030   33.2110   38.4740 O   0  0  0  0  0  0  0  0  0  0  0  0
   36.8640   34.1520   38.5690 H   0  0  0  0  0  0  0  0  0  0  0  0
   39.6910   32.1010   41.9600 O   0  0  0  0  0  0  0  0  0  0  0  0
   39.3160   32.8200   42.5340 H   0  0  0  0  0  0  0  0  0  0  0  0
   38.9170   34.5300   39.6120 O   0  0  0  0  0  0  0  0  0  0  0  0
   38.8940   34.3500   38.6450 H   0  0  0  0  0  0  0  0  0  0  0  0
  1  2  1  0  0  0  0
  1 13  1  0  0  0  0
  2 14  1  0  0  0  0
  3 15  1  0  0  0  0
  3  2  2  0  0  0  0
  4  3  1  0  0  0  0
  5  4  2  0  0  0  0
  5  6  1  0  0  0  0
  6  1  2  0  0  0  0
  7  5  1  0  0  0  0
  8  7  1  0  0  0  0
  8 17  1  0  0  0  0
  8 16  1  0  0  0  0
  9 18  1  0  0  0  0
  9  8  1  0  0  0  0
 10  9  1  0  0  0  0
 10 11  1  0  0  0  0
 11 12  1  0  0  0  0
 11 21  1  0  0  0  0
 12 23  1  1  0  0  0
 12  7  1  0  0  0  0
 19  9  1  0  0  0  0
 20 10  1  0  0  0  0
 22 11  1  0  0  0  0
 24 27  1  0  0  0  0
 24 12  1  0  0  0  0
 25 24  1  0  0  0  0
 26 24  1  0  0  0  0
 28 29  1  0  0  0  0
 28 27  2  0  0  0  0
 30 29  1  0  0  0  0
 31 29  1  0  0  0  0
 32 38  1  6  0  0  0
 32 37  1  0  0  0  0
 33 29  1  6  0  0  0
 33 32  1  0  0  0  0
 33 34  1  0  0  0  0
 35 34  1  0  0  0  0
 35 36  1  0  0  0  0
 36 40  1  1  0  0  0
 37 42  1  6  0  0  0
 37 36  1  0  0  0  0
 38 39  1  0  0  0  0
 40 41  1  0  0  0  0
 43 42  1  0  0  0  0
M  END
>  <minimizedAffinity>
-5.71301508

$$$$

 OpenBabel03242517293D

 43 45  0  0  1  0  0  0  0  0999 V2000
   39.1750   26.9830   43.7120 C   0  0  0  0  0  0  0  0  0  0  0  0
   40.4400   27.4330   43.2500 C   0  0  0  0  0  0  0  0  0  0  0  0
   40.9260   26.9350   42.0380 C   0  0  0  0  0  0  0  0  0  0  0  0
   40.1660   26.0410   41.3520 N   0  0  0  0  0  0  0  0  0  0  0  0
   38.9610   25.6230   41.8070 C   0  0  0  0  0  0  0  0  0  0  0  0
   38.4940   26.1040   42.9760 N   0  0  0  0  0  0  0  0  0  0  0  0
   38.2350   24.7010   41.0480 N   0  0  0  0  0  0  0  0  0  0  0  0
   38.8000   23.4270   40.7220 C   0  0  0  0  0  0  0  0  0  0  0  0
   38.1010   22.7280   39.5940 C   0  0  0  0  0  0  0  0  0  0  0  0
   36.6980   22.9550   39.4850 N   0  0  0  0  0  0  0  0  0  0  0  0
   36.1590   23.7490   40.5500 C   0  0  0  0  0  0  0  0  0  0  0  0
   36.8910   25.0580   40.5920 C   0  0  2  0  0  0  0  0  0  0  0  0
   38.7230   27.3040   44.6210 H   0  0  0  0  0  0  0  0  0  0  0  0
   40.9540   28.1420   43.8740 H   0  0  0  0  0  0  0  0  0  0  0  0
   41.8820   27.2790   41.6950 H   0  0  0  0  0  0  0  0  0  0  0  0
   38.7530   22.7870   41.6270 H   0  0  0  0  0  0  0  0  0  0  0  0
   39.8930   23.4960   40.4540 H   0  0  0  0  0  0  0  0  0  0  0  0
   38.2780   21.6300   39.7180 H   0  0  0  0  0  0  0  0  0  0  0  0
   38.6450   22.9930   38.6440 H   0  0  0  0  0  0  0  0  0  0  0  0
   36.4730   23.3410   38.5410 H   0  0  0  0  0  0  0  0  0  0  0  0
   36.3300   23.1980   41.4910 H   0  0  0  0  0  0  0  0  0  0  0  0
   35.0870   23.8980   40.3620 H   0  0  0  0  0  0  0  0  0  0  0  0
   36.4610   25.7200   41.3690 H   0  0  0  0  0  0  0  0  0  0  0  0
   36.8950   25.7650   39.2810 C   0  0  0  0  0  0  0  0  0  0  0  0
   37.8250   25.4840   38.7370 H   0  0  0  0  0  0  0  0  0  0  0  0
   35.9780   25.5070   38.7160 H   0  0  0  0  0  0  0  0  0  0  0  0
   36.8240   27.2400   39.5430 C   0  0  0  0  0  3  0  0  0  0  0  0
   35.7550   27.9610   39.2120 C   0  0  0  0  0  3  0  0  0  0  0  0
   35.6360   29.4290   39.4520 C   0  0  0  0  0  0  0  0  0  0  0  0
   35.0930   29.9010   38.6140 H   0  0  0  0  0  0  0  0  0  0  0  0
   35.0500   29.5800   40.3740 H   0  0  0  0  0  0  0  0  0  0  0  0
   37.1810   31.0440   40.5750 C   0  0  1  0  0  3  0  0  0  0  0  0
   37.0370   30.0130   39.5240 C   0  0  2  0  0  3  0  0  0  0  0  0
   37.5300   30.3280   38.2710 O   0  0  0  0  0  0  0  0  0  0  0  0
   37.4330   31.6770   37.9680 C   0  0  0  0  0  2  0  0  0  0  0  0
   38.4530   32.3650   38.8370 C   0  0  1  0  0  3  0  0  0  0  0  0
   38.0170   32.2410   40.2510 C   0  0  1  0  0  3  0  0  0  0  0  0
   35.9140   31.5320   40.9110 O   0  0  0  0  0  0  0  0  0  0  0  0
   36.0060   31.9910   41.7990 H   0  0  0  0  0  0  0  0  0  0  0  0
   39.6990   31.7820   38.6340 O   0  0  0  0  0  0  0  0  0  0  0  0
   40.2430   31.9770   39.4420 H   0  0  0  0  0  0  0  0  0  0  0  0
   37.4060   33.4470   40.6300 O   0  0  0  0  0  0  0  0  0  0  0  0
   36.4400   33.4530   40.4420 H   0  0  0  0  0  0  0  0  0  0  0  0
  1 13  1  0  0  0  0
  2  1  1  0  0  0  0
  2 14  1  0  0  0  0
  3  2  2  0  0  0  0
  4  5  2  0  0  0  0
  4  3  1  0  0  0  0
  5  6  1  0  0  0  0
  6  1  2  0  0  0  0
  7  5  1  0  0  0  0
  8  7  1  0  0  0  0
  8 16  1  0  0  0  0
  9 18  1  0  0  0  0
  9  8  1  0  0  0  0
 10  9  1  0  0  0  0
 10 11  1  0  0  0  0
 11 12  1  0  0  0  0
 11 21  1  0  0  0  0
 12  7  1  0  0  0  0
 12 23  1  1  0  0  0
 15  3  1  0  0  0  0
 17  8  1  0  0  0  0
 19  9  1  0  0  0  0
 20 10  1  0  0  0  0
 22 11  1  0  0  0  0
 24 27  1  0  0  0  0
 24 12  1  0  0  0  0
 25 24  1  0  0  0  0
 26 24  1  0  0  0  0
 28 29  1  0  0  0  0
 28 27  2  0  0  0  0
 29 31  1  0  0  0  0
 30 29  1  0  0  0  0
 32 38  1  6  0  0  0
 33 29  1  6  0  0  0
 33 32  1  0  0  0  0
 34 33  1  0  0  0  0
 35 34  1  0  0  0  0
 35 36  1  0  0  0  0
 36 40  1  1  0  0  0
 36 37  1  0  0  0  0
 37 32  1  0  0  0  0
 37 42  1  6  0  0  0
 38 39  1  0  0  0  0
 40 41  1  0  0  0  0
 43 42  1  0  0  0  0
M  END
>  <minimizedAffinity>
-5.68511915

$$$$

 OpenBabel03242517293D

 43 45  0  0  1  0  0  0  0  0999 V2000
   39.8610   28.4310   42.2490 C   0  0  0  0  0  0  0  0  0  0  0  0
   38.8980   28.2130   43.2700 C   0  0  0  0  0  0  0  0  0  0  0  0
   37.6910   28.9150   43.2120 C   0  0  0  0  0  0  0  0  0  0  0  0
   37.4890   29.7750   42.1800 N   0  0  0  0  0  0  0  0  0  0  0  0
   38.4180   29.9700   41.2140 C   0  0  0  0  0  0  0  0  0  0  0  0
   39.5820   29.2940   41.2720 N   0  0  0  0  0  0  0  0  0  0  0  0
   38.1400   30.8720   40.1830 N   0  0  0  0  0  0  0  0  0  0  0  0
   37.8410   32.2400   40.4780 C   0  0  0  0  0  0  0  0  0  0  0  0
   37.1800   32.9710   39.3470 C   0  0  0  0  0  0  0  0  0  0  0  0
   37.5620   32.5730   38.0320 N   0  0  0  0  0  0  0  0  0  0  0  0
   38.6060   31.5910   38.0070 C   0  0  0  0  0  0  0  0  0  0  0  0
   38.1610   30.3960   38.7980 C   0  0  2  0  0  0  0  0  0  0  0  0
   40.8070   27.9460   42.2080 H   0  0  0  0  0  0  0  0  0  0  0  0
   39.1650   27.5090   44.0380 H   0  0  0  0  0  0  0  0  0  0  0  0
   36.9680   28.7450   43.9860 H   0  0  0  0  0  0  0  0  0  0  0  0
   38.7900   32.7540   40.7330 H   0  0  0  0  0  0  0  0  0  0  0  0
   37.1800   32.3500   41.3850 H   0  0  0  0  0  0  0  0  0  0  0  0
   37.4060   34.0590   39.4720 H   0  0  0  0  0  0  0  0  0  0  0  0
   36.0670   32.8970   39.5020 H   0  0  0  0  0  0  0  0  0  0  0  0
   36.7170   32.2770   37.4920 H   0  0  0  0  0  0  0  0  0  0  0  0
   39.4930   32.0420   38.4850 H   0  0  0  0  0  0  0  0  0  0  0  0
   38.8050   31.3250   36.9610 H   0  0  0  0  0  0  0  0  0  0  0  0
   38.9240   29.5940   38.7540 H   0  0  0  0  0  0  0  0  0  0  0  0
   36.8450   29.8600   38.3530 C   0  0  0  0  0  0  0  0  0  0  0  0
   36.0720   30.1840   39.0840 H   0  0  0  0  0  0  0  0  0  0  0  0
   36.6310   30.2090   37.3240 H   0  0  0  0  0  0  0  0  0  0  0  0
   36.9500   28.3660   38.2750 C   0  0  0  0  0  3  0  0  0  0  0  0
   36.3530   27.5730   39.1620 C   0  0  0  0  0  3  0  0  0  0  0  0
   36.4260   26.0830   39.1280 C   0  0  0  0  0  0  0  0  0  0  0  0
   35.5040   25.6540   39.5570 H   0  0  0  0  0  0  0  0  0  0  0  0
   36.5000   25.7670   38.0740 H   0  0  0  0  0  0  0  0  0  0  0  0
   38.0600   24.2700   39.6760 C   0  0  1  0  0  3  0  0  0  0  0  0
   37.6130   25.6480   39.9730 C   0  0  2  0  0  3  0  0  0  0  0  0
   37.4440   25.9740   41.3060 O   0  0  0  0  0  0  0  0  0  0  0  0
   37.0290   24.9040   42.0830 C   0  0  0  0  0  2  0  0  0  0  0  0
   38.2190   23.9850   42.1820 C   0  0  1  0  0  3  0  0  0  0  0  0
   38.4830   23.4210   40.8330 C   0  0  1  0  0  3  0  0  0  0  0  0
   37.0210   23.5800   39.0440 O   0  0  0  0  0  0  0  0  0  0  0  0
   37.4330   22.7780   38.6000 H   0  0  0  0  0  0  0  0  0  0  0  0
   39.3130   24.6990   42.6590 O   0  0  0  0  0  0  0  0  0  0  0  0
   40.1260   24.2070   42.3700 H   0  0  0  0  0  0  0  0  0  0  0  0
   37.9390   22.1290   40.7840 O   0  0  0  0  0  0  0  0  0  0  0  0
   37.0010   22.1270   40.4860 H   0  0  0  0  0  0  0  0  0  0  0  0
  1  2  1  0  0  0  0
  2 14  1  0  0  0  0
  3  2  2  0  0  0  0
  3 15  1  0  0  0  0
  4  3  1  0  0  0  0
  5  6  1  0  0  0  0
  5  4  2  0  0  0  0
  6  1  2  0  0  0  0
  7  8  1  0  0  0  0
  7  5  1  0  0  0  0
  8 16  1  0  0  0  0
  8 17  1  0  0  0  0
  9 18  1  0  0  0  0
  9 19  1  0  0  0  0
  9  8  1  0  0  0  0
 10  9  1  0  0  0  0
 11 10  1  0  0  0  0
 11 21  1  0  0  0  0
 11 12  1  0  0  0  0
 12 23  1  6  0  0  0
 12  7  1  0  0  0  0
 13  1  1  0  0  0  0
 20 10  1  0  0  0  0
 22 11  1  0  0  0  0
 24 12  1  0  0  0  0
 24 25  1  0  0  0  0
 26 24  1  0  0  0  0
 27 24  1  0  0  0  0
 27 28  2  0  0  0  0
 29 28  1  0  0  0  0
 29 30  1  0  0  0  0
 31 29  1  0  0  0  0
 32 38  1  1  0  0  0
 32 33  1  0  0  0  0
 32 37  1  0  0  0  0
 33 29  1  6  0  0  0
 33 34  1  0  0  0  0
 34 35  1  0  0  0  0
 35 36  1  0  0  0  0
 36 40  1  6  0  0  0
 37 42  1  1  0  0  0
 37 36  1  0  0  0  0
 39 38  1  0  0  0  0
 41 40  1  0  0  0  0
 43 42  1  0  0  0  0
M  END
>  <minimizedAffinity>
-5.65152979

$$$$

 OpenBabel03242517293D

 43 45  0  0  1  0  0  0  0  0999 V2000
   36.0810   28.0770   38.6150 C   0  0  0  0  0  0  0  0  0  0  0  0
   35.1440   29.0550   39.0450 C   0  0  0  0  0  0  0  0  0  0  0  0
   35.2480   29.5530   40.3460 C   0  0  0  0  0  0  0  0  0  0  0  0
   36.2410   29.0830   41.1450 N   0  0  0  0  0  0  0  0  0  0  0  0
   37.1260   28.1510   40.7180 C   0  0  0  0  0  0  0  0  0  0  0  0
   37.0250   27.6700   39.4640 N   0  0  0  0  0  0  0  0  0  0  0  0
   38.1210   27.7140   41.5960 N   0  0  0  0  0  0  0  0  0  0  0  0
   37.7710   27.1240   42.8530 C   0  0  0  0  0  0  0  0  0  0  0  0
   38.9030   27.0820   43.8360 C   0  0  0  0  0  0  0  0  0  0  0  0
   40.2080   26.9130   43.2880 N   0  0  0  0  0  0  0  0  0  0  0  0
   40.2150   26.7080   41.8690 C   0  0  0  0  0  0  0  0  0  0  0  0
   39.5260   27.8680   41.2120 C   0  0  2  0  0  0  0  0  0  0  0  0
   36.0830   27.6390   37.6450 H   0  0  0  0  0  0  0  0  0  0  0  0
   34.4000   29.3540   38.3280 H   0  0  0  0  0  0  0  0  0  0  0  0
   34.5370   30.2910   40.6640 H   0  0  0  0  0  0  0  0  0  0  0  0
   37.4210   26.0890   42.6620 H   0  0  0  0  0  0  0  0  0  0  0  0
   36.9080   27.6510   43.3510 H   0  0  0  0  0  0  0  0  0  0  0  0
   38.7010   26.2410   44.5460 H   0  0  0  0  0  0  0  0  0  0  0  0
   38.8310   28.0080   44.4740 H   0  0  0  0  0  0  0  0  0  0  0  0
   40.8220   27.7060   43.5830 H   0  0  0  0  0  0  0  0  0  0  0  0
   39.6510   25.7800   41.6680 H   0  0  0  0  0  0  0  0  0  0  0  0
   41.2580   26.6240   41.5370 H   0  0  0  0  0  0  0  0  0  0  0  0
   39.5620   27.7690   40.1090 H   0  0  0  0  0  0  0  0  0  0  0  0
   40.0930   29.1850   41.6140 C   0  0  0  0  0  0  0  0  0  0  0  0
   39.2600   29.8250   41.9830 H   0  0  0  0  0  0  0  0  0  0  0  0
   40.8820   29.0330   42.3760 H   0  0  0  0  0  0  0  0  0  0  0  0
   40.7730   29.7870   40.4200 C   0  0  0  0  0  3  0  0  0  0  0  0
   40.1310   29.9810   39.2710 C   0  0  0  0  0  3  0  0  0  0  0  0
   40.7620   30.5750   38.0560 C   0  0  0  0  0  0  0  0  0  0  0  0
   41.1570   29.7710   37.4100 H   0  0  0  0  0  0  0  0  0  0  0  0
   39.9840   31.1190   37.4960 H   0  0  0  0  0  0  0  0  0  0  0  0
   41.7130   32.8860   38.1680 C   0  0  1  0  0  3  0  0  0  0  0  0
   41.9140   31.4600   38.5040 C   0  0  2  0  0  3  0  0  0  0  0  0
   43.1420   30.9110   38.1830 O   0  0  0  0  0  0  0  0  0  0  0  0
   43.7070   31.4640   37.0440 C   0  0  0  0  0  2  0  0  0  0  0  0
   44.1310   32.8560   37.4340 C   0  0  1  0  0  3  0  0  0  0  0  0
   42.9080   33.6560   37.7020 C   0  0  1  0  0  3  0  0  0  0  0  0
   40.7630   32.9830   37.1470 O   0  0  0  0  0  0  0  0  0  0  0  0
   40.4360   33.9330   37.1450 H   0  0  0  0  0  0  0  0  0  0  0  0
   44.9520   32.7900   38.5540 O   0  0  0  0  0  0  0  0  0  0  0  0
   44.9090   33.6790   38.9950 H   0  0  0  0  0  0  0  0  0  0  0  0
   42.6390   34.4390   36.5690 O   0  0  0  0  0  0  0  0  0  0  0  0
   42.0660   33.9730   35.9180 H   0  0  0  0  0  0  0  0  0  0  0  0
  1  2  2  0  0  0  0
  1  6  1  0  0  0  0
  2  3  1  0  0  0  0
  3 15  1  0  0  0  0
  3  4  2  0  0  0  0
  5  4  1  0  0  0  0
  5  7  1  0  0  0  0
  6  5  2  0  0  0  0
  7  8  1  0  0  0  0
  8 17  1  0  0  0  0
  8  9  1  0  0  0  0
  9 19  1  0  0  0  0
  9 18  1  0  0  0  0
 10 20  1  0  0  0  0
 10  9  1  0  0  0  0
 11 10  1  0  0  0  0
 12 23  1  6  0  0  0
 12  7  1  0  0  0  0
 12 24  1  0  0  0  0
 12 11  1  0  0  0  0
 13  1  1  0  0  0  0
 14  2  1  0  0  0  0
 16  8  1  0  0  0  0
 21 11  1  0  0  0  0
 22 11  1  0  0  0  0
 24 25  1  0  0  0  0
 24 26  1  0  0  0  0
 27 24  1  0  0  0  0
 28 27  2  0  0  0  0
 29 28  1  0  0  0  0
 30 29  1  0  0  0  0
 31 29  1  0  0  0  0
 32 38  1  6  0  0  0
 32 33  1  0  0  0  0
 33 29  1  6  0  0  0
 34 33  1  0  0  0  0
 35 36  1  0  0  0  0
 35 34  1  0  0  0  0
 36 37  1  0  0  0  0
 36 40  1  1  0  0  0
 37 42  1  6  0  0  0
 37 32  1  0  0  0  0
 39 38  1  0  0  0  0
 40 41  1  0  0  0  0
 43 42  1  0  0  0  0
M  END
>  <minimizedAffinity>
-5.64009571

$$$$

 OpenBabel03242517293D

 43 45  0  0  1  0  0  0  0  0999 V2000
   37.1260   27.2490   41.0360 C   0  0  0  0  0  0  0  0  0  0  0  0
   36.6520   27.9410   42.1830 C   0  0  0  0  0  0  0  0  0  0  0  0
   37.4990   28.0630   43.2880 C   0  0  0  0  0  0  0  0  0  0  0  0
   38.7410   27.5160   43.2180 N   0  0  0  0  0  0  0  0  0  0  0  0
   39.1770   26.8610   42.1160 C   0  0  0  0  0  0  0  0  0  0  0  0
   38.3590   26.7430   41.0520 N   0  0  0  0  0  0  0  0  0  0  0  0
   40.4670   26.3250   42.1160 N   0  0  0  0  0  0  0  0  0  0  0  0
   40.8530   25.3670   43.1070 C   0  0  0  0  0  0  0  0  0  0  0  0
   42.3370   25.1940   43.2340 C   0  0  0  0  0  0  0  0  0  0  0  0
   43.0940   25.3510   42.0360 N   0  0  0  0  0  0  0  0  0  0  0  0
   42.2890   25.5550   40.8680 C   0  0  0  0  0  0  0  0  0  0  0  0
   41.4170   26.7560   41.0880 C   0  0  2  0  0  0  0  0  0  0  0  0
   36.5560   27.1040   40.1490 H   0  0  0  0  0  0  0  0  0  0  0  0
   35.6520   28.3330   42.1270 H   0  0  0  0  0  0  0  0  0  0  0  0
   37.1350   28.5870   44.1500 H   0  0  0  0  0  0  0  0  0  0  0  0
   40.3980   24.3910   42.8390 H   0  0  0  0  0  0  0  0  0  0  0  0
   40.4530   25.6200   44.1300 H   0  0  0  0  0  0  0  0  0  0  0  0
   42.5230   24.1690   43.6420 H   0  0  0  0  0  0  0  0  0  0  0  0
   42.6910   25.8870   44.0480 H   0  0  0  0  0  0  0  0  0  0  0  0
   43.8120   26.1000   42.1650 H   0  0  0  0  0  0  0  0  0  0  0  0
   41.6580   24.6570   40.7420 H   0  0  0  0  0  0  0  0  0  0  0  0
   42.9560   25.6990   40.0080 H   0  0  0  0  0  0  0  0  0  0  0  0
   40.8190   26.9750   40.1810 H   0  0  0  0  0  0  0  0  0  0  0  0
   42.1850   27.9680   41.4860 C   0  0  0  0  0  0  0  0  0  0  0  0
   42.0360   28.1330   42.5760 H   0  0  0  0  0  0  0  0  0  0  0  0
   43.2520   27.8370   41.2160 H   0  0  0  0  0  0  0  0  0  0  0  0
   41.6880   29.1260   40.6720 C   0  0  0  0  0  3  0  0  0  0  0  0
   40.7960   28.9670   39.6960 C   0  0  0  0  0  3  0  0  0  0  0  0
   40.2710   30.0840   38.8600 C   0  0  0  0  0  0  0  0  0  0  0  0
   40.8170   31.0150   39.0930 H   0  0  0  0  0  0  0  0  0  0  0  0
   40.4480   29.8330   37.8000 H   0  0  0  0  0  0  0  0  0  0  0  0
   38.1260   31.2490   38.3080 C   0  0  1  0  0  3  0  0  0  0  0  0
   38.8000   30.2770   39.1960 C   0  0  2  0  0  3  0  0  0  0  0  0
   38.5970   30.4310   40.5550 O   0  0  0  0  0  0  0  0  0  0  0  0
   38.4300   31.7530   40.9370 C   0  0  0  0  0  2  0  0  0  0  0  0
   37.0750   32.1590   40.4170 C   0  0  1  0  0  3  0  0  0  0  0  0
   37.1330   32.1760   38.9330 C   0  0  1  0  0  3  0  0  0  0  0  0
   39.0920   32.0600   37.7030 O   0  0  0  0  0  0  0  0  0  0  0  0
   38.6530   32.4920   36.9100 H   0  0  0  0  0  0  0  0  0  0  0  0
   36.1180   31.2630   40.8800 O   0  0  0  0  0  0  0  0  0  0  0  0
   35.3470   31.3190   40.2560 H   0  0  0  0  0  0  0  0  0  0  0  0
   37.2970   33.5060   38.5160 O   0  0  0  0  0  0  0  0  0  0  0  0
   38.2450   33.7650   38.4520 H   0  0  0  0  0  0  0  0  0  0  0  0
  1  6  2  0  0  0  0
  1  2  1  0  0  0  0
  2  3  2  0  0  0  0
  3 15  1  0  0  0  0
  4  3  1  0  0  0  0
  5  7  1  0  0  0  0
  5  4  2  0  0  0  0
  6  5  1  0  0  0  0
  7  8  1  0  0  0  0
  8  9  1  0  0  0  0
  8 17  1  0  0  0  0
  9 18  1  0  0  0  0
  9 19  1  0  0  0  0
 10 20  1  0  0  0  0
 10  9  1  0  0  0  0
 11 12  1  0  0  0  0
 11 10  1  0  0  0  0
 12 23  1  6  0  0  0
 12 24  1  0  0  0  0
 12  7  1  0  0  0  0
 13  1  1  0  0  0  0
 14  2  1  0  0  0  0
 16  8  1  0  0  0  0
 21 11  1  0  0  0  0
 22 11  1  0  0  0  0
 24 25  1  0  0  0  0
 26 24  1  0  0  0  0
 27 24  1  0  0  0  0
 28 27  2  0  0  0  0
 29 30  1  0  0  0  0
 29 28  1  0  0  0  0
 31 29  1  0  0  0  0
 32 38  1  1  0  0  0
 32 37  1  0  0  0  0
 32 33  1  0  0  0  0
 33 29  1  1  0  0  0
 33 34  1  0  0  0  0
 34 35  1  0  0  0  0
 36 40  1  6  0  0  0
 36 35  1  0  0  0  0
 37 42  1  1  0  0  0
 37 36  1  0  0  0  0
 39 38  1  0  0  0  0
 41 40  1  0  0  0  0
 43 42  1  0  0  0  0
M  END
>  <minimizedAffinity>
-5.49567461

$$$$
