
 OpenBabel03252507463D

 40 42  0  0  1  0  0  0  0  0999 V2000
   48.4590   33.2900   40.3060 C   0  0  0  0  0  0  0  0  0  0  0  0
   48.6110   32.3760   39.2820 C   0  0  0  0  0  0  0  0  0  0  0  0
   49.6290   31.4340   39.2970 C   0  0  0  0  0  0  0  0  0  0  0  0
   50.4740   31.4570   40.3810 N   0  0  0  0  0  0  0  0  0  0  0  0
   50.2940   32.3630   41.3590 C   0  0  0  0  0  0  0  0  0  0  0  0
   49.3130   33.2530   41.3220 N   0  0  0  0  0  0  0  0  0  0  0  0
   49.7520   30.7170   38.4980 H   0  0  0  0  0  0  0  0  0  0  0  0
   50.9360   32.4150   42.2290 H   0  0  0  0  0  0  0  0  0  0  0  0
   47.3440   34.2490   40.1950 C   0  0  0  0  0  0  0  0  0  0  0  0
   46.5240   33.8420   39.5660 H   0  0  0  0  0  0  0  0  0  0  0  0
   47.6700   35.1960   39.7060 H   0  0  0  0  0  0  0  0  0  0  0  0
   46.7130   34.5680   41.5270 C   0  0  0  0  0  0  0  0  0  0  0  0
   47.2010   35.4820   41.9330 H   0  0  0  0  0  0  0  0  0  0  0  0
   46.9120   33.7110   42.2000 H   0  0  0  0  0  0  0  0  0  0  0  0
   45.2350   34.7180   41.4780 C   0  0  0  0  0  0  0  0  0  0  0  0
   44.5720   35.4980   42.4710 C   0  0  0  0  0  0  0  0  0  0  0  0
   42.8040   35.3740   41.9790 S   0  0  0  0  0  0  0  0  0  0  0  0
   43.2680   34.2720   40.4940 C   0  0  0  0  0  0  0  0  0  0  0  0
   44.4000   34.2070   40.6010 N   0  0  0  0  0  0  0  0  0  0  0  0
   45.0190   36.0210   43.2950 H   0  0  0  0  0  0  0  0  0  0  0  0
   42.3240   33.7630   39.6010 O   0  0  0  0  0  0  0  0  0  0  0  0
   40.5260   34.1460   37.6950 O   0  0  0  0  0  0  0  0  0  0  0  0
   41.5320   34.8710   38.5860 P   0  0  0  0  0  0  0  0  0  0  0  0
   40.7280   35.9870   39.5570 O   0  0  0  0  0  0  0  0  0  0  0  0
   39.9450   36.3040   39.0600 H   0  0  0  0  0  0  0  0  0  0  0  0
   42.6830   35.6940   37.6440 O   0  0  0  0  0  0  0  0  0  0  0  0
   42.3150   36.1200   36.8520 H   0  0  0  0  0  0  0  0  0  0  0  0
   47.4650   32.3940   37.8800 S   0  0  0  0  0  0  0  0  0  0  0  0
   49.0300   32.2350   35.7060 C   0  0  2  0  0  3  0  0  0  0  0  0
   48.0960   31.3730   36.5610 C   0  0  2  0  0  3  0  0  0  0  0  0
   47.0040   30.9350   35.8090 O   0  0  0  0  0  0  0  0  0  0  0  0
   46.5670   32.0230   35.0510 C   0  0  0  0  0  2  0  0  0  0  0  0
   47.4110   32.0360   33.7990 C   0  0  2  0  0  3  0  0  0  0  0  0
   48.8590   31.9220   34.2380 C   0  0  1  0  0  3  0  0  0  0  0  0
   50.3570   31.9520   36.0340 O   0  0  0  0  0  0  0  0  0  0  0  0
   50.9210   32.4640   35.4330 H   0  0  0  0  0  0  0  0  0  0  0  0
   47.1700   33.1840   33.0420 O   0  0  0  0  0  0  0  0  0  0  0  0
   47.9250   33.3820   32.4390 H   0  0  0  0  0  0  0  0  0  0  0  0
   49.6260   32.8330   33.5260 O   0  0  0  0  0  0  0  0  0  0  0  0
   49.9250   33.6100   34.0310 H   0  0  0  0  0  0  0  0  0  0  0  0
  1  6  1  0  0  0  0
  2  3  1  0  0  0  0
  2  1  2  0  0  0  0
  3  4  2  0  0  0  0
  4  5  1  0  0  0  0
  5  8  1  0  0  0  0
  6  5  2  0  0  0  0
  7  3  1  0  0  0  0
  9  1  1  0  0  0  0
  9 12  1  0  0  0  0
 10  9  1  0  0  0  0
 11  9  1  0  0  0  0
 12 13  1  0  0  0  0
 12 14  1  0  0  0  0
 15 12  1  0  0  0  0
 15 16  2  0  0  0  0
 16 20  1  0  0  0  0
 17 16  1  0  0  0  0
 18 19  2  0  0  0  0
 18 17  1  0  0  0  0
 19 15  1  0  0  0  0
 21 18  1  0  0  0  0
 22 23  2  0  0  0  0
 23 24  1  0  0  0  0
 23 21  1  0  0  0  0
 25 24  1  0  0  0  0
 26 23  1  0  0  0  0
 27 26  1  0  0  0  0
 28  2  1  0  0  0  0
 29 35  1  1  0  0  0
 29 30  1  0  0  0  0
 30 28  1  1  0  0  0
 31 30  1  0  0  0  0
 32 31  1  0  0  0  0
 33 37  1  1  0  0  0
 33 34  1  0  0  0  0
 33 32  1  0  0  0  0
 34 39  1  6  0  0  0
 34 29  1  0  0  0  0
 36 35  1  0  0  0  0
 38 37  1  0  0  0  0
 39 40  1  0  0  0  0
M  END
>  <minimizedAffinity>
-6.05785131

>  <minimizedRMSD>
4.25027514

$$$$
