
 OpenBabel03242522503D

 29 30  0  0  1  0  0  0  0  0999 V2000
   47.3900   31.7220   48.3670 O   0  0  0  0  0  0  0  0  0  0  0  0
   45.1100   30.6070   47.7260 O   0  0  0  0  0  0  0  0  0  0  0  0
   45.7400   31.8310   48.4300 P   0  0  1  0  0  0  0  0  0  0  0  0
   45.1680   31.7900   50.0090 O   0  0  0  0  0  0  0  0  0  0  0  0
   44.5900   32.5580   50.2500 H   0  0  0  0  0  0  0  0  0  0  0  0
   45.2090   33.2260   47.6460 O   0  0  0  0  0  0  0  0  0  0  0  0
   47.0500   33.0110   44.5210 C   0  0  0  0  0  0  0  0  0  0  0  0
   46.6220   32.7590   45.8360 C   0  0  0  0  0  0  0  0  0  0  0  0
   45.5910   33.5090   46.3520 C   0  0  0  0  0  0  0  0  0  0  0  0
   45.0400   34.4550   45.5580 N   0  0  0  0  0  0  0  0  0  0  0  0
   45.4430   34.6980   44.3060 C   0  0  0  0  0  0  0  0  0  0  0  0
   46.4610   33.9650   43.7840 N   0  0  0  0  0  0  0  0  0  0  0  0
   47.8500   32.4770   44.0260 H   0  0  0  0  0  0  0  0  0  0  0  0
   47.1840   31.9770   46.2770 H   0  0  0  0  0  0  0  0  0  0  0  0
   44.9850   35.4560   43.7030 H   0  0  0  0  0  0  0  0  0  0  0  0
   48.2380   30.7120   48.6710 C   0  0  0  0  0  0  0  0  0  0  0  0
   48.6880   30.7790   49.8680 O   0  0  0  0  0  0  0  0  0  0  0  0
   50.4450   29.7960   48.0240 C   0  0  2  0  0  3  0  0  0  0  0  0
   49.0630   29.4940   48.5620 C   0  0  2  0  0  3  0  0  0  0  0  0
   48.4240   28.4980   47.8340 O   0  0  0  0  0  0  0  0  0  0  0  0
   48.8060   28.4030   46.5170 C   0  0  0  0  0  2  0  0  0  0  0  0
   50.2640   28.1770   46.2720 C   0  0  2  0  0  3  0  0  0  0  0  0
   50.9890   28.4430   47.5800 C   0  0  1  0  0  3  0  0  0  0  0  0
   51.2590   30.3220   49.0540 O   0  0  0  0  0  0  0  0  0  0  0  0
   51.7890   29.5790   49.4460 H   0  0  0  0  0  0  0  0  0  0  0  0
   50.7600   29.1530   45.3800 O   0  0  0  0  0  0  0  0  0  0  0  0
   50.2080   29.2340   44.5730 H   0  0  0  0  0  0  0  0  0  0  0  0
   52.3630   28.4530   47.4070 O   0  0  0  0  0  0  0  0  0  0  0  0
   52.7490   29.3110   47.6660 H   0  0  0  0  0  0  0  0  0  0  0  0
  1  3  1  0  0  0  0
  1 16  1  0  0  0  0
  3  2  2  6  0  0  0
  3  4  1  0  0  0  0
  4  5  1  0  0  0  0
  6  3  1  0  0  0  0
  7  8  1  0  0  0  0
  8 14  1  0  0  0  0
  8  9  2  0  0  0  0
  9  6  1  0  0  0  0
 10  9  1  0  0  0  0
 11 10  2  0  0  0  0
 12 11  1  0  0  0  0
 12  7  2  0  0  0  0
 13  7  1  0  0  0  0
 15 11  1  0  0  0  0
 16 17  2  0  0  0  0
 18 19  1  0  0  0  0
 18 24  1  1  0  0  0
 19 16  1  6  0  0  0
 20 19  1  0  0  0  0
 21 20  1  0  0  0  0
 22 26  1  6  0  0  0
 22 21  1  0  0  0  0
 22 23  1  0  0  0  0
 23 28  1  6  0  0  0
 23 18  1  0  0  0  0
 24 25  1  0  0  0  0
 27 26  1  0  0  0  0
 28 29  1  0  0  0  0
M  END
>  <minimizedAffinity>
-4.56178617

>  <minimizedRMSD>
0.773398936

$$$$
