
 OpenBabel03242522503D

 29 30  0  0  1  0  0  0  0  0999 V2000
   47.3910   31.7040   48.4890 O   0  0  0  0  0  0  0  0  0  0  0  0
   45.1390   30.5690   47.7870 O   0  0  0  0  0  0  0  0  0  0  0  0
   45.7400   31.8000   48.5030 P   0  0  1  0  0  0  0  0  0  0  0  0
   45.1220   31.7610   50.0650 O   0  0  0  0  0  0  0  0  0  0  0  0
   44.5310   32.5250   50.2860 H   0  0  0  0  0  0  0  0  0  0  0  0
   45.2210   33.1880   47.6980 O   0  0  0  0  0  0  0  0  0  0  0  0
   47.0690   32.9170   44.5820 C   0  0  0  0  0  0  0  0  0  0  0  0
   46.6370   32.6880   45.9000 C   0  0  0  0  0  0  0  0  0  0  0  0
   45.6080   33.4490   46.4010 C   0  0  0  0  0  0  0  0  0  0  0  0
   45.0610   34.3840   45.5910 N   0  0  0  0  0  0  0  0  0  0  0  0
   45.4690   34.6060   44.3360 C   0  0  0  0  0  0  0  0  0  0  0  0
   46.4860   33.8610   43.8280 N   0  0  0  0  0  0  0  0  0  0  0  0
   47.8690   32.3730   44.0980 H   0  0  0  0  0  0  0  0  0  0  0  0
   47.1960   31.9110   46.3550 H   0  0  0  0  0  0  0  0  0  0  0  0
   45.0140   35.3550   43.7200 H   0  0  0  0  0  0  0  0  0  0  0  0
   48.2350   30.6710   48.7210 C   0  0  0  0  0  0  0  0  0  0  0  0
   48.7390   30.6920   49.8970 O   0  0  0  0  0  0  0  0  0  0  0  0
   50.3980   29.7450   47.9510 C   0  0  2  0  0  3  0  0  0  0  0  0
   49.0340   29.4450   48.5340 C   0  0  2  0  0  3  0  0  0  0  0  0
   48.3490   28.4860   47.7980 O   0  0  0  0  0  0  0  0  0  0  0  0
   48.6760   28.4340   46.4650 C   0  0  0  0  0  2  0  0  0  0  0  0
   50.1180   28.1930   46.1510 C   0  0  2  0  0  3  0  0  0  0  0  0
   50.9000   28.4000   47.4370 C   0  0  1  0  0  3  0  0  0  0  0  0
   51.2620   30.2200   48.9650 O   0  0  0  0  0  0  0  0  0  0  0  0
   51.7950   29.4560   49.3080 H   0  0  0  0  0  0  0  0  0  0  0  0
   50.5950   29.1940   45.2750 O   0  0  0  0  0  0  0  0  0  0  0  0
   50.0130   29.3130   44.4960 H   0  0  0  0  0  0  0  0  0  0  0  0
   52.2650   28.3950   47.2090 O   0  0  0  0  0  0  0  0  0  0  0  0
   52.6770   29.2370   47.4810 H   0  0  0  0  0  0  0  0  0  0  0  0
  1  3  1  0  0  0  0
  1 16  1  0  0  0  0
  3  2  2  6  0  0  0
  3  4  1  0  0  0  0
  4  5  1  0  0  0  0
  6  3  1  0  0  0  0
  7  8  1  0  0  0  0
  8 14  1  0  0  0  0
  8  9  2  0  0  0  0
  9  6  1  0  0  0  0
 10  9  1  0  0  0  0
 11 10  2  0  0  0  0
 12 11  1  0  0  0  0
 12  7  2  0  0  0  0
 13  7  1  0  0  0  0
 15 11  1  0  0  0  0
 16 17  2  0  0  0  0
 18 19  1  0  0  0  0
 18 24  1  1  0  0  0
 19 16  1  6  0  0  0
 20 19  1  0  0  0  0
 21 20  1  0  0  0  0
 22 26  1  6  0  0  0
 22 21  1  0  0  0  0
 22 23  1  0  0  0  0
 23 28  1  6  0  0  0
 23 18  1  0  0  0  0
 24 25  1  0  0  0  0
 27 26  1  0  0  0  0
 28 29  1  0  0  0  0
M  END
>  <minimizedAffinity>
-4.54334736

>  <minimizedRMSD>
1.03812015

$$$$
