
 OpenBabel03242521293D

 38 40  0  0  1  0  0  0  0  0999 V2000
   37.3870   29.6790   41.8070 C   0  0  1  0  0  0  0  0  0  0  0  0
   37.8310   28.4590   41.0360 C   0  0  2  0  0  0  0  0  0  0  0  0
   36.7670   27.8240   40.4240 O   0  0  0  0  0  0  0  0  0  0  0  0
   36.3660   28.6520   39.3890 C   0  0  0  0  0  0  0  0  0  0  0  0
   35.6590   29.8400   39.9880 C   0  0  2  0  0  0  0  0  0  0  0  0
   36.3940   30.5250   41.0860 C   0  0  2  0  0  0  0  0  0  0  0  0
   38.3160   30.3050   41.9570 H   0  0  0  0  0  0  0  0  0  0  0  0
   38.5430   28.8330   40.2750 H   0  0  0  0  0  0  0  0  0  0  0  0
   37.2270   28.9530   38.7450 H   0  0  0  0  0  0  0  0  0  0  0  0
   35.6220   28.0990   38.7740 H   0  0  0  0  0  0  0  0  0  0  0  0
   35.4040   30.5990   39.2200 H   0  0  0  0  0  0  0  0  0  0  0  0
   35.6220   30.8340   41.8500 H   0  0  0  0  0  0  0  0  0  0  0  0
   38.9120   25.2490   42.7420 C   0  0  0  0  0  0  0  0  0  0  0  0
   38.2470   26.1240   41.8680 C   0  0  0  0  0  0  0  0  0  0  0  0
   38.5200   27.5190   41.9300 C   0  0  0  0  0  0  0  0  0  0  0  0
   39.4220   27.9290   42.8460 N   0  0  0  0  0  0  0  0  0  0  0  0
   40.0510   27.0680   43.6790 C   0  0  0  0  0  0  0  0  0  0  0  0
   39.8020   25.7300   43.6330 N   0  0  0  0  0  0  0  0  0  0  0  0
   38.7200   24.1860   42.7120 H   0  0  0  0  0  0  0  0  0  0  0  0
   37.5250   25.7430   41.1430 H   0  0  0  0  0  0  0  0  0  0  0  0
   40.7620   27.5360   44.3780 H   0  0  0  0  0  0  0  0  0  0  0  0
   36.9840   29.3630   43.1100 O   0  0  0  0  0  0  0  0  0  0  0  0
   36.1930   28.7880   43.1160 H   0  0  0  0  0  0  0  0  0  0  0  0
   34.4150   29.3510   40.4300 O   0  0  0  0  0  0  0  0  0  0  0  0
   34.1140   28.6020   39.8920 H   0  0  0  0  0  0  0  0  0  0  0  0
   36.9480   31.7520   40.6810 O   0  0  0  0  0  0  0  0  0  0  0  0
   38.9150   32.9970   40.9600 C   0  0  1  0  0  3  0  0  0  0  0  0
   38.3040   31.7070   40.4780 C   0  0  2  0  0  3  0  0  0  0  0  0
   38.5730   31.4490   39.1440 O   0  0  0  0  0  0  0  0  0  0  0  0
   39.9020   31.3430   38.8330 C   0  0  0  0  0  2  0  0  0  0  0  0
   40.8150   31.9930   39.8180 C   0  0  2  0  0  3  0  0  0  0  0  0
   40.2200   33.3060   40.2630 C   0  0  1  0  0  3  0  0  0  0  0  0
   38.1000   34.1010   40.8340 O   0  0  0  0  0  0  0  0  0  0  0  0
   37.3730   34.0200   40.1940 H   0  0  0  0  0  0  0  0  0  0  0  0
   42.0450   32.2120   39.2000 O   0  0  0  0  0  0  0  0  0  0  0  0
   42.0370   31.9140   38.2560 H   0  0  0  0  0  0  0  0  0  0  0  0
   40.0470   34.1610   39.1680 O   0  0  0  0  0  0  0  0  0  0  0  0
   39.2690   33.8990   38.6050 H   0  0  0  0  0  0  0  0  0  0  0  0
  1  7  1  1  0  0  0
  1 22  1  0  0  0  0
  2  8  1  6  0  0  0
  2  1  1  0  0  0  0
  2 15  1  0  0  0  0
  3  2  1  0  0  0  0
  4  5  1  0  0  0  0
  4  3  1  0  0  0  0
  5 11  1  6  0  0  0
  5 24  1  0  0  0  0
  5  6  1  0  0  0  0
  6  1  1  0  0  0  0
  6 12  1  1  0  0  0
  9  4  1  0  0  0  0
 10  4  1  0  0  0  0
 13 18  1  0  0  0  0
 14 15  1  0  0  0  0
 14 13  2  0  0  0  0
 15 16  2  0  0  0  0
 16 17  1  0  0  0  0
 17 21  1  0  0  0  0
 18 17  2  0  0  0  0
 19 13  1  0  0  0  0
 20 14  1  0  0  0  0
 22 23  1  0  0  0  0
 25 24  1  0  0  0  0
 26  6  1  0  0  0  0
 27 33  1  6  0  0  0
 28 26  1  6  0  0  0
 28 27  1  0  0  0  0
 29 28  1  0  0  0  0
 30 29  1  0  0  0  0
 30 31  1  0  0  0  0
 31 35  1  6  0  0  0
 31 32  1  0  0  0  0
 32 37  1  6  0  0  0
 32 27  1  0  0  0  0
 34 33  1  0  0  0  0
 36 35  1  0  0  0  0
 38 37  1  0  0  0  0
M  END
>  <minimizedAffinity>
-6.7465744

$$$$

 OpenBabel03242521293D

 38 40  0  0  1  0  0  0  0  0999 V2000
   39.5310   30.9070   40.8450 C   0  0  1  0  0  0  0  0  0  0  0  0
   38.0740   30.5290   40.7210 C   0  0  2  0  0  0  0  0  0  0  0  0
   37.2420   31.5580   41.1200 O   0  0  0  0  0  0  0  0  0  0  0  0
   37.3400   32.5350   40.1420 C   0  0  0  0  0  0  0  0  0  0  0  0
   38.6820   33.2060   40.2850 C   0  0  2  0  0  0  0  0  0  0  0  0
   39.8450   32.2810   40.3610 C   0  0  2  0  0  0  0  0  0  0  0  0
   40.0950   30.1820   40.1870 H   0  0  0  0  0  0  0  0  0  0  0  0
   37.9170   30.3040   39.6490 H   0  0  0  0  0  0  0  0  0  0  0  0
   37.1850   32.1120   39.1210 H   0  0  0  0  0  0  0  0  0  0  0  0
   36.5620   33.3030   40.3450 H   0  0  0  0  0  0  0  0  0  0  0  0
   38.8700   33.9280   39.4650 H   0  0  0  0  0  0  0  0  0  0  0  0
   40.5650   32.7270   41.1090 H   0  0  0  0  0  0  0  0  0  0  0  0
   37.3730   26.9290   41.6840 C   0  0  0  0  0  0  0  0  0  0  0  0
   37.6520   28.0570   40.8970 C   0  0  0  0  0  0  0  0  0  0  0  0
   37.7940   29.3290   41.5200 C   0  0  0  0  0  0  0  0  0  0  0  0
   37.6480   29.3770   42.8610 N   0  0  0  0  0  0  0  0  0  0  0  0
   37.3780   28.2760   43.6000 C   0  0  0  0  0  0  0  0  0  0  0  0
   37.2400   27.0510   43.0200 N   0  0  0  0  0  0  0  0  0  0  0  0
   37.2620   25.9530   41.2320 H   0  0  0  0  0  0  0  0  0  0  0  0
   37.7610   27.9670   39.8150 H   0  0  0  0  0  0  0  0  0  0  0  0
   37.2840   28.4560   44.6820 H   0  0  0  0  0  0  0  0  0  0  0  0
   40.0350   30.6560   42.1270 O   0  0  0  0  0  0  0  0  0  0  0  0
   39.5970   31.2080   42.8040 H   0  0  0  0  0  0  0  0  0  0  0  0
   38.5800   34.0010   41.4420 O   0  0  0  0  0  0  0  0  0  0  0  0
   37.6700   34.3010   41.5910 H   0  0  0  0  0  0  0  0  0  0  0  0
   40.5960   32.2600   39.1730 O   0  0  0  0  0  0  0  0  0  0  0  0
   41.9980   33.7890   38.0820 C   0  0  1  0  0  3  0  0  0  0  0  0
   41.8110   32.8900   39.2760 C   0  0  2  0  0  3  0  0  0  0  0  0
   42.8200   31.9500   39.4050 O   0  0  0  0  0  0  0  0  0  0  0  0
   44.0780   32.4700   39.5560 C   0  0  0  0  0  2  0  0  0  0  0  0
   44.2220   33.8730   39.0680 C   0  0  2  0  0  3  0  0  0  0  0  0
   43.4590   34.0370   37.7780 C   0  0  1  0  0  3  0  0  0  0  0  0
   41.3990   33.3420   36.9250 O   0  0  0  0  0  0  0  0  0  0  0  0
   41.1910   32.3930   36.8950 H   0  0  0  0  0  0  0  0  0  0  0  0
   45.5750   34.1280   38.8560 O   0  0  0  0  0  0  0  0  0  0  0  0
   46.1310   33.3330   39.0520 H   0  0  0  0  0  0  0  0  0  0  0  0
   43.9520   33.1610   36.8020 O   0  0  0  0  0  0  0  0  0  0  0  0
   43.6610   32.2220   36.9570 H   0  0  0  0  0  0  0  0  0  0  0  0
  1  7  1  6  0  0  0
  1 22  1  0  0  0  0
  2  8  1  6  0  0  0
  2  1  1  0  0  0  0
  2  3  1  0  0  0  0
  2 15  1  0  0  0  0
  4  5  1  0  0  0  0
  4 10  1  0  0  0  0
  4  3  1  0  0  0  0
  5 11  1  6  0  0  0
  5  6  1  0  0  0  0
  5 24  1  0  0  0  0
  6  1  1  0  0  0  0
  6 12  1  1  0  0  0
  9  4  1  0  0  0  0
 13 18  1  0  0  0  0
 14 15  1  0  0  0  0
 14 13  2  0  0  0  0
 15 16  2  0  0  0  0
 16 17  1  0  0  0  0
 17 21  1  0  0  0  0
 18 17  2  0  0  0  0
 19 13  1  0  0  0  0
 20 14  1  0  0  0  0
 22 23  1  0  0  0  0
 24 25  1  0  0  0  0
 26  6  1  0  0  0  0
 27 33  1  6  0  0  0
 27 28  1  0  0  0  0
 28 26  1  6  0  0  0
 28 29  1  0  0  0  0
 29 30  1  0  0  0  0
 31 35  1  6  0  0  0
 31 30  1  0  0  0  0
 32 37  1  6  0  0  0
 32 27  1  0  0  0  0
 32 31  1  0  0  0  0
 34 33  1  0  0  0  0
 35 36  1  0  0  0  0
 37 38  1  0  0  0  0
M  END
>  <minimizedAffinity>
-6.13258743

$$$$

 OpenBabel03242521293D

 38 40  0  0  1  0  0  0  0  0999 V2000
   38.1590   31.0910   38.7990 C   0  0  1  0  0  0  0  0  0  0  0  0
   39.5200   31.5950   39.2160 C   0  0  2  0  0  0  0  0  0  0  0  0
   39.5590   32.9750   39.2770 O   0  0  0  0  0  0  0  0  0  0  0  0
   38.8010   33.3340   40.3790 C   0  0  0  0  0  0  0  0  0  0  0  0
   37.3490   33.1230   40.0360 C   0  0  2  0  0  0  0  0  0  0  0  0
   37.0230   31.7900   39.4630 C   0  0  2  0  0  0  0  0  0  0  0  0
   38.1200   30.0070   39.1160 H   0  0  0  0  0  0  0  0  0  0  0  0
   39.7010   31.1620   40.2190 H   0  0  0  0  0  0  0  0  0  0  0  0
   39.1070   32.7690   41.2910 H   0  0  0  0  0  0  0  0  0  0  0  0
   38.9450   34.4230   40.5560 H   0  0  0  0  0  0  0  0  0  0  0  0
   36.6900   33.2920   40.9120 H   0  0  0  0  0  0  0  0  0  0  0  0
   36.2420   31.9620   38.6650 H   0  0  0  0  0  0  0  0  0  0  0  0
   42.4930   31.5130   36.8620 C   0  0  0  0  0  0  0  0  0  0  0  0
   41.5300   31.9990   37.7620 C   0  0  0  0  0  0  0  0  0  0  0  0
   40.5460   31.1120   38.2830 C   0  0  0  0  0  0  0  0  0  0  0  0
   40.5970   29.8280   37.8710 N   0  0  0  0  0  0  0  0  0  0  0  0
   41.5330   29.3810   37.0030 C   0  0  0  0  0  0  0  0  0  0  0  0
   42.4820   30.2160   36.4950 N   0  0  0  0  0  0  0  0  0  0  0  0
   43.2490   32.1690   36.4550 H   0  0  0  0  0  0  0  0  0  0  0  0
   41.5320   33.0480   38.0640 H   0  0  0  0  0  0  0  0  0  0  0  0
   41.4590   28.3110   36.7510 H   0  0  0  0  0  0  0  0  0  0  0  0
   38.0210   31.0360   37.4060 O   0  0  0  0  0  0  0  0  0  0  0  0
   38.0710   31.9240   37.0010 H   0  0  0  0  0  0  0  0  0  0  0  0
   37.0220   34.1610   39.1420 O   0  0  0  0  0  0  0  0  0  0  0  0
   37.5560   34.9540   39.3040 H   0  0  0  0  0  0  0  0  0  0  0  0
   36.3600   30.9560   40.3800 O   0  0  0  0  0  0  0  0  0  0  0  0
   36.3080   28.6780   40.9340 C   0  0  1  0  0  3  0  0  0  0  0  0
   37.1380   29.9330   40.8600 C   0  0  2  0  0  3  0  0  0  0  0  0
   37.6840   30.2890   42.0830 O   0  0  0  0  0  0  0  0  0  0  0  0
   38.5150   29.3540   42.6390 C   0  0  0  0  0  2  0  0  0  0  0  0
   38.3090   27.9690   42.1230 C   0  0  2  0  0  3  0  0  0  0  0  0
   36.8320   27.7060   41.9660 C   0  0  1  0  0  3  0  0  0  0  0  0
   34.9710   28.8880   41.1960 O   0  0  0  0  0  0  0  0  0  0  0  0
   34.7480   29.7420   41.6010 H   0  0  0  0  0  0  0  0  0  0  0  0
   38.8580   27.0730   43.0380 O   0  0  0  0  0  0  0  0  0  0  0  0
   39.2370   27.5400   43.8240 H   0  0  0  0  0  0  0  0  0  0  0  0
   36.1780   27.8370   43.1970 O   0  0  0  0  0  0  0  0  0  0  0  0
   36.0690   28.7890   43.4670 H   0  0  0  0  0  0  0  0  0  0  0  0
  1  7  1  1  0  0  0
  1  2  1  0  0  0  0
  1  6  1  0  0  0  0
  2  3  1  0  0  0  0
  2  8  1  1  0  0  0
  3  4  1  0  0  0  0
  4 10  1  0  0  0  0
  4  9  1  0  0  0  0
  5  4  1  0  0  0  0
  5 11  1  1  0  0  0
  6 12  1  6  0  0  0
  6  5  1  0  0  0  0
  6 26  1  0  0  0  0
 13 14  1  0  0  0  0
 14 20  1  0  0  0  0
 14 15  2  0  0  0  0
 15  2  1  0  0  0  0
 16 15  1  0  0  0  0
 17 16  2  0  0  0  0
 18 13  2  0  0  0  0
 18 17  1  0  0  0  0
 19 13  1  0  0  0  0
 21 17  1  0  0  0  0
 22  1  1  0  0  0  0
 23 22  1  0  0  0  0
 24 25  1  0  0  0  0
 24  5  1  0  0  0  0
 27 33  1  1  0  0  0
 27 32  1  0  0  0  0
 28 26  1  1  0  0  0
 28 27  1  0  0  0  0
 28 29  1  0  0  0  0
 29 30  1  0  0  0  0
 31 30  1  0  0  0  0
 31 35  1  1  0  0  0
 32 31  1  0  0  0  0
 32 37  1  1  0  0  0
 33 34  1  0  0  0  0
 35 36  1  0  0  0  0
 37 38  1  0  0  0  0
M  END
>  <minimizedAffinity>
-6.08185005

$$$$

 OpenBabel03242521293D

 38 40  0  0  1  0  0  0  0  0999 V2000
   37.1970   27.6670   41.0520 C   0  0  1  0  0  0  0  0  0  0  0  0
   38.5420   27.2730   40.4890 C   0  0  2  0  0  0  0  0  0  0  0  0
   38.4220   26.3220   39.4930 O   0  0  0  0  0  0  0  0  0  0  0  0
   37.8670   26.9730   38.4040 C   0  0  0  0  0  0  0  0  0  0  0  0
   36.4130   27.2290   38.7040 C   0  0  2  0  0  0  0  0  0  0  0  0
   36.1430   27.8720   40.0190 C   0  0  2  0  0  0  0  0  0  0  0  0
   37.3580   28.6580   41.5710 H   0  0  0  0  0  0  0  0  0  0  0  0
   38.9750   28.2050   40.0790 H   0  0  0  0  0  0  0  0  0  0  0  0
   38.4190   27.9100   38.1580 H   0  0  0  0  0  0  0  0  0  0  0  0
   37.9080   26.2820   37.5330 H   0  0  0  0  0  0  0  0  0  0  0  0
   35.9310   27.8430   37.9160 H   0  0  0  0  0  0  0  0  0  0  0  0
   35.2010   27.4000   40.4240 H   0  0  0  0  0  0  0  0  0  0  0  0
   40.8220   25.0050   42.4990 C   0  0  0  0  0  0  0  0  0  0  0  0
   40.0090   25.4740   41.4560 C   0  0  0  0  0  0  0  0  0  0  0  0
   39.4080   26.7600   41.5600 C   0  0  0  0  0  0  0  0  0  0  0  0
   39.6600   27.4680   42.6800 N   0  0  0  0  0  0  0  0  0  0  0  0
   40.4480   26.9960   43.6740 C   0  0  0  0  0  0  0  0  0  0  0  0
   41.0310   25.7680   43.5910 N   0  0  0  0  0  0  0  0  0  0  0  0
   41.2890   24.0320   42.4410 H   0  0  0  0  0  0  0  0  0  0  0  0
   39.8350   24.8630   40.5680 H   0  0  0  0  0  0  0  0  0  0  0  0
   40.5700   27.6760   44.5320 H   0  0  0  0  0  0  0  0  0  0  0  0
   36.7860   26.8140   42.0830 O   0  0  0  0  0  0  0  0  0  0  0  0
   36.6420   25.9010   41.7640 H   0  0  0  0  0  0  0  0  0  0  0  0
   35.7840   25.9720   38.6090 O   0  0  0  0  0  0  0  0  0  0  0  0
   36.2380   25.3920   37.9780 H   0  0  0  0  0  0  0  0  0  0  0  0
   35.7900   29.2270   39.8940 O   0  0  0  0  0  0  0  0  0  0  0  0
   36.9590   31.0460   40.8000 C   0  0  1  0  0  3  0  0  0  0  0  0
   36.8580   30.0590   39.6670 C   0  0  2  0  0  3  0  0  0  0  0  0
   36.7250   30.6700   38.4310 O   0  0  0  0  0  0  0  0  0  0  0  0
   37.7590   31.4960   38.0810 C   0  0  0  0  0  2  0  0  0  0  0  0
   38.5700   31.9830   39.2350 C   0  0  2  0  0  3  0  0  0  0  0  0
   37.6550   32.3220   40.3850 C   0  0  1  0  0  3  0  0  0  0  0  0
   35.7540   31.3920   41.3720 O   0  0  0  0  0  0  0  0  0  0  0  0
   34.9650   31.2300   40.8280 H   0  0  0  0  0  0  0  0  0  0  0  0
   39.2700   33.1190   38.8320 O   0  0  0  0  0  0  0  0  0  0  0  0
   39.0640   33.3610   37.8950 H   0  0  0  0  0  0  0  0  0  0  0  0
   36.7480   33.3220   40.0100 O   0  0  0  0  0  0  0  0  0  0  0  0
   36.0240   32.9730   39.4230 H   0  0  0  0  0  0  0  0  0  0  0  0
  1  7  1  1  0  0  0
  1 22  1  0  0  0  0
  2  8  1  6  0  0  0
  2  1  1  0  0  0  0
  2 15  1  0  0  0  0
  3  2  1  0  0  0  0
  4  5  1  0  0  0  0
  4  3  1  0  0  0  0
  5 11  1  6  0  0  0
  5  6  1  0  0  0  0
  6 12  1  1  0  0  0
  6  1  1  0  0  0  0
  9  4  1  0  0  0  0
 10  4  1  0  0  0  0
 13 18  1  0  0  0  0
 14 15  1  0  0  0  0
 14 13  2  0  0  0  0
 15 16  2  0  0  0  0
 16 17  1  0  0  0  0
 17 21  1  0  0  0  0
 18 17  2  0  0  0  0
 19 13  1  0  0  0  0
 20 14  1  0  0  0  0
 23 22  1  0  0  0  0
 24  5  1  0  0  0  0
 25 24  1  0  0  0  0
 26  6  1  0  0  0  0
 27 33  1  6  0  0  0
 28 26  1  1  0  0  0
 28 27  1  0  0  0  0
 29 28  1  0  0  0  0
 30 29  1  0  0  0  0
 30 31  1  0  0  0  0
 31 35  1  6  0  0  0
 31 32  1  0  0  0  0
 32 37  1  6  0  0  0
 32 27  1  0  0  0  0
 34 33  1  0  0  0  0
 36 35  1  0  0  0  0
 38 37  1  0  0  0  0
M  END
>  <minimizedAffinity>
-6.06406069

$$$$

 OpenBabel03242521293D

 38 40  0  0  1  0  0  0  0  0999 V2000
   37.8700   27.3320   40.5800 C   0  0  1  0  0  0  0  0  0  0  0  0
   36.9610   26.2580   41.1270 C   0  0  2  0  0  0  0  0  0  0  0  0
   37.0930   26.1230   42.4960 O   0  0  0  0  0  0  0  0  0  0  0  0
   36.5210   27.2550   43.0530 C   0  0  0  0  0  0  0  0  0  0  0  0
   37.4490   28.4160   42.8080 C   0  0  2  0  0  0  0  0  0  0  0  0
   37.9030   28.5750   41.4000 C   0  0  2  0  0  0  0  0  0  0  0  0
   37.4480   27.6080   39.5680 H   0  0  0  0  0  0  0  0  0  0  0  0
   35.9330   26.5820   40.8720 H   0  0  0  0  0  0  0  0  0  0  0  0
   35.4970   27.4390   42.6490 H   0  0  0  0  0  0  0  0  0  0  0  0
   36.4610   27.1040   44.1530 H   0  0  0  0  0  0  0  0  0  0  0  0
   37.0020   29.3770   43.1350 H   0  0  0  0  0  0  0  0  0  0  0  0
   38.9840   28.9010   41.4430 H   0  0  0  0  0  0  0  0  0  0  0  0
   37.9060   22.6240   40.5900 C   0  0  0  0  0  0  0  0  0  0  0  0
   37.6280   23.8370   41.2410 C   0  0  0  0  0  0  0  0  0  0  0  0
   37.2450   24.9730   40.4740 C   0  0  0  0  0  0  0  0  0  0  0  0
   37.1700   24.8150   39.1360 N   0  0  0  0  0  0  0  0  0  0  0  0
   37.4420   23.6360   38.5290 C   0  0  0  0  0  0  0  0  0  0  0  0
   37.8100   22.5390   39.2470 N   0  0  0  0  0  0  0  0  0  0  0  0
   38.1980   21.7490   41.1520 H   0  0  0  0  0  0  0  0  0  0  0  0
   37.7040   23.9140   42.3270 H   0  0  0  0  0  0  0  0  0  0  0  0
   37.3420   23.6460   37.4320 H   0  0  0  0  0  0  0  0  0  0  0  0
   39.1480   26.8420   40.2860 O   0  0  0  0  0  0  0  0  0  0  0  0
   39.6140   26.5360   41.0890 H   0  0  0  0  0  0  0  0  0  0  0  0
   38.5370   28.2160   43.6800 O   0  0  0  0  0  0  0  0  0  0  0  0
   38.2700   27.7380   44.4800 H   0  0  0  0  0  0  0  0  0  0  0  0
   37.2740   29.6500   40.7480 O   0  0  0  0  0  0  0  0  0  0  0  0
   38.1450   31.7410   40.1430 C   0  0  1  0  0  3  0  0  0  0  0  0
   38.0670   30.2720   39.8170 C   0  0  2  0  0  3  0  0  0  0  0  0
   37.5770   30.0290   38.5440 O   0  0  0  0  0  0  0  0  0  0  0  0
   38.3170   30.5720   37.5270 C   0  0  0  0  0  2  0  0  0  0  0  0
   39.1920   31.7060   37.9460 C   0  0  2  0  0  3  0  0  0  0  0  0
   38.4470   32.5810   38.9230 C   0  0  1  0  0  3  0  0  0  0  0  0
   37.0170   32.2590   40.7410 O   0  0  0  0  0  0  0  0  0  0  0  0
   36.2010   31.7460   40.6190 H   0  0  0  0  0  0  0  0  0  0  0  0
   39.5320   32.4410   36.8120 O   0  0  0  0  0  0  0  0  0  0  0  0
   39.1100   32.0700   35.9970 H   0  0  0  0  0  0  0  0  0  0  0  0
   37.2850   33.0940   38.3330 O   0  0  0  0  0  0  0  0  0  0  0  0
   36.5650   32.4110   38.2620 H   0  0  0  0  0  0  0  0  0  0  0  0
  1  7  1  6  0  0  0
  1  2  1  0  0  0  0
  1  6  1  0  0  0  0
  2  8  1  6  0  0  0
  2  3  1  0  0  0  0
  3  4  1  0  0  0  0
  4 10  1  0  0  0  0
  5  4  1  0  0  0  0
  5 11  1  1  0  0  0
  5 24  1  0  0  0  0
  6 12  1  1  0  0  0
  6  5  1  0  0  0  0
  9  4  1  0  0  0  0
 13 19  1  0  0  0  0
 13 14  1  0  0  0  0
 14 20  1  0  0  0  0
 15  2  1  0  0  0  0
 15 14  2  0  0  0  0
 16 15  1  0  0  0  0
 17 16  2  0  0  0  0
 17 18  1  0  0  0  0
 18 13  2  0  0  0  0
 21 17  1  0  0  0  0
 22  1  1  0  0  0  0
 22 23  1  0  0  0  0
 24 25  1  0  0  0  0
 26  6  1  0  0  0  0
 27 33  1  6  0  0  0
 28 27  1  0  0  0  0
 28 26  1  1  0  0  0
 29 28  1  0  0  0  0
 30 31  1  0  0  0  0
 30 29  1  0  0  0  0
 31 35  1  6  0  0  0
 31 32  1  0  0  0  0
 32 37  1  6  0  0  0
 32 27  1  0  0  0  0
 34 33  1  0  0  0  0
 36 35  1  0  0  0  0
 38 37  1  0  0  0  0
M  END
>  <minimizedAffinity>
-6.01579237

$$$$

 OpenBabel03242521293D

 38 40  0  0  1  0  0  0  0  0999 V2000
   37.8860   27.3170   40.3860 C   0  0  1  0  0  0  0  0  0  0  0  0
   36.9200   26.4010   41.1000 C   0  0  2  0  0  0  0  0  0  0  0  0
   37.1300   26.4000   42.4660 O   0  0  0  0  0  0  0  0  0  0  0  0
   36.7000   27.6350   42.9230 C   0  0  0  0  0  0  0  0  0  0  0  0
   37.7120   28.6680   42.4980 C   0  0  2  0  0  0  0  0  0  0  0  0
   38.0860   28.6310   41.0580 C   0  0  2  0  0  0  0  0  0  0  0  0
   37.4250   27.5230   39.3740 H   0  0  0  0  0  0  0  0  0  0  0  0
   35.9120   26.7950   40.8670 H   0  0  0  0  0  0  0  0  0  0  0  0
   35.6730   27.8750   42.5580 H   0  0  0  0  0  0  0  0  0  0  0  0
   36.7000   27.6100   44.0350 H   0  0  0  0  0  0  0  0  0  0  0  0
   37.3770   29.6970   42.7400 H   0  0  0  0  0  0  0  0  0  0  0  0
   39.1920   28.8530   41.0050 H   0  0  0  0  0  0  0  0  0  0  0  0
   36.3420   23.2630   39.0500 C   0  0  0  0  0  0  0  0  0  0  0  0
   36.2100   24.5800   39.5190 C   0  0  0  0  0  0  0  0  0  0  0  0
   37.0430   25.0320   40.5800 C   0  0  0  0  0  0  0  0  0  0  0  0
   37.9310   24.1500   41.0840 N   0  0  0  0  0  0  0  0  0  0  0  0
   38.0410   22.8850   40.6170 C   0  0  0  0  0  0  0  0  0  0  0  0
   37.2510   22.4350   39.6020 N   0  0  0  0  0  0  0  0  0  0  0  0
   35.7190   22.8980   38.2450 H   0  0  0  0  0  0  0  0  0  0  0  0
   35.4760   25.2560   39.0780 H   0  0  0  0  0  0  0  0  0  0  0  0
   38.8050   22.2700   41.1180 H   0  0  0  0  0  0  0  0  0  0  0  0
   39.0920   26.6760   40.0780 O   0  0  0  0  0  0  0  0  0  0  0  0
   39.5790   26.4130   40.8840 H   0  0  0  0  0  0  0  0  0  0  0  0
   38.8320   28.4560   43.3250 O   0  0  0  0  0  0  0  0  0  0  0  0
   38.5760   28.0950   44.1880 H   0  0  0  0  0  0  0  0  0  0  0  0
   37.5160   29.6870   40.3260 O   0  0  0  0  0  0  0  0  0  0  0  0
   37.7200   31.9810   40.7620 C   0  0  1  0  0  3  0  0  0  0  0  0
   38.3560   30.7590   40.1550 C   0  0  2  0  0  3  0  0  0  0  0  0
   38.6500   30.9160   38.8100 O   0  0  0  0  0  0  0  0  0  0  0  0
   39.5170   31.9370   38.5250 C   0  0  0  0  0  2  0  0  0  0  0  0
   39.6000   32.9830   39.5860 C   0  0  2  0  0  3  0  0  0  0  0  0
   38.2200   33.2590   40.1290 C   0  0  1  0  0  3  0  0  0  0  0  0
   36.3430   31.9990   40.7120 O   0  0  0  0  0  0  0  0  0  0  0  0
   35.9360   31.4160   40.0500 H   0  0  0  0  0  0  0  0  0  0  0  0
   40.1310   34.1410   39.0220 O   0  0  0  0  0  0  0  0  0  0  0  0
   40.3130   34.0260   38.0560 H   0  0  0  0  0  0  0  0  0  0  0  0
   37.3740   33.7110   39.1080 O   0  0  0  0  0  0  0  0  0  0  0  0
   37.0850   32.9740   38.5050 H   0  0  0  0  0  0  0  0  0  0  0  0
  1  7  1  6  0  0  0
  1  6  1  0  0  0  0
  1  2  1  0  0  0  0
  2  8  1  6  0  0  0
  2  3  1  0  0  0  0
  3  4  1  0  0  0  0
  4 10  1  0  0  0  0
  5 11  1  1  0  0  0
  5  4  1  0  0  0  0
  5 24  1  0  0  0  0
  6 12  1  6  0  0  0
  6  5  1  0  0  0  0
  9  4  1  0  0  0  0
 13 14  2  0  0  0  0
 13 18  1  0  0  0  0
 14 15  1  0  0  0  0
 15 16  2  0  0  0  0
 15  2  1  0  0  0  0
 17 16  1  0  0  0  0
 17 21  1  0  0  0  0
 18 17  2  0  0  0  0
 19 13  1  0  0  0  0
 20 14  1  0  0  0  0
 22  1  1  0  0  0  0
 22 23  1  0  0  0  0
 24 25  1  0  0  0  0
 26  6  1  0  0  0  0
 27 33  1  6  0  0  0
 28 26  1  6  0  0  0
 28 27  1  0  0  0  0
 29 28  1  0  0  0  0
 30 29  1  0  0  0  0
 30 31  1  0  0  0  0
 31 35  1  6  0  0  0
 31 32  1  0  0  0  0
 32 37  1  6  0  0  0
 32 27  1  0  0  0  0
 34 33  1  0  0  0  0
 36 35  1  0  0  0  0
 38 37  1  0  0  0  0
M  END
>  <minimizedAffinity>
-5.96359825

$$$$

 OpenBabel03242521293D

 38 40  0  0  1  0  0  0  0  0999 V2000
   40.1740   31.6910   40.1660 C   0  0  1  0  0  0  0  0  0  0  0  0
   40.7490   33.0880   40.1620 C   0  0  2  0  0  0  0  0  0  0  0  0
   39.9520   33.9670   39.4540 O   0  0  0  0  0  0  0  0  0  0  0  0
   38.8130   34.1590   40.2180 C   0  0  0  0  0  0  0  0  0  0  0  0
   37.9760   32.9090   40.1290 C   0  0  2  0  0  0  0  0  0  0  0  0
   38.7040   31.6400   40.4010 C   0  0  2  0  0  0  0  0  0  0  0  0
   40.6710   31.1550   41.0280 H   0  0  0  0  0  0  0  0  0  0  0  0
   40.8000   33.3890   41.2260 H   0  0  0  0  0  0  0  0  0  0  0  0
   39.0650   34.4250   41.2720 H   0  0  0  0  0  0  0  0  0  0  0  0
   38.2260   34.9850   39.7600 H   0  0  0  0  0  0  0  0  0  0  0  0
   37.0970   32.9530   40.8040 H   0  0  0  0  0  0  0  0  0  0  0  0
   38.2920   30.8700   39.6840 H   0  0  0  0  0  0  0  0  0  0  0  0
   43.7950   34.0190   38.1030 C   0  0  0  0  0  0  0  0  0  0  0  0
   42.4990   34.0610   38.6420 C   0  0  0  0  0  0  0  0  0  0  0  0
   42.1020   33.0760   39.5900 C   0  0  0  0  0  0  0  0  0  0  0  0
   43.0140   32.1400   39.9230 N   0  0  0  0  0  0  0  0  0  0  0  0
   44.2590   32.1180   39.3910 C   0  0  0  0  0  0  0  0  0  0  0  0
   44.6550   33.0520   38.4830 N   0  0  0  0  0  0  0  0  0  0  0  0
   44.1170   34.7560   37.3820 H   0  0  0  0  0  0  0  0  0  0  0  0
   41.7960   34.8400   38.3400 H   0  0  0  0  0  0  0  0  0  0  0  0
   44.9020   31.2990   39.7490 H   0  0  0  0  0  0  0  0  0  0  0  0
   40.5690   30.9550   39.0420 O   0  0  0  0  0  0  0  0  0  0  0  0
   40.2240   31.3420   38.2140 H   0  0  0  0  0  0  0  0  0  0  0  0
   37.4270   32.9190   38.8320 O   0  0  0  0  0  0  0  0  0  0  0  0
   37.3060   33.8230   38.5020 H   0  0  0  0  0  0  0  0  0  0  0  0
   38.3930   31.0990   41.6600 O   0  0  0  0  0  0  0  0  0  0  0  0
   36.9790   29.2530   41.3600 C   0  0  1  0  0  3  0  0  0  0  0  0
   38.3720   29.7270   41.6830 C   0  0  2  0  0  3  0  0  0  0  0  0
   38.8260   29.2690   42.9090 O   0  0  0  0  0  0  0  0  0  0  0  0
   38.8860   27.9070   43.0300 C   0  0  0  0  0  2  0  0  0  0  0  0
   38.0170   27.1690   42.0680 C   0  0  2  0  0  3  0  0  0  0  0  0
   36.6960   27.8830   41.9330 C   0  0  1  0  0  3  0  0  0  0  0  0
   35.9730   30.0980   41.7750 O   0  0  0  0  0  0  0  0  0  0  0  0
   36.2110   30.7280   42.4760 H   0  0  0  0  0  0  0  0  0  0  0  0
   37.8150   25.8800   42.5570 O   0  0  0  0  0  0  0  0  0  0  0  0
   38.2640   25.7460   43.4290 H   0  0  0  0  0  0  0  0  0  0  0  0
   36.0480   27.9510   43.1730 O   0  0  0  0  0  0  0  0  0  0  0  0
   36.4550   28.6330   43.7740 H   0  0  0  0  0  0  0  0  0  0  0  0
  1  6  1  0  0  0  0
  1  7  1  1  0  0  0
  2  1  1  0  0  0  0
  2  8  1  1  0  0  0
  3  2  1  0  0  0  0
  3  4  1  0  0  0  0
  4  9  1  0  0  0  0
  5  4  1  0  0  0  0
  5  6  1  0  0  0  0
  5 11  1  1  0  0  0
  6 12  1  6  0  0  0
  6 26  1  0  0  0  0
 10  4  1  0  0  0  0
 13 18  2  0  0  0  0
 13 14  1  0  0  0  0
 14 15  2  0  0  0  0
 15 16  1  0  0  0  0
 15  2  1  0  0  0  0
 17 21  1  0  0  0  0
 17 16  2  0  0  0  0
 18 17  1  0  0  0  0
 19 13  1  0  0  0  0
 20 14  1  0  0  0  0
 22  1  1  0  0  0  0
 23 22  1  0  0  0  0
 24  5  1  0  0  0  0
 25 24  1  0  0  0  0
 27 28  1  0  0  0  0
 27 33  1  1  0  0  0
 27 32  1  0  0  0  0
 28 26  1  1  0  0  0
 28 29  1  0  0  0  0
 29 30  1  0  0  0  0
 31 35  1  1  0  0  0
 31 30  1  0  0  0  0
 32 31  1  0  0  0  0
 32 37  1  1  0  0  0
 33 34  1  0  0  0  0
 35 36  1  0  0  0  0
 37 38  1  0  0  0  0
M  END
>  <minimizedAffinity>
-5.86388826

$$$$

 OpenBabel03242521293D

 38 40  0  0  1  0  0  0  0  0999 V2000
   38.1720   29.0690   40.4320 C   0  0  1  0  0  0  0  0  0  0  0  0
   37.2150   27.9140   40.2560 C   0  0  2  0  0  0  0  0  0  0  0  0
   35.9850   28.1760   40.8300 O   0  0  0  0  0  0  0  0  0  0  0  0
   35.3830   29.1340   40.0320 C   0  0  0  0  0  0  0  0  0  0  0  0
   36.0770   30.4490   40.2770 C   0  0  2  0  0  0  0  0  0  0  0  0
   37.5610   30.4060   40.1870 C   0  0  2  0  0  0  0  0  0  0  0  0
   38.9810   28.9210   39.6570 H   0  0  0  0  0  0  0  0  0  0  0  0
   37.1070   27.7830   39.1620 H   0  0  0  0  0  0  0  0  0  0  0  0
   35.3990   28.8420   38.9550 H   0  0  0  0  0  0  0  0  0  0  0  0
   34.3280   29.2480   40.3670 H   0  0  0  0  0  0  0  0  0  0  0  0
   35.7140   31.2410   39.5900 H   0  0  0  0  0  0  0  0  0  0  0  0
   37.9550   31.0900   40.9950 H   0  0  0  0  0  0  0  0  0  0  0  0
   37.5670   24.6960   42.2310 C   0  0  0  0  0  0  0  0  0  0  0  0
   36.9950   25.8510   41.6760 C   0  0  0  0  0  0  0  0  0  0  0  0
   37.7830   26.6930   40.8420 C   0  0  0  0  0  0  0  0  0  0  0  0
   39.0640   26.3220   40.6290 N   0  0  0  0  0  0  0  0  0  0  0  0
   39.5950   25.2040   41.1750 C   0  0  0  0  0  0  0  0  0  0  0  0
   38.8550   24.3880   41.9750 N   0  0  0  0  0  0  0  0  0  0  0  0
   36.9870   24.0420   42.8670 H   0  0  0  0  0  0  0  0  0  0  0  0
   35.9530   26.1080   41.8780 H   0  0  0  0  0  0  0  0  0  0  0  0
   40.6510   25.0210   40.9210 H   0  0  0  0  0  0  0  0  0  0  0  0
   38.8610   29.0030   41.6490 O   0  0  0  0  0  0  0  0  0  0  0  0
   38.2580   29.0870   42.4140 H   0  0  0  0  0  0  0  0  0  0  0  0
   35.6510   30.8640   41.5530 O   0  0  0  0  0  0  0  0  0  0  0  0
   34.7610   30.5360   41.7580 H   0  0  0  0  0  0  0  0  0  0  0  0
   38.0480   30.9960   39.0070 O   0  0  0  0  0  0  0  0  0  0  0  0
   39.9000   32.4180   39.2170 C   0  0  1  0  0  3  0  0  0  0  0  0
   39.4180   31.0210   38.9260 C   0  0  2  0  0  3  0  0  0  0  0  0
   39.8250   30.5580   37.6850 O   0  0  0  0  0  0  0  0  0  0  0  0
   41.1810   30.5020   37.5060 C   0  0  0  0  0  2  0  0  0  0  0  0
   41.9560   31.3810   38.4300 C   0  0  2  0  0  3  0  0  0  0  0  0
   41.2440   32.7010   38.5840 C   0  0  1  0  0  3  0  0  0  0  0  0
   39.0350   33.4180   38.8300 O   0  0  0  0  0  0  0  0  0  0  0  0
   38.3770   33.1720   38.1590 H   0  0  0  0  0  0  0  0  0  0  0  0
   43.2220   31.5840   37.8840 O   0  0  0  0  0  0  0  0  0  0  0  0
   43.3210   31.1280   37.0110 H   0  0  0  0  0  0  0  0  0  0  0  0
   41.1200   33.3380   37.3430 O   0  0  0  0  0  0  0  0  0  0  0  0
   40.4150   32.9240   36.7750 H   0  0  0  0  0  0  0  0  0  0  0  0
  1  7  1  6  0  0  0
  1 22  1  0  0  0  0
  2  8  1  6  0  0  0
  2  1  1  0  0  0  0
  2  3  1  0  0  0  0
  2 15  1  0  0  0  0
  4  5  1  0  0  0  0
  4 10  1  0  0  0  0
  4  3  1  0  0  0  0
  5 11  1  6  0  0  0
  5 24  1  0  0  0  0
  6  5  1  0  0  0  0
  6  1  1  0  0  0  0
  6 12  1  1  0  0  0
  9  4  1  0  0  0  0
 13 19  1  0  0  0  0
 14 20  1  0  0  0  0
 14 13  2  0  0  0  0
 15 14  1  0  0  0  0
 16 15  2  0  0  0  0
 16 17  1  0  0  0  0
 17 18  2  0  0  0  0
 18 13  1  0  0  0  0
 21 17  1  0  0  0  0
 22 23  1  0  0  0  0
 24 25  1  0  0  0  0
 26  6  1  0  0  0  0
 27 33  1  6  0  0  0
 28 26  1  6  0  0  0
 28 27  1  0  0  0  0
 29 28  1  0  0  0  0
 30 29  1  0  0  0  0
 30 31  1  0  0  0  0
 31 35  1  6  0  0  0
 31 32  1  0  0  0  0
 32 37  1  6  0  0  0
 32 27  1  0  0  0  0
 34 33  1  0  0  0  0
 36 35  1  0  0  0  0
 38 37  1  0  0  0  0
M  END
>  <minimizedAffinity>
-5.845016

$$$$

 OpenBabel03242521293D

 38 40  0  0  1  0  0  0  0  0999 V2000
   36.6890   28.9900   40.3450 C   0  0  1  0  0  0  0  0  0  0  0  0
   37.0350   27.6610   39.7180 C   0  0  2  0  0  0  0  0  0  0  0  0
   35.9490   27.1010   39.0730 O   0  0  0  0  0  0  0  0  0  0  0  0
   35.7320   27.8720   37.9430 C   0  0  0  0  0  0  0  0  0  0  0  0
   35.1350   29.1840   38.3800 C   0  0  2  0  0  0  0  0  0  0  0  0
   35.8650   29.8760   39.4760 C   0  0  2  0  0  0  0  0  0  0  0  0
   37.6750   29.5150   40.5220 H   0  0  0  0  0  0  0  0  0  0  0  0
   37.8420   27.8780   38.9920 H   0  0  0  0  0  0  0  0  0  0  0  0
   36.6680   28.0090   37.3520 H   0  0  0  0  0  0  0  0  0  0  0  0
   34.9720   27.3550   37.3140 H   0  0  0  0  0  0  0  0  0  0  0  0
   35.0330   29.8930   37.5330 H   0  0  0  0  0  0  0  0  0  0  0  0
   35.0830   30.3420   40.1440 H   0  0  0  0  0  0  0  0  0  0  0  0
   37.4660   24.5680   41.8700 C   0  0  0  0  0  0  0  0  0  0  0  0
   36.9770   25.4300   40.8750 C   0  0  0  0  0  0  0  0  0  0  0  0
   37.5340   26.7330   40.7420 C   0  0  0  0  0  0  0  0  0  0  0  0
   38.5210   27.0710   41.5980 N   0  0  0  0  0  0  0  0  0  0  0  0
   38.9770   26.2240   42.5500 C   0  0  0  0  0  0  0  0  0  0  0  0
   38.4550   24.9740   42.6910 N   0  0  0  0  0  0  0  0  0  0  0  0
   37.0570   23.5740   41.9890 H   0  0  0  0  0  0  0  0  0  0  0  0
   36.1770   25.1100   40.2060 H   0  0  0  0  0  0  0  0  0  0  0  0
   39.7840   26.6270   43.1810 H   0  0  0  0  0  0  0  0  0  0  0  0
   36.1540   28.8440   41.6310 O   0  0  0  0  0  0  0  0  0  0  0  0
   35.3010   28.3690   41.6180 H   0  0  0  0  0  0  0  0  0  0  0  0
   33.8100   28.8860   38.7540 O   0  0  0  0  0  0  0  0  0  0  0  0
   33.4590   28.1320   38.2550 H   0  0  0  0  0  0  0  0  0  0  0  0
   36.5950   30.9880   39.0200 O   0  0  0  0  0  0  0  0  0  0  0  0
   37.4980   32.6970   40.3460 C   0  0  1  0  0  3  0  0  0  0  0  0
   37.6740   31.3020   39.8070 C   0  0  2  0  0  3  0  0  0  0  0  0
   38.8460   31.1480   39.0840 O   0  0  0  0  0  0  0  0  0  0  0  0
   39.9940   31.3970   39.7850 C   0  0  0  0  0  2  0  0  0  0  0  0
   39.7990   32.2450   40.9980 C   0  0  2  0  0  3  0  0  0  0  0  0
   38.8190   33.3490   40.6870 C   0  0  1  0  0  3  0  0  0  0  0  0
   36.8100   33.5530   39.5140 O   0  0  0  0  0  0  0  0  0  0  0  0
   36.7780   33.2980   38.5770 H   0  0  0  0  0  0  0  0  0  0  0  0
   41.0310   32.7880   41.3580 O   0  0  0  0  0  0  0  0  0  0  0  0
   41.7470   32.5160   40.7310 H   0  0  0  0  0  0  0  0  0  0  0  0
   39.3000   34.1490   39.6430 O   0  0  0  0  0  0  0  0  0  0  0  0
   39.2140   33.7040   38.7570 H   0  0  0  0  0  0  0  0  0  0  0  0
  1  7  1  1  0  0  0
  1 22  1  0  0  0  0
  2  8  1  6  0  0  0
  2  1  1  0  0  0  0
  2 15  1  0  0  0  0
  3  2  1  0  0  0  0
  4  5  1  0  0  0  0
  4  3  1  0  0  0  0
  5 11  1  6  0  0  0
  5 24  1  0  0  0  0
  5  6  1  0  0  0  0
  6 12  1  1  0  0  0
  6  1  1  0  0  0  0
  9  4  1  0  0  0  0
 10  4  1  0  0  0  0
 13 19  1  0  0  0  0
 13 18  1  0  0  0  0
 14 13  2  0  0  0  0
 15 14  1  0  0  0  0
 15 16  2  0  0  0  0
 16 17  1  0  0  0  0
 17 18  2  0  0  0  0
 17 21  1  0  0  0  0
 20 14  1  0  0  0  0
 23 22  1  0  0  0  0
 25 24  1  0  0  0  0
 26  6  1  0  0  0  0
 27 33  1  6  0  0  0
 27 32  1  0  0  0  0
 28 26  1  6  0  0  0
 28 27  1  0  0  0  0
 29 30  1  0  0  0  0
 29 28  1  0  0  0  0
 30 31  1  0  0  0  0
 31 35  1  6  0  0  0
 32 37  1  6  0  0  0
 32 31  1  0  0  0  0
 34 33  1  0  0  0  0
 36 35  1  0  0  0  0
 38 37  1  0  0  0  0
M  END
>  <minimizedAffinity>
-5.81711769

$$$$
