
 OpenBabel03252505443D

 45 48  0  0  1  0  0  0  0  0999 V2000
   38.0780   31.5540   40.9750 C   0  0  0  0  0  0  0  0  0  0  0  0
   37.1300   32.1520   40.1780 C   0  0  0  0  0  0  0  0  0  0  0  0
   37.3500   33.3260   39.5080 C   0  0  0  0  0  0  0  0  0  0  0  0
   38.5650   33.9140   39.6480 N   0  0  0  0  0  0  0  0  0  0  0  0
   39.5160   33.3330   40.4360 C   0  0  0  0  0  0  0  0  0  0  0  0
   39.2860   32.1750   41.0900 N   0  0  0  0  0  0  0  0  0  0  0  0
   36.1730   31.6870   40.0710 H   0  0  0  0  0  0  0  0  0  0  0  0
   36.5960   33.7950   38.8780 H   0  0  0  0  0  0  0  0  0  0  0  0
   37.7800   29.0990   40.8940 C   0  0  1  0  0  0  0  0  0  0  0  0
   36.4270   29.6340   41.4760 C   0  0  0  0  0  0  0  0  0  0  0  0
   37.7920   30.2690   41.7210 C   0  0  2  0  0  0  0  0  0  0  0  0
   37.7810   29.1890   39.7730 H   0  0  0  0  0  0  0  0  0  0  0  0
   35.9850   29.0430   42.2970 H   0  0  0  0  0  0  0  0  0  0  0  0
   35.7770   30.2020   40.8000 H   0  0  0  0  0  0  0  0  0  0  0  0
   38.0510   30.3600   42.7730 H   0  0  0  0  0  0  0  0  0  0  0  0
   38.1340   27.7430   41.3660 C   0  0  0  0  0  0  0  0  0  0  0  0
   39.1250   27.6400   42.3650 C   0  0  0  0  0  0  0  0  0  0  0  0
   39.4750   26.3790   42.8270 C   0  0  0  0  0  0  0  0  0  0  0  0
   38.8400   25.3050   42.2900 N   0  0  0  0  0  0  0  0  0  0  0  0
   37.9060   25.4410   41.3460 C   0  0  0  0  0  0  0  0  0  0  0  0
   37.5780   26.6610   40.9080 N   0  0  0  0  0  0  0  0  0  0  0  0
   39.6020   28.5380   42.7610 H   0  0  0  0  0  0  0  0  0  0  0  0
   40.2440   26.2520   43.6060 H   0  0  0  0  0  0  0  0  0  0  0  0
   37.3210   24.1350   40.8850 C   0  0  0  0  0  0  0  0  0  0  0  0
   37.1610   24.1110   39.5080 F   0  0  0  0  0  0  0  0  0  0  0  0
   36.0180   24.0090   41.4230 F   0  0  0  0  0  0  0  0  0  0  0  0
   38.0570   23.0940   41.3800 F   0  0  0  0  0  0  0  0  0  0  0  0
   40.8430   33.9510   40.6140 C   0  0  0  0  0  0  0  0  0  0  0  0
   41.5050   33.1410   41.0330 H   0  0  0  0  0  0  0  0  0  0  0  0
   40.8130   34.7830   41.3150 H   0  0  0  0  0  0  0  0  0  0  0  0
   41.4580   34.3480   39.3030 C   0  0  0  0  0  0  0  0  0  0  0  0
   40.8540   34.0270   38.4430 H   0  0  0  0  0  0  0  0  0  0  0  0
   41.5760   35.4690   39.3070 H   0  0  0  0  0  0  0  0  0  0  0  0
   43.4840   34.2510   37.8540 C   0  0  1  0  0  3  0  0  0  0  0  0
   42.8260   33.7770   39.1340 C   0  0  1  0  0  3  0  0  0  0  0  0
   43.6730   33.8890   40.1960 O   0  0  0  0  0  0  0  0  0  0  0  0
   44.9970   34.1220   39.8400 C   0  0  0  0  0  2  0  0  0  0  0  0
   45.4950   33.2240   38.7560 C   0  0  2  0  0  3  0  0  0  0  0  0
   44.6070   33.2810   37.5520 C   0  0  2  0  0  3  0  0  0  0  0  0
   42.5460   34.3170   36.8260 O   0  0  0  0  0  0  0  0  0  0  0  0
   42.6680   35.2050   36.3910 H   0  0  0  0  0  0  0  0  0  0  0  0
   45.7730   31.9360   39.2010 O   0  0  0  0  0  0  0  0  0  0  0  0
   45.1890   31.2440   38.7970 H   0  0  0  0  0  0  0  0  0  0  0  0
   45.2720   33.6140   36.3740 O   0  0  0  0  0  0  0  0  0  0  0  0
   44.7640   33.1910   35.6140 H   0  0  0  0  0  0  0  0  0  0  0  0
  1  6  1  0  0  0  0
  1 11  1  0  0  0  0
  2  1  2  0  0  0  0
  3  4  2  0  0  0  0
  3  2  1  0  0  0  0
  4  5  1  0  0  0  0
  5 28  1  0  0  0  0
  5  6  2  0  0  0  0
  7  2  1  0  0  0  0
  8  3  1  0  0  0  0
  9 12  1  6  0  0  0
  9 16  1  0  0  0  0
  9 10  1  0  0  0  0
  9 11  1  0  0  0  0
 10 11  1  0  0  0  0
 10 13  1  0  0  0  0
 11 15  1  1  0  0  0
 14 10  1  0  0  0  0
 16 17  1  0  0  0  0
 17 22  1  0  0  0  0
 17 18  2  0  0  0  0
 18 23  1  0  0  0  0
 19 18  1  0  0  0  0
 20 19  2  0  0  0  0
 21 20  1  0  0  0  0
 21 16  2  0  0  0  0
 24 20  1  0  0  0  0
 24 27  1  0  0  0  0
 24 26  1  0  0  0  0
 25 24  1  0  0  0  0
 28 29  1  0  0  0  0
 28 30  1  0  0  0  0
 31 33  1  0  0  0  0
 31 28  1  0  0  0  0
 32 31  1  0  0  0  0
 34 40  1  6  0  0  0
 34 35  1  0  0  0  0
 35 31  1  1  0  0  0
 35 36  1  0  0  0  0
 37 36  1  0  0  0  0
 38 42  1  1  0  0  0
 38 37  1  0  0  0  0
 39 44  1  6  0  0  0
 39 34  1  0  0  0  0
 39 38  1  0  0  0  0
 41 40  1  0  0  0  0
 43 42  1  0  0  0  0
 45 44  1  0  0  0  0
M  END
>  <minimizedAffinity>
-6.66331482

$$$$

 OpenBabel03252505443D

 45 48  0  0  1  0  0  0  0  0999 V2000
   36.8690   28.5770   40.9800 C   0  0  0  0  0  0  0  0  0  0  0  0
   36.5620   27.9200   42.1490 C   0  0  0  0  0  0  0  0  0  0  0  0
   37.1970   28.1710   43.3370 C   0  0  0  0  0  0  0  0  0  0  0  0
   38.1720   29.1150   43.3440 N   0  0  0  0  0  0  0  0  0  0  0  0
   38.4880   29.7750   42.1920 C   0  0  0  0  0  0  0  0  0  0  0  0
   37.8540   29.5180   41.0280 N   0  0  0  0  0  0  0  0  0  0  0  0
   35.7950   27.1760   42.1410 H   0  0  0  0  0  0  0  0  0  0  0  0
   36.9500   27.6480   44.2590 H   0  0  0  0  0  0  0  0  0  0  0  0
   36.2880   29.2720   38.6780 C   0  0  1  0  0  0  0  0  0  0  0  0
   34.9030   29.0610   39.3790 C   0  0  0  0  0  0  0  0  0  0  0  0
   36.1640   28.2570   39.6810 C   0  0  2  0  0  0  0  0  0  0  0  0
   36.7020   30.2850   38.9370 H   0  0  0  0  0  0  0  0  0  0  0  0
   34.1210   28.5740   38.7710 H   0  0  0  0  0  0  0  0  0  0  0  0
   34.6210   29.7730   40.1640 H   0  0  0  0  0  0  0  0  0  0  0  0
   36.0400   27.1840   39.5560 H   0  0  0  0  0  0  0  0  0  0  0  0
   36.2620   29.0120   37.2230 C   0  0  0  0  0  0  0  0  0  0  0  0
   36.2290   27.6640   36.8030 C   0  0  0  0  0  0  0  0  0  0  0  0
   36.2030   27.3920   35.4430 C   0  0  0  0  0  0  0  0  0  0  0  0
   36.2080   28.4430   34.5830 N   0  0  0  0  0  0  0  0  0  0  0  0
   36.2400   29.7050   35.0160 C   0  0  0  0  0  0  0  0  0  0  0  0
   36.2660   29.9550   36.3290 N   0  0  0  0  0  0  0  0  0  0  0  0
   36.2250   26.8590   37.5410 H   0  0  0  0  0  0  0  0  0  0  0  0
   36.1770   26.3550   35.0720 H   0  0  0  0  0  0  0  0  0  0  0  0
   36.2370   30.7220   33.9090 C   0  0  0  0  0  0  0  0  0  0  0  0
   36.9500   30.2720   32.8070 F   0  0  0  0  0  0  0  0  0  0  0  0
   36.9170   31.8790   34.3570 F   0  0  0  0  0  0  0  0  0  0  0  0
   34.9530   31.1000   33.6260 F   0  0  0  0  0  0  0  0  0  0  0  0
   39.5480   30.8010   42.1650 C   0  0  0  0  0  0  0  0  0  0  0  0
   40.3990   30.3470   41.5830 H   0  0  0  0  0  0  0  0  0  0  0  0
   39.8940   31.0530   43.1660 H   0  0  0  0  0  0  0  0  0  0  0  0
   39.1280   32.0220   41.3970 C   0  0  0  0  0  0  0  0  0  0  0  0
   38.1570   31.8900   40.8980 H   0  0  0  0  0  0  0  0  0  0  0  0
   39.0860   32.8830   42.1230 H   0  0  0  0  0  0  0  0  0  0  0  0
   39.4950   32.5090   38.9810 C   0  0  1  0  0  3  0  0  0  0  0  0
   40.1260   32.3930   40.3530 C   0  0  1  0  0  3  0  0  0  0  0  0
   40.9250   33.4650   40.6220 O   0  0  0  0  0  0  0  0  0  0  0  0
   41.2100   34.2500   39.5100 C   0  0  0  0  0  2  0  0  0  0  0  0
   41.6290   33.4640   38.3110 C   0  0  2  0  0  3  0  0  0  0  0  0
   40.6190   32.4120   37.9700 C   0  0  2  0  0  3  0  0  0  0  0  0
   38.5340   31.5160   38.8070 O   0  0  0  0  0  0  0  0  0  0  0  0
   37.7230   31.9690   38.4470 H   0  0  0  0  0  0  0  0  0  0  0  0
   42.9360   32.9940   38.3970 O   0  0  0  0  0  0  0  0  0  0  0  0
   42.9990   32.0050   38.4260 H   0  0  0  0  0  0  0  0  0  0  0  0
   40.1440   32.4870   36.6630 O   0  0  0  0  0  0  0  0  0  0  0  0
   39.8770   31.5560   36.3880 H   0  0  0  0  0  0  0  0  0  0  0  0
  1  6  2  0  0  0  0
  1  2  1  0  0  0  0
  2  3  2  0  0  0  0
  3  4  1  0  0  0  0
  3  8  1  0  0  0  0
  5  4  2  0  0  0  0
  6  5  1  0  0  0  0
  7  2  1  0  0  0  0
  9 12  1  1  0  0  0
  9 10  1  0  0  0  0
  9 11  1  0  0  0  0
 10 11  1  0  0  0  0
 10 14  1  0  0  0  0
 11 15  1  6  0  0  0
 11  1  1  0  0  0  0
 13 10  1  0  0  0  0
 16  9  1  0  0  0  0
 17 16  1  0  0  0  0
 17 22  1  0  0  0  0
 18 17  2  0  0  0  0
 19 20  2  0  0  0  0
 19 18  1  0  0  0  0
 20 21  1  0  0  0  0
 21 16  2  0  0  0  0
 23 18  1  0  0  0  0
 24 26  1  0  0  0  0
 24 20  1  0  0  0  0
 25 24  1  0  0  0  0
 27 24  1  0  0  0  0
 28  5  1  0  0  0  0
 28 30  1  0  0  0  0
 29 28  1  0  0  0  0
 31 33  1  0  0  0  0
 31 28  1  0  0  0  0
 32 31  1  0  0  0  0
 34 40  1  6  0  0  0
 34 35  1  0  0  0  0
 35 36  1  0  0  0  0
 35 31  1  1  0  0  0
 37 36  1  0  0  0  0
 38 42  1  1  0  0  0
 38 37  1  0  0  0  0
 39 44  1  6  0  0  0
 39 38  1  0  0  0  0
 39 34  1  0  0  0  0
 41 40  1  0  0  0  0
 42 43  1  0  0  0  0
 45 44  1  0  0  0  0
M  END
>  <minimizedAffinity>
-6.57492018

$$$$

 OpenBabel03252505443D

 45 48  0  0  1  0  0  0  0  0999 V2000
   37.7290   30.6900   40.6660 C   0  0  0  0  0  0  0  0  0  0  0  0
   38.8490   31.4280   40.9670 C   0  0  0  0  0  0  0  0  0  0  0  0
   39.6190   31.2020   42.0780 C   0  0  0  0  0  0  0  0  0  0  0  0
   39.2440   30.1980   42.9110 N   0  0  0  0  0  0  0  0  0  0  0  0
   38.1340   29.4560   42.6260 C   0  0  0  0  0  0  0  0  0  0  0  0
   37.3850   29.6900   41.5280 N   0  0  0  0  0  0  0  0  0  0  0  0
   39.1420   32.2200   40.3100 H   0  0  0  0  0  0  0  0  0  0  0  0
   40.5050   31.7900   42.3110 H   0  0  0  0  0  0  0  0  0  0  0  0
   37.5190   30.6440   38.2010 C   0  0  1  0  0  0  0  0  0  0  0  0
   37.3410   32.1550   38.5780 C   0  0  0  0  0  0  0  0  0  0  0  0
   36.8890   30.9830   39.4430 C   0  0  2  0  0  0  0  0  0  0  0  0
   38.6110   30.3800   38.1660 H   0  0  0  0  0  0  0  0  0  0  0  0
   36.5640   32.7060   38.0190 H   0  0  0  0  0  0  0  0  0  0  0  0
   38.2210   32.6870   38.9580 H   0  0  0  0  0  0  0  0  0  0  0  0
   35.8300   31.0030   39.6900 H   0  0  0  0  0  0  0  0  0  0  0  0
   36.7880   30.2470   36.9790 C   0  0  0  0  0  0  0  0  0  0  0  0
   35.8430   29.2050   37.0960 C   0  0  0  0  0  0  0  0  0  0  0  0
   35.1410   28.8130   35.9640 C   0  0  0  0  0  0  0  0  0  0  0  0
   35.4020   29.4600   34.7980 N   0  0  0  0  0  0  0  0  0  0  0  0
   36.3030   30.4420   34.7260 C   0  0  0  0  0  0  0  0  0  0  0  0
   36.9730   30.8100   35.8220 N   0  0  0  0  0  0  0  0  0  0  0  0
   35.6740   28.7210   38.0600 H   0  0  0  0  0  0  0  0  0  0  0  0
   34.3950   28.0040   36.0100 H   0  0  0  0  0  0  0  0  0  0  0  0
   36.4420   31.0310   33.3490 C   0  0  0  0  0  0  0  0  0  0  0  0
   37.4440   31.9900   33.3090 F   0  0  0  0  0  0  0  0  0  0  0  0
   35.2460   31.7150   33.0280 F   0  0  0  0  0  0  0  0  0  0  0  0
   36.5890   30.0320   32.4270 F   0  0  0  0  0  0  0  0  0  0  0  0
   37.6960   28.3630   43.5150 C   0  0  0  0  0  0  0  0  0  0  0  0
   37.1750   28.8620   44.3810 H   0  0  0  0  0  0  0  0  0  0  0  0
   38.5380   27.7860   43.8920 H   0  0  0  0  0  0  0  0  0  0  0  0
   36.6660   27.4870   42.8620 C   0  0  0  0  0  0  0  0  0  0  0  0
   35.8740   27.1810   43.5600 H   0  0  0  0  0  0  0  0  0  0  0  0
   36.2310   28.0610   41.9950 H   0  0  0  0  0  0  0  0  0  0  0  0
   37.4720   26.3530   40.7950 C   0  0  1  0  0  3  0  0  0  0  0  0
   37.2700   26.2480   42.2920 C   0  0  1  0  0  3  0  0  0  0  0  0
   38.3890   25.7710   42.9090 O   0  0  0  0  0  0  0  0  0  0  0  0
   39.3260   25.2270   42.0390 C   0  0  0  0  0  2  0  0  0  0  0  0
   38.7400   24.2910   41.0330 C   0  0  2  0  0  3  0  0  0  0  0  0
   37.6250   24.9400   40.2710 C   0  0  2  0  0  3  0  0  0  0  0  0
   36.4010   27.0250   40.2100 O   0  0  0  0  0  0  0  0  0  0  0  0
   36.7960   27.7110   39.6050 H   0  0  0  0  0  0  0  0  0  0  0  0
   38.4180   23.0480   41.5680 O   0  0  0  0  0  0  0  0  0  0  0  0
   37.4460   22.8510   41.5530 H   0  0  0  0  0  0  0  0  0  0  0  0
   37.7970   24.9190   38.8890 O   0  0  0  0  0  0  0  0  0  0  0  0
   36.8800   24.9250   38.4740 H   0  0  0  0  0  0  0  0  0  0  0  0
  1  2  2  0  0  0  0
  1  6  1  0  0  0  0
  2  3  1  0  0  0  0
  3  8  1  0  0  0  0
  3  4  2  0  0  0  0
  5  4  1  0  0  0  0
  5 28  1  0  0  0  0
  6  5  2  0  0  0  0
  7  2  1  0  0  0  0
  9 12  1  1  0  0  0
  9 10  1  0  0  0  0
  9 11  1  0  0  0  0
 10 14  1  0  0  0  0
 10 11  1  0  0  0  0
 11 15  1  1  0  0  0
 11  1  1  0  0  0  0
 13 10  1  0  0  0  0
 16 17  1  0  0  0  0
 16  9  1  0  0  0  0
 17 22  1  0  0  0  0
 18 23  1  0  0  0  0
 18 17  2  0  0  0  0
 19 18  1  0  0  0  0
 20 19  2  0  0  0  0
 20 21  1  0  0  0  0
 21 16  2  0  0  0  0
 24 20  1  0  0  0  0
 25 24  1  0  0  0  0
 26 24  1  0  0  0  0
 27 24  1  0  0  0  0
 28 30  1  0  0  0  0
 28 29  1  0  0  0  0
 31 28  1  0  0  0  0
 31 32  1  0  0  0  0
 33 31  1  0  0  0  0
 34 40  1  6  0  0  0
 34 35  1  0  0  0  0
 35 31  1  1  0  0  0
 35 36  1  0  0  0  0
 37 36  1  0  0  0  0
 38 42  1  1  0  0  0
 38 37  1  0  0  0  0
 39 44  1  6  0  0  0
 39 34  1  0  0  0  0
 39 38  1  0  0  0  0
 41 40  1  0  0  0  0
 43 42  1  0  0  0  0
 45 44  1  0  0  0  0
M  END
>  <minimizedAffinity>
-6.48871946

$$$$

 OpenBabel03252505443D

 45 48  0  0  1  0  0  0  0  0999 V2000
   36.6450   26.9420   39.6660 C   0  0  0  0  0  0  0  0  0  0  0  0
   36.7460   25.6700   40.1770 C   0  0  0  0  0  0  0  0  0  0  0  0
   37.4790   25.3700   41.2960 C   0  0  0  0  0  0  0  0  0  0  0  0
   38.1280   26.3870   41.9160 N   0  0  0  0  0  0  0  0  0  0  0  0
   38.0380   27.6560   41.4190 C   0  0  0  0  0  0  0  0  0  0  0  0
   37.3120   27.9370   40.3170 N   0  0  0  0  0  0  0  0  0  0  0  0
   36.2340   24.8700   39.6860 H   0  0  0  0  0  0  0  0  0  0  0  0
   37.5560   24.3610   41.6960 H   0  0  0  0  0  0  0  0  0  0  0  0
   36.2490   28.4220   37.7230 C   0  0  1  0  0  0  0  0  0  0  0  0
   34.8810   28.4130   38.4870 C   0  0  0  0  0  0  0  0  0  0  0  0
   35.8470   27.2340   38.4150 C   0  0  2  0  0  0  0  0  0  0  0  0
   36.9560   29.1530   38.2030 H   0  0  0  0  0  0  0  0  0  0  0  0
   33.9750   28.3690   37.8580 H   0  0  0  0  0  0  0  0  0  0  0  0
   34.8460   28.9110   39.4640 H   0  0  0  0  0  0  0  0  0  0  0  0
   35.4010   26.3270   38.0130 H   0  0  0  0  0  0  0  0  0  0  0  0
   36.1120   28.6220   36.2640 C   0  0  0  0  0  0  0  0  0  0  0  0
   35.7880   27.4940   35.4800 C   0  0  0  0  0  0  0  0  0  0  0  0
   35.6520   27.6550   34.1080 C   0  0  0  0  0  0  0  0  0  0  0  0
   35.8380   28.8970   33.5910 N   0  0  0  0  0  0  0  0  0  0  0  0
   36.1440   29.9410   34.3640 C   0  0  0  0  0  0  0  0  0  0  0  0
   36.2740   29.7740   35.6840 N   0  0  0  0  0  0  0  0  0  0  0  0
   35.6480   26.5190   35.9510 H   0  0  0  0  0  0  0  0  0  0  0  0
   35.3990   26.8010   33.4590 H   0  0  0  0  0  0  0  0  0  0  0  0
   36.3050   31.2280   33.6020 C   0  0  0  0  0  0  0  0  0  0  0  0
   37.1080   31.0550   32.4840 F   0  0  0  0  0  0  0  0  0  0  0  0
   36.9880   32.1560   34.4230 F   0  0  0  0  0  0  0  0  0  0  0  0
   35.0770   31.7650   33.3300 F   0  0  0  0  0  0  0  0  0  0  0  0
   38.7380   28.7810   42.0660 C   0  0  0  0  0  0  0  0  0  0  0  0
   39.6420   28.9880   41.4270 H   0  0  0  0  0  0  0  0  0  0  0  0
   39.0650   28.5300   43.0740 H   0  0  0  0  0  0  0  0  0  0  0  0
   37.9190   30.0400   42.0430 C   0  0  0  0  0  0  0  0  0  0  0  0
   36.8550   29.8430   41.8520 H   0  0  0  0  0  0  0  0  0  0  0  0
   38.0550   30.5520   43.0380 H   0  0  0  0  0  0  0  0  0  0  0  0
   37.4370   32.1510   40.8110 C   0  0  1  0  0  3  0  0  0  0  0  0
   38.3970   30.9950   41.0030 C   0  0  1  0  0  3  0  0  0  0  0  0
   39.6830   31.4360   41.1180 O   0  0  0  0  0  0  0  0  0  0  0  0
   39.8600   32.7650   40.7510 C   0  0  0  0  0  2  0  0  0  0  0  0
   39.2080   33.1230   39.4560 C   0  0  2  0  0  3  0  0  0  0  0  0
   37.7530   32.7670   39.4630 C   0  0  2  0  0  3  0  0  0  0  0  0
   36.1200   31.7030   40.8960 O   0  0  0  0  0  0  0  0  0  0  0  0
   35.6500   32.3300   41.5110 H   0  0  0  0  0  0  0  0  0  0  0  0
   39.9050   32.6560   38.3480 O   0  0  0  0  0  0  0  0  0  0  0  0
   39.4030   31.9830   37.8200 H   0  0  0  0  0  0  0  0  0  0  0  0
   36.9070   33.8350   39.1740 O   0  0  0  0  0  0  0  0  0  0  0  0
   36.0770   33.4530   38.7530 H   0  0  0  0  0  0  0  0  0  0  0  0
  1  2  2  0  0  0  0
  1  6  1  0  0  0  0
  2  3  1  0  0  0  0
  3  8  1  0  0  0  0
  3  4  2  0  0  0  0
  5  4  1  0  0  0  0
  5 28  1  0  0  0  0
  6  5  2  0  0  0  0
  7  2  1  0  0  0  0
  9 12  1  1  0  0  0
  9 11  1  0  0  0  0
  9 10  1  0  0  0  0
 10 14  1  0  0  0  0
 11 15  1  6  0  0  0
 11 10  1  0  0  0  0
 11  1  1  0  0  0  0
 13 10  1  0  0  0  0
 16  9  1  0  0  0  0
 17 22  1  0  0  0  0
 17 16  2  0  0  0  0
 18 17  1  0  0  0  0
 19 18  2  0  0  0  0
 19 20  1  0  0  0  0
 20 21  2  0  0  0  0
 21 16  1  0  0  0  0
 23 18  1  0  0  0  0
 24 20  1  0  0  0  0
 24 26  1  0  0  0  0
 25 24  1  0  0  0  0
 27 24  1  0  0  0  0
 28 30  1  0  0  0  0
 29 28  1  0  0  0  0
 31 28  1  0  0  0  0
 31 33  1  0  0  0  0
 32 31  1  0  0  0  0
 34 40  1  6  0  0  0
 34 35  1  0  0  0  0
 35 36  1  0  0  0  0
 35 31  1  1  0  0  0
 37 36  1  0  0  0  0
 38 42  1  6  0  0  0
 38 39  1  0  0  0  0
 38 37  1  0  0  0  0
 39 44  1  1  0  0  0
 39 34  1  0  0  0  0
 40 41  1  0  0  0  0
 43 42  1  0  0  0  0
 45 44  1  0  0  0  0
M  END
>  <minimizedAffinity>
-6.42916059

$$$$

 OpenBabel03252505443D

 45 48  0  0  1  0  0  0  0  0999 V2000
   34.8340   28.5810   38.1070 C   0  0  0  0  0  0  0  0  0  0  0  0
   35.3830   27.3200   38.0690 C   0  0  0  0  0  0  0  0  0  0  0  0
   36.2910   26.8720   38.9930 C   0  0  0  0  0  0  0  0  0  0  0  0
   36.6540   27.7230   39.9850 N   0  0  0  0  0  0  0  0  0  0  0  0
   36.1180   28.9780   40.0350 C   0  0  0  0  0  0  0  0  0  0  0  0
   35.2250   29.4070   39.1190 N   0  0  0  0  0  0  0  0  0  0  0  0
   35.0970   26.6510   37.2860 H   0  0  0  0  0  0  0  0  0  0  0  0
   36.7220   25.8730   38.9590 H   0  0  0  0  0  0  0  0  0  0  0  0
   32.4960   29.1240   37.5080 C   0  0  1  0  0  0  0  0  0  0  0  0
   32.9030   27.9970   36.4980 C   0  0  0  0  0  0  0  0  0  0  0  0
   33.8540   29.0510   37.0560 C   0  0  2  0  0  0  0  0  0  0  0  0
   32.1950   28.6710   38.4920 H   0  0  0  0  0  0  0  0  0  0  0  0
   32.5500   28.1270   35.4590 H   0  0  0  0  0  0  0  0  0  0  0  0
   33.0560   26.9890   36.9020 H   0  0  0  0  0  0  0  0  0  0  0  0
   34.3520   29.6410   36.2900 H   0  0  0  0  0  0  0  0  0  0  0  0
   31.4900   30.0660   36.9730 C   0  0  0  0  0  0  0  0  0  0  0  0
   30.3870   30.3790   37.7970 C   0  0  0  0  0  0  0  0  0  0  0  0
   29.4290   31.2620   37.3190 C   0  0  0  0  0  0  0  0  0  0  0  0
   29.6070   31.7830   36.0770 N   0  0  0  0  0  0  0  0  0  0  0  0
   30.6630   31.4640   35.3260 C   0  0  0  0  0  0  0  0  0  0  0  0
   31.5790   30.6110   35.7960 N   0  0  0  0  0  0  0  0  0  0  0  0
   30.2970   29.9300   38.7880 H   0  0  0  0  0  0  0  0  0  0  0  0
   28.5530   31.5340   37.9290 H   0  0  0  0  0  0  0  0  0  0  0  0
   30.6780   32.1480   33.9860 C   0  0  0  0  0  0  0  0  0  0  0  0
   31.7390   33.0350   33.8840 F   0  0  0  0  0  0  0  0  0  0  0  0
   29.5090   32.9350   33.8680 F   0  0  0  0  0  0  0  0  0  0  0  0
   30.6320   31.2150   32.9870 F   0  0  0  0  0  0  0  0  0  0  0  0
   36.4980   29.9300   41.0970 C   0  0  0  0  0  0  0  0  0  0  0  0
   37.5300   29.6210   41.4300 H   0  0  0  0  0  0  0  0  0  0  0  0
   35.8200   29.8810   41.9470 H   0  0  0  0  0  0  0  0  0  0  0  0
   36.6360   31.3300   40.5730 C   0  0  0  0  0  0  0  0  0  0  0  0
   35.9490   31.5350   39.7390 H   0  0  0  0  0  0  0  0  0  0  0  0
   36.4390   32.0350   41.4300 H   0  0  0  0  0  0  0  0  0  0  0  0
   38.0370   32.1170   38.6680 C   0  0  1  0  0  3  0  0  0  0  0  0
   38.0210   31.6130   40.0970 C   0  0  1  0  0  3  0  0  0  0  0  0
   38.8000   32.3880   40.9030 O   0  0  0  0  0  0  0  0  0  0  0  0
   39.6400   33.2550   40.2140 C   0  0  0  0  0  2  0  0  0  0  0  0
   40.3820   32.6070   39.0910 C   0  0  2  0  0  3  0  0  0  0  0  0
   39.4460   31.9160   38.1480 C   0  0  2  0  0  3  0  0  0  0  0  0
   37.0860   31.4400   37.9080 O   0  0  0  0  0  0  0  0  0  0  0  0
   36.5800   32.1370   37.4070 H   0  0  0  0  0  0  0  0  0  0  0  0
   41.4420   31.8180   39.5230 O   0  0  0  0  0  0  0  0  0  0  0  0
   41.3270   30.8540   39.3180 H   0  0  0  0  0  0  0  0  0  0  0  0
   39.5690   32.3310   36.8230 O   0  0  0  0  0  0  0  0  0  0  0  0
   39.2920   31.5580   36.2420 H   0  0  0  0  0  0  0  0  0  0  0  0
  1  6  1  0  0  0  0
  2  1  2  0  0  0  0
  2  3  1  0  0  0  0
  3  4  2  0  0  0  0
  4  5  1  0  0  0  0
  5 28  1  0  0  0  0
  6  5  2  0  0  0  0
  7  2  1  0  0  0  0
  8  3  1  0  0  0  0
  9 12  1  1  0  0  0
 10 14  1  0  0  0  0
 10 11  1  0  0  0  0
 10  9  1  0  0  0  0
 11 15  1  6  0  0  0
 11  9  1  0  0  0  0
 11  1  1  0  0  0  0
 13 10  1  0  0  0  0
 16  9  1  0  0  0  0
 16 17  1  0  0  0  0
 17 22  1  0  0  0  0
 18 17  2  0  0  0  0
 18 23  1  0  0  0  0
 19 18  1  0  0  0  0
 20 21  1  0  0  0  0
 20 19  2  0  0  0  0
 21 16  2  0  0  0  0
 24 20  1  0  0  0  0
 25 24  1  0  0  0  0
 26 24  1  0  0  0  0
 27 24  1  0  0  0  0
 28 29  1  0  0  0  0
 28 30  1  0  0  0  0
 31 28  1  0  0  0  0
 31 33  1  0  0  0  0
 32 31  1  0  0  0  0
 34 40  1  6  0  0  0
 34 35  1  0  0  0  0
 35 31  1  1  0  0  0
 35 36  1  0  0  0  0
 37 36  1  0  0  0  0
 38 42  1  1  0  0  0
 38 37  1  0  0  0  0
 39 44  1  6  0  0  0
 39 34  1  0  0  0  0
 39 38  1  0  0  0  0
 41 40  1  0  0  0  0
 43 42  1  0  0  0  0
 45 44  1  0  0  0  0
M  END
>  <minimizedAffinity>
-6.4006114

$$$$

 OpenBabel03252505443D

 45 48  0  0  1  0  0  0  0  0999 V2000
   37.5880   30.6560   40.8430 C   0  0  0  0  0  0  0  0  0  0  0  0
   36.9820   31.7990   40.3760 C   0  0  0  0  0  0  0  0  0  0  0  0
   37.6300   33.0020   40.2750 C   0  0  0  0  0  0  0  0  0  0  0  0
   38.9310   33.0510   40.6570 N   0  0  0  0  0  0  0  0  0  0  0  0
   39.5470   31.9250   41.1240 C   0  0  0  0  0  0  0  0  0  0  0  0
   38.8960   30.7460   41.2180 N   0  0  0  0  0  0  0  0  0  0  0  0
   35.9560   31.7580   40.0760 H   0  0  0  0  0  0  0  0  0  0  0  0
   37.1460   33.9030   39.9040 H   0  0  0  0  0  0  0  0  0  0  0  0
   36.6960   28.6340   39.7320 C   0  0  1  0  0  0  0  0  0  0  0  0
   35.4350   29.3180   40.3600 C   0  0  0  0  0  0  0  0  0  0  0  0
   36.8350   29.3510   40.9640 C   0  0  2  0  0  0  0  0  0  0  0  0
   36.9550   29.1230   38.7530 H   0  0  0  0  0  0  0  0  0  0  0  0
   34.6950   28.6410   40.8220 H   0  0  0  0  0  0  0  0  0  0  0  0
   35.1070   30.2700   39.9240 H   0  0  0  0  0  0  0  0  0  0  0  0
   36.8830   28.9620   41.9790 H   0  0  0  0  0  0  0  0  0  0  0  0
   36.5860   27.1630   39.6330 C   0  0  0  0  0  0  0  0  0  0  0  0
   35.8790   26.6360   38.5300 C   0  0  0  0  0  0  0  0  0  0  0  0
   35.7610   25.2580   38.4130 C   0  0  0  0  0  0  0  0  0  0  0  0
   36.3380   24.4860   39.3700 N   0  0  0  0  0  0  0  0  0  0  0  0
   36.9990   25.0200   40.3980 C   0  0  0  0  0  0  0  0  0  0  0  0
   37.1050   26.3480   40.5020 N   0  0  0  0  0  0  0  0  0  0  0  0
   35.4360   27.3050   37.7900 H   0  0  0  0  0  0  0  0  0  0  0  0
   35.2180   24.8040   37.5680 H   0  0  0  0  0  0  0  0  0  0  0  0
   37.5670   23.9980   41.3460 C   0  0  0  0  0  0  0  0  0  0  0  0
   38.9520   24.0590   41.3840 F   0  0  0  0  0  0  0  0  0  0  0  0
   37.2540   22.7070   40.8580 F   0  0  0  0  0  0  0  0  0  0  0  0
   36.9690   24.1160   42.5700 F   0  0  0  0  0  0  0  0  0  0  0  0
   40.9580   31.9480   41.5540 C   0  0  0  0  0  0  0  0  0  0  0  0
   41.4650   31.1180   40.9850 H   0  0  0  0  0  0  0  0  0  0  0  0
   41.0590   31.7610   42.6210 H   0  0  0  0  0  0  0  0  0  0  0  0
   41.6500   33.2150   41.1410 C   0  0  0  0  0  0  0  0  0  0  0  0
   40.9420   34.0200   40.9020 H   0  0  0  0  0  0  0  0  0  0  0  0
   42.3300   33.5220   41.9860 H   0  0  0  0  0  0  0  0  0  0  0  0
   42.2600   34.0420   38.8710 C   0  0  1  0  0  3  0  0  0  0  0  0
   42.5210   33.0090   39.9480 C   0  0  1  0  0  3  0  0  0  0  0  0
   43.8570   32.8660   40.1800 O   0  0  0  0  0  0  0  0  0  0  0  0
   44.6650   33.4530   39.2140 C   0  0  0  0  0  2  0  0  0  0  0  0
   44.2540   33.1370   37.8130 C   0  0  2  0  0  3  0  0  0  0  0  0
   42.8150   33.4800   37.5780 C   0  0  2  0  0  3  0  0  0  0  0  0
   40.8970   34.3190   38.7890 O   0  0  0  0  0  0  0  0  0  0  0  0
   40.8120   35.3120   38.7790 H   0  0  0  0  0  0  0  0  0  0  0  0
   44.6060   31.8500   37.4190 O   0  0  0  0  0  0  0  0  0  0  0  0
   43.8250   31.2680   37.2310 H   0  0  0  0  0  0  0  0  0  0  0  0
   42.6080   34.3480   36.5080 O   0  0  0  0  0  0  0  0  0  0  0  0
   41.6900   34.1580   36.1430 H   0  0  0  0  0  0  0  0  0  0  0  0
  1 11  1  0  0  0  0
  1  6  1  0  0  0  0
  2  1  2  0  0  0  0
  3  2  1  0  0  0  0
  3  4  2  0  0  0  0
  4  5  1  0  0  0  0
  5  6  2  0  0  0  0
  5 28  1  0  0  0  0
  7  2  1  0  0  0  0
  8  3  1  0  0  0  0
  9 12  1  6  0  0  0
  9 10  1  0  0  0  0
  9 11  1  0  0  0  0
 10 13  1  0  0  0  0
 10 11  1  0  0  0  0
 11 15  1  1  0  0  0
 14 10  1  0  0  0  0
 16  9  1  0  0  0  0
 16 21  1  0  0  0  0
 17 16  2  0  0  0  0
 18 17  1  0  0  0  0
 18 19  2  0  0  0  0
 19 20  1  0  0  0  0
 20 21  2  0  0  0  0
 20 24  1  0  0  0  0
 22 17  1  0  0  0  0
 23 18  1  0  0  0  0
 24 25  1  0  0  0  0
 24 27  1  0  0  0  0
 26 24  1  0  0  0  0
 28 30  1  0  0  0  0
 29 28  1  0  0  0  0
 31 28  1  0  0  0  0
 31 33  1  0  0  0  0
 32 31  1  0  0  0  0
 34 40  1  6  0  0  0
 34 35  1  0  0  0  0
 35 36  1  0  0  0  0
 35 31  1  1  0  0  0
 37 36  1  0  0  0  0
 38 42  1  1  0  0  0
 38 37  1  0  0  0  0
 39 44  1  6  0  0  0
 39 38  1  0  0  0  0
 39 34  1  0  0  0  0
 41 40  1  0  0  0  0
 43 42  1  0  0  0  0
 45 44  1  0  0  0  0
M  END
>  <minimizedAffinity>
-6.36996555

$$$$

 OpenBabel03252505443D

 45 48  0  0  1  0  0  0  0  0999 V2000
   36.5630   25.4000   39.2030 C   0  0  0  0  0  0  0  0  0  0  0  0
   36.7620   24.0770   39.5210 C   0  0  0  0  0  0  0  0  0  0  0  0
   37.1560   23.6570   40.7650 C   0  0  0  0  0  0  0  0  0  0  0  0
   37.3530   24.6050   41.7160 N   0  0  0  0  0  0  0  0  0  0  0  0
   37.1590   25.9220   41.4160 C   0  0  0  0  0  0  0  0  0  0  0  0
   36.7710   26.3210   40.1860 N   0  0  0  0  0  0  0  0  0  0  0  0
   36.6080   23.3320   38.7690 H   0  0  0  0  0  0  0  0  0  0  0  0
   37.3120   22.6090   41.0110 H   0  0  0  0  0  0  0  0  0  0  0  0
   34.9170   26.5530   37.7600 C   0  0  1  0  0  0  0  0  0  0  0  0
   34.9670   25.0910   37.1980 C   0  0  0  0  0  0  0  0  0  0  0  0
   36.1520   25.8290   37.8120 C   0  0  2  0  0  0  0  0  0  0  0  0
   34.2420   26.6000   38.6580 H   0  0  0  0  0  0  0  0  0  0  0  0
   34.9410   24.9920   36.0990 H   0  0  0  0  0  0  0  0  0  0  0  0
   34.5530   24.2940   37.8290 H   0  0  0  0  0  0  0  0  0  0  0  0
   37.0140   25.8990   37.1520 H   0  0  0  0  0  0  0  0  0  0  0  0
   34.5920   27.5700   36.7370 C   0  0  0  0  0  0  0  0  0  0  0  0
   33.2300   27.7540   36.4120 C   0  0  0  0  0  0  0  0  0  0  0  0
   32.8980   28.7040   35.4570 C   0  0  0  0  0  0  0  0  0  0  0  0
   33.9060   29.4110   34.8840 N   0  0  0  0  0  0  0  0  0  0  0  0
   35.1820   29.2100   35.2160 C   0  0  0  0  0  0  0  0  0  0  0  0
   35.4910   28.2910   36.1370 N   0  0  0  0  0  0  0  0  0  0  0  0
   32.4620   27.1570   36.9070 H   0  0  0  0  0  0  0  0  0  0  0  0
   31.8480   28.8810   35.1730 H   0  0  0  0  0  0  0  0  0  0  0  0
   36.1460   30.0930   34.4720 C   0  0  0  0  0  0  0  0  0  0  0  0
   36.8600   30.9060   35.3400 F   0  0  0  0  0  0  0  0  0  0  0  0
   35.4060   30.9730   33.6470 F   0  0  0  0  0  0  0  0  0  0  0  0
   36.9290   29.3360   33.6450 F   0  0  0  0  0  0  0  0  0  0  0  0
   37.3720   26.9760   42.4260 C   0  0  0  0  0  0  0  0  0  0  0  0
   38.4600   27.2610   42.3470 H   0  0  0  0  0  0  0  0  0  0  0  0
   37.1710   26.6180   43.4340 H   0  0  0  0  0  0  0  0  0  0  0  0
   36.5950   28.2220   42.1110 C   0  0  0  0  0  0  0  0  0  0  0  0
   35.7790   28.0370   41.3980 H   0  0  0  0  0  0  0  0  0  0  0  0
   36.1890   28.6250   43.0820 H   0  0  0  0  0  0  0  0  0  0  0  0
   36.7740   30.6380   41.5280 C   0  0  1  0  0  3  0  0  0  0  0  0
   37.4640   29.2890   41.5360 C   0  0  1  0  0  3  0  0  0  0  0  0
   38.7300   29.3840   42.0350 O   0  0  0  0  0  0  0  0  0  0  0  0
   39.1970   30.6890   42.1440 C   0  0  0  0  0  2  0  0  0  0  0  0
   38.9600   31.5170   40.9230 C   0  0  2  0  0  3  0  0  0  0  0  0
   37.5150   31.5050   40.5310 C   0  0  2  0  0  3  0  0  0  0  0  0
   35.4270   30.4880   41.2080 O   0  0  0  0  0  0  0  0  0  0  0  0
   34.9180   31.0160   41.8820 H   0  0  0  0  0  0  0  0  0  0  0  0
   39.8360   31.2190   39.8850 O   0  0  0  0  0  0  0  0  0  0  0  0
   39.3880   30.8410   39.0850 H   0  0  0  0  0  0  0  0  0  0  0  0
   36.9460   32.7720   40.4280 O   0  0  0  0  0  0  0  0  0  0  0  0
   36.2010   32.7110   39.7530 H   0  0  0  0  0  0  0  0  0  0  0  0
  1  2  2  0  0  0  0
  1  6  1  0  0  0  0
  2  3  1  0  0  0  0
  3  8  1  0  0  0  0
  3  4  2  0  0  0  0
  5  4  1  0  0  0  0
  5 28  1  0  0  0  0
  6  5  2  0  0  0  0
  7  2  1  0  0  0  0
  9 11  1  0  0  0  0
  9 12  1  1  0  0  0
 10  9  1  0  0  0  0
 10 11  1  0  0  0  0
 10 14  1  0  0  0  0
 11 15  1  6  0  0  0
 11  1  1  0  0  0  0
 13 10  1  0  0  0  0
 16  9  1  0  0  0  0
 17 16  1  0  0  0  0
 17 22  1  0  0  0  0
 18 17  2  0  0  0  0
 19 20  2  0  0  0  0
 19 18  1  0  0  0  0
 20 21  1  0  0  0  0
 21 16  2  0  0  0  0
 23 18  1  0  0  0  0
 24 20  1  0  0  0  0
 24 25  1  0  0  0  0
 26 24  1  0  0  0  0
 27 24  1  0  0  0  0
 28 30  1  0  0  0  0
 29 28  1  0  0  0  0
 31 28  1  0  0  0  0
 31 33  1  0  0  0  0
 32 31  1  0  0  0  0
 34 40  1  6  0  0  0
 34 35  1  0  0  0  0
 35 36  1  0  0  0  0
 35 31  1  1  0  0  0
 36 37  1  0  0  0  0
 38 42  1  6  0  0  0
 38 37  1  0  0  0  0
 39 44  1  1  0  0  0
 39 38  1  0  0  0  0
 39 34  1  0  0  0  0
 40 41  1  0  0  0  0
 43 42  1  0  0  0  0
 45 44  1  0  0  0  0
M  END
>  <minimizedAffinity>
-6.36071587

$$$$

 OpenBabel03252505443D

 45 48  0  0  1  0  0  0  0  0999 V2000
   36.7540   28.6080   41.1670 C   0  0  0  0  0  0  0  0  0  0  0  0
   36.5770   27.9140   42.3420 C   0  0  0  0  0  0  0  0  0  0  0  0
   37.3870   28.0740   43.4350 C   0  0  0  0  0  0  0  0  0  0  0  0
   38.4080   28.9620   43.3370 N   0  0  0  0  0  0  0  0  0  0  0  0
   38.5980   29.6580   42.1780 C   0  0  0  0  0  0  0  0  0  0  0  0
   37.7910   29.4910   41.1090 N   0  0  0  0  0  0  0  0  0  0  0  0
   35.7720   27.2140   42.4160 H   0  0  0  0  0  0  0  0  0  0  0  0
   37.2420   27.5230   44.3620 H   0  0  0  0  0  0  0  0  0  0  0  0
   35.7750   29.5070   39.0810 C   0  0  1  0  0  0  0  0  0  0  0  0
   34.5340   29.1520   39.9690 C   0  0  0  0  0  0  0  0  0  0  0  0
   35.8540   28.3880   39.9720 C   0  0  2  0  0  0  0  0  0  0  0  0
   36.1910   30.5080   39.3800 H   0  0  0  0  0  0  0  0  0  0  0  0
   33.6780   28.6900   39.4450 H   0  0  0  0  0  0  0  0  0  0  0  0
   34.3620   29.7630   40.8630 H   0  0  0  0  0  0  0  0  0  0  0  0
   35.7470   27.3290   39.7500 H   0  0  0  0  0  0  0  0  0  0  0  0
   35.5160   29.3980   37.6290 C   0  0  0  0  0  0  0  0  0  0  0  0
   36.6030   29.6180   36.7560 C   0  0  0  0  0  0  0  0  0  0  0  0
   36.3870   29.5200   35.3880 C   0  0  0  0  0  0  0  0  0  0  0  0
   35.1340   29.2140   34.9620 N   0  0  0  0  0  0  0  0  0  0  0  0
   34.1310   29.0130   35.8170 C   0  0  0  0  0  0  0  0  0  0  0  0
   34.3490   29.1110   37.1320 N   0  0  0  0  0  0  0  0  0  0  0  0
   37.5890   29.8600   37.1560 H   0  0  0  0  0  0  0  0  0  0  0  0
   37.2070   29.6840   34.6710 H   0  0  0  0  0  0  0  0  0  0  0  0
   32.8250   28.6820   35.1470 C   0  0  0  0  0  0  0  0  0  0  0  0
   32.9920   27.7190   34.1630 F   0  0  0  0  0  0  0  0  0  0  0  0
   32.3560   29.8370   34.4770 F   0  0  0  0  0  0  0  0  0  0  0  0
   31.8870   28.3600   36.0890 F   0  0  0  0  0  0  0  0  0  0  0  0
   39.7030   30.6250   42.0390 C   0  0  0  0  0  0  0  0  0  0  0  0
   40.4150   30.1710   41.2930 H   0  0  0  0  0  0  0  0  0  0  0  0
   40.2260   30.7820   42.9800 H   0  0  0  0  0  0  0  0  0  0  0  0
   39.2430   31.9200   41.4340 C   0  0  0  0  0  0  0  0  0  0  0  0
   38.2350   31.8460   41.0020 H   0  0  0  0  0  0  0  0  0  0  0  0
   39.2700   32.7030   42.2450 H   0  0  0  0  0  0  0  0  0  0  0  0
   39.4830   32.4180   39.0040 C   0  0  1  0  0  3  0  0  0  0  0  0
   40.1630   32.3900   40.3580 C   0  0  1  0  0  3  0  0  0  0  0  0
   40.8430   33.5480   40.5940 O   0  0  0  0  0  0  0  0  0  0  0  0
   41.0050   34.3470   39.4680 C   0  0  0  0  0  2  0  0  0  0  0  0
   41.4760   33.6000   38.2630 C   0  0  2  0  0  3  0  0  0  0  0  0
   40.5810   32.4370   37.9610 C   0  0  2  0  0  3  0  0  0  0  0  0
   38.6360   31.3210   38.8670 O   0  0  0  0  0  0  0  0  0  0  0  0
   37.7690   31.6760   38.5280 H   0  0  0  0  0  0  0  0  0  0  0  0
   42.8290   33.2810   38.3140 O   0  0  0  0  0  0  0  0  0  0  0  0
   43.0040   32.3060   38.3490 H   0  0  0  0  0  0  0  0  0  0  0  0
   40.0630   32.4430   36.6680 O   0  0  0  0  0  0  0  0  0  0  0  0
   39.8960   31.4850   36.4090 H   0  0  0  0  0  0  0  0  0  0  0  0
  1  2  1  0  0  0  0
  2  7  1  0  0  0  0
  2  3  2  0  0  0  0
  3  8  1  0  0  0  0
  4  3  1  0  0  0  0
  5  4  2  0  0  0  0
  6  1  2  0  0  0  0
  6  5  1  0  0  0  0
  9 12  1  1  0  0  0
  9 10  1  0  0  0  0
  9 11  1  0  0  0  0
 10 11  1  0  0  0  0
 10 14  1  0  0  0  0
 11 15  1  6  0  0  0
 11  1  1  0  0  0  0
 13 10  1  0  0  0  0
 16  9  1  0  0  0  0
 17 22  1  0  0  0  0
 17 16  2  0  0  0  0
 18 17  1  0  0  0  0
 19 18  2  0  0  0  0
 19 20  1  0  0  0  0
 20 21  2  0  0  0  0
 21 16  1  0  0  0  0
 23 18  1  0  0  0  0
 24 20  1  0  0  0  0
 24 27  1  0  0  0  0
 25 24  1  0  0  0  0
 26 24  1  0  0  0  0
 28  5  1  0  0  0  0
 28 30  1  0  0  0  0
 29 28  1  0  0  0  0
 31 28  1  0  0  0  0
 31 33  1  0  0  0  0
 32 31  1  0  0  0  0
 34 40  1  6  0  0  0
 34 35  1  0  0  0  0
 35 36  1  0  0  0  0
 35 31  1  1  0  0  0
 37 36  1  0  0  0  0
 38 42  1  1  0  0  0
 38 37  1  0  0  0  0
 39 44  1  6  0  0  0
 39 38  1  0  0  0  0
 39 34  1  0  0  0  0
 41 40  1  0  0  0  0
 42 43  1  0  0  0  0
 45 44  1  0  0  0  0
M  END
>  <minimizedAffinity>
-6.35395288

$$$$

 OpenBabel03252505443D

 45 48  0  0  1  0  0  0  0  0999 V2000
   36.6110   27.2360   40.0270 C   0  0  0  0  0  0  0  0  0  0  0  0
   36.9310   25.9650   40.4440 C   0  0  0  0  0  0  0  0  0  0  0  0
   37.6510   25.7090   41.5800 C   0  0  0  0  0  0  0  0  0  0  0  0
   38.0610   26.7710   42.3190 N   0  0  0  0  0  0  0  0  0  0  0  0
   37.7530   28.0390   41.9180 C   0  0  0  0  0  0  0  0  0  0  0  0
   37.0410   28.2770   40.7970 N   0  0  0  0  0  0  0  0  0  0  0  0
   36.6080   25.1300   39.8590 H   0  0  0  0  0  0  0  0  0  0  0  0
   37.9020   24.7010   41.9050 H   0  0  0  0  0  0  0  0  0  0  0  0
   36.2960   28.6030   37.9890 C   0  0  1  0  0  0  0  0  0  0  0  0
   34.9250   28.7080   38.7410 C   0  0  0  0  0  0  0  0  0  0  0  0
   35.8340   27.4820   38.7530 C   0  0  2  0  0  0  0  0  0  0  0  0
   37.0340   29.3290   38.4270 H   0  0  0  0  0  0  0  0  0  0  0  0
   34.0210   28.6660   38.1090 H   0  0  0  0  0  0  0  0  0  0  0  0
   34.9080   29.2690   39.6830 H   0  0  0  0  0  0  0  0  0  0  0  0
   35.3480   26.5730   38.4080 H   0  0  0  0  0  0  0  0  0  0  0  0
   36.1760   28.7130   36.5190 C   0  0  0  0  0  0  0  0  0  0  0  0
   35.8720   27.5370   35.8010 C   0  0  0  0  0  0  0  0  0  0  0  0
   35.7520   27.6140   34.4200 C   0  0  0  0  0  0  0  0  0  0  0  0
   35.9340   28.8240   33.8320 N   0  0  0  0  0  0  0  0  0  0  0  0
   36.2210   29.9150   34.5440 C   0  0  0  0  0  0  0  0  0  0  0  0
   36.3350   29.8300   35.8730 N   0  0  0  0  0  0  0  0  0  0  0  0
   35.7350   26.5910   36.3280 H   0  0  0  0  0  0  0  0  0  0  0  0
   35.5160   26.7200   33.8200 H   0  0  0  0  0  0  0  0  0  0  0  0
   36.3810   31.1560   33.7080 C   0  0  0  0  0  0  0  0  0  0  0  0
   37.0100   32.1670   34.4190 F   0  0  0  0  0  0  0  0  0  0  0  0
   35.0960   31.6550   33.3890 F   0  0  0  0  0  0  0  0  0  0  0  0
   36.9910   30.8440   32.5240 F   0  0  0  0  0  0  0  0  0  0  0  0
   38.1900   29.2140   42.6960 C   0  0  0  0  0  0  0  0  0  0  0  0
   38.5830   28.8080   43.6700 H   0  0  0  0  0  0  0  0  0  0  0  0
   37.3650   29.8950   42.9010 H   0  0  0  0  0  0  0  0  0  0  0  0
   39.3460   29.9190   42.0460 C   0  0  0  0  0  0  0  0  0  0  0  0
   40.1070   30.2340   42.7730 H   0  0  0  0  0  0  0  0  0  0  0  0
   39.7910   29.2150   41.2870 H   0  0  0  0  0  0  0  0  0  0  0  0
   39.4100   31.1260   39.8670 C   0  0  1  0  0  3  0  0  0  0  0  0
   38.9080   31.1320   41.2960 C   0  0  1  0  0  3  0  0  0  0  0  0
   37.5810   31.4420   41.3520 O   0  0  0  0  0  0  0  0  0  0  0  0
   37.0700   31.9560   40.1660 C   0  0  0  0  0  2  0  0  0  0  0  0
   37.9200   33.0240   39.5580 C   0  0  2  0  0  3  0  0  0  0  0  0
   39.3290   32.5540   39.3670 C   0  0  2  0  0  3  0  0  0  0  0  0
   40.7050   30.6160   39.8130 O   0  0  0  0  0  0  0  0  0  0  0  0
   40.7120   29.9440   39.0770 H   0  0  0  0  0  0  0  0  0  0  0  0
   37.8090   34.2460   40.2120 O   0  0  0  0  0  0  0  0  0  0  0  0
   38.6520   34.5410   40.6440 H   0  0  0  0  0  0  0  0  0  0  0  0
   39.7910   32.6680   38.0570 O   0  0  0  0  0  0  0  0  0  0  0  0
   40.7890   32.7890   38.1020 H   0  0  0  0  0  0  0  0  0  0  0  0
  1  2  2  0  0  0  0
  1  6  1  0  0  0  0
  2  3  1  0  0  0  0
  3  8  1  0  0  0  0
  3  4  2  0  0  0  0
  5  4  1  0  0  0  0
  5 28  1  0  0  0  0
  6  5  2  0  0  0  0
  7  2  1  0  0  0  0
  9 12  1  1  0  0  0
  9 10  1  0  0  0  0
  9 11  1  0  0  0  0
 10 11  1  0  0  0  0
 10 14  1  0  0  0  0
 11 15  1  6  0  0  0
 11  1  1  0  0  0  0
 13 10  1  0  0  0  0
 16  9  1  0  0  0  0
 17 22  1  0  0  0  0
 17 16  2  0  0  0  0
 18 17  1  0  0  0  0
 19 18  2  0  0  0  0
 19 20  1  0  0  0  0
 20 21  2  0  0  0  0
 21 16  1  0  0  0  0
 23 18  1  0  0  0  0
 24 25  1  0  0  0  0
 24 20  1  0  0  0  0
 26 24  1  0  0  0  0
 27 24  1  0  0  0  0
 28 30  1  0  0  0  0
 28 29  1  0  0  0  0
 31 28  1  0  0  0  0
 31 32  1  0  0  0  0
 33 31  1  0  0  0  0
 34 40  1  1  0  0  0
 34 35  1  0  0  0  0
 35 36  1  0  0  0  0
 35 31  1  6  0  0  0
 37 36  1  0  0  0  0
 38 37  1  0  0  0  0
 38 42  1  1  0  0  0
 39 44  1  6  0  0  0
 39 38  1  0  0  0  0
 39 34  1  0  0  0  0
 41 40  1  0  0  0  0
 42 43  1  0  0  0  0
 44 45  1  0  0  0  0
M  END
>  <minimizedAffinity>
-6.30840778

$$$$
