
     RDKit          3D

 28 29  0  0  0  0  0  0  0  0999 V2000
   44.2720   35.7278   44.2664 C   0  0  0  0  0  0  0  0  0  0  0  0
   44.4222   34.9213   43.1342 C   0  0  0  0  0  0  0  0  0  0  0  0
   45.0601   33.6880   43.2666 C   0  0  0  0  0  0  0  0  0  0  0  0
   45.5046   33.3416   44.5166 N   0  0  0  0  0  0  0  0  0  0  0  0
   45.3394   34.1435   45.5713 C   0  0  0  0  0  0  0  0  0  0  0  0
   44.7278   35.3435   45.4828 N   0  0  0  0  0  0  0  0  0  0  0  0
   43.8118   35.4334   41.5330 S   0  0  0  0  0  0  0  0  0  0  0  0
   43.7849   36.6922   44.1974 H   0  0  0  0  0  0  0  0  0  0  0  0
   45.1689   33.0750   42.3825 H   0  0  0  0  0  0  0  0  0  0  0  0
   45.7688   33.6586   46.4419 H   0  0  0  0  0  0  0  0  0  0  0  0
   42.2712   34.9252   38.9712 O   0  0  0  0  0  0  0  0  0  0  0  0
   41.9432   34.0771   40.0114 C   0  0  2  0  0  0  0  0  0  0  0  0
   42.1353   34.8189   41.3186 C   0  0  1  0  0  0  0  0  0  0  0  0
   41.8595   33.9617   42.4072 O   0  0  0  0  0  0  0  0  0  0  0  0
   42.9086   33.0231   42.3899 C   0  0  0  0  0  0  0  0  0  0  0  0
   42.6871   32.0494   41.2502 C   0  0  1  0  0  0  0  0  0  0  0  0
   41.4207   31.4770   41.3602 O   0  0  0  0  0  0  0  0  0  0  0  0
   42.8002   32.8326   39.9532 C   0  0  1  0  0  0  0  0  0  0  0  0
   42.4018   32.0730   38.8741 O   0  0  0  0  0  0  0  0  0  0  0  0
   42.6818   34.4386   38.1950 H   0  0  0  0  0  0  0  0  0  0  0  0
   40.8683   33.8387   39.8890 H   0  0  0  0  0  0  0  0  0  0  0  0
   41.3689   35.6267   41.3196 H   0  0  0  0  0  0  0  0  0  0  0  0
   42.9279   32.4068   43.3142 H   0  0  0  0  0  0  0  0  0  0  0  0
   43.9046   33.4843   42.3071 H   0  0  0  0  0  0  0  0  0  0  0  0
   43.4707   31.2915   41.2701 H   0  0  0  0  0  0  0  0  0  0  0  0
   41.0350   31.7334   42.2256 H   0  0  0  0  0  0  0  0  0  0  0  0
   43.8577   33.1218   39.8080 H   0  0  0  0  0  0  0  0  0  0  0  0
   43.1976   31.5435   38.5702 H   0  0  0  0  0  0  0  0  0  0  0  0
  1  6  2  0
  2  3  2  0
  2  1  1  0
  3  4  1  0
  4  5  2  0
  6  5  1  0
  7  2  1  0
  1  8  1  0
  3  9  1  0
  5 10  1  0
 11 12  1  0
 12 13  1  0
 13 14  1  0
 14 15  1  0
 15 16  1  0
 16 17  1  0
 16 18  1  0
 18 19  1  0
 18 12  1  0
 11 20  1  0
 12 21  1  6
 13 22  1  6
 15 23  1  0
 15 24  1  0
 16 25  1  6
 17 26  1  0
 18 27  1  6
 19 28  1  0
  7 13  1  0
M  ISO  3   8  14   9  14  10  14
M  END
>  <DihAtoms>  (1) 
1,6,12,11

>  <DihDeg>  (1) 
65.96712231661348

$$$$
