
 OpenBabel03252500283D

 46 48  0  0  1  0  0  0  0  0999 V2000
   36.2460   28.6840   40.3380 O   0  0  0  0  0  0  0  0  0  0  0  0
   36.7720   29.8110   41.1540 P   0  0  1  0  0  0  0  0  0  0  0  0
   35.5300   30.9340   41.4080 O   0  0  0  0  0  0  0  0  0  0  0  0
   34.9980   30.9560   40.5740 H   0  0  0  0  0  0  0  0  0  0  0  0
   37.2640   29.1850   42.5970 O   0  0  0  0  0  0  0  0  0  0  0  0
   37.8960   26.9460   43.1370 C   0  0  2  0  0  0  0  0  0  0  0  0
   38.1870   28.1960   42.3930 C   0  0  2  0  0  0  0  0  0  0  0  0
   39.5360   28.5780   42.7490 C   0  0  0  0  0  0  0  0  0  0  0  0
   40.2200   27.4440   43.2080 O   0  0  0  0  0  0  0  0  0  0  0  0
   39.3760   26.4020   43.0310 C   0  0  0  0  0  0  0  0  0  0  0  0
   37.9020   26.9800   44.2390 H   0  0  0  0  0  0  0  0  0  0  0  0
   38.0000   27.8870   41.3200 H   0  0  0  0  0  0  0  0  0  0  0  0
   40.0620   28.6510   41.7300 H   0  0  0  0  0  0  0  0  0  0  0  0
   39.8420   29.5340   43.1190 H   0  0  0  0  0  0  0  0  0  0  0  0
   39.4250   26.0900   41.9510 H   0  0  0  0  0  0  0  0  0  0  0  0
   39.5010   25.5180   43.6480 H   0  0  0  0  0  0  0  0  0  0  0  0
   37.0900   26.0490   42.5420 O   0  0  0  0  0  0  0  0  0  0  0  0
   37.4840   25.0540   41.7930 C   0  0  0  0  0  0  0  0  0  0  0  0
   37.6480   24.0660   42.1570 H   0  0  0  0  0  0  0  0  0  0  0  0
   38.6260   25.3660   41.5310 H   0  0  0  0  0  0  0  0  0  0  0  0
   36.8710   25.2180   40.4080 C   0  0  0  0  0  0  0  0  0  0  0  0
   37.1030   24.3400   39.7700 H   0  0  0  0  0  0  0  0  0  0  0  0
   37.2590   26.1260   39.9110 H   0  0  0  0  0  0  0  0  0  0  0  0
   35.7730   25.2760   40.5580 H   0  0  0  0  0  0  0  0  0  0  0  0
   38.0570   30.4800   40.2480 O   0  0  0  0  0  0  0  0  0  0  0  0
   39.9130   33.5270   40.5610 C   0  0  0  0  0  0  0  0  0  0  0  0
   38.9610   34.5510   40.2630 C   0  0  0  0  0  0  0  0  0  0  0  0
   37.6700   34.1060   39.9570 C   0  0  0  0  0  0  0  0  0  0  0  0
   37.3970   32.7880   39.9570 N   0  0  0  0  0  0  0  0  0  0  0  0
   38.3270   31.8580   40.2430 C   0  0  0  0  0  0  0  0  0  0  0  0
   39.5810   32.2250   40.5450 N   0  0  0  0  0  0  0  0  0  0  0  0
   39.2140   35.5830   40.2740 H   0  0  0  0  0  0  0  0  0  0  0  0
   36.9150   34.8500   39.7240 H   0  0  0  0  0  0  0  0  0  0  0  0
   41.2010   33.9020   40.8700 O   0  0  0  0  0  0  0  0  0  0  0  0
   41.8520   34.3090   38.6040 C   0  0  1  0  0  3  0  0  0  0  0  0
   42.2630   33.7640   39.9380 C   0  0  1  0  0  3  0  0  0  0  0  0
   43.3840   34.4210   40.4110 O   0  0  0  0  0  0  0  0  0  0  0  0
   44.5380   34.0380   39.7230 C   0  0  0  0  0  2  0  0  0  0  0  0
   44.1980   33.6970   38.2770 C   0  0  1  0  0  3  0  0  0  0  0  0
   43.0940   34.6020   37.7980 C   0  0  1  0  0  3  0  0  0  0  0  0
   41.0160   33.4140   37.9130 O   0  0  0  0  0  0  0  0  0  0  0  0
   40.1920   33.8990   37.6070 H   0  0  0  0  0  0  0  0  0  0  0  0
   45.3460   33.8520   37.5280 O   0  0  0  0  0  0  0  0  0  0  0  0
   45.0710   33.9730   36.5910 H   0  0  0  0  0  0  0  0  0  0  0  0
   42.8320   34.4130   36.4540 O   0  0  0  0  0  0  0  0  0  0  0  0
   42.9940   35.2160   35.8890 H   0  0  0  0  0  0  0  0  0  0  0  0
  2  1  2  6  0  0  0
  2  3  1  0  0  0  0
  2  5  1  0  0  0  0
  4  3  1  0  0  0  0
  6 11  1  1  0  0  0
  7 12  1  6  0  0  0
  7  5  1  0  0  0  0
  7  8  1  0  0  0  0
  7  6  1  0  0  0  0
  8 14  1  0  0  0  0
  8  9  1  0  0  0  0
 10  6  1  0  0  0  0
 10  9  1  0  0  0  0
 10 16  1  0  0  0  0
 13  8  1  0  0  0  0
 15 10  1  0  0  0  0
 17  6  1  0  0  0  0
 18 19  1  0  0  0  0
 18 17  1  0  0  0  0
 20 18  1  0  0  0  0
 21 24  1  0  0  0  0
 21 18  1  0  0  0  0
 22 21  1  0  0  0  0
 23 21  1  0  0  0  0
 25  2  1  0  0  0  0
 26 34  1  0  0  0  0
 27 32  1  0  0  0  0
 27 26  2  0  0  0  0
 28 27  1  0  0  0  0
 29 28  2  0  0  0  0
 29 30  1  0  0  0  0
 30 25  1  0  0  0  0
 30 31  2  0  0  0  0
 31 26  1  0  0  0  0
 33 28  1  0  0  0  0
 35 41  1  6  0  0  0
 35 36  1  0  0  0  0
 36 37  1  0  0  0  0
 36 34  1  1  0  0  0
 38 37  1  0  0  0  0
 39 43  1  6  0  0  0
 39 38  1  0  0  0  0
 40 45  1  6  0  0  0
 40 39  1  0  0  0  0
 40 35  1  0  0  0  0
 42 41  1  0  0  0  0
 44 43  1  0  0  0  0
 46 45  1  0  0  0  0
M  END
>  <minimizedAffinity>
-6.80550432

$$$$

 OpenBabel03252500283D

 46 48  0  0  1  0  0  0  0  0999 V2000
   36.6770   26.8850   42.7550 O   0  0  0  0  0  0  0  0  0  0  0  0
   37.7370   27.8370   43.1820 P   0  0  1  0  0  0  0  0  0  0  0  0
   37.0280   29.0810   44.0880 O   0  0  0  0  0  0  0  0  0  0  0  0
   36.1490   29.2630   43.6720 H   0  0  0  0  0  0  0  0  0  0  0  0
   38.8010   26.9990   44.1220 O   0  0  0  0  0  0  0  0  0  0  0  0
   39.9320   25.1330   43.1490 C   0  0  2  0  0  0  0  0  0  0  0  0
   39.8760   26.5980   43.3750 C   0  0  2  0  0  0  0  0  0  0  0  0
   41.1510   26.9730   43.9460 C   0  0  0  0  0  0  0  0  0  0  0  0
   42.0990   25.9950   43.6120 O   0  0  0  0  0  0  0  0  0  0  0  0
   41.4690   25.1320   42.7830 C   0  0  0  0  0  0  0  0  0  0  0  0
   40.0590   24.4730   44.0240 H   0  0  0  0  0  0  0  0  0  0  0  0
   39.6330   26.9920   42.3420 H   0  0  0  0  0  0  0  0  0  0  0  0
   41.5300   27.7830   43.2250 H   0  0  0  0  0  0  0  0  0  0  0  0
   41.2970   27.5280   44.8480 H   0  0  0  0  0  0  0  0  0  0  0  0
   41.4550   25.5820   41.7520 H   0  0  0  0  0  0  0  0  0  0  0  0
   41.8410   24.1150   42.7060 H   0  0  0  0  0  0  0  0  0  0  0  0
   39.2610   24.6470   42.0900 O   0  0  0  0  0  0  0  0  0  0  0  0
   38.1700   23.9320   42.1450 C   0  0  0  0  0  0  0  0  0  0  0  0
   37.5970   23.7900   43.0320 H   0  0  0  0  0  0  0  0  0  0  0  0
   38.5930   22.8060   41.9940 H   0  0  0  0  0  0  0  0  0  0  0  0
   37.4260   24.0830   40.8240 C   0  0  0  0  0  0  0  0  0  0  0  0
   36.4430   23.5670   40.8670 H   0  0  0  0  0  0  0  0  0  0  0  0
   38.0120   23.6540   39.9910 H   0  0  0  0  0  0  0  0  0  0  0  0
   37.2580   25.1700   40.6840 H   0  0  0  0  0  0  0  0  0  0  0  0
   38.4430   28.4250   41.7420 O   0  0  0  0  0  0  0  0  0  0  0  0
   39.5070   31.7750   41.0580 C   0  0  0  0  0  0  0  0  0  0  0  0
   38.3100   32.4500   40.6580 C   0  0  0  0  0  0  0  0  0  0  0  0
   37.1500   31.6680   40.6480 C   0  0  0  0  0  0  0  0  0  0  0  0
   37.2130   30.3700   41.0020 N   0  0  0  0  0  0  0  0  0  0  0  0
   38.3630   29.7760   41.3700 C   0  0  0  0  0  0  0  0  0  0  0  0
   39.5070   30.4760   41.3990 N   0  0  0  0  0  0  0  0  0  0  0  0
   38.3010   33.4770   40.3860 H   0  0  0  0  0  0  0  0  0  0  0  0
   36.2190   32.1390   40.3510 H   0  0  0  0  0  0  0  0  0  0  0  0
   40.6820   32.4920   41.0870 O   0  0  0  0  0  0  0  0  0  0  0  0
   42.6070   33.5720   40.1640 C   0  0  1  0  0  3  0  0  0  0  0  0
   41.1960   33.1290   39.9270 C   0  0  1  0  0  3  0  0  0  0  0  0
   41.1290   32.2620   38.8530 O   0  0  0  0  0  0  0  0  0  0  0  0
   41.2900   32.9290   37.6360 C   0  0  0  0  0  2  0  0  0  0  0  0
   42.2190   34.1240   37.8130 C   0  0  1  0  0  3  0  0  0  0  0  0
   43.2780   33.7860   38.8290 C   0  0  1  0  0  3  0  0  0  0  0  0
   42.6610   34.7460   40.9360 O   0  0  0  0  0  0  0  0  0  0  0  0
   43.2910   34.6090   41.7050 H   0  0  0  0  0  0  0  0  0  0  0  0
   42.7690   34.4150   36.5810 O   0  0  0  0  0  0  0  0  0  0  0  0
   43.5930   34.9270   36.7410 H   0  0  0  0  0  0  0  0  0  0  0  0
   44.2170   34.7940   38.9360 O   0  0  0  0  0  0  0  0  0  0  0  0
   45.1410   34.5210   38.6880 H   0  0  0  0  0  0  0  0  0  0  0  0
  2  1  2  6  0  0  0
  2  3  1  0  0  0  0
  2  5  1  0  0  0  0
  4  3  1  0  0  0  0
  6  7  1  0  0  0  0
  6 11  1  1  0  0  0
  7 12  1  6  0  0  0
  7  8  1  0  0  0  0
  7  5  1  0  0  0  0
  8 14  1  0  0  0  0
  9  8  1  0  0  0  0
 10  6  1  0  0  0  0
 10  9  1  0  0  0  0
 13  8  1  0  0  0  0
 15 10  1  0  0  0  0
 16 10  1  0  0  0  0
 17 18  1  0  0  0  0
 17  6  1  0  0  0  0
 18 19  1  0  0  0  0
 20 18  1  0  0  0  0
 21 22  1  0  0  0  0
 21 18  1  0  0  0  0
 23 21  1  0  0  0  0
 24 21  1  0  0  0  0
 25  2  1  0  0  0  0
 26 34  1  0  0  0  0
 26 31  1  0  0  0  0
 27 26  2  0  0  0  0
 28 27  1  0  0  0  0
 28 29  2  0  0  0  0
 29 30  1  0  0  0  0
 30 31  2  0  0  0  0
 30 25  1  0  0  0  0
 32 27  1  0  0  0  0
 33 28  1  0  0  0  0
 35 41  1  1  0  0  0
 36 35  1  0  0  0  0
 36 34  1  1  0  0  0
 37 36  1  0  0  0  0
 38 39  1  0  0  0  0
 38 37  1  0  0  0  0
 39 43  1  6  0  0  0
 39 40  1  0  0  0  0
 40 45  1  1  0  0  0
 40 35  1  0  0  0  0
 41 42  1  0  0  0  0
 43 44  1  0  0  0  0
 46 45  1  0  0  0  0
M  END
>  <minimizedAffinity>
-6.5417738

$$$$

 OpenBabel03252500283D

 46 48  0  0  1  0  0  0  0  0999 V2000
   36.7710   27.1100   42.5260 O   0  0  0  0  0  0  0  0  0  0  0  0
   37.8300   27.9460   43.1520 P   0  0  1  0  0  0  0  0  0  0  0  0
   37.0980   29.1420   44.1030 O   0  0  0  0  0  0  0  0  0  0  0  0
   36.2800   29.4200   43.6210 H   0  0  0  0  0  0  0  0  0  0  0  0
   38.7400   26.9550   44.1040 O   0  0  0  0  0  0  0  0  0  0  0  0
   39.8950   25.1020   43.1330 C   0  0  2  0  0  0  0  0  0  0  0  0
   39.8630   26.5550   43.4310 C   0  0  2  0  0  0  0  0  0  0  0  0
   41.0950   26.8560   44.1270 C   0  0  0  0  0  0  0  0  0  0  0  0
   42.0380   25.8640   43.8240 O   0  0  0  0  0  0  0  0  0  0  0  0
   41.4570   25.0660   42.8990 C   0  0  0  0  0  0  0  0  0  0  0  0
   39.9240   24.3950   43.9790 H   0  0  0  0  0  0  0  0  0  0  0  0
   39.7230   27.0090   42.4030 H   0  0  0  0  0  0  0  0  0  0  0  0
   41.5590   27.6870   43.4850 H   0  0  0  0  0  0  0  0  0  0  0  0
   41.1790   27.3590   45.0670 H   0  0  0  0  0  0  0  0  0  0  0  0
   41.5460   25.5680   41.8960 H   0  0  0  0  0  0  0  0  0  0  0  0
   41.8030   24.0420   42.8000 H   0  0  0  0  0  0  0  0  0  0  0  0
   39.3040   24.6940   41.9960 O   0  0  0  0  0  0  0  0  0  0  0  0
   38.1910   24.0160   41.9200 C   0  0  0  0  0  0  0  0  0  0  0  0
   37.2530   24.3720   42.2780 H   0  0  0  0  0  0  0  0  0  0  0  0
   38.3830   23.1180   42.7120 H   0  0  0  0  0  0  0  0  0  0  0  0
   38.2080   23.2010   40.6320 C   0  0  0  0  0  0  0  0  0  0  0  0
   37.2360   22.6850   40.4830 H   0  0  0  0  0  0  0  0  0  0  0  0
   39.0100   22.4410   40.6570 H   0  0  0  0  0  0  0  0  0  0  0  0
   38.3620   23.9260   39.8070 H   0  0  0  0  0  0  0  0  0  0  0  0
   38.7160   28.6200   41.8560 O   0  0  0  0  0  0  0  0  0  0  0  0
   38.7730   31.3760   39.5700 C   0  0  0  0  0  0  0  0  0  0  0  0
   37.5090   32.0180   39.7610 C   0  0  0  0  0  0  0  0  0  0  0  0
   36.6720   31.4320   40.7170 C   0  0  0  0  0  0  0  0  0  0  0  0
   37.0790   30.3350   41.3830 N   0  0  0  0  0  0  0  0  0  0  0  0
   38.2780   29.7630   41.1690 C   0  0  0  0  0  0  0  0  0  0  0  0
   39.1240   30.2820   40.2650 N   0  0  0  0  0  0  0  0  0  0  0  0
   37.2230   32.8840   39.2160 H   0  0  0  0  0  0  0  0  0  0  0  0
   35.7030   31.8860   40.8940 H   0  0  0  0  0  0  0  0  0  0  0  0
   39.6410   31.9070   38.6420 O   0  0  0  0  0  0  0  0  0  0  0  0
   41.2180   33.5890   38.0010 C   0  0  1  0  0  3  0  0  0  0  0  0
   40.8340   32.5710   39.0310 C   0  0  1  0  0  3  0  0  0  0  0  0
   40.6510   33.1680   40.2650 O   0  0  0  0  0  0  0  0  0  0  0  0
   41.8670   33.5320   40.8500 C   0  0  0  0  0  2  0  0  0  0  0  0
   42.8750   33.9100   39.7710 C   0  0  1  0  0  3  0  0  0  0  0  0
   42.1570   34.5860   38.6330 C   0  0  1  0  0  3  0  0  0  0  0  0
   41.8160   32.9900   36.8780 O   0  0  0  0  0  0  0  0  0  0  0  0
   41.3570   33.3140   36.0460 H   0  0  0  0  0  0  0  0  0  0  0  0
   43.8140   34.7400   40.3470 O   0  0  0  0  0  0  0  0  0  0  0  0
   44.2430   35.2470   39.6210 H   0  0  0  0  0  0  0  0  0  0  0  0
   43.0440   35.0560   37.6830 O   0  0  0  0  0  0  0  0  0  0  0  0
   43.0280   36.0430   37.5610 H   0  0  0  0  0  0  0  0  0  0  0  0
  2  1  2  6  0  0  0
  2  3  1  0  0  0  0
  2  5  1  0  0  0  0
  4  3  1  0  0  0  0
  6  7  1  0  0  0  0
  6 11  1  1  0  0  0
  7 12  1  6  0  0  0
  7  5  1  0  0  0  0
  7  8  1  0  0  0  0
  8 14  1  0  0  0  0
  9  8  1  0  0  0  0
 10  6  1  0  0  0  0
 10  9  1  0  0  0  0
 13  8  1  0  0  0  0
 15 10  1  0  0  0  0
 16 10  1  0  0  0  0
 17  6  1  0  0  0  0
 18 17  1  0  0  0  0
 18 19  1  0  0  0  0
 18 20  1  0  0  0  0
 21 23  1  0  0  0  0
 21 18  1  0  0  0  0
 22 21  1  0  0  0  0
 24 21  1  0  0  0  0
 25  2  1  0  0  0  0
 26 27  2  0  0  0  0
 26 31  1  0  0  0  0
 27 28  1  0  0  0  0
 28 33  1  0  0  0  0
 28 29  2  0  0  0  0
 30 29  1  0  0  0  0
 30 25  1  0  0  0  0
 31 30  2  0  0  0  0
 32 27  1  0  0  0  0
 34 26  1  0  0  0  0
 35 41  1  6  0  0  0
 35 40  1  0  0  0  0
 35 36  1  0  0  0  0
 36 34  1  6  0  0  0
 36 37  1  0  0  0  0
 37 38  1  0  0  0  0
 39 43  1  1  0  0  0
 39 38  1  0  0  0  0
 40 45  1  6  0  0  0
 40 39  1  0  0  0  0
 42 41  1  0  0  0  0
 44 43  1  0  0  0  0
 46 45  1  0  0  0  0
M  END
>  <minimizedAffinity>
-6.46469784

$$$$

 OpenBabel03252500283D

 46 48  0  0  1  0  0  0  0  0999 V2000
   35.3000   29.2970   39.5860 O   0  0  0  0  0  0  0  0  0  0  0  0
   36.1750   29.6550   40.7350 P   0  0  1  0  0  0  0  0  0  0  0  0
   35.5630   31.0480   41.4810 O   0  0  0  0  0  0  0  0  0  0  0  0
   35.2110   31.6210   40.7550 H   0  0  0  0  0  0  0  0  0  0  0  0
   36.1360   28.3920   41.7940 O   0  0  0  0  0  0  0  0  0  0  0  0
   37.4560   26.4300   42.1310 C   0  0  2  0  0  0  0  0  0  0  0  0
   37.3990   27.9060   41.9960 C   0  0  2  0  0  0  0  0  0  0  0  0
   38.0490   28.4490   43.1690 C   0  0  0  0  0  0  0  0  0  0  0  0
   38.9020   27.4730   43.7030 O   0  0  0  0  0  0  0  0  0  0  0  0
   38.8690   26.4330   42.8390 C   0  0  0  0  0  0  0  0  0  0  0  0
   36.9400   25.9620   42.9860 H   0  0  0  0  0  0  0  0  0  0  0  0
   37.9030   28.0760   40.9970 H   0  0  0  0  0  0  0  0  0  0  0  0
   38.8700   29.1180   42.7240 H   0  0  0  0  0  0  0  0  0  0  0  0
   37.6380   29.1770   43.8360 H   0  0  0  0  0  0  0  0  0  0  0  0
   39.5520   26.6700   41.9770 H   0  0  0  0  0  0  0  0  0  0  0  0
   39.1130   25.4410   43.2050 H   0  0  0  0  0  0  0  0  0  0  0  0
   37.5700   25.7120   40.9990 O   0  0  0  0  0  0  0  0  0  0  0  0
   36.8520   24.6670   40.6880 C   0  0  0  0  0  0  0  0  0  0  0  0
   36.1870   24.6300   39.8570 H   0  0  0  0  0  0  0  0  0  0  0  0
   36.0480   24.6290   41.5940 H   0  0  0  0  0  0  0  0  0  0  0  0
   37.6500   23.4140   41.0280 C   0  0  0  0  0  0  0  0  0  0  0  0
   37.1130   22.5040   40.6880 H   0  0  0  0  0  0  0  0  0  0  0  0
   37.8170   23.3370   42.1180 H   0  0  0  0  0  0  0  0  0  0  0  0
   38.6080   23.4950   40.4760 H   0  0  0  0  0  0  0  0  0  0  0  0
   37.7270   29.9190   40.0740 O   0  0  0  0  0  0  0  0  0  0  0  0
   40.3700   32.3240   40.3180 C   0  0  0  0  0  0  0  0  0  0  0  0
   39.7010   33.5880   40.2650 C   0  0  0  0  0  0  0  0  0  0  0  0
   38.3080   33.5300   40.1420 C   0  0  0  0  0  0  0  0  0  0  0  0
   37.6890   32.3360   40.0820 N   0  0  0  0  0  0  0  0  0  0  0  0
   38.3600   31.1710   40.1350 C   0  0  0  0  0  0  0  0  0  0  0  0
   39.6960   31.1640   40.2530 N   0  0  0  0  0  0  0  0  0  0  0  0
   40.2250   34.5110   40.3160 H   0  0  0  0  0  0  0  0  0  0  0  0
   37.7610   34.4660   40.0980 H   0  0  0  0  0  0  0  0  0  0  0  0
   41.7410   32.3150   40.4390 O   0  0  0  0  0  0  0  0  0  0  0  0
   43.5240   33.7370   39.7140 C   0  0  1  0  0  3  0  0  0  0  0  0
   42.5880   32.6280   39.3430 C   0  0  1  0  0  3  0  0  0  0  0  0
   43.2920   31.4990   38.9650 O   0  0  0  0  0  0  0  0  0  0  0  0
   43.8680   31.6470   37.7010 C   0  0  0  0  0  2  0  0  0  0  0  0
   44.2460   33.1040   37.4640 C   0  0  1  0  0  3  0  0  0  0  0  0
   44.6950   33.7200   38.7630 C   0  0  1  0  0  3  0  0  0  0  0  0
   42.8840   34.9880   39.6850 O   0  0  0  0  0  0  0  0  0  0  0  0
   43.0520   35.4670   40.5500 H   0  0  0  0  0  0  0  0  0  0  0  0
   45.2460   33.1300   36.5140 O   0  0  0  0  0  0  0  0  0  0  0  0
   45.7180   33.9880   36.6080 H   0  0  0  0  0  0  0  0  0  0  0  0
   45.1630   35.0070   38.5780 O   0  0  0  0  0  0  0  0  0  0  0  0
   46.1210   35.1320   38.8170 H   0  0  0  0  0  0  0  0  0  0  0  0
  2  1  2  6  0  0  0
  2  3  1  0  0  0  0
  2  5  1  0  0  0  0
  4  3  1  0  0  0  0
  5  7  1  0  0  0  0
  6 10  1  0  0  0  0
  6 11  1  1  0  0  0
  7 12  1  6  0  0  0
  7  6  1  0  0  0  0
  7  8  1  0  0  0  0
  8  9  1  0  0  0  0
  8 14  1  0  0  0  0
 10 16  1  0  0  0  0
 10  9  1  0  0  0  0
 13  8  1  0  0  0  0
 15 10  1  0  0  0  0
 17  6  1  0  0  0  0
 18 17  1  0  0  0  0
 18 21  1  0  0  0  0
 18 20  1  0  0  0  0
 19 18  1  0  0  0  0
 21 23  1  0  0  0  0
 22 21  1  0  0  0  0
 24 21  1  0  0  0  0
 25 30  1  0  0  0  0
 25  2  1  0  0  0  0
 26 34  1  0  0  0  0
 27 32  1  0  0  0  0
 27 26  1  0  0  0  0
 28 27  2  0  0  0  0
 29 30  2  0  0  0  0
 29 28  1  0  0  0  0
 30 31  1  0  0  0  0
 31 26  2  0  0  0  0
 33 28  1  0  0  0  0
 35 41  1  6  0  0  0
 36 35  1  0  0  0  0
 36 34  1  1  0  0  0
 37 36  1  0  0  0  0
 38 37  1  0  0  0  0
 39 43  1  6  0  0  0
 39 38  1  0  0  0  0
 39 40  1  0  0  0  0
 40 45  1  6  0  0  0
 40 35  1  0  0  0  0
 41 42  1  0  0  0  0
 43 44  1  0  0  0  0
 45 46  1  0  0  0  0
M  END
>  <minimizedAffinity>
-6.25573254

$$$$

 OpenBabel03252500283D

 46 48  0  0  1  0  0  0  0  0999 V2000
   36.3930   28.8610   40.4390 O   0  0  0  0  0  0  0  0  0  0  0  0
   36.9840   30.0350   41.1370 P   0  0  1  0  0  0  0  0  0  0  0  0
   35.7980   31.2330   41.3010 O   0  0  0  0  0  0  0  0  0  0  0  0
   35.2520   31.2000   40.4760 H   0  0  0  0  0  0  0  0  0  0  0  0
   37.4730   29.5250   42.6260 O   0  0  0  0  0  0  0  0  0  0  0  0
   37.8900   27.2680   43.2880 C   0  0  2  0  0  0  0  0  0  0  0  0
   38.3160   28.4540   42.5060 C   0  0  2  0  0  0  0  0  0  0  0  0
   39.6770   28.7380   42.9040 C   0  0  0  0  0  0  0  0  0  0  0  0
   40.2420   27.5730   43.4420 O   0  0  0  0  0  0  0  0  0  0  0  0
   39.3200   26.5980   43.2710 C   0  0  0  0  0  0  0  0  0  0  0  0
   37.8530   27.3520   44.3870 H   0  0  0  0  0  0  0  0  0  0  0  0
   38.1470   28.1120   41.4390 H   0  0  0  0  0  0  0  0  0  0  0  0
   40.2480   28.7200   41.9080 H   0  0  0  0  0  0  0  0  0  0  0  0
   40.0480   29.6810   43.2460 H   0  0  0  0  0  0  0  0  0  0  0  0
   39.3860   26.2340   42.2090 H   0  0  0  0  0  0  0  0  0  0  0  0
   39.3440   25.7360   43.9300 H   0  0  0  0  0  0  0  0  0  0  0  0
   37.0340   26.4150   42.6960 O   0  0  0  0  0  0  0  0  0  0  0  0
   37.3620   25.2910   42.1180 C   0  0  0  0  0  0  0  0  0  0  0  0
   37.3290   24.3420   42.6010 H   0  0  0  0  0  0  0  0  0  0  0  0
   38.5620   25.4110   41.9870 H   0  0  0  0  0  0  0  0  0  0  0  0
   36.9570   25.3660   40.6510 C   0  0  0  0  0  0  0  0  0  0  0  0
   37.1310   24.3920   40.1460 H   0  0  0  0  0  0  0  0  0  0  0  0
   37.5360   26.1450   40.1210 H   0  0  0  0  0  0  0  0  0  0  0  0
   35.8710   25.5910   40.6390 H   0  0  0  0  0  0  0  0  0  0  0  0
   38.2810   30.5560   40.1540 O   0  0  0  0  0  0  0  0  0  0  0  0
   40.6760   33.2170   40.2280 C   0  0  0  0  0  0  0  0  0  0  0  0
   39.8820   34.4020   40.3450 C   0  0  0  0  0  0  0  0  0  0  0  0
   38.4990   34.2000   40.3940 C   0  0  0  0  0  0  0  0  0  0  0  0
   38.0000   32.9510   40.3310 N   0  0  0  0  0  0  0  0  0  0  0  0
   38.7860   31.8640   40.2200 C   0  0  0  0  0  0  0  0  0  0  0  0
   40.1200   31.9960   40.1690 N   0  0  0  0  0  0  0  0  0  0  0  0
   40.3130   35.3720   40.3920 H   0  0  0  0  0  0  0  0  0  0  0  0
   37.8580   35.0710   40.4820 H   0  0  0  0  0  0  0  0  0  0  0  0
   42.0450   33.3510   40.1750 O   0  0  0  0  0  0  0  0  0  0  0  0
   43.1670   32.6190   42.1580 C   0  0  1  0  0  3  0  0  0  0  0  0
   42.7960   33.7880   41.2980 C   0  0  1  0  0  3  0  0  0  0  0  0
   43.9270   34.4570   40.8670 O   0  0  0  0  0  0  0  0  0  0  0  0
   44.5140   35.1990   41.8950 C   0  0  0  0  0  2  0  0  0  0  0  0
   44.2950   34.5040   43.2340 C   0  0  1  0  0  3  0  0  0  0  0  0
   44.3320   33.0120   43.0330 C   0  0  1  0  0  3  0  0  0  0  0  0
   42.0830   32.1890   42.9440 O   0  0  0  0  0  0  0  0  0  0  0  0
   41.9610   31.2000   42.8270 H   0  0  0  0  0  0  0  0  0  0  0  0
   45.2860   34.9280   44.0940 O   0  0  0  0  0  0  0  0  0  0  0  0
   45.3620   34.2560   44.8090 H   0  0  0  0  0  0  0  0  0  0  0  0
   44.2580   32.3380   44.2360 O   0  0  0  0  0  0  0  0  0  0  0  0
   45.0560   31.7810   44.4430 H   0  0  0  0  0  0  0  0  0  0  0  0
  2  1  2  6  0  0  0
  2  3  1  0  0  0  0
  2  5  1  0  0  0  0
  4  3  1  0  0  0  0
  6 11  1  1  0  0  0
  7 12  1  6  0  0  0
  7  5  1  0  0  0  0
  7  8  1  0  0  0  0
  7  6  1  0  0  0  0
  8 14  1  0  0  0  0
  8  9  1  0  0  0  0
 10  6  1  0  0  0  0
 10  9  1  0  0  0  0
 10 16  1  0  0  0  0
 13  8  1  0  0  0  0
 15 10  1  0  0  0  0
 17  6  1  0  0  0  0
 18 19  1  0  0  0  0
 18 17  1  0  0  0  0
 20 18  1  0  0  0  0
 21 18  1  0  0  0  0
 22 21  1  0  0  0  0
 23 21  1  0  0  0  0
 24 21  1  0  0  0  0
 25 30  1  0  0  0  0
 25  2  1  0  0  0  0
 26 27  1  0  0  0  0
 27 32  1  0  0  0  0
 27 28  2  0  0  0  0
 28 33  1  0  0  0  0
 29 28  1  0  0  0  0
 30 29  2  0  0  0  0
 31 30  1  0  0  0  0
 31 26  2  0  0  0  0
 34 26  1  0  0  0  0
 35 41  1  1  0  0  0
 35 40  1  0  0  0  0
 36 34  1  6  0  0  0
 36 35  1  0  0  0  0
 37 36  1  0  0  0  0
 37 38  1  0  0  0  0
 38 39  1  0  0  0  0
 39 43  1  1  0  0  0
 40 39  1  0  0  0  0
 40 45  1  1  0  0  0
 42 41  1  0  0  0  0
 43 44  1  0  0  0  0
 45 46  1  0  0  0  0
M  END
>  <minimizedAffinity>
-6.22751188

$$$$

 OpenBabel03252500283D

 46 48  0  0  1  0  0  0  0  0999 V2000
   39.6700   31.8690   41.2250 O   0  0  0  0  0  0  0  0  0  0  0  0
   38.7040   32.8330   40.6330 P   0  0  1  0  0  0  0  0  0  0  0  0
   38.8430   34.3170   41.4380 O   0  0  0  0  0  0  0  0  0  0  0  0
   39.0160   34.1030   42.3890 H   0  0  0  0  0  0  0  0  0  0  0  0
   39.1080   33.0190   39.0450 O   0  0  0  0  0  0  0  0  0  0  0  0
   41.1990   34.1590   38.8690 C   0  0  2  0  0  0  0  0  0  0  0  0
   40.4590   32.8740   38.8810 C   0  0  2  0  0  0  0  0  0  0  0  0
   40.8240   32.1800   37.6660 C   0  0  0  0  0  0  0  0  0  0  0  0
   42.0520   32.6820   37.2120 O   0  0  0  0  0  0  0  0  0  0  0  0
   42.4730   33.5500   38.1600 C   0  0  0  0  0  0  0  0  0  0  0  0
   40.9910   34.8750   38.0570 H   0  0  0  0  0  0  0  0  0  0  0  0
   40.7890   32.4150   39.8620 H   0  0  0  0  0  0  0  0  0  0  0  0
   41.2230   31.1740   38.0520 H   0  0  0  0  0  0  0  0  0  0  0  0
   40.1470   31.7790   36.9430 H   0  0  0  0  0  0  0  0  0  0  0  0
   42.9370   32.9590   38.9970 H   0  0  0  0  0  0  0  0  0  0  0  0
   43.1640   34.3380   37.8760 H   0  0  0  0  0  0  0  0  0  0  0  0
   41.5930   34.6540   40.0560 O   0  0  0  0  0  0  0  0  0  0  0  0
   42.4640   34.1020   40.8570 C   0  0  0  0  0  0  0  0  0  0  0  0
   43.1370   33.3310   40.5620 H   0  0  0  0  0  0  0  0  0  0  0  0
   41.7540   33.4750   41.6140 H   0  0  0  0  0  0  0  0  0  0  0  0
   42.9650   35.1630   41.8300 C   0  0  0  0  0  0  0  0  0  0  0  0
   43.7800   34.7570   42.4660 H   0  0  0  0  0  0  0  0  0  0  0  0
   42.1470   35.5130   42.4870 H   0  0  0  0  0  0  0  0  0  0  0  0
   43.3680   35.9890   41.2090 H   0  0  0  0  0  0  0  0  0  0  0  0
   37.1590   32.1360   40.8480 O   0  0  0  0  0  0  0  0  0  0  0  0
   36.6720   28.5940   41.0490 C   0  0  0  0  0  0  0  0  0  0  0  0
   36.3140   28.2120   39.7170 C   0  0  0  0  0  0  0  0  0  0  0  0
   36.2600   29.2530   38.7840 C   0  0  0  0  0  0  0  0  0  0  0  0
   36.5360   30.5140   39.1680 N   0  0  0  0  0  0  0  0  0  0  0  0
   36.8680   30.8260   40.4340 C   0  0  0  0  0  0  0  0  0  0  0  0
   36.9370   29.8700   41.3720 N   0  0  0  0  0  0  0  0  0  0  0  0
   36.1030   27.2050   39.4530 H   0  0  0  0  0  0  0  0  0  0  0  0
   35.9920   29.0080   37.7620 H   0  0  0  0  0  0  0  0  0  0  0  0
   36.7420   27.6130   42.0130 O   0  0  0  0  0  0  0  0  0  0  0  0
   38.6670   27.3420   43.4070 C   0  0  1  0  0  3  0  0  0  0  0  0
   37.9180   26.8430   42.2100 C   0  0  1  0  0  3  0  0  0  0  0  0
   37.5790   25.5110   42.3650 O   0  0  0  0  0  0  0  0  0  0  0  0
   38.6880   24.6740   42.2160 C   0  0  0  0  0  2  0  0  0  0  0  0
   39.9470   25.3790   42.7060 C   0  0  1  0  0  3  0  0  0  0  0  0
   39.6020   26.2560   43.8810 C   0  0  1  0  0  3  0  0  0  0  0  0
   39.3840   28.5180   43.1180 O   0  0  0  0  0  0  0  0  0  0  0  0
   39.1670   29.2150   43.8060 H   0  0  0  0  0  0  0  0  0  0  0  0
   40.8660   24.4080   43.0470 O   0  0  0  0  0  0  0  0  0  0  0  0
   41.5130   24.8200   43.6640 H   0  0  0  0  0  0  0  0  0  0  0  0
   40.7320   26.8250   44.4370 O   0  0  0  0  0  0  0  0  0  0  0  0
   40.9010   26.5600   45.3810 H   0  0  0  0  0  0  0  0  0  0  0  0
  2 25  1  0  0  0  0
  2  1  2  1  0  0  0
  2  3  1  0  0  0  0
  3  4  1  0  0  0  0
  5  2  1  0  0  0  0
  6 11  1  6  0  0  0
  6  7  1  0  0  0  0
  6 17  1  0  0  0  0
  7  5  1  0  0  0  0
  7 12  1  1  0  0  0
  8 13  1  0  0  0  0
  8  7  1  0  0  0  0
  9  8  1  0  0  0  0
  9 10  1  0  0  0  0
 10  6  1  0  0  0  0
 10 15  1  0  0  0  0
 14  8  1  0  0  0  0
 16 10  1  0  0  0  0
 17 18  1  0  0  0  0
 18 20  1  0  0  0  0
 18 21  1  0  0  0  0
 19 18  1  0  0  0  0
 21 22  1  0  0  0  0
 21 23  1  0  0  0  0
 24 21  1  0  0  0  0
 26 31  1  0  0  0  0
 26 34  1  0  0  0  0
 27 26  2  0  0  0  0
 28 29  2  0  0  0  0
 28 27  1  0  0  0  0
 29 30  1  0  0  0  0
 30 25  1  0  0  0  0
 30 31  2  0  0  0  0
 32 27  1  0  0  0  0
 33 28  1  0  0  0  0
 35 41  1  6  0  0  0
 35 40  1  0  0  0  0
 36 34  1  1  0  0  0
 36 37  1  0  0  0  0
 36 35  1  0  0  0  0
 38 37  1  0  0  0  0
 38 39  1  0  0  0  0
 39 43  1  1  0  0  0
 39 40  1  0  0  0  0
 40 45  1  6  0  0  0
 41 42  1  0  0  0  0
 43 44  1  0  0  0  0
 45 46  1  0  0  0  0
M  END
>  <minimizedAffinity>
-6.12674809

$$$$

 OpenBabel03252500283D

 46 48  0  0  1  0  0  0  0  0999 V2000
   34.1900   29.0920   39.5810 O   0  0  0  0  0  0  0  0  0  0  0  0
   35.5610   29.5410   39.9450 P   0  0  1  0  0  0  0  0  0  0  0  0
   35.4470   30.7710   41.1050 O   0  0  0  0  0  0  0  0  0  0  0  0
   34.6520   31.3090   40.8650 H   0  0  0  0  0  0  0  0  0  0  0  0
   36.3490   28.2420   40.5840 O   0  0  0  0  0  0  0  0  0  0  0  0
   38.1420   28.8990   42.0200 C   0  0  2  0  0  0  0  0  0  0  0  0
   36.7200   28.5030   41.8760 C   0  0  2  0  0  0  0  0  0  0  0  0
   36.5120   27.3900   42.7760 C   0  0  0  0  0  0  0  0  0  0  0  0
   37.4990   27.4250   43.7710 O   0  0  0  0  0  0  0  0  0  0  0  0
   38.1990   28.5640   43.5620 C   0  0  0  0  0  0  0  0  0  0  0  0
   38.9190   28.1650   41.7500 H   0  0  0  0  0  0  0  0  0  0  0  0
   36.1760   29.4690   42.1090 H   0  0  0  0  0  0  0  0  0  0  0  0
   35.6420   27.7480   43.4340 H   0  0  0  0  0  0  0  0  0  0  0  0
   36.0940   26.4410   42.5160 H   0  0  0  0  0  0  0  0  0  0  0  0
   37.6170   29.4200   44.0020 H   0  0  0  0  0  0  0  0  0  0  0  0
   39.2200   28.6240   43.9270 H   0  0  0  0  0  0  0  0  0  0  0  0
   38.4360   30.2040   41.8770 O   0  0  0  0  0  0  0  0  0  0  0  0
   39.3270   30.8620   42.5690 C   0  0  0  0  0  0  0  0  0  0  0  0
   39.7220   30.5260   43.5000 H   0  0  0  0  0  0  0  0  0  0  0  0
   38.6950   31.8240   42.9510 H   0  0  0  0  0  0  0  0  0  0  0  0
   40.2670   31.5680   41.6000 C   0  0  0  0  0  0  0  0  0  0  0  0
   41.0980   32.0590   42.1480 H   0  0  0  0  0  0  0  0  0  0  0  0
   39.7270   32.3360   41.0160 H   0  0  0  0  0  0  0  0  0  0  0  0
   40.6850   30.7790   40.9410 H   0  0  0  0  0  0  0  0  0  0  0  0
   36.2680   30.1010   38.4950 O   0  0  0  0  0  0  0  0  0  0  0  0
   39.8140   29.6880   38.2110 C   0  0  0  0  0  0  0  0  0  0  0  0
   39.9730   28.7110   37.1780 C   0  0  0  0  0  0  0  0  0  0  0  0
   38.7870   28.2300   36.6130 C   0  0  0  0  0  0  0  0  0  0  0  0
   37.6000   28.6910   37.0520 N   0  0  0  0  0  0  0  0  0  0  0  0
   37.4980   29.6110   38.0280 C   0  0  0  0  0  0  0  0  0  0  0  0
   38.6010   30.1090   38.6070 N   0  0  0  0  0  0  0  0  0  0  0  0
   40.9280   28.3720   36.8590 H   0  0  0  0  0  0  0  0  0  0  0  0
   38.8600   27.4870   35.8260 H   0  0  0  0  0  0  0  0  0  0  0  0
   40.9450   30.1990   38.8060 O   0  0  0  0  0  0  0  0  0  0  0  0
   41.5510   32.3090   37.8540 C   0  0  1  0  0  3  0  0  0  0  0  0
   41.9420   30.8770   38.0560 C   0  0  1  0  0  3  0  0  0  0  0  0
   43.1560   30.7890   38.7120 O   0  0  0  0  0  0  0  0  0  0  0  0
   44.2230   31.1260   37.8750 C   0  0  0  0  0  2  0  0  0  0  0  0
   43.7830   32.1780   36.8630 C   0  0  1  0  0  3  0  0  0  0  0  0
   42.7860   33.1030   37.5080 C   0  0  1  0  0  3  0  0  0  0  0  0
   40.5790   32.4440   36.8460 O   0  0  0  0  0  0  0  0  0  0  0  0
   39.8130   32.9890   37.1950 H   0  0  0  0  0  0  0  0  0  0  0  0
   44.9110   32.8540   36.4440 O   0  0  0  0  0  0  0  0  0  0  0  0
   44.6160   33.7200   36.0820 H   0  0  0  0  0  0  0  0  0  0  0  0
   42.4480   34.1470   36.6680 O   0  0  0  0  0  0  0  0  0  0  0  0
   42.6880   35.0470   37.0170 H   0  0  0  0  0  0  0  0  0  0  0  0
  2  1  2  6  0  0  0
  2  5  1  0  0  0  0
  2  3  1  0  0  0  0
  4  3  1  0  0  0  0
  5  7  1  0  0  0  0
  6 11  1  6  0  0  0
  6 10  1  0  0  0  0
  7  6  1  0  0  0  0
  7 12  1  1  0  0  0
  7  8  1  0  0  0  0
  8 13  1  0  0  0  0
  8  9  1  0  0  0  0
 10  9  1  0  0  0  0
 10 16  1  0  0  0  0
 10 15  1  0  0  0  0
 14  8  1  0  0  0  0
 17  6  1  0  0  0  0
 17 18  1  0  0  0  0
 18 20  1  0  0  0  0
 18 19  1  0  0  0  0
 21 22  1  0  0  0  0
 21 18  1  0  0  0  0
 23 21  1  0  0  0  0
 24 21  1  0  0  0  0
 25  2  1  0  0  0  0
 26 31  1  0  0  0  0
 26 34  1  0  0  0  0
 27 26  2  0  0  0  0
 28 29  2  0  0  0  0
 28 27  1  0  0  0  0
 29 30  1  0  0  0  0
 30 25  1  0  0  0  0
 30 31  2  0  0  0  0
 32 27  1  0  0  0  0
 33 28  1  0  0  0  0
 35 41  1  6  0  0  0
 35 36  1  0  0  0  0
 36 37  1  0  0  0  0
 36 34  1  1  0  0  0
 38 37  1  0  0  0  0
 39 43  1  1  0  0  0
 39 40  1  0  0  0  0
 39 38  1  0  0  0  0
 40 45  1  6  0  0  0
 40 35  1  0  0  0  0
 41 42  1  0  0  0  0
 44 43  1  0  0  0  0
 45 46  1  0  0  0  0
M  END
>  <minimizedAffinity>
-6.09626198

$$$$

 OpenBabel03252500283D

 46 48  0  0  1  0  0  0  0  0999 V2000
   36.9920   31.9550   40.4550 O   0  0  0  0  0  0  0  0  0  0  0  0
   37.0080   30.5090   40.8070 P   0  0  1  0  0  0  0  0  0  0  0  0
   35.4290   30.0120   41.1660 O   0  0  0  0  0  0  0  0  0  0  0  0
   34.9980   30.7680   41.6360 H   0  0  0  0  0  0  0  0  0  0  0  0
   37.5660   29.6890   39.4900 O   0  0  0  0  0  0  0  0  0  0  0  0
   37.0410   27.3660   39.6770 C   0  0  2  0  0  0  0  0  0  0  0  0
   36.6840   28.7020   39.1400 C   0  0  2  0  0  0  0  0  0  0  0  0
   36.5310   28.5410   37.7110 C   0  0  0  0  0  0  0  0  0  0  0  0
   36.2670   27.1910   37.4360 O   0  0  0  0  0  0  0  0  0  0  0  0
   36.1470   26.5820   38.6380 C   0  0  0  0  0  0  0  0  0  0  0  0
   37.9820   26.9010   39.3400 H   0  0  0  0  0  0  0  0  0  0  0  0
   35.7570   28.9620   39.7370 H   0  0  0  0  0  0  0  0  0  0  0  0
   35.4670   28.9290   37.5190 H   0  0  0  0  0  0  0  0  0  0  0  0
   37.0170   29.1220   36.9570 H   0  0  0  0  0  0  0  0  0  0  0  0
   35.1130   26.7840   39.0320 H   0  0  0  0  0  0  0  0  0  0  0  0
   36.3340   25.5150   38.7030 H   0  0  0  0  0  0  0  0  0  0  0  0
   36.5960   27.0590   40.9090 O   0  0  0  0  0  0  0  0  0  0  0  0
   37.3480   26.8220   41.9500 C   0  0  0  0  0  0  0  0  0  0  0  0
   38.4130   26.8610   41.9350 H   0  0  0  0  0  0  0  0  0  0  0  0
   37.1900   25.6320   42.1150 H   0  0  0  0  0  0  0  0  0  0  0  0
   36.6270   27.3300   43.1930 C   0  0  0  0  0  0  0  0  0  0  0  0
   37.2760   27.2350   44.0880 H   0  0  0  0  0  0  0  0  0  0  0  0
   35.6970   26.7580   43.3700 H   0  0  0  0  0  0  0  0  0  0  0  0
   36.4140   28.4030   43.0130 H   0  0  0  0  0  0  0  0  0  0  0  0
   38.0410   30.3720   42.1610 O   0  0  0  0  0  0  0  0  0  0  0  0
   41.3960   31.5480   41.7300 C   0  0  0  0  0  0  0  0  0  0  0  0
   42.1920   30.3600   41.7660 C   0  0  0  0  0  0  0  0  0  0  0  0
   41.4870   29.1640   41.9450 C   0  0  0  0  0  0  0  0  0  0  0  0
   40.1470   29.1880   42.0710 N   0  0  0  0  0  0  0  0  0  0  0  0
   39.4380   30.3310   42.0320 C   0  0  0  0  0  0  0  0  0  0  0  0
   40.0590   31.5080   41.8620 N   0  0  0  0  0  0  0  0  0  0  0  0
   43.2490   30.3810   41.6620 H   0  0  0  0  0  0  0  0  0  0  0  0
   42.0520   28.2390   41.9780 H   0  0  0  0  0  0  0  0  0  0  0  0
   42.0320   32.7560   41.5560 O   0  0  0  0  0  0  0  0  0  0  0  0
   43.6220   33.7270   40.0540 C   0  0  1  0  0  3  0  0  0  0  0  0
   42.1920   33.3370   40.2710 C   0  0  1  0  0  3  0  0  0  0  0  0
   41.7770   32.4420   39.3020 O   0  0  0  0  0  0  0  0  0  0  0  0
   41.5840   33.0660   38.0670 C   0  0  0  0  0  2  0  0  0  0  0  0
   42.5600   34.2260   37.9080 C   0  0  1  0  0  3  0  0  0  0  0  0
   43.8650   33.8740   38.5720 C   0  0  1  0  0  3  0  0  0  0  0  0
   43.9420   34.9200   40.7270 O   0  0  0  0  0  0  0  0  0  0  0  0
   44.7700   34.7790   41.2760 H   0  0  0  0  0  0  0  0  0  0  0  0
   42.7200   34.4570   36.5570 O   0  0  0  0  0  0  0  0  0  0  0  0
   43.5700   34.9400   36.4410 H   0  0  0  0  0  0  0  0  0  0  0  0
   44.8230   34.8450   38.3520 O   0  0  0  0  0  0  0  0  0  0  0  0
   45.6200   34.5260   37.8490 H   0  0  0  0  0  0  0  0  0  0  0  0
  2  1  2  6  0  0  0
  2  3  1  0  0  0  0
  2 25  1  0  0  0  0
  3  4  1  0  0  0  0
  5  2  1  0  0  0  0
  6 11  1  6  0  0  0
  6 17  1  0  0  0  0
  7  5  1  0  0  0  0
  7  6  1  0  0  0  0
  7 12  1  1  0  0  0
  8  7  1  0  0  0  0
  9  8  1  0  0  0  0
  9 10  1  0  0  0  0
 10 16  1  0  0  0  0
 10 15  1  0  0  0  0
 10  6  1  0  0  0  0
 13  8  1  0  0  0  0
 14  8  1  0  0  0  0
 17 18  1  0  0  0  0
 18 20  1  0  0  0  0
 18 21  1  0  0  0  0
 19 18  1  0  0  0  0
 21 23  1  0  0  0  0
 21 22  1  0  0  0  0
 24 21  1  0  0  0  0
 26 27  2  0  0  0  0
 26 31  1  0  0  0  0
 27 28  1  0  0  0  0
 28 33  1  0  0  0  0
 28 29  2  0  0  0  0
 30 29  1  0  0  0  0
 30 25  1  0  0  0  0
 31 30  2  0  0  0  0
 32 27  1  0  0  0  0
 34 26  1  0  0  0  0
 35 36  1  0  0  0  0
 35 41  1  1  0  0  0
 36 34  1  1  0  0  0
 37 36  1  0  0  0  0
 38 37  1  0  0  0  0
 39 43  1  6  0  0  0
 39 38  1  0  0  0  0
 39 40  1  0  0  0  0
 40 45  1  1  0  0  0
 40 35  1  0  0  0  0
 41 42  1  0  0  0  0
 44 43  1  0  0  0  0
 46 45  1  0  0  0  0
M  END
>  <minimizedAffinity>
-6.08518839

$$$$

 OpenBabel03252500283D

 46 48  0  0  1  0  0  0  0  0999 V2000
   38.1840   27.6050   43.9660 O   0  0  0  0  0  0  0  0  0  0  0  0
   38.2290   28.2360   42.6200 P   0  0  1  0  0  0  0  0  0  0  0  0
   39.1580   27.2640   41.5880 O   0  0  0  0  0  0  0  0  0  0  0  0
   39.8960   26.8990   42.1360 H   0  0  0  0  0  0  0  0  0  0  0  0
   36.6800   28.3200   42.0630 O   0  0  0  0  0  0  0  0  0  0  0  0
   35.9000   29.9700   40.5220 C   0  0  2  0  0  0  0  0  0  0  0  0
   36.6690   28.7230   40.7550 C   0  0  2  0  0  0  0  0  0  0  0  0
   36.1300   27.7350   39.8480 C   0  0  0  0  0  0  0  0  0  0  0  0
   35.4940   28.3950   38.7880 O   0  0  0  0  0  0  0  0  0  0  0  0
   35.7340   29.7140   38.9720 C   0  0  0  0  0  0  0  0  0  0  0  0
   34.8150   29.9600   40.7210 H   0  0  0  0  0  0  0  0  0  0  0  0
   37.7360   29.0620   40.5820 H   0  0  0  0  0  0  0  0  0  0  0  0
   37.0550   27.3910   39.2590 H   0  0  0  0  0  0  0  0  0  0  0  0
   35.7810   26.7600   40.1150 H   0  0  0  0  0  0  0  0  0  0  0  0
   36.7690   29.9390   38.5930 H   0  0  0  0  0  0  0  0  0  0  0  0
   35.0480   30.4350   38.5390 H   0  0  0  0  0  0  0  0  0  0  0  0
   36.5550   31.1350   40.6730 O   0  0  0  0  0  0  0  0  0  0  0  0
   37.0340   31.8680   39.7040 C   0  0  0  0  0  0  0  0  0  0  0  0
   36.4820   32.1340   38.8330 H   0  0  0  0  0  0  0  0  0  0  0  0
   37.8560   31.1290   39.2060 H   0  0  0  0  0  0  0  0  0  0  0  0
   37.9790   32.9030   40.3030 C   0  0  0  0  0  0  0  0  0  0  0  0
   38.3320   33.6080   39.5210 H   0  0  0  0  0  0  0  0  0  0  0  0
   38.8590   32.4140   40.7600 H   0  0  0  0  0  0  0  0  0  0  0  0
   37.3890   33.4630   41.0570 H   0  0  0  0  0  0  0  0  0  0  0  0
   38.9370   29.7740   42.8500 O   0  0  0  0  0  0  0  0  0  0  0  0
   41.8430   31.6590   41.9400 C   0  0  0  0  0  0  0  0  0  0  0  0
   42.8700   30.6740   41.7940 C   0  0  0  0  0  0  0  0  0  0  0  0
   42.4770   29.3520   42.0290 C   0  0  0  0  0  0  0  0  0  0  0  0
   41.2020   29.0810   42.3690 N   0  0  0  0  0  0  0  0  0  0  0  0
   40.2690   30.0410   42.4970 C   0  0  0  0  0  0  0  0  0  0  0  0
   40.5870   31.3270   42.2830 N   0  0  0  0  0  0  0  0  0  0  0  0
   43.8660   30.9270   41.5240 H   0  0  0  0  0  0  0  0  0  0  0  0
   43.2240   28.5720   41.9300 H   0  0  0  0  0  0  0  0  0  0  0  0
   42.1680   32.9790   41.7220 O   0  0  0  0  0  0  0  0  0  0  0  0
   43.7180   33.8040   40.0960 C   0  0  1  0  0  3  0  0  0  0  0  0
   42.2830   33.5120   40.4110 C   0  0  1  0  0  3  0  0  0  0  0  0
   41.7540   32.6180   39.4990 O   0  0  0  0  0  0  0  0  0  0  0  0
   41.5230   33.2180   38.2590 C   0  0  0  0  0  2  0  0  0  0  0  0
   42.5570   34.3080   38.0030 C   0  0  1  0  0  3  0  0  0  0  0  0
   43.8760   33.8930   38.5980 C   0  0  1  0  0  3  0  0  0  0  0  0
   44.1530   34.9930   40.7090 O   0  0  0  0  0  0  0  0  0  0  0  0
   45.0030   34.8150   41.2120 H   0  0  0  0  0  0  0  0  0  0  0  0
   42.6470   34.4900   36.6380 O   0  0  0  0  0  0  0  0  0  0  0  0
   43.5160   34.9140   36.4560 H   0  0  0  0  0  0  0  0  0  0  0  0
   44.8770   34.7940   38.2890 O   0  0  0  0  0  0  0  0  0  0  0  0
   45.6200   34.4110   37.7490 H   0  0  0  0  0  0  0  0  0  0  0  0
  2 25  1  0  0  0  0
  2  1  2  1  0  0  0
  3  4  1  0  0  0  0
  3  2  1  0  0  0  0
  5  2  1  0  0  0  0
  6 17  1  0  0  0  0
  6 11  1  1  0  0  0
  6  7  1  0  0  0  0
  7 12  1  6  0  0  0
  7  5  1  0  0  0  0
  8 14  1  0  0  0  0
  8  7  1  0  0  0  0
  9 10  1  0  0  0  0
  9  8  1  0  0  0  0
 10  6  1  0  0  0  0
 13  8  1  0  0  0  0
 15 10  1  0  0  0  0
 16 10  1  0  0  0  0
 18 21  1  0  0  0  0
 18 17  1  0  0  0  0
 19 18  1  0  0  0  0
 20 18  1  0  0  0  0
 21 23  1  0  0  0  0
 21 24  1  0  0  0  0
 22 21  1  0  0  0  0
 26 31  1  0  0  0  0
 27 26  2  0  0  0  0
 27 28  1  0  0  0  0
 28 29  2  0  0  0  0
 29 30  1  0  0  0  0
 30 25  1  0  0  0  0
 31 30  2  0  0  0  0
 32 27  1  0  0  0  0
 33 28  1  0  0  0  0
 34 26  1  0  0  0  0
 35 36  1  0  0  0  0
 35 41  1  1  0  0  0
 36 34  1  1  0  0  0
 37 36  1  0  0  0  0
 38 37  1  0  0  0  0
 39 43  1  6  0  0  0
 39 38  1  0  0  0  0
 39 40  1  0  0  0  0
 40 45  1  1  0  0  0
 40 35  1  0  0  0  0
 41 42  1  0  0  0  0
 44 43  1  0  0  0  0
 46 45  1  0  0  0  0
M  END
>  <minimizedAffinity>
-5.93188047

$$$$
