
 OpenBabel03252508003D

 32 34  0  0  1  0  0  0  0  0999 V2000
   47.0180   34.3250   43.2330 C   0  0  0  0  0  0  0  0  0  0  0  0
   45.8960   35.2110   43.2090 C   0  0  0  0  0  0  0  0  0  0  0  0
   44.9490   35.0480   44.2270 C   0  0  0  0  0  0  0  0  0  0  0  0
   45.1530   34.0810   45.1510 N   0  0  0  0  0  0  0  0  0  0  0  0
   46.2590   33.2630   45.1100 C   0  0  0  0  0  0  0  0  0  0  0  0
   47.1790   33.3770   44.1700 N   0  0  0  0  0  0  0  0  0  0  0  0
   45.7980   35.9630   42.4390 H   0  0  0  0  0  0  0  0  0  0  0  0
   44.0830   35.6840   44.2640 H   0  0  0  0  0  0  0  0  0  0  0  0
   46.4230   32.2310   46.1790 C   0  0  1  0  0  0  0  0  0  0  0  0
   47.0800   32.6260   47.4830 C   0  0  0  0  0  0  0  0  0  0  0  0
   45.5880   32.4640   47.3760 C   0  0  1  0  0  0  0  0  0  0  0  0
   46.6240   31.1900   45.8760 H   0  0  0  0  0  0  0  0  0  0  0  0
   47.5300   33.6480   47.4490 H   0  0  0  0  0  0  0  0  0  0  0  0
   47.6950   31.8850   48.0000 H   0  0  0  0  0  0  0  0  0  0  0  0
   45.1960   31.6400   47.9940 H   0  0  0  0  0  0  0  0  0  0  0  0
   44.8770   33.7100   47.5400 N   0  0  0  0  0  0  0  0  0  0  0  0
   45.4310   34.5490   47.6490 H   0  0  0  0  0  0  0  0  0  0  0  0
   43.9310   33.7480   47.1850 H   0  0  0  0  0  0  0  0  0  0  0  0
   47.9670   34.5440   42.1700 C   0  0  0  0  0  0  0  0  0  0  0  0
   48.4470   35.6980   41.8850 O   0  0  0  0  0  0  0  0  0  0  0  0
   48.2170   33.8710   39.8760 C   0  0  1  0  0  3  0  0  0  0  0  0
   48.4760   33.4400   41.3050 C   0  0  2  0  0  3  0  0  0  0  0  0
   47.7500   32.3040   41.6440 O   0  0  0  0  0  0  0  0  0  0  0  0
   47.9670   31.2500   40.7720 C   0  0  0  0  0  2  0  0  0  0  0  0
   47.5820   31.5680   39.3560 C   0  0  1  0  0  3  0  0  0  0  0  0
   48.3860   32.7500   38.8980 C   0  0  1  0  0  3  0  0  0  0  0  0
   46.9220   34.3700   39.7690 O   0  0  0  0  0  0  0  0  0  0  0  0
   46.2330   33.6570   39.7440 H   0  0  0  0  0  0  0  0  0  0  0  0
   47.9790   30.4870   38.5580 O   0  0  0  0  0  0  0  0  0  0  0  0
   47.2550   30.2330   37.9350 H   0  0  0  0  0  0  0  0  0  0  0  0
   47.8490   33.2140   37.6760 O   0  0  0  0  0  0  0  0  0  0  0  0
   47.1180   33.8750   37.8380 H   0  0  0  0  0  0  0  0  0  0  0  0
  1  6  1  0  0  0  0
  2  1  2  0  0  0  0
  2  3  1  0  0  0  0
  3  8  1  0  0  0  0
  3  4  2  0  0  0  0
  5  4  1  0  0  0  0
  5  9  1  0  0  0  0
  6  5  2  0  0  0  0
  7  2  1  0  0  0  0
  9 12  1  6  0  0  0
  9 11  1  0  0  0  0
  9 10  1  0  0  0  0
 10 14  1  0  0  0  0
 11 10  1  0  0  0  0
 11 16  1  0  0  0  0
 11 15  1  1  0  0  0
 13 10  1  0  0  0  0
 16 17  1  0  0  0  0
 18 16  1  0  0  0  0
 19  1  1  0  0  0  0
 20 19  2  0  0  0  0
 21 27  1  1  0  0  0
 21 22  1  0  0  0  0
 22 23  1  0  0  0  0
 22 19  1  1  0  0  0
 24 23  1  0  0  0  0
 25 29  1  6  0  0  0
 25 24  1  0  0  0  0
 26 31  1  6  0  0  0
 26 25  1  0  0  0  0
 26 21  1  0  0  0  0
 28 27  1  0  0  0  0
 30 29  1  0  0  0  0
 31 32  1  0  0  0  0
M  END
>  <minimizedAffinity>
-5.52440071

>  <minimizedRMSD>
2.74216628

$$$$
