
 OpenBabel03252507463D

 40 42  0  0  1  0  0  0  0  0999 V2000
   48.6860   33.9220   41.2520 C   0  0  0  0  0  0  0  0  0  0  0  0
   48.9260   32.6910   40.6730 C   0  0  0  0  0  0  0  0  0  0  0  0
   50.0770   31.9700   40.9540 C   0  0  0  0  0  0  0  0  0  0  0  0
   50.9620   32.5420   41.8360 N   0  0  0  0  0  0  0  0  0  0  0  0
   50.6940   33.7420   42.3800 C   0  0  0  0  0  0  0  0  0  0  0  0
   49.5880   34.4120   42.0960 N   0  0  0  0  0  0  0  0  0  0  0  0
   50.2680   31.0070   40.5020 H   0  0  0  0  0  0  0  0  0  0  0  0
   51.3650   34.2260   43.0790 H   0  0  0  0  0  0  0  0  0  0  0  0
   47.4330   34.6080   40.8870 C   0  0  0  0  0  0  0  0  0  0  0  0
   46.7910   33.9610   40.2530 H   0  0  0  0  0  0  0  0  0  0  0  0
   47.6310   35.5290   40.2930 H   0  0  0  0  0  0  0  0  0  0  0  0
   46.5910   34.9620   42.0870 C   0  0  0  0  0  0  0  0  0  0  0  0
   46.9190   35.9580   42.4600 H   0  0  0  0  0  0  0  0  0  0  0  0
   46.7810   34.1940   42.8630 H   0  0  0  0  0  0  0  0  0  0  0  0
   45.1270   34.9330   41.8320 C   0  0  0  0  0  0  0  0  0  0  0  0
   44.2350   35.5260   42.7720 C   0  0  0  0  0  0  0  0  0  0  0  0
   42.5840   35.2320   42.0160 S   0  0  0  0  0  0  0  0  0  0  0  0
   43.3920   34.3440   40.5350 C   0  0  0  0  0  0  0  0  0  0  0  0
   44.4970   34.4090   40.8040 N   0  0  0  0  0  0  0  0  0  0  0  0
   44.4900   36.0190   43.6920 H   0  0  0  0  0  0  0  0  0  0  0  0
   42.6560   33.8110   39.4760 O   0  0  0  0  0  0  0  0  0  0  0  0
   40.6840   34.1340   37.7400 O   0  0  0  0  0  0  0  0  0  0  0  0
   41.7430   34.8910   38.5380 P   0  0  0  0  0  0  0  0  0  0  0  0
   40.9950   35.9840   39.5780 O   0  0  0  0  0  0  0  0  0  0  0  0
   40.1610   36.2750   39.1540 H   0  0  0  0  0  0  0  0  0  0  0  0
   42.7780   35.7490   37.4970 O   0  0  0  0  0  0  0  0  0  0  0  0
   42.3280   36.1610   36.7420 H   0  0  0  0  0  0  0  0  0  0  0  0
   47.7210   31.9900   39.5170 S   0  0  0  0  0  0  0  0  0  0  0  0
   48.8480   32.6190   37.1650 C   0  0  2  0  0  3  0  0  0  0  0  0
   48.5500   31.4050   38.0490 C   0  0  2  0  0  3  0  0  0  0  0  0
   47.6820   30.5230   37.4020 O   0  0  0  0  0  0  0  0  0  0  0  0
   46.6900   31.2960   36.7970 C   0  0  0  0  0  2  0  0  0  0  0  0
   47.2400   31.7260   35.4570 C   0  0  2  0  0  3  0  0  0  0  0  0
   48.6250   32.2910   35.7070 C   0  0  1  0  0  3  0  0  0  0  0  0
   50.1880   32.9800   37.3050 O   0  0  0  0  0  0  0  0  0  0  0  0
   50.3590   33.7070   36.6860 H   0  0  0  0  0  0  0  0  0  0  0  0
   46.3920   32.6430   34.8350 O   0  0  0  0  0  0  0  0  0  0  0  0
   46.8730   33.1820   34.1640 H   0  0  0  0  0  0  0  0  0  0  0  0
   48.7760   33.4680   34.9870 O   0  0  0  0  0  0  0  0  0  0  0  0
   48.7560   34.2850   35.5170 H   0  0  0  0  0  0  0  0  0  0  0  0
  1  6  1  0  0  0  0
  2  3  1  0  0  0  0
  2  1  2  0  0  0  0
  3  4  2  0  0  0  0
  4  5  1  0  0  0  0
  5  8  1  0  0  0  0
  6  5  2  0  0  0  0
  7  3  1  0  0  0  0
  9  1  1  0  0  0  0
  9 12  1  0  0  0  0
 10  9  1  0  0  0  0
 11  9  1  0  0  0  0
 12 13  1  0  0  0  0
 12 14  1  0  0  0  0
 15 12  1  0  0  0  0
 15 16  2  0  0  0  0
 16 20  1  0  0  0  0
 17 16  1  0  0  0  0
 18 19  2  0  0  0  0
 18 17  1  0  0  0  0
 19 15  1  0  0  0  0
 21 18  1  0  0  0  0
 22 23  2  0  0  0  0
 23 21  1  0  0  0  0
 23 24  1  0  0  0  0
 25 24  1  0  0  0  0
 26 23  1  0  0  0  0
 27 26  1  0  0  0  0
 28  2  1  0  0  0  0
 29 35  1  6  0  0  0
 29 30  1  0  0  0  0
 30 28  1  1  0  0  0
 31 30  1  0  0  0  0
 32 31  1  0  0  0  0
 33 37  1  1  0  0  0
 33 34  1  0  0  0  0
 33 32  1  0  0  0  0
 34 39  1  6  0  0  0
 34 29  1  0  0  0  0
 36 35  1  0  0  0  0
 38 37  1  0  0  0  0
 39 40  1  0  0  0  0
M  END
>  <minimizedAffinity>
-5.88208866

>  <minimizedRMSD>
1.64827394

$$$$
