REMARK  Name = 
REMARK  10 active torsions:
REMARK  status: ('A' for Active; 'I' for Inactive)
REMARK    1  A    between atoms: N_1  and  C_6
REMARK    2  A    between atoms: C_5  and  O_13
REMARK    3  A    between atoms: C_6  and  C_9
REMARK    4  A    between atoms: O_13  and  P_15
REMARK    5  A    between atoms: P_15  and  O_16
REMARK    6  A    between atoms: P_15  and  O_17
REMARK    7  A    between atoms: O_17  and  C_31
REMARK    8  A    between atoms: O_29  and  C_30
REMARK    9  A    between atoms: C_34  and  O_35
REMARK   10  A    between atoms: C_36  and  O_37
REMARK                            x       y       z     vdW  Elec       q    Type
REMARK                         _______ _______ _______ _____ _____    ______ ____
ROOT
ATOM      1  N   UNL     1      47.835  33.994  42.007  0.00  0.00    +0.000 N 
ATOM      2  C   UNL     1      47.868  34.882  40.908  0.00  0.00    +0.000 C 
ATOM      3  C   UNL     1      49.045  35.730  41.215  0.00  0.00    +0.000 C 
ATOM      4  C   UNL     1      49.677  35.228  42.509  0.00  0.00    +0.000 C 
ATOM      5  C   UNL     1      49.097  33.809  42.596  0.00  0.00    +0.000 C 
ATOM      6  H   UNL     1      47.354  35.106  40.011  0.00  0.00    +0.000 HD
ATOM      7  H   UNL     1      49.477  36.559  40.671  0.00  0.00    +0.000 HD
ATOM      8  H   UNL     1      50.753  35.203  42.333  0.00  0.00    +0.000 HD
ATOM      9  H   UNL     1      49.340  35.837  43.366  0.00  0.00    +0.000 HD
ATOM     10  H   UNL     1      49.043  33.420  43.609  0.00  0.00    +0.000 HD
ENDROOT
BRANCH   1  11
ATOM     11  C   UNL     1      46.640  33.446  42.404  0.00  0.00    +0.000 C 
ATOM     12  H   UNL     1      46.838  32.384  42.702  0.00  0.00    +0.000 HD
ATOM     13  H   UNL     1      45.889  33.314  41.592  0.00  0.00    +0.000 HD
BRANCH  11  16
ATOM     14  C   UNL     1      44.624  35.946  44.411  0.00  0.00    +0.000 A 
ATOM     15  C   UNL     1      45.288  35.370  43.283  0.00  0.00    +0.000 A 
ATOM     16  C   UNL     1      45.950  34.156  43.461  0.00  0.00    +0.000 A 
ATOM     17  N   UNL     1      45.920  33.605  44.694  0.00  0.00    +0.000 NA
ATOM     18  C   UNL     1      45.275  34.175  45.771  0.00  0.00    +0.000 A 
ATOM     19  N   UNL     1      44.634  35.336  45.623  0.00  0.00    +0.000 NA
ATOM     20  H   UNL     1      44.108  36.888  44.281  0.00  0.00    +0.000 HD
ATOM     21  H   UNL     1      45.289  35.837  42.326  0.00  0.00    +0.000 HD
ATOM     22  H   UNL     1      45.308  33.655  46.719  0.00  0.00    +0.000 HD
ENDBRANCH  11  16
ENDBRANCH   1  11
BRANCH   5  23
ATOM     23  O   UNL     1      49.843  33.027  41.704  0.00  0.00    +0.000 OA
BRANCH  23  25
ATOM     24  O   UNL     1      49.136  30.997  43.262  0.00  0.00    +0.000 OA
ATOM     25  P   UNL     1      50.104  31.469  42.204  0.00  0.00    +0.000 P 
BRANCH  25  26
ATOM     26  O   UNL     1      51.657  31.383  42.879  0.00  0.00    +0.000 OA
ATOM     27  H   UNL     1      51.782  30.610  43.483  0.00  0.00    +0.000 HD
ENDBRANCH  25  26
BRANCH  25  28
ATOM     28  O   UNL     1      50.108  30.383  40.877  0.00  0.00    +0.000 OA
BRANCH  28  30
ATOM     29  C   UNL     1      50.700  31.415  38.764  0.00  0.00    +0.000 C 
ATOM     30  C   UNL     1      51.162  30.772  40.049  0.00  0.00    +0.000 C 
ATOM     31  O   UNL     1      52.096  31.545  40.723  0.00  0.00    +0.000 OA
ATOM     32  C   UNL     1      51.639  32.827  41.003  0.00  0.00    +0.000 C 
ATOM     33  C   UNL     1      51.146  33.580  39.809  0.00  0.00    +0.000 C 
ATOM     34  C   UNL     1      50.198  32.822  38.938  0.00  0.00    +0.000 C 
BRANCH  29  35
ATOM     35  O   UNL     1      49.584  30.666  38.327  0.00  0.00    +0.000 OA
ATOM     36  H   UNL     1      48.766  31.015  38.807  0.00  0.00    +0.000 HD
ENDBRANCH  29  35
BRANCH  33  37
ATOM     37  O   UNL     1      50.431  34.696  40.300  0.00  0.00    +0.000 OA
ATOM     38  H   UNL     1      50.686  34.911  41.242  0.00  0.00    +0.000 HD
ENDBRANCH  33  37
BRANCH  34  39
ATOM     39  O   UNL     1      50.264  33.432  37.667  0.00  0.00    +0.000 OA
ATOM     40  H   UNL     1      50.353  34.414  37.738  0.00  0.00    +0.000 HD
ENDBRANCH  34  39
ENDBRANCH  28  30
ENDBRANCH  25  28
ENDBRANCH  23  25
ENDBRANCH   5  23
TORSDOF 10
