
 OpenBabel03252505003D

 40 42  0  0  1  0  0  0  0  0999 V2000
   37.0920   29.2260   41.5750 N   0  0  0  0  0  0  0  0  0  0  0  0
   37.0450   28.0620   40.7750 C   0  0  0  0  0  0  0  0  0  0  0  0
   35.9650   28.3800   39.8090 C   0  0  0  0  0  0  0  0  0  0  0  0
   35.4620   29.7910   40.0950 C   0  0  0  0  0  0  0  0  0  0  0  0
   36.6330   30.3700   40.9010 C   0  0  2  0  0  0  0  0  0  0  0  0
   37.5050   27.1170   40.6640 H   0  0  0  0  0  0  0  0  0  0  0  0
   35.5540   27.7980   38.9950 H   0  0  0  0  0  0  0  0  0  0  0  0
   35.3690   30.2840   39.1260 H   0  0  0  0  0  0  0  0  0  0  0  0
   34.5470   29.7590   40.7120 H   0  0  0  0  0  0  0  0  0  0  0  0
   36.3470   31.1760   41.5720 H   0  0  0  0  0  0  0  0  0  0  0  0
   37.5240   29.1410   42.8760 C   0  0  0  0  0  0  0  0  0  0  0  0
   36.7320   28.6040   43.4600 H   0  0  0  0  0  0  0  0  0  0  0  0
   37.5830   30.1120   43.4180 H   0  0  0  0  0  0  0  0  0  0  0  0
   41.2290   28.3610   42.9470 C   0  0  0  0  0  0  0  0  0  0  0  0
   40.0260   29.0840   42.6750 C   0  0  0  0  0  0  0  0  0  0  0  0
   38.8150   28.5120   43.0630 C   0  0  0  0  0  0  0  0  0  0  0  0
   38.8630   27.3070   43.6720 N   0  0  0  0  0  0  0  0  0  0  0  0
   40.0330   26.6240   43.9260 C   0  0  0  0  0  0  0  0  0  0  0  0
   41.2030   27.1530   43.5640 N   0  0  0  0  0  0  0  0  0  0  0  0
   42.1730   28.7980   42.6480 H   0  0  0  0  0  0  0  0  0  0  0  0
   40.0310   30.0320   42.1910 H   0  0  0  0  0  0  0  0  0  0  0  0
   39.9660   25.6640   44.4210 H   0  0  0  0  0  0  0  0  0  0  0  0
   37.6220   30.7060   39.9670 O   0  0  0  0  0  0  0  0  0  0  0  0
   38.9730   32.4180   41.4810 O   0  0  0  0  0  0  0  0  0  0  0  0
   38.2690   32.2190   40.1600 P   0  0  2  0  0  0  0  0  0  0  0  0
   37.0050   33.3470   40.0970 O   0  0  0  0  0  0  0  0  0  0  0  0
   37.2290   34.2150   40.5150 H   0  0  0  0  0  0  0  0  0  0  0  0
   39.3180   32.6170   38.8630 O   0  0  0  0  0  0  0  0  0  0  0  0
   41.2830   31.4200   38.0970 C   0  0  2  0  0  3  0  0  0  0  0  0
   40.5840   32.1480   39.2190 C   0  0  1  0  0  3  0  0  0  0  0  0
   41.3720   33.1450   39.7750 O   0  0  0  0  0  0  0  0  0  0  0  0
   41.8090   34.0760   38.8410 C   0  0  0  0  0  2  0  0  0  0  0  0
   42.5210   33.4840   37.6670 C   0  0  1  0  0  3  0  0  0  0  0  0
   41.8210   32.3300   37.0270 C   0  0  1  0  0  3  0  0  0  0  0  0
   40.2950   30.6320   37.4610 O   0  0  0  0  0  0  0  0  0  0  0  0
   39.8110   31.2160   36.7940 H   0  0  0  0  0  0  0  0  0  0  0  0
   42.5990   34.4980   36.6860 O   0  0  0  0  0  0  0  0  0  0  0  0
   42.4860   35.4060   37.0850 H   0  0  0  0  0  0  0  0  0  0  0  0
   42.8160   31.6010   36.3420 O   0  0  0  0  0  0  0  0  0  0  0  0
   43.4850   32.1990   35.9250 H   0  0  0  0  0  0  0  0  0  0  0  0
  1 11  1  0  0  0  0
  2  1  1  0  0  0  0
  3  4  1  0  0  0  0
  3  2  2  0  0  0  0
  4  9  1  0  0  0  0
  4  5  1  0  0  0  0
  5 10  1  1  0  0  0
  5  1  1  0  0  0  0
  6  2  1  0  0  0  0
  7  3  1  0  0  0  0
  8  4  1  0  0  0  0
 11 16  1  0  0  0  0
 11 13  1  0  0  0  0
 11 12  1  0  0  0  0
 14 19  1  0  0  0  0
 15 14  2  0  0  0  0
 15 16  1  0  0  0  0
 16 17  2  0  0  0  0
 17 18  1  0  0  0  0
 18 22  1  0  0  0  0
 19 18  2  0  0  0  0
 20 14  1  0  0  0  0
 21 15  1  0  0  0  0
 23 25  1  0  0  0  0
 23  5  1  0  0  0  0
 25 24  2  1  0  0  0
 26 25  1  0  0  0  0
 26 27  1  0  0  0  0
 28 25  1  0  0  0  0
 29 35  1  6  0  0  0
 29 30  1  0  0  0  0
 30 28  1  6  0  0  0
 30 31  1  0  0  0  0
 32 31  1  0  0  0  0
 33 37  1  6  0  0  0
 33 32  1  0  0  0  0
 34 39  1  6  0  0  0
 34 33  1  0  0  0  0
 34 29  1  0  0  0  0
 36 35  1  0  0  0  0
 37 38  1  0  0  0  0
 40 39  1  0  0  0  0
M  END
>  <minimizedAffinity>
-6.52667475

$$$$

 OpenBabel03252505003D

 40 42  0  0  1  0  0  0  0  0999 V2000
   37.0340   29.3410   41.6370 N   0  0  0  0  0  0  0  0  0  0  0  0
   35.8690   28.8940   40.9740 C   0  0  0  0  0  0  0  0  0  0  0  0
   35.5360   30.0420   40.0980 C   0  0  0  0  0  0  0  0  0  0  0  0
   36.6040   31.1150   40.2820 C   0  0  0  0  0  0  0  0  0  0  0  0
   37.7490   30.2970   40.8950 C   0  0  2  0  0  0  0  0  0  0  0  0
   35.2190   28.0610   40.9180 H   0  0  0  0  0  0  0  0  0  0  0  0
   34.7230   30.1820   39.3980 H   0  0  0  0  0  0  0  0  0  0  0  0
   36.8620   31.4630   39.2810 H   0  0  0  0  0  0  0  0  0  0  0  0
   36.2580   31.8880   40.9900 H   0  0  0  0  0  0  0  0  0  0  0  0
   38.4310   30.8860   41.5020 H   0  0  0  0  0  0  0  0  0  0  0  0
   37.3340   28.8600   42.8870 C   0  0  0  0  0  0  0  0  0  0  0  0
   36.3650   28.6360   43.4040 H   0  0  0  0  0  0  0  0  0  0  0  0
   37.7920   29.6010   43.5810 H   0  0  0  0  0  0  0  0  0  0  0  0
   38.8010   25.3800   42.5930 C   0  0  0  0  0  0  0  0  0  0  0  0
   37.8220   26.4220   42.5400 C   0  0  0  0  0  0  0  0  0  0  0  0
   38.2100   27.7070   42.9170 C   0  0  0  0  0  0  0  0  0  0  0  0
   39.4900   27.8810   43.3100 N   0  0  0  0  0  0  0  0  0  0  0  0
   40.4210   26.8640   43.3560 C   0  0  0  0  0  0  0  0  0  0  0  0
   40.0720   25.6270   42.9980 N   0  0  0  0  0  0  0  0  0  0  0  0
   38.5070   24.3800   42.3030 H   0  0  0  0  0  0  0  0  0  0  0  0
   36.8200   26.2430   42.2250 H   0  0  0  0  0  0  0  0  0  0  0  0
   41.4230   27.1050   43.6840 H   0  0  0  0  0  0  0  0  0  0  0  0
   38.3510   29.6090   39.8330 O   0  0  0  0  0  0  0  0  0  0  0  0
   40.6780   28.8180   38.8310 O   0  0  0  0  0  0  0  0  0  0  0  0
   39.9860   29.8410   39.6980 P   0  0  2  0  0  0  0  0  0  0  0  0
   40.6660   29.7220   41.2460 O   0  0  0  0  0  0  0  0  0  0  0  0
   41.6350   29.5230   41.2370 H   0  0  0  0  0  0  0  0  0  0  0  0
   40.3450   31.4250   39.1480 O   0  0  0  0  0  0  0  0  0  0  0  0
   41.6590   32.3580   37.3370 C   0  0  2  0  0  3  0  0  0  0  0  0
   41.5460   31.3380   38.4420 C   0  0  1  0  0  3  0  0  0  0  0  0
   42.6480   31.3460   39.2860 O   0  0  0  0  0  0  0  0  0  0  0  0
   42.8910   32.5920   39.8480 C   0  0  0  0  0  2  0  0  0  0  0  0
   43.0220   33.7030   38.8550 C   0  0  1  0  0  3  0  0  0  0  0  0
   41.9430   33.7510   37.8240 C   0  0  1  0  0  3  0  0  0  0  0  0
   40.3840   32.4230   36.7270 O   0  0  0  0  0  0  0  0  0  0  0  0
   39.8120   33.0570   37.2670 H   0  0  0  0  0  0  0  0  0  0  0  0
   42.9340   34.9110   39.5830 O   0  0  0  0  0  0  0  0  0  0  0  0
   43.1370   34.7730   40.5510 H   0  0  0  0  0  0  0  0  0  0  0  0
   42.4820   34.4590   36.7290 O   0  0  0  0  0  0  0  0  0  0  0  0
   43.0580   35.2060   37.0250 H   0  0  0  0  0  0  0  0  0  0  0  0
  1 11  1  0  0  0  0
  2  1  1  0  0  0  0
  3  4  1  0  0  0  0
  3  2  2  0  0  0  0
  4  5  1  0  0  0  0
  4  9  1  0  0  0  0
  5 10  1  1  0  0  0
  5  1  1  0  0  0  0
  6  2  1  0  0  0  0
  7  3  1  0  0  0  0
  8  4  1  0  0  0  0
 11 16  1  0  0  0  0
 11 12  1  0  0  0  0
 11 13  1  0  0  0  0
 14 19  1  0  0  0  0
 15 14  2  0  0  0  0
 15 16  1  0  0  0  0
 16 17  2  0  0  0  0
 17 18  1  0  0  0  0
 18 22  1  0  0  0  0
 19 18  2  0  0  0  0
 20 14  1  0  0  0  0
 21 15  1  0  0  0  0
 23  5  1  0  0  0  0
 25 24  2  6  0  0  0
 25 23  1  0  0  0  0
 25 26  1  0  0  0  0
 27 26  1  0  0  0  0
 28 25  1  0  0  0  0
 29 35  1  1  0  0  0
 29 34  1  0  0  0  0
 29 30  1  0  0  0  0
 30 28  1  1  0  0  0
 30 31  1  0  0  0  0
 31 32  1  0  0  0  0
 33 37  1  1  0  0  0
 33 32  1  0  0  0  0
 34 39  1  6  0  0  0
 34 33  1  0  0  0  0
 35 36  1  0  0  0  0
 37 38  1  0  0  0  0
 39 40  1  0  0  0  0
M  END
>  <minimizedAffinity>
-6.08482075

$$$$

 OpenBabel03252505003D

 40 42  0  0  1  0  0  0  0  0999 V2000
   40.8700   26.2020   42.9970 N   0  0  0  0  0  0  0  0  0  0  0  0
   41.6520   26.4650   44.1440 C   0  0  0  0  0  0  0  0  0  0  0  0
   42.0170   27.8910   43.9640 C   0  0  0  0  0  0  0  0  0  0  0  0
   41.3550   28.4010   42.6890 C   0  0  0  0  0  0  0  0  0  0  0  0
   40.2510   27.3540   42.4830 C   0  0  2  0  0  0  0  0  0  0  0  0
   42.0230   25.9960   45.0170 H   0  0  0  0  0  0  0  0  0  0  0  0
   42.6130   28.5490   44.5820 H   0  0  0  0  0  0  0  0  0  0  0  0
   40.9310   29.3760   42.9340 H   0  0  0  0  0  0  0  0  0  0  0  0
   42.0690   28.3810   41.8470 H   0  0  0  0  0  0  0  0  0  0  0  0
   39.9380   27.2460   41.4480 H   0  0  0  0  0  0  0  0  0  0  0  0
   40.8110   24.9260   42.4910 C   0  0  0  0  0  0  0  0  0  0  0  0
   40.9750   24.2170   43.3430 H   0  0  0  0  0  0  0  0  0  0  0  0
   41.6460   24.6510   41.8080 H   0  0  0  0  0  0  0  0  0  0  0  0
   38.2650   24.0690   39.8210 C   0  0  0  0  0  0  0  0  0  0  0  0
   39.5280   24.4210   40.3930 C   0  0  0  0  0  0  0  0  0  0  0  0
   39.5960   24.5960   41.7750 C   0  0  0  0  0  0  0  0  0  0  0  0
   38.4580   24.4230   42.4820 N   0  0  0  0  0  0  0  0  0  0  0  0
   37.2490   24.0840   41.9130 C   0  0  0  0  0  0  0  0  0  0  0  0
   37.1610   23.9090   40.5930 N   0  0  0  0  0  0  0  0  0  0  0  0
   38.2040   23.9310   38.7500 H   0  0  0  0  0  0  0  0  0  0  0  0
   40.4030   24.5490   39.8000 H   0  0  0  0  0  0  0  0  0  0  0  0
   36.3940   23.9670   42.5650 H   0  0  0  0  0  0  0  0  0  0  0  0
   39.2250   27.6880   43.3770 O   0  0  0  0  0  0  0  0  0  0  0  0
   36.5710   27.6250   43.4180 O   0  0  0  0  0  0  0  0  0  0  0  0
   37.7880   28.0930   42.6570 P   0  0  2  0  0  0  0  0  0  0  0  0
   37.7340   27.3550   41.1320 O   0  0  0  0  0  0  0  0  0  0  0  0
   36.8180   27.2640   40.7700 H   0  0  0  0  0  0  0  0  0  0  0  0
   37.6930   29.7800   42.3660 O   0  0  0  0  0  0  0  0  0  0  0  0
   36.8690   31.1190   40.5210 C   0  0  2  0  0  3  0  0  0  0  0  0
   37.6970   29.9450   40.9800 C   0  0  1  0  0  3  0  0  0  0  0  0
   38.9840   29.9690   40.4620 O   0  0  0  0  0  0  0  0  0  0  0  0
   39.6660   31.1420   40.7580 C   0  0  0  0  0  2  0  0  0  0  0  0
   38.9490   32.3910   40.3550 C   0  0  1  0  0  3  0  0  0  0  0  0
   37.5160   32.4520   40.7710 C   0  0  1  0  0  3  0  0  0  0  0  0
   35.6980   31.1120   41.3140 O   0  0  0  0  0  0  0  0  0  0  0  0
   35.9070   31.5860   42.1820 H   0  0  0  0  0  0  0  0  0  0  0  0
   39.6010   33.4620   41.0080 O   0  0  0  0  0  0  0  0  0  0  0  0
   40.5270   33.2130   41.2890 H   0  0  0  0  0  0  0  0  0  0  0  0
   36.8960   33.3720   39.8990 O   0  0  0  0  0  0  0  0  0  0  0  0
   37.4900   34.1350   39.6900 H   0  0  0  0  0  0  0  0  0  0  0  0
  1  2  1  0  0  0  0
  2  6  1  0  0  0  0
  3  2  2  0  0  0  0
  3  7  1  0  0  0  0
  4  8  1  0  0  0  0
  4  3  1  0  0  0  0
  5 10  1  6  0  0  0
  5  4  1  0  0  0  0
  5  1  1  0  0  0  0
  5 23  1  0  0  0  0
  9  4  1  0  0  0  0
 11  1  1  0  0  0  0
 11 12  1  0  0  0  0
 13 11  1  0  0  0  0
 14 15  2  0  0  0  0
 14 19  1  0  0  0  0
 15 16  1  0  0  0  0
 16 17  2  0  0  0  0
 16 11  1  0  0  0  0
 18 17  1  0  0  0  0
 18 22  1  0  0  0  0
 19 18  2  0  0  0  0
 20 14  1  0  0  0  0
 21 15  1  0  0  0  0
 25 23  1  0  0  0  0
 25 24  2  1  0  0  0
 26 25  1  0  0  0  0
 27 26  1  0  0  0  0
 28 25  1  0  0  0  0
 29 34  1  0  0  0  0
 29 30  1  0  0  0  0
 29 35  1  1  0  0  0
 30 28  1  1  0  0  0
 31 32  1  0  0  0  0
 31 30  1  0  0  0  0
 33 32  1  0  0  0  0
 33 34  1  0  0  0  0
 33 37  1  1  0  0  0
 34 39  1  6  0  0  0
 35 36  1  0  0  0  0
 37 38  1  0  0  0  0
 40 39  1  0  0  0  0
M  END
>  <minimizedAffinity>
-5.99163914

$$$$

 OpenBabel03252505003D

 40 42  0  0  1  0  0  0  0  0999 V2000
   37.1490   29.2040   41.4370 N   0  0  0  0  0  0  0  0  0  0  0  0
   37.0780   28.0610   40.6080 C   0  0  0  0  0  0  0  0  0  0  0  0
   36.1460   28.4950   39.5400 C   0  0  0  0  0  0  0  0  0  0  0  0
   35.7510   29.9440   39.8040 C   0  0  0  0  0  0  0  0  0  0  0  0
   36.8770   30.3960   40.7450 C   0  0  2  0  0  0  0  0  0  0  0  0
   37.4560   27.0760   40.5250 H   0  0  0  0  0  0  0  0  0  0  0  0
   35.7730   27.9660   38.6730 H   0  0  0  0  0  0  0  0  0  0  0  0
   35.8120   30.4560   38.8430 H   0  0  0  0  0  0  0  0  0  0  0  0
   34.7750   29.9920   40.3170 H   0  0  0  0  0  0  0  0  0  0  0  0
   36.5970   31.2160   41.4000 H   0  0  0  0  0  0  0  0  0  0  0  0
   37.4260   29.0590   42.7740 C   0  0  0  0  0  0  0  0  0  0  0  0
   36.5640   28.5150   43.2410 H   0  0  0  0  0  0  0  0  0  0  0  0
   37.4340   30.0070   43.3590 H   0  0  0  0  0  0  0  0  0  0  0  0
   40.0760   26.6240   43.9530 C   0  0  0  0  0  0  0  0  0  0  0  0
   38.7730   27.1730   43.7380 C   0  0  0  0  0  0  0  0  0  0  0  0
   38.6780   28.4000   43.0830 C   0  0  0  0  0  0  0  0  0  0  0  0
   39.8290   28.9900   42.6950 N   0  0  0  0  0  0  0  0  0  0  0  0
   41.0780   28.4470   42.9110 C   0  0  0  0  0  0  0  0  0  0  0  0
   41.1930   27.2730   43.5350 N   0  0  0  0  0  0  0  0  0  0  0  0
   40.1590   25.6730   44.4610 H   0  0  0  0  0  0  0  0  0  0  0  0
   37.8880   26.6760   44.0600 H   0  0  0  0  0  0  0  0  0  0  0  0
   41.9410   28.9970   42.5620 H   0  0  0  0  0  0  0  0  0  0  0  0
   37.9890   30.6460   39.9300 O   0  0  0  0  0  0  0  0  0  0  0  0
   37.0520   33.1270   39.7940 O   0  0  0  0  0  0  0  0  0  0  0  0
   38.2680   32.2490   39.6170 P   0  0  2  0  0  0  0  0  0  0  0  0
   38.7550   32.3960   37.9990 O   0  0  0  0  0  0  0  0  0  0  0  0
   38.6310   33.3060   37.6320 H   0  0  0  0  0  0  0  0  0  0  0  0
   39.5730   32.8480   40.5550 O   0  0  0  0  0  0  0  0  0  0  0  0
   41.6670   33.4970   39.5200 C   0  0  2  0  0  3  0  0  0  0  0  0
   40.7420   32.3850   39.9510 C   0  0  1  0  0  3  0  0  0  0  0  0
   41.3870   31.4300   40.7240 O   0  0  0  0  0  0  0  0  0  0  0  0
   41.9980   31.9670   41.8500 C   0  0  0  0  0  2  0  0  0  0  0  0
   42.9440   33.0880   41.5630 C   0  0  1  0  0  3  0  0  0  0  0  0
   42.4050   34.1460   40.6570 C   0  0  1  0  0  3  0  0  0  0  0  0
   40.8410   34.5090   38.9770 O   0  0  0  0  0  0  0  0  0  0  0  0
   40.5000   35.0750   39.7410 H   0  0  0  0  0  0  0  0  0  0  0  0
   43.2130   33.7190   42.7980 O   0  0  0  0  0  0  0  0  0  0  0  0
   43.0090   33.1190   43.5700 H   0  0  0  0  0  0  0  0  0  0  0  0
   43.5290   34.7870   40.0940 O   0  0  0  0  0  0  0  0  0  0  0  0
   44.2630   34.8810   40.7500 H   0  0  0  0  0  0  0  0  0  0  0  0
  1 11  1  0  0  0  0
  2  1  1  0  0  0  0
  3  4  1  0  0  0  0
  3  2  2  0  0  0  0
  4  9  1  0  0  0  0
  4  5  1  0  0  0  0
  5 10  1  1  0  0  0
  5  1  1  0  0  0  0
  6  2  1  0  0  0  0
  7  3  1  0  0  0  0
  8  4  1  0  0  0  0
 11 16  1  0  0  0  0
 11 12  1  0  0  0  0
 11 13  1  0  0  0  0
 14 20  1  0  0  0  0
 15 14  1  0  0  0  0
 15 21  1  0  0  0  0
 16 15  2  0  0  0  0
 17 18  2  0  0  0  0
 17 16  1  0  0  0  0
 18 19  1  0  0  0  0
 19 14  2  0  0  0  0
 22 18  1  0  0  0  0
 23  5  1  0  0  0  0
 25 24  2  1  0  0  0
 25 23  1  0  0  0  0
 25 28  1  0  0  0  0
 26 25  1  0  0  0  0
 27 26  1  0  0  0  0
 29 35  1  1  0  0  0
 29 30  1  0  0  0  0
 29 34  1  0  0  0  0
 30 28  1  1  0  0  0
 30 31  1  0  0  0  0
 31 32  1  0  0  0  0
 33 32  1  0  0  0  0
 33 37  1  1  0  0  0
 34 39  1  6  0  0  0
 34 33  1  0  0  0  0
 35 36  1  0  0  0  0
 37 38  1  0  0  0  0
 39 40  1  0  0  0  0
M  END
>  <minimizedAffinity>
-5.82693052

$$$$

 OpenBabel03252505003D

 40 42  0  0  1  0  0  0  0  0999 V2000
   38.2700   27.8610   42.0500 N   0  0  0  0  0  0  0  0  0  0  0  0
   37.2360   26.8990   42.1120 C   0  0  0  0  0  0  0  0  0  0  0  0
   36.5240   27.2720   43.3580 C   0  0  0  0  0  0  0  0  0  0  0  0
   37.1930   28.5110   43.9440 C   0  0  0  0  0  0  0  0  0  0  0  0
   37.9460   29.0520   42.7200 C   0  0  2  0  0  0  0  0  0  0  0  0
   36.8480   26.0670   41.5850 H   0  0  0  0  0  0  0  0  0  0  0  0
   35.6600   26.8290   43.8350 H   0  0  0  0  0  0  0  0  0  0  0  0
   36.3860   29.1830   44.2380 H   0  0  0  0  0  0  0  0  0  0  0  0
   37.9020   28.2280   44.7410 H   0  0  0  0  0  0  0  0  0  0  0  0
   38.8170   29.6510   42.9720 H   0  0  0  0  0  0  0  0  0  0  0  0
   39.4450   27.5560   41.4090 C   0  0  0  0  0  0  0  0  0  0  0  0
   39.8430   28.5050   40.9640 H   0  0  0  0  0  0  0  0  0  0  0  0
   39.3370   26.9140   40.5050 H   0  0  0  0  0  0  0  0  0  0  0  0
   42.0520   25.1850   42.7970 C   0  0  0  0  0  0  0  0  0  0  0  0
   41.0510   25.6930   41.9110 C   0  0  0  0  0  0  0  0  0  0  0  0
   40.4520   26.9110   42.2270 C   0  0  0  0  0  0  0  0  0  0  0  0
   40.8590   27.5320   43.3550 N   0  0  0  0  0  0  0  0  0  0  0  0
   41.8260   27.0270   44.1990 C   0  0  0  0  0  0  0  0  0  0  0  0
   42.4130   25.8630   43.9160 N   0  0  0  0  0  0  0  0  0  0  0  0
   42.5220   24.2400   42.5590 H   0  0  0  0  0  0  0  0  0  0  0  0
   40.7570   25.1720   41.0300 H   0  0  0  0  0  0  0  0  0  0  0  0
   42.0830   27.6000   45.0800 H   0  0  0  0  0  0  0  0  0  0  0  0
   36.9900   29.7070   41.9310 O   0  0  0  0  0  0  0  0  0  0  0  0
   38.8440   31.5340   41.4080 O   0  0  0  0  0  0  0  0  0  0  0  0
   37.6110   30.8340   40.8880 P   0  0  2  0  0  0  0  0  0  0  0  0
   36.4330   32.0270   40.6350 O   0  0  0  0  0  0  0  0  0  0  0  0
   36.8030   32.8830   40.3050 H   0  0  0  0  0  0  0  0  0  0  0  0
   37.9240   30.1490   39.3470 O   0  0  0  0  0  0  0  0  0  0  0  0
   37.2540   30.5670   37.0550 C   0  0  2  0  0  3  0  0  0  0  0  0
   36.8770   30.5490   38.5150 C   0  0  1  0  0  3  0  0  0  0  0  0
   35.7160   29.8270   38.7540 O   0  0  0  0  0  0  0  0  0  0  0  0
   35.7870   28.5190   38.2940 C   0  0  0  0  0  2  0  0  0  0  0  0
   36.1580   28.3910   36.8510 C   0  0  1  0  0  3  0  0  0  0  0  0
   37.3430   29.2000   36.4350 C   0  0  1  0  0  3  0  0  0  0  0  0
   38.5640   31.0970   36.9910 O   0  0  0  0  0  0  0  0  0  0  0  0
   39.2140   30.3430   37.1600 H   0  0  0  0  0  0  0  0  0  0  0  0
   36.5030   27.0380   36.6380 O   0  0  0  0  0  0  0  0  0  0  0  0
   36.1220   26.4450   37.3450 H   0  0  0  0  0  0  0  0  0  0  0  0
   37.2230   29.3800   35.0410 O   0  0  0  0  0  0  0  0  0  0  0  0
   36.8680   28.5710   34.5970 H   0  0  0  0  0  0  0  0  0  0  0  0
  1  2  1  0  0  0  0
  1  5  1  0  0  0  0
  2  3  2  0  0  0  0
  3  7  1  0  0  0  0
  3  4  1  0  0  0  0
  4  8  1  0  0  0  0
  4  9  1  0  0  0  0
  5 10  1  1  0  0  0
  5  4  1  0  0  0  0
  6  2  1  0  0  0  0
 11  1  1  0  0  0  0
 11 16  1  0  0  0  0
 12 11  1  0  0  0  0
 13 11  1  0  0  0  0
 14 19  1  0  0  0  0
 15 16  1  0  0  0  0
 15 14  2  0  0  0  0
 16 17  2  0  0  0  0
 17 18  1  0  0  0  0
 18 22  1  0  0  0  0
 19 18  2  0  0  0  0
 20 14  1  0  0  0  0
 21 15  1  0  0  0  0
 23  5  1  0  0  0  0
 25 24  2  1  0  0  0
 25 23  1  0  0  0  0
 26 25  1  0  0  0  0
 27 26  1  0  0  0  0
 28 25  1  0  0  0  0
 29 35  1  1  0  0  0
 29 30  1  0  0  0  0
 30 31  1  0  0  0  0
 30 28  1  1  0  0  0
 32 31  1  0  0  0  0
 33 37  1  1  0  0  0
 33 32  1  0  0  0  0
 34 39  1  6  0  0  0
 34 33  1  0  0  0  0
 34 29  1  0  0  0  0
 35 36  1  0  0  0  0
 37 38  1  0  0  0  0
 40 39  1  0  0  0  0
M  END
>  <minimizedAffinity>
-5.78169441

$$$$

 OpenBabel03252505003D

 40 42  0  0  1  0  0  0  0  0999 V2000
   37.4330   28.9150   39.9230 N   0  0  0  0  0  0  0  0  0  0  0  0
   36.8560   28.3650   38.7570 C   0  0  0  0  0  0  0  0  0  0  0  0
   35.4430   28.8020   38.8600 C   0  0  0  0  0  0  0  0  0  0  0  0
   35.2920   29.6560   40.1150 C   0  0  0  0  0  0  0  0  0  0  0  0
   36.7510   30.0540   40.3840 C   0  0  2  0  0  0  0  0  0  0  0  0
   37.1030   27.7870   37.9060 H   0  0  0  0  0  0  0  0  0  0  0  0
   34.6010   28.6250   38.2050 H   0  0  0  0  0  0  0  0  0  0  0  0
   34.6960   30.5220   39.8240 H   0  0  0  0  0  0  0  0  0  0  0  0
   34.8960   29.0520   40.9490 H   0  0  0  0  0  0  0  0  0  0  0  0
   36.9570   30.2840   41.4250 H   0  0  0  0  0  0  0  0  0  0  0  0
   38.5250   28.3090   40.4940 C   0  0  0  0  0  0  0  0  0  0  0  0
   38.8250   28.9210   41.3840 H   0  0  0  0  0  0  0  0  0  0  0  0
   39.4550   28.3380   39.8800 H   0  0  0  0  0  0  0  0  0  0  0  0
   37.2210   25.0480   41.9090 C   0  0  0  0  0  0  0  0  0  0  0  0
   37.2910   26.4510   41.6450 C   0  0  0  0  0  0  0  0  0  0  0  0
   38.3450   26.9210   40.8630 C   0  0  0  0  0  0  0  0  0  0  0  0
   39.2350   26.0120   40.4070 N   0  0  0  0  0  0  0  0  0  0  0  0
   39.1530   24.6620   40.6720 C   0  0  0  0  0  0  0  0  0  0  0  0
   38.1510   24.1900   41.4170 N   0  0  0  0  0  0  0  0  0  0  0  0
   36.4060   24.6760   42.5150 H   0  0  0  0  0  0  0  0  0  0  0  0
   36.5690   27.1360   42.0240 H   0  0  0  0  0  0  0  0  0  0  0  0
   39.9150   24.0140   40.2600 H   0  0  0  0  0  0  0  0  0  0  0  0
   37.0460   31.0870   39.4840 O   0  0  0  0  0  0  0  0  0  0  0  0
   38.8390   31.7750   41.3170 O   0  0  0  0  0  0  0  0  0  0  0  0
   38.1550   32.1880   40.0360 P   0  0  2  0  0  0  0  0  0  0  0  0
   37.3430   33.6420   40.3540 O   0  0  0  0  0  0  0  0  0  0  0  0
   37.8310   34.2380   40.9750 H   0  0  0  0  0  0  0  0  0  0  0  0
   39.3200   32.5530   38.8320 O   0  0  0  0  0  0  0  0  0  0  0  0
   41.5390   31.6010   38.6200 C   0  0  2  0  0  3  0  0  0  0  0  0
   40.5710   32.4200   39.4370 C   0  0  1  0  0  3  0  0  0  0  0  0
   41.1000   33.6450   39.8160 O   0  0  0  0  0  0  0  0  0  0  0  0
   41.5310   34.4060   38.7360 C   0  0  0  0  0  2  0  0  0  0  0  0
   42.5000   33.7080   37.8370 C   0  0  1  0  0  3  0  0  0  0  0  0
   42.0940   32.3300   37.4280 C   0  0  1  0  0  3  0  0  0  0  0  0
   40.7960   30.5200   38.0900 O   0  0  0  0  0  0  0  0  0  0  0  0
   40.3390   30.8400   37.2480 H   0  0  0  0  0  0  0  0  0  0  0  0
   42.5760   34.4720   36.6500 O   0  0  0  0  0  0  0  0  0  0  0  0
   42.2640   35.4090   36.7950 H   0  0  0  0  0  0  0  0  0  0  0  0
   43.2840   31.6640   37.0650 O   0  0  0  0  0  0  0  0  0  0  0  0
   43.9100   32.2660   36.5930 H   0  0  0  0  0  0  0  0  0  0  0  0
  1  5  1  0  0  0  0
  1 11  1  0  0  0  0
  2  3  2  0  0  0  0
  2  1  1  0  0  0  0
  3  4  1  0  0  0  0
  4  5  1  0  0  0  0
  4  9  1  0  0  0  0
  5 10  1  1  0  0  0
  6  2  1  0  0  0  0
  7  3  1  0  0  0  0
  8  4  1  0  0  0  0
 11 16  1  0  0  0  0
 11 12  1  0  0  0  0
 13 11  1  0  0  0  0
 14 20  1  0  0  0  0
 15 14  1  0  0  0  0
 15 21  1  0  0  0  0
 16 15  2  0  0  0  0
 17 18  2  0  0  0  0
 17 16  1  0  0  0  0
 18 19  1  0  0  0  0
 19 14  2  0  0  0  0
 22 18  1  0  0  0  0
 23 25  1  0  0  0  0
 23  5  1  0  0  0  0
 25 26  1  0  0  0  0
 25 24  2  1  0  0  0
 26 27  1  0  0  0  0
 28 25  1  0  0  0  0
 29 35  1  6  0  0  0
 29 30  1  0  0  0  0
 30 28  1  6  0  0  0
 30 31  1  0  0  0  0
 32 31  1  0  0  0  0
 33 37  1  6  0  0  0
 33 32  1  0  0  0  0
 34 39  1  1  0  0  0
 34 33  1  0  0  0  0
 34 29  1  0  0  0  0
 36 35  1  0  0  0  0
 37 38  1  0  0  0  0
 40 39  1  0  0  0  0
M  END
>  <minimizedAffinity>
-5.75201845

$$$$

 OpenBabel03252505003D

 40 42  0  0  1  0  0  0  0  0999 V2000
   37.3660   28.5210   42.2650 N   0  0  0  0  0  0  0  0  0  0  0  0
   37.0370   28.0430   43.5540 C   0  0  0  0  0  0  0  0  0  0  0  0
   38.2550   27.2890   43.9380 C   0  0  0  0  0  0  0  0  0  0  0  0
   39.2790   27.4220   42.8160 C   0  0  0  0  0  0  0  0  0  0  0  0
   38.7510   28.6570   42.0720 C   0  0  2  0  0  0  0  0  0  0  0  0
   36.2550   28.0580   44.2660 H   0  0  0  0  0  0  0  0  0  0  0  0
   38.4860   26.7370   44.8390 H   0  0  0  0  0  0  0  0  0  0  0  0
   40.2340   27.6310   43.2980 H   0  0  0  0  0  0  0  0  0  0  0  0
   39.2510   26.5340   42.1600 H   0  0  0  0  0  0  0  0  0  0  0  0
   39.0350   28.6910   41.0240 H   0  0  0  0  0  0  0  0  0  0  0  0
   36.3680   28.7640   41.3540 C   0  0  0  0  0  0  0  0  0  0  0  0
   35.4500   29.0510   41.9280 H   0  0  0  0  0  0  0  0  0  0  0  0
   36.0120   27.8700   40.7940 H   0  0  0  0  0  0  0  0  0  0  0  0
   36.9620   32.0010   39.4800 C   0  0  0  0  0  0  0  0  0  0  0  0
   36.6030   31.1340   40.5580 C   0  0  0  0  0  0  0  0  0  0  0  0
   36.6750   29.7580   40.3460 C   0  0  0  0  0  0  0  0  0  0  0  0
   37.0800   29.3360   39.1280 N   0  0  0  0  0  0  0  0  0  0  0  0
   37.4210   30.1870   38.0980 C   0  0  0  0  0  0  0  0  0  0  0  0
   37.3610   31.5080   38.2800 N   0  0  0  0  0  0  0  0  0  0  0  0
   36.9080   33.0700   39.6370 H   0  0  0  0  0  0  0  0  0  0  0  0
   36.2880   31.5070   41.5050 H   0  0  0  0  0  0  0  0  0  0  0  0
   37.7340   29.7520   37.1590 H   0  0  0  0  0  0  0  0  0  0  0  0
   39.1520   29.7680   42.8270 O   0  0  0  0  0  0  0  0  0  0  0  0
   41.6010   30.7820   42.6790 O   0  0  0  0  0  0  0  0  0  0  0  0
   40.2230   30.7730   42.0610 P   0  0  2  0  0  0  0  0  0  0  0  0
   39.6260   32.3570   42.1600 O   0  0  0  0  0  0  0  0  0  0  0  0
   40.3200   33.0490   42.0300 H   0  0  0  0  0  0  0  0  0  0  0  0
   40.3250   30.4130   40.3880 O   0  0  0  0  0  0  0  0  0  0  0  0
   42.0110   30.4220   38.6460 C   0  0  2  0  0  3  0  0  0  0  0  0
   41.4820   31.0370   39.9180 C   0  0  1  0  0  3  0  0  0  0  0  0
   41.3270   32.4130   39.8170 O   0  0  0  0  0  0  0  0  0  0  0  0
   40.5080   32.7910   38.7610 C   0  0  0  0  0  2  0  0  0  0  0  0
   40.9210   32.2430   37.4320 C   0  0  1  0  0  3  0  0  0  0  0  0
   41.2130   30.7790   37.4220 C   0  0  1  0  0  3  0  0  0  0  0  0
   41.8710   29.0230   38.7950 O   0  0  0  0  0  0  0  0  0  0  0  0
   40.9270   28.7750   38.5340 H   0  0  0  0  0  0  0  0  0  0  0  0
   39.8310   32.4400   36.5550 O   0  0  0  0  0  0  0  0  0  0  0  0
   39.2140   33.1500   36.8880 H   0  0  0  0  0  0  0  0  0  0  0  0
   42.0560   30.5560   36.3130 O   0  0  0  0  0  0  0  0  0  0  0  0
   41.8000   31.1190   35.5410 H   0  0  0  0  0  0  0  0  0  0  0  0
  1  2  1  0  0  0  0
  2  3  2  0  0  0  0
  2  6  1  0  0  0  0
  3  7  1  0  0  0  0
  4  8  1  0  0  0  0
  4  3  1  0  0  0  0
  5 10  1  6  0  0  0
  5  1  1  0  0  0  0
  5  4  1  0  0  0  0
  5 23  1  0  0  0  0
  9  4  1  0  0  0  0
 11 12  1  0  0  0  0
 11  1  1  0  0  0  0
 13 11  1  0  0  0  0
 14 20  1  0  0  0  0
 14 15  1  0  0  0  0
 15 21  1  0  0  0  0
 16 15  2  0  0  0  0
 16 11  1  0  0  0  0
 17 16  1  0  0  0  0
 18 19  1  0  0  0  0
 18 17  2  0  0  0  0
 19 14  2  0  0  0  0
 22 18  1  0  0  0  0
 25 26  1  0  0  0  0
 25 24  2  1  0  0  0
 25 23  1  0  0  0  0
 27 26  1  0  0  0  0
 28 25  1  0  0  0  0
 29 35  1  1  0  0  0
 29 30  1  0  0  0  0
 30 28  1  6  0  0  0
 31 30  1  0  0  0  0
 32 31  1  0  0  0  0
 33 37  1  6  0  0  0
 33 32  1  0  0  0  0
 34 39  1  6  0  0  0
 34 33  1  0  0  0  0
 34 29  1  0  0  0  0
 36 35  1  0  0  0  0
 37 38  1  0  0  0  0
 40 39  1  0  0  0  0
M  END
>  <minimizedAffinity>
-5.71186733

$$$$

 OpenBabel03252505003D

 40 42  0  0  1  0  0  0  0  0999 V2000
   37.1440   29.0050   41.6370 N   0  0  0  0  0  0  0  0  0  0  0  0
   36.6300   28.4600   40.4390 C   0  0  0  0  0  0  0  0  0  0  0  0
   35.9490   29.6240   39.8230 C   0  0  0  0  0  0  0  0  0  0  0  0
   36.1600   30.8380   40.7210 C   0  0  0  0  0  0  0  0  0  0  0  0
   37.3700   30.3890   41.5540 C   0  0  2  0  0  0  0  0  0  0  0  0
   36.5870   27.5540   39.8950 H   0  0  0  0  0  0  0  0  0  0  0  0
   35.4000   29.7090   38.8940 H   0  0  0  0  0  0  0  0  0  0  0  0
   36.4220   31.6650   40.0600 H   0  0  0  0  0  0  0  0  0  0  0  0
   35.2810   30.9960   41.3710 H   0  0  0  0  0  0  0  0  0  0  0  0
   37.4350   30.8710   42.5250 H   0  0  0  0  0  0  0  0  0  0  0  0
   37.3370   28.1920   42.7270 C   0  0  0  0  0  0  0  0  0  0  0  0
   36.3370   27.7860   43.0270 H   0  0  0  0  0  0  0  0  0  0  0  0
   37.6530   28.7180   43.6570 H   0  0  0  0  0  0  0  0  0  0  0  0
   40.4980   26.1580   42.2660 C   0  0  0  0  0  0  0  0  0  0  0  0
   39.6680   27.3130   42.4150 C   0  0  0  0  0  0  0  0  0  0  0  0
   38.2930   27.1200   42.5430 C   0  0  0  0  0  0  0  0  0  0  0  0
   37.8370   25.8480   42.5150 N   0  0  0  0  0  0  0  0  0  0  0  0
   38.6530   24.7460   42.3690 C   0  0  0  0  0  0  0  0  0  0  0  0
   39.9720   24.9080   42.2470 N   0  0  0  0  0  0  0  0  0  0  0  0
   41.5660   26.3000   42.1660 H   0  0  0  0  0  0  0  0  0  0  0  0
   40.0670   28.3000   42.4310 H   0  0  0  0  0  0  0  0  0  0  0  0
   38.1920   23.7680   42.3600 H   0  0  0  0  0  0  0  0  0  0  0  0
   38.4930   30.5620   40.7340 O   0  0  0  0  0  0  0  0  0  0  0  0
   40.2040   31.2050   42.6590 O   0  0  0  0  0  0  0  0  0  0  0  0
   39.6250   31.6160   41.3270 P   0  0  2  0  0  0  0  0  0  0  0  0
   38.8780   33.1210   41.5550 O   0  0  0  0  0  0  0  0  0  0  0  0
   39.3580   33.7080   42.1900 H   0  0  0  0  0  0  0  0  0  0  0  0
   40.8810   31.8830   40.1910 O   0  0  0  0  0  0  0  0  0  0  0  0
   41.0260   33.8730   38.8120 C   0  0  2  0  0  3  0  0  0  0  0  0
   40.3110   32.5810   39.1250 C   0  0  1  0  0  3  0  0  0  0  0  0
   40.1500   31.7790   38.0040 O   0  0  0  0  0  0  0  0  0  0  0  0
   41.3510   31.4860   37.3710 C   0  0  0  0  0  2  0  0  0  0  0  0
   42.1660   32.6850   37.0060 C   0  0  1  0  0  3  0  0  0  0  0  0
   42.3370   33.6830   38.1030 C   0  0  1  0  0  3  0  0  0  0  0  0
   41.3500   34.4570   40.0590 O   0  0  0  0  0  0  0  0  0  0  0  0
   42.2140   34.0450   40.3810 H   0  0  0  0  0  0  0  0  0  0  0  0
   43.4590   32.2150   36.6860 O   0  0  0  0  0  0  0  0  0  0  0  0
   43.4520   31.2440   36.4550 H   0  0  0  0  0  0  0  0  0  0  0  0
   42.6360   34.9090   37.4730 O   0  0  0  0  0  0  0  0  0  0  0  0
   43.2200   34.7820   36.6850 H   0  0  0  0  0  0  0  0  0  0  0  0
  1 11  1  0  0  0  0
  2  1  1  0  0  0  0
  3  2  2  0  0  0  0
  3  4  1  0  0  0  0
  4  9  1  0  0  0  0
  4  5  1  0  0  0  0
  5  1  1  0  0  0  0
  5 10  1  1  0  0  0
  6  2  1  0  0  0  0
  7  3  1  0  0  0  0
  8  4  1  0  0  0  0
 11 12  1  0  0  0  0
 11 13  1  0  0  0  0
 14 15  1  0  0  0  0
 15 21  1  0  0  0  0
 15 16  2  0  0  0  0
 16 11  1  0  0  0  0
 17 16  1  0  0  0  0
 18 17  2  0  0  0  0
 19 14  2  0  0  0  0
 19 18  1  0  0  0  0
 20 14  1  0  0  0  0
 22 18  1  0  0  0  0
 23 25  1  0  0  0  0
 23  5  1  0  0  0  0
 25 26  1  0  0  0  0
 25 24  2  1  0  0  0
 26 27  1  0  0  0  0
 28 25  1  0  0  0  0
 29 30  1  0  0  0  0
 29 35  1  1  0  0  0
 30 28  1  1  0  0  0
 31 30  1  0  0  0  0
 32 31  1  0  0  0  0
 33 37  1  1  0  0  0
 33 32  1  0  0  0  0
 33 34  1  0  0  0  0
 34 39  1  6  0  0  0
 34 29  1  0  0  0  0
 35 36  1  0  0  0  0
 38 37  1  0  0  0  0
 40 39  1  0  0  0  0
M  END
>  <minimizedAffinity>
-5.70949841

$$$$

 OpenBabel03252505003D

 40 42  0  0  1  0  0  0  0  0999 V2000
   37.9580   27.8600   41.8160 N   0  0  0  0  0  0  0  0  0  0  0  0
   36.7070   28.1080   42.4240 C   0  0  0  0  0  0  0  0  0  0  0  0
   36.9550   27.7280   43.8360 C   0  0  0  0  0  0  0  0  0  0  0  0
   38.4140   27.3080   43.9730 C   0  0  0  0  0  0  0  0  0  0  0  0
   39.0300   27.9460   42.7200 C   0  0  2  0  0  0  0  0  0  0  0  0
   35.7320   28.4530   42.1990 H   0  0  0  0  0  0  0  0  0  0  0  0
   36.2960   27.7380   44.6940 H   0  0  0  0  0  0  0  0  0  0  0  0
   38.7850   27.7850   44.8810 H   0  0  0  0  0  0  0  0  0  0  0  0
   38.5060   26.2080   43.9320 H   0  0  0  0  0  0  0  0  0  0  0  0
   39.9270   27.4440   42.3690 H   0  0  0  0  0  0  0  0  0  0  0  0
   38.0150   27.5430   40.4810 C   0  0  0  0  0  0  0  0  0  0  0  0
   39.0960   27.5330   40.1820 H   0  0  0  0  0  0  0  0  0  0  0  0
   37.6010   28.3160   39.7940 H   0  0  0  0  0  0  0  0  0  0  0  0
   36.8050   23.9580   40.3300 C   0  0  0  0  0  0  0  0  0  0  0  0
   37.5290   25.1000   40.7940 C   0  0  0  0  0  0  0  0  0  0  0  0
   37.3680   26.3030   40.1070 C   0  0  0  0  0  0  0  0  0  0  0  0
   36.5360   26.3060   39.0430 N   0  0  0  0  0  0  0  0  0  0  0  0
   35.8460   25.1940   38.6090 C   0  0  0  0  0  0  0  0  0  0  0  0
   35.9840   24.0330   39.2520 N   0  0  0  0  0  0  0  0  0  0  0  0
   36.9250   23.0210   40.8580 H   0  0  0  0  0  0  0  0  0  0  0  0
   38.1770   25.0570   41.6380 H   0  0  0  0  0  0  0  0  0  0  0  0
   35.2020   25.2980   37.7460 H   0  0  0  0  0  0  0  0  0  0  0  0
   39.1950   29.3060   43.0160 O   0  0  0  0  0  0  0  0  0  0  0  0
   41.4950   29.1510   41.6990 O   0  0  0  0  0  0  0  0  0  0  0  0
   40.3760   30.0650   42.1360 P   0  0  2  0  0  0  0  0  0  0  0  0
   41.0700   31.2680   43.1090 O   0  0  0  0  0  0  0  0  0  0  0  0
   41.9700   31.5480   42.8090 H   0  0  0  0  0  0  0  0  0  0  0  0
   39.7140   30.8820   40.7810 O   0  0  0  0  0  0  0  0  0  0  0  0
   38.7920   33.1140   40.9860 C   0  0  2  0  0  3  0  0  0  0  0  0
   38.6420   31.6380   41.2580 C   0  0  1  0  0  3  0  0  0  0  0  0
   37.4200   31.1410   40.8260 O   0  0  0  0  0  0  0  0  0  0  0  0
   37.1860   31.3750   39.4780 C   0  0  0  0  0  2  0  0  0  0  0  0
   37.3060   32.8090   39.0700 C   0  0  1  0  0  3  0  0  0  0  0  0
   38.5400   33.4960   39.5540 C   0  0  1  0  0  3  0  0  0  0  0  0
   40.1510   33.4250   41.2280 O   0  0  0  0  0  0  0  0  0  0  0  0
   40.6730   33.2080   40.3910 H   0  0  0  0  0  0  0  0  0  0  0  0
   37.3670   32.8260   37.6580 O   0  0  0  0  0  0  0  0  0  0  0  0
   36.9970   31.9860   37.2630 H   0  0  0  0  0  0  0  0  0  0  0  0
   38.2450   34.8760   39.5510 O   0  0  0  0  0  0  0  0  0  0  0  0
   37.6880   35.1280   38.7740 H   0  0  0  0  0  0  0  0  0  0  0  0
  1  2  1  0  0  0  0
  1  5  1  0  0  0  0
  2  3  2  0  0  0  0
  3  4  1  0  0  0  0
  3  7  1  0  0  0  0
  4  8  1  0  0  0  0
  5 10  1  6  0  0  0
  5 23  1  0  0  0  0
  5  4  1  0  0  0  0
  6  2  1  0  0  0  0
  9  4  1  0  0  0  0
 11  1  1  0  0  0  0
 12 11  1  0  0  0  0
 13 11  1  0  0  0  0
 14 15  1  0  0  0  0
 14 20  1  0  0  0  0
 15 21  1  0  0  0  0
 16 11  1  0  0  0  0
 16 15  2  0  0  0  0
 17 16  1  0  0  0  0
 18 17  2  0  0  0  0
 18 19  1  0  0  0  0
 19 14  2  0  0  0  0
 22 18  1  0  0  0  0
 25 24  2  6  0  0  0
 25 23  1  0  0  0  0
 25 26  1  0  0  0  0
 27 26  1  0  0  0  0
 28 25  1  0  0  0  0
 29 35  1  6  0  0  0
 29 30  1  0  0  0  0
 30 28  1  6  0  0  0
 31 30  1  0  0  0  0
 32 31  1  0  0  0  0
 33 37  1  6  0  0  0
 33 32  1  0  0  0  0
 33 34  1  0  0  0  0
 34 39  1  1  0  0  0
 34 29  1  0  0  0  0
 36 35  1  0  0  0  0
 38 37  1  0  0  0  0
 40 39  1  0  0  0  0
M  END
>  <minimizedAffinity>
-5.70779991

$$$$
