
 OpenBabel03252509003D

 48 50  0  0  1  0  0  0  0  0999 V2000
   47.0780   34.1430   43.1110 N   0  0  0  0  0  0  0  0  0  0  0  0
   46.6710   35.4160   42.6320 C   0  0  0  0  0  0  0  0  0  0  0  0
   45.2110   35.7490   42.8490 C   0  0  0  0  0  0  0  0  0  0  0  0
   44.6150   35.1620   44.0940 C   0  0  0  0  0  0  0  0  0  0  0  0
   45.6530   34.4450   44.9240 C   0  0  0  0  0  0  0  0  0  0  0  0
   46.2460   33.3890   43.9240 C   0  0  2  0  0  0  0  0  0  0  0  0
   46.8880   35.6280   41.5830 H   0  0  0  0  0  0  0  0  0  0  0  0
   47.2510   36.1900   43.2140 H   0  0  0  0  0  0  0  0  0  0  0  0
   44.6360   35.4750   41.9300 H   0  0  0  0  0  0  0  0  0  0  0  0
   45.1000   36.8620   42.9070 H   0  0  0  0  0  0  0  0  0  0  0  0
   44.0470   35.9140   44.6930 H   0  0  0  0  0  0  0  0  0  0  0  0
   43.8740   34.3960   43.7850 H   0  0  0  0  0  0  0  0  0  0  0  0
   46.4490   35.0850   45.3080 H   0  0  0  0  0  0  0  0  0  0  0  0
   45.1090   33.8480   45.6700 H   0  0  0  0  0  0  0  0  0  0  0  0
   45.3660   32.8920   43.4780 H   0  0  0  0  0  0  0  0  0  0  0  0
   48.0150   33.4680   42.2630 C   0  0  0  0  0  0  0  0  0  0  0  0
   48.7380   34.2030   41.8870 H   0  0  0  0  0  0  0  0  0  0  0  0
   48.5630   32.7290   42.9000 H   0  0  0  0  0  0  0  0  0  0  0  0
   47.2600   32.7140   41.2120 C   0  0  0  0  0  0  0  0  0  0  0  0
   46.2150   33.0800   41.1420 H   0  0  0  0  0  0  0  0  0  0  0  0
   47.2000   31.6410   41.3950 H   0  0  0  0  0  0  0  0  0  0  0  0
   49.2720   32.2460   38.0750 C   0  0  0  0  0  0  0  0  0  0  0  0
   48.6820   32.0090   39.3310 C   0  0  0  0  0  0  0  0  0  0  0  0
   47.8770   32.9770   39.8850 C   0  0  0  0  0  0  0  0  0  0  0  0
   47.6960   34.1100   39.1890 N   0  0  0  0  0  0  0  0  0  0  0  0
   48.2650   34.3230   37.9920 C   0  0  0  0  0  0  0  0  0  0  0  0
   49.0510   33.4050   37.4240 N   0  0  0  0  0  0  0  0  0  0  0  0
   49.8830   31.4400   37.7170 H   0  0  0  0  0  0  0  0  0  0  0  0
   48.8500   31.0820   39.8640 H   0  0  0  0  0  0  0  0  0  0  0  0
   48.0220   35.2890   37.5540 H   0  0  0  0  0  0  0  0  0  0  0  0
   46.9710   32.5670   44.7800 O   0  0  0  0  0  0  0  0  0  0  0  0
   45.2500   30.7620   43.8640 O   0  0  0  0  0  0  0  0  0  0  0  0
   46.2800   31.0420   44.9520 P   0  0  2  0  0  0  0  0  0  0  0  0
   45.3850   31.0910   46.4110 O   0  0  0  0  0  0  0  0  0  0  0  0
   44.4660   31.4130   46.2270 H   0  0  0  0  0  0  0  0  0  0  0  0
   47.4040   29.8240   45.0900 O   0  0  0  0  0  0  0  0  0  0  0  0
   48.5230   27.9350   44.2710 C   0  0  2  0  0  3  0  0  0  0  0  0
   47.7110   29.1790   43.9090 C   0  0  2  0  0  3  0  0  0  0  0  0
   48.4620   30.0500   43.1210 O   0  0  0  0  0  0  0  0  0  0  0  0
   49.0710   29.3780   42.0640 C   0  0  0  0  0  2  0  0  0  0  0  0
   50.1470   28.4250   42.5240 C   0  0  1  0  0  3  0  0  0  0  0  0
   49.9790   28.2520   44.0280 C   0  0  1  0  0  3  0  0  0  0  0  0
   48.0740   26.8840   43.4540 O   0  0  0  0  0  0  0  0  0  0  0  0
   47.2670   27.1610   42.9210 H   0  0  0  0  0  0  0  0  0  0  0  0
   50.0040   27.1690   41.9080 O   0  0  0  0  0  0  0  0  0  0  0  0
   50.5040   26.5430   42.4940 H   0  0  0  0  0  0  0  0  0  0  0  0
   50.2340   29.5170   44.5770 O   0  0  0  0  0  0  0  0  0  0  0  0
   50.8110   29.4620   45.3790 H   0  0  0  0  0  0  0  0  0  0  0  0
  1  6  1  0  0  0  0
  2  3  1  0  0  0  0
  2  1  1  0  0  0  0
  2  8  1  0  0  0  0
  3 10  1  0  0  0  0
  3  4  1  0  0  0  0
  4 11  1  0  0  0  0
  4  5  1  0  0  0  0
  5 13  1  0  0  0  0
  5 14  1  0  0  0  0
  6 15  1  6  0  0  0
  6 31  1  0  0  0  0
  6  5  1  0  0  0  0
  7  2  1  0  0  0  0
  9  3  1  0  0  0  0
 12  4  1  0  0  0  0
 16 18  1  0  0  0  0
 16  1  1  0  0  0  0
 17 16  1  0  0  0  0
 19 21  1  0  0  0  0
 19 16  1  0  0  0  0
 20 19  1  0  0  0  0
 22 23  1  0  0  0  0
 23 29  1  0  0  0  0
 23 24  2  0  0  0  0
 24 19  1  0  0  0  0
 25 24  1  0  0  0  0
 26 25  2  0  0  0  0
 27 26  1  0  0  0  0
 27 22  2  0  0  0  0
 28 22  1  0  0  0  0
 30 26  1  0  0  0  0
 31 33  1  0  0  0  0
 33 32  2  6  0  0  0
 33 36  1  0  0  0  0
 33 34  1  0  0  0  0
 35 34  1  0  0  0  0
 37 43  1  6  0  0  0
 38 37  1  0  0  0  0
 38 36  1  1  0  0  0
 39 38  1  0  0  0  0
 40 41  1  0  0  0  0
 40 39  1  0  0  0  0
 41 45  1  6  0  0  0
 41 42  1  0  0  0  0
 42 37  1  0  0  0  0
 42 47  1  1  0  0  0
 44 43  1  0  0  0  0
 45 46  1  0  0  0  0
 47 48  1  0  0  0  0
M  END
>  <minimizedAffinity>
-3.75581765

>  <minimizedRMSD>
1.23042142

$$$$
