
     RDKit          3D

 31 32  0  0  0  0  0  0  0  0999 V2000
   44.5023   35.9994   44.5295 C   0  0  0  0  0  0  0  0  0  0  0  0
   45.1988   35.8808   43.3399 C   0  0  0  0  0  0  0  0  0  0  0  0
   46.1226   34.8291   43.1788 C   0  0  0  0  0  0  0  0  0  0  0  0
   46.3124   33.9397   44.2121 N   0  0  0  0  0  0  0  0  0  0  0  0
   45.6043   34.1019   45.3553 C   0  0  0  0  0  0  0  0  0  0  0  0
   44.7215   35.1110   45.5023 N   0  0  0  0  0  0  0  0  0  0  0  0
   45.8721   33.1099   46.4070 C   0  0  0  0  0  0  0  0  0  0  0  0
   46.4891   31.6082   45.6201 S   0  0  0  0  0  0  0  0  0  0  0  0
   43.8252   36.8324   44.5428 H   0  0  0  0  0  0  0  0  0  0  0  0
   45.1688   36.4882   42.4337 H   0  0  0  0  0  0  0  0  0  0  0  0
   46.7180   34.6528   42.2890 H   0  0  0  0  0  0  0  0  0  0  0  0
   46.6779   33.5736   47.0495 H   0  0  0  0  0  0  0  0  0  0  0  0
   45.0044   32.8964   47.0667 H   0  0  0  0  0  0  0  0  0  0  0  0
   46.4667   31.5329   48.7730 O   0  0  0  0  0  0  0  0  0  0  0  0
   46.1746   30.3571   48.0759 C   0  0  1  0  0  0  0  0  0  0  0  0
   46.8603   30.2759   46.7480 C   0  0  2  0  0  0  0  0  0  0  0  0
   48.2257   30.0570   46.8474 O   0  0  0  0  0  0  0  0  0  0  0  0
   48.5374   28.8155   47.3878 C   0  0  0  0  0  0  0  0  0  0  0  0
   47.4212   28.1616   48.1315 C   0  0  2  0  0  0  0  0  0  0  0  0
   46.6276   27.3198   47.3678 O   0  0  0  0  0  0  0  0  0  0  0  0
   46.6482   29.1913   48.9210 C   0  0  1  0  0  0  0  0  0  0  0  0
   47.5175   29.6347   49.9217 O   0  0  0  0  0  0  0  0  0  0  0  0
   47.4356   31.6251   48.8564 H   0  0  0  0  0  0  0  0  0  0  0  0
   45.0844   30.2419   47.9092 H   0  0  0  0  0  0  0  0  0  0  0  0
   46.4326   29.3561   46.2471 H   0  0  0  0  0  0  0  0  0  0  0  0
   49.3792   28.9624   48.1040 H   0  0  0  0  0  0  0  0  0  0  0  0
   48.9419   28.1266   46.6059 H   0  0  0  0  0  0  0  0  0  0  0  0
   47.8808   27.4844   48.9043 H   0  0  0  0  0  0  0  0  0  0  0  0
   46.3999   26.4720   47.8198 H   0  0  0  0  0  0  0  0  0  0  0  0
   45.7889   28.7045   49.4554 H   0  0  0  0  0  0  0  0  0  0  0  0
   47.0480   29.7567   50.7988 H   0  0  0  0  0  0  0  0  0  0  0  0
  1  6  2  0
  2  1  1  0
  3  2  2  0
  3  4  1  0
  4  5  2  0
  5  6  1  0
  5  7  1  0
  8  7  1  0
  1  9  1  0
  2 10  1  0
  3 11  1  0
  7 12  1  0
  7 13  1  0
 14 15  1  0
 15 16  1  0
 16 17  1  0
 17 18  1  0
 18 19  1  0
 19 20  1  0
 19 21  1  0
 21 22  1  0
 21 15  1  0
 14 23  1  0
 15 24  1  6
 16 25  1  6
 18 26  1  0
 18 27  1  0
 19 28  1  1
 20 29  1  0
 21 30  1  1
 22 31  1  0
  8 16  1  0
M  ISO  5   9  14  10  14  11  14  12   8  13   8
M  END
>  <DihAtoms>  (1) 
6,7,15,14

>  <DihDeg>  (1) 
66.42944879891922

$$$$
