
 OpenBabel03242520483D

 22 23  0  0  1  0  0  0  0  0999 V2000
   48.9320   34.6080   42.5180 C   0  0  1  0  0  3  0  0  0  0  0  0
   47.9470   34.5120   41.4090 C   0  0  1  0  0  3  0  0  0  0  0  0
   47.6480   33.2920   40.9100 O   0  0  0  0  0  0  0  0  0  0  0  0
   48.2890   32.2050   41.4520 C   0  0  0  0  0  2  0  0  0  0  0  0
   49.7690   32.5540   41.4270 C   0  0  1  0  0  3  0  0  0  0  0  0
   49.9130   33.4830   42.6190 C   0  0  1  0  0  3  0  0  0  0  0  0
   49.6750   35.7870   42.4300 O   0  0  0  0  0  0  0  0  0  0  0  0
   50.1680   36.0270   43.2300 H   0  0  0  0  0  0  0  0  0  0  0  0
   50.5460   31.4360   41.5210 O   0  0  0  0  0  0  0  0  0  0  0  0
   51.2940   31.5930   42.1440 H   0  0  0  0  0  0  0  0  0  0  0  0
   51.2450   33.9150   42.6110 O   0  0  0  0  0  0  0  0  0  0  0  0
   51.6750   33.8110   43.5100 H   0  0  0  0  0  0  0  0  0  0  0  0
   46.7360   35.1880   41.7100 O   0  0  0  0  0  0  0  0  0  0  0  0
   44.6600   35.7650   44.7340 C   0  0  0  0  0  0  0  0  0  0  0  0
   45.2060   35.9980   43.4710 C   0  0  0  0  0  0  0  0  0  0  0  0
   46.1180   35.0820   42.9480 C   0  0  0  0  0  0  0  0  0  0  0  0
   46.4330   33.9890   43.7130 N   0  0  0  0  0  0  0  0  0  0  0  0
   45.8900   33.7900   44.9280 C   0  0  0  0  0  0  0  0  0  0  0  0
   45.0020   34.6800   45.4380 N   0  0  0  0  0  0  0  0  0  0  0  0
   43.9570   36.4790   45.1270 H   0  0  0  0  0  0  0  0  0  0  0  0
   44.9680   36.8600   42.8510 H   0  0  0  0  0  0  0  0  0  0  0  0
   46.2420   32.8740   45.4090 H   0  0  0  0  0  0  0  0  0  0  0  0
  1  7  1  6  0  0  0
  1  6  1  0  0  0  0
  2 13  1  1  0  0  0
  2  1  1  0  0  0  0
  3  2  1  0  0  0  0
  3  4  1  0  0  0  0
  5  4  1  0  0  0  0
  5  9  1  1  0  0  0
  5  6  1  0  0  0  0
  6 11  1  6  0  0  0
  7  8  1  0  0  0  0
  9 10  1  0  0  0  0
 11 12  1  0  0  0  0
 13 16  1  0  0  0  0
 14 20  1  0  0  0  0
 14 19  1  0  0  0  0
 15 14  2  0  0  0  0
 16 15  1  0  0  0  0
 16 17  2  0  0  0  0
 17 18  1  0  0  0  0
 18 22  1  0  0  0  0
 18 19  2  0  0  0  0
 21 15  1  0  0  0  0
M  END
>  <minimizedAffinity>
-5.10161829

>  <minimizedRMSD>
0.942640901

$$$$
