
     RDKit          3D

 46 48  0  0  0  0  0  0  0  0999 V2000
   47.8347   33.9942   42.0066 N   0  0  0  0  0  0  0  0  0  0  0  0
   47.8680   34.8824   40.9077 C   0  0  0  0  0  0  0  0  0  0  0  0
   49.0447   35.7304   41.2154 C   0  0  0  0  0  0  0  0  0  0  0  0
   49.6767   35.2280   42.5086 C   0  0  0  0  0  0  0  0  0  0  0  0
   49.0966   33.8092   42.5964 C   0  0  2  0  0  0  0  0  0  0  0  0
   46.6397   33.4462   42.4039 C   0  0  0  0  0  0  0  0  0  0  0  0
   44.6240   35.9463   44.4115 C   0  0  0  0  0  0  0  0  0  0  0  0
   45.2880   35.3698   43.2835 C   0  0  0  0  0  0  0  0  0  0  0  0
   45.9503   34.1564   43.4609 C   0  0  0  0  0  0  0  0  0  0  0  0
   45.9204   33.6049   44.6941 N   0  0  0  0  0  0  0  0  0  0  0  0
   45.2750   34.1748   45.7708 C   0  0  0  0  0  0  0  0  0  0  0  0
   44.6343   35.3357   45.6229 N   0  0  0  0  0  0  0  0  0  0  0  0
   49.8426   33.0269   41.7041 O   0  0  0  0  0  0  0  0  0  0  0  0
   49.1363   30.9966   43.2617 O   0  0  0  0  0  0  0  0  0  0  0  0
   50.1036   31.4690   42.2044 P   0  0  2  0  0  0  0  0  0  0  0  0
   51.6575   31.3832   42.8791 O   0  0  0  0  0  0  0  0  0  0  0  0
   50.1085   30.3830   40.8766 O   0  0  0  0  0  0  0  0  0  0  0  0
   47.3536   35.1065   40.0114 H   0  0  0  0  0  0  0  0  0  0  0  0
   49.4772   36.5594   40.6710 H   0  0  0  0  0  0  0  0  0  0  0  0
   50.7529   35.2031   42.3331 H   0  0  0  0  0  0  0  0  0  0  0  0
   49.3400   35.8370   43.3663 H   0  0  0  0  0  0  0  0  0  0  0  0
   49.0432   33.4205   43.6093 H   0  0  0  0  0  0  0  0  0  0  0  0
   46.8384   32.3840   42.7019 H   0  0  0  0  0  0  0  0  0  0  0  0
   45.8893   33.3143   41.5918 H   0  0  0  0  0  0  0  0  0  0  0  0
   44.1076   36.8884   44.2806 H   0  0  0  0  0  0  0  0  0  0  0  0
   45.2895   35.8365   42.3257 H   0  0  0  0  0  0  0  0  0  0  0  0
   45.3081   33.6547   46.7195 H   0  0  0  0  0  0  0  0  0  0  0  0
   51.7824   30.6105   43.4834 H   0  0  0  0  0  0  0  0  0  0  0  0
   52.5186   29.6410   41.5818 O   0  0  0  0  0  0  0  0  0  0  0  0
   52.3853   29.9013   40.1983 C   0  0  2  0  0  0  0  0  0  0  0  0
   51.1621   30.7719   40.0490 C   0  0  1  0  0  0  0  0  0  0  0  0
   50.7645   30.9049   38.7262 O   0  0  0  0  0  0  0  0  0  0  0  0
   50.5239   29.6853   38.1069 C   0  0  0  0  0  0  0  0  0  0  0  0
   51.6629   28.7192   38.1835 C   0  0  2  0  0  0  0  0  0  0  0  0
   51.1502   27.4556   37.8130 O   0  0  0  0  0  0  0  0  0  0  0  0
   52.2517   28.5528   39.5462 C   0  0  1  0  0  0  0  0  0  0  0  0
   53.5635   28.0705   39.3483 O   0  0  0  0  0  0  0  0  0  0  0  0
   51.9218   28.8589   41.8109 H   0  0  0  0  0  0  0  0  0  0  0  0
   53.2671   30.4518   39.8569 H   0  0  0  0  0  0  0  0  0  0  0  0
   51.4569   31.7919   40.3746 H   0  0  0  0  0  0  0  0  0  0  0  0
   49.5937   29.1891   38.4588 H   0  0  0  0  0  0  0  0  0  0  0  0
   50.3414   29.9151   37.0333 H   0  0  0  0  0  0  0  0  0  0  0  0
   52.4535   28.9407   37.4220 H   0  0  0  0  0  0  0  0  0  0  0  0
   50.3026   27.5414   37.2911 H   0  0  0  0  0  0  0  0  0  0  0  0
   51.6544   27.8635   40.1794 H   0  0  0  0  0  0  0  0  0  0  0  0
   53.6060   27.4284   38.5973 H   0  0  0  0  0  0  0  0  0  0  0  0
  1  6  1  0
  1  5  1  0
  2  3  2  0
  2  1  1  0
  3  4  1  0
  4  5  1  0
  6  9  1  0
  7 12  2  0
  8  9  2  0
  8  7  1  0
  9 10  1  0
 10 11  2  0
 12 11  1  0
 15 13  1  6
 13  5  1  0
 15 16  1  0
 15 14  2  0
 17 15  1  0
  2 18  1  0
  3 19  1  0
  4 20  1  0
  4 21  1  0
  5 22  1  1
  6 23  1  0
  6 24  1  0
  7 25  1  0
  8 26  1  0
 11 27  1  0
 16 28  1  0
 29 30  1  0
 30 31  1  0
 31 32  1  0
 32 33  1  0
 33 34  1  0
 34 35  1  0
 34 36  1  0
 36 37  1  0
 36 30  1  0
 29 38  1  0
 30 39  1  6
 31 40  1  1
 33 41  1  0
 33 42  1  0
 34 43  1  6
 35 44  1  0
 36 45  1  1
 37 46  1  0
 17 31  1  0
M  ISO  8  18  13  19  13  20  13  21  13  22  13  23   8  24   8  25  14
M  ISO  3  26  14  27  14  28   3
M  END
>  <DihAtoms>  (1) 
14,16,30,29

>  <DihDeg>  (1) 
116.72444489644721

$$$$
