REMARK  Name = 
REMARK  5 active torsions:
REMARK  status: ('A' for Active; 'I' for Inactive)
REMARK    1  A    between atoms: C_3  and  O_7
REMARK    2  A    between atoms: O_7  and  C_13
REMARK    3  A    between atoms: O_11  and  C_12
REMARK    4  A    between atoms: C_16  and  O_17
REMARK    5  A    between atoms: C_18  and  O_19
REMARK                            x       y       z     vdW  Elec       q    Type
REMARK                         _______ _______ _______ _____ _____    ______ ____
ROOT
ATOM      1  C   UNL     1      48.153  33.217  42.858  0.00  0.00    +0.000 C 
ATOM      2  C   UNL     1      47.708  33.863  41.596  0.00  0.00    +0.000 C 
ATOM      3  O   UNL     1      47.212  33.085  40.608  0.00  0.00    +0.000 OA
ATOM      4  C   UNL     1      47.162  31.730  40.826  0.00  0.00    +0.000 C 
ATOM      5  C   UNL     1      48.556  31.345  41.296  0.00  0.00    +0.000 C 
ATOM      6  C   UNL     1      48.550  31.778  42.751  0.00  0.00    +0.000 C 
ENDROOT
BRANCH   1   7
ATOM      7  O   UNL     1      49.239  33.895  43.415  0.00  0.00    +0.000 OA
ATOM      8  H   UNL     1      49.434  33.675  44.340  0.00  0.00    +0.000 HD
ENDBRANCH   1   7
BRANCH   5   9
ATOM      9  O   UNL     1      48.784  30.008  41.136  0.00  0.00    +0.000 OA
ATOM     10  H   UNL     1      49.237  29.642  41.932  0.00  0.00    +0.000 HD
ENDBRANCH   5   9
BRANCH   6  11
ATOM     11  O   UNL     1      49.840  31.528  43.234  0.00  0.00    +0.000 OA
ATOM     12  H   UNL     1      49.822  31.020  44.097  0.00  0.00    +0.000 HD
ENDBRANCH   6  11
BRANCH   2  13
ATOM     13  O   UNL     1      46.802  34.929  41.833  0.00  0.00    +0.000 OA
BRANCH  13  16
ATOM     14  C   UNL     1      44.518  36.042  44.541  0.00  0.00    +0.000 A 
ATOM     15  C   UNL     1      45.176  36.057  43.310  0.00  0.00    +0.000 A 
ATOM     16  C   UNL     1      46.080  35.038  43.014  0.00  0.00    +0.000 A 
ATOM     17  N   UNL     1      46.277  34.065  43.959  0.00  0.00    +0.000 NA
ATOM     18  C   UNL     1      45.627  34.076  45.138  0.00  0.00    +0.000 A 
ATOM     19  N   UNL     1      44.747  35.067  45.428  0.00  0.00    +0.000 NA
ATOM     20  H   UNL     1      43.822  36.834  44.759  0.00  0.00    +0.000 HD
ATOM     21  H   UNL     1      45.033  36.821  42.549  0.00  0.00    +0.000 HD
ATOM     22  H   UNL     1      45.893  33.233  45.780  0.00  0.00    +0.000 HD
ENDBRANCH  13  16
ENDBRANCH   2  13
TORSDOF 5
