
 OpenBabel03252504583D

 40 42  0  0  1  0  0  0  0  0999 V2000
   47.8840   33.9930   42.0110 N   0  0  0  0  0  0  0  0  0  0  0  0
   47.8440   35.0770   41.1050 C   0  0  0  0  0  0  0  0  0  0  0  0
   49.0660   35.8380   41.4600 C   0  0  0  0  0  0  0  0  0  0  0  0
   49.7950   35.0890   42.5700 C   0  0  0  0  0  0  0  0  0  0  0  0
   49.1870   33.6850   42.4350 C   0  0  2  0  0  0  0  0  0  0  0  0
   47.2590   35.4760   40.3190 H   0  0  0  0  0  0  0  0  0  0  0  0
   49.4700   36.7530   41.0490 H   0  0  0  0  0  0  0  0  0  0  0  0
   50.8510   35.0880   42.2950 H   0  0  0  0  0  0  0  0  0  0  0  0
   49.5520   35.5230   43.5560 H   0  0  0  0  0  0  0  0  0  0  0  0
   49.2120   33.1080   43.3550 H   0  0  0  0  0  0  0  0  0  0  0  0
   46.7140   33.3900   42.4030 C   0  0  0  0  0  0  0  0  0  0  0  0
   46.9510   32.3230   42.6520 H   0  0  0  0  0  0  0  0  0  0  0  0
   45.9540   33.2670   41.5980 H   0  0  0  0  0  0  0  0  0  0  0  0
   44.6060   35.7040   44.5340 C   0  0  0  0  0  0  0  0  0  0  0  0
   45.2610   35.1950   43.3700 C   0  0  0  0  0  0  0  0  0  0  0  0
   46.0190   34.0320   43.4990 C   0  0  0  0  0  0  0  0  0  0  0  0
   46.0840   33.4640   44.7230 N   0  0  0  0  0  0  0  0  0  0  0  0
   45.4450   33.9690   45.8360 C   0  0  0  0  0  0  0  0  0  0  0  0
   44.7140   35.0810   45.7340 N   0  0  0  0  0  0  0  0  0  0  0  0
   44.0160   36.6070   44.4410 H   0  0  0  0  0  0  0  0  0  0  0  0
   45.1860   35.6730   42.4210 H   0  0  0  0  0  0  0  0  0  0  0  0
   45.5580   33.4410   46.7730 H   0  0  0  0  0  0  0  0  0  0  0  0
   49.8300   33.0840   41.3450 O   0  0  0  0  0  0  0  0  0  0  0  0
   49.5080   30.7920   42.6450 O   0  0  0  0  0  0  0  0  0  0  0  0
   50.3270   31.5260   41.6100 P   0  0  2  0  0  0  0  0  0  0  0  0
   51.9230   31.5690   42.1790 O   0  0  0  0  0  0  0  0  0  0  0  0
   52.1910   30.7490   42.6630 H   0  0  0  0  0  0  0  0  0  0  0  0
   50.3740   30.6320   40.1470 O   0  0  0  0  0  0  0  0  0  0  0  0
   51.9790   29.2590   38.9550 C   0  0  2  0  0  3  0  0  0  0  0  0
   51.7220   30.4630   39.8280 C   0  0  1  0  0  3  0  0  0  0  0  0
   52.2840   31.6220   39.3120 O   0  0  0  0  0  0  0  0  0  0  0  0
   51.8540   31.9060   38.0220 C   0  0  0  0  0  2  0  0  0  0  0  0
   52.0490   30.7870   37.0480 C   0  0  1  0  0  3  0  0  0  0  0  0
   51.5700   29.4540   37.5220 C   0  0  1  0  0  3  0  0  0  0  0  0
   51.1470   28.2280   39.4490 O   0  0  0  0  0  0  0  0  0  0  0  0
   50.2310   28.3430   39.0390 H   0  0  0  0  0  0  0  0  0  0  0  0
   51.2800   31.1050   35.9050 O   0  0  0  0  0  0  0  0  0  0  0  0
   51.0740   32.0820   35.8610 H   0  0  0  0  0  0  0  0  0  0  0  0
   52.2800   28.4940   36.7680 O   0  0  0  0  0  0  0  0  0  0  0  0
   52.4040   28.7860   35.8310 H   0  0  0  0  0  0  0  0  0  0  0  0
  1 11  1  0  0  0  0
  1  5  1  0  0  0  0
  2  3  2  0  0  0  0
  2  1  1  0  0  0  0
  3  4  1  0  0  0  0
  4  9  1  0  0  0  0
  5  4  1  0  0  0  0
  5 10  1  1  0  0  0
  6  2  1  0  0  0  0
  7  3  1  0  0  0  0
  8  4  1  0  0  0  0
 11 12  1  0  0  0  0
 11 16  1  0  0  0  0
 13 11  1  0  0  0  0
 14 19  1  0  0  0  0
 15 16  1  0  0  0  0
 15 14  2  0  0  0  0
 16 17  2  0  0  0  0
 17 18  1  0  0  0  0
 18 22  1  0  0  0  0
 19 18  2  0  0  0  0
 20 14  1  0  0  0  0
 21 15  1  0  0  0  0
 23 25  1  0  0  0  0
 23  5  1  0  0  0  0
 25 26  1  0  0  0  0
 25 24  2  1  0  0  0
 26 27  1  0  0  0  0
 28 25  1  0  0  0  0
 29 35  1  1  0  0  0
 29 30  1  0  0  0  0
 30 28  1  6  0  0  0
 31 30  1  0  0  0  0
 32 31  1  0  0  0  0
 33 37  1  6  0  0  0
 33 34  1  0  0  0  0
 33 32  1  0  0  0  0
 34 39  1  6  0  0  0
 34 29  1  0  0  0  0
 36 35  1  0  0  0  0
 38 37  1  0  0  0  0
 40 39  1  0  0  0  0
M  END
>  <minimizedAffinity>
-5.32027674

>  <minimizedRMSD>
1.45711279

$$$$
