
 OpenBabel03252506143D

 39 41  0  0  1  0  0  0  0  0999 V2000
   41.2220   31.8880   40.5970 F   0  0  0  0  0  0  0  0  0  0  0  0
   40.5350   33.0240   40.4360 C   0  0  0  0  0  0  0  0  0  0  0  0
   41.1960   34.1690   40.0240 C   0  0  0  0  0  0  0  0  0  0  0  0
   40.5570   35.3870   39.8320 C   0  0  0  0  0  0  0  0  0  0  0  0
   39.1840   35.4730   40.0620 C   0  0  0  0  0  0  0  0  0  0  0  0
   38.5570   34.3100   40.4730 C   0  0  0  0  0  0  0  0  0  0  0  0
   39.1680   33.1120   40.6650 C   0  0  0  0  0  0  0  0  0  0  0  0
   41.1440   36.2470   39.5060 H   0  0  0  0  0  0  0  0  0  0  0  0
   38.7260   36.4380   39.9010 H   0  0  0  0  0  0  0  0  0  0  0  0
   37.4980   34.5170   40.6060 H   0  0  0  0  0  0  0  0  0  0  0  0
   44.3920   33.9020   38.2400 C   0  0  0  0  0  0  0  0  0  0  0  0
   45.3280   34.0420   39.2990 C   0  0  0  0  0  0  0  0  0  0  0  0
   44.8470   34.2280   40.6210 C   0  0  0  0  0  0  0  0  0  0  0  0
   43.4900   34.2590   40.7850 N   0  0  0  0  0  0  0  0  0  0  0  0
   42.6390   34.1240   39.7670 C   0  0  0  0  0  0  0  0  0  0  0  0
   43.0900   33.9480   38.5130 N   0  0  0  0  0  0  0  0  0  0  0  0
   46.3810   34.0100   39.1150 H   0  0  0  0  0  0  0  0  0  0  0  0
   45.5280   34.3350   41.4380 H   0  0  0  0  0  0  0  0  0  0  0  0
   44.8970   33.7200   36.9390 N   0  0  0  0  0  0  0  0  0  0  0  0
   44.7170   34.3220   36.0820 H   0  0  0  0  0  0  0  0  0  0  0  0
   45.5430   32.9240   36.6600 H   0  0  0  0  0  0  0  0  0  0  0  0
   38.4450   32.0260   41.0740 O   0  0  0  0  0  0  0  0  0  0  0  0
   37.2020   31.7020   38.7570 O   0  0  0  0  0  0  0  0  0  0  0  0
   37.3400   31.1480   40.1570 P   0  0  2  0  0  0  0  0  0  0  0  0
   35.8300   31.1860   40.9580 O   0  0  0  0  0  0  0  0  0  0  0  0
   36.0120   31.2290   41.9240 H   0  0  0  0  0  0  0  0  0  0  0  0
   37.7390   29.5150   40.0490 O   0  0  0  0  0  0  0  0  0  0  0  0
   36.6420   27.8060   41.3480 C   0  0  1  0  0  3  0  0  0  0  0  0
   37.7380   28.8370   41.2320 C   0  0  2  0  0  3  0  0  0  0  0  0
   37.6700   29.6420   42.3590 O   0  0  0  0  0  0  0  0  0  0  0  0
   38.2100   28.8780   43.4090 C   0  0  0  0  0  2  0  0  0  0  0  0
   37.4070   27.6410   43.6800 C   0  0  2  0  0  3  0  0  0  0  0  0
   37.0480   26.8610   42.4610 C   0  0  2  0  0  3  0  0  0  0  0  0
   35.4180   28.3680   41.7440 O   0  0  0  0  0  0  0  0  0  0  0  0
   35.3960   29.2970   41.4040 H   0  0  0  0  0  0  0  0  0  0  0  0
   36.3280   27.9460   44.4750 O   0  0  0  0  0  0  0  0  0  0  0  0
   35.4640   27.8700   44.0400 H   0  0  0  0  0  0  0  0  0  0  0  0
   38.0240   25.9560   42.0510 O   0  0  0  0  0  0  0  0  0  0  0  0
   37.9590   25.1960   42.6820 H   0  0  0  0  0  0  0  0  0  0  0  0
  2  1  1  0  0  0  0
  2  7  1  0  0  0  0
  3  2  2  0  0  0  0
  4  3  1  0  0  0  0
  4  5  2  0  0  0  0
  5  6  1  0  0  0  0
  6 10  1  0  0  0  0
  6  7  2  0  0  0  0
  7 22  1  0  0  0  0
  8  4  1  0  0  0  0
  9  5  1  0  0  0  0
 11 16  2  0  0  0  0
 11 12  1  0  0  0  0
 12 13  2  0  0  0  0
 13 14  1  0  0  0  0
 13 18  1  0  0  0  0
 15  3  1  0  0  0  0
 15 14  2  0  0  0  0
 16 15  1  0  0  0  0
 17 12  1  0  0  0  0
 19 11  1  0  0  0  0
 20 19  1  0  0  0  0
 21 19  1  0  0  0  0
 24 23  2  6  0  0  0
 24 25  1  0  0  0  0
 24 22  1  0  0  0  0
 25 26  1  0  0  0  0
 27 24  1  0  0  0  0
 28 34  1  1  0  0  0
 28 33  1  0  0  0  0
 29 27  1  6  0  0  0
 29 28  1  0  0  0  0
 29 30  1  0  0  0  0
 30 31  1  0  0  0  0
 31 32  1  0  0  0  0
 32 36  1  6  0  0  0
 33 38  1  6  0  0  0
 33 32  1  0  0  0  0
 35 34  1  0  0  0  0
 37 36  1  0  0  0  0
 38 39  1  0  0  0  0
M  END
>  <minimizedAffinity>
-7.44306469

$$$$

 OpenBabel03252506143D

 39 41  0  0  1  0  0  0  0  0999 V2000
   39.9290   28.2650   40.6020 F   0  0  0  0  0  0  0  0  0  0  0  0
   38.9930   28.0290   41.5280 C   0  0  0  0  0  0  0  0  0  0  0  0
   39.3750   27.6250   42.7960 C   0  0  0  0  0  0  0  0  0  0  0  0
   38.4680   27.3600   43.8130 C   0  0  0  0  0  0  0  0  0  0  0  0
   37.1040   27.5070   43.5570 C   0  0  0  0  0  0  0  0  0  0  0  0
   36.7600   27.9120   42.2800 C   0  0  0  0  0  0  0  0  0  0  0  0
   37.6360   28.1740   41.2750 C   0  0  0  0  0  0  0  0  0  0  0  0
   38.8420   27.0450   44.7880 H   0  0  0  0  0  0  0  0  0  0  0  0
   36.4320   27.2910   44.3750 H   0  0  0  0  0  0  0  0  0  0  0  0
   35.6780   27.9920   42.2220 H   0  0  0  0  0  0  0  0  0  0  0  0
   42.6190   26.0420   43.4610 C   0  0  0  0  0  0  0  0  0  0  0  0
   43.4480   27.1700   43.7000 C   0  0  0  0  0  0  0  0  0  0  0  0
   42.8800   28.4680   43.6290 C   0  0  0  0  0  0  0  0  0  0  0  0
   41.5480   28.5430   43.3300 N   0  0  0  0  0  0  0  0  0  0  0  0
   40.7980   27.4620   43.1120 C   0  0  0  0  0  0  0  0  0  0  0  0
   41.3320   26.2300   43.1780 N   0  0  0  0  0  0  0  0  0  0  0  0
   44.4860   27.0550   43.9310 H   0  0  0  0  0  0  0  0  0  0  0  0
   43.4800   29.3360   43.8050 H   0  0  0  0  0  0  0  0  0  0  0  0
   43.2090   24.7670   43.5370 N   0  0  0  0  0  0  0  0  0  0  0  0
   43.2440   24.0210   42.7810 H   0  0  0  0  0  0  0  0  0  0  0  0
   43.7050   24.3940   44.3990 H   0  0  0  0  0  0  0  0  0  0  0  0
   37.1800   28.5690   40.0470 O   0  0  0  0  0  0  0  0  0  0  0  0
   34.6800   29.4240   39.8510 O   0  0  0  0  0  0  0  0  0  0  0  0
   36.1280   29.8420   39.7260 P   0  0  2  0  0  0  0  0  0  0  0  0
   36.4430   30.4110   38.1450 O   0  0  0  0  0  0  0  0  0  0  0  0
   37.4020   30.2770   37.9710 H   0  0  0  0  0  0  0  0  0  0  0  0
   36.3890   31.1700   40.7300 O   0  0  0  0  0  0  0  0  0  0  0  0
   37.3950   33.2010   39.9110 C   0  0  1  0  0  3  0  0  0  0  0  0
   37.5620   31.8320   40.5240 C   0  0  2  0  0  3  0  0  0  0  0  0
   38.4870   31.1430   39.7540 O   0  0  0  0  0  0  0  0  0  0  0  0
   39.7420   31.6800   40.0910 C   0  0  0  0  0  2  0  0  0  0  0  0
   39.8480   33.1340   39.7430 C   0  0  2  0  0  3  0  0  0  0  0  0
   38.6820   33.9570   40.1740 C   0  0  2  0  0  3  0  0  0  0  0  0
   37.2550   33.1490   38.5150 O   0  0  0  0  0  0  0  0  0  0  0  0
   36.8250   32.2850   38.2930 H   0  0  0  0  0  0  0  0  0  0  0  0
   40.1600   33.2780   38.4120 O   0  0  0  0  0  0  0  0  0  0  0  0
   39.4550   33.6590   37.8650 H   0  0  0  0  0  0  0  0  0  0  0  0
   38.7590   34.4200   41.4850 O   0  0  0  0  0  0  0  0  0  0  0  0
   39.4090   35.1670   41.4620 H   0  0  0  0  0  0  0  0  0  0  0  0
  1  2  1  0  0  0  0
  2  3  1  0  0  0  0
  3 15  1  0  0  0  0
  3  4  2  0  0  0  0
  4  8  1  0  0  0  0
  5  4  1  0  0  0  0
  5  9  1  0  0  0  0
  6  5  2  0  0  0  0
  7  2  2  0  0  0  0
  7  6  1  0  0  0  0
 10  6  1  0  0  0  0
 11 19  1  0  0  0  0
 11 12  1  0  0  0  0
 12 17  1  0  0  0  0
 13 12  2  0  0  0  0
 13 18  1  0  0  0  0
 14 13  1  0  0  0  0
 15 16  1  0  0  0  0
 15 14  2  0  0  0  0
 16 11  2  0  0  0  0
 19 21  1  0  0  0  0
 20 19  1  0  0  0  0
 22  7  1  0  0  0  0
 24 23  2  1  0  0  0
 24 22  1  0  0  0  0
 24 27  1  0  0  0  0
 25 24  1  0  0  0  0
 26 25  1  0  0  0  0
 28 34  1  6  0  0  0
 28 33  1  0  0  0  0
 28 29  1  0  0  0  0
 29 27  1  6  0  0  0
 30 31  1  0  0  0  0
 30 29  1  0  0  0  0
 32 36  1  6  0  0  0
 32 31  1  0  0  0  0
 32 33  1  0  0  0  0
 33 38  1  1  0  0  0
 35 34  1  0  0  0  0
 37 36  1  0  0  0  0
 39 38  1  0  0  0  0
M  END
>  <minimizedAffinity>
-7.35724878

$$$$

 OpenBabel03252506143D

 39 41  0  0  1  0  0  0  0  0999 V2000
   40.3750   30.9840   40.7580 F   0  0  0  0  0  0  0  0  0  0  0  0
   39.2610   31.0270   40.0190 C   0  0  0  0  0  0  0  0  0  0  0  0
   39.3510   31.3040   38.6650 C   0  0  0  0  0  0  0  0  0  0  0  0
   38.2440   31.3660   37.8290 C   0  0  0  0  0  0  0  0  0  0  0  0
   36.9770   31.1390   38.3660 C   0  0  0  0  0  0  0  0  0  0  0  0
   36.9260   30.8650   39.7210 C   0  0  0  0  0  0  0  0  0  0  0  0
   37.9990   30.8020   40.5530 C   0  0  0  0  0  0  0  0  0  0  0  0
   38.3920   31.5900   36.7710 H   0  0  0  0  0  0  0  0  0  0  0  0
   36.1440   31.1960   37.6820 H   0  0  0  0  0  0  0  0  0  0  0  0
   35.8890   30.7030   40.0030 H   0  0  0  0  0  0  0  0  0  0  0  0
   42.2250   33.0580   37.2060 C   0  0  0  0  0  0  0  0  0  0  0  0
   43.1080   31.9820   36.9210 C   0  0  0  0  0  0  0  0  0  0  0  0
   42.7030   30.6590   37.2370 C   0  0  0  0  0  0  0  0  0  0  0  0
   41.4670   30.5110   37.8030 N   0  0  0  0  0  0  0  0  0  0  0  0
   40.6630   31.5450   38.0560 C   0  0  0  0  0  0  0  0  0  0  0  0
   41.0420   32.8000   37.7590 N   0  0  0  0  0  0  0  0  0  0  0  0
   44.0640   32.1540   36.4770 H   0  0  0  0  0  0  0  0  0  0  0  0
   43.3450   29.8300   37.0330 H   0  0  0  0  0  0  0  0  0  0  0  0
   42.6530   34.3590   36.8840 N   0  0  0  0  0  0  0  0  0  0  0  0
   42.7530   35.1910   37.5380 H   0  0  0  0  0  0  0  0  0  0  0  0
   42.9350   34.6660   35.9060 H   0  0  0  0  0  0  0  0  0  0  0  0
   37.8280   30.5220   41.8810 O   0  0  0  0  0  0  0  0  0  0  0  0
   37.5200   27.8980   41.6960 O   0  0  0  0  0  0  0  0  0  0  0  0
   37.9560   29.0150   42.6170 P   0  0  2  0  0  0  0  0  0  0  0  0
   36.9920   29.0260   44.0290 O   0  0  0  0  0  0  0  0  0  0  0  0
   36.9990   29.9440   44.3820 H   0  0  0  0  0  0  0  0  0  0  0  0
   39.5190   28.6860   43.1550 O   0  0  0  0  0  0  0  0  0  0  0  0
   39.9630   26.4490   43.9350 C   0  0  1  0  0  3  0  0  0  0  0  0
   40.0030   27.4580   42.8130 C   0  0  2  0  0  3  0  0  0  0  0  0
   41.2950   27.4660   42.3100 O   0  0  0  0  0  0  0  0  0  0  0  0
   41.4150   26.2940   41.5430 C   0  0  0  0  0  2  0  0  0  0  0  0
   41.2540   25.0560   42.3720 C   0  0  2  0  0  3  0  0  0  0  0  0
   40.0820   25.0800   43.2940 C   0  0  2  0  0  3  0  0  0  0  0  0
   41.0590   26.5680   44.8030 O   0  0  0  0  0  0  0  0  0  0  0  0
   41.3370   27.5180   44.8000 H   0  0  0  0  0  0  0  0  0  0  0  0
   42.4390   24.7510   42.9980 O   0  0  0  0  0  0  0  0  0  0  0  0
   42.4330   24.8560   43.9620 H   0  0  0  0  0  0  0  0  0  0  0  0
   38.8860   24.6660   42.7150 O   0  0  0  0  0  0  0  0  0  0  0  0
   38.9500   23.6800   42.6560 H   0  0  0  0  0  0  0  0  0  0  0  0
  2  7  1  0  0  0  0
  2  1  1  0  0  0  0
  3  2  2  0  0  0  0
  4  5  2  0  0  0  0
  4  3  1  0  0  0  0
  5  6  1  0  0  0  0
  6 10  1  0  0  0  0
  6  7  2  0  0  0  0
  7 22  1  0  0  0  0
  8  4  1  0  0  0  0
  9  5  1  0  0  0  0
 11 16  1  0  0  0  0
 12 11  2  0  0  0  0
 12 13  1  0  0  0  0
 13 14  2  0  0  0  0
 14 15  1  0  0  0  0
 15  3  1  0  0  0  0
 16 15  2  0  0  0  0
 17 12  1  0  0  0  0
 18 13  1  0  0  0  0
 19 11  1  0  0  0  0
 19 20  1  0  0  0  0
 21 19  1  0  0  0  0
 22 24  1  0  0  0  0
 24 23  2  6  0  0  0
 24 27  1  0  0  0  0
 24 25  1  0  0  0  0
 25 26  1  0  0  0  0
 28 34  1  1  0  0  0
 29 27  1  1  0  0  0
 29 28  1  0  0  0  0
 30 29  1  0  0  0  0
 31 30  1  0  0  0  0
 31 32  1  0  0  0  0
 32 36  1  1  0  0  0
 32 33  1  0  0  0  0
 33 38  1  6  0  0  0
 33 28  1  0  0  0  0
 35 34  1  0  0  0  0
 36 37  1  0  0  0  0
 39 38  1  0  0  0  0
M  END
>  <minimizedAffinity>
-7.28713512

$$$$

 OpenBabel03252506143D

 39 41  0  0  1  0  0  0  0  0999 V2000
   40.6800   30.6460   41.0410 F   0  0  0  0  0  0  0  0  0  0  0  0
   39.3720   30.8530   40.8530 C   0  0  0  0  0  0  0  0  0  0  0  0
   38.9490   32.0070   40.2160 C   0  0  0  0  0  0  0  0  0  0  0  0
   37.6120   32.2970   39.9820 C   0  0  0  0  0  0  0  0  0  0  0  0
   36.6390   31.3900   40.4040 C   0  0  0  0  0  0  0  0  0  0  0  0
   37.0990   30.2500   41.0380 C   0  0  0  0  0  0  0  0  0  0  0  0
   38.4030   29.9520   41.2740 C   0  0  0  0  0  0  0  0  0  0  0  0
   37.3520   33.2270   39.4730 H   0  0  0  0  0  0  0  0  0  0  0  0
   35.6120   31.6540   40.2030 H   0  0  0  0  0  0  0  0  0  0  0  0
   36.2440   29.6340   41.3050 H   0  0  0  0  0  0  0  0  0  0  0  0
   41.4870   33.6510   38.1360 C   0  0  0  0  0  0  0  0  0  0  0  0
   41.7720   34.8180   38.8940 C   0  0  0  0  0  0  0  0  0  0  0  0
   41.0840   35.0280   40.1170 C   0  0  0  0  0  0  0  0  0  0  0  0
   40.1780   34.0720   40.4870 N   0  0  0  0  0  0  0  0  0  0  0  0
   39.9360   32.9870   39.7500 C   0  0  0  0  0  0  0  0  0  0  0  0
   40.5860   32.7840   38.5910 N   0  0  0  0  0  0  0  0  0  0  0  0
   42.4910   35.5340   38.5590 H   0  0  0  0  0  0  0  0  0  0  0  0
   41.2780   35.8960   40.7090 H   0  0  0  0  0  0  0  0  0  0  0  0
   42.1840   33.4690   36.9270 N   0  0  0  0  0  0  0  0  0  0  0  0
   41.7750   33.3500   35.9530 H   0  0  0  0  0  0  0  0  0  0  0  0
   43.2430   33.4280   36.8530 H   0  0  0  0  0  0  0  0  0  0  0  0
   38.7420   28.7900   41.9120 O   0  0  0  0  0  0  0  0  0  0  0  0
   36.7450   27.1260   42.4170 O   0  0  0  0  0  0  0  0  0  0  0  0
   37.8270   27.9660   43.0570 P   0  0  2  0  0  0  0  0  0  0  0  0
   37.1330   29.1150   44.1160 O   0  0  0  0  0  0  0  0  0  0  0  0
   37.7590   29.8700   44.1800 H   0  0  0  0  0  0  0  0  0  0  0  0
   38.7630   26.9700   44.0420 O   0  0  0  0  0  0  0  0  0  0  0  0
   40.0730   25.4850   42.6690 C   0  0  1  0  0  3  0  0  0  0  0  0
   40.0120   26.6940   43.5700 C   0  0  2  0  0  3  0  0  0  0  0  0
   40.9770   26.5290   44.5510 O   0  0  0  0  0  0  0  0  0  0  0  0
   42.2080   26.7950   43.9260 C   0  0  0  0  0  2  0  0  0  0  0  0
   42.5050   25.8250   42.8220 C   0  0  2  0  0  3  0  0  0  0  0  0
   41.3680   25.5900   41.8870 C   0  0  2  0  0  3  0  0  0  0  0  0
   40.1520   24.2830   43.3890 O   0  0  0  0  0  0  0  0  0  0  0  0
   39.6830   24.4230   44.2490 H   0  0  0  0  0  0  0  0  0  0  0  0
   43.0350   24.6680   43.3430 O   0  0  0  0  0  0  0  0  0  0  0  0
   42.4650   23.8860   43.2710 H   0  0  0  0  0  0  0  0  0  0  0  0
   41.2800   26.5120   40.8470 O   0  0  0  0  0  0  0  0  0  0  0  0
   41.9920   26.2570   40.2090 H   0  0  0  0  0  0  0  0  0  0  0  0
  2  1  1  0  0  0  0
  2  7  1  0  0  0  0
  3  2  2  0  0  0  0
  4  3  1  0  0  0  0
  4  5  2  0  0  0  0
  5  6  1  0  0  0  0
  6  7  2  0  0  0  0
  6 10  1  0  0  0  0
  7 22  1  0  0  0  0
  8  4  1  0  0  0  0
  9  5  1  0  0  0  0
 11 16  2  0  0  0  0
 11 12  1  0  0  0  0
 12 13  2  0  0  0  0
 13 14  1  0  0  0  0
 13 18  1  0  0  0  0
 15  3  1  0  0  0  0
 15 14  2  0  0  0  0
 16 15  1  0  0  0  0
 17 12  1  0  0  0  0
 19 11  1  0  0  0  0
 20 19  1  0  0  0  0
 21 19  1  0  0  0  0
 22 24  1  0  0  0  0
 24 23  2  6  0  0  0
 24 27  1  0  0  0  0
 24 25  1  0  0  0  0
 25 26  1  0  0  0  0
 28 34  1  1  0  0  0
 28 29  1  0  0  0  0
 29 27  1  1  0  0  0
 29 30  1  0  0  0  0
 31 30  1  0  0  0  0
 32 36  1  1  0  0  0
 32 31  1  0  0  0  0
 33 38  1  6  0  0  0
 33 28  1  0  0  0  0
 33 32  1  0  0  0  0
 34 35  1  0  0  0  0
 37 36  1  0  0  0  0
 39 38  1  0  0  0  0
M  END
>  <minimizedAffinity>
-7.15976381

$$$$

 OpenBabel03252506143D

 39 41  0  0  1  0  0  0  0  0999 V2000
   38.9670   30.2370   40.9340 F   0  0  0  0  0  0  0  0  0  0  0  0
   38.2250   30.2030   39.8220 C   0  0  0  0  0  0  0  0  0  0  0  0
   37.3470   29.1520   39.6200 C   0  0  0  0  0  0  0  0  0  0  0  0
   36.5420   29.0420   38.4940 C   0  0  0  0  0  0  0  0  0  0  0  0
   36.6120   30.0320   37.5130 C   0  0  0  0  0  0  0  0  0  0  0  0
   37.5000   31.0660   37.7500 C   0  0  0  0  0  0  0  0  0  0  0  0
   38.2940   31.1870   38.8450 C   0  0  0  0  0  0  0  0  0  0  0  0
   35.8730   28.1840   38.4020 H   0  0  0  0  0  0  0  0  0  0  0  0
   35.9690   29.9090   36.6550 H   0  0  0  0  0  0  0  0  0  0  0  0
   37.4470   31.7640   36.9170 H   0  0  0  0  0  0  0  0  0  0  0  0
   36.6340   27.4350   42.7840 C   0  0  0  0  0  0  0  0  0  0  0  0
   37.0370   26.1050   42.4900 C   0  0  0  0  0  0  0  0  0  0  0  0
   37.5510   25.8120   41.2000 C   0  0  0  0  0  0  0  0  0  0  0  0
   37.6250   26.8520   40.3150 N   0  0  0  0  0  0  0  0  0  0  0  0
   37.2370   28.0900   40.6250 C   0  0  0  0  0  0  0  0  0  0  0  0
   36.7490   28.3720   41.8460 N   0  0  0  0  0  0  0  0  0  0  0  0
   36.9590   25.3290   43.2200 H   0  0  0  0  0  0  0  0  0  0  0  0
   37.8630   24.8210   40.9510 H   0  0  0  0  0  0  0  0  0  0  0  0
   36.1270   27.6970   44.0700 N   0  0  0  0  0  0  0  0  0  0  0  0
   35.1770   28.0990   44.3250 H   0  0  0  0  0  0  0  0  0  0  0  0
   36.6640   27.5130   44.9680 H   0  0  0  0  0  0  0  0  0  0  0  0
   39.1370   32.2570   38.9720 O   0  0  0  0  0  0  0  0  0  0  0  0
   38.9130   33.3140   41.3900 O   0  0  0  0  0  0  0  0  0  0  0  0
   38.8880   33.6300   39.9110 P   0  0  2  0  0  0  0  0  0  0  0  0
   37.3790   34.3070   39.4790 O   0  0  0  0  0  0  0  0  0  0  0  0
   37.2350   34.1160   38.5250 H   0  0  0  0  0  0  0  0  0  0  0  0
   40.0180   34.8410   39.6040 O   0  0  0  0  0  0  0  0  0  0  0  0
   42.2320   34.1800   40.2890 C   0  0  1  0  0  3  0  0  0  0  0  0
   41.2370   34.4030   39.1770 C   0  0  2  0  0  3  0  0  0  0  0  0
   41.8450   35.2170   38.2330 O   0  0  0  0  0  0  0  0  0  0  0  0
   42.7500   34.3930   37.5430 C   0  0  0  0  0  2  0  0  0  0  0  0
   43.8210   33.8510   38.4400 C   0  0  2  0  0  3  0  0  0  0  0  0
   43.3210   33.2870   39.7260 C   0  0  2  0  0  3  0  0  0  0  0  0
   42.8700   35.3670   40.6830 O   0  0  0  0  0  0  0  0  0  0  0  0
   42.2350   36.1100   40.5250 H   0  0  0  0  0  0  0  0  0  0  0  0
   44.8170   34.7860   38.6000 O   0  0  0  0  0  0  0  0  0  0  0  0
   44.8860   35.1630   39.4920 H   0  0  0  0  0  0  0  0  0  0  0  0
   42.9210   31.9560   39.6520 O   0  0  0  0  0  0  0  0  0  0  0  0
   43.7590   31.4300   39.6290 H   0  0  0  0  0  0  0  0  0  0  0  0
  2  1  1  0  0  0  0
  3  2  1  0  0  0  0
  3 15  1  0  0  0  0
  4  3  2  0  0  0  0
  5  6  2  0  0  0  0
  5  4  1  0  0  0  0
  6  7  1  0  0  0  0
  7 22  1  0  0  0  0
  7  2  2  0  0  0  0
  8  4  1  0  0  0  0
  9  5  1  0  0  0  0
 10  6  1  0  0  0  0
 11 19  1  0  0  0  0
 12 11  1  0  0  0  0
 12 17  1  0  0  0  0
 13 12  2  0  0  0  0
 14 15  2  0  0  0  0
 14 13  1  0  0  0  0
 15 16  1  0  0  0  0
 16 11  2  0  0  0  0
 18 13  1  0  0  0  0
 19 20  1  0  0  0  0
 19 21  1  0  0  0  0
 22 24  1  0  0  0  0
 24 23  2  1  0  0  0
 25 24  1  0  0  0  0
 26 25  1  0  0  0  0
 27 24  1  0  0  0  0
 28 34  1  6  0  0  0
 29 27  1  1  0  0  0
 29 28  1  0  0  0  0
 30 29  1  0  0  0  0
 31 30  1  0  0  0  0
 31 32  1  0  0  0  0
 32 36  1  1  0  0  0
 32 33  1  0  0  0  0
 33 38  1  6  0  0  0
 33 28  1  0  0  0  0
 35 34  1  0  0  0  0
 36 37  1  0  0  0  0
 39 38  1  0  0  0  0
M  END
>  <minimizedAffinity>
-6.89176464

$$$$

 OpenBabel03252506143D

 39 41  0  0  1  0  0  0  0  0999 V2000
   37.2880   27.8290   39.4820 F   0  0  0  0  0  0  0  0  0  0  0  0
   37.3890   29.1280   39.7830 C   0  0  0  0  0  0  0  0  0  0  0  0
   36.8720   30.0720   38.9120 C   0  0  0  0  0  0  0  0  0  0  0  0
   36.9350   31.4380   39.1500 C   0  0  0  0  0  0  0  0  0  0  0  0
   37.5460   31.8930   40.3190 C   0  0  0  0  0  0  0  0  0  0  0  0
   38.0510   30.9220   41.1650 C   0  0  0  0  0  0  0  0  0  0  0  0
   37.9970   29.5820   40.9460 C   0  0  0  0  0  0  0  0  0  0  0  0
   36.5060   32.1240   38.4180 H   0  0  0  0  0  0  0  0  0  0  0  0
   37.5740   32.9630   40.4660 H   0  0  0  0  0  0  0  0  0  0  0  0
   38.4880   31.4110   42.0320 H   0  0  0  0  0  0  0  0  0  0  0  0
   36.3620   29.1990   35.3840 C   0  0  0  0  0  0  0  0  0  0  0  0
   34.9900   28.8340   35.3710 C   0  0  0  0  0  0  0  0  0  0  0  0
   34.2520   28.8910   36.5820 C   0  0  0  0  0  0  0  0  0  0  0  0
   34.9270   29.3030   37.6970 N   0  0  0  0  0  0  0  0  0  0  0  0
   36.2180   29.6400   37.6730 C   0  0  0  0  0  0  0  0  0  0  0  0
   36.9210   29.5870   36.5280 N   0  0  0  0  0  0  0  0  0  0  0  0
   34.5090   28.5180   34.4700 H   0  0  0  0  0  0  0  0  0  0  0  0
   33.2180   28.6220   36.6020 H   0  0  0  0  0  0  0  0  0  0  0  0
   37.0700   29.1320   34.1700 N   0  0  0  0  0  0  0  0  0  0  0  0
   37.9450   28.5680   33.9580 H   0  0  0  0  0  0  0  0  0  0  0  0
   36.7920   29.6630   33.2920 H   0  0  0  0  0  0  0  0  0  0  0  0
   38.5320   28.7120   41.8550 O   0  0  0  0  0  0  0  0  0  0  0  0
   36.6730   26.9730   42.5890 O   0  0  0  0  0  0  0  0  0  0  0  0
   37.7170   27.9360   43.1060 P   0  0  2  0  0  0  0  0  0  0  0  0
   36.9850   29.1290   44.0880 O   0  0  0  0  0  0  0  0  0  0  0  0
   37.5600   29.9260   44.0590 H   0  0  0  0  0  0  0  0  0  0  0  0
   38.7550   27.0970   44.1350 O   0  0  0  0  0  0  0  0  0  0  0  0
   39.8860   25.3880   42.8670 C   0  0  1  0  0  3  0  0  0  0  0  0
   39.9410   26.7170   43.5800 C   0  0  2  0  0  3  0  0  0  0  0  0
   41.0050   26.6680   44.4670 O   0  0  0  0  0  0  0  0  0  0  0  0
   42.1640   26.8020   43.6830 C   0  0  0  0  0  2  0  0  0  0  0  0
   42.3250   25.6720   42.7110 C   0  0  2  0  0  3  0  0  0  0  0  0
   41.0900   25.3370   41.9460 C   0  0  2  0  0  3  0  0  0  0  0  0
   40.0260   24.3020   43.7460 O   0  0  0  0  0  0  0  0  0  0  0  0
   39.6550   24.5810   44.6200 H   0  0  0  0  0  0  0  0  0  0  0  0
   42.8920   24.5890   43.3400 O   0  0  0  0  0  0  0  0  0  0  0  0
   42.3060   23.8230   43.4450 H   0  0  0  0  0  0  0  0  0  0  0  0
   40.9020   26.1000   40.7960 O   0  0  0  0  0  0  0  0  0  0  0  0
   41.5380   25.7330   40.1310 H   0  0  0  0  0  0  0  0  0  0  0  0
  1  2  1  0  0  0  0
  2  7  1  0  0  0  0
  3  4  1  0  0  0  0
  3  2  2  0  0  0  0
  4  5  2  0  0  0  0
  5  9  1  0  0  0  0
  5  6  1  0  0  0  0
  6 10  1  0  0  0  0
  7  6  2  0  0  0  0
  7 22  1  0  0  0  0
  8  4  1  0  0  0  0
 11 16  1  0  0  0  0
 12 11  2  0  0  0  0
 12 13  1  0  0  0  0
 13 18  1  0  0  0  0
 13 14  2  0  0  0  0
 15 14  1  0  0  0  0
 15  3  1  0  0  0  0
 16 15  2  0  0  0  0
 17 12  1  0  0  0  0
 19 11  1  0  0  0  0
 20 19  1  0  0  0  0
 21 19  1  0  0  0  0
 22 24  1  0  0  0  0
 24 23  2  6  0  0  0
 24 25  1  0  0  0  0
 24 27  1  0  0  0  0
 26 25  1  0  0  0  0
 28 29  1  0  0  0  0
 28 34  1  1  0  0  0
 29 27  1  1  0  0  0
 29 30  1  0  0  0  0
 31 30  1  0  0  0  0
 32 36  1  1  0  0  0
 32 31  1  0  0  0  0
 33 38  1  6  0  0  0
 33 32  1  0  0  0  0
 33 28  1  0  0  0  0
 34 35  1  0  0  0  0
 36 37  1  0  0  0  0
 39 38  1  0  0  0  0
M  END
>  <minimizedAffinity>
-6.80072975

$$$$

 OpenBabel03252506143D

 39 41  0  0  1  0  0  0  0  0999 V2000
   39.6570   28.5110   39.7700 F   0  0  0  0  0  0  0  0  0  0  0  0
   38.4000   28.9020   40.0040 C   0  0  0  0  0  0  0  0  0  0  0  0
   37.6290   28.2050   40.9190 C   0  0  0  0  0  0  0  0  0  0  0  0
   36.3170   28.5460   41.2200 C   0  0  0  0  0  0  0  0  0  0  0  0
   35.7380   29.6400   40.5770 C   0  0  0  0  0  0  0  0  0  0  0  0
   36.5380   30.3110   39.6690 C   0  0  0  0  0  0  0  0  0  0  0  0
   37.8220   29.9900   39.3640 C   0  0  0  0  0  0  0  0  0  0  0  0
   35.7700   27.9500   41.9530 H   0  0  0  0  0  0  0  0  0  0  0  0
   34.7160   29.8710   40.8390 H   0  0  0  0  0  0  0  0  0  0  0  0
   35.9690   31.1380   39.2510 H   0  0  0  0  0  0  0  0  0  0  0  0
   39.5680   26.2210   43.3220 C   0  0  0  0  0  0  0  0  0  0  0  0
   39.2500   24.8940   42.9260 C   0  0  0  0  0  0  0  0  0  0  0  0
   38.3670   24.6970   41.8320 C   0  0  0  0  0  0  0  0  0  0  0  0
   37.8770   25.8190   41.2250 N   0  0  0  0  0  0  0  0  0  0  0  0
   38.1970   27.0510   41.6230 C   0  0  0  0  0  0  0  0  0  0  0  0
   39.0330   27.2430   42.6580 N   0  0  0  0  0  0  0  0  0  0  0  0
   39.6620   24.0500   43.4360 H   0  0  0  0  0  0  0  0  0  0  0  0
   38.1100   23.7100   41.5120 H   0  0  0  0  0  0  0  0  0  0  0  0
   40.4440   26.3870   44.4100 N   0  0  0  0  0  0  0  0  0  0  0  0
   40.2610   26.9090   45.3180 H   0  0  0  0  0  0  0  0  0  0  0  0
   41.4300   25.9920   44.4430 H   0  0  0  0  0  0  0  0  0  0  0  0
   38.5190   30.7270   38.4470 O   0  0  0  0  0  0  0  0  0  0  0  0
   40.4750   31.7330   39.9230 O   0  0  0  0  0  0  0  0  0  0  0  0
   39.5450   32.0220   38.7660 P   0  0  2  0  0  0  0  0  0  0  0  0
   38.5850   33.3940   39.1100 O   0  0  0  0  0  0  0  0  0  0  0  0
   37.7570   33.3110   38.5850 H   0  0  0  0  0  0  0  0  0  0  0  0
   40.4730   32.4600   37.4300 O   0  0  0  0  0  0  0  0  0  0  0  0
   42.4320   33.8250   37.7570 C   0  0  1  0  0  3  0  0  0  0  0  0
   41.8220   32.4510   37.6320 C   0  0  2  0  0  3  0  0  0  0  0  0
   42.5450   31.7630   36.6700 O   0  0  0  0  0  0  0  0  0  0  0  0
   43.7550   31.4000   37.2880 C   0  0  0  0  0  2  0  0  0  0  0  0
   44.5610   32.5940   37.7000 C   0  0  2  0  0  3  0  0  0  0  0  0
   43.7840   33.6430   38.4200 C   0  0  2  0  0  3  0  0  0  0  0  0
   42.6890   34.4140   36.5090 O   0  0  0  0  0  0  0  0  0  0  0  0
   42.0170   34.0620   35.8730 H   0  0  0  0  0  0  0  0  0  0  0  0
   45.2700   33.0770   36.6260 O   0  0  0  0  0  0  0  0  0  0  0  0
   44.9820   33.9440   36.3000 H   0  0  0  0  0  0  0  0  0  0  0  0
   43.6710   33.4350   39.7920 O   0  0  0  0  0  0  0  0  0  0  0  0
   44.5520   33.6830   40.1690 H   0  0  0  0  0  0  0  0  0  0  0  0
  1  2  1  0  0  0  0
  2  3  1  0  0  0  0
  3  4  2  0  0  0  0
  3 15  1  0  0  0  0
  4  8  1  0  0  0  0
  5  9  1  0  0  0  0
  5  4  1  0  0  0  0
  6  5  2  0  0  0  0
  7  6  1  0  0  0  0
  7  2  2  0  0  0  0
 10  6  1  0  0  0  0
 11 19  1  0  0  0  0
 12 11  1  0  0  0  0
 12 17  1  0  0  0  0
 13 12  2  0  0  0  0
 14 15  2  0  0  0  0
 14 13  1  0  0  0  0
 15 16  1  0  0  0  0
 16 11  2  0  0  0  0
 18 13  1  0  0  0  0
 19 21  1  0  0  0  0
 19 20  1  0  0  0  0
 22 24  1  0  0  0  0
 22  7  1  0  0  0  0
 24 25  1  0  0  0  0
 24 23  2  1  0  0  0
 26 25  1  0  0  0  0
 27 24  1  0  0  0  0
 28 34  1  6  0  0  0
 28 33  1  0  0  0  0
 29 27  1  6  0  0  0
 29 28  1  0  0  0  0
 30 31  1  0  0  0  0
 30 29  1  0  0  0  0
 31 32  1  0  0  0  0
 32 36  1  6  0  0  0
 32 33  1  0  0  0  0
 33 38  1  1  0  0  0
 35 34  1  0  0  0  0
 37 36  1  0  0  0  0
 38 39  1  0  0  0  0
M  END
>  <minimizedAffinity>
-6.78876066

$$$$

 OpenBabel03252506143D

 39 41  0  0  1  0  0  0  0  0999 V2000
   40.9390   31.4130   43.3620 F   0  0  0  0  0  0  0  0  0  0  0  0
   41.8180   30.7960   42.5660 C   0  0  0  0  0  0  0  0  0  0  0  0
   41.6260   29.4640   42.2400 C   0  0  0  0  0  0  0  0  0  0  0  0
   42.4900   28.7510   41.4210 C   0  0  0  0  0  0  0  0  0  0  0  0
   43.6090   29.3970   40.8940 C   0  0  0  0  0  0  0  0  0  0  0  0
   43.7690   30.7260   41.2410 C   0  0  0  0  0  0  0  0  0  0  0  0
   42.9330   31.4370   42.0420 C   0  0  0  0  0  0  0  0  0  0  0  0
   42.2750   27.7020   41.2080 H   0  0  0  0  0  0  0  0  0  0  0  0
   44.2560   28.8070   40.2620 H   0  0  0  0  0  0  0  0  0  0  0  0
   44.6680   31.1040   40.7600 H   0  0  0  0  0  0  0  0  0  0  0  0
   38.1600   28.6810   43.1610 C   0  0  0  0  0  0  0  0  0  0  0  0
   38.3000   27.3980   43.7540 C   0  0  0  0  0  0  0  0  0  0  0  0
   39.5910   26.8130   43.8300 C   0  0  0  0  0  0  0  0  0  0  0  0
   40.6290   27.5420   43.3180 N   0  0  0  0  0  0  0  0  0  0  0  0
   40.4610   28.7450   42.7680 C   0  0  0  0  0  0  0  0  0  0  0  0
   39.2410   29.3030   42.6930 N   0  0  0  0  0  0  0  0  0  0  0  0
   37.4540   26.8710   44.1390 H   0  0  0  0  0  0  0  0  0  0  0  0
   39.7270   25.8500   44.2710 H   0  0  0  0  0  0  0  0  0  0  0  0
   36.8690   29.2360   43.0970 N   0  0  0  0  0  0  0  0  0  0  0  0
   36.3390   29.5520   42.2320 H   0  0  0  0  0  0  0  0  0  0  0  0
   36.2550   29.4080   43.9470 H   0  0  0  0  0  0  0  0  0  0  0  0
   43.1910   32.7520   42.3170 O   0  0  0  0  0  0  0  0  0  0  0  0
   44.4180   34.5330   40.7890 O   0  0  0  0  0  0  0  0  0  0  0  0
   43.0630   34.0480   41.2530 P   0  0  2  0  0  0  0  0  0  0  0  0
   42.2250   35.3100   42.0450 O   0  0  0  0  0  0  0  0  0  0  0  0
   41.5890   34.8930   42.6690 H   0  0  0  0  0  0  0  0  0  0  0  0
   42.1310   33.6850   39.8970 O   0  0  0  0  0  0  0  0  0  0  0  0
   40.0330   32.6250   39.3670 C   0  0  1  0  0  3  0  0  0  0  0  0
   40.7830   33.7140   40.0950 C   0  0  2  0  0  3  0  0  0  0  0  0
   40.1770   34.9190   39.7740 O   0  0  0  0  0  0  0  0  0  0  0  0
   38.9820   34.9570   40.5130 C   0  0  0  0  0  2  0  0  0  0  0  0
   38.0430   33.8550   40.1280 C   0  0  2  0  0  3  0  0  0  0  0  0
   38.6770   32.5080   40.0360 C   0  0  2  0  0  3  0  0  0  0  0  0
   39.7770   32.9540   38.0270 O   0  0  0  0  0  0  0  0  0  0  0  0
   40.5100   33.5460   37.7230 H   0  0  0  0  0  0  0  0  0  0  0  0
   37.3400   34.2090   39.0010 O   0  0  0  0  0  0  0  0  0  0  0  0
   37.5550   33.6960   38.2050 H   0  0  0  0  0  0  0  0  0  0  0  0
   38.7460   31.8220   41.2450 O   0  0  0  0  0  0  0  0  0  0  0  0
   37.8280   31.4910   41.4120 H   0  0  0  0  0  0  0  0  0  0  0  0
  2  1  1  0  0  0  0
  3  2  1  0  0  0  0
  3 15  1  0  0  0  0
  4  3  2  0  0  0  0
  5  6  2  0  0  0  0
  5  4  1  0  0  0  0
  6  7  1  0  0  0  0
  7 22  1  0  0  0  0
  7  2  2  0  0  0  0
  8  4  1  0  0  0  0
  9  5  1  0  0  0  0
 10  6  1  0  0  0  0
 11 12  1  0  0  0  0
 12 13  2  0  0  0  0
 12 17  1  0  0  0  0
 13 18  1  0  0  0  0
 14 13  1  0  0  0  0
 15 14  2  0  0  0  0
 16 15  1  0  0  0  0
 16 11  2  0  0  0  0
 19 11  1  0  0  0  0
 19 21  1  0  0  0  0
 20 19  1  0  0  0  0
 24 23  2  6  0  0  0
 24 25  1  0  0  0  0
 24 22  1  0  0  0  0
 25 26  1  0  0  0  0
 27 24  1  0  0  0  0
 28 34  1  6  0  0  0
 28 33  1  0  0  0  0
 28 29  1  0  0  0  0
 29 27  1  6  0  0  0
 30 29  1  0  0  0  0
 30 31  1  0  0  0  0
 32 36  1  6  0  0  0
 32 31  1  0  0  0  0
 33 32  1  0  0  0  0
 33 38  1  1  0  0  0
 35 34  1  0  0  0  0
 37 36  1  0  0  0  0
 38 39  1  0  0  0  0
M  END
>  <minimizedAffinity>
-6.57088184

$$$$

 OpenBabel03252506143D

 39 41  0  0  1  0  0  0  0  0999 V2000
   37.9820   28.2650   39.7710 F   0  0  0  0  0  0  0  0  0  0  0  0
   37.7020   28.0530   41.0610 C   0  0  0  0  0  0  0  0  0  0  0  0
   37.8410   29.0900   41.9680 C   0  0  0  0  0  0  0  0  0  0  0  0
   37.5700   28.9540   43.3230 C   0  0  0  0  0  0  0  0  0  0  0  0
   37.1360   27.7180   43.8050 C   0  0  0  0  0  0  0  0  0  0  0  0
   37.0090   26.7070   42.8700 C   0  0  0  0  0  0  0  0  0  0  0  0
   37.2700   26.8240   41.5430 C   0  0  0  0  0  0  0  0  0  0  0  0
   37.7040   29.8150   43.9790 H   0  0  0  0  0  0  0  0  0  0  0  0
   36.9370   27.6550   44.8640 H   0  0  0  0  0  0  0  0  0  0  0  0
   36.6590   25.8100   43.3770 H   0  0  0  0  0  0  0  0  0  0  0  0
   37.7890   32.4490   40.4920 C   0  0  0  0  0  0  0  0  0  0  0  0
   39.1410   32.8570   40.6500 C   0  0  0  0  0  0  0  0  0  0  0  0
   40.0590   31.9670   41.2660 C   0  0  0  0  0  0  0  0  0  0  0  0
   39.5680   30.7570   41.6710 N   0  0  0  0  0  0  0  0  0  0  0  0
   38.2910   30.4070   41.5060 C   0  0  0  0  0  0  0  0  0  0  0  0
   37.4180   31.2460   40.9230 N   0  0  0  0  0  0  0  0  0  0  0  0
   39.4730   33.8160   40.3150 H   0  0  0  0  0  0  0  0  0  0  0  0
   41.0820   32.2460   41.3980 H   0  0  0  0  0  0  0  0  0  0  0  0
   36.9000   33.3510   39.8790 N   0  0  0  0  0  0  0  0  0  0  0  0
   35.9990   33.7490   40.2790 H   0  0  0  0  0  0  0  0  0  0  0  0
   37.0400   33.7510   38.9040 H   0  0  0  0  0  0  0  0  0  0  0  0
   37.1080   25.7520   40.7090 O   0  0  0  0  0  0  0  0  0  0  0  0
   37.6960   23.4840   39.4730 O   0  0  0  0  0  0  0  0  0  0  0  0
   38.0890   24.3880   40.6190 P   0  0  2  0  0  0  0  0  0  0  0  0
   37.9710   23.5450   42.1020 O   0  0  0  0  0  0  0  0  0  0  0  0
   37.8190   24.2130   42.8080 H   0  0  0  0  0  0  0  0  0  0  0  0
   39.7220   24.7720   40.4620 O   0  0  0  0  0  0  0  0  0  0  0  0
   41.6450   25.9840   41.2640 C   0  0  1  0  0  3  0  0  0  0  0  0
   40.2740   25.4130   41.5320 C   0  0  2  0  0  3  0  0  0  0  0  0
   40.3620   24.6440   42.6820 O   0  0  0  0  0  0  0  0  0  0  0  0
   40.4210   25.5580   43.7490 C   0  0  0  0  0  2  0  0  0  0  0  0
   41.6400   26.4280   43.6840 C   0  0  2  0  0  3  0  0  0  0  0  0
   41.9030   27.0200   42.3410 C   0  0  2  0  0  3  0  0  0  0  0  0
   42.6610   25.0240   41.3980 O   0  0  0  0  0  0  0  0  0  0  0  0
   42.2700   24.1460   41.1620 H   0  0  0  0  0  0  0  0  0  0  0  0
   42.7210   25.7620   44.2120 O   0  0  0  0  0  0  0  0  0  0  0  0
   43.4080   25.5210   43.5700 H   0  0  0  0  0  0  0  0  0  0  0  0
   41.2250   28.2110   42.0960 O   0  0  0  0  0  0  0  0  0  0  0  0
   41.7140   28.9020   42.6100 H   0  0  0  0  0  0  0  0  0  0  0  0
  1  2  1  0  0  0  0
  2  7  2  0  0  0  0
  2  3  1  0  0  0  0
  3  4  2  0  0  0  0
  4  5  1  0  0  0  0
  4  8  1  0  0  0  0
  5  9  1  0  0  0  0
  6 10  1  0  0  0  0
  6  5  2  0  0  0  0
  7  6  1  0  0  0  0
 11 12  2  0  0  0  0
 11 16  1  0  0  0  0
 12 13  1  0  0  0  0
 13 18  1  0  0  0  0
 13 14  2  0  0  0  0
 15 14  1  0  0  0  0
 15  3  1  0  0  0  0
 16 15  2  0  0  0  0
 17 12  1  0  0  0  0
 19 20  1  0  0  0  0
 19 11  1  0  0  0  0
 21 19  1  0  0  0  0
 22  7  1  0  0  0  0
 24 23  2  6  0  0  0
 24 22  1  0  0  0  0
 24 25  1  0  0  0  0
 25 26  1  0  0  0  0
 27 24  1  0  0  0  0
 28 34  1  1  0  0  0
 28 29  1  0  0  0  0
 28 33  1  0  0  0  0
 29 27  1  6  0  0  0
 29 30  1  0  0  0  0
 30 31  1  0  0  0  0
 32 31  1  0  0  0  0
 32 36  1  6  0  0  0
 33 38  1  6  0  0  0
 33 32  1  0  0  0  0
 35 34  1  0  0  0  0
 37 36  1  0  0  0  0
 38 39  1  0  0  0  0
M  END
>  <minimizedAffinity>
-6.52509165

$$$$
