
 OpenBabel03252508483D

 48 50  0  0  1  0  0  0  0  0999 V2000
   36.4730   28.6460   41.8600 N   0  0  0  0  0  0  0  0  0  0  0  0
   36.9130   28.8290   42.8030 H   0  0  0  0  0  0  0  0  0  0  0  0
   37.2000   27.5920   41.2310 C   0  0  0  0  0  0  0  0  0  0  0  0
   36.5420   26.8260   40.7530 H   0  0  0  0  0  0  0  0  0  0  0  0
   37.7920   28.0640   40.4000 H   0  0  0  0  0  0  0  0  0  0  0  0
   38.4330   25.5460   41.9600 C   0  0  0  0  0  0  0  0  0  0  0  0
   38.1760   26.8940   42.1110 C   0  0  0  0  0  0  0  0  0  0  0  0
   38.8510   27.5830   43.1040 C   0  0  0  0  0  0  0  0  0  0  0  0
   39.7470   26.9370   43.9090 C   0  0  0  0  0  0  0  0  0  0  0  0
   40.0110   25.5950   43.7680 C   0  0  0  0  0  0  0  0  0  0  0  0
   39.3180   24.9450   42.7680 C   0  0  0  0  0  0  0  0  0  0  0  0
   38.6480   28.6490   43.2230 H   0  0  0  0  0  0  0  0  0  0  0  0
   40.2300   27.5500   44.6600 H   0  0  0  0  0  0  0  0  0  0  0  0
   40.7270   25.0950   44.4180 H   0  0  0  0  0  0  0  0  0  0  0  0
   39.4800   23.8800   42.6030 H   0  0  0  0  0  0  0  0  0  0  0  0
   35.8810   23.5770   39.9880 C   0  0  0  0  0  0  0  0  0  0  0  0
   36.5090   24.1920   41.0850 C   0  0  0  0  0  0  0  0  0  0  0  0
   37.6930   24.8700   40.8980 C   0  0  0  0  0  0  0  0  0  0  0  0
   38.1980   24.9030   39.6310 N   0  0  0  0  0  0  0  0  0  0  0  0
   37.5830   24.3070   38.5810 C   0  0  0  0  0  0  0  0  0  0  0  0
   36.4300   23.6500   38.7750 N   0  0  0  0  0  0  0  0  0  0  0  0
   34.9380   23.0480   40.1880 H   0  0  0  0  0  0  0  0  0  0  0  0
   36.1250   24.1750   42.0870 H   0  0  0  0  0  0  0  0  0  0  0  0
   38.0300   24.3650   37.5870 H   0  0  0  0  0  0  0  0  0  0  0  0
   36.6120   30.1380   41.0210 S   0  0  0  0  0  0  0  0  0  0  0  0
   35.5860   31.1230   41.5050 O   0  0  0  0  0  0  0  0  0  0  0  0
   34.8830   31.4490   40.9160 H   0  0  0  0  0  0  0  0  0  0  0  0
   36.5040   29.9390   39.5440 O   0  0  0  0  0  0  0  0  0  0  0  0
   35.6860   29.5800   39.1460 H   0  0  0  0  0  0  0  0  0  0  0  0
   38.1420   30.7390   41.3670 O   0  0  0  0  0  0  0  0  0  0  0  0
   38.4050   31.8000   40.5030 C   0  0  0  0  0  0  0  0  0  0  0  0
   38.0110   32.7030   41.0140 H   0  0  0  0  0  0  0  0  0  0  0  0
   37.9330   31.7010   39.5180 H   0  0  0  0  0  0  0  0  0  0  0  0
   39.9140   31.9720   40.4010 C   0  0  0  0  0  0  0  0  0  0  0  0
   40.2840   32.3870   41.3500 H   0  0  0  0  0  0  0  0  0  0  0  0
   40.3970   30.9890   40.1720 H   0  0  0  0  0  0  0  0  0  0  0  0
   40.7950   32.1620   38.0750 C   0  0  2  0  0  3  0  0  0  0  0  0
   40.1820   32.8810   39.2240 C   0  0  2  0  0  3  0  0  0  0  0  0
   40.9510   33.9330   39.7120 O   0  0  0  0  0  0  0  0  0  0  0  0
   41.5190   34.7170   38.7380 C   0  0  0  0  0  2  0  0  0  0  0  0
   42.5420   33.9590   37.9290 C   0  0  1  0  0  3  0  0  0  0  0  0
   42.2380   32.5050   37.8050 C   0  0  2  0  0  3  0  0  0  0  0  0
   40.0570   32.3900   36.8850 O   0  0  0  0  0  0  0  0  0  0  0  0
   39.1670   32.7400   37.0860 H   0  0  0  0  0  0  0  0  0  0  0  0
   42.7110   34.5130   36.6600 O   0  0  0  0  0  0  0  0  0  0  0  0
   43.2380   33.8620   36.1310 H   0  0  0  0  0  0  0  0  0  0  0  0
   42.4730   32.0870   36.4750 O   0  0  0  0  0  0  0  0  0  0  0  0
   42.1520   31.1290   36.4700 H   0  0  0  0  0  0  0  0  0  0  0  0
  1  2  1  0  0  0  0
  3  1  1  0  0  0  0
  3  7  1  0  0  0  0
  4  3  1  0  0  0  0
  5  3  1  0  0  0  0
  6  7  2  0  0  0  0
  6 11  1  0  0  0  0
  7  8  1  0  0  0  0
  8 12  1  0  0  0  0
  8  9  2  0  0  0  0
  9 13  1  0  0  0  0
 10  9  1  0  0  0  0
 10 14  1  0  0  0  0
 11 10  2  0  0  0  0
 15 11  1  0  0  0  0
 16 22  1  0  0  0  0
 16 17  1  0  0  0  0
 17 23  1  0  0  0  0
 18 17  2  0  0  0  0
 18  6  1  0  0  0  0
 19 18  1  0  0  0  0
 20 21  1  0  0  0  0
 20 19  2  0  0  0  0
 21 16  2  0  0  0  0
 24 20  1  0  0  0  0
 25 30  1  0  0  0  0
 25 26  1  0  0  0  0
 25  1  1  0  0  0  0
 27 26  1  0  0  0  0
 28 25  1  0  0  0  0
 29 28  1  0  0  0  0
 31 32  1  0  0  0  0
 31 30  1  0  0  0  0
 33 31  1  0  0  0  0
 34 31  1  0  0  0  0
 34 35  1  0  0  0  0
 36 34  1  0  0  0  0
 37 43  1  6  0  0  0
 37 38  1  0  0  0  0
 38 39  1  0  0  0  0
 38 34  1  1  0  0  0
 40 39  1  0  0  0  0
 41 45  1  6  0  0  0
 41 40  1  0  0  0  0
 42 47  1  6  0  0  0
 42 41  1  0  0  0  0
 42 37  1  0  0  0  0
 43 44  1  0  0  0  0
 46 45  1  0  0  0  0
 48 47  1  0  0  0  0
M  END
>  <minimizedAffinity>
-7.25154686

$$$$

 OpenBabel03252508483D

 48 50  0  0  1  0  0  0  0  0999 V2000
   35.7240   30.8400   41.0790 N   0  0  0  0  0  0  0  0  0  0  0  0
   36.0350   30.5510   42.0470 H   0  0  0  0  0  0  0  0  0  0  0  0
   35.3520   29.6620   40.3650 C   0  0  0  0  0  0  0  0  0  0  0  0
   34.2520   29.4720   40.3690 H   0  0  0  0  0  0  0  0  0  0  0  0
   35.6390   29.8360   39.2920 H   0  0  0  0  0  0  0  0  0  0  0  0
   36.4440   27.4690   39.8820 C   0  0  0  0  0  0  0  0  0  0  0  0
   36.0500   28.4220   40.8000 C   0  0  0  0  0  0  0  0  0  0  0  0
   36.3200   28.1940   42.1380 C   0  0  0  0  0  0  0  0  0  0  0  0
   36.9600   27.0520   42.5320 C   0  0  0  0  0  0  0  0  0  0  0  0
   37.3580   26.0960   41.6260 C   0  0  0  0  0  0  0  0  0  0  0  0
   37.0700   26.3620   40.3030 C   0  0  0  0  0  0  0  0  0  0  0  0
   36.0070   28.9470   42.8640 H   0  0  0  0  0  0  0  0  0  0  0  0
   37.1300   26.9530   43.5970 H   0  0  0  0  0  0  0  0  0  0  0  0
   37.8660   25.1920   41.9560 H   0  0  0  0  0  0  0  0  0  0  0  0
   37.3580   25.6450   39.5350 H   0  0  0  0  0  0  0  0  0  0  0  0
   34.7650   27.7470   36.5080 C   0  0  0  0  0  0  0  0  0  0  0  0
   34.9570   27.4140   37.8600 C   0  0  0  0  0  0  0  0  0  0  0  0
   36.1350   27.7610   38.4860 C   0  0  0  0  0  0  0  0  0  0  0  0
   37.0650   28.4210   37.7370 N   0  0  0  0  0  0  0  0  0  0  0  0
   36.8680   28.7370   36.4330 C   0  0  0  0  0  0  0  0  0  0  0  0
   35.7180   28.3940   35.8360 N   0  0  0  0  0  0  0  0  0  0  0  0
   33.8090   27.4480   36.0540 H   0  0  0  0  0  0  0  0  0  0  0  0
   34.2350   26.8950   38.4620 H   0  0  0  0  0  0  0  0  0  0  0  0
   37.6460   29.2660   35.8810 H   0  0  0  0  0  0  0  0  0  0  0  0
   37.0940   31.6220   40.4000 S   0  0  0  0  0  0  0  0  0  0  0  0
   36.9280   33.1150   40.4290 O   0  0  0  0  0  0  0  0  0  0  0  0
   36.8700   33.6310   39.6060 H   0  0  0  0  0  0  0  0  0  0  0  0
   37.3550   31.1410   39.0090 O   0  0  0  0  0  0  0  0  0  0  0  0
   36.6960   31.2780   38.3000 H   0  0  0  0  0  0  0  0  0  0  0  0
   38.4060   31.2050   41.3630 O   0  0  0  0  0  0  0  0  0  0  0  0
   39.3610   32.2160   41.2680 C   0  0  0  0  0  0  0  0  0  0  0  0
   39.7490   32.3540   42.2990 H   0  0  0  0  0  0  0  0  0  0  0  0
   38.9670   33.1680   40.8930 H   0  0  0  0  0  0  0  0  0  0  0  0
   40.5190   31.7030   40.4250 C   0  0  0  0  0  0  0  0  0  0  0  0
   41.4280   31.6990   41.0440 H   0  0  0  0  0  0  0  0  0  0  0  0
   40.2880   30.6780   40.0380 H   0  0  0  0  0  0  0  0  0  0  0  0
   41.3120   31.9560   38.0730 C   0  0  2  0  0  3  0  0  0  0  0  0
   40.6360   32.6120   39.2240 C   0  0  2  0  0  3  0  0  0  0  0  0
   41.2670   33.7690   39.6710 O   0  0  0  0  0  0  0  0  0  0  0  0
   41.7010   34.6000   38.6680 C   0  0  0  0  0  2  0  0  0  0  0  0
   42.7990   33.9670   37.8470 C   0  0  1  0  0  3  0  0  0  0  0  0
   42.6900   32.4830   37.7600 C   0  0  2  0  0  3  0  0  0  0  0  0
   40.5240   32.0560   36.8990 O   0  0  0  0  0  0  0  0  0  0  0  0
   39.5990   32.2880   37.1160 H   0  0  0  0  0  0  0  0  0  0  0  0
   42.8620   34.5100   36.5640 O   0  0  0  0  0  0  0  0  0  0  0  0
   43.4590   33.9240   36.0340 H   0  0  0  0  0  0  0  0  0  0  0  0
   42.9480   32.0710   36.4320 O   0  0  0  0  0  0  0  0  0  0  0  0
   42.7590   31.0780   36.4550 H   0  0  0  0  0  0  0  0  0  0  0  0
  1  2  1  0  0  0  0
  3  4  1  0  0  0  0
  3  7  1  0  0  0  0
  3  1  1  0  0  0  0
  5  3  1  0  0  0  0
  6 11  2  0  0  0  0
  6  7  1  0  0  0  0
  7  8  2  0  0  0  0
  8  9  1  0  0  0  0
  8 12  1  0  0  0  0
  9 13  1  0  0  0  0
 10 14  1  0  0  0  0
 10  9  2  0  0  0  0
 11 10  1  0  0  0  0
 15 11  1  0  0  0  0
 16 17  1  0  0  0  0
 17 23  1  0  0  0  0
 17 18  2  0  0  0  0
 18  6  1  0  0  0  0
 19 18  1  0  0  0  0
 20 19  2  0  0  0  0
 21 20  1  0  0  0  0
 21 16  2  0  0  0  0
 22 16  1  0  0  0  0
 24 20  1  0  0  0  0
 25 26  1  0  0  0  0
 25  1  1  0  0  0  0
 25 30  1  0  0  0  0
 27 26  1  0  0  0  0
 28 25  1  0  0  0  0
 29 28  1  0  0  0  0
 31 30  1  0  0  0  0
 31 32  1  0  0  0  0
 33 31  1  0  0  0  0
 34 35  1  0  0  0  0
 34 31  1  0  0  0  0
 36 34  1  0  0  0  0
 37 43  1  6  0  0  0
 37 38  1  0  0  0  0
 38 39  1  0  0  0  0
 38 34  1  1  0  0  0
 40 39  1  0  0  0  0
 41 45  1  6  0  0  0
 41 40  1  0  0  0  0
 42 47  1  6  0  0  0
 42 41  1  0  0  0  0
 42 37  1  0  0  0  0
 43 44  1  0  0  0  0
 46 45  1  0  0  0  0
 47 48  1  0  0  0  0
M  END
>  <minimizedAffinity>
-7.11963177

$$$$

 OpenBabel03252508483D

 48 50  0  0  1  0  0  0  0  0999 V2000
   36.6440   28.9310   42.4470 N   0  0  0  0  0  0  0  0  0  0  0  0
   37.6590   29.2220   42.4840 H   0  0  0  0  0  0  0  0  0  0  0  0
   36.5960   27.5080   42.3600 C   0  0  0  0  0  0  0  0  0  0  0  0
   35.7750   27.0560   42.9660 H   0  0  0  0  0  0  0  0  0  0  0  0
   36.3680   27.2620   41.2860 H   0  0  0  0  0  0  0  0  0  0  0  0
   38.2710   25.6900   42.0090 C   0  0  0  0  0  0  0  0  0  0  0  0
   37.8710   26.8180   42.6970 C   0  0  0  0  0  0  0  0  0  0  0  0
   38.6850   27.2920   43.7100 C   0  0  0  0  0  0  0  0  0  0  0  0
   39.8540   26.6540   44.0150 C   0  0  0  0  0  0  0  0  0  0  0  0
   40.2640   25.5290   43.3370 C   0  0  0  0  0  0  0  0  0  0  0  0
   39.4240   25.0890   42.3360 C   0  0  0  0  0  0  0  0  0  0  0  0
   38.3680   28.1840   44.2530 H   0  0  0  0  0  0  0  0  0  0  0  0
   40.4310   27.0900   44.8220 H   0  0  0  0  0  0  0  0  0  0  0  0
   41.1980   25.0320   43.5930 H   0  0  0  0  0  0  0  0  0  0  0  0
   39.6890   24.2030   41.7590 H   0  0  0  0  0  0  0  0  0  0  0  0
   35.7470   23.7690   39.9540 C   0  0  0  0  0  0  0  0  0  0  0  0
   36.5750   24.1150   41.0370 C   0  0  0  0  0  0  0  0  0  0  0  0
   37.3740   25.2340   40.9510 C   0  0  0  0  0  0  0  0  0  0  0  0
   37.3130   25.9550   39.7950 N   0  0  0  0  0  0  0  0  0  0  0  0
   36.5100   25.6110   38.7580 C   0  0  0  0  0  0  0  0  0  0  0  0
   35.7370   24.5200   38.8530 N   0  0  0  0  0  0  0  0  0  0  0  0
   35.1290   22.8670   40.0710 H   0  0  0  0  0  0  0  0  0  0  0  0
   36.6340   23.5580   41.9530 H   0  0  0  0  0  0  0  0  0  0  0  0
   36.5000   26.2240   37.8550 H   0  0  0  0  0  0  0  0  0  0  0  0
   36.0240   29.7030   41.0440 S   0  0  0  0  0  0  0  0  0  0  0  0
   35.7440   31.1540   41.3100 O   0  0  0  0  0  0  0  0  0  0  0  0
   34.8380   31.5080   41.2750 H   0  0  0  0  0  0  0  0  0  0  0  0
   34.7990   29.0070   40.5430 O   0  0  0  0  0  0  0  0  0  0  0  0
   33.9930   28.9540   41.0940 H   0  0  0  0  0  0  0  0  0  0  0  0
   37.2190   29.5880   39.8690 O   0  0  0  0  0  0  0  0  0  0  0  0
   36.7470   30.1830   38.7000 C   0  0  0  0  0  0  0  0  0  0  0  0
   36.2070   31.0950   39.0290 H   0  0  0  0  0  0  0  0  0  0  0  0
   36.0710   29.5450   38.1170 H   0  0  0  0  0  0  0  0  0  0  0  0
   37.9440   30.6470   37.8830 C   0  0  0  0  0  0  0  0  0  0  0  0
   38.7800   29.9550   38.0620 H   0  0  0  0  0  0  0  0  0  0  0  0
   37.6760   30.6870   36.7980 H   0  0  0  0  0  0  0  0  0  0  0  0
   39.4930   32.1490   39.1350 C   0  0  2  0  0  3  0  0  0  0  0  0
   38.2570   32.0620   38.3130 C   0  0  2  0  0  3  0  0  0  0  0  0
   37.1150   32.5360   38.9510 O   0  0  0  0  0  0  0  0  0  0  0  0
   37.3000   33.7060   39.6460 C   0  0  0  0  0  2  0  0  0  0  0  0
   38.2350   33.5240   40.8170 C   0  0  1  0  0  3  0  0  0  0  0  0
   39.2690   32.4750   40.5900 C   0  0  2  0  0  3  0  0  0  0  0  0
   40.3890   33.1100   38.6000 O   0  0  0  0  0  0  0  0  0  0  0  0
   40.1560   33.3310   37.6770 H   0  0  0  0  0  0  0  0  0  0  0  0
   38.8520   34.7220   41.1770 O   0  0  0  0  0  0  0  0  0  0  0  0
   39.5790   34.4910   41.8080 H   0  0  0  0  0  0  0  0  0  0  0  0
   40.5200   32.9390   41.0600 O   0  0  0  0  0  0  0  0  0  0  0  0
   41.1600   32.2100   40.7780 H   0  0  0  0  0  0  0  0  0  0  0  0
  1  2  1  0  0  0  0
  3  1  1  0  0  0  0
  3  7  1  0  0  0  0
  3  4  1  0  0  0  0
  5  3  1  0  0  0  0
  6 11  2  0  0  0  0
  6  7  1  0  0  0  0
  7  8  2  0  0  0  0
  8  9  1  0  0  0  0
  8 12  1  0  0  0  0
  9 13  1  0  0  0  0
 10 14  1  0  0  0  0
 10  9  2  0  0  0  0
 11 10  1  0  0  0  0
 15 11  1  0  0  0  0
 16 22  1  0  0  0  0
 16 17  1  0  0  0  0
 17 23  1  0  0  0  0
 18 17  2  0  0  0  0
 18  6  1  0  0  0  0
 19 18  1  0  0  0  0
 20 21  1  0  0  0  0
 20 19  2  0  0  0  0
 21 16  2  0  0  0  0
 24 20  1  0  0  0  0
 25 26  1  0  0  0  0
 25  1  1  0  0  0  0
 27 26  1  0  0  0  0
 28 25  1  0  0  0  0
 28 29  1  0  0  0  0
 30 25  1  0  0  0  0
 31 32  1  0  0  0  0
 31 30  1  0  0  0  0
 33 31  1  0  0  0  0
 34 35  1  0  0  0  0
 34 31  1  0  0  0  0
 36 34  1  0  0  0  0
 37 43  1  6  0  0  0
 37 42  1  0  0  0  0
 38 34  1  1  0  0  0
 38 39  1  0  0  0  0
 38 37  1  0  0  0  0
 39 40  1  0  0  0  0
 40 41  1  0  0  0  0
 41 45  1  6  0  0  0
 42 41  1  0  0  0  0
 42 47  1  6  0  0  0
 44 43  1  0  0  0  0
 45 46  1  0  0  0  0
 48 47  1  0  0  0  0
M  END
>  <minimizedAffinity>
-7.03396225

$$$$

 OpenBabel03252508483D

 48 50  0  0  1  0  0  0  0  0999 V2000
   38.2690   31.3080   40.5720 N   0  0  0  0  0  0  0  0  0  0  0  0
   38.7510   30.6730   39.8780 H   0  0  0  0  0  0  0  0  0  0  0  0
   36.9380   30.8310   40.7570 C   0  0  0  0  0  0  0  0  0  0  0  0
   36.7390   30.4680   41.7940 H   0  0  0  0  0  0  0  0  0  0  0  0
   36.2580   31.7110   40.5940 H   0  0  0  0  0  0  0  0  0  0  0  0
   36.6630   28.4380   40.0960 C   0  0  0  0  0  0  0  0  0  0  0  0
   36.5130   29.7770   39.7960 C   0  0  0  0  0  0  0  0  0  0  0  0
   35.9550   30.1170   38.5760 C   0  0  0  0  0  0  0  0  0  0  0  0
   35.5670   29.1450   37.6960 C   0  0  0  0  0  0  0  0  0  0  0  0
   35.7110   27.8080   37.9850 C   0  0  0  0  0  0  0  0  0  0  0  0
   36.2710   27.5120   39.2100 C   0  0  0  0  0  0  0  0  0  0  0  0
   35.8370   31.1750   38.3380 H   0  0  0  0  0  0  0  0  0  0  0  0
   35.1410   29.4970   36.7650 H   0  0  0  0  0  0  0  0  0  0  0  0
   35.3970   27.0460   37.2740 H   0  0  0  0  0  0  0  0  0  0  0  0
   36.4140   26.4720   39.5010 H   0  0  0  0  0  0  0  0  0  0  0  0
   37.2110   27.6200   43.7450 C   0  0  0  0  0  0  0  0  0  0  0  0
   36.5340   27.9010   42.5450 C   0  0  0  0  0  0  0  0  0  0  0  0
   37.2560   28.1380   41.3960 C   0  0  0  0  0  0  0  0  0  0  0  0
   38.6160   28.0860   41.4950 N   0  0  0  0  0  0  0  0  0  0  0  0
   39.2570   27.8140   42.6580 C   0  0  0  0  0  0  0  0  0  0  0  0
   38.5440   27.5850   43.7690 N   0  0  0  0  0  0  0  0  0  0  0  0
   36.5900   27.4380   44.6340 H   0  0  0  0  0  0  0  0  0  0  0  0
   35.4650   27.9450   42.4510 H   0  0  0  0  0  0  0  0  0  0  0  0
   40.3480   27.7850   42.6800 H   0  0  0  0  0  0  0  0  0  0  0  0
   38.3210   32.8630   39.8440 S   0  0  0  0  0  0  0  0  0  0  0  0
   36.9810   33.5370   39.9220 O   0  0  0  0  0  0  0  0  0  0  0  0
   36.4740   33.7450   39.1180 H   0  0  0  0  0  0  0  0  0  0  0  0
   38.7940   32.7800   38.4280 O   0  0  0  0  0  0  0  0  0  0  0  0
   38.2850   32.2810   37.7590 H   0  0  0  0  0  0  0  0  0  0  0  0
   39.4320   33.7640   40.7240 O   0  0  0  0  0  0  0  0  0  0  0  0
   40.5570   32.9740   40.9550 C   0  0  0  0  0  0  0  0  0  0  0  0
   40.6830   32.3630   40.0370 H   0  0  0  0  0  0  0  0  0  0  0  0
   40.4670   32.3140   41.8260 H   0  0  0  0  0  0  0  0  0  0  0  0
   41.7710   33.8870   41.0500 C   0  0  0  0  0  0  0  0  0  0  0  0
   41.4430   34.9240   40.8840 H   0  0  0  0  0  0  0  0  0  0  0  0
   42.2610   33.7720   42.0490 H   0  0  0  0  0  0  0  0  0  0  0  0
   42.7660   34.2690   38.7940 C   0  0  2  0  0  3  0  0  0  0  0  0
   42.7660   33.4170   40.0130 C   0  0  2  0  0  3  0  0  0  0  0  0
   42.4730   32.0780   39.7720 O   0  0  0  0  0  0  0  0  0  0  0  0
   43.0950   31.5550   38.6660 C   0  0  0  0  0  2  0  0  0  0  0  0
   42.6080   32.1940   37.3890 C   0  0  1  0  0  3  0  0  0  0  0  0
   42.1940   33.6170   37.5610 C   0  0  2  0  0  3  0  0  0  0  0  0
   44.0770   34.7160   38.4900 O   0  0  0  0  0  0  0  0  0  0  0  0
   44.6710   34.6100   39.2600 H   0  0  0  0  0  0  0  0  0  0  0  0
   43.5570   32.1010   36.3690 O   0  0  0  0  0  0  0  0  0  0  0  0
   43.2540   32.7010   35.6420 H   0  0  0  0  0  0  0  0  0  0  0  0
   42.6860   34.3830   36.4790 O   0  0  0  0  0  0  0  0  0  0  0  0
   42.4400   35.3290   36.7320 H   0  0  0  0  0  0  0  0  0  0  0  0
  1  3  1  0  0  0  0
  2  1  1  0  0  0  0
  3  4  1  0  0  0  0
  5  3  1  0  0  0  0
  6 18  1  0  0  0  0
  7  6  1  0  0  0  0
  7  3  1  0  0  0  0
  8  7  2  0  0  0  0
  9 10  2  0  0  0  0
  9  8  1  0  0  0  0
 10 11  1  0  0  0  0
 11 15  1  0  0  0  0
 11  6  2  0  0  0  0
 12  8  1  0  0  0  0
 13  9  1  0  0  0  0
 14 10  1  0  0  0  0
 16 21  1  0  0  0  0
 16 22  1  0  0  0  0
 17 16  2  0  0  0  0
 18 19  2  0  0  0  0
 18 17  1  0  0  0  0
 19 20  1  0  0  0  0
 20 24  1  0  0  0  0
 20 21  2  0  0  0  0
 23 17  1  0  0  0  0
 25 26  1  0  0  0  0
 25  1  1  0  0  0  0
 25 30  1  0  0  0  0
 27 26  1  0  0  0  0
 28 25  1  0  0  0  0
 29 28  1  0  0  0  0
 30 31  1  0  0  0  0
 31 34  1  0  0  0  0
 31 33  1  0  0  0  0
 32 31  1  0  0  0  0
 34 36  1  0  0  0  0
 35 34  1  0  0  0  0
 37 43  1  6  0  0  0
 37 38  1  0  0  0  0
 38 34  1  1  0  0  0
 39 38  1  0  0  0  0
 40 39  1  0  0  0  0
 41 45  1  6  0  0  0
 41 42  1  0  0  0  0
 41 40  1  0  0  0  0
 42 47  1  6  0  0  0
 42 37  1  0  0  0  0
 43 44  1  0  0  0  0
 46 45  1  0  0  0  0
 47 48  1  0  0  0  0
M  END
>  <minimizedAffinity>
-6.67422724

$$$$

 OpenBabel03252508483D

 48 50  0  0  1  0  0  0  0  0999 V2000
   37.6900   28.1550   38.7690 N   0  0  0  0  0  0  0  0  0  0  0  0
   37.8870   27.5580   37.9190 H   0  0  0  0  0  0  0  0  0  0  0  0
   36.5110   27.6540   39.3960 C   0  0  0  0  0  0  0  0  0  0  0  0
   36.2050   28.2420   40.2950 H   0  0  0  0  0  0  0  0  0  0  0  0
   35.6790   27.7670   38.6470 H   0  0  0  0  0  0  0  0  0  0  0  0
   37.0410   25.8120   40.9960 C   0  0  0  0  0  0  0  0  0  0  0  0
   36.5630   26.2140   39.7660 C   0  0  0  0  0  0  0  0  0  0  0  0
   36.1310   25.2410   38.8810 C   0  0  0  0  0  0  0  0  0  0  0  0
   36.1810   23.9190   39.2250 C   0  0  0  0  0  0  0  0  0  0  0  0
   36.6560   23.5080   40.4490 C   0  0  0  0  0  0  0  0  0  0  0  0
   37.0760   24.5080   41.3010 C   0  0  0  0  0  0  0  0  0  0  0  0
   35.7530   25.5580   37.9080 H   0  0  0  0  0  0  0  0  0  0  0  0
   35.8250   23.2240   38.4750 H   0  0  0  0  0  0  0  0  0  0  0  0
   36.6890   22.4510   40.7080 H   0  0  0  0  0  0  0  0  0  0  0  0
   37.4630   24.2500   42.2860 H   0  0  0  0  0  0  0  0  0  0  0  0
   37.2540   28.4230   43.7200 C   0  0  0  0  0  0  0  0  0  0  0  0
   36.7270   27.3940   42.9210 C   0  0  0  0  0  0  0  0  0  0  0  0
   37.4820   26.8800   41.8890 C   0  0  0  0  0  0  0  0  0  0  0  0
   38.7230   27.4150   41.7010 N   0  0  0  0  0  0  0  0  0  0  0  0
   39.2200   28.4080   42.4780 C   0  0  0  0  0  0  0  0  0  0  0  0
   38.4760   28.9000   43.4800 N   0  0  0  0  0  0  0  0  0  0  0  0
   36.6130   28.8000   44.5310 H   0  0  0  0  0  0  0  0  0  0  0  0
   35.7540   26.9620   43.0570 H   0  0  0  0  0  0  0  0  0  0  0  0
   40.2190   28.8000   42.2830 H   0  0  0  0  0  0  0  0  0  0  0  0
   37.4870   29.7420   38.1450 S   0  0  0  0  0  0  0  0  0  0  0  0
   36.0510   29.9960   37.7840 O   0  0  0  0  0  0  0  0  0  0  0  0
   35.7840   30.1560   36.8620 H   0  0  0  0  0  0  0  0  0  0  0  0
   38.3820   29.9790   36.9710 O   0  0  0  0  0  0  0  0  0  0  0  0
   38.2880   29.4480   36.1550 H   0  0  0  0  0  0  0  0  0  0  0  0
   37.9310   30.7980   39.3740 O   0  0  0  0  0  0  0  0  0  0  0  0
   39.2940   30.6410   39.6180 C   0  0  0  0  0  0  0  0  0  0  0  0
   39.7640   30.5410   38.6180 H   0  0  0  0  0  0  0  0  0  0  0  0
   39.5400   29.7650   40.2300 H   0  0  0  0  0  0  0  0  0  0  0  0
   39.8220   31.9320   40.2280 C   0  0  0  0  0  0  0  0  0  0  0  0
   39.0530   32.3410   40.9000 H   0  0  0  0  0  0  0  0  0  0  0  0
   40.7770   31.7350   40.7770 H   0  0  0  0  0  0  0  0  0  0  0  0
   40.8410   32.1710   37.9640 C   0  0  2  0  0  3  0  0  0  0  0  0
   40.1530   32.8640   39.0850 C   0  0  2  0  0  3  0  0  0  0  0  0
   40.8800   33.9140   39.6370 O   0  0  0  0  0  0  0  0  0  0  0  0
   41.4980   34.7200   38.7140 C   0  0  0  0  0  2  0  0  0  0  0  0
   42.5770   33.9850   37.9560 C   0  0  1  0  0  3  0  0  0  0  0  0
   42.2960   32.5310   37.7890 C   0  0  2  0  0  3  0  0  0  0  0  0
   40.1760   32.4120   36.7350 O   0  0  0  0  0  0  0  0  0  0  0  0
   39.2710   32.7510   36.8870 H   0  0  0  0  0  0  0  0  0  0  0  0
   42.8180   34.5630   36.7090 O   0  0  0  0  0  0  0  0  0  0  0  0
   43.3820   33.9260   36.2030 H   0  0  0  0  0  0  0  0  0  0  0  0
   42.6150   32.1390   36.4690 O   0  0  0  0  0  0  0  0  0  0  0  0
   42.3050   31.1780   36.4290 H   0  0  0  0  0  0  0  0  0  0  0  0
  1  3  1  0  0  0  0
  2  1  1  0  0  0  0
  3  7  1  0  0  0  0
  3  4  1  0  0  0  0
  5  3  1  0  0  0  0
  6 11  1  0  0  0  0
  6 18  1  0  0  0  0
  7  6  2  0  0  0  0
  8  9  2  0  0  0  0
  8  7  1  0  0  0  0
  9 10  1  0  0  0  0
 10 14  1  0  0  0  0
 10 11  2  0  0  0  0
 11 15  1  0  0  0  0
 12  8  1  0  0  0  0
 13  9  1  0  0  0  0
 16 22  1  0  0  0  0
 17 23  1  0  0  0  0
 17 16  2  0  0  0  0
 18 17  1  0  0  0  0
 19 18  2  0  0  0  0
 19 20  1  0  0  0  0
 20 21  2  0  0  0  0
 21 16  1  0  0  0  0
 24 20  1  0  0  0  0
 25  1  1  0  0  0  0
 25 30  1  0  0  0  0
 26 25  1  0  0  0  0
 27 26  1  0  0  0  0
 28 25  1  0  0  0  0
 29 28  1  0  0  0  0
 30 31  1  0  0  0  0
 31 34  1  0  0  0  0
 31 33  1  0  0  0  0
 32 31  1  0  0  0  0
 34 36  1  0  0  0  0
 34 35  1  0  0  0  0
 37 43  1  6  0  0  0
 37 38  1  0  0  0  0
 38 39  1  0  0  0  0
 38 34  1  1  0  0  0
 40 39  1  0  0  0  0
 41 45  1  6  0  0  0
 41 40  1  0  0  0  0
 42 47  1  6  0  0  0
 42 41  1  0  0  0  0
 42 37  1  0  0  0  0
 43 44  1  0  0  0  0
 46 45  1  0  0  0  0
 48 47  1  0  0  0  0
M  END
>  <minimizedAffinity>
-6.63386726

$$$$

 OpenBabel03252508483D

 48 50  0  0  1  0  0  0  0  0999 V2000
   37.4240   29.7090   42.9000 N   0  0  0  0  0  0  0  0  0  0  0  0
   38.2150   30.4050   42.8160 H   0  0  0  0  0  0  0  0  0  0  0  0
   37.9940   28.4100   43.0520 C   0  0  0  0  0  0  0  0  0  0  0  0
   37.9870   28.0450   44.1070 H   0  0  0  0  0  0  0  0  0  0  0  0
   37.3410   27.7050   42.4690 H   0  0  0  0  0  0  0  0  0  0  0  0
   39.7030   27.2130   41.6800 C   0  0  0  0  0  0  0  0  0  0  0  0
   39.3730   28.2650   42.5090 C   0  0  0  0  0  0  0  0  0  0  0  0
   40.3570   29.1850   42.8260 C   0  0  0  0  0  0  0  0  0  0  0  0
   41.6210   29.0460   42.3250 C   0  0  0  0  0  0  0  0  0  0  0  0
   41.9620   28.0020   41.4970 C   0  0  0  0  0  0  0  0  0  0  0  0
   40.9520   27.1080   41.2070 C   0  0  0  0  0  0  0  0  0  0  0  0
   40.0960   30.0170   43.4820 H   0  0  0  0  0  0  0  0  0  0  0  0
   42.3310   29.8090   42.6230 H   0  0  0  0  0  0  0  0  0  0  0  0
   42.9740   27.9050   41.1070 H   0  0  0  0  0  0  0  0  0  0  0  0
   41.1550   26.2570   40.5570 H   0  0  0  0  0  0  0  0  0  0  0  0
   36.8350   25.3620   40.0560 C   0  0  0  0  0  0  0  0  0  0  0  0
   37.8470   26.3200   40.2430 C   0  0  0  0  0  0  0  0  0  0  0  0
   38.6260   26.2740   41.3790 C   0  0  0  0  0  0  0  0  0  0  0  0
   38.3600   25.2800   42.2750 N   0  0  0  0  0  0  0  0  0  0  0  0
   37.3810   24.3610   42.0830 C   0  0  0  0  0  0  0  0  0  0  0  0
   36.6310   24.4160   40.9740 N   0  0  0  0  0  0  0  0  0  0  0  0
   36.2420   25.4410   39.1340 H   0  0  0  0  0  0  0  0  0  0  0  0
   38.0680   27.1070   39.5480 H   0  0  0  0  0  0  0  0  0  0  0  0
   37.2120   23.5870   42.8330 H   0  0  0  0  0  0  0  0  0  0  0  0
   36.5410   29.8780   41.4370 S   0  0  0  0  0  0  0  0  0  0  0  0
   35.8030   31.1860   41.4040 O   0  0  0  0  0  0  0  0  0  0  0  0
   34.8300   31.2160   41.3910 H   0  0  0  0  0  0  0  0  0  0  0  0
   35.6030   28.7310   41.2370 O   0  0  0  0  0  0  0  0  0  0  0  0
   34.8770   28.5620   41.8710 H   0  0  0  0  0  0  0  0  0  0  0  0
   37.6710   29.8630   40.1940 O   0  0  0  0  0  0  0  0  0  0  0  0
   37.9170   31.1790   39.8060 C   0  0  0  0  0  0  0  0  0  0  0  0
   37.3630   31.8100   40.5320 H   0  0  0  0  0  0  0  0  0  0  0  0
   37.5850   31.4130   38.7870 H   0  0  0  0  0  0  0  0  0  0  0  0
   39.3970   31.4690   40.0080 C   0  0  0  0  0  0  0  0  0  0  0  0
   39.5520   31.7930   41.0480 H   0  0  0  0  0  0  0  0  0  0  0  0
   40.0020   30.5580   39.7730 H   0  0  0  0  0  0  0  0  0  0  0  0
   40.4910   31.9640   37.8210 C   0  0  2  0  0  3  0  0  0  0  0  0
   39.7870   32.5290   39.0030 C   0  0  2  0  0  3  0  0  0  0  0  0
   40.5240   33.4780   39.7040 O   0  0  0  0  0  0  0  0  0  0  0  0
   41.1920   34.3760   38.9090 C   0  0  0  0  0  2  0  0  0  0  0  0
   42.2730   33.7120   38.0920 C   0  0  1  0  0  3  0  0  0  0  0  0
   41.9580   32.2990   37.7330 C   0  0  2  0  0  3  0  0  0  0  0  0
   39.8690   32.3800   36.6160 O   0  0  0  0  0  0  0  0  0  0  0  0
   38.9690   32.7240   36.7860 H   0  0  0  0  0  0  0  0  0  0  0  0
   42.5660   34.4370   36.9360 O   0  0  0  0  0  0  0  0  0  0  0  0
   43.1280   33.8520   36.3680 H   0  0  0  0  0  0  0  0  0  0  0  0
   42.3070   32.0700   36.3810 O   0  0  0  0  0  0  0  0  0  0  0  0
   41.9720   31.1320   36.2100 H   0  0  0  0  0  0  0  0  0  0  0  0
  1  3  1  0  0  0  0
  2  1  1  0  0  0  0
  3  4  1  0  0  0  0
  5  3  1  0  0  0  0
  6  7  1  0  0  0  0
  7  8  2  0  0  0  0
  7  3  1  0  0  0  0
  8 12  1  0  0  0  0
  9 13  1  0  0  0  0
  9  8  1  0  0  0  0
 10  9  2  0  0  0  0
 11 10  1  0  0  0  0
 11  6  2  0  0  0  0
 14 10  1  0  0  0  0
 15 11  1  0  0  0  0
 16 17  2  0  0  0  0
 16 21  1  0  0  0  0
 17 18  1  0  0  0  0
 18  6  1  0  0  0  0
 18 19  2  0  0  0  0
 20 19  1  0  0  0  0
 20 24  1  0  0  0  0
 21 20  2  0  0  0  0
 22 16  1  0  0  0  0
 23 17  1  0  0  0  0
 25  1  1  0  0  0  0
 26 25  1  0  0  0  0
 27 26  1  0  0  0  0
 28 25  1  0  0  0  0
 28 29  1  0  0  0  0
 30 25  1  0  0  0  0
 31 34  1  0  0  0  0
 31 30  1  0  0  0  0
 31 32  1  0  0  0  0
 33 31  1  0  0  0  0
 34 35  1  0  0  0  0
 36 34  1  0  0  0  0
 37 43  1  6  0  0  0
 37 38  1  0  0  0  0
 38 39  1  0  0  0  0
 38 34  1  1  0  0  0
 40 39  1  0  0  0  0
 41 45  1  6  0  0  0
 41 40  1  0  0  0  0
 42 47  1  6  0  0  0
 42 37  1  0  0  0  0
 42 41  1  0  0  0  0
 43 44  1  0  0  0  0
 46 45  1  0  0  0  0
 48 47  1  0  0  0  0
M  END
>  <minimizedAffinity>
-6.62995291

$$$$

 OpenBabel03252508483D

 48 50  0  0  1  0  0  0  0  0999 V2000
   38.1730   30.9300   41.3060 N   0  0  0  0  0  0  0  0  0  0  0  0
   38.8160   30.2820   40.7740 H   0  0  0  0  0  0  0  0  0  0  0  0
   36.9130   30.2790   41.4550 C   0  0  0  0  0  0  0  0  0  0  0  0
   36.2560   30.7570   42.2210 H   0  0  0  0  0  0  0  0  0  0  0  0
   36.3800   30.3860   40.4700 H   0  0  0  0  0  0  0  0  0  0  0  0
   36.8250   27.8880   40.7380 C   0  0  0  0  0  0  0  0  0  0  0  0
   36.9930   28.8210   41.7420 C   0  0  0  0  0  0  0  0  0  0  0  0
   37.2380   28.3650   43.0250 C   0  0  0  0  0  0  0  0  0  0  0  0
   37.3100   27.0250   43.2840 C   0  0  0  0  0  0  0  0  0  0  0  0
   37.1440   26.0870   42.2920 C   0  0  0  0  0  0  0  0  0  0  0  0
   36.9020   26.5820   41.0280 C   0  0  0  0  0  0  0  0  0  0  0  0
   37.3710   29.1030   43.8190 H   0  0  0  0  0  0  0  0  0  0  0  0
   37.5040   26.7550   44.3150 H   0  0  0  0  0  0  0  0  0  0  0  0
   37.2040   25.0230   42.5140 H   0  0  0  0  0  0  0  0  0  0  0  0
   36.7610   25.8920   40.1960 H   0  0  0  0  0  0  0  0  0  0  0  0
   37.1900   29.2540   37.2330 C   0  0  0  0  0  0  0  0  0  0  0  0
   37.5520   28.7440   38.4930 C   0  0  0  0  0  0  0  0  0  0  0  0
   36.5690   28.4240   39.4050 C   0  0  0  0  0  0  0  0  0  0  0  0
   35.2760   28.6280   39.0220 N   0  0  0  0  0  0  0  0  0  0  0  0
   34.9400   29.1210   37.8040 C   0  0  0  0  0  0  0  0  0  0  0  0
   35.9040   29.4280   36.9250 N   0  0  0  0  0  0  0  0  0  0  0  0
   38.0100   29.4940   36.5410 H   0  0  0  0  0  0  0  0  0  0  0  0
   38.5640   28.5770   38.8080 H   0  0  0  0  0  0  0  0  0  0  0  0
   33.8890   29.2640   37.5500 H   0  0  0  0  0  0  0  0  0  0  0  0
   38.0790   32.3420   40.3320 S   0  0  0  0  0  0  0  0  0  0  0  0
   36.6540   32.7910   40.1750 O   0  0  0  0  0  0  0  0  0  0  0  0
   36.2170   32.7880   39.3050 H   0  0  0  0  0  0  0  0  0  0  0  0
   38.7180   32.1200   38.9990 O   0  0  0  0  0  0  0  0  0  0  0  0
   38.3680   31.4480   38.3810 H   0  0  0  0  0  0  0  0  0  0  0  0
   38.9370   33.5370   41.1420 O   0  0  0  0  0  0  0  0  0  0  0  0
   39.7690   34.1790   40.2260 C   0  0  0  0  0  0  0  0  0  0  0  0
   39.3240   35.1850   40.0760 H   0  0  0  0  0  0  0  0  0  0  0  0
   39.8510   33.6650   39.2610 H   0  0  0  0  0  0  0  0  0  0  0  0
   41.1280   34.3900   40.8800 C   0  0  0  0  0  0  0  0  0  0  0  0
   41.3200   35.4710   40.9460 H   0  0  0  0  0  0  0  0  0  0  0  0
   41.1450   33.9120   41.8910 H   0  0  0  0  0  0  0  0  0  0  0  0
   42.5520   34.4460   38.8330 C   0  0  2  0  0  3  0  0  0  0  0  0
   42.1480   33.6660   40.0330 C   0  0  2  0  0  3  0  0  0  0  0  0
   41.6010   32.4200   39.7430 O   0  0  0  0  0  0  0  0  0  0  0  0
   42.2640   31.7260   38.7620 C   0  0  0  0  0  2  0  0  0  0  0  0
   42.1620   32.4080   37.4200 C   0  0  1  0  0  3  0  0  0  0  0  0
   42.0640   33.8930   37.5180 C   0  0  2  0  0  3  0  0  0  0  0  0
   43.9630   34.5720   38.7630 O   0  0  0  0  0  0  0  0  0  0  0  0
   44.3770   34.3650   39.6240 H   0  0  0  0  0  0  0  0  0  0  0  0
   43.2230   32.0620   36.5820 O   0  0  0  0  0  0  0  0  0  0  0  0
   43.1940   32.6850   35.8120 H   0  0  0  0  0  0  0  0  0  0  0  0
   42.8950   34.4840   36.5390 O   0  0  0  0  0  0  0  0  0  0  0  0
   42.8340   35.4710   36.7460 H   0  0  0  0  0  0  0  0  0  0  0  0
  1  3  1  0  0  0  0
  2  1  1  0  0  0  0
  3  7  1  0  0  0  0
  3  4  1  0  0  0  0
  5  3  1  0  0  0  0
  6 11  2  0  0  0  0
  6  7  1  0  0  0  0
  7  8  2  0  0  0  0
  8  9  1  0  0  0  0
  8 12  1  0  0  0  0
  9 13  1  0  0  0  0
 10 14  1  0  0  0  0
 10  9  2  0  0  0  0
 11 10  1  0  0  0  0
 15 11  1  0  0  0  0
 16 17  1  0  0  0  0
 17 23  1  0  0  0  0
 17 18  2  0  0  0  0
 18  6  1  0  0  0  0
 19 18  1  0  0  0  0
 20 19  2  0  0  0  0
 21 16  2  0  0  0  0
 21 20  1  0  0  0  0
 22 16  1  0  0  0  0
 24 20  1  0  0  0  0
 25 30  1  0  0  0  0
 25  1  1  0  0  0  0
 26 25  1  0  0  0  0
 27 26  1  0  0  0  0
 28 25  1  0  0  0  0
 29 28  1  0  0  0  0
 31 34  1  0  0  0  0
 31 30  1  0  0  0  0
 32 31  1  0  0  0  0
 33 31  1  0  0  0  0
 34 35  1  0  0  0  0
 34 36  1  0  0  0  0
 37 43  1  6  0  0  0
 37 38  1  0  0  0  0
 38 34  1  6  0  0  0
 39 38  1  0  0  0  0
 40 39  1  0  0  0  0
 41 45  1  6  0  0  0
 41 42  1  0  0  0  0
 41 40  1  0  0  0  0
 42 47  1  6  0  0  0
 42 37  1  0  0  0  0
 43 44  1  0  0  0  0
 46 45  1  0  0  0  0
 47 48  1  0  0  0  0
M  END
>  <minimizedAffinity>
-6.59776258

$$$$

 OpenBabel03252508483D

 48 50  0  0  1  0  0  0  0  0999 V2000
   37.0520   28.6920   40.7630 N   0  0  0  0  0  0  0  0  0  0  0  0
   37.1470   28.1730   39.8470 H   0  0  0  0  0  0  0  0  0  0  0  0
   36.6580   27.7550   41.7630 C   0  0  0  0  0  0  0  0  0  0  0  0
   36.0250   28.2060   42.5660 H   0  0  0  0  0  0  0  0  0  0  0  0
   36.0160   26.9890   41.2480 H   0  0  0  0  0  0  0  0  0  0  0  0
   38.1310   25.7500   41.9770 C   0  0  0  0  0  0  0  0  0  0  0  0
   37.7790   27.0150   42.4030 C   0  0  0  0  0  0  0  0  0  0  0  0
   38.4980   27.5800   43.4420 C   0  0  0  0  0  0  0  0  0  0  0  0
   39.5260   26.8960   44.0260 C   0  0  0  0  0  0  0  0  0  0  0  0
   39.8850   25.6350   43.6100 C   0  0  0  0  0  0  0  0  0  0  0  0
   39.1450   25.1080   42.5730 C   0  0  0  0  0  0  0  0  0  0  0  0
   38.2200   28.5810   43.7780 H   0  0  0  0  0  0  0  0  0  0  0  0
   40.0350   27.4100   44.8330 H   0  0  0  0  0  0  0  0  0  0  0  0
   40.7070   25.1020   44.0870 H   0  0  0  0  0  0  0  0  0  0  0  0
   39.3770   24.1120   42.1960 H   0  0  0  0  0  0  0  0  0  0  0  0
   35.7290   23.7220   39.8790 C   0  0  0  0  0  0  0  0  0  0  0  0
   36.4380   24.1700   41.0080 C   0  0  0  0  0  0  0  0  0  0  0  0
   37.3400   25.2030   40.8780 C   0  0  0  0  0  0  0  0  0  0  0  0
   37.4940   25.7420   39.6340 N   0  0  0  0  0  0  0  0  0  0  0  0
   36.8040   25.3020   38.5530 C   0  0  0  0  0  0  0  0  0  0  0  0
   35.9290   24.2960   38.6920 N   0  0  0  0  0  0  0  0  0  0  0  0
   35.0210   22.8950   40.0330 H   0  0  0  0  0  0  0  0  0  0  0  0
   36.3280   23.7560   41.9920 H   0  0  0  0  0  0  0  0  0  0  0  0
   36.9660   25.7700   37.5810 H   0  0  0  0  0  0  0  0  0  0  0  0
   35.8520   29.8840   40.4610 S   0  0  0  0  0  0  0  0  0  0  0  0
   35.7940   30.8820   41.5810 O   0  0  0  0  0  0  0  0  0  0  0  0
   35.0020   30.9680   42.1400 H   0  0  0  0  0  0  0  0  0  0  0  0
   34.5130   29.2560   40.2360 O   0  0  0  0  0  0  0  0  0  0  0  0
   34.0810   28.7340   40.9410 H   0  0  0  0  0  0  0  0  0  0  0  0
   36.3110   30.6760   39.0520 O   0  0  0  0  0  0  0  0  0  0  0  0
   36.9330   31.8730   39.4030 C   0  0  0  0  0  0  0  0  0  0  0  0
   36.6980   32.0250   40.4770 H   0  0  0  0  0  0  0  0  0  0  0  0
   36.5900   32.7390   38.8250 H   0  0  0  0  0  0  0  0  0  0  0  0
   38.4390   31.6760   39.3030 C   0  0  0  0  0  0  0  0  0  0  0  0
   38.6380   30.6270   39.0390 H   0  0  0  0  0  0  0  0  0  0  0  0
   38.8670   32.3740   38.5400 H   0  0  0  0  0  0  0  0  0  0  0  0
   40.3870   32.6610   40.5110 C   0  0  2  0  0  3  0  0  0  0  0  0
   39.0300   32.0640   40.6380 C   0  0  2  0  0  3  0  0  0  0  0  0
   38.9840   30.9210   41.4310 O   0  0  0  0  0  0  0  0  0  0  0  0
   39.7210   31.0040   42.5860 C   0  0  0  0  0  2  0  0  0  0  0  0
   41.2010   31.1040   42.3050 C   0  0  1  0  0  3  0  0  0  0  0  0
   41.5130   31.7980   41.0230 C   0  0  2  0  0  3  0  0  0  0  0  0
   40.4520   33.9130   41.1740 O   0  0  0  0  0  0  0  0  0  0  0  0
   39.5570   34.2630   41.3510 H   0  0  0  0  0  0  0  0  0  0  0  0
   41.8850   31.7210   43.3530 O   0  0  0  0  0  0  0  0  0  0  0  0
   42.7960   31.9230   43.0190 H   0  0  0  0  0  0  0  0  0  0  0  0
   42.5950   32.6870   41.2220 O   0  0  0  0  0  0  0  0  0  0  0  0
   42.6650   33.1700   40.3380 H   0  0  0  0  0  0  0  0  0  0  0  0
  1  3  1  0  0  0  0
  2  1  1  0  0  0  0
  3  7  1  0  0  0  0
  3  4  1  0  0  0  0
  5  3  1  0  0  0  0
  6  7  2  0  0  0  0
  6 11  1  0  0  0  0
  7  8  1  0  0  0  0
  8 12  1  0  0  0  0
  8  9  2  0  0  0  0
  9 13  1  0  0  0  0
 10  9  1  0  0  0  0
 10 14  1  0  0  0  0
 11 10  2  0  0  0  0
 15 11  1  0  0  0  0
 16 22  1  0  0  0  0
 16 17  1  0  0  0  0
 17 23  1  0  0  0  0
 18 17  2  0  0  0  0
 18  6  1  0  0  0  0
 19 18  1  0  0  0  0
 20 21  1  0  0  0  0
 20 19  2  0  0  0  0
 21 16  2  0  0  0  0
 24 20  1  0  0  0  0
 25  1  1  0  0  0  0
 25 26  1  0  0  0  0
 26 27  1  0  0  0  0
 28 25  1  0  0  0  0
 28 29  1  0  0  0  0
 30 31  1  0  0  0  0
 30 25  1  0  0  0  0
 31 32  1  0  0  0  0
 33 31  1  0  0  0  0
 34 31  1  0  0  0  0
 35 34  1  0  0  0  0
 36 34  1  0  0  0  0
 37 38  1  0  0  0  0
 37 42  1  0  0  0  0
 37 43  1  1  0  0  0
 38 34  1  6  0  0  0
 38 39  1  0  0  0  0
 39 40  1  0  0  0  0
 41 40  1  0  0  0  0
 41 45  1  1  0  0  0
 42 47  1  1  0  0  0
 42 41  1  0  0  0  0
 43 44  1  0  0  0  0
 46 45  1  0  0  0  0
 48 47  1  0  0  0  0
M  END
>  <minimizedAffinity>
-6.59571171

$$$$

 OpenBabel03252508483D

 48 50  0  0  1  0  0  0  0  0999 V2000
   38.0370   29.8650   41.2330 N   0  0  0  0  0  0  0  0  0  0  0  0
   38.5230   29.1850   40.5860 H   0  0  0  0  0  0  0  0  0  0  0  0
   38.5770   29.6940   42.5410 C   0  0  0  0  0  0  0  0  0  0  0  0
   38.0760   30.3270   43.3130 H   0  0  0  0  0  0  0  0  0  0  0  0
   38.3780   28.6260   42.8320 H   0  0  0  0  0  0  0  0  0  0  0  0
   40.9130   28.8230   42.6980 C   0  0  0  0  0  0  0  0  0  0  0  0
   40.0480   29.8980   42.6420 C   0  0  0  0  0  0  0  0  0  0  0  0
   40.5840   31.1730   42.6820 C   0  0  0  0  0  0  0  0  0  0  0  0
   41.9350   31.3550   42.7750 C   0  0  0  0  0  0  0  0  0  0  0  0
   42.8060   30.2920   42.8310 C   0  0  0  0  0  0  0  0  0  0  0  0
   42.2320   29.0390   42.7890 C   0  0  0  0  0  0  0  0  0  0  0  0
   39.9000   32.0230   42.6380 H   0  0  0  0  0  0  0  0  0  0  0  0
   42.2700   32.3850   42.8020 H   0  0  0  0  0  0  0  0  0  0  0  0
   43.8800   30.4530   42.9060 H   0  0  0  0  0  0  0  0  0  0  0  0
   42.8660   28.1530   42.8300 H   0  0  0  0  0  0  0  0  0  0  0  0
   39.6050   25.3850   43.5630 C   0  0  0  0  0  0  0  0  0  0  0  0
   40.2280   26.6360   43.7210 C   0  0  0  0  0  0  0  0  0  0  0  0
   40.2930   27.5020   42.6520 C   0  0  0  0  0  0  0  0  0  0  0  0
   39.7390   27.0840   41.4770 N   0  0  0  0  0  0  0  0  0  0  0  0
   39.1410   25.8750   41.3370 C   0  0  0  0  0  0  0  0  0  0  0  0
   39.0830   25.0400   42.3850 N   0  0  0  0  0  0  0  0  0  0  0  0
   39.5780   24.7290   44.4450 H   0  0  0  0  0  0  0  0  0  0  0  0
   40.6680   26.9780   44.6380 H   0  0  0  0  0  0  0  0  0  0  0  0
   38.7140   25.5910   40.3750 H   0  0  0  0  0  0  0  0  0  0  0  0
   36.3760   29.4380   41.1410 S   0  0  0  0  0  0  0  0  0  0  0  0
   35.5020   30.6550   41.2470 O   0  0  0  0  0  0  0  0  0  0  0  0
   34.8970   30.7780   41.9990 H   0  0  0  0  0  0  0  0  0  0  0  0
   36.0180   28.4330   42.1880 O   0  0  0  0  0  0  0  0  0  0  0  0
   36.0990   28.6490   43.1380 H   0  0  0  0  0  0  0  0  0  0  0  0
   36.1470   28.7380   39.6310 O   0  0  0  0  0  0  0  0  0  0  0  0
   35.8820   29.7520   38.7110 C   0  0  0  0  0  0  0  0  0  0  0  0
   35.8130   30.6840   39.3090 H   0  0  0  0  0  0  0  0  0  0  0  0
   34.9540   29.6090   38.1450 H   0  0  0  0  0  0  0  0  0  0  0  0
   37.0920   29.8980   37.7990 C   0  0  0  0  0  0  0  0  0  0  0  0
   37.8890   29.2360   38.1680 H   0  0  0  0  0  0  0  0  0  0  0  0
   36.8110   29.6480   36.7460 H   0  0  0  0  0  0  0  0  0  0  0  0
   38.9610   31.5480   37.7100 C   0  0  2  0  0  3  0  0  0  0  0  0
   37.4900   31.3560   37.8160 C   0  0  2  0  0  3  0  0  0  0  0  0
   36.9270   31.9000   38.9660 O   0  0  0  0  0  0  0  0  0  0  0  0
   37.4020   33.1460   39.2920 C   0  0  0  0  0  2  0  0  0  0  0  0
   38.8620   33.1130   39.6710 C   0  0  1  0  0  3  0  0  0  0  0  0
   39.6310   32.0470   38.9650 C   0  0  2  0  0  3  0  0  0  0  0  0
   39.2800   32.4390   36.6540 O   0  0  0  0  0  0  0  0  0  0  0  0
   38.5230   32.5450   36.0440 H   0  0  0  0  0  0  0  0  0  0  0  0
   39.4770   34.3480   39.4680 O   0  0  0  0  0  0  0  0  0  0  0  0
   40.4530   34.1980   39.5490 H   0  0  0  0  0  0  0  0  0  0  0  0
   40.8720   32.5700   38.5360 O   0  0  0  0  0  0  0  0  0  0  0  0
   41.2700   31.8150   37.9960 H   0  0  0  0  0  0  0  0  0  0  0  0
  1  3  1  0  0  0  0
  2  1  1  0  0  0  0
  3  7  1  0  0  0  0
  3  5  1  0  0  0  0
  3  4  1  0  0  0  0
  6 11  1  0  0  0  0
  7  8  1  0  0  0  0
  7  6  2  0  0  0  0
  8  9  2  0  0  0  0
  9 13  1  0  0  0  0
  9 10  1  0  0  0  0
 10 14  1  0  0  0  0
 11 15  1  0  0  0  0
 11 10  2  0  0  0  0
 12  8  1  0  0  0  0
 16 17  1  0  0  0  0
 16 22  1  0  0  0  0
 17 23  1  0  0  0  0
 18  6  1  0  0  0  0
 18 17  2  0  0  0  0
 19 18  1  0  0  0  0
 20 19  2  0  0  0  0
 20 21  1  0  0  0  0
 21 16  2  0  0  0  0
 24 20  1  0  0  0  0
 25  1  1  0  0  0  0
 25 26  1  0  0  0  0
 25 28  1  0  0  0  0
 26 27  1  0  0  0  0
 28 29  1  0  0  0  0
 30 25  1  0  0  0  0
 31 32  1  0  0  0  0
 31 30  1  0  0  0  0
 33 31  1  0  0  0  0
 34 35  1  0  0  0  0
 34 31  1  0  0  0  0
 36 34  1  0  0  0  0
 37 43  1  6  0  0  0
 37 38  1  0  0  0  0
 37 42  1  0  0  0  0
 38 34  1  1  0  0  0
 38 39  1  0  0  0  0
 39 40  1  0  0  0  0
 40 41  1  0  0  0  0
 41 45  1  6  0  0  0
 42 47  1  6  0  0  0
 42 41  1  0  0  0  0
 44 43  1  0  0  0  0
 45 46  1  0  0  0  0
 48 47  1  0  0  0  0
M  END
>  <minimizedAffinity>
-6.53748226

$$$$
