
     RDKit          3D

 43 45  0  0  0  0  0  0  0  0999 V2000
   46.8835   34.6002   42.2272 N   0  0  0  0  0  0  0  0  0  0  0  0
   48.3250   34.7517   42.2568 C   0  0  0  0  0  0  0  0  0  0  0  0
   48.6451   35.5345   40.9676 C   0  0  0  0  0  0  0  0  0  0  0  0
   48.3569   34.6365   39.7877 C   0  0  0  0  0  0  0  0  0  0  0  0
   47.0884   33.8568   39.9033 C   0  0  0  0  0  0  0  0  0  0  0  0
   46.1889   34.2553   41.0337 C   0  0  1  0  0  0  0  0  0  0  0  0
   44.5031   35.9744   44.7676 C   0  0  0  0  0  0  0  0  0  0  0  0
   45.2191   35.8807   43.5624 C   0  0  0  0  0  0  0  0  0  0  0  0
   46.1049   34.7948   43.4096 C   0  0  0  0  0  0  0  0  0  0  0  0
   46.2016   33.9177   44.4393 N   0  0  0  0  0  0  0  0  0  0  0  0
   45.4946   34.0424   45.5850 C   0  0  0  0  0  0  0  0  0  0  0  0
   44.6351   35.0910   45.7403 N   0  0  0  0  0  0  0  0  0  0  0  0
   45.3249   33.1801   41.2975 O   0  0  0  0  0  0  0  0  0  0  0  0
   48.6979   35.2596   43.1394 H   0  0  0  0  0  0  0  0  0  0  0  0
   48.7597   33.7446   42.0756 H   0  0  0  0  0  0  0  0  0  0  0  0
   47.9303   36.4038   40.9639 H   0  0  0  0  0  0  0  0  0  0  0  0
   49.6865   35.8557   40.9243 H   0  0  0  0  0  0  0  0  0  0  0  0
   48.4193   35.2564   38.8706 H   0  0  0  0  0  0  0  0  0  0  0  0
   49.2220   33.9205   39.7361 H   0  0  0  0  0  0  0  0  0  0  0  0
   47.3099   32.7634   40.0333 H   0  0  0  0  0  0  0  0  0  0  0  0
   46.5617   33.9328   38.9291 H   0  0  0  0  0  0  0  0  0  0  0  0
   45.6276   35.1682   40.7205 H   0  0  0  0  0  0  0  0  0  0  0  0
   43.8220   36.8000   44.8980 H   0  0  0  0  0  0  0  0  0  0  0  0
   45.1272   36.5905   42.7545 H   0  0  0  0  0  0  0  0  0  0  0  0
   45.5990   33.3207   46.3859 H   0  0  0  0  0  0  0  0  0  0  0  0
   43.8690   31.3693   39.9556 O   0  0  0  0  0  0  0  0  0  0  0  0
   43.1494   32.3921   40.5602 C   0  0  2  0  0  0  0  0  0  0  0  0
   43.9987   33.4782   41.1169 C   0  0  1  0  0  0  0  0  0  0  0  0
   43.3622   34.0658   42.1854 O   0  0  0  0  0  0  0  0  0  0  0  0
   43.6034   33.2441   43.3128 C   0  0  0  0  0  0  0  0  0  0  0  0
   43.1568   31.8372   43.0203 C   0  0  2  0  0  0  0  0  0  0  0  0
   44.2764   31.0222   42.9767 O   0  0  0  0  0  0  0  0  0  0  0  0
   42.3903   31.7615   41.7101 C   0  0  2  0  0  0  0  0  0  0  0  0
   42.1510   30.4251   41.4052 O   0  0  0  0  0  0  0  0  0  0  0  0
   43.2658   30.7767   39.4652 H   0  0  0  0  0  0  0  0  0  0  0  0
   42.4091   32.7384   39.8108 H   0  0  0  0  0  0  0  0  0  0  0  0
   44.0198   34.2701   40.3061 H   0  0  0  0  0  0  0  0  0  0  0  0
   44.6477   33.2628   43.6155 H   0  0  0  0  0  0  0  0  0  0  0  0
   42.9149   33.6713   44.0874 H   0  0  0  0  0  0  0  0  0  0  0  0
   42.4720   31.4876   43.8102 H   0  0  0  0  0  0  0  0  0  0  0  0
   43.9990   30.0726   42.7993 H   0  0  0  0  0  0  0  0  0  0  0  0
   41.4283   32.3004   41.8099 H   0  0  0  0  0  0  0  0  0  0  0  0
   41.6000   30.3720   40.6054 H   0  0  0  0  0  0  0  0  0  0  0  0
  1  2  1  0
  1  9  1  0
  3  2  1  0
  4  5  1  0
  4  3  1  0
  5  6  1  0
  6 13  1  0
  6  1  1  0
  7 12  2  0
  8  7  1  0
  9  8  2  0
  9 10  1  0
 10 11  2  0
 11 12  1  0
  2 14  1  0
  2 15  1  0
  3 16  1  0
  3 17  1  0
  4 18  1  0
  4 19  1  0
  5 20  1  0
  5 21  1  0
  6 22  1  6
  7 23  1  0
  8 24  1  0
 11 25  1  0
 26 27  1  0
 27 28  1  0
 28 29  1  0
 29 30  1  0
 30 31  1  0
 31 32  1  0
 31 33  1  0
 33 34  1  0
 33 27  1  0
 26 35  1  0
 27 36  1  6
 28 37  1  6
 30 38  1  0
 30 39  1  0
 31 40  1  1
 32 41  1  0
 33 42  1  1
 34 43  1  0
 13 28  1  0
M  ISO  8  14  13  15  13  16  13  17  13  18  13  19  13  20  13  21  13
M  ISO  4  22  13  23  14  24  14  25  14
M  END
>  <DihAtoms>  (1) 
5,12,27,26

>  <DihDeg>  (1) 
113.75366388153697

$$$$
