
 OpenBabel03252508473D

 48 50  0  0  1  0  0  0  0  0999 V2000
   42.7630   31.5690   42.5930 N   0  0  0  0  0  0  0  0  0  0  0  0
   42.8960   31.9690   43.5620 H   0  0  0  0  0  0  0  0  0  0  0  0
   43.1140   32.5770   41.6470 C   0  0  0  0  0  0  0  0  0  0  0  0
   43.6100   32.1710   40.7320 H   0  0  0  0  0  0  0  0  0  0  0  0
   42.1490   33.0430   41.3040 H   0  0  0  0  0  0  0  0  0  0  0  0
   43.6760   34.9980   41.8900 C   0  0  0  0  0  0  0  0  0  0  0  0
   43.9520   33.6800   42.1910 C   0  0  0  0  0  0  0  0  0  0  0  0
   45.0310   33.4080   43.0140 C   0  0  0  0  0  0  0  0  0  0  0  0
   45.7980   34.4250   43.5100 C   0  0  0  0  0  0  0  0  0  0  0  0
   45.5310   35.7420   43.2170 C   0  0  0  0  0  0  0  0  0  0  0  0
   44.4480   35.9700   42.3940 C   0  0  0  0  0  0  0  0  0  0  0  0
   45.2500   32.3660   43.2520 H   0  0  0  0  0  0  0  0  0  0  0  0
   46.6230   34.1240   44.1450 H   0  0  0  0  0  0  0  0  0  0  0  0
   46.1520   36.5400   43.6200 H   0  0  0  0  0  0  0  0  0  0  0  0
   44.1830   36.9910   42.1230 H   0  0  0  0  0  0  0  0  0  0  0  0
   40.2350   35.7730   40.5320 C   0  0  0  0  0  0  0  0  0  0  0  0
   41.2700   35.5770   41.4630 C   0  0  0  0  0  0  0  0  0  0  0  0
   42.5260   35.2270   41.0190 C   0  0  0  0  0  0  0  0  0  0  0  0
   42.6930   35.0870   39.6720 N   0  0  0  0  0  0  0  0  0  0  0  0
   41.6860   35.2790   38.7840 C   0  0  0  0  0  0  0  0  0  0  0  0
   40.4680   35.6200   39.2280 N   0  0  0  0  0  0  0  0  0  0  0  0
   39.2510   36.0510   40.9360 H   0  0  0  0  0  0  0  0  0  0  0  0
   41.1550   35.6830   42.5250 H   0  0  0  0  0  0  0  0  0  0  0  0
   41.8750   35.1540   37.7170 H   0  0  0  0  0  0  0  0  0  0  0  0
   41.0990   31.1460   42.5240 S   0  0  0  0  0  0  0  0  0  0  0  0
   40.2360   32.3730   42.4520 O   0  0  0  0  0  0  0  0  0  0  0  0
   39.6180   32.5980   43.1690 H   0  0  0  0  0  0  0  0  0  0  0  0
   40.7120   30.2900   43.6870 O   0  0  0  0  0  0  0  0  0  0  0  0
   40.7780   30.6290   44.6020 H   0  0  0  0  0  0  0  0  0  0  0  0
   40.8920   30.2550   41.1150 O   0  0  0  0  0  0  0  0  0  0  0  0
   39.7740   29.4370   41.2710 C   0  0  0  0  0  0  0  0  0  0  0  0
   39.0820   29.7220   40.4520 H   0  0  0  0  0  0  0  0  0  0  0  0
   39.2690   29.5530   42.2370 H   0  0  0  0  0  0  0  0  0  0  0  0
   40.1960   27.9970   41.0140 C   0  0  0  0  0  0  0  0  0  0  0  0
   40.3120   27.8550   39.9290 H   0  0  0  0  0  0  0  0  0  0  0  0
   41.1490   27.7730   41.5560 H   0  0  0  0  0  0  0  0  0  0  0  0
   39.6230   25.7310   41.8850 C   0  0  2  0  0  3  0  0  0  0  0  0
   39.1300   27.1060   41.6080 C   0  0  2  0  0  3  0  0  0  0  0  0
   38.0480   27.1580   40.7370 O   0  0  0  0  0  0  0  0  0  0  0  0
   37.0890   26.2040   40.9680 C   0  0  0  0  0  2  0  0  0  0  0  0
   37.6050   24.8100   40.7110 C   0  0  1  0  0  3  0  0  0  0  0  0
   39.0620   24.6600   40.9830 C   0  0  2  0  0  3  0  0  0  0  0  0
   39.3640   25.3590   43.2280 O   0  0  0  0  0  0  0  0  0  0  0  0
   39.1610   26.1430   43.7760 H   0  0  0  0  0  0  0  0  0  0  0  0
   36.8910   23.8520   41.4320 O   0  0  0  0  0  0  0  0  0  0  0  0
   37.4010   23.0060   41.3650 H   0  0  0  0  0  0  0  0  0  0  0  0
   39.2890   23.4450   41.6710 O   0  0  0  0  0  0  0  0  0  0  0  0
   40.2750   23.4810   41.8900 H   0  0  0  0  0  0  0  0  0  0  0  0
  1  2  1  0  0  0  0
  3  7  1  0  0  0  0
  3  1  1  0  0  0  0
  4  3  1  0  0  0  0
  5  3  1  0  0  0  0
  6  7  2  0  0  0  0
  6 11  1  0  0  0  0
  7  8  1  0  0  0  0
  8 12  1  0  0  0  0
  8  9  2  0  0  0  0
  9 13  1  0  0  0  0
 10  9  1  0  0  0  0
 10 14  1  0  0  0  0
 11 10  2  0  0  0  0
 15 11  1  0  0  0  0
 16 22  1  0  0  0  0
 16 17  1  0  0  0  0
 17 23  1  0  0  0  0
 18 17  2  0  0  0  0
 18  6  1  0  0  0  0
 19 18  1  0  0  0  0
 20 21  1  0  0  0  0
 20 19  2  0  0  0  0
 21 16  2  0  0  0  0
 24 20  1  0  0  0  0
 25  1  1  0  0  0  0
 25 28  1  0  0  0  0
 26 25  1  0  0  0  0
 26 27  1  0  0  0  0
 28 29  1  0  0  0  0
 30 31  1  0  0  0  0
 30 25  1  0  0  0  0
 31 33  1  0  0  0  0
 32 31  1  0  0  0  0
 34 31  1  0  0  0  0
 34 36  1  0  0  0  0
 35 34  1  0  0  0  0
 37 43  1  1  0  0  0
 38 34  1  6  0  0  0
 38 37  1  0  0  0  0
 39 40  1  0  0  0  0
 39 38  1  0  0  0  0
 41 40  1  0  0  0  0
 41 42  1  0  0  0  0
 41 45  1  1  0  0  0
 42 47  1  1  0  0  0
 42 37  1  0  0  0  0
 43 44  1  0  0  0  0
 46 45  1  0  0  0  0
 47 48  1  0  0  0  0
M  END
>  <minimizedAffinity>
-5.21167898

>  <minimizedRMSD>
0.860432684

$$$$
