REMARK  Name = 
REMARK  10 active torsions:
REMARK  status: ('A' for Active; 'I' for Inactive)
REMARK    1  A    between atoms: C_3  and  O_13
REMARK    2  A    between atoms: C_5  and  C_8
REMARK    3  A    between atoms: C_7  and  O_12
REMARK    4  A    between atoms: O_13  and  P_15
REMARK    5  A    between atoms: P_15  and  O_16
REMARK    6  A    between atoms: P_15  and  O_17
REMARK    7  A    between atoms: O_17  and  C_30
REMARK    8  A    between atoms: O_28  and  C_29
REMARK    9  A    between atoms: C_33  and  O_34
REMARK   10  A    between atoms: C_35  and  O_36
REMARK                            x       y       z     vdW  Elec       q    Type
REMARK                         _______ _______ _______ _____ _____    ______ ____
ROOT
ATOM      1  C   UNL     1      44.571  35.588  44.751  0.00  0.00    +0.000 A 
ATOM      2  C   UNL     1      45.150  35.732  43.479  0.00  0.00    +0.000 A 
ATOM      3  C   UNL     1      46.194  34.883  43.160  0.00  0.00    +0.000 A 
ATOM      4  N   UNL     1      46.606  33.970  44.064  0.00  0.00    +0.000 NA
ATOM      5  C   UNL     1      46.043  33.846  45.271  0.00  0.00    +0.000 A 
ATOM      6  N   UNL     1      45.016  34.663  45.618  0.00  0.00    +0.000 NA
ATOM      7  H   UNL     1      43.753  36.256  44.996  0.00  0.00    +0.000 HD
ATOM      8  H   UNL     1      44.772  36.478  42.813  0.00  0.00    +0.000 HD
ENDROOT
BRANCH   5  10
ATOM      9  C   UNL     1      45.406  32.547  47.322  0.00  0.00    +0.000 C 
ATOM     10  C   UNL     1      46.454  32.879  46.304  0.00  0.00    +0.000 C 
ATOM     11  C   UNL     1      46.633  31.486  45.676  0.00  0.00    +0.000 C 
ATOM     12  O   UNL     1      46.330  30.565  46.629  0.00  0.00    +0.000 OA
ATOM     13  C   UNL     1      45.969  31.215  47.807  0.00  0.00    +0.000 C 
ATOM     14  H   UNL     1      44.439  32.329  46.781  0.00  0.00    +0.000 HD
ATOM     15  H   UNL     1      47.398  33.187  46.798  0.00  0.00    +0.000 HD
ATOM     16  H   UNL     1      46.116  31.386  44.713  0.00  0.00    +0.000 HD
ATOM     17  H   UNL     1      47.724  31.410  45.449  0.00  0.00    +0.000 HD
ATOM     18  H   UNL     1      46.802  31.405  48.496  0.00  0.00    +0.000 HD
ATOM     19  H   UNL     1      45.145  30.599  48.261  0.00  0.00    +0.000 HD
BRANCH   9  20
ATOM     20  O   UNL     1      45.240  33.486  48.297  0.00  0.00    +0.000 OA
ATOM     21  H   UNL     1      44.514  34.102  48.023  0.00  0.00    +0.000 HD
ENDBRANCH   9  20
ENDBRANCH   5  10
BRANCH   3  22
ATOM     22  O   UNL     1      46.760  35.030  41.902  0.00  0.00    +0.000 OA
BRANCH  22  24
ATOM     23  O   UNL     1      48.576  33.251  41.128  0.00  0.00    +0.000 OA
ATOM     24  P   UNL     1      48.421  34.666  41.656  0.00  0.00    +0.000 P 
BRANCH  24  25
ATOM     25  O   UNL     1      49.040  35.795  40.588  0.00  0.00    +0.000 OA
ATOM     26  H   UNL     1      48.329  35.965  39.897  0.00  0.00    +0.000 HD
ENDBRANCH  24  25
BRANCH  24  27
ATOM     27  O   UNL     1      49.156  34.775  43.180  0.00  0.00    +0.000 OA
BRANCH  27  29
ATOM     28  C   UNL     1      50.842  34.312  41.539  0.00  0.00    +0.000 C 
ATOM     29  C   UNL     1      50.545  34.626  42.969  0.00  0.00    +0.000 C 
ATOM     30  O   UNL     1      51.246  35.693  43.471  0.00  0.00    +0.000 OA
ATOM     31  C   UNL     1      52.404  35.977  42.771  0.00  0.00    +0.000 C 
ATOM     32  C   UNL     1      53.122  34.731  42.293  0.00  0.00    +0.000 C 
ATOM     33  C   UNL     1      52.267  33.849  41.425  0.00  0.00    +0.000 C 
BRANCH  28  34
ATOM     34  O   UNL     1      50.535  35.333  40.657  0.00  0.00    +0.000 OA
ATOM     35  H   UNL     1      50.033  36.069  41.061  0.00  0.00    +0.000 HD
ENDBRANCH  28  34
BRANCH  32  36
ATOM     36  O   UNL     1      54.275  35.104  41.636  0.00  0.00    +0.000 OA
ATOM     37  H   UNL     1      54.305  36.083  41.508  0.00  0.00    +0.000 HD
ENDBRANCH  32  36
BRANCH  33  38
ATOM     38  O   UNL     1      52.310  32.532  41.934  0.00  0.00    +0.000 OA
ATOM     39  H   UNL     1      53.247  32.189  41.865  0.00  0.00    +0.000 HD
ENDBRANCH  33  38
ENDBRANCH  27  29
ENDBRANCH  24  27
ENDBRANCH  22  24
ENDBRANCH   3  22
TORSDOF 10
