
 OpenBabel03252505433D

 45 48  0  0  1  0  0  0  0  0999 V2000
   42.7280   34.8430   40.1930 C   0  0  0  0  0  0  0  0  0  0  0  0
   42.6000   35.2430   38.8830 C   0  0  0  0  0  0  0  0  0  0  0  0
   41.4320   35.1240   38.1760 C   0  0  0  0  0  0  0  0  0  0  0  0
   40.3620   34.5840   38.8120 N   0  0  0  0  0  0  0  0  0  0  0  0
   40.4740   34.1810   40.1110 C   0  0  0  0  0  0  0  0  0  0  0  0
   41.6300   34.3050   40.7960 N   0  0  0  0  0  0  0  0  0  0  0  0
   43.4440   35.6670   38.3840 H   0  0  0  0  0  0  0  0  0  0  0  0
   41.3360   35.4420   37.1390 H   0  0  0  0  0  0  0  0  0  0  0  0
   43.9690   34.6040   42.3200 C   0  0  1  0  0  0  0  0  0  0  0  0
   44.1440   36.1130   41.9370 C   0  0  0  0  0  0  0  0  0  0  0  0
   44.0390   34.9670   40.9360 C   0  0  2  0  0  0  0  0  0  0  0  0
   42.9750   34.4440   42.8200 H   0  0  0  0  0  0  0  0  0  0  0  0
   45.1440   36.5460   42.1150 H   0  0  0  0  0  0  0  0  0  0  0  0
   43.2550   36.7530   41.9890 H   0  0  0  0  0  0  0  0  0  0  0  0
   44.8850   34.9020   40.2540 H   0  0  0  0  0  0  0  0  0  0  0  0
   45.1010   34.0530   43.0940 C   0  0  0  0  0  0  0  0  0  0  0  0
   46.3440   33.9320   42.4340 C   0  0  0  0  0  0  0  0  0  0  0  0
   47.4240   33.4190   43.1390 C   0  0  0  0  0  0  0  0  0  0  0  0
   47.2270   33.0610   44.4340 N   0  0  0  0  0  0  0  0  0  0  0  0
   46.0370   33.1890   45.0250 C   0  0  0  0  0  0  0  0  0  0  0  0
   45.0040   33.6830   44.3360 N   0  0  0  0  0  0  0  0  0  0  0  0
   46.4440   34.2380   41.3910 H   0  0  0  0  0  0  0  0  0  0  0  0
   48.4110   33.3080   42.6630 H   0  0  0  0  0  0  0  0  0  0  0  0
   46.0260   32.7390   46.4600 C   0  0  0  0  0  0  0  0  0  0  0  0
   45.0570   33.4090   47.1920 F   0  0  0  0  0  0  0  0  0  0  0  0
   47.2620   33.0900   47.0530 F   0  0  0  0  0  0  0  0  0  0  0  0
   45.9290   31.3770   46.5210 F   0  0  0  0  0  0  0  0  0  0  0  0
   39.3310   33.5840   40.8280 C   0  0  0  0  0  0  0  0  0  0  0  0
   38.7480   34.4500   41.2500 H   0  0  0  0  0  0  0  0  0  0  0  0
   39.6560   32.9410   41.6440 H   0  0  0  0  0  0  0  0  0  0  0  0
   38.3950   32.8700   39.8950 C   0  0  0  0  0  0  0  0  0  0  0  0
   37.3400   33.0400   40.1510 H   0  0  0  0  0  0  0  0  0  0  0  0
   38.6120   33.2330   38.8510 H   0  0  0  0  0  0  0  0  0  0  0  0
   38.3550   30.7770   41.2470 C   0  0  1  0  0  3  0  0  0  0  0  0
   38.6290   31.3970   39.8910 C   0  0  1  0  0  3  0  0  0  0  0  0
   38.0350   30.6840   38.8910 O   0  0  0  0  0  0  0  0  0  0  0  0
   37.5790   29.4310   39.2860 C   0  0  0  0  0  2  0  0  0  0  0  0
   38.5730   28.6520   40.0820 C   0  0  2  0  0  3  0  0  0  0  0  0
   39.0560   29.4340   41.2650 C   0  0  2  0  0  3  0  0  0  0  0  0
   38.7950   31.6220   42.2620 O   0  0  0  0  0  0  0  0  0  0  0  0
   38.0510   31.6830   42.9200 H   0  0  0  0  0  0  0  0  0  0  0  0
   39.5890   28.1080   39.3030 O   0  0  0  0  0  0  0  0  0  0  0  0
   40.4870   28.4780   39.5110 H   0  0  0  0  0  0  0  0  0  0  0  0
   38.8860   28.7810   42.4830 O   0  0  0  0  0  0  0  0  0  0  0  0
   39.6040   29.1140   43.1040 H   0  0  0  0  0  0  0  0  0  0  0  0
  1  6  1  0  0  0  0
  1 11  1  0  0  0  0
  2  1  2  0  0  0  0
  3  4  2  0  0  0  0
  3  2  1  0  0  0  0
  4  5  1  0  0  0  0
  5  6  2  0  0  0  0
  5 28  1  0  0  0  0
  7  2  1  0  0  0  0
  8  3  1  0  0  0  0
  9 12  1  1  0  0  0
  9 16  1  0  0  0  0
 10 14  1  0  0  0  0
 10 13  1  0  0  0  0
 10  9  1  0  0  0  0
 11 15  1  6  0  0  0
 11 10  1  0  0  0  0
 11  9  1  0  0  0  0
 16 21  1  0  0  0  0
 17 16  2  0  0  0  0
 17 18  1  0  0  0  0
 18 19  2  0  0  0  0
 19 20  1  0  0  0  0
 20 24  1  0  0  0  0
 21 20  2  0  0  0  0
 22 17  1  0  0  0  0
 23 18  1  0  0  0  0
 24 27  1  0  0  0  0
 24 26  1  0  0  0  0
 24 25  1  0  0  0  0
 28 29  1  0  0  0  0
 28 30  1  0  0  0  0
 31 32  1  0  0  0  0
 31 28  1  0  0  0  0
 33 31  1  0  0  0  0
 34 39  1  0  0  0  0
 34 40  1  1  0  0  0
 35 31  1  1  0  0  0
 35 34  1  0  0  0  0
 36 37  1  0  0  0  0
 36 35  1  0  0  0  0
 37 38  1  0  0  0  0
 38 42  1  6  0  0  0
 38 39  1  0  0  0  0
 39 44  1  1  0  0  0
 40 41  1  0  0  0  0
 42 43  1  0  0  0  0
 44 45  1  0  0  0  0
M  END
>  <minimizedAffinity>
-5.78157187

>  <minimizedRMSD>
1.63054252

$$$$
