
     RDKit          3D

 30 31  0  0  0  0  0  0  0  0999 V2000
   44.3829   35.7790   44.4335 C   0  0  0  0  0  0  0  0  0  0  0  0
   44.6644   35.0699   43.2768 C   0  0  0  0  0  0  0  0  0  0  0  0
   45.2884   33.8346   43.3925 C   0  0  0  0  0  0  0  0  0  0  0  0
   45.5922   33.3804   44.6245 N   0  0  0  0  0  0  0  0  0  0  0  0
   45.3078   34.0908   45.7449 C   0  0  0  0  0  0  0  0  0  0  0  0
   44.6992   35.3001   45.6676 N   0  0  0  0  0  0  0  0  0  0  0  0
   44.2642   35.7112   41.9971 C   0  0  0  0  0  0  0  0  0  0  0  0
   43.8972   36.7463   44.3890 H   0  0  0  0  0  0  0  0  0  0  0  0
   45.4956   33.3043   42.4726 H   0  0  0  0  0  0  0  0  0  0  0  0
   43.2092   35.4279   41.8083 H   0  0  0  0  0  0  0  0  0  0  0  0
   44.9305   35.2707   41.2102 H   0  0  0  0  0  0  0  0  0  0  0  0
   44.4350   36.7831   42.0780 H   0  0  0  0  0  0  0  0  0  0  0  0
   43.6491   33.6336   48.3185 O   0  0  0  0  0  0  0  0  0  0  0  0
   44.9186   34.2279   48.2109 C   0  0  2  0  0  0  0  0  0  0  0  0
   45.6619   33.5459   47.0556 C   0  0  1  0  0  0  0  0  0  0  0  0
   45.3298   32.1948   47.2061 O   0  0  0  0  0  0  0  0  0  0  0  0
   46.1483   31.7060   48.2063 C   0  0  0  0  0  0  0  0  0  0  0  0
   46.0403   32.4114   49.5223 C   0  0  2  0  0  0  0  0  0  0  0  0
   45.0424   31.8005   50.2776 O   0  0  0  0  0  0  0  0  0  0  0  0
   45.7519   33.8758   49.4428 C   0  0  1  0  0  0  0  0  0  0  0  0
   46.9658   34.5525   49.2973 O   0  0  0  0  0  0  0  0  0  0  0  0
   42.9399   34.3180   48.2165 H   0  0  0  0  0  0  0  0  0  0  0  0
   44.8751   35.3114   48.1189 H   0  0  0  0  0  0  0  0  0  0  0  0
   46.7495   33.6480   47.2480 H   0  0  0  0  0  0  0  0  0  0  0  0
   45.9078   30.6273   48.3860 H   0  0  0  0  0  0  0  0  0  0  0  0
   47.1830   31.7187   47.7858 H   0  0  0  0  0  0  0  0  0  0  0  0
   47.0367   32.3027   50.0371 H   0  0  0  0  0  0  0  0  0  0  0  0
   45.3174   30.8700   50.4723 H   0  0  0  0  0  0  0  0  0  0  0  0
   45.2185   34.1981   50.3650 H   0  0  0  0  0  0  0  0  0  0  0  0
   47.7368   33.9603   49.3911 H   0  0  0  0  0  0  0  0  0  0  0  0
  1  6  2  0
  2  3  2  0
  2  1  1  0
  3  4  1  0
  4  5  2  0
  6  5  1  0
  7  2  1  0
  1  8  1  0
  3  9  1  0
  7 10  1  0
  7 11  1  0
  7 12  1  0
 13 14  1  0
 14 15  1  0
 15 16  1  0
 16 17  1  0
 17 18  1  0
 18 19  1  0
 18 20  1  0
 20 21  1  0
 20 14  1  0
 13 22  1  0
 14 23  1  6
 15 24  1  1
 17 25  1  0
 17 26  1  0
 18 27  1  1
 19 28  1  0
 20 29  1  1
 21 30  1  0
  5 15  1  0
M  ISO  5   8  14   9  14  10   8  11   8  12   8
M  END
>  <DihAtoms>  (1) 
3,4,14,13

>  <DihDeg>  (1) 
107.50952945895756

$$$$
