
     RDKit          3D

 33 34  0  0  0  0  0  0  0  0999 V2000
   44.5818   35.9964   44.5129 C   0  0  0  0  0  0  0  0  0  0  0  0
   45.2218   35.9956   43.2584 C   0  0  0  0  0  0  0  0  0  0  0  0
   46.0939   34.9523   42.9731 C   0  0  0  0  0  0  0  0  0  0  0  0
   46.2976   33.9733   43.9115 N   0  0  0  0  0  0  0  0  0  0  0  0
   45.6714   34.0082   45.0926 C   0  0  0  0  0  0  0  0  0  0  0  0
   44.8138   35.0102   45.4058 N   0  0  0  0  0  0  0  0  0  0  0  0
   46.7151   34.9765   41.7211 O   0  0  0  0  0  0  0  0  0  0  0  0
   48.6539   33.3328   40.9679 O   0  0  0  0  0  0  0  0  0  0  0  0
   48.4066   34.6739   41.6316 P   0  0  0  0  0  0  0  0  0  0  0  0
   49.1220   35.9335   40.7869 O   0  0  0  0  0  0  0  0  0  0  0  0
   48.9973   34.5882   43.2191 O   0  0  0  0  0  0  0  0  0  0  0  0
   43.9131   36.8174   44.7030 H   0  0  0  0  0  0  0  0  0  0  0  0
   45.0500   36.7656   42.5429 H   0  0  0  0  0  0  0  0  0  0  0  0
   49.1955   36.7034   41.4062 H   0  0  0  0  0  0  0  0  0  0  0  0
   49.4705   35.4403   43.4629 H   0  0  0  0  0  0  0  0  0  0  0  0
   44.6958   31.5213   44.5717 O   0  0  0  0  0  0  0  0  0  0  0  0
   45.8407   31.6110   45.3714 C   0  0  1  0  0  0  0  0  0  0  0  0
   45.9072   32.9405   46.0891 C   0  0  1  0  0  0  0  0  0  0  0  0
   47.1287   33.0374   46.7284 O   0  0  0  0  0  0  0  0  0  0  0  0
   47.1338   32.0878   47.7504 C   0  0  0  0  0  0  0  0  0  0  0  0
   47.1624   30.6855   47.1793 C   0  0  1  0  0  0  0  0  0  0  0  0
   47.2533   29.7750   48.2107 O   0  0  0  0  0  0  0  0  0  0  0  0
   45.8849   30.4870   46.3848 C   0  0  1  0  0  0  0  0  0  0  0  0
   44.8233   30.5081   47.2595 O   0  0  0  0  0  0  0  0  0  0  0  0
   43.9170   31.9330   45.0214 H   0  0  0  0  0  0  0  0  0  0  0  0
   46.7514   31.5227   44.7475 H   0  0  0  0  0  0  0  0  0  0  0  0
   45.0999   32.9640   46.8788 H   0  0  0  0  0  0  0  0  0  0  0  0
   46.1460   32.2070   48.2805 H   0  0  0  0  0  0  0  0  0  0  0  0
   47.9323   32.2696   48.4956 H   0  0  0  0  0  0  0  0  0  0  0  0
   47.9976   30.5804   46.4747 H   0  0  0  0  0  0  0  0  0  0  0  0
   46.5475   29.9137   48.8691 H   0  0  0  0  0  0  0  0  0  0  0  0
   45.9303   29.5158   45.8213 H   0  0  0  0  0  0  0  0  0  0  0  0
   44.1360   31.1779   47.0918 H   0  0  0  0  0  0  0  0  0  0  0  0
  1  6  2  0
  2  1  1  0
  3  2  2  0
  3  4  1  0
  4  5  2  0
  5  6  1  0
  7  3  1  0
  8  9  2  0
  9  7  1  0
  9 11  1  0
 10  9  1  0
  1 12  1  0
  2 13  1  0
 10 14  1  0
 11 15  1  0
 16 17  1  0
 17 18  1  0
 18 19  1  0
 19 20  1  0
 20 21  1  0
 21 22  1  0
 21 23  1  0
 23 24  1  0
 23 17  1  0
 16 25  1  0
 17 26  1  6
 18 27  1  1
 20 28  1  0
 20 29  1  0
 21 30  1  6
 22 31  1  0
 23 32  1  6
 24 33  1  0
  5 18  1  0
M  ISO  4  12  14  13  14  14   3  15   3
M  END
>  <DihAtoms>  (1) 
3,4,17,16

>  <DihDeg>  (1) 
-75.6094460994553

$$$$
