
 OpenBabel03252504333D

 43 45  0  0  1  0  0  0  0  0999 V2000
   42.0120   35.5080   41.0640 C   0  0  0  0  0  0  0  0  0  0  0  0
   41.7630   35.5560   42.1600 H   0  0  0  0  0  0  0  0  0  0  0  0
   41.5970   36.4470   40.6370 H   0  0  0  0  0  0  0  0  0  0  0  0
   39.7830   34.6110   40.6790 C   0  0  0  0  0  0  0  0  0  0  0  0
   41.1660   34.3790   40.5670 C   0  0  0  0  0  0  0  0  0  0  0  0
   41.5830   33.2090   40.0310 C   0  0  0  0  0  0  0  0  0  0  0  0
   40.6420   32.3630   39.6480 N   0  0  0  0  0  0  0  0  0  0  0  0
   39.3360   32.5490   39.7360 C   0  0  0  0  0  0  0  0  0  0  0  0
   38.8420   33.7370   40.2820 N   0  0  0  0  0  0  0  0  0  0  0  0
   39.3630   35.5180   41.0950 H   0  0  0  0  0  0  0  0  0  0  0  0
   42.6510   33.0720   39.9650 H   0  0  0  0  0  0  0  0  0  0  0  0
   38.0500   30.5500   40.3190 C   0  0  1  0  0  3  0  0  0  0  0  0
   38.3160   31.5580   39.2860 C   0  0  2  0  0  3  0  0  0  0  0  0
   38.7020   31.1270   38.0490 O   0  0  0  0  0  0  0  0  0  0  0  0
   38.4880   29.8130   37.7500 C   0  0  0  0  0  2  0  0  0  0  0  0
   39.3450   29.0540   38.7740 C   0  0  1  0  0  3  0  0  0  0  0  0
   38.5330   29.1560   40.0460 C   0  0  1  0  0  3  0  0  0  0  0  0
   38.5530   30.9000   41.5930 O   0  0  0  0  0  0  0  0  0  0  0  0
   39.3670   30.4100   41.8110 H   0  0  0  0  0  0  0  0  0  0  0  0
   39.4420   27.7550   38.3400 O   0  0  0  0  0  0  0  0  0  0  0  0
   39.4760   27.7410   37.3420 H   0  0  0  0  0  0  0  0  0  0  0  0
   39.3250   28.6330   41.0710 O   0  0  0  0  0  0  0  0  0  0  0  0
   38.9570   27.8000   41.4540 H   0  0  0  0  0  0  0  0  0  0  0  0
   43.3230   35.4020   40.7270 O   0  0  0  0  0  0  0  0  0  0  0  0
   44.4110   35.1970   41.5650 C   0  0  0  0  0  3  0  0  0  0  0  0
   44.2430   35.5470   42.8370 C   0  0  0  0  0  3  0  0  0  0  0  0
   45.2810   35.4150   43.9360 C   0  0  0  0  0  0  0  0  0  0  0  0
   46.2670   35.2090   43.4720 H   0  0  0  0  0  0  0  0  0  0  0  0
   45.3460   36.3320   44.5470 H   0  0  0  0  0  0  0  0  0  0  0  0
   44.9160   34.3350   44.7160 O   0  0  0  0  0  0  0  0  0  0  0  0
   45.6560   32.2460   43.2420 O   0  0  0  0  0  0  0  0  0  0  0  0
   45.9720   33.0400   44.4900 P   0  0  1  0  0  0  0  0  0  0  0  0
   47.5710   33.6080   44.3230 O   0  0  0  0  0  0  0  0  0  0  0  0
   47.6070   34.3980   44.9510 H   0  0  0  0  0  0  0  0  0  0  0  0
   45.9480   32.0290   45.8400 O   0  0  0  0  0  0  0  0  0  0  0  0
   45.9020   32.7340   47.0260 C   0  0  0  0  0  0  0  0  0  0  0  0
   46.7010   32.2400   48.1930 C   0  0  0  0  0  0  0  0  0  0  0  0
   45.1920   32.0480   48.1660 C   0  0  0  0  0  0  0  0  0  0  0  0
   45.7320   33.8220   46.9210 H   0  0  0  0  0  0  0  0  0  0  0  0
   47.3460   31.3610   47.9750 H   0  0  0  0  0  0  0  0  0  0  0  0
   47.0590   33.0270   48.8850 H   0  0  0  0  0  0  0  0  0  0  0  0
   44.5660   32.6430   48.8590 H   0  0  0  0  0  0  0  0  0  0  0  0
   44.8890   30.9870   48.0500 H   0  0  0  0  0  0  0  0  0  0  0  0
  1  2  1  0  0  0  0
  3  1  1  0  0  0  0
  4 10  1  0  0  0  0
  5  4  1  0  0  0  0
  5  1  1  0  0  0  0
  6  5  2  0  0  0  0
  7  8  2  0  0  0  0
  7  6  1  0  0  0  0
  8  9  1  0  0  0  0
  9  4  2  0  0  0  0
 11  6  1  0  0  0  0
 12 18  1  1  0  0  0
 13  8  1  1  0  0  0
 13 12  1  0  0  0  0
 14 13  1  0  0  0  0
 15 14  1  0  0  0  0
 15 16  1  0  0  0  0
 16 20  1  6  0  0  0
 16 17  1  0  0  0  0
 17 12  1  0  0  0  0
 17 22  1  1  0  0  0
 18 19  1  0  0  0  0
 21 20  1  0  0  0  0
 22 23  1  0  0  0  0
 24  1  1  0  0  0  0
 24 25  1  0  0  0  0
 25 26  2  0  0  0  0
 26 27  1  0  0  0  0
 27 29  1  0  0  0  0
 27 30  1  0  0  0  0
 28 27  1  0  0  0  0
 32 31  2  6  0  0  0
 32 30  1  0  0  0  0
 32 35  1  0  0  0  0
 33 32  1  0  0  0  0
 33 34  1  0  0  0  0
 35 36  1  0  0  0  0
 36 38  1  0  0  0  0
 36 37  1  0  0  0  0
 37 41  1  0  0  0  0
 38 37  1  0  0  0  0
 38 42  1  0  0  0  0
 39 36  1  0  0  0  0
 40 37  1  0  0  0  0
 43 38  1  0  0  0  0
M  END
>  <minimizedAffinity>
-4.92983437

>  <minimizedRMSD>
1.54651344

$$$$
