
 OpenBabel03252503413D

 24 25  0  0  1  0  0  0  0  0999 V2000
   44.5950   35.3680   45.0760 C   0  0  0  0  0  0  0  0  0  0  0  0
   45.2410   35.2030   43.8610 C   0  0  0  0  0  0  0  0  0  0  0  0
   46.1890   34.1950   43.7460 C   0  0  0  0  0  0  0  0  0  0  0  0
   46.4390   33.4210   44.8210 N   0  0  0  0  0  0  0  0  0  0  0  0
   45.7950   33.6000   46.0020 C   0  0  0  0  0  0  0  0  0  0  0  0
   44.8630   34.5740   46.1480 N   0  0  0  0  0  0  0  0  0  0  0  0
   43.8490   36.1420   45.2080 H   0  0  0  0  0  0  0  0  0  0  0  0
   46.6780   34.0900   42.7870 H   0  0  0  0  0  0  0  0  0  0  0  0
   45.4380   31.3520   47.0380 C   0  0  2  0  0  3  0  0  0  0  0  0
   46.1080   32.7280   47.1350 C   0  0  1  0  0  3  0  0  0  0  0  0
   47.4690   32.4210   47.2430 O   0  0  0  0  0  0  0  0  0  0  0  0
   47.6820   32.0700   48.5620 C   0  0  0  0  0  2  0  0  0  0  0  0
   46.8550   30.9240   49.0600 C   0  0  1  0  0  3  0  0  0  0  0  0
   45.4860   30.8180   48.4700 C   0  0  1  0  0  3  0  0  0  0  0  0
   46.2320   30.5420   46.2090 O   0  0  0  0  0  0  0  0  0  0  0  0
   45.7030   30.2170   45.4360 H   0  0  0  0  0  0  0  0  0  0  0  0
   47.5400   29.7380   48.8130 O   0  0  0  0  0  0  0  0  0  0  0  0
   48.3780   29.7400   49.3420 H   0  0  0  0  0  0  0  0  0  0  0  0
   44.6250   31.6280   49.2160 O   0  0  0  0  0  0  0  0  0  0  0  0
   45.0540   31.9940   50.0130 H   0  0  0  0  0  0  0  0  0  0  0  0
   44.8510   36.1390   42.7740 C   0  0  0  0  0  0  0  0  0  0  0  0
   43.9710   35.6970   42.2650 H   0  0  0  0  0  0  0  0  0  0  0  0
   45.7250   36.1790   42.0730 H   0  0  0  0  0  0  0  0  0  0  0  0
   44.6730   37.1210   43.2100 H   0  0  0  0  0  0  0  0  0  0  0  0
  1  7  1  0  0  0  0
  1  6  1  0  0  0  0
  2  1  2  0  0  0  0
  3  2  1  0  0  0  0
  3  4  2  0  0  0  0
  4  5  1  0  0  0  0
  5  6  2  0  0  0  0
  8  3  1  0  0  0  0
  9 15  1  6  0  0  0
  9 10  1  0  0  0  0
  9 14  1  0  0  0  0
 10  5  1  6  0  0  0
 10 11  1  0  0  0  0
 11 12  1  0  0  0  0
 12 13  1  0  0  0  0
 13 17  1  6  0  0  0
 14 13  1  0  0  0  0
 14 19  1  1  0  0  0
 16 15  1  0  0  0  0
 17 18  1  0  0  0  0
 19 20  1  0  0  0  0
 21 24  1  0  0  0  0
 21  2  1  0  0  0  0
 22 21  1  0  0  0  0
 23 21  1  0  0  0  0
M  END
>  <minimizedAffinity>
-5.39198923

>  <minimizedRMSD>
1.18018103

$$$$
