REMARK  Name = 
REMARK  6 active torsions:
REMARK  status: ('A' for Active; 'I' for Inactive)
REMARK    1  A    between atoms: C_1  and  C_7
REMARK    2  A    between atoms: C_5  and  C_19
REMARK    3  A    between atoms: C_8  and  C_9
REMARK    4  A    between atoms: O_17  and  C_18
REMARK    5  A    between atoms: C_22  and  O_23
REMARK    6  A    between atoms: C_24  and  O_25
REMARK                            x       y       z     vdW  Elec       q    Type
REMARK                         _______ _______ _______ _____ _____    ______ ____
ROOT
ATOM      1  C   UNL     1      44.694  35.518  43.608  0.00  0.00    +0.000 A 
ATOM      2  C   UNL     1      43.934  35.447  42.401  0.00  0.00    +0.000 A 
ATOM      3  C   UNL     1      43.782  34.172  41.829  0.00  0.00    +0.000 A 
ATOM      4  N   UNL     1      44.355  33.091  42.440  0.00  0.00    +0.000 NA
ATOM      5  C   UNL     1      45.073  33.216  43.595  0.00  0.00    +0.000 A 
ATOM      6  N   UNL     1      45.226  34.435  44.155  0.00  0.00    +0.000 NA
ATOM      7  H   UNL     1      43.527  36.355  42.004  0.00  0.00    +0.000 HD
ATOM      8  H   UNL     1      43.215  34.099  40.924  0.00  0.00    +0.000 HD
ENDROOT
BRANCH   5  10
ATOM      9  C   UNL     1      45.100  30.756  43.653  0.00  0.00    +0.000 C 
ATOM     10  C   UNL     1      45.677  32.033  44.229  0.00  0.00    +0.000 C 
ATOM     11  O   UNL     1      47.059  31.953  44.048  0.00  0.00    +0.000 OA
ATOM     12  C   UNL     1      47.541  31.017  44.959  0.00  0.00    +0.000 C 
ATOM     13  C   UNL     1      46.980  29.635  44.749  0.00  0.00    +0.000 C 
ATOM     14  C   UNL     1      45.470  29.643  44.624  0.00  0.00    +0.000 C 
BRANCH   9  15
ATOM     15  O   UNL     1      45.657  30.423  42.422  0.00  0.00    +0.000 OA
ATOM     16  H   UNL     1      45.337  30.988  41.675  0.00  0.00    +0.000 HD
ENDBRANCH   9  15
BRANCH  13  17
ATOM     17  O   UNL     1      47.279  28.888  45.899  0.00  0.00    +0.000 OA
ATOM     18  H   UNL     1      48.207  28.561  45.773  0.00  0.00    +0.000 HD
ENDBRANCH  13  17
BRANCH  14  19
ATOM     19  O   UNL     1      45.045  28.438  44.062  0.00  0.00    +0.000 OA
ATOM     20  H   UNL     1      44.151  28.183  44.409  0.00  0.00    +0.000 HD
ENDBRANCH  14  19
ENDBRANCH   5  10
BRANCH   1  21
ATOM     21  C   UNL     1      44.858  36.830  44.215  0.00  0.00    +0.000 C 
ATOM     22  C   UNL     1      45.235  37.843  43.466  0.00  0.00    +0.000 C 
BRANCH  22  23
ATOM     23  C   UNL     1      45.425  39.214  43.977  0.00  0.00    +0.000 C 
ATOM     24  H   UNL     1      44.422  39.722  43.929  0.00  0.00    +0.000 HD
ATOM     25  H   UNL     1      46.077  39.801  43.326  0.00  0.00    +0.000 HD
ATOM     26  H   UNL     1      45.708  39.238  45.039  0.00  0.00    +0.000 HD
ENDBRANCH  22  23
ENDBRANCH   1  21
TORSDOF 6
