
     RDKit          3D

 30 31  0  0  0  0  0  0  0  0999 V2000
   44.3829   35.7790   44.4335 C   0  0  0  0  0  0  0  0  0  0  0  0
   44.6644   35.0699   43.2768 C   0  0  0  0  0  0  0  0  0  0  0  0
   45.2884   33.8346   43.3925 C   0  0  0  0  0  0  0  0  0  0  0  0
   45.5922   33.3804   44.6245 N   0  0  0  0  0  0  0  0  0  0  0  0
   45.3078   34.0908   45.7449 C   0  0  0  0  0  0  0  0  0  0  0  0
   44.6992   35.3001   45.6676 N   0  0  0  0  0  0  0  0  0  0  0  0
   44.2642   35.7112   41.9971 C   0  0  0  0  0  0  0  0  0  0  0  0
   43.8972   36.7463   44.3890 H   0  0  0  0  0  0  0  0  0  0  0  0
   45.4956   33.3043   42.4726 H   0  0  0  0  0  0  0  0  0  0  0  0
   43.2092   35.4279   41.8083 H   0  0  0  0  0  0  0  0  0  0  0  0
   44.9305   35.2707   41.2102 H   0  0  0  0  0  0  0  0  0  0  0  0
   44.4350   36.7831   42.0780 H   0  0  0  0  0  0  0  0  0  0  0  0
   46.9497   31.6037   46.5829 O   0  0  0  0  0  0  0  0  0  0  0  0
   45.6995   32.0128   47.0791 C   0  0  2  0  0  0  0  0  0  0  0  0
   45.6619   33.5459   47.0556 C   0  0  1  0  0  0  0  0  0  0  0  0
   46.9435   33.9105   47.4834 O   0  0  0  0  0  0  0  0  0  0  0  0
   46.9383   33.7920   48.8600 C   0  0  0  0  0  0  0  0  0  0  0  0
   46.5890   32.4335   49.3833 C   0  0  2  0  0  0  0  0  0  0  0  0
   47.7566   31.6827   49.4954 O   0  0  0  0  0  0  0  0  0  0  0  0
   45.6025   31.6655   48.5642 C   0  0  1  0  0  0  0  0  0  0  0  0
   44.3172   32.0372   48.9672 O   0  0  0  0  0  0  0  0  0  0  0  0
   46.8305   31.0173   45.7932 H   0  0  0  0  0  0  0  0  0  0  0  0
   44.8630   31.5506   46.5587 H   0  0  0  0  0  0  0  0  0  0  0  0
   44.9418   33.8769   47.8316 H   0  0  0  0  0  0  0  0  0  0  0  0
   47.9528   34.0508   49.2568 H   0  0  0  0  0  0  0  0  0  0  0  0
   46.2553   34.5938   49.2317 H   0  0  0  0  0  0  0  0  0  0  0  0
   46.1247   32.5812   50.3993 H   0  0  0  0  0  0  0  0  0  0  0  0
   48.3430   32.1080   50.1695 H   0  0  0  0  0  0  0  0  0  0  0  0
   45.7710   30.5748   48.7095 H   0  0  0  0  0  0  0  0  0  0  0  0
   44.3254   32.6160   49.7538 H   0  0  0  0  0  0  0  0  0  0  0  0
  1  6  2  0
  2  3  2  0
  2  1  1  0
  3  4  1  0
  4  5  2  0
  6  5  1  0
  7  2  1  0
  1  8  1  0
  3  9  1  0
  7 10  1  0
  7 11  1  0
  7 12  1  0
 13 14  1  0
 14 15  1  0
 15 16  1  0
 16 17  1  0
 17 18  1  0
 18 19  1  0
 18 20  1  0
 20 21  1  0
 20 14  1  0
 13 22  1  0
 14 23  1  6
 15 24  1  1
 17 25  1  0
 17 26  1  0
 18 27  1  1
 19 28  1  0
 20 29  1  6
 21 30  1  0
  5 15  1  0
M  ISO  5   8  14   9  14  10   8  11   8  12   8
M  END
>  <DihAtoms>  (1) 
3,4,14,13

>  <DihDeg>  (1) 
107.50952945895756

$$$$
