
     RDKit          3D

 30 31  0  0  0  0  0  0  0  0999 V2000
   44.3869   35.7709   44.4362 C   0  0  0  0  0  0  0  0  0  0  0  0
   44.6696   35.0568   43.2578 C   0  0  0  0  0  0  0  0  0  0  0  0
   45.2929   33.8255   43.3936 C   0  0  0  0  0  0  0  0  0  0  0  0
   45.5902   33.3857   44.6330 N   0  0  0  0  0  0  0  0  0  0  0  0
   45.3074   34.0911   45.7392 C   0  0  0  0  0  0  0  0  0  0  0  0
   44.6944   35.3096   45.6662 N   0  0  0  0  0  0  0  0  0  0  0  0
   44.2576   35.7265   42.0109 C   0  0  0  0  0  0  0  0  0  0  0  0
   43.8983   36.7532   44.4668 H   0  0  0  0  0  0  0  0  0  0  0  0
   45.4913   33.3120   42.4632 H   0  0  0  0  0  0  0  0  0  0  0  0
   45.5700   33.6868   46.7080 H   0  0  0  0  0  0  0  0  0  0  0  0
   44.9845   35.3668   41.2299 H   0  0  0  0  0  0  0  0  0  0  0  0
   44.3288   36.8152   42.1129 H   0  0  0  0  0  0  0  0  0  0  0  0
   42.8561   37.1322   40.1091 O   0  0  0  0  0  0  0  0  0  0  0  0
   42.5807   35.7519   40.1938 C   0  0  1  0  0  0  0  0  0  0  0  0
   42.8441   35.3656   41.6062 C   0  0  2  0  0  0  0  0  0  0  0  0
   41.9070   35.7183   42.5158 O   0  0  0  0  0  0  0  0  0  0  0  0
   40.6118   35.6759   42.1666 C   0  0  0  0  0  0  0  0  0  0  0  0
   40.2131   36.0758   40.7979 C   0  0  2  0  0  0  0  0  0  0  0  0
   38.9611   35.5215   40.5242 O   0  0  0  0  0  0  0  0  0  0  0  0
   41.1658   35.5415   39.7517 C   0  0  1  0  0  0  0  0  0  0  0  0
   40.8594   36.2007   38.5757 O   0  0  0  0  0  0  0  0  0  0  0  0
   42.9520   37.4212   39.1754 H   0  0  0  0  0  0  0  0  0  0  0  0
   43.2724   35.2490   39.4880 H   0  0  0  0  0  0  0  0  0  0  0  0
   42.8248   34.2330   41.5940 H   0  0  0  0  0  0  0  0  0  0  0  0
   39.9878   36.2833   42.8743 H   0  0  0  0  0  0  0  0  0  0  0  0
   40.2462   34.6157   42.3025 H   0  0  0  0  0  0  0  0  0  0  0  0
   40.0831   37.1744   40.7073 H   0  0  0  0  0  0  0  0  0  0  0  0
   38.2239   36.0802   40.8379 H   0  0  0  0  0  0  0  0  0  0  0  0
   40.9635   34.4509   39.6516 H   0  0  0  0  0  0  0  0  0  0  0  0
   40.2536   36.9485   38.6902 H   0  0  0  0  0  0  0  0  0  0  0  0
  1  6  2  0
  2  3  2  0
  2  1  1  0
  3  4  1  0
  4  5  2  0
  6  5  1  0
  7  2  1  0
  1  8  1  0
  3  9  1  0
  5 10  1  0
  7 11  1  0
  7 12  1  0
 13 14  1  0
 14 15  1  0
 15 16  1  0
 16 17  1  0
 17 18  1  0
 18 19  1  0
 18 20  1  0
 20 21  1  0
 20 14  1  0
 13 22  1  0
 14 23  1  6
 15 24  1  6
 17 25  1  0
 17 26  1  0
 18 27  1  1
 19 28  1  0
 20 29  1  6
 21 30  1  0
  7 15  1  0
M  ISO  5   8  14   9  14  10  14  11   8  12   8
M  END
>  <DihAtoms>  (1) 
1,6,14,13

>  <DihDeg>  (1) 
-60.04773343459554

$$$$
