
 OpenBabel03242514503D

 47 50  0  0  1  0  0  0  0  0999 V2000
   46.0820   35.2530   42.1740 C   0  0  0  0  0  0  0  0  0  0  0  0
   46.9690   35.2980   41.5690 H   0  0  0  0  0  0  0  0  0  0  0  0
   45.9510   36.3150   42.5550 H   0  0  0  0  0  0  0  0  0  0  0  0
   46.0900   33.4560   39.9250 F   0  0  0  0  0  0  0  0  0  0  0  0
   44.9650   34.0560   40.2960 C   0  0  0  0  0  0  0  0  0  0  0  0
   44.8920   34.9260   41.3710 C   0  0  0  0  0  0  0  0  0  0  0  0
   43.6860   35.4980   41.6990 C   0  0  0  0  0  0  0  0  0  0  0  0
   42.5840   35.1710   40.9290 C   0  0  0  0  0  0  0  0  0  0  0  0
   42.5970   34.3230   39.8630 C   0  0  0  0  0  0  0  0  0  0  0  0
   43.8290   33.7430   39.5320 C   0  0  0  0  0  0  0  0  0  0  0  0
   43.6360   36.1780   42.5400 H   0  0  0  0  0  0  0  0  0  0  0  0
   41.6590   35.6500   41.2320 H   0  0  0  0  0  0  0  0  0  0  0  0
   41.6870   34.1230   39.3140 H   0  0  0  0  0  0  0  0  0  0  0  0
   45.1030   33.0200   37.5210 C   0  0  1  0  0  0  0  0  0  0  0  0
   43.9270   32.8110   38.3860 C   0  0  1  0  0  0  0  0  0  0  0  0
   43.8540   31.4900   38.7950 O   0  0  0  0  0  0  0  0  0  0  0  0
   45.0540   30.8330   38.6760 C   0  0  0  0  0  0  0  0  0  0  0  0
   45.3400   30.5940   37.1910 C   0  0  1  0  0  0  0  0  0  0  0  0
   45.1770   31.9200   36.4830 C   0  0  1  0  0  0  0  0  0  0  0  0
   44.8450   34.1970   36.7690 O   0  0  0  0  0  0  0  0  0  0  0  0
   44.0460   33.9590   36.2300 H   0  0  0  0  0  0  0  0  0  0  0  0
   46.6320   30.0940   37.0060 O   0  0  0  0  0  0  0  0  0  0  0  0
   46.5400   29.2460   36.4990 H   0  0  0  0  0  0  0  0  0  0  0  0
   44.0090   31.8530   35.7270 O   0  0  0  0  0  0  0  0  0  0  0  0
   43.5780   30.9770   35.7410 H   0  0  0  0  0  0  0  0  0  0  0  0
   46.1720   34.4620   43.4280 C   0  0  0  0  0  0  0  0  0  0  0  0
   47.1160   33.4490   43.4750 C   0  0  0  0  0  0  0  0  0  0  0  0
   47.2010   32.7190   44.6780 C   0  0  0  0  0  0  0  0  0  0  0  0
   46.3760   33.0340   45.7070 N   0  0  0  0  0  0  0  0  0  0  0  0
   45.4800   34.0270   45.6050 C   0  0  0  0  0  0  0  0  0  0  0  0
   45.3890   34.7190   44.4840 N   0  0  0  0  0  0  0  0  0  0  0  0
   47.9170   31.9330   44.7470 H   0  0  0  0  0  0  0  0  0  0  0  0
   44.8370   34.2550   46.4410 H   0  0  0  0  0  0  0  0  0  0  0  0
   49.2070   34.0200   42.2400 C   0  0  2  0  0  0  0  0  0  0  0  0
   47.9810   33.0650   42.3250 C   0  0  1  0  0  0  0  0  0  0  0  0
   48.4150   31.7980   42.3050 O   0  0  0  0  0  0  0  0  0  0  0  0
   49.7680   31.7450   42.5160 C   0  0  0  0  0  0  0  0  0  0  0  0
   50.2830   32.9800   41.8400 C   0  0  1  0  0  0  0  0  0  0  0  0
   49.2040   34.7220   41.4210 H   0  0  0  0  0  0  0  0  0  0  0  0
   47.6700   33.3100   41.3550 H   0  0  0  0  0  0  0  0  0  0  0  0
   50.1320   30.8040   42.0270 H   0  0  0  0  0  0  0  0  0  0  0  0
   50.0910   31.7050   43.5630 H   0  0  0  0  0  0  0  0  0  0  0  0
   51.2560   33.2970   42.2220 H   0  0  0  0  0  0  0  0  0  0  0  0
   49.5370   34.6280   43.3800 O   0  0  0  0  0  0  0  0  0  0  0  0
   49.2030   35.5730   43.4080 H   0  0  0  0  0  0  0  0  0  0  0  0
   50.2610   32.7380   40.4820 O   0  0  0  0  0  0  0  0  0  0  0  0
   50.9140   33.3370   39.9970 H   0  0  0  0  0  0  0  0  0  0  0  0
  1  3  1  0  0  0  0
  1 26  1  0  0  0  0
  2  1  1  0  0  0  0
  4  5  1  0  0  0  0
  5  6  1  0  0  0  0
  6  7  2  0  0  0  0
  6  1  1  0  0  0  0
  7 11  1  0  0  0  0
  8 12  1  0  0  0  0
  8  7  1  0  0  0  0
  9  8  2  0  0  0  0
 10  9  1  0  0  0  0
 10  5  2  0  0  0  0
 13  9  1  0  0  0  0
 14 20  1  6  0  0  0
 14 15  1  0  0  0  0
 15 16  1  0  0  0  0
 15 10  1  1  0  0  0
 17 16  1  0  0  0  0
 18 22  1  1  0  0  0
 18 17  1  0  0  0  0
 19 24  1  1  0  0  0
 19 18  1  0  0  0  0
 19 14  1  0  0  0  0
 21 20  1  0  0  0  0
 23 22  1  0  0  0  0
 24 25  1  0  0  0  0
 26 27  2  0  0  0  0
 26 31  1  0  0  0  0
 27 28  1  0  0  0  0
 28 32  1  0  0  0  0
 28 29  2  0  0  0  0
 30 29  1  0  0  0  0
 30 33  1  0  0  0  0
 31 30  2  0  0  0  0
 34 39  1  6  0  0  0
 34 35  1  0  0  0  0
 34 44  1  0  0  0  0
 35 40  1  6  0  0  0
 35 27  1  0  0  0  0
 36 35  1  0  0  0  0
 36 37  1  0  0  0  0
 37 42  1  0  0  0  0
 38 43  1  1  0  0  0
 38 34  1  0  0  0  0
 38 37  1  0  0  0  0
 41 37  1  0  0  0  0
 44 45  1  0  0  0  0
 46 38  1  0  0  0  0
 47 46  1  0  0  0  0
M  END
>  <minimizedAffinity>
-6.9513278

>  <minimizedRMSD>
0.520544648

$$$$
