
     RDKit          3D

 30 31  0  0  0  0  0  0  0  0999 V2000
   44.3869   35.7709   44.4362 C   0  0  0  0  0  0  0  0  0  0  0  0
   44.6696   35.0568   43.2578 C   0  0  0  0  0  0  0  0  0  0  0  0
   45.2929   33.8255   43.3936 C   0  0  0  0  0  0  0  0  0  0  0  0
   45.5902   33.3857   44.6330 N   0  0  0  0  0  0  0  0  0  0  0  0
   45.3074   34.0911   45.7392 C   0  0  0  0  0  0  0  0  0  0  0  0
   44.6944   35.3096   45.6662 N   0  0  0  0  0  0  0  0  0  0  0  0
   44.2576   35.7265   42.0109 C   0  0  0  0  0  0  0  0  0  0  0  0
   43.8983   36.7532   44.4668 H   0  0  0  0  0  0  0  0  0  0  0  0
   45.4913   33.3120   42.4632 H   0  0  0  0  0  0  0  0  0  0  0  0
   45.5700   33.6868   46.7080 H   0  0  0  0  0  0  0  0  0  0  0  0
   44.9845   35.3668   41.2299 H   0  0  0  0  0  0  0  0  0  0  0  0
   44.3288   36.8152   42.1129 H   0  0  0  0  0  0  0  0  0  0  0  0
   43.2730   36.1960   39.4875 O   0  0  0  0  0  0  0  0  0  0  0  0
   42.7695   35.0591   40.1522 C   0  0  1  0  0  0  0  0  0  0  0  0
   42.8441   35.3656   41.6062 C   0  0  2  0  0  0  0  0  0  0  0  0
   41.9027   36.2034   42.0980 O   0  0  0  0  0  0  0  0  0  0  0  0
   40.6528   36.1349   41.6140 C   0  0  0  0  0  0  0  0  0  0  0  0
   40.4437   35.8750   40.1715 C   0  0  2  0  0  0  0  0  0  0  0  0
   39.1461   35.3906   39.9947 O   0  0  0  0  0  0  0  0  0  0  0  0
   41.3825   34.8120   39.6457 C   0  0  1  0  0  0  0  0  0  0  0  0
   41.2899   34.8607   38.2670 O   0  0  0  0  0  0  0  0  0  0  0  0
   43.4947   35.9947   38.5522 H   0  0  0  0  0  0  0  0  0  0  0  0
   43.4276   34.2124   39.8703 H   0  0  0  0  0  0  0  0  0  0  0  0
   42.6410   34.3723   42.1116 H   0  0  0  0  0  0  0  0  0  0  0  0
   40.0782   37.0668   41.8600 H   0  0  0  0  0  0  0  0  0  0  0  0
   40.1085   35.3112   42.1631 H   0  0  0  0  0  0  0  0  0  0  0  0
   40.5034   36.8052   39.5688 H   0  0  0  0  0  0  0  0  0  0  0  0
   38.4860   36.1044   39.9008 H   0  0  0  0  0  0  0  0  0  0  0  0
   41.0139   33.8326   40.0269 H   0  0  0  0  0  0  0  0  0  0  0  0
   40.8069   35.6313   37.9321 H   0  0  0  0  0  0  0  0  0  0  0  0
  1  6  2  0
  2  3  2  0
  2  1  1  0
  3  4  1  0
  4  5  2  0
  6  5  1  0
  7  2  1  0
  1  8  1  0
  3  9  1  0
  5 10  1  0
  7 11  1  0
  7 12  1  0
 13 14  1  0
 14 15  1  0
 15 16  1  0
 16 17  1  0
 17 18  1  0
 18 19  1  0
 18 20  1  0
 20 21  1  0
 20 14  1  0
 13 22  1  0
 14 23  1  1
 15 24  1  1
 17 25  1  0
 17 26  1  0
 18 27  1  6
 19 28  1  0
 20 29  1  1
 21 30  1  0
  7 15  1  0
M  ISO  5   8  14   9  14  10  14  11   8  12   8
M  END
>  <DihAtoms>  (1) 
1,6,14,13

>  <DihDeg>  (1) 
-60.04773343459554

$$$$
