
 OpenBabel03242522093D

 47 50  0  0  1  0  0  0  0  0999 V2000
   35.4840   29.9290   40.2890 C   0  0  0  0  0  0  0  0  0  0  0  0
   36.0060   28.7470   40.8370 C   0  0  0  0  0  0  0  0  0  0  0  0
   37.3590   28.7310   41.1920 C   0  0  0  0  0  0  0  0  0  0  0  0
   38.0730   29.8700   40.9800 N   0  0  0  0  0  0  0  0  0  0  0  0
   37.5270   30.9890   40.4490 C   0  0  0  0  0  0  0  0  0  0  0  0
   36.2180   31.0130   40.1010 N   0  0  0  0  0  0  0  0  0  0  0  0
   34.4360   29.9120   40.0250 H   0  0  0  0  0  0  0  0  0  0  0  0
   35.4660   27.8380   41.0140 H   0  0  0  0  0  0  0  0  0  0  0  0
   38.0200   27.6040   41.7560 N   0  0  0  0  0  0  0  0  0  0  0  0
   38.2070   27.5080   43.1870 C   0  0  0  0  0  0  0  0  0  0  0  0
   39.3310   26.5640   43.5360 C   0  0  0  0  0  0  0  0  0  0  0  0
   39.2610   25.3110   42.9210 N   0  0  0  0  0  0  0  0  0  0  0  0
   38.7700   25.2700   41.5810 C   0  0  2  0  0  0  0  0  0  0  0  0
   38.5030   26.5600   40.9110 C   0  0  0  0  0  0  0  0  0  0  0  0
   38.3860   28.4800   43.6820 H   0  0  0  0  0  0  0  0  0  0  0  0
   37.2700   27.0790   43.6100 H   0  0  0  0  0  0  0  0  0  0  0  0
   39.3300   26.4650   44.6330 H   0  0  0  0  0  0  0  0  0  0  0  0
   40.2800   27.0720   43.2110 H   0  0  0  0  0  0  0  0  0  0  0  0
   38.8800   24.5810   43.5570 H   0  0  0  0  0  0  0  0  0  0  0  0
   39.5130   24.6950   40.9640 H   0  0  0  0  0  0  0  0  0  0  0  0
   37.7660   26.4160   40.1050 H   0  0  0  0  0  0  0  0  0  0  0  0
   39.4540   26.9070   40.4190 H   0  0  0  0  0  0  0  0  0  0  0  0
   37.4860   24.4790   41.5570 C   0  0  0  0  0  0  0  0  0  0  0  0
   37.7490   23.1190   41.4580 F   0  0  0  0  0  0  0  0  0  0  0  0
   36.8290   24.8400   40.3920 F   0  0  0  0  0  0  0  0  0  0  0  0
   36.7060   24.6740   42.6580 F   0  0  0  0  0  0  0  0  0  0  0  0
   38.3530   32.1690   40.2510 C   0  0  0  0  0  0  0  0  0  0  0  0
   37.8000   33.4280   40.4350 C   0  0  0  0  0  0  0  0  0  0  0  0
   38.6290   34.5340   40.2350 C   0  0  0  0  0  0  0  0  0  0  0  0
   39.9260   34.2820   39.8730 C   0  0  0  0  0  0  0  0  0  0  0  0
   40.4780   33.0410   39.6910 C   0  0  0  0  0  0  0  0  0  0  0  0
   39.6430   31.9820   39.8930 N   0  0  0  0  0  0  0  0  0  0  0  0
   36.7570   33.4860   40.7220 H   0  0  0  0  0  0  0  0  0  0  0  0
   38.2080   35.5190   40.3760 H   0  0  0  0  0  0  0  0  0  0  0  0
   40.5620   35.1450   39.7200 H   0  0  0  0  0  0  0  0  0  0  0  0
   42.0420   32.5280   37.8290 C   0  0  2  0  0  3  0  0  0  0  0  0
   41.9050   32.8720   39.2950 C   0  0  1  0  0  3  0  0  0  0  0  0
   42.5530   34.0950   39.4920 O   0  0  0  0  0  0  0  0  0  0  0  0
   43.9330   33.8420   39.3980 C   0  0  0  0  0  2  0  0  0  0  0  0
   44.3210   33.3810   38.0230 C   0  0  2  0  0  3  0  0  0  0  0  0
   43.1100   33.2910   37.1190 C   0  0  2  0  0  3  0  0  0  0  0  0
   40.8130   32.8640   37.2240 O   0  0  0  0  0  0  0  0  0  0  0  0
   40.1240   32.1940   37.4180 H   0  0  0  0  0  0  0  0  0  0  0  0
   44.9120   32.1070   38.0520 O   0  0  0  0  0  0  0  0  0  0  0  0
   44.2620   31.3920   37.8840 H   0  0  0  0  0  0  0  0  0  0  0  0
   42.6560   34.5340   36.6940 O   0  0  0  0  0  0  0  0  0  0  0  0
   42.9390   35.2610   37.3110 H   0  0  0  0  0  0  0  0  0  0  0  0
  1  2  1  0  0  0  0
  2  8  1  0  0  0  0
  2  3  2  0  0  0  0
  3  9  1  0  0  0  0
  4  3  1  0  0  0  0
  5  4  2  0  0  0  0
  6  1  2  0  0  0  0
  6  5  1  0  0  0  0
  7  1  1  0  0  0  0
  9 10  1  0  0  0  0
 10 11  1  0  0  0  0
 10 16  1  0  0  0  0
 10 15  1  0  0  0  0
 11 17  1  0  0  0  0
 12 11  1  0  0  0  0
 12 19  1  0  0  0  0
 13 20  1  6  0  0  0
 13 12  1  0  0  0  0
 14 13  1  0  0  0  0
 14  9  1  0  0  0  0
 18 11  1  0  0  0  0
 21 14  1  0  0  0  0
 22 14  1  0  0  0  0
 23 13  1  0  0  0  0
 23 26  1  0  0  0  0
 24 23  1  0  0  0  0
 25 23  1  0  0  0  0
 27 28  1  0  0  0  0
 27  5  1  0  0  0  0
 28 33  1  0  0  0  0
 29 34  1  0  0  0  0
 29 28  2  0  0  0  0
 30 29  1  0  0  0  0
 31 30  2  0  0  0  0
 31 32  1  0  0  0  0
 32 27  2  0  0  0  0
 35 30  1  0  0  0  0
 36 42  1  6  0  0  0
 36 37  1  0  0  0  0
 37 38  1  0  0  0  0
 37 31  1  6  0  0  0
 39 38  1  0  0  0  0
 40 44  1  1  0  0  0
 40 39  1  0  0  0  0
 41 46  1  1  0  0  0
 41 36  1  0  0  0  0
 41 40  1  0  0  0  0
 42 43  1  0  0  0  0
 45 44  1  0  0  0  0
 46 47  1  0  0  0  0
M  END
>  <minimizedAffinity>
-7.87466145

$$$$

 OpenBabel03242522093D

 47 50  0  0  1  0  0  0  0  0999 V2000
   35.5930   29.8160   40.3810 C   0  0  0  0  0  0  0  0  0  0  0  0
   35.3290   29.2410   39.1290 C   0  0  0  0  0  0  0  0  0  0  0  0
   35.9880   29.7680   38.0130 C   0  0  0  0  0  0  0  0  0  0  0  0
   36.8420   30.8060   38.2260 N   0  0  0  0  0  0  0  0  0  0  0  0
   37.0670   31.3290   39.4540 C   0  0  0  0  0  0  0  0  0  0  0  0
   36.4330   30.8260   40.5400 N   0  0  0  0  0  0  0  0  0  0  0  0
   35.0700   29.3870   41.2250 H   0  0  0  0  0  0  0  0  0  0  0  0
   34.6620   28.4240   38.9340 H   0  0  0  0  0  0  0  0  0  0  0  0
   35.8170   29.2840   36.6860 N   0  0  0  0  0  0  0  0  0  0  0  0
   34.5520   28.7160   36.2740 C   0  0  0  0  0  0  0  0  0  0  0  0
   34.7140   27.8220   35.0690 C   0  0  0  0  0  0  0  0  0  0  0  0
   35.4170   28.3900   34.0040 N   0  0  0  0  0  0  0  0  0  0  0  0
   36.5110   29.2470   34.3280 C   0  0  2  0  0  0  0  0  0  0  0  0
   36.8940   29.3580   35.7520 C   0  0  0  0  0  0  0  0  0  0  0  0
   34.0320   28.1550   37.0710 H   0  0  0  0  0  0  0  0  0  0  0  0
   33.8970   29.5640   35.9720 H   0  0  0  0  0  0  0  0  0  0  0  0
   33.7000   27.5250   34.7590 H   0  0  0  0  0  0  0  0  0  0  0  0
   35.2730   26.9130   35.4260 H   0  0  0  0  0  0  0  0  0  0  0  0
   34.7830   28.7410   33.2570 H   0  0  0  0  0  0  0  0  0  0  0  0
   37.4050   28.8940   33.7460 H   0  0  0  0  0  0  0  0  0  0  0  0
   37.4190   30.3100   35.9240 H   0  0  0  0  0  0  0  0  0  0  0  0
   37.6290   28.5380   35.9860 H   0  0  0  0  0  0  0  0  0  0  0  0
   36.2010   30.6400   33.8390 C   0  0  0  0  0  0  0  0  0  0  0  0
   36.7430   30.8480   32.5770 F   0  0  0  0  0  0  0  0  0  0  0  0
   36.8550   31.5080   34.6980 F   0  0  0  0  0  0  0  0  0  0  0  0
   34.8660   30.9080   33.7690 F   0  0  0  0  0  0  0  0  0  0  0  0
   37.9940   32.4400   39.6040 C   0  0  0  0  0  0  0  0  0  0  0  0
   37.5130   33.6840   39.9850 C   0  0  0  0  0  0  0  0  0  0  0  0
   38.4380   34.7220   40.1170 C   0  0  0  0  0  0  0  0  0  0  0  0
   39.7500   34.4220   39.8610 C   0  0  0  0  0  0  0  0  0  0  0  0
   40.2310   33.1960   39.4850 C   0  0  0  0  0  0  0  0  0  0  0  0
   39.3030   32.2040   39.3640 N   0  0  0  0  0  0  0  0  0  0  0  0
   36.4480   33.7850   40.1570 H   0  0  0  0  0  0  0  0  0  0  0  0
   38.0730   35.6950   40.4130 H   0  0  0  0  0  0  0  0  0  0  0  0
   40.4600   35.2330   39.9660 H   0  0  0  0  0  0  0  0  0  0  0  0
   41.9400   32.5740   37.7910 C   0  0  2  0  0  3  0  0  0  0  0  0
   41.6820   32.9720   39.2270 C   0  0  1  0  0  3  0  0  0  0  0  0
   42.3480   34.1820   39.4450 O   0  0  0  0  0  0  0  0  0  0  0  0
   43.7220   33.8860   39.4860 C   0  0  0  0  0  2  0  0  0  0  0  0
   44.2190   33.3670   38.1670 C   0  0  2  0  0  3  0  0  0  0  0  0
   43.0920   33.2820   37.1590 C   0  0  2  0  0  3  0  0  0  0  0  0
   40.7820   32.9260   37.0660 O   0  0  0  0  0  0  0  0  0  0  0  0
   40.0570   32.2830   37.2170 H   0  0  0  0  0  0  0  0  0  0  0  0
   44.7630   32.0780   38.2900 O   0  0  0  0  0  0  0  0  0  0  0  0
   44.1080   31.3770   38.0850 H   0  0  0  0  0  0  0  0  0  0  0  0
   42.7190   34.5230   36.6550 O   0  0  0  0  0  0  0  0  0  0  0  0
   42.9680   35.2610   37.2730 H   0  0  0  0  0  0  0  0  0  0  0  0
  1  6  1  0  0  0  0
  1  7  1  0  0  0  0
  2  1  2  0  0  0  0
  3  4  2  0  0  0  0
  3  2  1  0  0  0  0
  4  5  1  0  0  0  0
  5 27  1  0  0  0  0
  5  6  2  0  0  0  0
  8  2  1  0  0  0  0
  9  3  1  0  0  0  0
 10  9  1  0  0  0  0
 10 15  1  0  0  0  0
 11 18  1  0  0  0  0
 11 10  1  0  0  0  0
 12 13  1  0  0  0  0
 12 11  1  0  0  0  0
 13 20  1  6  0  0  0
 13 14  1  0  0  0  0
 14 21  1  0  0  0  0
 14 22  1  0  0  0  0
 14  9  1  0  0  0  0
 16 10  1  0  0  0  0
 17 11  1  0  0  0  0
 19 12  1  0  0  0  0
 23 13  1  0  0  0  0
 23 25  1  0  0  0  0
 24 23  1  0  0  0  0
 26 23  1  0  0  0  0
 27 28  1  0  0  0  0
 28 29  2  0  0  0  0
 28 33  1  0  0  0  0
 29 34  1  0  0  0  0
 30 35  1  0  0  0  0
 30 29  1  0  0  0  0
 31 30  2  0  0  0  0
 32 31  1  0  0  0  0
 32 27  2  0  0  0  0
 36 42  1  6  0  0  0
 36 37  1  0  0  0  0
 37 38  1  0  0  0  0
 37 31  1  6  0  0  0
 38 39  1  0  0  0  0
 40 44  1  1  0  0  0
 40 39  1  0  0  0  0
 41 46  1  1  0  0  0
 41 36  1  0  0  0  0
 41 40  1  0  0  0  0
 42 43  1  0  0  0  0
 45 44  1  0  0  0  0
 46 47  1  0  0  0  0
M  END
>  <minimizedAffinity>
-7.74441004

$$$$

 OpenBabel03242522093D

 47 50  0  0  1  0  0  0  0  0999 V2000
   35.8740   29.1660   37.4550 C   0  0  0  0  0  0  0  0  0  0  0  0
   35.9500   28.0290   38.2740 C   0  0  0  0  0  0  0  0  0  0  0  0
   36.7330   28.1050   39.4310 C   0  0  0  0  0  0  0  0  0  0  0  0
   37.3660   29.2840   39.6790 N   0  0  0  0  0  0  0  0  0  0  0  0
   37.2620   30.3570   38.8600 C   0  0  0  0  0  0  0  0  0  0  0  0
   36.5080   30.2920   37.7380 N   0  0  0  0  0  0  0  0  0  0  0  0
   35.2610   29.0770   36.5690 H   0  0  0  0  0  0  0  0  0  0  0  0
   35.4630   27.0900   38.1020 H   0  0  0  0  0  0  0  0  0  0  0  0
   36.9010   27.0320   40.3500 N   0  0  0  0  0  0  0  0  0  0  0  0
   37.1000   25.6820   39.8680 C   0  0  0  0  0  0  0  0  0  0  0  0
   36.7440   24.6620   40.9210 C   0  0  0  0  0  0  0  0  0  0  0  0
   37.3310   24.8750   42.1710 N   0  0  0  0  0  0  0  0  0  0  0  0
   37.4750   26.2280   42.6010 C   0  0  2  0  0  0  0  0  0  0  0  0
   36.8740   27.2810   41.7550 C   0  0  0  0  0  0  0  0  0  0  0  0
   36.5450   25.4510   38.9410 H   0  0  0  0  0  0  0  0  0  0  0  0
   38.1870   25.5710   39.6520 H   0  0  0  0  0  0  0  0  0  0  0  0
   37.0280   23.6790   40.5150 H   0  0  0  0  0  0  0  0  0  0  0  0
   35.6260   24.7060   41.0360 H   0  0  0  0  0  0  0  0  0  0  0  0
   38.1640   24.2690   42.3230 H   0  0  0  0  0  0  0  0  0  0  0  0
   37.0350   26.3060   43.6320 H   0  0  0  0  0  0  0  0  0  0  0  0
   37.3870   28.2400   41.9330 H   0  0  0  0  0  0  0  0  0  0  0  0
   35.8040   27.4250   42.0750 H   0  0  0  0  0  0  0  0  0  0  0  0
   38.9440   26.5440   42.7340 C   0  0  0  0  0  0  0  0  0  0  0  0
   39.3570   26.4110   44.0530 F   0  0  0  0  0  0  0  0  0  0  0  0
   39.0840   27.8830   42.4090 F   0  0  0  0  0  0  0  0  0  0  0  0
   39.7430   25.7510   41.9640 F   0  0  0  0  0  0  0  0  0  0  0  0
   37.9680   31.5850   39.1910 C   0  0  0  0  0  0  0  0  0  0  0  0
   37.2500   32.6920   39.6200 C   0  0  0  0  0  0  0  0  0  0  0  0
   37.9670   33.8490   39.9270 C   0  0  0  0  0  0  0  0  0  0  0  0
   39.3280   33.7950   39.7790 C   0  0  0  0  0  0  0  0  0  0  0  0
   40.0430   32.7070   39.3560 C   0  0  0  0  0  0  0  0  0  0  0  0
   39.3140   31.5920   39.0640 N   0  0  0  0  0  0  0  0  0  0  0  0
   36.1720   32.5990   39.6930 H   0  0  0  0  0  0  0  0  0  0  0  0
   37.4160   34.7160   40.2620 H   0  0  0  0  0  0  0  0  0  0  0  0
   39.8760   34.6980   40.0190 H   0  0  0  0  0  0  0  0  0  0  0  0
   41.9730   32.5080   37.8030 C   0  0  2  0  0  3  0  0  0  0  0  0
   41.5270   32.7490   39.2270 C   0  0  1  0  0  3  0  0  0  0  0  0
   41.9520   34.0340   39.5790 O   0  0  0  0  0  0  0  0  0  0  0  0
   43.3480   33.9710   39.7350 C   0  0  0  0  0  2  0  0  0  0  0  0
   44.0380   33.6420   38.4420 C   0  0  2  0  0  3  0  0  0  0  0  0
   43.0330   33.4440   37.3270 C   0  0  2  0  0  3  0  0  0  0  0  0
   40.8370   32.7130   36.9910 O   0  0  0  0  0  0  0  0  0  0  0  0
   40.2250   31.9480   37.0330 H   0  0  0  0  0  0  0  0  0  0  0  0
   44.7860   32.4570   38.5420 O   0  0  0  0  0  0  0  0  0  0  0  0
   44.2830   31.6740   38.2340 H   0  0  0  0  0  0  0  0  0  0  0  0
   42.4940   34.6380   36.8630 O   0  0  0  0  0  0  0  0  0  0  0  0
   42.5570   35.3600   37.5440 H   0  0  0  0  0  0  0  0  0  0  0  0
  1  6  2  0  0  0  0
  1  2  1  0  0  0  0
  2  3  2  0  0  0  0
  3  4  1  0  0  0  0
  3  9  1  0  0  0  0
  5 27  1  0  0  0  0
  5  4  2  0  0  0  0
  6  5  1  0  0  0  0
  7  1  1  0  0  0  0
  8  2  1  0  0  0  0
  9 14  1  0  0  0  0
 10  9  1  0  0  0  0
 10 11  1  0  0  0  0
 11 18  1  0  0  0  0
 11 12  1  0  0  0  0
 12 19  1  0  0  0  0
 12 13  1  0  0  0  0
 13 23  1  0  0  0  0
 13 20  1  1  0  0  0
 14 21  1  0  0  0  0
 14 22  1  0  0  0  0
 14 13  1  0  0  0  0
 15 10  1  0  0  0  0
 16 10  1  0  0  0  0
 17 11  1  0  0  0  0
 23 24  1  0  0  0  0
 25 23  1  0  0  0  0
 26 23  1  0  0  0  0
 27 28  1  0  0  0  0
 28 33  1  0  0  0  0
 28 29  2  0  0  0  0
 29 34  1  0  0  0  0
 30 29  1  0  0  0  0
 30 35  1  0  0  0  0
 31 30  2  0  0  0  0
 32 27  2  0  0  0  0
 32 31  1  0  0  0  0
 36 42  1  6  0  0  0
 36 37  1  0  0  0  0
 37 31  1  6  0  0  0
 37 38  1  0  0  0  0
 38 39  1  0  0  0  0
 40 44  1  1  0  0  0
 40 39  1  0  0  0  0
 41 46  1  1  0  0  0
 41 36  1  0  0  0  0
 41 40  1  0  0  0  0
 42 43  1  0  0  0  0
 45 44  1  0  0  0  0
 46 47  1  0  0  0  0
M  END
>  <minimizedAffinity>
-7.45216656

$$$$

 OpenBabel03242522093D

 47 50  0  0  1  0  0  0  0  0999 V2000
   34.6180   27.8470   36.4080 C   0  0  0  0  0  0  0  0  0  0  0  0
   33.2780   28.2600   36.3490 C   0  0  0  0  0  0  0  0  0  0  0  0
   32.8070   29.1040   37.3600 C   0  0  0  0  0  0  0  0  0  0  0  0
   33.6880   29.4670   38.3310 N   0  0  0  0  0  0  0  0  0  0  0  0
   34.9740   29.0440   38.3480 C   0  0  0  0  0  0  0  0  0  0  0  0
   35.4390   28.2250   37.3750 N   0  0  0  0  0  0  0  0  0  0  0  0
   34.9540   27.1950   35.6140 H   0  0  0  0  0  0  0  0  0  0  0  0
   32.5650   27.9890   35.5960 H   0  0  0  0  0  0  0  0  0  0  0  0
   31.4740   29.6000   37.4250 N   0  0  0  0  0  0  0  0  0  0  0  0
   30.8580   29.8680   38.7060 C   0  0  0  0  0  0  0  0  0  0  0  0
   29.3530   29.8760   38.6030 C   0  0  0  0  0  0  0  0  0  0  0  0
   28.8350   30.6780   37.5820 N   0  0  0  0  0  0  0  0  0  0  0  0
   29.5700   30.7300   36.3600 C   0  0  2  0  0  0  0  0  0  0  0  0
   30.7380   29.8340   36.2250 C   0  0  0  0  0  0  0  0  0  0  0  0
   31.1600   29.1670   39.5050 H   0  0  0  0  0  0  0  0  0  0  0  0
   31.1750   30.8900   39.0120 H   0  0  0  0  0  0  0  0  0  0  0  0
   28.9720   30.1960   39.5860 H   0  0  0  0  0  0  0  0  0  0  0  0
   29.0450   28.8110   38.4150 H   0  0  0  0  0  0  0  0  0  0  0  0
   28.4960   31.5960   37.9370 H   0  0  0  0  0  0  0  0  0  0  0  0
   28.8540   30.5100   35.5230 H   0  0  0  0  0  0  0  0  0  0  0  0
   31.4380   30.2430   35.4790 H   0  0  0  0  0  0  0  0  0  0  0  0
   30.3810   28.8450   35.8230 H   0  0  0  0  0  0  0  0  0  0  0  0
   30.0610   32.1410   36.1460 C   0  0  0  0  0  0  0  0  0  0  0  0
   29.1880   32.8460   35.3280 F   0  0  0  0  0  0  0  0  0  0  0  0
   31.2550   32.0340   35.4510 F   0  0  0  0  0  0  0  0  0  0  0  0
   30.2110   32.8460   37.3040 F   0  0  0  0  0  0  0  0  0  0  0  0
   35.8590   29.4730   39.4200 C   0  0  0  0  0  0  0  0  0  0  0  0
   35.6870   28.9540   40.6950 C   0  0  0  0  0  0  0  0  0  0  0  0
   36.5580   29.3920   41.6940 C   0  0  0  0  0  0  0  0  0  0  0  0
   37.5150   30.3020   41.3300 C   0  0  0  0  0  0  0  0  0  0  0  0
   37.6890   30.8180   40.0730 C   0  0  0  0  0  0  0  0  0  0  0  0
   36.8230   30.3710   39.1200 N   0  0  0  0  0  0  0  0  0  0  0  0
   34.8880   28.2380   40.8470 H   0  0  0  0  0  0  0  0  0  0  0  0
   36.4320   28.9930   42.6900 H   0  0  0  0  0  0  0  0  0  0  0  0
   38.1860   30.6370   42.1110 H   0  0  0  0  0  0  0  0  0  0  0  0
   38.2060   33.2010   39.5910 C   0  0  2  0  0  3  0  0  0  0  0  0
   38.7640   31.8080   39.7780 C   0  0  1  0  0  3  0  0  0  0  0  0
   39.6210   31.8530   40.8820 O   0  0  0  0  0  0  0  0  0  0  0  0
   40.7690   32.5550   40.4750 C   0  0  0  0  0  2  0  0  0  0  0  0
   40.4550   33.9830   40.1310 C   0  0  2  0  0  3  0  0  0  0  0  0
   38.9770   34.2670   40.2950 C   0  0  2  0  0  3  0  0  0  0  0  0
   36.9080   33.1870   40.1430 O   0  0  0  0  0  0  0  0  0  0  0  0
   36.2700   32.7450   39.5440 H   0  0  0  0  0  0  0  0  0  0  0  0
   40.7890   34.2810   38.8000 O   0  0  0  0  0  0  0  0  0  0  0  0
   40.0240   34.1830   38.1940 H   0  0  0  0  0  0  0  0  0  0  0  0
   38.5900   34.3870   41.6250 O   0  0  0  0  0  0  0  0  0  0  0  0
   39.2220   33.9200   42.2350 H   0  0  0  0  0  0  0  0  0  0  0  0
  1  6  1  0  0  0  0
  2  1  2  0  0  0  0
  2  3  1  0  0  0  0
  3  9  1  0  0  0  0
  3  4  2  0  0  0  0
  4  5  1  0  0  0  0
  5 27  1  0  0  0  0
  6  5  2  0  0  0  0
  7  1  1  0  0  0  0
  8  2  1  0  0  0  0
  9 10  1  0  0  0  0
 10 16  1  0  0  0  0
 10 15  1  0  0  0  0
 11 10  1  0  0  0  0
 11 17  1  0  0  0  0
 12 19  1  0  0  0  0
 12 11  1  0  0  0  0
 13 20  1  6  0  0  0
 13 12  1  0  0  0  0
 14 13  1  0  0  0  0
 14  9  1  0  0  0  0
 18 11  1  0  0  0  0
 21 14  1  0  0  0  0
 22 14  1  0  0  0  0
 23 13  1  0  0  0  0
 23 26  1  0  0  0  0
 24 23  1  0  0  0  0
 25 23  1  0  0  0  0
 27 28  1  0  0  0  0
 28 33  1  0  0  0  0
 28 29  2  0  0  0  0
 29 34  1  0  0  0  0
 30 29  1  0  0  0  0
 30 35  1  0  0  0  0
 31 30  2  0  0  0  0
 32 27  2  0  0  0  0
 32 31  1  0  0  0  0
 36 37  1  0  0  0  0
 36 42  1  1  0  0  0
 36 41  1  0  0  0  0
 37 31  1  1  0  0  0
 37 38  1  0  0  0  0
 39 38  1  0  0  0  0
 40 44  1  6  0  0  0
 40 41  1  0  0  0  0
 40 39  1  0  0  0  0
 41 46  1  1  0  0  0
 43 42  1  0  0  0  0
 45 44  1  0  0  0  0
 46 47  1  0  0  0  0
M  END
>  <minimizedAffinity>
-7.33228588

$$$$

 OpenBabel03242522093D

 47 50  0  0  1  0  0  0  0  0999 V2000
   37.0260   32.4030   40.1080 C   0  0  0  0  0  0  0  0  0  0  0  0
   38.2860   33.0190   40.0790 C   0  0  0  0  0  0  0  0  0  0  0  0
   39.3560   32.3540   40.6880 C   0  0  0  0  0  0  0  0  0  0  0  0
   39.0930   31.1510   41.2670 N   0  0  0  0  0  0  0  0  0  0  0  0
   37.8590   30.5940   41.2710 C   0  0  0  0  0  0  0  0  0  0  0  0
   36.8180   31.2300   40.6840 N   0  0  0  0  0  0  0  0  0  0  0  0
   36.2190   32.9400   39.6280 H   0  0  0  0  0  0  0  0  0  0  0  0
   38.5190   33.9640   39.6300 H   0  0  0  0  0  0  0  0  0  0  0  0
   40.6850   32.8600   40.7350 N   0  0  0  0  0  0  0  0  0  0  0  0
   41.7370   32.0930   41.3640 C   0  0  0  0  0  0  0  0  0  0  0  0
   42.8960   32.9710   41.7670 C   0  0  0  0  0  0  0  0  0  0  0  0
   43.3770   33.8120   40.7610 N   0  0  0  0  0  0  0  0  0  0  0  0
   42.4160   34.3740   39.8670 C   0  0  2  0  0  0  0  0  0  0  0  0
   40.9870   34.1310   40.1590 C   0  0  0  0  0  0  0  0  0  0  0  0
   41.4030   31.5110   42.2430 H   0  0  0  0  0  0  0  0  0  0  0  0
   42.1150   31.3730   40.6030 H   0  0  0  0  0  0  0  0  0  0  0  0
   43.6880   32.2980   42.1310 H   0  0  0  0  0  0  0  0  0  0  0  0
   42.5270   33.6050   42.6200 H   0  0  0  0  0  0  0  0  0  0  0  0
   44.2360   33.4340   40.3100 H   0  0  0  0  0  0  0  0  0  0  0  0
   42.5890   35.4840   39.8360 H   0  0  0  0  0  0  0  0  0  0  0  0
   40.3970   34.2270   39.2340 H   0  0  0  0  0  0  0  0  0  0  0  0
   40.6260   34.9370   40.8560 H   0  0  0  0  0  0  0  0  0  0  0  0
   42.6840   33.8570   38.4760 C   0  0  0  0  0  0  0  0  0  0  0  0
   43.5220   34.7220   37.7840 F   0  0  0  0  0  0  0  0  0  0  0  0
   41.4660   33.8740   37.8150 F   0  0  0  0  0  0  0  0  0  0  0  0
   43.2520   32.6180   38.4550 F   0  0  0  0  0  0  0  0  0  0  0  0
   37.6550   29.3040   41.9110 C   0  0  0  0  0  0  0  0  0  0  0  0
   37.5920   29.2300   43.2950 C   0  0  0  0  0  0  0  0  0  0  0  0
   37.3940   27.9730   43.8670 C   0  0  0  0  0  0  0  0  0  0  0  0
   37.2760   26.9110   43.0100 C   0  0  0  0  0  0  0  0  0  0  0  0
   37.3370   26.9760   41.6430 C   0  0  0  0  0  0  0  0  0  0  0  0
   37.5320   28.2180   41.1150 N   0  0  0  0  0  0  0  0  0  0  0  0
   37.7010   30.1510   43.8560 H   0  0  0  0  0  0  0  0  0  0  0  0
   37.3430   27.9050   44.9440 H   0  0  0  0  0  0  0  0  0  0  0  0
   37.1230   25.9380   43.4630 H   0  0  0  0  0  0  0  0  0  0  0  0
   38.5440   25.2100   40.3780 C   0  0  2  0  0  3  0  0  0  0  0  0
   37.1980   25.7580   40.7960 C   0  0  1  0  0  3  0  0  0  0  0  0
   36.5730   24.7700   41.5630 O   0  0  0  0  0  0  0  0  0  0  0  0
   36.1900   23.7500   40.6760 C   0  0  0  0  0  2  0  0  0  0  0  0
   37.3790   23.0920   40.0380 C   0  0  2  0  0  3  0  0  0  0  0  0
   38.6690   23.7290   40.5100 C   0  0  2  0  0  3  0  0  0  0  0  0
   39.4960   25.7900   41.2430 O   0  0  0  0  0  0  0  0  0  0  0  0
   39.6870   26.7190   40.9930 H   0  0  0  0  0  0  0  0  0  0  0  0
   37.3470   23.2090   38.6380 O   0  0  0  0  0  0  0  0  0  0  0  0
   37.8610   23.9810   38.3180 H   0  0  0  0  0  0  0  0  0  0  0  0
   39.0180   23.3560   41.8020 O   0  0  0  0  0  0  0  0  0  0  0  0
   38.2270   23.0530   42.3240 H   0  0  0  0  0  0  0  0  0  0  0  0
  1  6  1  0  0  0  0
  2  1  2  0  0  0  0
  2  3  1  0  0  0  0
  3  9  1  0  0  0  0
  3  4  2  0  0  0  0
  4  5  1  0  0  0  0
  5 27  1  0  0  0  0
  6  5  2  0  0  0  0
  7  1  1  0  0  0  0
  8  2  1  0  0  0  0
  9 10  1  0  0  0  0
 10 11  1  0  0  0  0
 10 15  1  0  0  0  0
 11 17  1  0  0  0  0
 11 18  1  0  0  0  0
 12 11  1  0  0  0  0
 13 20  1  6  0  0  0
 13 14  1  0  0  0  0
 13 12  1  0  0  0  0
 14  9  1  0  0  0  0
 14 22  1  0  0  0  0
 16 10  1  0  0  0  0
 19 12  1  0  0  0  0
 21 14  1  0  0  0  0
 23 13  1  0  0  0  0
 24 23  1  0  0  0  0
 25 23  1  0  0  0  0
 26 23  1  0  0  0  0
 27 28  1  0  0  0  0
 28 33  1  0  0  0  0
 28 29  2  0  0  0  0
 29 34  1  0  0  0  0
 30 35  1  0  0  0  0
 30 29  1  0  0  0  0
 31 30  2  0  0  0  0
 32 31  1  0  0  0  0
 32 27  2  0  0  0  0
 36 41  1  0  0  0  0
 36 37  1  0  0  0  0
 36 42  1  1  0  0  0
 37 38  1  0  0  0  0
 37 31  1  1  0  0  0
 39 38  1  0  0  0  0
 40 44  1  6  0  0  0
 40 41  1  0  0  0  0
 40 39  1  0  0  0  0
 41 46  1  1  0  0  0
 43 42  1  0  0  0  0
 45 44  1  0  0  0  0
 46 47  1  0  0  0  0
M  END
>  <minimizedAffinity>
-6.77476835

$$$$

 OpenBabel03242522093D

 47 50  0  0  1  0  0  0  0  0999 V2000
   36.5570   29.5320   38.1120 C   0  0  0  0  0  0  0  0  0  0  0  0
   36.8880   28.4550   38.9500 C   0  0  0  0  0  0  0  0  0  0  0  0
   37.7580   28.6990   40.0180 C   0  0  0  0  0  0  0  0  0  0  0  0
   38.2210   29.9690   40.1680 N   0  0  0  0  0  0  0  0  0  0  0  0
   37.8740   30.9780   39.3350 C   0  0  0  0  0  0  0  0  0  0  0  0
   37.0340   30.7520   38.2970 N   0  0  0  0  0  0  0  0  0  0  0  0
   35.8830   29.3130   37.2960 H   0  0  0  0  0  0  0  0  0  0  0  0
   36.5370   27.4470   38.8540 H   0  0  0  0  0  0  0  0  0  0  0  0
   38.1780   27.7030   40.9450 N   0  0  0  0  0  0  0  0  0  0  0  0
   38.1960   27.9880   42.3630 C   0  0  0  0  0  0  0  0  0  0  0  0
   39.1210   27.0530   43.1020 C   0  0  0  0  0  0  0  0  0  0  0  0
   38.9290   25.6960   42.8310 N   0  0  0  0  0  0  0  0  0  0  0  0
   38.5800   25.3410   41.4930 C   0  0  2  0  0  0  0  0  0  0  0  0
   38.5840   26.4170   40.4790 C   0  0  0  0  0  0  0  0  0  0  0  0
   38.4670   29.0300   42.6080 H   0  0  0  0  0  0  0  0  0  0  0  0
   37.1660   27.8050   42.7450 H   0  0  0  0  0  0  0  0  0  0  0  0
   38.9900   27.2630   44.1750 H   0  0  0  0  0  0  0  0  0  0  0  0
   40.1650   27.3360   42.7940 H   0  0  0  0  0  0  0  0  0  0  0  0
   38.3760   25.2210   43.5750 H   0  0  0  0  0  0  0  0  0  0  0  0
   39.2880   24.5350   41.1590 H   0  0  0  0  0  0  0  0  0  0  0  0
   37.9220   26.1420   39.6420 H   0  0  0  0  0  0  0  0  0  0  0  0
   39.6230   26.5000   40.0540 H   0  0  0  0  0  0  0  0  0  0  0  0
   37.2010   24.7310   41.4940 C   0  0  0  0  0  0  0  0  0  0  0  0
   36.5240   25.0510   42.6630 F   0  0  0  0  0  0  0  0  0  0  0  0
   37.3850   23.3580   41.5070 F   0  0  0  0  0  0  0  0  0  0  0  0
   36.4290   25.1270   40.4420 F   0  0  0  0  0  0  0  0  0  0  0  0
   38.4110   32.3120   39.5570 C   0  0  0  0  0  0  0  0  0  0  0  0
   37.5470   33.3510   39.8710 C   0  0  0  0  0  0  0  0  0  0  0  0
   38.1050   34.6150   40.0770 C   0  0  0  0  0  0  0  0  0  0  0  0
   39.4650   34.7230   39.9520 C   0  0  0  0  0  0  0  0  0  0  0  0
   40.3220   33.7010   39.6430 C   0  0  0  0  0  0  0  0  0  0  0  0
   39.7480   32.4790   39.4470 N   0  0  0  0  0  0  0  0  0  0  0  0
   36.4890   33.1280   39.9380 H   0  0  0  0  0  0  0  0  0  0  0  0
   37.4410   35.4310   40.3220 H   0  0  0  0  0  0  0  0  0  0  0  0
   39.8890   35.7060   40.1130 H   0  0  0  0  0  0  0  0  0  0  0  0
   42.5050   33.6180   40.8280 C   0  0  2  0  0  3  0  0  0  0  0  0
   41.7920   33.9220   39.5300 C   0  0  1  0  0  3  0  0  0  0  0  0
   42.2880   33.0330   38.5710 O   0  0  0  0  0  0  0  0  0  0  0  0
   43.5950   33.4510   38.2690 C   0  0  0  0  0  2  0  0  0  0  0  0
   44.5050   33.3320   39.4580 C   0  0  2  0  0  3  0  0  0  0  0  0
   43.7530   32.8170   40.6670 C   0  0  2  0  0  3  0  0  0  0  0  0
   41.6100   32.8510   41.6040 O   0  0  0  0  0  0  0  0  0  0  0  0
   40.9130   33.4120   42.0040 H   0  0  0  0  0  0  0  0  0  0  0  0
   45.0580   34.5740   39.8120 O   0  0  0  0  0  0  0  0  0  0  0  0
   44.5400   35.0240   40.5130 H   0  0  0  0  0  0  0  0  0  0  0  0
   43.4840   31.4550   40.5990 O   0  0  0  0  0  0  0  0  0  0  0  0
   43.4860   31.1250   39.6610 H   0  0  0  0  0  0  0  0  0  0  0  0
  1  6  2  0  0  0  0
  1  2  1  0  0  0  0
  2  3  2  0  0  0  0
  3  4  1  0  0  0  0
  3  9  1  0  0  0  0
  5 27  1  0  0  0  0
  5  4  2  0  0  0  0
  6  5  1  0  0  0  0
  7  1  1  0  0  0  0
  8  2  1  0  0  0  0
  9 10  1  0  0  0  0
 10 15  1  0  0  0  0
 10 16  1  0  0  0  0
 10 11  1  0  0  0  0
 11 17  1  0  0  0  0
 12 11  1  0  0  0  0
 12 19  1  0  0  0  0
 13 20  1  6  0  0  0
 13 23  1  0  0  0  0
 13 12  1  0  0  0  0
 14  9  1  0  0  0  0
 14 13  1  0  0  0  0
 18 11  1  0  0  0  0
 21 14  1  0  0  0  0
 22 14  1  0  0  0  0
 23 25  1  0  0  0  0
 23 24  1  0  0  0  0
 26 23  1  0  0  0  0
 27 28  1  0  0  0  0
 28 33  1  0  0  0  0
 28 29  2  0  0  0  0
 29 34  1  0  0  0  0
 30 29  1  0  0  0  0
 30 35  1  0  0  0  0
 31 30  2  0  0  0  0
 32 27  2  0  0  0  0
 32 31  1  0  0  0  0
 36 42  1  1  0  0  0
 37 31  1  1  0  0  0
 37 36  1  0  0  0  0
 38 37  1  0  0  0  0
 39 38  1  0  0  0  0
 39 40  1  0  0  0  0
 40 44  1  1  0  0  0
 40 41  1  0  0  0  0
 41 46  1  6  0  0  0
 41 36  1  0  0  0  0
 42 43  1  0  0  0  0
 44 45  1  0  0  0  0
 47 46  1  0  0  0  0
M  END
>  <minimizedAffinity>
-6.74275875

$$$$

 OpenBabel03242522093D

 47 50  0  0  1  0  0  0  0  0999 V2000
   36.8030   30.9520   38.9910 C   0  0  0  0  0  0  0  0  0  0  0  0
   37.9140   31.6600   38.5060 C   0  0  0  0  0  0  0  0  0  0  0  0
   39.1430   31.4710   39.1470 C   0  0  0  0  0  0  0  0  0  0  0  0
   39.1720   30.6080   40.1990 N   0  0  0  0  0  0  0  0  0  0  0  0
   38.0740   29.9450   40.6320 C   0  0  0  0  0  0  0  0  0  0  0  0
   36.8800   30.1230   40.0200 N   0  0  0  0  0  0  0  0  0  0  0  0
   35.8680   31.1180   38.4760 H   0  0  0  0  0  0  0  0  0  0  0  0
   37.9180   32.3440   37.6800 H   0  0  0  0  0  0  0  0  0  0  0  0
   40.3490   32.1220   38.7620 N   0  0  0  0  0  0  0  0  0  0  0  0
   41.2380   32.6640   39.7660 C   0  0  0  0  0  0  0  0  0  0  0  0
   42.1430   33.7240   39.1890 C   0  0  0  0  0  0  0  0  0  0  0  0
   42.8170   33.3530   38.0230 N   0  0  0  0  0  0  0  0  0  0  0  0
   42.1100   32.5270   37.0970 C   0  0  2  0  0  0  0  0  0  0  0  0
   40.6880   32.2440   37.3810 C   0  0  0  0  0  0  0  0  0  0  0  0
   40.7180   33.0770   40.6500 H   0  0  0  0  0  0  0  0  0  0  0  0
   41.8860   31.8270   40.1130 H   0  0  0  0  0  0  0  0  0  0  0  0
   42.8540   33.9980   39.9840 H   0  0  0  0  0  0  0  0  0  0  0  0
   41.4850   34.6070   38.9590 H   0  0  0  0  0  0  0  0  0  0  0  0
   43.8010   33.0690   38.2100 H   0  0  0  0  0  0  0  0  0  0  0  0
   42.1820   33.0110   36.0860 H   0  0  0  0  0  0  0  0  0  0  0  0
   40.3860   31.3110   36.8800 H   0  0  0  0  0  0  0  0  0  0  0  0
   40.0660   33.0670   36.9300 H   0  0  0  0  0  0  0  0  0  0  0  0
   42.8180   31.1990   36.9900 C   0  0  0  0  0  0  0  0  0  0  0  0
   43.7520   31.2230   35.9620 F   0  0  0  0  0  0  0  0  0  0  0  0
   41.8530   30.2740   36.6260 F   0  0  0  0  0  0  0  0  0  0  0  0
   43.4640   30.8330   38.1330 F   0  0  0  0  0  0  0  0  0  0  0  0
   38.1820   29.0390   41.7650 C   0  0  0  0  0  0  0  0  0  0  0  0
   37.0970   28.8770   42.6150 C   0  0  0  0  0  0  0  0  0  0  0  0
   37.2440   27.9970   43.6890 C   0  0  0  0  0  0  0  0  0  0  0  0
   38.4520   27.3630   43.8140 C   0  0  0  0  0  0  0  0  0  0  0  0
   39.5260   27.5190   42.9790 C   0  0  0  0  0  0  0  0  0  0  0  0
   39.3520   28.3850   41.9400 N   0  0  0  0  0  0  0  0  0  0  0  0
   36.1970   29.4410   42.4010 H   0  0  0  0  0  0  0  0  0  0  0  0
   36.4050   27.8640   44.3560 H   0  0  0  0  0  0  0  0  0  0  0  0
   38.5570   26.6830   44.6500 H   0  0  0  0  0  0  0  0  0  0  0  0
   40.9000   25.5540   42.3230 C   0  0  2  0  0  3  0  0  0  0  0  0
   40.8020   26.7820   43.2020 C   0  0  1  0  0  3  0  0  0  0  0  0
   41.8550   27.6280   42.8440 O   0  0  0  0  0  0  0  0  0  0  0  0
   43.0340   27.0360   43.3310 C   0  0  0  0  0  2  0  0  0  0  0  0
   43.3120   25.7200   42.6640 C   0  0  2  0  0  3  0  0  0  0  0  0
   42.2270   25.3790   41.6640 C   0  0  2  0  0  3  0  0  0  0  0  0
   39.9410   25.7190   41.3010 O   0  0  0  0  0  0  0  0  0  0  0  0
   39.0350   25.5340   41.6270 H   0  0  0  0  0  0  0  0  0  0  0  0
   43.3620   24.6680   43.5940 O   0  0  0  0  0  0  0  0  0  0  0  0
   42.5000   24.2080   43.6810 H   0  0  0  0  0  0  0  0  0  0  0  0
   42.3180   26.1180   40.4900 O   0  0  0  0  0  0  0  0  0  0  0  0
   42.8150   26.9690   40.6280 H   0  0  0  0  0  0  0  0  0  0  0  0
  1  6  1  0  0  0  0
  2  1  2  0  0  0  0
  2  3  1  0  0  0  0
  3  4  2  0  0  0  0
  4  5  1  0  0  0  0
  5 27  1  0  0  0  0
  6  5  2  0  0  0  0
  7  1  1  0  0  0  0
  8  2  1  0  0  0  0
  9  3  1  0  0  0  0
  9 10  1  0  0  0  0
 10 16  1  0  0  0  0
 10 15  1  0  0  0  0
 11 10  1  0  0  0  0
 11 17  1  0  0  0  0
 12 19  1  0  0  0  0
 12 11  1  0  0  0  0
 13 20  1  6  0  0  0
 13 14  1  0  0  0  0
 13 12  1  0  0  0  0
 14  9  1  0  0  0  0
 18 11  1  0  0  0  0
 21 14  1  0  0  0  0
 22 14  1  0  0  0  0
 23 13  1  0  0  0  0
 23 26  1  0  0  0  0
 24 23  1  0  0  0  0
 25 23  1  0  0  0  0
 27 32  2  0  0  0  0
 27 28  1  0  0  0  0
 28 29  2  0  0  0  0
 29 30  1  0  0  0  0
 29 34  1  0  0  0  0
 30 35  1  0  0  0  0
 31 30  2  0  0  0  0
 32 31  1  0  0  0  0
 33 28  1  0  0  0  0
 36 42  1  6  0  0  0
 36 37  1  0  0  0  0
 37 31  1  6  0  0  0
 38 37  1  0  0  0  0
 38 39  1  0  0  0  0
 40 39  1  0  0  0  0
 40 44  1  1  0  0  0
 41 46  1  6  0  0  0
 41 36  1  0  0  0  0
 41 40  1  0  0  0  0
 42 43  1  0  0  0  0
 44 45  1  0  0  0  0
 46 47  1  0  0  0  0
M  END
>  <minimizedAffinity>
-6.56656599

$$$$

 OpenBabel03242522093D

 47 50  0  0  1  0  0  0  0  0999 V2000
   34.6280   28.9080   34.8130 C   0  0  0  0  0  0  0  0  0  0  0  0
   33.3520   29.4370   35.0630 C   0  0  0  0  0  0  0  0  0  0  0  0
   32.7850   29.2140   36.3220 C   0  0  0  0  0  0  0  0  0  0  0  0
   33.5160   28.4980   37.2180 N   0  0  0  0  0  0  0  0  0  0  0  0
   34.7450   28.0070   36.9330 C   0  0  0  0  0  0  0  0  0  0  0  0
   35.3020   28.2160   35.7170 N   0  0  0  0  0  0  0  0  0  0  0  0
   35.0410   29.0970   33.8320 H   0  0  0  0  0  0  0  0  0  0  0  0
   32.7560   30.0040   34.3750 H   0  0  0  0  0  0  0  0  0  0  0  0
   31.5010   29.6900   36.7110 N   0  0  0  0  0  0  0  0  0  0  0  0
   31.1740   29.8440   38.1120 C   0  0  0  0  0  0  0  0  0  0  0  0
   29.6810   29.8490   38.3330 C   0  0  0  0  0  0  0  0  0  0  0  0
   28.9670   30.7290   37.5170 N   0  0  0  0  0  0  0  0  0  0  0  0
   29.4250   30.8910   36.1740 C   0  0  2  0  0  0  0  0  0  0  0  0
   30.5280   30.0190   35.7200 C   0  0  0  0  0  0  0  0  0  0  0  0
   31.6330   29.0820   38.7660 H   0  0  0  0  0  0  0  0  0  0  0  0
   31.5590   30.8410   38.4280 H   0  0  0  0  0  0  0  0  0  0  0  0
   29.5220   30.0810   39.3980 H   0  0  0  0  0  0  0  0  0  0  0  0
   29.3300   28.8010   38.1260 H   0  0  0  0  0  0  0  0  0  0  0  0
   28.7200   31.6110   38.0120 H   0  0  0  0  0  0  0  0  0  0  0  0
   28.5450   30.7350   35.4940 H   0  0  0  0  0  0  0  0  0  0  0  0
   31.0570   30.4950   34.8790 H   0  0  0  0  0  0  0  0  0  0  0  0
   30.0840   29.0640   35.3210 H   0  0  0  0  0  0  0  0  0  0  0  0
   29.8730   32.3180   35.9810 C   0  0  0  0  0  0  0  0  0  0  0  0
   31.0470   32.3670   35.2400 F   0  0  0  0  0  0  0  0  0  0  0  0
   30.1810   32.8020   37.2420 F   0  0  0  0  0  0  0  0  0  0  0  0
   28.9480   33.0990   35.3520 F   0  0  0  0  0  0  0  0  0  0  0  0
   35.4680   27.2490   37.9430 C   0  0  0  0  0  0  0  0  0  0  0  0
   35.3360   25.8680   37.9850 C   0  0  0  0  0  0  0  0  0  0  0  0
   36.0480   25.1800   38.9690 C   0  0  0  0  0  0  0  0  0  0  0  0
   36.8220   25.9300   39.8150 C   0  0  0  0  0  0  0  0  0  0  0  0
   36.9570   27.2920   39.7790 C   0  0  0  0  0  0  0  0  0  0  0  0
   36.2490   27.9350   38.8070 N   0  0  0  0  0  0  0  0  0  0  0  0
   34.6890   25.3990   37.2540 H   0  0  0  0  0  0  0  0  0  0  0  0
   35.9520   24.1050   39.0100 H   0  0  0  0  0  0  0  0  0  0  0  0
   37.3710   25.3880   40.5760 H   0  0  0  0  0  0  0  0  0  0  0  0
   37.0390   29.0060   41.5770 C   0  0  2  0  0  3  0  0  0  0  0  0
   37.8270   28.0170   40.7480 C   0  0  1  0  0  3  0  0  0  0  0  0
   38.3630   27.0750   41.6320 O   0  0  0  0  0  0  0  0  0  0  0  0
   39.3920   27.7220   42.3380 C   0  0  0  0  0  2  0  0  0  0  0  0
   38.8640   28.8400   43.1900 C   0  0  2  0  0  3  0  0  0  0  0  0
   37.3640   28.9790   43.0330 C   0  0  2  0  0  3  0  0  0  0  0  0
   35.6810   28.6440   41.4440 O   0  0  0  0  0  0  0  0  0  0  0  0
   35.3180   28.9300   40.5790 H   0  0  0  0  0  0  0  0  0  0  0  0
   39.4340   30.0740   42.8360 O   0  0  0  0  0  0  0  0  0  0  0  0
   38.8770   30.5710   42.2000 H   0  0  0  0  0  0  0  0  0  0  0  0
   36.6540   27.9880   43.7000 O   0  0  0  0  0  0  0  0  0  0  0  0
   37.2070   27.1750   43.8490 H   0  0  0  0  0  0  0  0  0  0  0  0
  1  2  2  0  0  0  0
  1  6  1  0  0  0  0
  2  3  1  0  0  0  0
  3  9  1  0  0  0  0
  3  4  2  0  0  0  0
  5  4  1  0  0  0  0
  5 27  1  0  0  0  0
  6  5  2  0  0  0  0
  7  1  1  0  0  0  0
  8  2  1  0  0  0  0
  9 10  1  0  0  0  0
 10 11  1  0  0  0  0
 10 16  1  0  0  0  0
 10 15  1  0  0  0  0
 11 17  1  0  0  0  0
 12 19  1  0  0  0  0
 12 11  1  0  0  0  0
 13 20  1  6  0  0  0
 13 12  1  0  0  0  0
 14 13  1  0  0  0  0
 14  9  1  0  0  0  0
 18 11  1  0  0  0  0
 21 14  1  0  0  0  0
 22 14  1  0  0  0  0
 23 13  1  0  0  0  0
 23 25  1  0  0  0  0
 24 23  1  0  0  0  0
 26 23  1  0  0  0  0
 27 28  2  0  0  0  0
 27 32  1  0  0  0  0
 28 29  1  0  0  0  0
 29 34  1  0  0  0  0
 29 30  2  0  0  0  0
 30 35  1  0  0  0  0
 31 30  1  0  0  0  0
 32 31  2  0  0  0  0
 33 28  1  0  0  0  0
 36 42  1  1  0  0  0
 36 41  1  0  0  0  0
 37 31  1  6  0  0  0
 37 36  1  0  0  0  0
 37 38  1  0  0  0  0
 38 39  1  0  0  0  0
 39 40  1  0  0  0  0
 40 44  1  6  0  0  0
 41 40  1  0  0  0  0
 41 46  1  1  0  0  0
 43 42  1  0  0  0  0
 45 44  1  0  0  0  0
 46 47  1  0  0  0  0
M  END
>  <minimizedAffinity>
-6.5455718

$$$$

 OpenBabel03242522093D

 47 50  0  0  1  0  0  0  0  0999 V2000
   35.6220   30.0590   40.6150 C   0  0  0  0  0  0  0  0  0  0  0  0
   36.0860   28.8250   41.0980 C   0  0  0  0  0  0  0  0  0  0  0  0
   37.4650   28.6620   41.2640 C   0  0  0  0  0  0  0  0  0  0  0  0
   38.2610   29.7190   40.9430 N   0  0  0  0  0  0  0  0  0  0  0  0
   37.7690   30.8920   40.4810 C   0  0  0  0  0  0  0  0  0  0  0  0
   36.4350   31.0590   40.3160 N   0  0  0  0  0  0  0  0  0  0  0  0
   34.5520   30.1550   40.4980 H   0  0  0  0  0  0  0  0  0  0  0  0
   35.4810   27.9790   41.3570 H   0  0  0  0  0  0  0  0  0  0  0  0
   38.0730   27.4680   41.7430 N   0  0  0  0  0  0  0  0  0  0  0  0
   38.3190   27.2920   43.1580 C   0  0  0  0  0  0  0  0  0  0  0  0
   39.3910   26.2600   43.4080 C   0  0  0  0  0  0  0  0  0  0  0  0
   39.2080   25.0460   42.7410 N   0  0  0  0  0  0  0  0  0  0  0  0
   38.6540   25.1010   41.4270 C   0  0  2  0  0  0  0  0  0  0  0  0
   38.4450   26.4370   40.8290 C   0  0  0  0  0  0  0  0  0  0  0  0
   38.5860   28.2240   43.6870 H   0  0  0  0  0  0  0  0  0  0  0  0
   37.3750   26.9050   43.6060 H   0  0  0  0  0  0  0  0  0  0  0  0
   39.4340   26.1080   44.4980 H   0  0  0  0  0  0  0  0  0  0  0  0
   40.3560   26.7200   43.0590 H   0  0  0  0  0  0  0  0  0  0  0  0
   38.8070   24.3130   43.3620 H   0  0  0  0  0  0  0  0  0  0  0  0
   39.3260   24.5090   40.7490 H   0  0  0  0  0  0  0  0  0  0  0  0
   37.6630   26.3810   40.0550 H   0  0  0  0  0  0  0  0  0  0  0  0
   39.3930   26.7440   40.3070 H   0  0  0  0  0  0  0  0  0  0  0  0
   37.3190   24.3980   41.4310 C   0  0  0  0  0  0  0  0  0  0  0  0
   36.4430   25.0050   40.5400 F   0  0  0  0  0  0  0  0  0  0  0  0
   36.7870   24.5850   42.6960 F   0  0  0  0  0  0  0  0  0  0  0  0
   37.3980   23.0760   41.1060 F   0  0  0  0  0  0  0  0  0  0  0  0
   38.6820   31.9780   40.1580 C   0  0  0  0  0  0  0  0  0  0  0  0
   38.4430   33.2450   40.6710 C   0  0  0  0  0  0  0  0  0  0  0  0
   39.3450   34.2570   40.3370 C   0  0  0  0  0  0  0  0  0  0  0  0
   40.3950   33.9130   39.5280 C   0  0  0  0  0  0  0  0  0  0  0  0
   40.6360   32.6640   39.0180 C   0  0  0  0  0  0  0  0  0  0  0  0
   39.7380   31.6970   39.3620 N   0  0  0  0  0  0  0  0  0  0  0  0
   37.5720   33.3810   41.3010 H   0  0  0  0  0  0  0  0  0  0  0  0
   39.1680   35.2470   40.7310 H   0  0  0  0  0  0  0  0  0  0  0  0
   41.0890   34.7050   39.2730 H   0  0  0  0  0  0  0  0  0  0  0  0
   43.0680   32.1580   38.9500 C   0  0  2  0  0  3  0  0  0  0  0  0
   41.8110   32.3910   38.1430 C   0  0  1  0  0  3  0  0  0  0  0  0
   41.5540   31.2140   37.4340 O   0  0  0  0  0  0  0  0  0  0  0  0
   42.5210   31.1340   36.4170 C   0  0  0  0  0  2  0  0  0  0  0  0
   43.9070   30.9890   36.9780 C   0  0  2  0  0  3  0  0  0  0  0  0
   43.8820   30.9940   38.4920 C   0  0  2  0  0  3  0  0  0  0  0  0
   42.6490   31.8840   40.2690 O   0  0  0  0  0  0  0  0  0  0  0  0
   42.3820   32.7030   40.7370 H   0  0  0  0  0  0  0  0  0  0  0  0
   44.7420   32.0440   36.5740 O   0  0  0  0  0  0  0  0  0  0  0  0
   44.7720   32.7680   37.2350 H   0  0  0  0  0  0  0  0  0  0  0  0
   43.4190   29.8000   39.0320 O   0  0  0  0  0  0  0  0  0  0  0  0
   42.8530   29.2990   38.3860 H   0  0  0  0  0  0  0  0  0  0  0  0
  1  2  1  0  0  0  0
  2  3  2  0  0  0  0
  2  8  1  0  0  0  0
  3  9  1  0  0  0  0
  4  3  1  0  0  0  0
  5  4  2  0  0  0  0
  6  5  1  0  0  0  0
  6  1  2  0  0  0  0
  7  1  1  0  0  0  0
  9 10  1  0  0  0  0
 10 11  1  0  0  0  0
 10 16  1  0  0  0  0
 10 15  1  0  0  0  0
 11 17  1  0  0  0  0
 12 19  1  0  0  0  0
 12 11  1  0  0  0  0
 13 20  1  6  0  0  0
 13 23  1  0  0  0  0
 13 12  1  0  0  0  0
 14 13  1  0  0  0  0
 14  9  1  0  0  0  0
 18 11  1  0  0  0  0
 21 14  1  0  0  0  0
 22 14  1  0  0  0  0
 23 25  1  0  0  0  0
 24 23  1  0  0  0  0
 26 23  1  0  0  0  0
 27  5  1  0  0  0  0
 27 28  1  0  0  0  0
 28 33  1  0  0  0  0
 29 28  2  0  0  0  0
 29 34  1  0  0  0  0
 30 29  1  0  0  0  0
 31 32  1  0  0  0  0
 31 30  2  0  0  0  0
 32 27  2  0  0  0  0
 35 30  1  0  0  0  0
 36 42  1  1  0  0  0
 37 36  1  0  0  0  0
 37 31  1  1  0  0  0
 38 37  1  0  0  0  0
 39 40  1  0  0  0  0
 39 38  1  0  0  0  0
 40 44  1  6  0  0  0
 40 41  1  0  0  0  0
 41 36  1  0  0  0  0
 41 46  1  6  0  0  0
 42 43  1  0  0  0  0
 44 45  1  0  0  0  0
 47 46  1  0  0  0  0
M  END
>  <minimizedAffinity>
-6.51791

$$$$
