
 OpenBabel03252507383D

 41 45  0  0  1  0  0  0  0  0999 V2000
   45.5730   34.8170   43.4530 C   0  0  0  0  0  0  0  0  0  0  0  0
   46.2770   33.7390   44.0540 C   0  0  0  0  0  0  0  0  0  0  0  0
   46.0620   33.5190   45.4050 C   0  0  0  0  0  0  0  0  0  0  0  0
   45.2090   34.3270   46.0750 N   0  0  0  0  0  0  0  0  0  0  0  0
   44.5480   35.3500   45.4810 C   0  0  0  0  0  0  0  0  0  0  0  0
   44.7340   35.5850   44.1860 N   0  0  0  0  0  0  0  0  0  0  0  0
   46.9480   33.1000   43.5380 H   0  0  0  0  0  0  0  0  0  0  0  0
   43.8650   36.0010   46.0090 H   0  0  0  0  0  0  0  0  0  0  0  0
   46.9890   32.7070   47.5000 C   0  0  0  0  0  0  0  0  0  0  0  0
   46.7060   32.4570   46.1650 C   0  0  0  0  0  0  0  0  0  0  0  0
   47.0430   31.2390   45.6530 C   0  0  0  0  0  0  0  0  0  0  0  0
   47.6520   30.2450   46.3940 C   0  0  0  0  0  0  0  0  0  0  0  0
   48.0640   28.9950   46.1010 N   0  0  0  0  0  0  0  0  0  0  0  0
   48.6080   28.4580   47.2540 C   0  0  0  0  0  0  0  0  0  0  0  0
   48.5160   29.3840   48.2150 N   0  0  0  0  0  0  0  0  0  0  0  0
   47.9350   30.4800   47.7080 C   0  0  0  0  0  0  0  0  0  0  0  0
   47.6050   31.7100   48.2630 C   0  0  0  0  0  0  0  0  0  0  0  0
   46.7620   33.6390   48.0010 H   0  0  0  0  0  0  0  0  0  0  0  0
   46.8280   31.0250   44.6080 H   0  0  0  0  0  0  0  0  0  0  0  0
   47.9680   28.5580   45.1600 H   0  0  0  0  0  0  0  0  0  0  0  0
   49.0020   27.4460   47.2250 H   0  0  0  0  0  0  0  0  0  0  0  0
   47.8240   31.9220   49.3200 H   0  0  0  0  0  0  0  0  0  0  0  0
   45.7880   35.0390   42.0950 O   0  0  0  0  0  0  0  0  0  0  0  0
   44.7720   34.7780   41.1790 C   0  0  0  0  0  0  0  0  0  0  0  0
   45.3050   33.7340   40.5130 C   0  0  0  0  0  0  0  0  0  0  0  0
   43.9390   33.3410   39.2440 S   0  0  0  0  0  0  0  0  0  0  0  0
   42.9080   34.7630   39.9570 C   0  0  0  0  0  0  0  0  0  0  0  0
   43.5900   35.1200   40.7450 N   0  0  0  0  0  0  0  0  0  0  0  0
   46.1150   32.9140   40.2390 H   0  0  0  0  0  0  0  0  0  0  0  0
   40.9180   34.2760   38.6010 C   0  0  1  0  0  3  0  0  0  0  0  0
   41.5070   35.2640   39.5370 C   0  0  1  0  0  3  0  0  0  0  0  0
   40.7800   35.5810   40.6420 O   0  0  0  0  0  0  0  0  0  0  0  0
   40.1170   34.5250   41.2370 C   0  0  0  0  0  2  0  0  0  0  0  0
   39.0400   34.0790   40.2690 C   0  0  1  0  0  3  0  0  0  0  0  0
   39.7930   33.4570   39.1020 C   0  0  2  0  0  3  0  0  0  0  0  0
   40.4430   34.9440   37.4480 O   0  0  0  0  0  0  0  0  0  0  0  0
   40.0040   35.7640   37.8150 H   0  0  0  0  0  0  0  0  0  0  0  0
   38.1820   33.1460   40.8180 O   0  0  0  0  0  0  0  0  0  0  0  0
   37.5110   33.6730   41.3610 H   0  0  0  0  0  0  0  0  0  0  0  0
   40.2230   32.1910   39.5350 O   0  0  0  0  0  0  0  0  0  0  0  0
   39.4630   31.5670   39.6380 H   0  0  0  0  0  0  0  0  0  0  0  0
  1  2  2  0  0  0  0
  1  6  1  0  0  0  0
  2  3  1  0  0  0  0
  3  4  2  0  0  0  0
  3 10  1  0  0  0  0
  5  8  1  0  0  0  0
  5  4  1  0  0  0  0
  6  5  2  0  0  0  0
  7  2  1  0  0  0  0
  9 18  1  0  0  0  0
  9 17  1  0  0  0  0
 10  9  2  0  0  0  0
 11 10  1  0  0  0  0
 11 12  2  0  0  0  0
 12 16  1  0  0  0  0
 13 12  1  0  0  0  0
 13 14  1  0  0  0  0
 14 15  2  0  0  0  0
 16 15  1  0  0  0  0
 16 17  2  0  0  0  0
 17 22  1  0  0  0  0
 19 11  1  0  0  0  0
 20 13  1  0  0  0  0
 21 14  1  0  0  0  0
 23  1  1  0  0  0  0
 24 23  1  0  0  0  0
 25 24  2  0  0  0  0
 26 27  1  0  0  0  0
 26 25  1  0  0  0  0
 27 28  2  0  0  0  0
 28 24  1  0  0  0  0
 29 25  1  0  0  0  0
 30 36  1  6  0  0  0
 30 35  1  0  0  0  0
 30 31  1  0  0  0  0
 31 27  1  1  0  0  0
 31 32  1  0  0  0  0
 32 33  1  0  0  0  0
 34 38  1  1  0  0  0
 34 33  1  0  0  0  0
 35 40  1  1  0  0  0
 35 34  1  0  0  0  0
 36 37  1  0  0  0  0
 38 39  1  0  0  0  0
 40 41  1  0  0  0  0
M  END
>  <minimizedAffinity>
-7.67054939

>  <minimizedRMSD>
0.419854909

$$$$
