
     RDKit          3D

 58 61  0  0  0  0  0  0  0  0999 V2000
   45.0065   34.7051   44.9907 C   0  0  0  0  0  0  0  0  0  0  0  0
   45.8761   34.5739   43.8724 C   0  0  0  0  0  0  0  0  0  0  0  0
   46.9257   33.6672   43.9518 C   0  0  0  0  0  0  0  0  0  0  0  0
   47.0540   32.9597   45.1013 N   0  0  0  0  0  0  0  0  0  0  0  0
   46.2462   33.0775   46.1477 C   0  0  0  0  0  0  0  0  0  0  0  0
   45.2470   33.9504   46.0535 N   0  0  0  0  0  0  0  0  0  0  0  0
   46.4586   32.3066   47.2850 N   0  0  0  0  0  0  0  0  0  0  0  0
   47.7163   32.3801   47.9967 C   0  0  0  0  0  0  0  0  0  0  0  0
   47.9512   31.2302   48.9248 C   0  0  0  0  0  0  0  0  0  0  0  0
   46.8012   30.6594   49.5421 N   0  0  0  0  0  0  0  0  0  0  0  0
   45.5875   31.3791   49.2373 C   0  0  0  0  0  0  0  0  0  0  0  0
   45.3844   31.4102   47.7595 C   0  0  2  0  0  0  0  0  0  0  0  0
   45.5027   30.0460   47.1230 C   0  0  0  0  0  0  0  0  0  0  0  0
   44.8669   29.0838   48.0978 C   0  0  0  0  0  0  0  0  0  0  0  0
   44.9797   27.7694   47.9071 C   0  0  0  0  0  0  0  0  0  0  0  0
   44.3953   26.7326   48.7927 C   0  0  0  0  0  0  0  0  0  0  0  0
   43.3622   25.9438   48.0068 C   0  0  2  0  0  0  0  0  0  0  0  0
   43.8589   24.9430   47.0123 C   0  0  0  0  0  0  0  0  0  0  0  0
   43.1694   26.2129   46.5746 C   0  0  1  0  0  0  0  0  0  0  0  0
   44.1865   35.4166   44.9226 H   0  0  0  0  0  0  0  0  0  0  0  0
   45.7443   35.1563   42.9675 H   0  0  0  0  0  0  0  0  0  0  0  0
   47.6232   33.5193   43.1364 H   0  0  0  0  0  0  0  0  0  0  0  0
   47.7863   33.3170   48.5936 H   0  0  0  0  0  0  0  0  0  0  0  0
   48.5193   32.3963   47.2201 H   0  0  0  0  0  0  0  0  0  0  0  0
   48.7160   31.5628   49.6805 H   0  0  0  0  0  0  0  0  0  0  0  0
   48.4534   30.4280   48.3444 H   0  0  0  0  0  0  0  0  0  0  0  0
   46.9421   30.6106   50.5620 H   0  0  0  0  0  0  0  0  0  0  0  0
   44.7743   30.9997   49.8449 H   0  0  0  0  0  0  0  0  0  0  0  0
   45.7333   32.4449   49.5761 H   0  0  0  0  0  0  0  0  0  0  0  0
   44.3934   31.8359   47.5212 H   0  0  0  0  0  0  0  0  0  0  0  0
   44.9073   30.0482   46.1861 H   0  0  0  0  0  0  0  0  0  0  0  0
   46.5569   29.7649   46.9975 H   0  0  0  0  0  0  0  0  0  0  0  0
   44.2735   29.2732   49.0113 H   0  0  0  0  0  0  0  0  0  0  0  0
   45.5603   27.4948   47.0055 H   0  0  0  0  0  0  0  0  0  0  0  0
   43.8630   27.2523   49.6108 H   0  0  0  0  0  0  0  0  0  0  0  0
   45.1714   26.0672   49.2267 H   0  0  0  0  0  0  0  0  0  0  0  0
   42.4096   25.6998   48.5600 H   0  0  0  0  0  0  0  0  0  0  0  0
   44.9596   24.8710   46.9233 H   0  0  0  0  0  0  0  0  0  0  0  0
   43.3514   23.9737   46.9899 H   0  0  0  0  0  0  0  0  0  0  0  0
   43.8519   26.9486   46.1107 H   0  0  0  0  0  0  0  0  0  0  0  0
   40.4107   25.3867   47.5905 O   0  0  0  0  0  0  0  0  0  0  0  0
   40.7239   26.5359   46.8776 C   0  0  1  0  0  0  0  0  0  0  0  0
   41.8327   26.1626   45.9161 C   0  0  2  0  0  0  0  0  0  0  0  0
   41.4886   24.9145   45.4177 O   0  0  0  0  0  0  0  0  0  0  0  0
   40.4937   25.1301   44.4775 C   0  0  0  0  0  0  0  0  0  0  0  0
   39.3007   25.8741   44.9584 C   0  0  2  0  0  0  0  0  0  0  0  0
   38.7518   26.5535   43.8565 O   0  0  0  0  0  0  0  0  0  0  0  0
   39.5578   26.9240   45.9984 C   0  0  2  0  0  0  0  0  0  0  0  0
   39.8733   28.1595   45.4439 O   0  0  0  0  0  0  0  0  0  0  0  0
   40.0279   24.7476   46.9346 H   0  0  0  0  0  0  0  0  0  0  0  0
   41.0877   27.3551   47.4920 H   0  0  0  0  0  0  0  0  0  0  0  0
   41.8103   26.8525   45.0637 H   0  0  0  0  0  0  0  0  0  0  0  0
   40.9446   25.6938   43.6115 H   0  0  0  0  0  0  0  0  0  0  0  0
   40.1253   24.1267   44.1192 H   0  0  0  0  0  0  0  0  0  0  0  0
   38.4728   25.2322   45.3367 H   0  0  0  0  0  0  0  0  0  0  0  0
   37.9174   26.1551   43.5301 H   0  0  0  0  0  0  0  0  0  0  0  0
   38.6913   27.0477   46.6598 H   0  0  0  0  0  0  0  0  0  0  0  0
   40.7235   28.5374   45.7768 H   0  0  0  0  0  0  0  0  0  0  0  0
  1  6  2  0
  2  3  2  0
  2  1  1  0
  3  4  1  0
  4  5  2  0
  5  7  1  0
  6  5  1  0
  7 12  1  0
  7  8  1  0
  8  9  1  0
  9 10  1  0
 11 10  1  0
 12 11  1  0
 13 12  1  0
 13 14  1  0
 15 14  2  0
 15 16  1  0
 17 16  1  0
 18 17  1  0
 19 18  1  0
 19 17  1  0
  1 20  1  0
  2 21  1  0
  3 22  1  0
  8 23  1  0
  8 24  1  0
  9 25  1  0
  9 26  1  0
 10 27  1  0
 11 28  1  0
 11 29  1  0
 12 30  1  1
 13 31  1  0
 13 32  1  0
 14 33  1  0
 15 34  1  0
 16 35  1  0
 16 36  1  0
 17 37  1  1
 18 38  1  0
 18 39  1  0
 19 40  1  6
 41 42  1  0
 42 43  1  0
 43 44  1  0
 44 45  1  0
 45 46  1  0
 46 47  1  0
 46 48  1  0
 48 49  1  0
 48 42  1  0
 41 50  1  0
 42 51  1  1
 43 52  1  6
 45 53  1  0
 45 54  1  0
 46 55  1  1
 47 56  1  0
 48 57  1  1
 49 58  1  0
 19 43  1  0
M  ISO  8  20  14  21  14  22  14  23  13  24  13  25  13  26  13  27   5
M  ISO  8  28  13  29  13  30  13  31   8  32   8  35   8  36   8  37  13
M  ISO  3  38  13  39  13  40  13
M  END
>  <DihAtoms>  (1) 
17,18,42,41

>  <DihDeg>  (1) 
132.2942695579662

$$$$
