
 OpenBabel03242518263D

 48 52  0  0  1  0  0  0  0  0999 V2000
   46.5730   30.1490   45.8230 C   0  0  0  0  0  0  0  0  0  0  0  0
   46.5540   31.5080   45.7320 C   0  0  0  0  0  0  0  0  0  0  0  0
   47.2680   32.2260   46.6680 C   0  0  0  0  0  0  0  0  0  0  0  0
   47.9750   31.5860   47.6600 C   0  0  0  0  0  0  0  0  0  0  0  0
   47.9840   30.1980   47.7360 C   0  0  0  0  0  0  0  0  0  0  0  0
   47.2690   29.4580   46.8000 C   0  0  0  0  0  0  0  0  0  0  0  0
   48.7720   29.8330   48.8250 O   0  0  0  0  0  0  0  0  0  0  0  0
   48.9910   31.0040   49.6020 C   0  0  2  0  0  0  0  0  0  0  0  0
   48.7700   32.0670   48.7160 O   0  0  0  0  0  0  0  0  0  0  0  0
   46.0420   29.5000   45.1320 H   0  0  0  0  0  0  0  0  0  0  0  0
   47.2830   33.3060   46.6380 H   0  0  0  0  0  0  0  0  0  0  0  0
   47.2970   28.4000   46.8900 H   0  0  0  0  0  0  0  0  0  0  0  0
   48.2670   31.0790   50.4460 H   0  0  0  0  0  0  0  0  0  0  0  0
   44.9770   34.1360   43.6770 C   0  0  0  0  0  0  0  0  0  0  0  0
   44.3730   33.4060   42.6710 C   0  0  0  0  0  0  0  0  0  0  0  0
   44.5130   32.0200   42.7100 C   0  0  0  0  0  0  0  0  0  0  0  0
   45.2190   31.4240   43.7040 N   0  0  0  0  0  0  0  0  0  0  0  0
   45.8000   32.1770   44.6760 C   0  0  0  0  0  0  0  0  0  0  0  0
   45.6730   33.5230   44.6530 N   0  0  0  0  0  0  0  0  0  0  0  0
   44.9620   35.2100   43.7880 H   0  0  0  0  0  0  0  0  0  0  0  0
   44.0380   31.4740   41.9230 H   0  0  0  0  0  0  0  0  0  0  0  0
   43.6620   34.1240   41.6860 N   0  0  0  0  0  0  0  0  0  0  0  0
   43.3970   33.4710   40.4330 C   0  0  0  0  0  0  0  0  0  0  0  0
   42.7280   34.3300   39.4270 C   0  0  0  0  0  0  0  0  0  0  0  0
   41.6310   35.0760   39.9560 N   0  0  0  0  0  0  0  0  0  0  0  0
   41.7100   35.5220   41.2880 C   0  0  0  0  0  0  0  0  0  0  0  0
   43.1570   35.4620   41.7800 C   0  0  0  0  0  0  0  0  0  0  0  0
   42.8450   32.5170   40.6460 H   0  0  0  0  0  0  0  0  0  0  0  0
   44.3890   33.1500   40.0170 H   0  0  0  0  0  0  0  0  0  0  0  0
   43.4350   35.0170   38.9560 H   0  0  0  0  0  0  0  0  0  0  0  0
   42.3500   33.6650   38.6110 H   0  0  0  0  0  0  0  0  0  0  0  0
   41.4380   35.8850   39.3180 H   0  0  0  0  0  0  0  0  0  0  0  0
   41.1400   34.8350   41.9480 H   0  0  0  0  0  0  0  0  0  0  0  0
   41.2920   36.5250   41.4760 H   0  0  0  0  0  0  0  0  0  0  0  0
   43.1930   35.8930   42.7970 H   0  0  0  0  0  0  0  0  0  0  0  0
   43.7620   36.1130   41.1140 H   0  0  0  0  0  0  0  0  0  0  0  0
   51.2030   32.0910   49.5730 C   0  0  2  0  0  3  0  0  0  0  0  0
   50.4100   30.9210   50.0880 C   0  0  1  0  0  3  0  0  0  0  0  0
   50.4060   30.8010   51.4590 O   0  0  0  0  0  0  0  0  0  0  0  0
   51.3450   31.5540   52.1200 C   0  0  0  0  0  2  0  0  0  0  0  0
   52.6890   31.6070   51.4620 C   0  0  2  0  0  3  0  0  0  0  0  0
   52.6550   31.8190   49.9800 C   0  0  2  0  0  3  0  0  0  0  0  0
   50.7590   33.3180   50.0150 O   0  0  0  0  0  0  0  0  0  0  0  0
   50.3290   33.8640   49.3140 H   0  0  0  0  0  0  0  0  0  0  0  0
   53.4360   30.4790   51.8050 O   0  0  0  0  0  0  0  0  0  0  0  0
   53.1090   29.6680   51.3770 H   0  0  0  0  0  0  0  0  0  0  0  0
   53.4600   32.8510   49.5330 O   0  0  0  0  0  0  0  0  0  0  0  0
   54.0680   32.5420   48.7940 H   0  0  0  0  0  0  0  0  0  0  0  0
  1  6  1  0  0  0  0
  2  1  2  0  0  0  0
  2  3  1  0  0  0  0
  3  4  2  0  0  0  0
  4  5  1  0  0  0  0
  4  9  1  0  0  0  0
  5  7  1  0  0  0  0
  6 12  1  0  0  0  0
  6  5  2  0  0  0  0
  7  8  1  0  0  0  0
  8 38  1  0  0  0  0
  8 13  1  1  0  0  0
  9  8  1  0  0  0  0
 10  1  1  0  0  0  0
 11  3  1  0  0  0  0
 14 20  1  0  0  0  0
 14 19  1  0  0  0  0
 15 16  1  0  0  0  0
 15 14  2  0  0  0  0
 16 17  2  0  0  0  0
 17 18  1  0  0  0  0
 18  2  1  0  0  0  0
 19 18  2  0  0  0  0
 21 16  1  0  0  0  0
 22 27  1  0  0  0  0
 22 15  1  0  0  0  0
 23 28  1  0  0  0  0
 23 22  1  0  0  0  0
 24 25  1  0  0  0  0
 24 23  1  0  0  0  0
 25 26  1  0  0  0  0
 26 34  1  0  0  0  0
 26 27  1  0  0  0  0
 26 33  1  0  0  0  0
 27 35  1  0  0  0  0
 29 23  1  0  0  0  0
 30 24  1  0  0  0  0
 31 24  1  0  0  0  0
 32 25  1  0  0  0  0
 36 27  1  0  0  0  0
 37 42  1  0  0  0  0
 37 43  1  1  0  0  0
 37 38  1  0  0  0  0
 38 39  1  1  0  0  0
 39 40  1  0  0  0  0
 41 45  1  6  0  0  0
 41 40  1  0  0  0  0
 42 47  1  1  0  0  0
 42 41  1  0  0  0  0
 44 43  1  0  0  0  0
 46 45  1  0  0  0  0
 48 47  1  0  0  0  0
M  END
>  <minimizedAffinity>
-5.98767185

>  <minimizedRMSD>
1.76391578

$$$$
