
 OpenBabel03252503413D

 24 25  0  0  1  0  0  0  0  0999 V2000
   45.9650   34.7280   42.9390 C   0  0  0  0  0  0  0  0  0  0  0  0
   44.8860   35.5980   42.9400 C   0  0  0  0  0  0  0  0  0  0  0  0
   43.8600   35.3830   42.0290 C   0  0  0  0  0  0  0  0  0  0  0  0
   43.9590   34.3360   41.1850 N   0  0  0  0  0  0  0  0  0  0  0  0
   45.0250   33.4960   41.2000 C   0  0  0  0  0  0  0  0  0  0  0  0
   46.0430   33.6780   42.0770 N   0  0  0  0  0  0  0  0  0  0  0  0
   46.7860   34.8600   43.6330 H   0  0  0  0  0  0  0  0  0  0  0  0
   43.0320   36.0770   42.0510 H   0  0  0  0  0  0  0  0  0  0  0  0
   43.6950   31.7880   39.9480 C   0  0  2  0  0  3  0  0  0  0  0  0
   45.0770   32.3760   40.2600 C   0  0  1  0  0  3  0  0  0  0  0  0
   45.5730   32.7300   39.0000 O   0  0  0  0  0  0  0  0  0  0  0  0
   46.0440   31.5620   38.4300 C   0  0  0  0  0  2  0  0  0  0  0  0
   45.0340   30.4650   38.2960 C   0  0  1  0  0  3  0  0  0  0  0  0
   44.0050   30.4050   39.3770 C   0  0  1  0  0  3  0  0  0  0  0  0
   43.1020   32.5850   38.9530 O   0  0  0  0  0  0  0  0  0  0  0  0
   42.2390   32.9510   39.2750 H   0  0  0  0  0  0  0  0  0  0  0  0
   44.3870   30.5980   37.0700 O   0  0  0  0  0  0  0  0  0  0  0  0
   45.0490   30.4690   36.3460 H   0  0  0  0  0  0  0  0  0  0  0  0
   44.5260   29.6550   40.4360 O   0  0  0  0  0  0  0  0  0  0  0  0
   45.3810   29.2400   40.2120 H   0  0  0  0  0  0  0  0  0  0  0  0
   44.9300   36.7020   43.9340 C   0  0  0  0  0  0  0  0  0  0  0  0
   44.4990   36.3070   44.8760 H   0  0  0  0  0  0  0  0  0  0  0  0
   44.2790   37.5160   43.5200 H   0  0  0  0  0  0  0  0  0  0  0  0
   45.9570   37.0500   44.0210 H   0  0  0  0  0  0  0  0  0  0  0  0
  1  2  1  0  0  0  0
  1  7  1  0  0  0  0
  2 21  1  0  0  0  0
  3  8  1  0  0  0  0
  3  2  2  0  0  0  0
  4  5  2  0  0  0  0
  4  3  1  0  0  0  0
  5  6  1  0  0  0  0
  6  1  2  0  0  0  0
  9 15  1  6  0  0  0
  9 10  1  0  0  0  0
 10  5  1  1  0  0  0
 11 10  1  0  0  0  0
 12 11  1  0  0  0  0
 13 17  1  6  0  0  0
 13 12  1  0  0  0  0
 13 14  1  0  0  0  0
 14  9  1  0  0  0  0
 14 19  1  1  0  0  0
 15 16  1  0  0  0  0
 18 17  1  0  0  0  0
 20 19  1  0  0  0  0
 21 24  1  0  0  0  0
 21 22  1  0  0  0  0
 23 21  1  0  0  0  0
M  END
>  <minimizedAffinity>
-2.69899964

>  <minimizedRMSD>
7.5914669

$$$$
