
     RDKit          3D

 30 31  0  0  0  0  0  0  0  0999 V2000
   45.4392   35.0671   43.9943 C   0  0  0  0  0  0  0  0  0  0  0  0
   46.4958   34.3015   43.5022 C   0  0  0  0  0  0  0  0  0  0  0  0
   47.0207   33.2873   44.3325 C   0  0  0  0  0  0  0  0  0  0  0  0
   46.4558   33.1226   45.5690 N   0  0  0  0  0  0  0  0  0  0  0  0
   45.4313   33.8937   45.9974 C   0  0  0  0  0  0  0  0  0  0  0  0
   44.9235   34.8617   45.2163 N   0  0  0  0  0  0  0  0  0  0  0  0
   44.8988   36.1390   43.0923 C   0  0  0  0  0  0  0  0  0  0  0  0
   46.9345   34.4460   42.5139 H   0  0  0  0  0  0  0  0  0  0  0  0
   45.0252   33.7109   46.9953 H   0  0  0  0  0  0  0  0  0  0  0  0
   43.9148   35.7497   42.7139 H   0  0  0  0  0  0  0  0  0  0  0  0
   45.6013   36.3825   42.2993 H   0  0  0  0  0  0  0  0  0  0  0  0
   44.6205   37.0265   43.7146 H   0  0  0  0  0  0  0  0  0  0  0  0
   48.7313   32.0312   46.1420 O   0  0  0  0  0  0  0  0  0  0  0  0
   48.3797   31.3994   44.9647 C   0  0  1  0  0  0  0  0  0  0  0  0
   48.1455   32.4257   43.8878 C   0  0  1  0  0  0  0  0  0  0  0  0
   47.7490   31.7557   42.7518 O   0  0  0  0  0  0  0  0  0  0  0  0
   48.6757   30.9035   42.2172 C   0  0  0  0  0  0  0  0  0  0  0  0
   49.3119   29.9382   43.1471 C   0  0  1  0  0  0  0  0  0  0  0  0
   50.6100   29.7080   42.6880 O   0  0  0  0  0  0  0  0  0  0  0  0
   49.4290   30.3963   44.5675 C   0  0  2  0  0  0  0  0  0  0  0  0
   49.2974   29.2974   45.4160 O   0  0  0  0  0  0  0  0  0  0  0  0
   49.2098   31.4349   46.7545 H   0  0  0  0  0  0  0  0  0  0  0  0
   47.4270   30.8517   45.1215 H   0  0  0  0  0  0  0  0  0  0  0  0
   49.0406   33.0710   43.7453 H   0  0  0  0  0  0  0  0  0  0  0  0
   48.1279   30.2872   41.4453 H   0  0  0  0  0  0  0  0  0  0  0  0
   49.4141   31.4939   41.6076 H   0  0  0  0  0  0  0  0  0  0  0  0
   48.8035   28.9316   43.1201 H   0  0  0  0  0  0  0  0  0  0  0  0
   51.1453   29.2370   43.3784 H   0  0  0  0  0  0  0  0  0  0  0  0
   50.4181   30.8466   44.7986 H   0  0  0  0  0  0  0  0  0  0  0  0
   48.8600   29.4859   46.2622 H   0  0  0  0  0  0  0  0  0  0  0  0
  1  6  2  0
  2  1  1  0
  2  3  2  0
  3  4  1  0
  4  5  2  0
  6  5  1  0
  7  1  1  0
  2  8  1  0
  5  9  1  0
  7 10  1  0
  7 11  1  0
  7 12  1  0
 13 14  1  0
 14 15  1  0
 15 16  1  0
 16 17  1  0
 17 18  1  0
 18 19  1  0
 18 20  1  0
 20 21  1  0
 20 14  1  0
 13 22  1  0
 14 23  1  1
 15 24  1  6
 17 25  1  0
 17 26  1  0
 18 27  1  1
 19 28  1  0
 20 29  1  6
 21 30  1  0
  3 15  1  0
M  ISO  5   8  14   9  14  10   8  11   8  12   8
M  END
>  <DihAtoms>  (1) 
1,2,14,13

>  <DihDeg>  (1) 
-160.9074581986511

$$$$
