
 OpenBabel03242515233D

 24 25  0  0  1  0  0  0  0  0999 V2000
   43.9630   35.5310   41.4100 C   0  0  0  0  0  0  0  0  0  0  0  0
   44.7070   35.1590   40.6520 H   0  0  0  0  0  0  0  0  0  0  0  0
   43.9640   36.6260   41.4270 H   0  0  0  0  0  0  0  0  0  0  0  0
   44.3510   35.8850   43.7810 C   0  0  0  0  0  0  0  0  0  0  0  0
   44.4250   34.9880   42.7010 C   0  0  0  0  0  0  0  0  0  0  0  0
   44.9130   33.7160   42.9610 C   0  0  0  0  0  0  0  0  0  0  0  0
   45.2870   33.4140   44.2200 N   0  0  0  0  0  0  0  0  0  0  0  0
   45.2050   34.2930   45.2310 C   0  0  0  0  0  0  0  0  0  0  0  0
   44.7310   35.5590   45.0340 N   0  0  0  0  0  0  0  0  0  0  0  0
   43.9840   36.9170   43.7110 H   0  0  0  0  0  0  0  0  0  0  0  0
   44.9520   33.0610   42.1020 H   0  0  0  0  0  0  0  0  0  0  0  0
   45.5200   33.9930   46.2220 H   0  0  0  0  0  0  0  0  0  0  0  0
   42.5600   34.4340   39.6950 C   0  0  1  0  0  3  0  0  0  0  0  0
   42.5740   35.0490   41.0490 C   0  0  2  0  0  3  0  0  0  0  0  0
   41.5970   35.9450   41.3190 O   0  0  0  0  0  0  0  0  0  0  0  0
   40.3680   35.7370   40.8230 C   0  0  0  0  0  2  0  0  0  0  0  0
   40.2170   35.1660   39.4650 C   0  0  1  0  0  3  0  0  0  0  0  0
   41.1970   34.0430   39.2110 C   0  0  1  0  0  3  0  0  0  0  0  0
   43.0610   35.4160   38.8150 O   0  0  0  0  0  0  0  0  0  0  0  0
   43.3220   35.0240   37.9540 H   0  0  0  0  0  0  0  0  0  0  0  0
   38.9380   34.6160   39.3560 O   0  0  0  0  0  0  0  0  0  0  0  0
   38.2660   35.2730   39.0910 H   0  0  0  0  0  0  0  0  0  0  0  0
   41.1540   33.7900   37.8520 O   0  0  0  0  0  0  0  0  0  0  0  0
   40.6670   34.4560   37.3430 H   0  0  0  0  0  0  0  0  0  0  0  0
  1  3  1  0  0  0  0
  1  5  1  0  0  0  0
  2  1  1  0  0  0  0
  4  9  1  0  0  0  0
  5  6  1  0  0  0  0
  5  4  2  0  0  0  0
  6  7  2  0  0  0  0
  7  8  1  0  0  0  0
  8 12  1  0  0  0  0
  9  8  2  0  0  0  0
 10  4  1  0  0  0  0
 11  6  1  0  0  0  0
 13 19  1  6  0  0  0
 13 14  1  0  0  0  0
 14 15  1  0  0  0  0
 14  1  1  6  0  0  0
 16 15  1  0  0  0  0
 17 21  1  1  0  0  0
 17 16  1  0  0  0  0
 18 23  1  6  0  0  0
 18 17  1  0  0  0  0
 18 13  1  0  0  0  0
 20 19  1  0  0  0  0
 22 21  1  0  0  0  0
 24 23  1  0  0  0  0
M  END
>  <minimizedAffinity>
-5.2005043

>  <minimizedRMSD>
1.04444408

$$$$
