
 OpenBabel03252503413D

 24 25  0  0  1  0  0  0  0  0999 V2000
   45.8080   34.6160   43.5720 C   0  0  0  0  0  0  0  0  0  0  0  0
   46.7670   34.0770   42.7300 C   0  0  0  0  0  0  0  0  0  0  0  0
   47.5800   33.0620   43.2160 C   0  0  0  0  0  0  0  0  0  0  0  0
   47.4000   32.6460   44.4860 N   0  0  0  0  0  0  0  0  0  0  0  0
   46.4540   33.1890   45.2940 C   0  0  0  0  0  0  0  0  0  0  0  0
   45.6440   34.1810   44.8510 N   0  0  0  0  0  0  0  0  0  0  0  0
   45.1530   35.4090   43.2320 H   0  0  0  0  0  0  0  0  0  0  0  0
   48.3210   32.6600   42.5380 H   0  0  0  0  0  0  0  0  0  0  0  0
   45.6260   31.3230   46.7380 C   0  0  2  0  0  3  0  0  0  0  0  0
   46.3050   32.6960   46.6640 C   0  0  1  0  0  3  0  0  0  0  0  0
   47.5250   32.4930   47.3190 O   0  0  0  0  0  0  0  0  0  0  0  0
   47.2490   32.5470   48.6720 C   0  0  0  0  0  2  0  0  0  0  0  0
   46.2340   31.5600   49.1570 C   0  0  1  0  0  3  0  0  0  0  0  0
   45.1470   31.2290   48.1870 C   0  0  1  0  0  3  0  0  0  0  0  0
   46.6050   30.3430   46.5040 O   0  0  0  0  0  0  0  0  0  0  0  0
   46.3540   29.7860   45.7230 H   0  0  0  0  0  0  0  0  0  0  0  0
   46.8890   30.3830   49.5130 O   0  0  0  0  0  0  0  0  0  0  0  0
   47.4900   30.5740   50.2750 H   0  0  0  0  0  0  0  0  0  0  0  0
   44.1340   32.1810   48.3240 O   0  0  0  0  0  0  0  0  0  0  0  0
   44.2850   32.7800   49.0810 H   0  0  0  0  0  0  0  0  0  0  0  0
   46.8370   34.6470   41.3590 C   0  0  0  0  0  0  0  0  0  0  0  0
   46.1070   34.0900   40.7380 H   0  0  0  0  0  0  0  0  0  0  0  0
   47.8810   34.4540   40.9970 H   0  0  0  0  0  0  0  0  0  0  0  0
   46.6520   35.7180   41.4190 H   0  0  0  0  0  0  0  0  0  0  0  0
  1  6  1  0  0  0  0
  2  3  1  0  0  0  0
  2  1  2  0  0  0  0
  3  4  2  0  0  0  0
  4  5  1  0  0  0  0
  6  5  2  0  0  0  0
  7  1  1  0  0  0  0
  8  3  1  0  0  0  0
  9 15  1  1  0  0  0
  9 14  1  0  0  0  0
 10  5  1  6  0  0  0
 10  9  1  0  0  0  0
 10 11  1  0  0  0  0
 11 12  1  0  0  0  0
 12 13  1  0  0  0  0
 13 17  1  6  0  0  0
 14 19  1  6  0  0  0
 14 13  1  0  0  0  0
 16 15  1  0  0  0  0
 17 18  1  0  0  0  0
 19 20  1  0  0  0  0
 21 24  1  0  0  0  0
 21  2  1  0  0  0  0
 22 21  1  0  0  0  0
 23 21  1  0  0  0  0
M  END
>  <minimizedAffinity>
-4.93313503

>  <minimizedRMSD>
2.42827034

$$$$
