
     RDKit          3D

 28 29  0  0  0  0  0  0  0  0999 V2000
   45.5401   34.7010   44.2363 C   0  0  0  0  0  0  0  0  0  0  0  0
   46.5777   33.9135   43.7391 C   0  0  0  0  0  0  0  0  0  0  0  0
   47.1181   32.9233   44.6009 C   0  0  0  0  0  0  0  0  0  0  0  0
   46.5864   32.8182   45.8384 N   0  0  0  0  0  0  0  0  0  0  0  0
   45.5817   33.5998   46.2831 C   0  0  0  0  0  0  0  0  0  0  0  0
   45.0518   34.5482   45.4815 N   0  0  0  0  0  0  0  0  0  0  0  0
   44.9144   35.9341   43.0708 S   0  0  0  0  0  0  0  0  0  0  0  0
   46.9873   34.0157   42.7448 H   0  0  0  0  0  0  0  0  0  0  0  0
   47.9186   32.3031   44.2420 H   0  0  0  0  0  0  0  0  0  0  0  0
   43.5137   35.8774   43.1276 H   0  0  0  0  0  0  0  0  0  0  0  0
   47.1348   33.3009   48.7386 O   0  0  0  0  0  0  0  0  0  0  0  0
   45.9882   32.5515   48.4519 C   0  0  2  0  0  0  0  0  0  0  0  0
   45.0552   33.4143   47.6657 C   0  0  2  0  0  0  0  0  0  0  0  0
   43.8442   32.7769   47.5710 O   0  0  0  0  0  0  0  0  0  0  0  0
   43.1662   32.5725   48.7375 C   0  0  0  0  0  0  0  0  0  0  0  0
   43.9880   32.3459   49.9578 C   0  0  1  0  0  0  0  0  0  0  0  0
   43.4230   31.3033   50.7030 O   0  0  0  0  0  0  0  0  0  0  0  0
   45.4154   32.0314   49.7239 C   0  0  2  0  0  0  0  0  0  0  0  0
   46.1214   32.5058   50.8517 O   0  0  0  0  0  0  0  0  0  0  0  0
   46.8771   34.2487   48.8761 H   0  0  0  0  0  0  0  0  0  0  0  0
   46.3134   31.7223   47.7726 H   0  0  0  0  0  0  0  0  0  0  0  0
   44.9733   34.4134   48.1584 H   0  0  0  0  0  0  0  0  0  0  0  0
   42.4951   31.6821   48.5522 H   0  0  0  0  0  0  0  0  0  0  0  0
   42.4283   33.4117   48.8594 H   0  0  0  0  0  0  0  0  0  0  0  0
   43.8764   33.2507   50.6165 H   0  0  0  0  0  0  0  0  0  0  0  0
   43.3602   30.5143   50.0955 H   0  0  0  0  0  0  0  0  0  0  0  0
   45.5652   30.9180   49.7719 H   0  0  0  0  0  0  0  0  0  0  0  0
   46.7351   33.2296   50.6447 H   0  0  0  0  0  0  0  0  0  0  0  0
  1  6  2  0
  2  1  1  0
  2  3  2  0
  3  4  1  0
  4  5  2  0
  6  5  1  0
  7  1  1  0
  2  8  1  0
  3  9  1  0
  7 10  1  0
 11 12  1  0
 12 13  1  0
 13 14  1  0
 14 15  1  0
 15 16  1  0
 16 17  1  0
 16 18  1  0
 18 19  1  0
 18 12  1  0
 11 20  1  0
 12 21  1  6
 13 22  1  1
 15 23  1  0
 15 24  1  0
 16 25  1  1
 17 26  1  0
 18 27  1  6
 19 28  1  0
  5 13  1  0
M  ISO  3   8  14   9  14  10  11
M  END
>  <DihAtoms>  (1) 
3,4,12,11

>  <DihDeg>  (1) 
-106.83140567560609

$$$$
