
     RDKit          3D

 28 29  0  0  0  0  0  0  0  0999 V2000
   44.5543   35.6256   45.0666 C   0  0  0  0  0  0  0  0  0  0  0  0
   45.0365   35.8729   43.7730 C   0  0  0  0  0  0  0  0  0  0  0  0
   45.9724   34.9806   43.2455 C   0  0  0  0  0  0  0  0  0  0  0  0
   46.3711   33.9275   43.9933 N   0  0  0  0  0  0  0  0  0  0  0  0
   45.8888   33.7127   45.2401 C   0  0  0  0  0  0  0  0  0  0  0  0
   44.9873   34.5649   45.7587 N   0  0  0  0  0  0  0  0  0  0  0  0
   44.6356   36.9528   42.9908 O   0  0  0  0  0  0  0  0  0  0  0  0
   43.8295   36.3275   45.4596 H   0  0  0  0  0  0  0  0  0  0  0  0
   46.2381   32.8489   45.8102 H   0  0  0  0  0  0  0  0  0  0  0  0
   44.9548   37.8936   43.1282 H   0  0  0  0  0  0  0  0  0  0  0  0
   48.1367   36.1975   43.2191 O   0  0  0  0  0  0  0  0  0  0  0  0
   47.7809   36.0155   41.8732 C   0  0  2  0  0  0  0  0  0  0  0  0
   46.5369   35.1756   41.8678 C   0  0  1  0  0  0  0  0  0  0  0  0
   46.7059   33.9127   41.3243 O   0  0  0  0  0  0  0  0  0  0  0  0
   47.2218   33.9665   40.0488 C   0  0  0  0  0  0  0  0  0  0  0  0
   48.6443   34.4252   40.0969 C   0  0  1  0  0  0  0  0  0  0  0  0
   49.0317   34.8190   38.7997 O   0  0  0  0  0  0  0  0  0  0  0  0
   48.9355   35.4772   41.1213 C   0  0  2  0  0  0  0  0  0  0  0  0
   49.9028   34.9948   42.0320 O   0  0  0  0  0  0  0  0  0  0  0  0
   48.5785   37.0624   43.3398 H   0  0  0  0  0  0  0  0  0  0  0  0
   47.5619   37.0586   41.5048 H   0  0  0  0  0  0  0  0  0  0  0  0
   45.7593   35.7210   41.2933 H   0  0  0  0  0  0  0  0  0  0  0  0
   47.2029   32.9172   39.6362 H   0  0  0  0  0  0  0  0  0  0  0  0
   46.6293   34.5760   39.3483 H   0  0  0  0  0  0  0  0  0  0  0  0
   49.2737   33.5145   40.2985 H   0  0  0  0  0  0  0  0  0  0  0  0
   49.0495   33.9809   38.2644 H   0  0  0  0  0  0  0  0  0  0  0  0
   49.4773   36.3082   40.5819 H   0  0  0  0  0  0  0  0  0  0  0  0
   50.8033   35.0607   41.6267 H   0  0  0  0  0  0  0  0  0  0  0  0
  1  6  2  0
  2  1  1  0
  3  2  2  0
  3  4  1  0
  4  5  2  0
  5  6  1  0
  7  2  1  0
  1  8  1  0
  5  9  1  0
  7 10  1  0
 11 12  1  0
 12 13  1  0
 13 14  1  0
 14 15  1  0
 15 16  1  0
 16 17  1  0
 16 18  1  0
 18 19  1  0
 18 12  1  0
 11 20  1  0
 12 21  1  6
 13 22  1  6
 15 23  1  0
 15 24  1  0
 16 25  1  1
 17 26  1  0
 18 27  1  6
 19 28  1  0
  3 13  1  0
M  ISO  3   8  14   9  14  10   3
M  END
>  <DihAtoms>  (1) 
1,2,12,11

>  <DihDeg>  (1) 
-89.99073827819375

$$$$
