
 OpenBabel03252507383D

 41 45  0  0  1  0  0  0  0  0999 V2000
   45.5430   34.7980   43.5410 C   0  0  0  0  0  0  0  0  0  0  0  0
   46.2640   33.7270   44.1330 C   0  0  0  0  0  0  0  0  0  0  0  0
   46.0630   33.5010   45.4850 C   0  0  0  0  0  0  0  0  0  0  0  0
   45.2070   34.2980   46.1650 N   0  0  0  0  0  0  0  0  0  0  0  0
   44.5290   35.3150   45.5780 C   0  0  0  0  0  0  0  0  0  0  0  0
   44.7020   35.5550   44.2820 N   0  0  0  0  0  0  0  0  0  0  0  0
   46.9380   33.0960   43.6100 H   0  0  0  0  0  0  0  0  0  0  0  0
   43.8430   35.9570   46.1130 H   0  0  0  0  0  0  0  0  0  0  0  0
   47.0210   32.6960   47.5700 C   0  0  0  0  0  0  0  0  0  0  0  0
   46.7240   32.4440   46.2380 C   0  0  0  0  0  0  0  0  0  0  0  0
   47.0650   31.2290   45.7210 C   0  0  0  0  0  0  0  0  0  0  0  0
   47.6900   30.2400   46.4550 C   0  0  0  0  0  0  0  0  0  0  0  0
   48.1100   28.9930   46.1570 N   0  0  0  0  0  0  0  0  0  0  0  0
   48.6720   28.4610   47.3030 C   0  0  0  0  0  0  0  0  0  0  0  0
   48.5830   29.3860   48.2650 N   0  0  0  0  0  0  0  0  0  0  0  0
   47.9870   30.4770   47.7660 C   0  0  0  0  0  0  0  0  0  0  0  0
   47.6540   31.7040   48.3250 C   0  0  0  0  0  0  0  0  0  0  0  0
   46.7920   33.6260   48.0730 H   0  0  0  0  0  0  0  0  0  0  0  0
   46.8400   31.0130   44.6790 H   0  0  0  0  0  0  0  0  0  0  0  0
   48.0060   28.5550   45.2170 H   0  0  0  0  0  0  0  0  0  0  0  0
   49.0730   27.4520   47.2700 H   0  0  0  0  0  0  0  0  0  0  0  0
   47.8830   31.9180   49.3790 H   0  0  0  0  0  0  0  0  0  0  0  0
   45.7450   35.0260   42.1810 O   0  0  0  0  0  0  0  0  0  0  0  0
   44.6920   34.8580   41.2860 C   0  0  0  0  0  0  0  0  0  0  0  0
   45.0230   33.6720   40.7380 C   0  0  0  0  0  0  0  0  0  0  0  0
   43.6000   33.4020   39.5010 S   0  0  0  0  0  0  0  0  0  0  0  0
   42.8480   35.0530   40.0490 C   0  0  0  0  0  0  0  0  0  0  0  0
   43.5890   35.3610   40.8040 N   0  0  0  0  0  0  0  0  0  0  0  0
   45.6700   32.6940   40.5610 H   0  0  0  0  0  0  0  0  0  0  0  0
   41.3440   35.4020   38.1380 C   0  0  1  0  0  3  0  0  0  0  0  0
   41.5580   35.7520   39.5620 C   0  0  1  0  0  3  0  0  0  0  0  0
   40.5380   35.4920   40.4250 O   0  0  0  0  0  0  0  0  0  0  0  0
   39.8640   34.3050   40.2020 C   0  0  0  0  0  2  0  0  0  0  0  0
   39.1310   34.4570   38.8850 C   0  0  1  0  0  3  0  0  0  0  0  0
   40.2250   34.4850   37.8270 C   0  0  2  0  0  3  0  0  0  0  0  0
   41.1140   36.5800   37.3910 O   0  0  0  0  0  0  0  0  0  0  0  0
   40.5080   37.1160   37.9760 H   0  0  0  0  0  0  0  0  0  0  0  0
   38.2670   33.4090   38.6310 O   0  0  0  0  0  0  0  0  0  0  0  0
   37.4250   33.6120   39.1510 H   0  0  0  0  0  0  0  0  0  0  0  0
   40.6640   33.1590   37.6720 O   0  0  0  0  0  0  0  0  0  0  0  0
   39.9770   32.6000   37.2340 H   0  0  0  0  0  0  0  0  0  0  0  0
  1  2  2  0  0  0  0
  1  6  1  0  0  0  0
  2  3  1  0  0  0  0
  3  4  2  0  0  0  0
  3 10  1  0  0  0  0
  5  8  1  0  0  0  0
  5  4  1  0  0  0  0
  6  5  2  0  0  0  0
  7  2  1  0  0  0  0
  9 18  1  0  0  0  0
  9 17  1  0  0  0  0
 10  9  2  0  0  0  0
 11 10  1  0  0  0  0
 11 12  2  0  0  0  0
 12 16  1  0  0  0  0
 13 12  1  0  0  0  0
 13 14  1  0  0  0  0
 14 15  2  0  0  0  0
 16 15  1  0  0  0  0
 16 17  2  0  0  0  0
 17 22  1  0  0  0  0
 19 11  1  0  0  0  0
 20 13  1  0  0  0  0
 21 14  1  0  0  0  0
 23  1  1  0  0  0  0
 24 23  1  0  0  0  0
 25 24  2  0  0  0  0
 26 27  1  0  0  0  0
 26 25  1  0  0  0  0
 27 28  2  0  0  0  0
 28 24  1  0  0  0  0
 29 25  1  0  0  0  0
 30 36  1  6  0  0  0
 30 31  1  0  0  0  0
 31 27  1  1  0  0  0
 31 32  1  0  0  0  0
 33 32  1  0  0  0  0
 34 38  1  6  0  0  0
 34 33  1  0  0  0  0
 35 40  1  1  0  0  0
 35 30  1  0  0  0  0
 35 34  1  0  0  0  0
 36 37  1  0  0  0  0
 38 39  1  0  0  0  0
 41 40  1  0  0  0  0
M  END
>  <minimizedAffinity>
-7.1531601

>  <minimizedRMSD>
0.529381633

$$$$
