
     RDKit          3D

 34 35  0  0  0  0  0  0  0  0999 V2000
   44.6943   35.5180   43.6081 C   0  0  0  0  0  0  0  0  0  0  0  0
   43.9340   35.4466   42.4011 C   0  0  0  0  0  0  0  0  0  0  0  0
   43.7823   34.1718   41.8293 C   0  0  0  0  0  0  0  0  0  0  0  0
   44.3547   33.0913   42.4403 N   0  0  0  0  0  0  0  0  0  0  0  0
   45.0726   33.2158   43.5948 C   0  0  0  0  0  0  0  0  0  0  0  0
   45.2261   34.4354   44.1550 N   0  0  0  0  0  0  0  0  0  0  0  0
   44.8576   36.8303   44.2145 C   0  0  0  0  0  0  0  0  0  0  0  0
   45.2347   37.8434   43.4656 C   0  0  0  0  0  0  0  0  0  0  0  0
   45.4247   39.2135   43.9773 C   0  0  0  0  0  0  0  0  0  0  0  0
   43.5272   36.3554   42.0040 H   0  0  0  0  0  0  0  0  0  0  0  0
   43.2150   34.0992   40.9236 H   0  0  0  0  0  0  0  0  0  0  0  0
   44.6742   36.9986   45.2831 H   0  0  0  0  0  0  0  0  0  0  0  0
   45.4118   37.6503   42.4034 H   0  0  0  0  0  0  0  0  0  0  0  0
   44.4215   39.7221   43.9293 H   0  0  0  0  0  0  0  0  0  0  0  0
   46.0769   39.8010   43.3260 H   0  0  0  0  0  0  0  0  0  0  0  0
   45.7079   39.2383   45.0394 H   0  0  0  0  0  0  0  0  0  0  0  0
   43.7535   30.6052   44.5773 O   0  0  0  0  0  0  0  0  0  0  0  0
   44.7141   31.3916   45.2068 C   0  0  2  0  0  0  0  0  0  0  0  0
   45.6770   32.0331   44.2288 C   0  0  1  0  0  0  0  0  0  0  0  0
   46.0295   31.0363   43.3179 O   0  0  0  0  0  0  0  0  0  0  0  0
   46.8809   30.1544   43.9800 C   0  0  0  0  0  0  0  0  0  0  0  0
   46.2380   29.4762   45.1610 C   0  0  1  0  0  0  0  0  0  0  0  0
   47.2676   28.8895   45.9122 O   0  0  0  0  0  0  0  0  0  0  0  0
   45.5466   30.4623   46.0804 C   0  0  2  0  0  0  0  0  0  0  0  0
   44.6661   29.7754   46.9188 O   0  0  0  0  0  0  0  0  0  0  0  0
   43.0501   31.1293   44.1192 H   0  0  0  0  0  0  0  0  0  0  0  0
   44.2068   32.1779   45.7637 H   0  0  0  0  0  0  0  0  0  0  0  0
   46.5725   32.3269   44.7987 H   0  0  0  0  0  0  0  0  0  0  0  0
   47.1649   29.3325   43.2685 H   0  0  0  0  0  0  0  0  0  0  0  0
   47.7658   30.7482   44.2874 H   0  0  0  0  0  0  0  0  0  0  0  0
   45.4820   28.7660   44.8201 H   0  0  0  0  0  0  0  0  0  0  0  0
   47.4533   28.0171   45.4770 H   0  0  0  0  0  0  0  0  0  0  0  0
   46.2768   31.0478   46.6994 H   0  0  0  0  0  0  0  0  0  0  0  0
   44.5944   30.2271   47.8003 H   0  0  0  0  0  0  0  0  0  0  0  0
  1  6  2  0
  1  7  1  0
  2  1  1  0
  3  2  2  0
  3  4  1  0
  4  5  2  0
  5  6  1  0
  8  9  1  0
  8  7  2  0
  2 10  1  0
  3 11  1  0
  7 12  1  0
  8 13  1  0
  9 14  1  0
  9 15  1  0
  9 16  1  0
 17 18  1  0
 18 19  1  0
 19 20  1  0
 20 21  1  0
 21 22  1  0
 22 23  1  0
 22 24  1  0
 24 25  1  0
 24 18  1  0
 17 26  1  0
 18 27  1  1
 19 28  1  1
 21 29  1  0
 21 30  1  0
 22 31  1  6
 23 32  1  0
 24 33  1  1
 25 34  1  0
  5 19  1  0
M  ISO  5  10  14  11  14  14   8  15   8  16   8
M  END
>  <DihAtoms>  (1) 
3,4,18,17

>  <DihDeg>  (1) 
105.57629265415233

$$$$
