
     RDKit          3D

 30 31  0  0  0  0  0  0  0  0999 V2000
   45.4323   35.0690   44.0027 C   0  0  0  0  0  0  0  0  0  0  0  0
   46.5022   34.2917   43.5079 C   0  0  0  0  0  0  0  0  0  0  0  0
   47.0152   33.2900   44.3373 C   0  0  0  0  0  0  0  0  0  0  0  0
   46.4582   33.1276   45.5565 N   0  0  0  0  0  0  0  0  0  0  0  0
   45.4320   33.8950   45.9939 C   0  0  0  0  0  0  0  0  0  0  0  0
   44.9256   34.8622   45.2119 N   0  0  0  0  0  0  0  0  0  0  0  0
   44.8994   36.1375   43.0938 C   0  0  0  0  0  0  0  0  0  0  0  0
   47.8337   32.6487   44.0380 H   0  0  0  0  0  0  0  0  0  0  0  0
   45.0615   33.6775   46.9904 H   0  0  0  0  0  0  0  0  0  0  0  0
   44.4172   35.6855   42.2156 H   0  0  0  0  0  0  0  0  0  0  0  0
   44.0768   36.6587   43.6434 H   0  0  0  0  0  0  0  0  0  0  0  0
   45.6441   36.9163   42.8729 H   0  0  0  0  0  0  0  0  0  0  0  0
   46.5616   36.3825   40.7488 O   0  0  0  0  0  0  0  0  0  0  0  0
   47.3307   35.9306   41.8411 C   0  0  1  0  0  0  0  0  0  0  0  0
   47.1035   34.4970   42.1410 C   0  0  1  0  0  0  0  0  0  0  0  0
   48.1062   33.6182   41.8776 O   0  0  0  0  0  0  0  0  0  0  0  0
   49.3752   34.0794   41.7509 C   0  0  0  0  0  0  0  0  0  0  0  0
   49.3702   35.2421   40.7532 C   0  0  1  0  0  0  0  0  0  0  0  0
   48.5451   34.9375   39.6944 O   0  0  0  0  0  0  0  0  0  0  0  0
   48.7247   36.3665   41.5765 C   0  0  1  0  0  0  0  0  0  0  0  0
   48.7553   37.4960   40.7790 O   0  0  0  0  0  0  0  0  0  0  0  0
   46.0243   35.6262   40.3582 H   0  0  0  0  0  0  0  0  0  0  0  0
   46.9191   36.5215   42.7113 H   0  0  0  0  0  0  0  0  0  0  0  0
   46.2533   34.1644   41.4687 H   0  0  0  0  0  0  0  0  0  0  0  0
   49.9625   33.2776   41.2323 H   0  0  0  0  0  0  0  0  0  0  0  0
   49.9111   34.3672   42.6541 H   0  0  0  0  0  0  0  0  0  0  0  0
   50.3960   35.5435   40.4560 H   0  0  0  0  0  0  0  0  0  0  0  0
   49.0402   34.8694   38.8211 H   0  0  0  0  0  0  0  0  0  0  0  0
   49.3533   36.4822   42.4739 H   0  0  0  0  0  0  0  0  0  0  0  0
   49.6402   37.6783   40.3816 H   0  0  0  0  0  0  0  0  0  0  0  0
  1  6  2  0
  2  1  1  0
  2  3  2  0
  3  4  1  0
  4  5  2  0
  6  5  1  0
  7  1  1  0
  3  8  1  0
  5  9  1  0
  7 10  1  0
  7 11  1  0
  7 12  1  0
 13 14  1  0
 14 15  1  0
 15 16  1  0
 16 17  1  0
 17 18  1  0
 18 19  1  0
 18 20  1  0
 20 21  1  0
 20 14  1  0
 13 22  1  0
 14 23  1  1
 15 24  1  6
 17 25  1  0
 17 26  1  0
 18 27  1  6
 19 28  1  0
 20 29  1  1
 21 30  1  0
  2 15  1  0
M  ISO  5   8  14   9  14  10   8  11   8  12   8
M  END
>  <DihAtoms>  (1) 
0,1,14,13

>  <DihDeg>  (1) 
89.861872152592

$$$$
