
     RDKit          3D

 43 46  0  0  0  0  0  0  0  0999 V2000
   45.2183   36.1778   43.4898 C   0  0  0  0  0  0  0  0  0  0  0  0
   45.8561   34.9765   43.1621 C   0  0  0  0  0  0  0  0  0  0  0  0
   45.8035   33.9863   44.1441 C   0  0  0  0  0  0  0  0  0  0  0  0
   45.1840   34.1796   45.3159 N   0  0  0  0  0  0  0  0  0  0  0  0
   44.5779   35.3710   45.5835 C   0  0  0  0  0  0  0  0  0  0  0  0
   44.5982   36.3561   44.6760 N   0  0  0  0  0  0  0  0  0  0  0  0
   46.4233   32.7528   43.8916 C   0  0  0  0  0  0  0  0  0  0  0  0
   47.7038   32.2887   44.0109 C   0  0  0  0  0  0  0  0  0  0  0  0
   48.0388   31.0418   43.6922 C   0  0  0  0  0  0  0  0  0  0  0  0
   47.0474   30.2257   43.2349 C   0  0  0  0  0  0  0  0  0  0  0  0
   45.5651   31.3317   43.2737 S   0  0  0  0  0  0  0  0  0  0  0  0
   46.4959   34.8308   41.9025 C   0  0  0  0  0  0  0  0  0  0  0  0
   47.6926   35.2380   41.8300 O   0  0  0  0  0  0  0  0  0  0  0  0
   45.7546   34.2208   40.7458 C   0  0  0  0  0  0  0  0  0  0  0  0
   44.4070   34.3389   40.4861 C   0  0  0  0  0  0  0  0  0  0  0  0
   44.1921   33.6347   39.3598 N   0  0  0  0  0  0  0  0  0  0  0  0
   45.3854   33.0998   38.9443 C   0  0  0  0  0  0  0  0  0  0  0  0
   46.3510   33.4649   39.8050 N   0  0  0  0  0  0  0  0  0  0  0  0
   45.2205   36.9961   42.7676 H   0  0  0  0  0  0  0  0  0  0  0  0
   44.0857   35.4936   46.5417 H   0  0  0  0  0  0  0  0  0  0  0  0
   48.4367   33.0298   44.3923 H   0  0  0  0  0  0  0  0  0  0  0  0
   49.0272   30.6062   43.7597 H   0  0  0  0  0  0  0  0  0  0  0  0
   47.0275   29.1995   42.9120 H   0  0  0  0  0  0  0  0  0  0  0  0
   43.6870   34.8902   41.0797 H   0  0  0  0  0  0  0  0  0  0  0  0
   43.3079   33.4910   38.8577 H   0  0  0  0  0  0  0  0  0  0  0  0
   46.4561   30.0286   37.3271 O   0  0  0  0  0  0  0  0  0  0  0  0
   45.5032   30.8033   38.0277 C   0  0  1  0  0  0  0  0  0  0  0  0
   45.7070   32.2463   37.7680 C   0  0  1  0  0  0  0  0  0  0  0  0
   45.0836   32.7655   36.6627 O   0  0  0  0  0  0  0  0  0  0  0  0
   44.1653   31.9621   36.0333 C   0  0  0  0  0  0  0  0  0  0  0  0
   43.2478   31.3131   37.0331 C   0  0  1  0  0  0  0  0  0  0  0  0
   42.2958   30.5833   36.2889 O   0  0  0  0  0  0  0  0  0  0  0  0
   44.0990   30.3091   37.7932 C   0  0  1  0  0  0  0  0  0  0  0  0
   44.1885   29.1863   36.9708 O   0  0  0  0  0  0  0  0  0  0  0  0
   47.1692   30.5818   36.9379 H   0  0  0  0  0  0  0  0  0  0  0  0
   45.7423   30.6069   39.0954 H   0  0  0  0  0  0  0  0  0  0  0  0
   46.8108   32.3597   37.5530 H   0  0  0  0  0  0  0  0  0  0  0  0
   44.6099   31.1622   35.4116 H   0  0  0  0  0  0  0  0  0  0  0  0
   43.5405   32.6036   35.3783 H   0  0  0  0  0  0  0  0  0  0  0  0
   42.7735   32.0353   37.7181 H   0  0  0  0  0  0  0  0  0  0  0  0
   42.1286   29.6931   36.7304 H   0  0  0  0  0  0  0  0  0  0  0  0
   43.5985   29.9608   38.7266 H   0  0  0  0  0  0  0  0  0  0  0  0
   44.0477   28.3403   37.4277 H   0  0  0  0  0  0  0  0  0  0  0  0
  1  6  2  0
  2  1  1  0
  2  3  2  0
  3  4  1  0
  4  5  2  0
  6  5  1  0
  7  8  2  0
  7  3  1  0
  9  8  1  0
 10 11  1  0
 10  9  2  0
 11  7  1  0
 12  2  1  0
 13 12  2  0
 14 12  1  0
 15 14  2  0
 16 15  1  0
 17 16  1  0
 17 18  2  0
 18 14  1  0
  1 19  1  0
  5 20  1  0
  8 21  1  0
  9 22  1  0
 10 23  1  0
 15 24  1  0
 16 25  1  0
 26 27  1  0
 27 28  1  0
 28 29  1  0
 29 30  1  0
 30 31  1  0
 31 32  1  0
 31 33  1  0
 33 34  1  0
 33 27  1  0
 26 35  1  0
 27 36  1  1
 28 37  1  6
 30 38  1  0
 30 39  1  0
 31 40  1  1
 32 41  1  0
 33 42  1  1
 34 43  1  0
 17 28  1  0
M  ISO  7  19  14  20  14  21  14  22  14  23  14  24  14  25   9
M  END
>  <DihAtoms>  (1) 
15,16,27,26

>  <DihDeg>  (1) 
3.8545125391431783

$$$$
