REMARK  Name = 
REMARK  5 active torsions:
REMARK  status: ('A' for Active; 'I' for Inactive)
REMARK    1  A    between atoms: C_2  and  C_7
REMARK    2  A    between atoms: C_5  and  C_15
REMARK    3  A    between atoms: O_13  and  C_14
REMARK    4  A    between atoms: C_18  and  O_19
REMARK    5  A    between atoms: C_20  and  O_21
REMARK                            x       y       z     vdW  Elec       q    Type
REMARK                         _______ _______ _______ _____ _____    ______ ____
ROOT
ATOM      1  C   UNL     1      44.383  35.779  44.434  0.00  0.00    +0.000 A 
ATOM      2  C   UNL     1      44.664  35.070  43.277  0.00  0.00    +0.000 A 
ATOM      3  C   UNL     1      45.288  33.835  43.392  0.00  0.00    +0.000 A 
ATOM      4  N   UNL     1      45.592  33.380  44.624  0.00  0.00    +0.000 NA
ATOM      5  C   UNL     1      45.308  34.091  45.745  0.00  0.00    +0.000 A 
ATOM      6  N   UNL     1      44.699  35.300  45.668  0.00  0.00    +0.000 NA
ATOM      7  H   UNL     1      43.897  36.746  44.389  0.00  0.00    +0.000 HD
ATOM      8  H   UNL     1      45.496  33.304  42.473  0.00  0.00    +0.000 HD
ENDROOT
BRANCH   5  10
ATOM      9  C   UNL     1      45.350  32.050  47.189  0.00  0.00    +0.000 C 
ATOM     10  C   UNL     1      45.662  33.546  47.056  0.00  0.00    +0.000 C 
ATOM     11  O   UNL     1      47.030  33.621  47.340  0.00  0.00    +0.000 OA
ATOM     12  C   UNL     1      47.141  33.577  48.716  0.00  0.00    +0.000 C 
ATOM     13  C   UNL     1      46.546  32.368  49.367  0.00  0.00    +0.000 C 
ATOM     14  C   UNL     1      45.331  31.812  48.699  0.00  0.00    +0.000 C 
BRANCH   9  15
ATOM     15  O   UNL     1      46.415  31.334  46.615  0.00  0.00    +0.000 OA
ATOM     16  H   UNL     1      46.083  30.752  45.885  0.00  0.00    +0.000 HD
ENDBRANCH   9  15
BRANCH  13  17
ATOM     17  O   UNL     1      47.516  31.370  49.430  0.00  0.00    +0.000 OA
ATOM     18  H   UNL     1      48.251  31.680  50.016  0.00  0.00    +0.000 HD
ENDBRANCH  13  17
BRANCH  14  19
ATOM     19  O   UNL     1      44.214  32.495  49.186  0.00  0.00    +0.000 OA
ATOM     20  H   UNL     1      44.436  33.096  49.923  0.00  0.00    +0.000 HD
ENDBRANCH  14  19
ENDBRANCH   5  10
BRANCH   2  21
ATOM     21  C   UNL     1      44.264  35.711  41.997  0.00  0.00    +0.000 C 
ATOM     22  H   UNL     1      43.209  35.428  41.808  0.00  0.00    +0.000 HD
ATOM     23  H   UNL     1      44.931  35.271  41.210  0.00  0.00    +0.000 HD
ATOM     24  H   UNL     1      44.435  36.783  42.078  0.00  0.00    +0.000 HD
ENDBRANCH   2  21
TORSDOF 5
