
 OpenBabel03252501463D

 26 27  0  0  1  0  0  0  0  0999 V2000
   38.3390   27.6890   40.4380 C   0  0  0  0  0  0  0  0  0  0  0  0
   37.4860   27.1480   41.3940 C   0  0  0  0  0  0  0  0  0  0  0  0
   36.8970   28.0060   42.3050 C   0  0  0  0  0  0  0  0  0  0  0  0
   37.1800   29.3480   42.2270 N   0  0  0  0  0  0  0  0  0  0  0  0
   38.0110   29.8380   41.2880 C   0  0  0  0  0  0  0  0  0  0  0  0
   38.5870   29.0100   40.4000 N   0  0  0  0  0  0  0  0  0  0  0  0
   38.7830   26.9790   39.7380 H   0  0  0  0  0  0  0  0  0  0  0  0
   36.2170   27.6790   43.0880 H   0  0  0  0  0  0  0  0  0  0  0  0
   37.4050   31.9100   40.1770 C   0  0  1  0  0  3  0  0  0  0  0  0
   38.3210   31.2840   41.1980 C   0  0  2  0  0  3  0  0  0  0  0  0
   39.6310   31.4070   40.7900 O   0  0  0  0  0  0  0  0  0  0  0  0
   40.0720   32.7150   40.7250 C   0  0  0  0  0  2  0  0  0  0  0  0
   39.1830   33.5470   39.8380 C   0  0  2  0  0  3  0  0  0  0  0  0
   37.7150   33.3980   40.1840 C   0  0  1  0  0  3  0  0  0  0  0  0
   37.6820   31.4360   38.8980 O   0  0  0  0  0  0  0  0  0  0  0  0
   38.5530   30.9620   38.8520 H   0  0  0  0  0  0  0  0  0  0  0  0
   39.3600   33.1720   38.5030 O   0  0  0  0  0  0  0  0  0  0  0  0
   40.2060   32.6700   38.3790 H   0  0  0  0  0  0  0  0  0  0  0  0
   36.9930   34.0730   39.2080 O   0  0  0  0  0  0  0  0  0  0  0  0
   36.0790   34.2840   39.4600 H   0  0  0  0  0  0  0  0  0  0  0  0
   37.2010   25.7280   41.4600 C   0  0  0  0  0  3  0  0  0  0  0  0
   37.6720   24.7850   40.6820 C   0  0  0  0  0  3  0  0  0  0  0  0
   37.2940   23.3490   40.8580 C   0  0  0  0  0  0  0  0  0  0  0  0
   37.2600   23.2080   41.9770 H   0  0  0  0  0  0  0  0  0  0  0  0
   36.2620   23.1480   40.4960 H   0  0  0  0  0  0  0  0  0  0  0  0
   38.0460   22.6550   40.4880 H   0  0  0  0  0  0  0  0  0  0  0  0
  1  2  1  0  0  0  0
  2 21  1  0  0  0  0
  2  3  2  0  0  0  0
  3  8  1  0  0  0  0
  4  3  1  0  0  0  0
  5  4  2  0  0  0  0
  6  1  2  0  0  0  0
  6  5  1  0  0  0  0
  7  1  1  0  0  0  0
  9 15  1  6  0  0  0
  9 14  1  0  0  0  0
  9 10  1  0  0  0  0
 10  5  1  6  0  0  0
 11 10  1  0  0  0  0
 12 11  1  0  0  0  0
 13 17  1  6  0  0  0
 13 14  1  0  0  0  0
 13 12  1  0  0  0  0
 14 19  1  6  0  0  0
 16 15  1  0  0  0  0
 18 17  1  0  0  0  0
 19 20  1  0  0  0  0
 22 23  1  0  0  0  0
 22 21  2  0  0  0  0
 23 24  1  0  0  0  0
 25 23  1  0  0  0  0
 26 23  1  0  0  0  0
M  END
>  <minimizedAffinity>
-5.00338984

$$$$

 OpenBabel03252501463D

 26 27  0  0  1  0  0  0  0  0999 V2000
   36.6620   28.2820   39.9810 C   0  0  0  0  0  0  0  0  0  0  0  0
   37.4600   27.4060   40.7080 C   0  0  0  0  0  0  0  0  0  0  0  0
   38.6950   27.8540   41.1430 C   0  0  0  0  0  0  0  0  0  0  0  0
   39.0770   29.1380   40.8380 N   0  0  0  0  0  0  0  0  0  0  0  0
   38.2780   29.9590   40.1310 C   0  0  0  0  0  0  0  0  0  0  0  0
   37.0780   29.5300   39.7050 N   0  0  0  0  0  0  0  0  0  0  0  0
   35.6960   27.8900   39.6560 H   0  0  0  0  0  0  0  0  0  0  0  0
   39.3890   27.2440   41.7170 H   0  0  0  0  0  0  0  0  0  0  0  0
   39.8480   31.7290   40.6760 C   0  0  1  0  0  3  0  0  0  0  0  0
   38.6840   31.3450   39.7980 C   0  0  2  0  0  3  0  0  0  0  0  0
   37.6100   32.1690   40.0570 O   0  0  0  0  0  0  0  0  0  0  0  0
   37.8340   33.4930   39.7290 C   0  0  0  0  0  2  0  0  0  0  0  0
   39.0620   34.0250   40.4200 C   0  0  2  0  0  3  0  0  0  0  0  0
   40.2670   33.1240   40.2400 C   0  0  1  0  0  3  0  0  0  0  0  0
   39.4630   31.8120   42.0110 O   0  0  0  0  0  0  0  0  0  0  0  0
   38.4760   31.8290   42.1190 H   0  0  0  0  0  0  0  0  0  0  0  0
   38.8150   34.1610   41.7880 O   0  0  0  0  0  0  0  0  0  0  0  0
   37.8420   34.1650   41.9810 H   0  0  0  0  0  0  0  0  0  0  0  0
   41.2800   33.6270   41.0470 O   0  0  0  0  0  0  0  0  0  0  0  0
   42.1690   33.3100   40.8170 H   0  0  0  0  0  0  0  0  0  0  0  0
   37.0390   26.0540   41.0190 C   0  0  0  0  0  3  0  0  0  0  0  0
   36.9870   25.0290   40.2040 C   0  0  0  0  0  3  0  0  0  0  0  0
   36.5290   23.6790   40.6550 C   0  0  0  0  0  0  0  0  0  0  0  0
   36.9700   23.5700   41.6880 H   0  0  0  0  0  0  0  0  0  0  0  0
   35.4260   23.6430   40.7910 H   0  0  0  0  0  0  0  0  0  0  0  0
   36.9390   22.8640   40.0640 H   0  0  0  0  0  0  0  0  0  0  0  0
  1  2  1  0  0  0  0
  2 21  1  0  0  0  0
  2  3  2  0  0  0  0
  3  8  1  0  0  0  0
  4  3  1  0  0  0  0
  5  4  2  0  0  0  0
  6  1  2  0  0  0  0
  6  5  1  0  0  0  0
  7  1  1  0  0  0  0
  9 15  1  1  0  0  0
 10 11  1  0  0  0  0
 10  5  1  1  0  0  0
 10  9  1  0  0  0  0
 12 11  1  0  0  0  0
 12 13  1  0  0  0  0
 13 17  1  1  0  0  0
 14 13  1  0  0  0  0
 14  9  1  0  0  0  0
 14 19  1  1  0  0  0
 15 16  1  0  0  0  0
 17 18  1  0  0  0  0
 20 19  1  0  0  0  0
 22 23  1  0  0  0  0
 22 21  2  0  0  0  0
 23 25  1  0  0  0  0
 23 24  1  0  0  0  0
 26 23  1  0  0  0  0
M  END
>  <minimizedAffinity>
-4.84929371

$$$$

 OpenBabel03252501463D

 26 27  0  0  1  0  0  0  0  0999 V2000
   37.1760   29.0520   39.1810 C   0  0  0  0  0  0  0  0  0  0  0  0
   36.9800   30.1330   40.0330 C   0  0  0  0  0  0  0  0  0  0  0  0
   36.7730   29.8760   41.3770 C   0  0  0  0  0  0  0  0  0  0  0  0
   36.7700   28.5720   41.8080 N   0  0  0  0  0  0  0  0  0  0  0  0
   36.9630   27.5490   40.9530 C   0  0  0  0  0  0  0  0  0  0  0  0
   37.1640   27.7920   39.6470 N   0  0  0  0  0  0  0  0  0  0  0  0
   37.3350   29.2980   38.1280 H   0  0  0  0  0  0  0  0  0  0  0  0
   36.6100   30.6530   42.1210 H   0  0  0  0  0  0  0  0  0  0  0  0
   38.3450   25.7870   41.8900 C   0  0  1  0  0  3  0  0  0  0  0  0
   36.9600   26.1400   41.4110 C   0  0  2  0  0  3  0  0  0  0  0  0
   36.6230   25.3510   40.3330 O   0  0  0  0  0  0  0  0  0  0  0  0
   36.5210   24.0070   40.6390 C   0  0  0  0  0  2  0  0  0  0  0  0
   37.7910   23.4940   41.2670 C   0  0  2  0  0  3  0  0  0  0  0  0
   38.2630   24.3620   42.4150 C   0  0  1  0  0  3  0  0  0  0  0  0
   39.2560   25.7880   40.8380 O   0  0  0  0  0  0  0  0  0  0  0  0
   38.8080   25.7930   39.9520 H   0  0  0  0  0  0  0  0  0  0  0  0
   38.8070   23.4410   40.3090 O   0  0  0  0  0  0  0  0  0  0  0  0
   38.4370   23.4650   39.3890 H   0  0  0  0  0  0  0  0  0  0  0  0
   39.5110   23.8900   42.8020 O   0  0  0  0  0  0  0  0  0  0  0  0
   39.7910   24.1770   43.6860 H   0  0  0  0  0  0  0  0  0  0  0  0
   36.9860   31.5030   39.5590 C   0  0  0  0  0  3  0  0  0  0  0  0
   37.4630   32.5560   40.1760 C   0  0  0  0  0  3  0  0  0  0  0  0
   37.4050   33.9230   39.5720 C   0  0  0  0  0  0  0  0  0  0  0  0
   37.6220   33.7500   38.4770 H   0  0  0  0  0  0  0  0  0  0  0  0
   36.3790   34.3480   39.6130 H   0  0  0  0  0  0  0  0  0  0  0  0
   38.1850   34.5890   39.9330 H   0  0  0  0  0  0  0  0  0  0  0  0
  1  6  2  0  0  0  0
  1  2  1  0  0  0  0
  2  3  2  0  0  0  0
  3  4  1  0  0  0  0
  3  8  1  0  0  0  0
  5  4  2  0  0  0  0
  6  5  1  0  0  0  0
  7  1  1  0  0  0  0
  9 15  1  6  0  0  0
  9 14  1  0  0  0  0
 10  5  1  6  0  0  0
 10  9  1  0  0  0  0
 11 12  1  0  0  0  0
 11 10  1  0  0  0  0
 12 13  1  0  0  0  0
 13 17  1  6  0  0  0
 13 14  1  0  0  0  0
 14 19  1  6  0  0  0
 16 15  1  0  0  0  0
 18 17  1  0  0  0  0
 19 20  1  0  0  0  0
 21  2  1  0  0  0  0
 21 22  2  0  0  0  0
 23 25  1  0  0  0  0
 23 26  1  0  0  0  0
 23 22  1  0  0  0  0
 24 23  1  0  0  0  0
M  END
>  <minimizedAffinity>
-4.79074526

$$$$

 OpenBabel03252501463D

 26 27  0  0  1  0  0  0  0  0999 V2000
   41.0290   28.9970   37.3890 C   0  0  0  0  0  0  0  0  0  0  0  0
   41.4850   30.3040   37.2670 C   0  0  0  0  0  0  0  0  0  0  0  0
   40.7030   31.3210   37.7860 C   0  0  0  0  0  0  0  0  0  0  0  0
   39.5160   30.9950   38.3960 N   0  0  0  0  0  0  0  0  0  0  0  0
   39.1050   29.7170   38.4960 C   0  0  0  0  0  0  0  0  0  0  0  0
   39.8600   28.7250   37.9940 N   0  0  0  0  0  0  0  0  0  0  0  0
   41.6750   28.2240   36.9660 H   0  0  0  0  0  0  0  0  0  0  0  0
   40.9740   32.3730   37.7390 H   0  0  0  0  0  0  0  0  0  0  0  0
   37.3830   30.5180   40.0080 C   0  0  1  0  0  3  0  0  0  0  0  0
   37.8260   29.3590   39.1520 C   0  0  2  0  0  3  0  0  0  0  0  0
   38.0550   28.2540   39.9420 O   0  0  0  0  0  0  0  0  0  0  0  0
   36.9200   27.7730   40.5680 C   0  0  0  0  0  2  0  0  0  0  0  0
   36.2500   28.8490   41.3810 C   0  0  2  0  0  3  0  0  0  0  0  0
   36.0350   30.1250   40.5920 C   0  0  1  0  0  3  0  0  0  0  0  0
   38.2540   30.7150   41.0750 O   0  0  0  0  0  0  0  0  0  0  0  0
   38.8630   29.9420   41.2130 H   0  0  0  0  0  0  0  0  0  0  0  0
   37.0270   29.1510   42.5020 O   0  0  0  0  0  0  0  0  0  0  0  0
   37.6810   28.4300   42.6930 H   0  0  0  0  0  0  0  0  0  0  0  0
   35.5660   31.0840   41.4810 O   0  0  0  0  0  0  0  0  0  0  0  0
   35.1370   31.8460   41.0580 H   0  0  0  0  0  0  0  0  0  0  0  0
   42.7410   30.6270   36.6190 C   0  0  0  0  0  3  0  0  0  0  0  0
   43.3900   29.9080   35.7360 C   0  0  0  0  0  3  0  0  0  0  0  0
   44.6860   30.3590   35.1430 C   0  0  0  0  0  0  0  0  0  0  0  0
   44.5480   31.4690   34.9910 H   0  0  0  0  0  0  0  0  0  0  0  0
   45.5260   30.2540   35.8630 H   0  0  0  0  0  0  0  0  0  0  0  0
   44.8800   29.9410   34.1580 H   0  0  0  0  0  0  0  0  0  0  0  0
  1  6  1  0  0  0  0
  2  1  2  0  0  0  0
  2  3  1  0  0  0  0
  3  4  2  0  0  0  0
  4  5  1  0  0  0  0
  6  5  2  0  0  0  0
  7  1  1  0  0  0  0
  8  3  1  0  0  0  0
  9 14  1  0  0  0  0
  9 15  1  1  0  0  0
 10  5  1  1  0  0  0
 10 11  1  0  0  0  0
 10  9  1  0  0  0  0
 11 12  1  0  0  0  0
 12 13  1  0  0  0  0
 13 17  1  1  0  0  0
 14 13  1  0  0  0  0
 14 19  1  1  0  0  0
 15 16  1  0  0  0  0
 17 18  1  0  0  0  0
 20 19  1  0  0  0  0
 21  2  1  0  0  0  0
 22 21  2  0  0  0  0
 23 22  1  0  0  0  0
 23 25  1  0  0  0  0
 24 23  1  0  0  0  0
 26 23  1  0  0  0  0
M  END
>  <minimizedAffinity>
-4.78201437

$$$$

 OpenBabel03252501463D

 26 27  0  0  1  0  0  0  0  0999 V2000
   38.4380   28.2430   40.3380 C   0  0  0  0  0  0  0  0  0  0  0  0
   37.4700   28.1050   41.3270 C   0  0  0  0  0  0  0  0  0  0  0  0
   36.9240   29.2530   41.8730 C   0  0  0  0  0  0  0  0  0  0  0  0
   37.3600   30.4730   41.4160 N   0  0  0  0  0  0  0  0  0  0  0  0
   38.3000   30.5690   40.4560 C   0  0  0  0  0  0  0  0  0  0  0  0
   38.8340   29.4580   39.9230 N   0  0  0  0  0  0  0  0  0  0  0  0
   38.8440   27.3130   39.9340 H   0  0  0  0  0  0  0  0  0  0  0  0
   36.1630   29.2480   42.6500 H   0  0  0  0  0  0  0  0  0  0  0  0
   40.2430   31.7700   39.6340 C   0  0  1  0  0  3  0  0  0  0  0  0
   38.7750   31.8820   39.9600 C   0  0  2  0  0  3  0  0  0  0  0  0
   38.5890   32.8030   40.9680 O   0  0  0  0  0  0  0  0  0  0  0  0
   38.9350   34.0930   40.6130 C   0  0  0  0  0  2  0  0  0  0  0  0
   40.3580   34.1590   40.1210 C   0  0  2  0  0  3  0  0  0  0  0  0
   40.6540   33.1180   39.0610 C   0  0  1  0  0  3  0  0  0  0  0  0
   40.9980   31.5620   40.7840 O   0  0  0  0  0  0  0  0  0  0  0  0
   40.4830   31.7480   41.6120 H   0  0  0  0  0  0  0  0  0  0  0  0
   41.2380   33.9640   41.1880 O   0  0  0  0  0  0  0  0  0  0  0  0
   40.7880   34.1110   42.0590 H   0  0  0  0  0  0  0  0  0  0  0  0
   42.0200   33.1670   38.8080 O   0  0  0  0  0  0  0  0  0  0  0  0
   42.2870   32.7530   37.9700 H   0  0  0  0  0  0  0  0  0  0  0  0
   37.0240   26.8080   41.7960 C   0  0  0  0  0  3  0  0  0  0  0  0
   37.5050   25.6340   41.4680 C   0  0  0  0  0  3  0  0  0  0  0  0
   36.9480   24.3640   42.0260 C   0  0  0  0  0  0  0  0  0  0  0  0
   36.7230   24.6110   43.1040 H   0  0  0  0  0  0  0  0  0  0  0  0
   35.9710   24.1050   41.5640 H   0  0  0  0  0  0  0  0  0  0  0  0
   37.6680   23.5490   42.0470 H   0  0  0  0  0  0  0  0  0  0  0  0
  1  2  1  0  0  0  0
  2 21  1  0  0  0  0
  2  3  2  0  0  0  0
  3  8  1  0  0  0  0
  4  3  1  0  0  0  0
  5  4  2  0  0  0  0
  6  1  2  0  0  0  0
  6  5  1  0  0  0  0
  7  1  1  0  0  0  0
  9 10  1  0  0  0  0
  9 15  1  1  0  0  0
 10  5  1  1  0  0  0
 10 11  1  0  0  0  0
 12 11  1  0  0  0  0
 13 12  1  0  0  0  0
 13 17  1  1  0  0  0
 14 19  1  1  0  0  0
 14  9  1  0  0  0  0
 14 13  1  0  0  0  0
 15 16  1  0  0  0  0
 17 18  1  0  0  0  0
 20 19  1  0  0  0  0
 22 21  2  0  0  0  0
 22 23  1  0  0  0  0
 23 26  1  0  0  0  0
 23 24  1  0  0  0  0
 25 23  1  0  0  0  0
M  END
>  <minimizedAffinity>
-4.70004034

$$$$

 OpenBabel03252501463D

 26 27  0  0  1  0  0  0  0  0999 V2000
   38.3790   31.2310   38.0400 C   0  0  0  0  0  0  0  0  0  0  0  0
   37.4790   31.2420   39.1000 C   0  0  0  0  0  0  0  0  0  0  0  0
   37.7540   32.0610   40.1820 C   0  0  0  0  0  0  0  0  0  0  0  0
   38.8970   32.8210   40.1620 N   0  0  0  0  0  0  0  0  0  0  0  0
   39.7470   32.7850   39.1170 C   0  0  0  0  0  0  0  0  0  0  0  0
   39.4860   31.9930   38.0640 N   0  0  0  0  0  0  0  0  0  0  0  0
   38.1260   30.5720   37.2060 H   0  0  0  0  0  0  0  0  0  0  0  0
   37.1120   32.1380   41.0560 H   0  0  0  0  0  0  0  0  0  0  0  0
   41.7790   33.2280   37.8650 C   0  0  1  0  0  3  0  0  0  0  0  0
   40.9820   33.6030   39.0890 C   0  0  2  0  0  3  0  0  0  0  0  0
   41.7040   33.3090   40.2250 O   0  0  0  0  0  0  0  0  0  0  0  0
   42.8600   34.0550   40.3560 C   0  0  0  0  0  2  0  0  0  0  0  0
   43.7420   33.9120   39.1430 C   0  0  2  0  0  3  0  0  0  0  0  0
   42.9900   34.1470   37.8490 C   0  0  1  0  0  3  0  0  0  0  0  0
   42.2520   31.9220   37.9540 O   0  0  0  0  0  0  0  0  0  0  0  0
   42.1810   31.5580   38.8750 H   0  0  0  0  0  0  0  0  0  0  0  0
   44.2930   32.6290   39.1050 O   0  0  0  0  0  0  0  0  0  0  0  0
   44.2390   32.1860   39.9910 H   0  0  0  0  0  0  0  0  0  0  0  0
   43.8550   33.8310   36.8090 O   0  0  0  0  0  0  0  0  0  0  0  0
   43.5940   34.1950   35.9460 H   0  0  0  0  0  0  0  0  0  0  0  0
   36.2780   30.4320   39.1030 C   0  0  0  0  0  3  0  0  0  0  0  0
   35.8270   29.6740   38.1330 C   0  0  0  0  0  3  0  0  0  0  0  0
   34.5640   28.8840   38.2650 C   0  0  0  0  0  0  0  0  0  0  0  0
   34.5860   28.5050   39.3280 H   0  0  0  0  0  0  0  0  0  0  0  0
   33.6640   29.5320   38.1930 H   0  0  0  0  0  0  0  0  0  0  0  0
   34.5370   28.0020   37.6310 H   0  0  0  0  0  0  0  0  0  0  0  0
  1  6  2  0  0  0  0
  1  2  1  0  0  0  0
  2 21  1  0  0  0  0
  2  3  2  0  0  0  0
  3  8  1  0  0  0  0
  4  3  1  0  0  0  0
  5  4  2  0  0  0  0
  6  5  1  0  0  0  0
  7  1  1  0  0  0  0
  9 15  1  1  0  0  0
  9 10  1  0  0  0  0
 10  5  1  1  0  0  0
 10 11  1  0  0  0  0
 11 12  1  0  0  0  0
 13 17  1  6  0  0  0
 13 12  1  0  0  0  0
 14 19  1  6  0  0  0
 14  9  1  0  0  0  0
 14 13  1  0  0  0  0
 15 16  1  0  0  0  0
 17 18  1  0  0  0  0
 20 19  1  0  0  0  0
 22 23  1  0  0  0  0
 22 21  2  0  0  0  0
 23 24  1  0  0  0  0
 25 23  1  0  0  0  0
 26 23  1  0  0  0  0
M  END
>  <minimizedAffinity>
-4.59745646

$$$$

 OpenBabel03252501463D

 26 27  0  0  1  0  0  0  0  0999 V2000
   33.4360   28.2530   36.9740 C   0  0  0  0  0  0  0  0  0  0  0  0
   33.6090   26.9050   36.6810 C   0  0  0  0  0  0  0  0  0  0  0  0
   34.7060   26.2560   37.2190 C   0  0  0  0  0  0  0  0  0  0  0  0
   35.5720   26.9670   38.0130 N   0  0  0  0  0  0  0  0  0  0  0  0
   35.3720   28.2740   38.2750 C   0  0  0  0  0  0  0  0  0  0  0  0
   34.3090   28.9100   37.7560 N   0  0  0  0  0  0  0  0  0  0  0  0
   32.5580   28.7290   36.5300 H   0  0  0  0  0  0  0  0  0  0  0  0
   34.9280   25.2050   37.0480 H   0  0  0  0  0  0  0  0  0  0  0  0
   35.9750   28.7650   40.5750 C   0  0  1  0  0  3  0  0  0  0  0  0
   36.3020   29.0480   39.1300 C   0  0  2  0  0  3  0  0  0  0  0  0
   36.1060   30.3840   38.8590 O   0  0  0  0  0  0  0  0  0  0  0  0
   36.9610   31.2220   39.5500 C   0  0  0  0  0  2  0  0  0  0  0  0
   36.8730   30.9870   41.0350 C   0  0  2  0  0  3  0  0  0  0  0  0
   37.0040   29.5230   41.4000 C   0  0  1  0  0  3  0  0  0  0  0  0
   34.7230   29.2690   40.9130 O   0  0  0  0  0  0  0  0  0  0  0  0
   34.3750   29.9040   40.2340 H   0  0  0  0  0  0  0  0  0  0  0  0
   35.6470   31.4520   41.5170 O   0  0  0  0  0  0  0  0  0  0  0  0
   35.2230   32.0820   40.8780 H   0  0  0  0  0  0  0  0  0  0  0  0
   36.7460   29.4130   42.7600 O   0  0  0  0  0  0  0  0  0  0  0  0
   37.0620   28.5870   43.1630 H   0  0  0  0  0  0  0  0  0  0  0  0
   32.6850   26.1710   35.8400 C   0  0  0  0  0  3  0  0  0  0  0  0
   32.9560   25.1630   35.0490 C   0  0  0  0  0  3  0  0  0  0  0  0
   31.9020   24.4910   34.2280 C   0  0  0  0  0  0  0  0  0  0  0  0
   31.0010   24.4630   34.9070 H   0  0  0  0  0  0  0  0  0  0  0  0
   31.6040   25.1110   33.3550 H   0  0  0  0  0  0  0  0  0  0  0  0
   32.1340   23.4560   33.9900 H   0  0  0  0  0  0  0  0  0  0  0  0
  1  6  1  0  0  0  0
  2  1  2  0  0  0  0
  2  3  1  0  0  0  0
  3  4  2  0  0  0  0
  4  5  1  0  0  0  0
  6  5  2  0  0  0  0
  7  1  1  0  0  0  0
  8  3  1  0  0  0  0
  9 15  1  1  0  0  0
  9 14  1  0  0  0  0
 10  5  1  6  0  0  0
 10  9  1  0  0  0  0
 11 10  1  0  0  0  0
 11 12  1  0  0  0  0
 12 13  1  0  0  0  0
 13 14  1  0  0  0  0
 13 17  1  6  0  0  0
 14 19  1  1  0  0  0
 16 15  1  0  0  0  0
 18 17  1  0  0  0  0
 19 20  1  0  0  0  0
 21  2  1  0  0  0  0
 22 21  2  0  0  0  0
 23 24  1  0  0  0  0
 23 22  1  0  0  0  0
 25 23  1  0  0  0  0
 26 23  1  0  0  0  0
M  END
>  <minimizedAffinity>
-4.59290361

$$$$

 OpenBabel03252501463D

 26 27  0  0  1  0  0  0  0  0999 V2000
   37.3950   29.4410   37.5810 C   0  0  0  0  0  0  0  0  0  0  0  0
   36.3490   29.8280   38.4120 C   0  0  0  0  0  0  0  0  0  0  0  0
   36.6080   30.7680   39.3930 C   0  0  0  0  0  0  0  0  0  0  0  0
   37.8800   31.2750   39.5040 N   0  0  0  0  0  0  0  0  0  0  0  0
   38.8690   30.8770   38.6810 C   0  0  0  0  0  0  0  0  0  0  0  0
   38.6240   29.9640   37.7260 N   0  0  0  0  0  0  0  0  0  0  0  0
   37.1490   28.6970   36.8200 H   0  0  0  0  0  0  0  0  0  0  0  0
   35.8570   31.1330   40.0900 H   0  0  0  0  0  0  0  0  0  0  0  0
   40.3830   32.5780   37.8420 C   0  0  1  0  0  3  0  0  0  0  0  0
   40.2430   31.4190   38.7960 C   0  0  2  0  0  3  0  0  0  0  0  0
   41.1190   30.4150   38.4450 O   0  0  0  0  0  0  0  0  0  0  0  0
   42.4490   30.7710   38.5690 C   0  0  0  0  0  2  0  0  0  0  0  0
   42.7570   32.0140   37.7760 C   0  0  2  0  0  3  0  0  0  0  0  0
   41.7810   33.1380   38.0570 C   0  0  1  0  0  3  0  0  0  0  0  0
   40.3090   32.1510   36.5190 O   0  0  0  0  0  0  0  0  0  0  0  0
   40.4050   31.1660   36.4340 H   0  0  0  0  0  0  0  0  0  0  0  0
   42.7170   31.7280   36.4090 O   0  0  0  0  0  0  0  0  0  0  0  0
   42.7850   30.7520   36.2430 H   0  0  0  0  0  0  0  0  0  0  0  0
   42.0630   34.1610   37.1590 O   0  0  0  0  0  0  0  0  0  0  0  0
   41.7000   35.0260   37.4110 H   0  0  0  0  0  0  0  0  0  0  0  0
   35.0140   29.2810   38.2790 C   0  0  0  0  0  3  0  0  0  0  0  0
   34.3150   29.1430   37.1780 C   0  0  0  0  0  3  0  0  0  0  0  0
   32.9380   28.5610   37.1800 C   0  0  0  0  0  0  0  0  0  0  0  0
   32.9940   27.7220   37.9330 H   0  0  0  0  0  0  0  0  0  0  0  0
   32.1890   29.2770   37.5800 H   0  0  0  0  0  0  0  0  0  0  0  0
   32.6630   28.0990   36.2340 H   0  0  0  0  0  0  0  0  0  0  0  0
  1  6  2  0  0  0  0
  1  2  1  0  0  0  0
  2  3  2  0  0  0  0
  3  4  1  0  0  0  0
  3  8  1  0  0  0  0
  5  4  2  0  0  0  0
  6  5  1  0  0  0  0
  7  1  1  0  0  0  0
  9 15  1  6  0  0  0
  9 14  1  0  0  0  0
  9 10  1  0  0  0  0
 10  5  1  6  0  0  0
 11 12  1  0  0  0  0
 11 10  1  0  0  0  0
 13 17  1  6  0  0  0
 13 14  1  0  0  0  0
 13 12  1  0  0  0  0
 14 19  1  6  0  0  0
 16 15  1  0  0  0  0
 18 17  1  0  0  0  0
 19 20  1  0  0  0  0
 21  2  1  0  0  0  0
 22 23  1  0  0  0  0
 22 21  2  0  0  0  0
 23 25  1  0  0  0  0
 23 24  1  0  0  0  0
 26 23  1  0  0  0  0
M  END
>  <minimizedAffinity>
-4.49155712

$$$$

 OpenBabel03252501463D

 26 27  0  0  1  0  0  0  0  0999 V2000
   35.4900   28.4420   36.5550 C   0  0  0  0  0  0  0  0  0  0  0  0
   34.1710   28.8500   36.7130 C   0  0  0  0  0  0  0  0  0  0  0  0
   33.6830   29.0020   37.9990 C   0  0  0  0  0  0  0  0  0  0  0  0
   34.5190   28.7430   39.0580 N   0  0  0  0  0  0  0  0  0  0  0  0
   35.7930   28.3490   38.8670 C   0  0  0  0  0  0  0  0  0  0  0  0
   36.2720   28.1990   37.6210 N   0  0  0  0  0  0  0  0  0  0  0  0
   35.8360   28.3330   35.5250 H   0  0  0  0  0  0  0  0  0  0  0  0
   32.6670   29.3160   38.2250 H   0  0  0  0  0  0  0  0  0  0  0  0
   35.9630   28.3520   41.2890 C   0  0  1  0  0  3  0  0  0  0  0  0
   36.7000   28.0670   40.0040 C   0  0  2  0  0  3  0  0  0  0  0  0
   37.7850   28.9080   39.8920 O   0  0  0  0  0  0  0  0  0  0  0  0
   38.7480   28.7060   40.8630 C   0  0  0  0  0  2  0  0  0  0  0  0
   38.1590   28.8190   42.2450 C   0  0  2  0  0  3  0  0  0  0  0  0
   36.9120   27.9750   42.4160 C   0  0  1  0  0  3  0  0  0  0  0  0
   35.6870   29.7100   41.4180 O   0  0  0  0  0  0  0  0  0  0  0  0
   36.2060   30.2630   40.7780 H   0  0  0  0  0  0  0  0  0  0  0  0
   37.8300   30.1500   42.5130 O   0  0  0  0  0  0  0  0  0  0  0  0
   38.2970   30.7690   41.8950 H   0  0  0  0  0  0  0  0  0  0  0  0
   36.3750   28.2840   43.6590 O   0  0  0  0  0  0  0  0  0  0  0  0
   35.7450   27.6270   43.9980 H   0  0  0  0  0  0  0  0  0  0  0  0
   33.3040   29.1170   35.5830 C   0  0  0  0  0  3  0  0  0  0  0  0
   32.1750   29.7830   35.5850 C   0  0  0  0  0  3  0  0  0  0  0  0
   31.3720   29.9870   34.3410 C   0  0  0  0  0  0  0  0  0  0  0  0
   32.1460   30.1700   33.5400 H   0  0  0  0  0  0  0  0  0  0  0  0
   30.8380   29.0600   34.0390 H   0  0  0  0  0  0  0  0  0  0  0  0
   30.7490   30.8780   34.3690 H   0  0  0  0  0  0  0  0  0  0  0  0
  1  2  2  0  0  0  0
  1  6  1  0  0  0  0
  2  3  1  0  0  0  0
  3  8  1  0  0  0  0
  3  4  2  0  0  0  0
  5  4  1  0  0  0  0
  6  5  2  0  0  0  0
  7  1  1  0  0  0  0
  9 15  1  1  0  0  0
  9 14  1  0  0  0  0
 10  5  1  6  0  0  0
 10  9  1  0  0  0  0
 11 10  1  0  0  0  0
 11 12  1  0  0  0  0
 12 13  1  0  0  0  0
 13 14  1  0  0  0  0
 13 17  1  6  0  0  0
 14 19  1  1  0  0  0
 16 15  1  0  0  0  0
 18 17  1  0  0  0  0
 19 20  1  0  0  0  0
 21 22  2  0  0  0  0
 21  2  1  0  0  0  0
 23 26  1  0  0  0  0
 23 22  1  0  0  0  0
 24 23  1  0  0  0  0
 25 23  1  0  0  0  0
M  END
>  <minimizedAffinity>
-4.44105673

$$$$
