
 OpenBabel03252504213D

 22 23  0  0  1  0  0  0  0  0999 V2000
   37.3110   31.4070   40.4530 C   0  0  2  0  0  3  0  0  0  0  0  0
   38.2010   30.9500   41.5630 C   0  0  2  0  0  3  0  0  0  0  0  0
   39.4990   30.9690   41.1200 O   0  0  0  0  0  0  0  0  0  0  0  0
   40.0160   32.1880   40.7920 C   0  0  0  0  0  2  0  0  0  0  0  0
   39.0660   33.1910   40.2360 C   0  0  2  0  0  3  0  0  0  0  0  0
   37.7600   32.6600   39.7850 C   0  0  2  0  0  3  0  0  0  0  0  0
   37.2440   27.3880   41.3240 C   0  0  0  0  0  0  0  0  0  0  0  0
   37.2540   26.9610   42.6510 C   0  0  0  0  0  0  0  0  0  0  0  0
   37.5960   27.9170   43.6430 C   0  0  0  0  0  0  0  0  0  0  0  0
   37.8860   29.1690   43.2270 N   0  0  0  0  0  0  0  0  0  0  0  0
   37.8660   29.5440   41.9320 C   0  0  0  0  0  0  0  0  0  0  0  0
   37.5440   28.6520   40.9710 N   0  0  0  0  0  0  0  0  0  0  0  0
   37.0180   25.9530   42.9600 H   0  0  0  0  0  0  0  0  0  0  0  0
   37.6110   27.6130   44.6740 H   0  0  0  0  0  0  0  0  0  0  0  0
   36.7980   26.1060   40.1290 S   0  0  0  0  0  0  0  0  0  0  0  0
   35.8790   26.6790   39.2380 H   0  0  0  0  0  0  0  0  0  0  0  0
   36.0280   31.6040   40.9790 O   0  0  0  0  0  0  0  0  0  0  0  0
   36.1060   31.9360   41.9100 H   0  0  0  0  0  0  0  0  0  0  0  0
   39.6720   33.8460   39.1560 O   0  0  0  0  0  0  0  0  0  0  0  0
   39.9520   33.1400   38.5100 H   0  0  0  0  0  0  0  0  0  0  0  0
   36.8250   33.7060   39.9440 O   0  0  0  0  0  0  0  0  0  0  0  0
   36.1410   33.5130   40.6070 H   0  0  0  0  0  0  0  0  0  0  0  0
  1 17  1  1  0  0  0
  1  2  1  0  0  0  0
  2 11  1  6  0  0  0
  3  2  1  0  0  0  0
  4  3  1  0  0  0  0
  5 19  1  6  0  0  0
  5  4  1  0  0  0  0
  6 21  1  1  0  0  0
  6  5  1  0  0  0  0
  6  1  1  0  0  0  0
  7  8  1  0  0  0  0
  8 13  1  0  0  0  0
  8  9  2  0  0  0  0
  9 14  1  0  0  0  0
 10  9  1  0  0  0  0
 11 10  2  0  0  0  0
 12  7  2  0  0  0  0
 12 11  1  0  0  0  0
 15  7  1  0  0  0  0
 16 15  1  0  0  0  0
 17 18  1  0  0  0  0
 20 19  1  0  0  0  0
 21 22  1  0  0  0  0
M  END
>  <minimizedAffinity>
-5.55175543

$$$$

 OpenBabel03252504213D

 22 23  0  0  1  0  0  0  0  0999 V2000
   37.1850   31.2220   39.6440 C   0  0  2  0  0  3  0  0  0  0  0  0
   38.3820   30.4830   40.1470 C   0  0  2  0  0  3  0  0  0  0  0  0
   39.0180   29.9020   39.0790 O   0  0  0  0  0  0  0  0  0  0  0  0
   39.5460   30.7450   38.1460 C   0  0  0  0  0  2  0  0  0  0  0  0
   38.8280   32.0310   37.9240 C   0  0  2  0  0  3  0  0  0  0  0  0
   37.4570   32.1060   38.4770 C   0  0  2  0  0  3  0  0  0  0  0  0
   37.3780   27.1730   41.4470 C   0  0  0  0  0  0  0  0  0  0  0  0
   37.1600   27.4110   42.8040 C   0  0  0  0  0  0  0  0  0  0  0  0
   37.3630   28.7340   43.2760 C   0  0  0  0  0  0  0  0  0  0  0  0
   37.7520   29.6640   42.3760 N   0  0  0  0  0  0  0  0  0  0  0  0
   37.9530   29.3940   41.0710 C   0  0  0  0  0  0  0  0  0  0  0  0
   37.7660   28.1430   40.5980 N   0  0  0  0  0  0  0  0  0  0  0  0
   36.8490   26.6510   43.5050 H   0  0  0  0  0  0  0  0  0  0  0  0
   37.2030   28.9440   44.3180 H   0  0  0  0  0  0  0  0  0  0  0  0
   37.0960   25.4620   40.9340 S   0  0  0  0  0  0  0  0  0  0  0  0
   36.3500   25.5090   39.7470 H   0  0  0  0  0  0  0  0  0  0  0  0
   36.6790   31.9960   40.6960 O   0  0  0  0  0  0  0  0  0  0  0  0
   37.4330   32.3120   41.2580 H   0  0  0  0  0  0  0  0  0  0  0  0
   38.7620   32.2860   36.5480 O   0  0  0  0  0  0  0  0  0  0  0  0
   38.3290   31.4940   36.1260 H   0  0  0  0  0  0  0  0  0  0  0  0
   37.2210   33.4660   38.7800 O   0  0  0  0  0  0  0  0  0  0  0  0
   37.1050   33.6340   39.7300 H   0  0  0  0  0  0  0  0  0  0  0  0
  1  2  1  0  0  0  0
  1 17  1  1  0  0  0
  2 11  1  1  0  0  0
  3  2  1  0  0  0  0
  4  3  1  0  0  0  0
  5 19  1  6  0  0  0
  5  4  1  0  0  0  0
  5  6  1  0  0  0  0
  6 21  1  1  0  0  0
  6  1  1  0  0  0  0
  7  8  1  0  0  0  0
  8  9  2  0  0  0  0
  8 13  1  0  0  0  0
  9 14  1  0  0  0  0
 10  9  1  0  0  0  0
 11 10  2  0  0  0  0
 12 11  1  0  0  0  0
 12  7  2  0  0  0  0
 15  7  1  0  0  0  0
 16 15  1  0  0  0  0
 17 18  1  0  0  0  0
 20 19  1  0  0  0  0
 21 22  1  0  0  0  0
M  END
>  <minimizedAffinity>
-5.25832367

$$$$

 OpenBabel03252504213D

 22 23  0  0  1  0  0  0  0  0999 V2000
   40.9860   32.5140   38.0640 C   0  0  2  0  0  3  0  0  0  0  0  0
   40.1670   33.0710   39.1830 C   0  0  2  0  0  3  0  0  0  0  0  0
   40.9500   33.1390   40.3070 O   0  0  0  0  0  0  0  0  0  0  0  0
   42.0210   33.9830   40.2590 C   0  0  0  0  0  2  0  0  0  0  0  0
   42.6750   34.1590   38.9320 C   0  0  2  0  0  3  0  0  0  0  0  0
   42.3190   33.1580   37.9020 C   0  0  2  0  0  3  0  0  0  0  0  0
   38.0340   30.5240   40.8010 C   0  0  0  0  0  0  0  0  0  0  0  0
   36.9020   30.4870   39.9880 C   0  0  0  0  0  0  0  0  0  0  0  0
   36.8750   31.3550   38.8640 C   0  0  0  0  0  0  0  0  0  0  0  0
   37.9480   32.1510   38.6670 N   0  0  0  0  0  0  0  0  0  0  0  0
   39.0250   32.1580   39.4770 C   0  0  0  0  0  0  0  0  0  0  0  0
   39.0740   31.3410   40.5510 N   0  0  0  0  0  0  0  0  0  0  0  0
   36.0550   29.8410   40.1660 H   0  0  0  0  0  0  0  0  0  0  0  0
   36.0130   31.3460   38.2220 H   0  0  0  0  0  0  0  0  0  0  0  0
   37.9820   29.3870   42.2060 S   0  0  0  0  0  0  0  0  0  0  0  0
   39.2300   28.7500   42.2630 H   0  0  0  0  0  0  0  0  0  0  0  0
   40.2580   32.6630   36.8780 O   0  0  0  0  0  0  0  0  0  0  0  0
   39.7300   33.5010   36.9240 H   0  0  0  0  0  0  0  0  0  0  0  0
   44.0650   34.1410   39.1020 O   0  0  0  0  0  0  0  0  0  0  0  0
   44.2900   33.2860   39.5630 H   0  0  0  0  0  0  0  0  0  0  0  0
   42.4400   33.8080   36.6530 O   0  0  0  0  0  0  0  0  0  0  0  0
   41.5950   33.8980   36.1820 H   0  0  0  0  0  0  0  0  0  0  0  0
  1 17  1  6  0  0  0
  1  2  1  0  0  0  0
  2 11  1  1  0  0  0
  2  3  1  0  0  0  0
  4  3  1  0  0  0  0
  5 19  1  1  0  0  0
  5  4  1  0  0  0  0
  6 21  1  6  0  0  0
  6  1  1  0  0  0  0
  6  5  1  0  0  0  0
  7 15  1  0  0  0  0
  8 13  1  0  0  0  0
  8  7  2  0  0  0  0
  9  8  1  0  0  0  0
 10  9  2  0  0  0  0
 10 11  1  0  0  0  0
 11 12  2  0  0  0  0
 12  7  1  0  0  0  0
 14  9  1  0  0  0  0
 15 16  1  0  0  0  0
 17 18  1  0  0  0  0
 19 20  1  0  0  0  0
 22 21  1  0  0  0  0
M  END
>  <minimizedAffinity>
-5.04314089

$$$$

 OpenBabel03252504213D

 22 23  0  0  1  0  0  0  0  0999 V2000
   37.1470   29.1520   41.3500 C   0  0  2  0  0  3  0  0  0  0  0  0
   38.3290   29.1800   42.2630 C   0  0  2  0  0  3  0  0  0  0  0  0
   39.3600   29.8210   41.6260 O   0  0  0  0  0  0  0  0  0  0  0  0
   39.1710   31.1390   41.3260 C   0  0  0  0  0  2  0  0  0  0  0  0
   37.7770   31.5600   41.0130 C   0  0  2  0  0  3  0  0  0  0  0  0
   36.8220   30.4660   40.7290 C   0  0  2  0  0  3  0  0  0  0  0  0
   38.5210   25.4900   42.3070 C   0  0  0  0  0  0  0  0  0  0  0  0
   39.6170   25.2330   43.1300 C   0  0  0  0  0  0  0  0  0  0  0  0
   40.3000   26.3500   43.6770 C   0  0  0  0  0  0  0  0  0  0  0  0
   39.8370   27.5790   43.3600 N   0  0  0  0  0  0  0  0  0  0  0  0
   38.7720   27.7870   42.5600 C   0  0  0  0  0  0  0  0  0  0  0  0
   38.1060   26.7400   42.0280 N   0  0  0  0  0  0  0  0  0  0  0  0
   39.9690   24.2400   43.3680 H   0  0  0  0  0  0  0  0  0  0  0  0
   41.1490   26.1790   44.3140 H   0  0  0  0  0  0  0  0  0  0  0  0
   37.7120   24.0100   41.6550 S   0  0  0  0  0  0  0  0  0  0  0  0
   36.3310   24.1970   41.8090 H   0  0  0  0  0  0  0  0  0  0  0  0
   36.0410   28.7080   42.0850 O   0  0  0  0  0  0  0  0  0  0  0  0
   36.1170   29.0370   43.0180 H   0  0  0  0  0  0  0  0  0  0  0  0
   37.7970   32.4250   39.9110 O   0  0  0  0  0  0  0  0  0  0  0  0
   38.2580   31.9400   39.1710 H   0  0  0  0  0  0  0  0  0  0  0  0
   35.5480   30.9330   41.1220 O   0  0  0  0  0  0  0  0  0  0  0  0
   35.1680   30.4360   41.8640 H   0  0  0  0  0  0  0  0  0  0  0  0
  1 17  1  1  0  0  0
  1  2  1  0  0  0  0
  2 11  1  6  0  0  0
  3  2  1  0  0  0  0
  4  3  1  0  0  0  0
  5 19  1  6  0  0  0
  5  4  1  0  0  0  0
  6  5  1  0  0  0  0
  6 21  1  1  0  0  0
  6  1  1  0  0  0  0
  7  8  1  0  0  0  0
  8 13  1  0  0  0  0
  8  9  2  0  0  0  0
  9 14  1  0  0  0  0
 10  9  1  0  0  0  0
 11 10  2  0  0  0  0
 12  7  2  0  0  0  0
 12 11  1  0  0  0  0
 15 16  1  0  0  0  0
 15  7  1  0  0  0  0
 17 18  1  0  0  0  0
 20 19  1  0  0  0  0
 21 22  1  0  0  0  0
M  END
>  <minimizedAffinity>
-5.03012896

$$$$

 OpenBabel03252504213D

 22 23  0  0  1  0  0  0  0  0999 V2000
   39.4230   31.9520   38.1480 C   0  0  2  0  0  3  0  0  0  0  0  0
   37.9900   32.1310   38.5310 C   0  0  2  0  0  3  0  0  0  0  0  0
   37.8930   32.0830   39.8990 O   0  0  0  0  0  0  0  0  0  0  0  0
   38.5240   33.0740   40.5930 C   0  0  0  0  0  2  0  0  0  0  0  0
   39.7730   33.6200   39.9920 C   0  0  2  0  0  3  0  0  0  0  0  0
   40.3710   32.8130   38.9060 C   0  0  2  0  0  3  0  0  0  0  0  0
   36.4740   29.7200   36.1750 C   0  0  0  0  0  0  0  0  0  0  0  0
   35.6560   28.9410   36.9930 C   0  0  0  0  0  0  0  0  0  0  0  0
   35.6270   29.2520   38.3770 C   0  0  0  0  0  0  0  0  0  0  0  0
   36.3940   30.2800   38.7990 N   0  0  0  0  0  0  0  0  0  0  0  0
   37.1740   31.0110   37.9780 C   0  0  0  0  0  0  0  0  0  0  0  0
   37.2170   30.7340   36.6570 N   0  0  0  0  0  0  0  0  0  0  0  0
   35.0500   28.1230   36.6310 H   0  0  0  0  0  0  0  0  0  0  0  0
   35.0040   28.6660   39.0280 H   0  0  0  0  0  0  0  0  0  0  0  0
   36.4480   29.2540   34.4290 S   0  0  0  0  0  0  0  0  0  0  0  0
   36.3360   30.4400   33.6900 H   0  0  0  0  0  0  0  0  0  0  0  0
   39.5440   32.2290   36.7810 O   0  0  0  0  0  0  0  0  0  0  0  0
   38.9050   32.9480   36.5380 H   0  0  0  0  0  0  0  0  0  0  0  0
   40.7320   33.7830   41.0000 O   0  0  0  0  0  0  0  0  0  0  0  0
   40.8410   32.8950   41.4430 H   0  0  0  0  0  0  0  0  0  0  0  0
   41.0500   33.7190   38.0600 O   0  0  0  0  0  0  0  0  0  0  0  0
   40.6680   33.7730   37.1680 H   0  0  0  0  0  0  0  0  0  0  0  0
  1 17  1  6  0  0  0
  1  2  1  0  0  0  0
  1  6  1  0  0  0  0
  2 11  1  6  0  0  0
  2  3  1  0  0  0  0
  3  4  1  0  0  0  0
  5  4  1  0  0  0  0
  5 19  1  1  0  0  0
  6 21  1  6  0  0  0
  6  5  1  0  0  0  0
  7 12  2  0  0  0  0
  7  8  1  0  0  0  0
  8  9  2  0  0  0  0
  9 10  1  0  0  0  0
  9 14  1  0  0  0  0
 11 10  2  0  0  0  0
 12 11  1  0  0  0  0
 13  8  1  0  0  0  0
 15  7  1  0  0  0  0
 16 15  1  0  0  0  0
 18 17  1  0  0  0  0
 19 20  1  0  0  0  0
 22 21  1  0  0  0  0
M  END
>  <minimizedAffinity>
-4.90539122

$$$$

 OpenBabel03252504213D

 22 23  0  0  1  0  0  0  0  0999 V2000
   38.7310   31.8810   41.5290 C   0  0  2  0  0  3  0  0  0  0  0  0
   38.3840   30.6100   40.8240 C   0  0  2  0  0  3  0  0  0  0  0  0
   37.1080   30.7150   40.3320 O   0  0  0  0  0  0  0  0  0  0  0  0
   36.8960   31.6660   39.3770 C   0  0  0  0  0  2  0  0  0  0  0  0
   37.7210   32.9020   39.4680 C   0  0  2  0  0  3  0  0  0  0  0  0
   38.4230   33.1140   40.7540 C   0  0  2  0  0  3  0  0  0  0  0  0
   39.5900   27.9280   43.0620 C   0  0  0  0  0  0  0  0  0  0  0  0
   38.4130   27.3760   43.5690 C   0  0  0  0  0  0  0  0  0  0  0  0
   37.1860   27.9390   43.1310 C   0  0  0  0  0  0  0  0  0  0  0  0
   37.2490   28.9660   42.2560 N   0  0  0  0  0  0  0  0  0  0  0  0
   38.4080   29.4730   41.7890 C   0  0  0  0  0  0  0  0  0  0  0  0
   39.5880   28.9540   42.1910 N   0  0  0  0  0  0  0  0  0  0  0  0
   38.3880   26.5540   44.2680 H   0  0  0  0  0  0  0  0  0  0  0  0
   36.2650   27.5320   43.5070 H   0  0  0  0  0  0  0  0  0  0  0  0
   41.1030   27.1500   43.6740 S   0  0  0  0  0  0  0  0  0  0  0  0
   41.9390   26.9540   42.5650 H   0  0  0  0  0  0  0  0  0  0  0  0
   40.1000   31.8540   41.8230 O   0  0  0  0  0  0  0  0  0  0  0  0
   40.5790   31.3780   41.0970 H   0  0  0  0  0  0  0  0  0  0  0  0
   36.9070   34.0150   39.2220 O   0  0  0  0  0  0  0  0  0  0  0  0
   36.1530   33.9730   39.8740 H   0  0  0  0  0  0  0  0  0  0  0  0
   39.5900   33.8540   40.4570 O   0  0  0  0  0  0  0  0  0  0  0  0
   40.4110   33.3640   40.6310 H   0  0  0  0  0  0  0  0  0  0  0  0
  1 17  1  6  0  0  0
  2  1  1  0  0  0  0
  2 11  1  1  0  0  0
  3  2  1  0  0  0  0
  4  5  1  0  0  0  0
  4  3  1  0  0  0  0
  5 19  1  1  0  0  0
  5  6  1  0  0  0  0
  6 21  1  6  0  0  0
  6  1  1  0  0  0  0
  7  8  1  0  0  0  0
  7 15  1  0  0  0  0
  8 13  1  0  0  0  0
  9 14  1  0  0  0  0
  9  8  2  0  0  0  0
 10  9  1  0  0  0  0
 11 12  1  0  0  0  0
 11 10  2  0  0  0  0
 12  7  2  0  0  0  0
 16 15  1  0  0  0  0
 18 17  1  0  0  0  0
 19 20  1  0  0  0  0
 21 22  1  0  0  0  0
M  END
>  <minimizedAffinity>
-4.80489206

$$$$

 OpenBabel03252504213D

 22 23  0  0  1  0  0  0  0  0999 V2000
   37.5120   31.2030   40.5230 C   0  0  2  0  0  3  0  0  0  0  0  0
   38.7820   30.4880   40.1920 C   0  0  2  0  0  3  0  0  0  0  0  0
   39.4160   30.1580   41.3630 O   0  0  0  0  0  0  0  0  0  0  0  0
   38.7710   29.2780   42.1820 C   0  0  0  0  0  2  0  0  0  0  0  0
   37.2830   29.3240   42.1750 C   0  0  2  0  0  3  0  0  0  0  0  0
   36.6800   30.5250   41.5540 C   0  0  2  0  0  3  0  0  0  0  0  0
   41.3440   33.0210   39.3690 C   0  0  0  0  0  0  0  0  0  0  0  0
   41.3360   33.0470   37.9740 C   0  0  0  0  0  0  0  0  0  0  0  0
   40.4340   32.1770   37.3090 C   0  0  0  0  0  0  0  0  0  0  0  0
   39.6490   31.3890   38.0760 N   0  0  0  0  0  0  0  0  0  0  0  0
   39.6860   31.3930   39.4240 C   0  0  0  0  0  0  0  0  0  0  0  0
   40.5360   32.2120   40.0790 N   0  0  0  0  0  0  0  0  0  0  0  0
   41.9740   33.6860   37.3820 H   0  0  0  0  0  0  0  0  0  0  0  0
   40.4090   32.1770   36.2350 H   0  0  0  0  0  0  0  0  0  0  0  0
   42.5230   34.1610   40.1310 S   0  0  0  0  0  0  0  0  0  0  0  0
   41.8490   34.8080   41.1760 H   0  0  0  0  0  0  0  0  0  0  0  0
   36.7670   31.3300   39.3440 O   0  0  0  0  0  0  0  0  0  0  0  0
   36.9180   30.5310   38.7760 H   0  0  0  0  0  0  0  0  0  0  0  0
   36.8160   29.2270   43.4920 O   0  0  0  0  0  0  0  0  0  0  0  0
   37.2490   29.9620   44.0080 H   0  0  0  0  0  0  0  0  0  0  0  0
   35.4260   30.1240   41.0400 O   0  0  0  0  0  0  0  0  0  0  0  0
   35.3730   30.1770   40.0710 H   0  0  0  0  0  0  0  0  0  0  0  0
  1 17  1  6  0  0  0
  1  6  1  0  0  0  0
  2 11  1  6  0  0  0
  2  1  1  0  0  0  0
  2  3  1  0  0  0  0
  3  4  1  0  0  0  0
  5  4  1  0  0  0  0
  5 19  1  1  0  0  0
  6 21  1  6  0  0  0
  6  5  1  0  0  0  0
  7 12  1  0  0  0  0
  7 15  1  0  0  0  0
  8  7  2  0  0  0  0
  9  8  1  0  0  0  0
  9 10  2  0  0  0  0
 10 11  1  0  0  0  0
 11 12  2  0  0  0  0
 13  8  1  0  0  0  0
 14  9  1  0  0  0  0
 15 16  1  0  0  0  0
 18 17  1  0  0  0  0
 19 20  1  0  0  0  0
 22 21  1  0  0  0  0
M  END
>  <minimizedAffinity>
-4.75834703

$$$$

 OpenBabel03252504213D

 22 23  0  0  1  0  0  0  0  0999 V2000
   39.1760   31.6020   40.4380 C   0  0  2  0  0  3  0  0  0  0  0  0
   39.7350   30.2180   40.3620 C   0  0  2  0  0  3  0  0  0  0  0  0
   39.3600   29.6590   39.1670 O   0  0  0  0  0  0  0  0  0  0  0  0
   39.8440   30.2490   38.0360 C   0  0  0  0  0  2  0  0  0  0  0  0
   40.0590   31.7220   38.0900 C   0  0  2  0  0  3  0  0  0  0  0  0
   39.4160   32.4260   39.2210 C   0  0  2  0  0  3  0  0  0  0  0  0
   39.3360   27.5970   42.9370 C   0  0  0  0  0  0  0  0  0  0  0  0
   38.0740   27.8580   43.4710 C   0  0  0  0  0  0  0  0  0  0  0  0
   37.3510   28.9560   42.9350 C   0  0  0  0  0  0  0  0  0  0  0  0
   37.9390   29.6640   41.9460 N   0  0  0  0  0  0  0  0  0  0  0  0
   39.1620   29.3810   41.4560 C   0  0  0  0  0  0  0  0  0  0  0  0
   39.8690   28.3420   41.9500 N   0  0  0  0  0  0  0  0  0  0  0  0
   37.6250   27.2770   44.2620 H   0  0  0  0  0  0  0  0  0  0  0  0
   36.3770   29.1780   43.3290 H   0  0  0  0  0  0  0  0  0  0  0  0
   40.1840   26.1830   43.6790 S   0  0  0  0  0  0  0  0  0  0  0  0
   40.7200   25.4280   42.6260 H   0  0  0  0  0  0  0  0  0  0  0  0
   39.7490   32.2410   41.5440 O   0  0  0  0  0  0  0  0  0  0  0  0
   40.6820   31.9250   41.6550 H   0  0  0  0  0  0  0  0  0  0  0  0
   39.6010   32.2950   36.8960 O   0  0  0  0  0  0  0  0  0  0  0  0
   38.6470   32.0200   36.7910 H   0  0  0  0  0  0  0  0  0  0  0  0
   40.2180   33.5550   39.5000 O   0  0  0  0  0  0  0  0  0  0  0  0
   40.6380   33.5210   40.3750 H   0  0  0  0  0  0  0  0  0  0  0  0
  1 17  1  1  0  0  0
  2  1  1  0  0  0  0
  2 11  1  1  0  0  0
  3  2  1  0  0  0  0
  4  5  1  0  0  0  0
  4  3  1  0  0  0  0
  5 19  1  6  0  0  0
  5  6  1  0  0  0  0
  6 21  1  1  0  0  0
  6  1  1  0  0  0  0
  7  8  1  0  0  0  0
  7 15  1  0  0  0  0
  8 13  1  0  0  0  0
  9 14  1  0  0  0  0
  9  8  2  0  0  0  0
 10  9  1  0  0  0  0
 11 10  2  0  0  0  0
 11 12  1  0  0  0  0
 12  7  2  0  0  0  0
 16 15  1  0  0  0  0
 17 18  1  0  0  0  0
 20 19  1  0  0  0  0
 21 22  1  0  0  0  0
M  END
>  <minimizedAffinity>
-4.74368429

$$$$

 OpenBabel03252504213D

 22 23  0  0  1  0  0  0  0  0999 V2000
   36.5130   28.9070   40.8080 C   0  0  2  0  0  3  0  0  0  0  0  0
   37.4070   28.0920   41.6850 C   0  0  2  0  0  3  0  0  0  0  0  0
   38.7100   28.4190   41.4070 O   0  0  0  0  0  0  0  0  0  0  0  0
   39.0920   29.6990   41.6820 C   0  0  0  0  0  2  0  0  0  0  0  0
   38.0520   30.7550   41.5320 C   0  0  2  0  0  3  0  0  0  0  0  0
   36.8370   30.3600   40.7860 C   0  0  2  0  0  3  0  0  0  0  0  0
   36.5150   24.9480   39.9580 C   0  0  0  0  0  0  0  0  0  0  0  0
   36.9090   23.9610   40.8610 C   0  0  0  0  0  0  0  0  0  0  0  0
   37.4920   24.3870   42.0830 C   0  0  0  0  0  0  0  0  0  0  0  0
   37.6200   25.7170   42.2810 N   0  0  0  0  0  0  0  0  0  0  0  0
   37.2270   26.6420   41.3830 C   0  0  0  0  0  0  0  0  0  0  0  0
   36.6700   26.2610   40.2130 N   0  0  0  0  0  0  0  0  0  0  0  0
   36.7960   22.9020   40.6800 H   0  0  0  0  0  0  0  0  0  0  0  0
   37.8050   23.6450   42.7960 H   0  0  0  0  0  0  0  0  0  0  0  0
   35.7840   24.3150   38.4310 S   0  0  0  0  0  0  0  0  0  0  0  0
   34.6370   25.0810   38.1780 H   0  0  0  0  0  0  0  0  0  0  0  0
   35.1960   28.7380   41.2540 O   0  0  0  0  0  0  0  0  0  0  0  0
   35.1990   28.6350   42.2410 H   0  0  0  0  0  0  0  0  0  0  0  0
   38.6180   31.8670   40.8960 O   0  0  0  0  0  0  0  0  0  0  0  0
   39.0040   31.5430   40.0360 H   0  0  0  0  0  0  0  0  0  0  0  0
   35.7780   31.1430   41.2980 O   0  0  0  0  0  0  0  0  0  0  0  0
   35.0970   30.6190   41.7520 H   0  0  0  0  0  0  0  0  0  0  0  0
  1 17  1  1  0  0  0
  1  2  1  0  0  0  0
  2 11  1  6  0  0  0
  3  4  1  0  0  0  0
  3  2  1  0  0  0  0
  5 19  1  6  0  0  0
  5  4  1  0  0  0  0
  6  1  1  0  0  0  0
  6 21  1  1  0  0  0
  6  5  1  0  0  0  0
  7 12  2  0  0  0  0
  7  8  1  0  0  0  0
  8  9  2  0  0  0  0
  9 10  1  0  0  0  0
  9 14  1  0  0  0  0
 11 10  2  0  0  0  0
 12 11  1  0  0  0  0
 13  8  1  0  0  0  0
 15  7  1  0  0  0  0
 16 15  1  0  0  0  0
 17 18  1  0  0  0  0
 20 19  1  0  0  0  0
 21 22  1  0  0  0  0
M  END
>  <minimizedAffinity>
-4.7430954

$$$$
