
 OpenBabel03242518263D

 48 52  0  0  1  0  0  0  0  0999 V2000
   46.6380   30.6910   44.6020 C   0  0  0  0  0  0  0  0  0  0  0  0
   46.1380   31.9340   44.8450 C   0  0  0  0  0  0  0  0  0  0  0  0
   46.4460   32.5270   46.0520 C   0  0  0  0  0  0  0  0  0  0  0  0
   47.2320   31.8800   46.9760 C   0  0  0  0  0  0  0  0  0  0  0  0
   47.7350   30.6110   46.7100 C   0  0  0  0  0  0  0  0  0  0  0  0
   47.4340   29.9980   45.4980 C   0  0  0  0  0  0  0  0  0  0  0  0
   48.4870   30.2080   47.8110 O   0  0  0  0  0  0  0  0  0  0  0  0
   48.1880   31.0980   48.8790 C   0  0  2  0  0  0  0  0  0  0  0  0
   47.6880   32.2500   48.2550 O   0  0  0  0  0  0  0  0  0  0  0  0
   46.4510   30.1440   43.6820 H   0  0  0  0  0  0  0  0  0  0  0  0
   46.0710   33.5120   46.2910 H   0  0  0  0  0  0  0  0  0  0  0  0
   47.8340   29.0290   45.3290 H   0  0  0  0  0  0  0  0  0  0  0  0
   47.4050   30.6830   49.5540 H   0  0  0  0  0  0  0  0  0  0  0  0
   44.4920   34.5820   42.8710 C   0  0  0  0  0  0  0  0  0  0  0  0
   43.7210   33.8560   41.9830 C   0  0  0  0  0  0  0  0  0  0  0  0
   43.7750   32.4670   42.0720 C   0  0  0  0  0  0  0  0  0  0  0  0
   44.5590   31.8630   43.0010 N   0  0  0  0  0  0  0  0  0  0  0  0
   45.3040   32.6110   43.8570 C   0  0  0  0  0  0  0  0  0  0  0  0
   45.2630   33.9610   43.7850 N   0  0  0  0  0  0  0  0  0  0  0  0
   44.5610   35.6590   42.9300 H   0  0  0  0  0  0  0  0  0  0  0  0
   43.1710   31.9250   41.3760 H   0  0  0  0  0  0  0  0  0  0  0  0
   42.9410   34.5820   41.0570 N   0  0  0  0  0  0  0  0  0  0  0  0
   43.1130   34.2990   39.6590 C   0  0  0  0  0  0  0  0  0  0  0  0
   42.3240   35.1710   38.7580 C   0  0  0  0  0  0  0  0  0  0  0  0
   40.9660   35.3370   39.1720 N   0  0  0  0  0  0  0  0  0  0  0  0
   40.6890   35.3520   40.5510 C   0  0  0  0  0  0  0  0  0  0  0  0
   41.9730   35.5980   41.3450 C   0  0  0  0  0  0  0  0  0  0  0  0
   42.9260   33.2040   39.4990 H   0  0  0  0  0  0  0  0  0  0  0  0
   44.2020   34.4490   39.4270 H   0  0  0  0  0  0  0  0  0  0  0  0
   42.7870   36.1550   38.6480 H   0  0  0  0  0  0  0  0  0  0  0  0
   42.3340   34.7070   37.7410 H   0  0  0  0  0  0  0  0  0  0  0  0
   40.5810   36.1990   38.7190 H   0  0  0  0  0  0  0  0  0  0  0  0
   40.3250   34.3530   40.8720 H   0  0  0  0  0  0  0  0  0  0  0  0
   39.9100   36.0650   40.8680 H   0  0  0  0  0  0  0  0  0  0  0  0
   41.7040   35.6840   42.4140 H   0  0  0  0  0  0  0  0  0  0  0  0
   42.3820   36.5780   41.0180 H   0  0  0  0  0  0  0  0  0  0  0  0
   49.6660   30.3020   50.6830 C   0  0  2  0  0  3  0  0  0  0  0  0
   49.4840   31.3310   49.6020 C   0  0  1  0  0  3  0  0  0  0  0  0
   50.5070   31.3760   48.6840 O   0  0  0  0  0  0  0  0  0  0  0  0
   51.6520   30.7120   49.0460 C   0  0  0  0  0  2  0  0  0  0  0  0
   52.0440   30.8640   50.4830 C   0  0  2  0  0  3  0  0  0  0  0  0
   50.9160   30.7300   51.4580 C   0  0  2  0  0  3  0  0  0  0  0  0
   49.7580   29.0070   50.2240 O   0  0  0  0  0  0  0  0  0  0  0  0
   48.9710   28.4490   50.4350 H   0  0  0  0  0  0  0  0  0  0  0  0
   52.7460   32.0560   50.6650 O   0  0  0  0  0  0  0  0  0  0  0  0
   52.1760   32.8420   50.5970 H   0  0  0  0  0  0  0  0  0  0  0  0
   51.1530   29.8350   52.4850 O   0  0  0  0  0  0  0  0  0  0  0  0
   50.9830   30.2570   53.3820 H   0  0  0  0  0  0  0  0  0  0  0  0
  1  2  2  0  0  0  0
  1  6  1  0  0  0  0
  2  3  1  0  0  0  0
  3 11  1  0  0  0  0
  3  4  2  0  0  0  0
  4  9  1  0  0  0  0
  5  4  1  0  0  0  0
  5  7  1  0  0  0  0
  6  5  2  0  0  0  0
  7  8  1  0  0  0  0
  8 13  1  1  0  0  0
  8 38  1  0  0  0  0
  9  8  1  0  0  0  0
 10  1  1  0  0  0  0
 12  6  1  0  0  0  0
 14 20  1  0  0  0  0
 14 19  1  0  0  0  0
 15 16  1  0  0  0  0
 15 14  2  0  0  0  0
 16 17  2  0  0  0  0
 17 18  1  0  0  0  0
 18  2  1  0  0  0  0
 19 18  2  0  0  0  0
 21 16  1  0  0  0  0
 22 27  1  0  0  0  0
 22 15  1  0  0  0  0
 23 22  1  0  0  0  0
 24 25  1  0  0  0  0
 24 23  1  0  0  0  0
 25 26  1  0  0  0  0
 26 34  1  0  0  0  0
 26 33  1  0  0  0  0
 26 27  1  0  0  0  0
 27 35  1  0  0  0  0
 28 23  1  0  0  0  0
 29 23  1  0  0  0  0
 30 24  1  0  0  0  0
 31 24  1  0  0  0  0
 32 25  1  0  0  0  0
 36 27  1  0  0  0  0
 37 43  1  6  0  0  0
 37 42  1  0  0  0  0
 38 39  1  6  0  0  0
 38 37  1  0  0  0  0
 39 40  1  0  0  0  0
 40 41  1  0  0  0  0
 41 45  1  6  0  0  0
 41 42  1  0  0  0  0
 42 47  1  1  0  0  0
 43 44  1  0  0  0  0
 46 45  1  0  0  0  0
 47 48  1  0  0  0  0
M  END
>  <minimizedAffinity>
-6.29289722

>  <minimizedRMSD>
0.576814115

$$$$
