
 OpenBabel03252504053D

 22 23  0  0  1  0  0  0  0  0999 V2000
   36.3670   30.8360   39.8180 C   0  0  2  0  0  3  0  0  0  0  0  0
   37.3130   29.6720   39.8850 C   0  0  1  0  0  3  0  0  0  0  0  0
   38.6270   29.9910   39.5820 O   0  0  0  0  0  0  0  0  0  0  0  0
   38.7390   30.5950   38.3500 C   0  0  0  0  0  2  0  0  0  0  0  0
   38.1410   31.9650   38.4020 C   0  0  2  0  0  3  0  0  0  0  0  0
   36.9080   32.0860   39.2410 C   0  0  2  0  0  3  0  0  0  0  0  0
   38.0170   28.9190   43.5330 C   0  0  0  0  0  0  0  0  0  0  0  0
   38.0500   29.5820   42.2970 C   0  0  0  0  0  0  0  0  0  0  0  0
   37.3280   29.0240   41.2390 C   0  0  0  0  0  0  0  0  0  0  0  0
   36.6350   27.8820   41.4460 N   0  0  0  0  0  0  0  0  0  0  0  0
   36.6200   27.2630   42.6500 C   0  0  0  0  0  0  0  0  0  0  0  0
   37.3110   27.7900   43.6760 N   0  0  0  0  0  0  0  0  0  0  0  0
   38.5820   29.3650   44.3410 H   0  0  0  0  0  0  0  0  0  0  0  0
   36.0460   26.3420   42.7740 H   0  0  0  0  0  0  0  0  0  0  0  0
   38.7590   30.7570   42.0680 O   0  0  0  0  0  0  0  0  0  0  0  0
   39.7540   30.7980   41.9470 H   0  0  0  0  0  0  0  0  0  0  0  0
   35.9260   31.0710   41.1290 O   0  0  0  0  0  0  0  0  0  0  0  0
   35.0130   31.4260   41.1230 H   0  0  0  0  0  0  0  0  0  0  0  0
   37.9350   32.4130   37.0810 O   0  0  0  0  0  0  0  0  0  0  0  0
   38.8460   32.5440   36.7030 H   0  0  0  0  0  0  0  0  0  0  0  0
   37.1320   33.0200   40.2780 O   0  0  0  0  0  0  0  0  0  0  0  0
   37.0470   33.9390   39.9220 H   0  0  0  0  0  0  0  0  0  0  0  0
  1  2  1  0  0  0  0
  1 17  1  1  0  0  0
  2  9  1  1  0  0  0
  3  2  1  0  0  0  0
  4  5  1  0  0  0  0
  4  3  1  0  0  0  0
  5 19  1  6  0  0  0
  5  6  1  0  0  0  0
  6  1  1  0  0  0  0
  6 21  1  1  0  0  0
  7 12  1  0  0  0  0
  7 13  1  0  0  0  0
  8  7  2  0  0  0  0
  9 10  2  0  0  0  0
  9  8  1  0  0  0  0
 10 11  1  0  0  0  0
 11 14  1  0  0  0  0
 11 12  2  0  0  0  0
 15  8  1  0  0  0  0
 16 15  1  0  0  0  0
 18 17  1  0  0  0  0
 20 19  1  0  0  0  0
 22 21  1  0  0  0  0
M  END
>  <minimizedAffinity>
-5.39404726

$$$$

 OpenBabel03252504053D

 22 23  0  0  1  0  0  0  0  0999 V2000
   36.4410   30.6130   39.7080 C   0  0  2  0  0  3  0  0  0  0  0  0
   37.4880   29.5510   39.8730 C   0  0  1  0  0  3  0  0  0  0  0  0
   38.7890   30.0130   39.7520 O   0  0  0  0  0  0  0  0  0  0  0  0
   38.9930   30.6700   38.5600 C   0  0  0  0  0  2  0  0  0  0  0  0
   38.2520   31.9680   38.5630 C   0  0  2  0  0  3  0  0  0  0  0  0
   36.9160   31.9320   39.2360 C   0  0  2  0  0  3  0  0  0  0  0  0
   36.8210   26.9880   42.5850 C   0  0  0  0  0  0  0  0  0  0  0  0
   36.8740   27.5690   41.3090 C   0  0  0  0  0  0  0  0  0  0  0  0
   37.3980   28.8590   41.2020 C   0  0  0  0  0  0  0  0  0  0  0  0
   37.8270   29.4890   42.3190 N   0  0  0  0  0  0  0  0  0  0  0  0
   37.7640   28.9050   43.5390 C   0  0  0  0  0  0  0  0  0  0  0  0
   37.2620   27.6620   43.6540 N   0  0  0  0  0  0  0  0  0  0  0  0
   36.4110   25.9880   42.6490 H   0  0  0  0  0  0  0  0  0  0  0  0
   38.1220   29.4490   44.4150 H   0  0  0  0  0  0  0  0  0  0  0  0
   36.4360   26.9340   40.1510 O   0  0  0  0  0  0  0  0  0  0  0  0
   35.4700   26.8300   39.8990 H   0  0  0  0  0  0  0  0  0  0  0  0
   35.8120   30.7550   40.9540 O   0  0  0  0  0  0  0  0  0  0  0  0
   34.8760   31.0140   40.8360 H   0  0  0  0  0  0  0  0  0  0  0  0
   38.1710   32.4410   37.2370 O   0  0  0  0  0  0  0  0  0  0  0  0
   39.1040   32.6780   36.9850 H   0  0  0  0  0  0  0  0  0  0  0  0
   36.9040   32.8460   40.3140 O   0  0  0  0  0  0  0  0  0  0  0  0
   36.7680   33.7640   39.9710 H   0  0  0  0  0  0  0  0  0  0  0  0
  1  2  1  0  0  0  0
  1 17  1  1  0  0  0
  2  9  1  1  0  0  0
  3  2  1  0  0  0  0
  4  5  1  0  0  0  0
  4  3  1  0  0  0  0
  5 19  1  6  0  0  0
  5  6  1  0  0  0  0
  6  1  1  0  0  0  0
  6 21  1  1  0  0  0
  7 13  1  0  0  0  0
  7 12  1  0  0  0  0
  8  7  2  0  0  0  0
  9  8  1  0  0  0  0
  9 10  2  0  0  0  0
 10 11  1  0  0  0  0
 11 12  2  0  0  0  0
 11 14  1  0  0  0  0
 15  8  1  0  0  0  0
 16 15  1  0  0  0  0
 18 17  1  0  0  0  0
 20 19  1  0  0  0  0
 22 21  1  0  0  0  0
M  END
>  <minimizedAffinity>
-5.29878283

$$$$

 OpenBabel03252504053D

 22 23  0  0  1  0  0  0  0  0999 V2000
   37.2920   29.7070   40.1130 C   0  0  2  0  0  3  0  0  0  0  0  0
   38.6370   29.7610   40.7770 C   0  0  1  0  0  3  0  0  0  0  0  0
   38.8400   30.8880   41.5570 O   0  0  0  0  0  0  0  0  0  0  0  0
   38.6400   32.0490   40.8460 C   0  0  0  0  0  2  0  0  0  0  0  0
   37.1870   32.2060   40.5320 C   0  0  2  0  0  3  0  0  0  0  0  0
   36.4700   30.9340   40.2020 C   0  0  2  0  0  3  0  0  0  0  0  0
   38.5510   27.3240   43.6800 C   0  0  0  0  0  0  0  0  0  0  0  0
   38.2690   28.4620   42.9090 C   0  0  0  0  0  0  0  0  0  0  0  0
   38.8860   28.5740   41.6620 C   0  0  0  0  0  0  0  0  0  0  0  0
   39.7220   27.5930   41.2510 N   0  0  0  0  0  0  0  0  0  0  0  0
   39.9770   26.5050   42.0160 C   0  0  0  0  0  0  0  0  0  0  0  0
   39.3870   26.3860   43.2190 N   0  0  0  0  0  0  0  0  0  0  0  0
   38.0640   27.2550   44.6440 H   0  0  0  0  0  0  0  0  0  0  0  0
   40.6580   25.7350   41.6460 H   0  0  0  0  0  0  0  0  0  0  0  0
   37.4120   29.4800   43.3180 O   0  0  0  0  0  0  0  0  0  0  0  0
   37.6560   30.1810   43.9930 H   0  0  0  0  0  0  0  0  0  0  0  0
   36.6010   28.6310   40.6910 O   0  0  0  0  0  0  0  0  0  0  0  0
   35.9890   28.2300   40.0410 H   0  0  0  0  0  0  0  0  0  0  0  0
   37.0500   33.1750   39.5160 O   0  0  0  0  0  0  0  0  0  0  0  0
   37.3160   34.0360   39.9380 H   0  0  0  0  0  0  0  0  0  0  0  0
   35.4220   30.7280   41.1280 O   0  0  0  0  0  0  0  0  0  0  0  0
   34.6470   31.2930   40.8850 H   0  0  0  0  0  0  0  0  0  0  0  0
  1  6  1  0  0  0  0
  1 17  1  1  0  0  0
  1  2  1  0  0  0  0
  2  3  1  0  0  0  0
  2  9  1  1  0  0  0
  4  3  1  0  0  0  0
  5 19  1  6  0  0  0
  5  4  1  0  0  0  0
  6  5  1  0  0  0  0
  6 21  1  1  0  0  0
  7 13  1  0  0  0  0
  8 15  1  0  0  0  0
  8  7  2  0  0  0  0
  9  8  1  0  0  0  0
 10  9  2  0  0  0  0
 10 11  1  0  0  0  0
 11 12  2  0  0  0  0
 12  7  1  0  0  0  0
 14 11  1  0  0  0  0
 15 16  1  0  0  0  0
 18 17  1  0  0  0  0
 19 20  1  0  0  0  0
 22 21  1  0  0  0  0
M  END
>  <minimizedAffinity>
-5.13514042

$$$$

 OpenBabel03252504053D

 22 23  0  0  1  0  0  0  0  0999 V2000
   38.2340   32.0430   39.0180 C   0  0  2  0  0  3  0  0  0  0  0  0
   38.3360   30.7720   39.8110 C   0  0  1  0  0  3  0  0  0  0  0  0
   38.4170   30.9620   41.1810 O   0  0  0  0  0  0  0  0  0  0  0  0
   39.4570   31.7950   41.5240 C   0  0  0  0  0  2  0  0  0  0  0  0
   39.1560   33.1910   41.0820 C   0  0  2  0  0  3  0  0  0  0  0  0
   38.4460   33.3000   39.7690 C   0  0  2  0  0  3  0  0  0  0  0  0
   34.9030   29.1690   39.9210 C   0  0  0  0  0  0  0  0  0  0  0  0
   35.9420   30.0710   40.1930 C   0  0  0  0  0  0  0  0  0  0  0  0
   37.1730   29.8530   39.5710 C   0  0  0  0  0  0  0  0  0  0  0  0
   37.3120   28.7950   38.7400 N   0  0  0  0  0  0  0  0  0  0  0  0
   36.2910   27.9400   38.4950 C   0  0  0  0  0  0  0  0  0  0  0  0
   35.1010   28.1390   39.0880 N   0  0  0  0  0  0  0  0  0  0  0  0
   33.9560   29.3530   40.4130 H   0  0  0  0  0  0  0  0  0  0  0  0
   36.4470   27.0980   37.8160 H   0  0  0  0  0  0  0  0  0  0  0  0
   35.8150   31.1630   41.0460 O   0  0  0  0  0  0  0  0  0  0  0  0
   35.8120   31.0970   42.0470 H   0  0  0  0  0  0  0  0  0  0  0  0
   36.9580   32.0510   38.4340 O   0  0  0  0  0  0  0  0  0  0  0  0
   36.9790   32.5220   37.5760 H   0  0  0  0  0  0  0  0  0  0  0  0
   40.3520   33.9370   41.1070 O   0  0  0  0  0  0  0  0  0  0  0  0
   40.5920   34.0180   42.0700 H   0  0  0  0  0  0  0  0  0  0  0  0
   37.2050   33.9490   39.9540 O   0  0  0  0  0  0  0  0  0  0  0  0
   37.3470   34.9260   40.0220 H   0  0  0  0  0  0  0  0  0  0  0  0
  1 17  1  1  0  0  0
  1  6  1  0  0  0  0
  1  2  1  0  0  0  0
  2  9  1  1  0  0  0
  2  3  1  0  0  0  0
  3  4  1  0  0  0  0
  5 19  1  6  0  0  0
  5  4  1  0  0  0  0
  6 21  1  1  0  0  0
  6  5  1  0  0  0  0
  7  8  1  0  0  0  0
  7 13  1  0  0  0  0
  8 15  1  0  0  0  0
  9  8  2  0  0  0  0
 10  9  1  0  0  0  0
 11 10  2  0  0  0  0
 11 12  1  0  0  0  0
 12  7  2  0  0  0  0
 14 11  1  0  0  0  0
 15 16  1  0  0  0  0
 18 17  1  0  0  0  0
 19 20  1  0  0  0  0
 21 22  1  0  0  0  0
M  END
>  <minimizedAffinity>
-4.95632124

$$$$

 OpenBabel03252504053D

 22 23  0  0  1  0  0  0  0  0999 V2000
   38.7610   33.2980   40.4140 C   0  0  2  0  0  3  0  0  0  0  0  0
   39.7460   32.1820   40.6110 C   0  0  1  0  0  3  0  0  0  0  0  0
   39.2960   30.9450   40.1770 O   0  0  0  0  0  0  0  0  0  0  0  0
   38.0980   30.6000   40.7610 C   0  0  0  0  0  2  0  0  0  0  0  0
   37.0070   31.4760   40.2330 C   0  0  2  0  0  3  0  0  0  0  0  0
   37.3990   32.9010   39.9970 C   0  0  2  0  0  3  0  0  0  0  0  0
   43.3490   33.1100   39.8850 C   0  0  0  0  0  0  0  0  0  0  0  0
   42.1670   32.8920   40.6100 C   0  0  0  0  0  0  0  0  0  0  0  0
   41.0480   32.4380   39.9090 C   0  0  0  0  0  0  0  0  0  0  0  0
   41.1470   32.2290   38.5770 N   0  0  0  0  0  0  0  0  0  0  0  0
   42.3000   32.4470   37.9020 C   0  0  0  0  0  0  0  0  0  0  0  0
   43.3850   32.8840   38.5660 N   0  0  0  0  0  0  0  0  0  0  0  0
   44.2060   33.4620   40.4450 H   0  0  0  0  0  0  0  0  0  0  0  0
   42.3370   32.2640   36.8260 H   0  0  0  0  0  0  0  0  0  0  0  0
   42.0500   33.1040   41.9800 O   0  0  0  0  0  0  0  0  0  0  0  0
   41.9650   34.0100   42.4030 H   0  0  0  0  0  0  0  0  0  0  0  0
   39.3170   34.1610   39.4570 O   0  0  0  0  0  0  0  0  0  0  0  0
   39.0320   35.0820   39.6230 H   0  0  0  0  0  0  0  0  0  0  0  0
   35.8900   31.3620   41.0870 O   0  0  0  0  0  0  0  0  0  0  0  0
   35.5570   30.4340   40.9610 H   0  0  0  0  0  0  0  0  0  0  0  0
   37.2160   33.2210   38.6320 O   0  0  0  0  0  0  0  0  0  0  0  0
   36.2590   33.3970   38.4560 H   0  0  0  0  0  0  0  0  0  0  0  0
  1 17  1  6  0  0  0
  1  2  1  0  0  0  0
  2  9  1  6  0  0  0
  3  2  1  0  0  0  0
  3  4  1  0  0  0  0
  5  4  1  0  0  0  0
  5 19  1  1  0  0  0
  6 21  1  6  0  0  0
  6  5  1  0  0  0  0
  6  1  1  0  0  0  0
  7 13  1  0  0  0  0
  7  8  1  0  0  0  0
  8 15  1  0  0  0  0
  9  8  2  0  0  0  0
 10  9  1  0  0  0  0
 11 12  1  0  0  0  0
 11 10  2  0  0  0  0
 12  7  2  0  0  0  0
 14 11  1  0  0  0  0
 15 16  1  0  0  0  0
 17 18  1  0  0  0  0
 20 19  1  0  0  0  0
 22 21  1  0  0  0  0
M  END
>  <minimizedAffinity>
-4.91291428

$$$$

 OpenBabel03252504053D

 22 23  0  0  1  0  0  0  0  0999 V2000
   38.6960   31.9500   40.0230 C   0  0  2  0  0  3  0  0  0  0  0  0
   38.1750   30.5510   39.8640 C   0  0  1  0  0  3  0  0  0  0  0  0
   38.8310   29.8070   38.8970 O   0  0  0  0  0  0  0  0  0  0  0  0
   38.8240   30.4350   37.6720 C   0  0  0  0  0  2  0  0  0  0  0  0
   39.7050   31.6420   37.7170 C   0  0  2  0  0  3  0  0  0  0  0  0
   39.6680   32.4040   39.0050 C   0  0  2  0  0  3  0  0  0  0  0  0
   37.2930   28.9000   43.1600 C   0  0  0  0  0  0  0  0  0  0  0  0
   37.1450   29.6510   41.9850 C   0  0  0  0  0  0  0  0  0  0  0  0
   38.2510   29.7640   41.1400 C   0  0  0  0  0  0  0  0  0  0  0  0
   39.4060   29.1510   41.4840 N   0  0  0  0  0  0  0  0  0  0  0  0
   39.5210   28.4310   42.6250 C   0  0  0  0  0  0  0  0  0  0  0  0
   38.4620   28.3150   43.4470 N   0  0  0  0  0  0  0  0  0  0  0  0
   36.4250   28.8250   43.8030 H   0  0  0  0  0  0  0  0  0  0  0  0
   40.4730   27.9510   42.8650 H   0  0  0  0  0  0  0  0  0  0  0  0
   35.9630   30.2890   41.6170 O   0  0  0  0  0  0  0  0  0  0  0  0
   35.6360   31.1440   42.0270 H   0  0  0  0  0  0  0  0  0  0  0  0
   39.2790   32.0190   41.2980 O   0  0  0  0  0  0  0  0  0  0  0  0
   39.1910   32.9230   41.6640 H   0  0  0  0  0  0  0  0  0  0  0  0
   39.4050   32.4560   36.6050 O   0  0  0  0  0  0  0  0  0  0  0  0
   39.7150   31.9420   35.8120 H   0  0  0  0  0  0  0  0  0  0  0  0
   40.9620   32.4330   39.5740 O   0  0  0  0  0  0  0  0  0  0  0  0
   41.5110   33.1190   39.1190 H   0  0  0  0  0  0  0  0  0  0  0  0
  1 17  1  1  0  0  0
  2  1  1  0  0  0  0
  2  9  1  1  0  0  0
  3  2  1  0  0  0  0
  4  5  1  0  0  0  0
  4  3  1  0  0  0  0
  5 19  1  6  0  0  0
  5  6  1  0  0  0  0
  6 21  1  1  0  0  0
  6  1  1  0  0  0  0
  7 12  1  0  0  0  0
  7 13  1  0  0  0  0
  8  7  2  0  0  0  0
  9 10  2  0  0  0  0
  9  8  1  0  0  0  0
 10 11  1  0  0  0  0
 11 14  1  0  0  0  0
 11 12  2  0  0  0  0
 15  8  1  0  0  0  0
 15 16  1  0  0  0  0
 17 18  1  0  0  0  0
 20 19  1  0  0  0  0
 22 21  1  0  0  0  0
M  END
>  <minimizedAffinity>
-4.87416077

$$$$

 OpenBabel03252504053D

 22 23  0  0  1  0  0  0  0  0999 V2000
   37.8390   30.4140   39.8910 C   0  0  2  0  0  3  0  0  0  0  0  0
   38.7930   29.7180   40.8170 C   0  0  1  0  0  3  0  0  0  0  0  0
   39.1900   30.4820   41.9020 O   0  0  0  0  0  0  0  0  0  0  0  0
   39.7330   31.6850   41.5140 C   0  0  0  0  0  2  0  0  0  0  0  0
   38.6630   32.5650   40.9510 C   0  0  2  0  0  3  0  0  0  0  0  0
   37.6260   31.8570   40.1370 C   0  0  2  0  0  3  0  0  0  0  0  0
   36.8110   27.2300   42.8780 C   0  0  0  0  0  0  0  0  0  0  0  0
   37.2950   28.4610   42.4120 C   0  0  0  0  0  0  0  0  0  0  0  0
   38.2250   28.4430   41.3700 C   0  0  0  0  0  0  0  0  0  0  0  0
   38.6160   27.2550   40.8580 N   0  0  0  0  0  0  0  0  0  0  0  0
   38.1310   26.0800   41.3270 C   0  0  0  0  0  0  0  0  0  0  0  0
   37.2350   26.0850   42.3290 N   0  0  0  0  0  0  0  0  0  0  0  0
   36.0910   27.2630   43.6860 H   0  0  0  0  0  0  0  0  0  0  0  0
   38.4740   25.1420   40.8840 H   0  0  0  0  0  0  0  0  0  0  0  0
   36.9040   29.6930   42.9290 O   0  0  0  0  0  0  0  0  0  0  0  0
   37.2300   30.0640   43.8020 H   0  0  0  0  0  0  0  0  0  0  0  0
   36.6160   29.7320   39.9860 O   0  0  0  0  0  0  0  0  0  0  0  0
   36.1350   29.7740   39.1340 H   0  0  0  0  0  0  0  0  0  0  0  0
   39.2770   33.6160   40.2380 O   0  0  0  0  0  0  0  0  0  0  0  0
   39.7300   34.1720   40.9280 H   0  0  0  0  0  0  0  0  0  0  0  0
   36.3530   32.0490   40.7220 O   0  0  0  0  0  0  0  0  0  0  0  0
   36.0090   32.9450   40.4840 H   0  0  0  0  0  0  0  0  0  0  0  0
  1 17  1  1  0  0  0
  1  6  1  0  0  0  0
  1  2  1  0  0  0  0
  2  9  1  1  0  0  0
  2  3  1  0  0  0  0
  4  3  1  0  0  0  0
  5 19  1  6  0  0  0
  5  4  1  0  0  0  0
  6 21  1  1  0  0  0
  6  5  1  0  0  0  0
  7 13  1  0  0  0  0
  8  7  1  0  0  0  0
  8 15  1  0  0  0  0
  9  8  2  0  0  0  0
 10 11  2  0  0  0  0
 10  9  1  0  0  0  0
 11 12  1  0  0  0  0
 12  7  2  0  0  0  0
 14 11  1  0  0  0  0
 15 16  1  0  0  0  0
 18 17  1  0  0  0  0
 19 20  1  0  0  0  0
 22 21  1  0  0  0  0
M  END
>  <minimizedAffinity>
-4.86407518

$$$$

 OpenBabel03252504053D

 22 23  0  0  1  0  0  0  0  0999 V2000
   37.7410   29.8850   40.4380 C   0  0  2  0  0  3  0  0  0  0  0  0
   38.1780   30.7130   39.2650 C   0  0  1  0  0  3  0  0  0  0  0  0
   37.1380   31.1480   38.4590 O   0  0  0  0  0  0  0  0  0  0  0  0
   36.3610   30.1030   38.0130 C   0  0  0  0  0  2  0  0  0  0  0  0
   35.5850   29.5250   39.1530 C   0  0  2  0  0  3  0  0  0  0  0  0
   36.3200   29.4740   40.4560 C   0  0  2  0  0  3  0  0  0  0  0  0
   39.0690   34.1580   40.5690 C   0  0  0  0  0  0  0  0  0  0  0  0
   38.2880   33.0520   40.2050 C   0  0  0  0  0  0  0  0  0  0  0  0
   38.9430   31.9360   39.6790 C   0  0  0  0  0  0  0  0  0  0  0  0
   40.2870   31.9660   39.5450 N   0  0  0  0  0  0  0  0  0  0  0  0
   41.0180   33.0470   39.9050 C   0  0  0  0  0  0  0  0  0  0  0  0
   40.3990   34.1280   40.4120 N   0  0  0  0  0  0  0  0  0  0  0  0
   38.5450   35.0140   40.9730 H   0  0  0  0  0  0  0  0  0  0  0  0
   42.1030   33.0290   39.7800 H   0  0  0  0  0  0  0  0  0  0  0  0
   36.9030   33.0060   40.3360 O   0  0  0  0  0  0  0  0  0  0  0  0
   36.2640   33.4720   39.7180 H   0  0  0  0  0  0  0  0  0  0  0  0
   38.0310   30.6350   41.5890 O   0  0  0  0  0  0  0  0  0  0  0  0
   38.2450   30.0420   42.3370 H   0  0  0  0  0  0  0  0  0  0  0  0
   35.0940   28.2610   38.7660 O   0  0  0  0  0  0  0  0  0  0  0  0
   34.4160   28.4470   38.0630 H   0  0  0  0  0  0  0  0  0  0  0  0
   35.6250   30.2380   41.4210 O   0  0  0  0  0  0  0  0  0  0  0  0
   34.8590   29.7170   41.7690 H   0  0  0  0  0  0  0  0  0  0  0  0
  1  6  1  0  0  0  0
  1 17  1  1  0  0  0
  2  9  1  1  0  0  0
  2  1  1  0  0  0  0
  3  2  1  0  0  0  0
  4  3  1  0  0  0  0
  4  5  1  0  0  0  0
  5 19  1  6  0  0  0
  5  6  1  0  0  0  0
  6 21  1  1  0  0  0
  7 13  1  0  0  0  0
  8 15  1  0  0  0  0
  8  7  2  0  0  0  0
  9  8  1  0  0  0  0
 10  9  2  0  0  0  0
 10 11  1  0  0  0  0
 11 12  2  0  0  0  0
 12  7  1  0  0  0  0
 14 11  1  0  0  0  0
 16 15  1  0  0  0  0
 17 18  1  0  0  0  0
 20 19  1  0  0  0  0
 21 22  1  0  0  0  0
M  END
>  <minimizedAffinity>
-4.82317543

$$$$

 OpenBabel03252504053D

 22 23  0  0  1  0  0  0  0  0999 V2000
   41.5440   32.1210   37.5340 C   0  0  2  0  0  3  0  0  0  0  0  0
   41.2450   31.9980   39.0000 C   0  0  1  0  0  3  0  0  0  0  0  0
   42.0220   32.8110   39.8090 O   0  0  0  0  0  0  0  0  0  0  0  0
   43.3680   32.6070   39.6020 C   0  0  0  0  0  2  0  0  0  0  0  0
   43.7580   33.1260   38.2550 C   0  0  2  0  0  3  0  0  0  0  0  0
   42.7420   32.9110   37.1760 C   0  0  2  0  0  3  0  0  0  0  0  0
   37.5190   31.6860   39.6210 C   0  0  0  0  0  0  0  0  0  0  0  0
   38.8360   31.3150   39.3120 C   0  0  0  0  0  0  0  0  0  0  0  0
   39.8130   32.3130   39.3210 C   0  0  0  0  0  0  0  0  0  0  0  0
   39.4550   33.5810   39.6240 N   0  0  0  0  0  0  0  0  0  0  0  0
   38.1750   33.9120   39.9190 C   0  0  0  0  0  0  0  0  0  0  0  0
   37.2250   32.9590   39.9130 N   0  0  0  0  0  0  0  0  0  0  0  0
   36.7750   30.9000   39.6080 H   0  0  0  0  0  0  0  0  0  0  0  0
   37.9290   34.9490   40.1580 H   0  0  0  0  0  0  0  0  0  0  0  0
   39.2200   30.0150   38.9970 O   0  0  0  0  0  0  0  0  0  0  0  0
   39.0470   29.5770   38.1110 H   0  0  0  0  0  0  0  0  0  0  0  0
   40.4070   32.6900   36.9390 O   0  0  0  0  0  0  0  0  0  0  0  0
   40.3060   32.3670   36.0210 H   0  0  0  0  0  0  0  0  0  0  0  0
   45.0180   32.5920   37.9170 O   0  0  0  0  0  0  0  0  0  0  0  0
   45.6600   33.0130   38.5500 H   0  0  0  0  0  0  0  0  0  0  0  0
   42.3390   34.1590   36.6500 O   0  0  0  0  0  0  0  0  0  0  0  0
   43.0240   34.4900   36.0170 H   0  0  0  0  0  0  0  0  0  0  0  0
  1 17  1  6  0  0  0
  1  2  1  0  0  0  0
  2  9  1  6  0  0  0
  2  3  1  0  0  0  0
  4  3  1  0  0  0  0
  5 19  1  6  0  0  0
  5  4  1  0  0  0  0
  6 21  1  1  0  0  0
  6  1  1  0  0  0  0
  6  5  1  0  0  0  0
  7 12  1  0  0  0  0
  8  9  1  0  0  0  0
  8  7  2  0  0  0  0
  9 10  2  0  0  0  0
 10 11  1  0  0  0  0
 11 14  1  0  0  0  0
 12 11  2  0  0  0  0
 13  7  1  0  0  0  0
 15  8  1  0  0  0  0
 16 15  1  0  0  0  0
 18 17  1  0  0  0  0
 19 20  1  0  0  0  0
 22 21  1  0  0  0  0
M  END
>  <minimizedAffinity>
-4.7979002

$$$$
