REMARK  Name = 
REMARK  5 active torsions:
REMARK  status: ('A' for Active; 'I' for Inactive)
REMARK    1  A    between atoms: C_1  and  C_7
REMARK    2  A    between atoms: C_3  and  C_15
REMARK    3  A    between atoms: O_13  and  C_14
REMARK    4  A    between atoms: C_18  and  O_19
REMARK    5  A    between atoms: C_20  and  O_21
REMARK                            x       y       z     vdW  Elec       q    Type
REMARK                         _______ _______ _______ _____ _____    ______ ____
ROOT
ATOM      1  C   UNL     1      45.439  35.067  43.994  0.00  0.00    +0.000 A 
ATOM      2  C   UNL     1      46.496  34.301  43.502  0.00  0.00    +0.000 A 
ATOM      3  C   UNL     1      47.021  33.287  44.333  0.00  0.00    +0.000 A 
ATOM      4  N   UNL     1      46.456  33.123  45.569  0.00  0.00    +0.000 NA
ATOM      5  C   UNL     1      45.431  33.894  45.997  0.00  0.00    +0.000 A 
ATOM      6  N   UNL     1      44.923  34.862  45.216  0.00  0.00    +0.000 NA
ATOM      7  H   UNL     1      46.934  34.446  42.514  0.00  0.00    +0.000 HD
ATOM      8  H   UNL     1      45.025  33.711  46.995  0.00  0.00    +0.000 HD
ENDROOT
BRANCH   3  10
ATOM      9  C   UNL     1      48.142  31.196  44.757  0.00  0.00    +0.000 C 
ATOM     10  C   UNL     1      48.145  32.426  43.888  0.00  0.00    +0.000 C 
ATOM     11  O   UNL     1      47.892  32.023  42.595  0.00  0.00    +0.000 OA
ATOM     12  C   UNL     1      48.837  31.206  42.037  0.00  0.00    +0.000 C 
ATOM     13  C   UNL     1      49.256  30.027  42.834  0.00  0.00    +0.000 C 
ATOM     14  C   UNL     1      49.176  30.194  44.319  0.00  0.00    +0.000 C 
BRANCH   9  15
ATOM     15  O   UNL     1      48.342  31.557  46.076  0.00  0.00    +0.000 OA
ATOM     16  H   UNL     1      48.680  30.814  46.617  0.00  0.00    +0.000 HD
ENDBRANCH   9  15
BRANCH  13  17
ATOM     17  O   UNL     1      50.594  29.770  42.527  0.00  0.00    +0.000 OA
ATOM     18  H   UNL     1      50.983  29.128  43.178  0.00  0.00    +0.000 HD
ENDBRANCH  13  17
BRANCH  14  19
ATOM     19  O   UNL     1      48.844  28.971  44.901  0.00  0.00    +0.000 OA
ATOM     20  H   UNL     1      48.291  29.035  45.697  0.00  0.00    +0.000 HD
ENDBRANCH  14  19
ENDBRANCH   3  10
BRANCH   1  21
ATOM     21  C   UNL     1      44.899  36.139  43.092  0.00  0.00    +0.000 C 
ATOM     22  H   UNL     1      43.915  35.750  42.714  0.00  0.00    +0.000 HD
ATOM     23  H   UNL     1      45.601  36.383  42.299  0.00  0.00    +0.000 HD
ATOM     24  H   UNL     1      44.620  37.026  43.715  0.00  0.00    +0.000 HD
ENDBRANCH   1  21
TORSDOF 5
