
 OpenBabel03252504333D

 43 45  0  0  1  0  0  0  0  0999 V2000
   40.9440   35.1580   41.5890 C   0  0  0  0  0  0  0  0  0  0  0  0
   41.1550   34.8640   42.6540 H   0  0  0  0  0  0  0  0  0  0  0  0
   40.2510   36.0230   41.6630 H   0  0  0  0  0  0  0  0  0  0  0  0
   40.6280   32.7470   41.4960 C   0  0  0  0  0  0  0  0  0  0  0  0
   40.1570   33.9990   41.0620 C   0  0  0  0  0  0  0  0  0  0  0  0
   39.0740   34.0370   40.2540 C   0  0  0  0  0  0  0  0  0  0  0  0
   38.5340   32.8740   39.9300 N   0  0  0  0  0  0  0  0  0  0  0  0
   38.9490   31.6800   40.3200 C   0  0  0  0  0  0  0  0  0  0  0  0
   40.0640   31.5750   41.1550 N   0  0  0  0  0  0  0  0  0  0  0  0
   41.4880   32.6240   42.1420 H   0  0  0  0  0  0  0  0  0  0  0  0
   38.7470   35.0180   39.9440 H   0  0  0  0  0  0  0  0  0  0  0  0
   37.2000   30.0470   40.8300 C   0  0  1  0  0  3  0  0  0  0  0  0
   38.3000   30.3980   39.9240 C   0  0  2  0  0  3  0  0  0  0  0  0
   39.3010   29.4860   39.7400 O   0  0  0  0  0  0  0  0  0  0  0  0
   39.0560   28.2010   40.1270 C   0  0  0  0  0  2  0  0  0  0  0  0
   38.8190   28.3070   41.6410 C   0  0  1  0  0  3  0  0  0  0  0  0
   37.4170   28.8690   41.7350 C   0  0  1  0  0  3  0  0  0  0  0  0
   36.7930   31.1130   41.6630 O   0  0  0  0  0  0  0  0  0  0  0  0
   37.1220   31.0090   42.5750 H   0  0  0  0  0  0  0  0  0  0  0  0
   38.8880   27.0350   42.1530 O   0  0  0  0  0  0  0  0  0  0  0  0
   39.5720   26.5110   41.6480 H   0  0  0  0  0  0  0  0  0  0  0  0
   37.1890   29.1530   43.0810 O   0  0  0  0  0  0  0  0  0  0  0  0
   36.4850   28.5850   43.4820 H   0  0  0  0  0  0  0  0  0  0  0  0
   42.0060   35.4980   40.8140 O   0  0  0  0  0  0  0  0  0  0  0  0
   43.3560   35.4310   41.1310 C   0  0  0  0  0  3  0  0  0  0  0  0
   43.6600   35.5320   42.4210 C   0  0  0  0  0  3  0  0  0  0  0  0
   45.0580   35.4830   43.0080 C   0  0  0  0  0  0  0  0  0  0  0  0
   45.7290   34.9710   42.2890 H   0  0  0  0  0  0  0  0  0  0  0  0
   45.4460   36.4950   43.2200 H   0  0  0  0  0  0  0  0  0  0  0  0
   44.9890   34.7360   44.1680 O   0  0  0  0  0  0  0  0  0  0  0  0
   45.7240   32.5650   42.8160 O   0  0  0  0  0  0  0  0  0  0  0  0
   45.9750   33.3720   44.0700 P   0  0  1  0  0  0  0  0  0  0  0  0
   47.6160   33.8350   44.0410 O   0  0  0  0  0  0  0  0  0  0  0  0
   47.6450   34.6380   44.6520 H   0  0  0  0  0  0  0  0  0  0  0  0
   45.7620   32.4030   45.4340 O   0  0  0  0  0  0  0  0  0  0  0  0
   46.1000   33.0560   46.6030 C   0  0  0  0  0  0  0  0  0  0  0  0
   47.0390   32.3880   47.5600 C   0  0  0  0  0  0  0  0  0  0  0  0
   45.5510   32.4500   47.8700 C   0  0  0  0  0  0  0  0  0  0  0  0
   46.1000   34.1600   46.5430 H   0  0  0  0  0  0  0  0  0  0  0  0
   47.4600   31.4230   47.2000 H   0  0  0  0  0  0  0  0  0  0  0  0
   47.6700   33.0740   48.1570 H   0  0  0  0  0  0  0  0  0  0  0  0
   45.2050   33.1120   48.6880 H   0  0  0  0  0  0  0  0  0  0  0  0
   45.0520   31.4600   47.8220 H   0  0  0  0  0  0  0  0  0  0  0  0
  1  3  1  0  0  0  0
  1  2  1  0  0  0  0
  4 10  1  0  0  0  0
  5  4  2  0  0  0  0
  5  1  1  0  0  0  0
  6  5  1  0  0  0  0
  7  6  2  0  0  0  0
  7  8  1  0  0  0  0
  8  9  2  0  0  0  0
  9  4  1  0  0  0  0
 11  6  1  0  0  0  0
 12 18  1  1  0  0  0
 12 17  1  0  0  0  0
 13  8  1  1  0  0  0
 13 12  1  0  0  0  0
 14 13  1  0  0  0  0
 14 15  1  0  0  0  0
 15 16  1  0  0  0  0
 16 17  1  0  0  0  0
 16 20  1  1  0  0  0
 17 22  1  1  0  0  0
 18 19  1  0  0  0  0
 21 20  1  0  0  0  0
 22 23  1  0  0  0  0
 24 25  1  0  0  0  0
 24  1  1  0  0  0  0
 25 26  2  0  0  0  0
 26 27  1  0  0  0  0
 27 29  1  0  0  0  0
 27 30  1  0  0  0  0
 28 27  1  0  0  0  0
 32 31  2  6  0  0  0
 32 30  1  0  0  0  0
 32 35  1  0  0  0  0
 33 32  1  0  0  0  0
 33 34  1  0  0  0  0
 35 36  1  0  0  0  0
 36 37  1  0  0  0  0
 36 38  1  0  0  0  0
 37 38  1  0  0  0  0
 37 41  1  0  0  0  0
 38 42  1  0  0  0  0
 39 36  1  0  0  0  0
 40 37  1  0  0  0  0
 43 38  1  0  0  0  0
M  END
>  <minimizedAffinity>
-5.87552595

>  <minimizedRMSD>
1.4098506

$$$$
