
 OpenBabel03242518023D

 40 42  0  0  1  0  0  0  0  0999 V2000
   46.3200   32.0020   46.8280 C   0  0  0  0  0  0  0  0  0  0  0  0
   45.8670   32.7670   47.4500 H   0  0  0  0  0  0  0  0  0  0  0  0
   45.5400   31.1840   46.7640 H   0  0  0  0  0  0  0  0  0  0  0  0
   48.0800   32.0190   48.5880 C   0  0  0  0  0  0  0  0  0  0  0  0
   47.4820   31.4040   47.4660 C   0  0  0  0  0  0  0  0  0  0  0  0
   48.0740   30.2120   47.0230 C   0  0  0  0  0  0  0  0  0  0  0  0
   49.1530   29.7240   47.6690 N   0  0  0  0  0  0  0  0  0  0  0  0
   49.6930   30.3450   48.7380 C   0  0  0  0  0  0  0  0  0  0  0  0
   49.1580   31.4770   49.1850 N   0  0  0  0  0  0  0  0  0  0  0  0
   47.6940   32.9440   49.0050 H   0  0  0  0  0  0  0  0  0  0  0  0
   47.6350   29.7220   46.1670 H   0  0  0  0  0  0  0  0  0  0  0  0
   50.3610   28.8390   50.4880 C   0  0  1  0  0  3  0  0  0  0  0  0
   50.8840   29.7940   49.4400 C   0  0  2  0  0  3  0  0  0  0  0  0
   51.7310   30.7420   49.9300 O   0  0  0  0  0  0  0  0  0  0  0  0
   52.3690   30.4190   51.1010 C   0  0  0  0  0  2  0  0  0  0  0  0
   52.6900   28.9630   51.2880 C   0  0  2  0  0  3  0  0  0  0  0  0
   51.5280   28.0510   51.0280 C   0  0  1  0  0  3  0  0  0  0  0  0
   49.7040   29.5720   51.4450 O   0  0  0  0  0  0  0  0  0  0  0  0
   49.2060   29.0300   52.0970 H   0  0  0  0  0  0  0  0  0  0  0  0
   53.0790   28.7990   52.6160 O   0  0  0  0  0  0  0  0  0  0  0  0
   53.6320   27.9840   52.7420 H   0  0  0  0  0  0  0  0  0  0  0  0
   51.1080   27.3180   52.1110 O   0  0  0  0  0  0  0  0  0  0  0  0
   51.6340   27.5590   52.8960 H   0  0  0  0  0  0  0  0  0  0  0  0
   46.7380   32.4490   45.4440 C   0  0  0  0  0  0  0  0  0  0  0  0
   47.8460   32.6620   45.3880 H   0  0  0  0  0  0  0  0  0  0  0  0
   46.6010   31.5850   44.7660 H   0  0  0  0  0  0  0  0  0  0  0  0
   46.3680   34.1520   43.7060 C   0  0  0  0  0  0  0  0  0  0  0  0
   46.0750   33.6700   44.9660 C   0  0  0  0  0  0  0  0  0  0  0  0
   45.1820   34.2740   45.8090 C   0  0  0  0  0  0  0  0  0  0  0  0
   44.5470   35.4180   45.3800 C   0  0  0  0  0  0  0  0  0  0  0  0
   44.7770   35.9650   44.1470 C   0  0  0  0  0  0  0  0  0  0  0  0
   45.6980   35.2960   43.3430 C   0  0  0  0  0  0  0  0  0  0  0  0
   44.8960   33.9830   46.7860 H   0  0  0  0  0  0  0  0  0  0  0  0
   43.8190   35.9700   45.9810 H   0  0  0  0  0  0  0  0  0  0  0  0
   44.2830   36.8660   43.7970 H   0  0  0  0  0  0  0  0  0  0  0  0
   45.9120   35.6980   42.3490 H   0  0  0  0  0  0  0  0  0  0  0  0
   47.5050   33.4080   42.6010 S   0  0  0  0  0  0  0  0  0  0  0  0
   48.9400   33.7410   42.9460 O   0  0  0  0  0  0  0  0  0  0  0  0
   47.2960   34.0090   41.2280 O   0  0  0  0  0  0  0  0  0  0  0  0
   47.3050   32.0690   42.4430 H   0  0  0  0  0  0  0  0  0  0  0  0
  1  2  1  0  0  0  0
  1  5  1  0  0  0  0
  3  1  1  0  0  0  0
  4 10  1  0  0  0  0
  4  9  1  0  0  0  0
  5  4  2  0  0  0  0
  6  5  1  0  0  0  0
  6  7  2  0  0  0  0
  7  8  1  0  0  0  0
  8  9  2  0  0  0  0
 11  6  1  0  0  0  0
 12 17  1  0  0  0  0
 12 18  1  1  0  0  0
 13  8  1  1  0  0  0
 13 14  1  0  0  0  0
 13 12  1  0  0  0  0
 14 15  1  0  0  0  0
 15 16  1  0  0  0  0
 16 20  1  1  0  0  0
 17 16  1  0  0  0  0
 17 22  1  1  0  0  0
 18 19  1  0  0  0  0
 20 21  1  0  0  0  0
 22 23  1  0  0  0  0
 24  1  1  0  0  0  0
 25 24  1  0  0  0  0
 26 24  1  0  0  0  0
 27 28  1  0  0  0  0
 28 24  1  0  0  0  0
 28 29  2  0  0  0  0
 29 33  1  0  0  0  0
 30 29  1  0  0  0  0
 30 34  1  0  0  0  0
 31 30  2  0  0  0  0
 32 27  2  0  0  0  0
 32 31  1  0  0  0  0
 35 31  1  0  0  0  0
 36 32  1  0  0  0  0
 37 38  2  0  0  0  0
 37 27  1  0  0  0  0
 39 37  2  0  0  0  0
 40 37  1  0  0  0  0
M  END
>  <minimizedAffinity>
-5.98440027

>  <minimizedRMSD>
1.52693725

$$$$
