
     RDKit          3D

 34 35  0  0  0  0  0  0  0  0999 V2000
   44.6943   35.5180   43.6081 C   0  0  0  0  0  0  0  0  0  0  0  0
   43.9340   35.4466   42.4011 C   0  0  0  0  0  0  0  0  0  0  0  0
   43.7823   34.1718   41.8293 C   0  0  0  0  0  0  0  0  0  0  0  0
   44.3547   33.0913   42.4403 N   0  0  0  0  0  0  0  0  0  0  0  0
   45.0726   33.2158   43.5948 C   0  0  0  0  0  0  0  0  0  0  0  0
   45.2261   34.4354   44.1550 N   0  0  0  0  0  0  0  0  0  0  0  0
   44.8576   36.8303   44.2145 C   0  0  0  0  0  0  0  0  0  0  0  0
   45.2347   37.8434   43.4656 C   0  0  0  0  0  0  0  0  0  0  0  0
   45.4247   39.2135   43.9773 C   0  0  0  0  0  0  0  0  0  0  0  0
   43.5272   36.3554   42.0040 H   0  0  0  0  0  0  0  0  0  0  0  0
   43.2150   34.0992   40.9236 H   0  0  0  0  0  0  0  0  0  0  0  0
   44.6742   36.9986   45.2831 H   0  0  0  0  0  0  0  0  0  0  0  0
   45.4118   37.6503   42.4034 H   0  0  0  0  0  0  0  0  0  0  0  0
   44.4215   39.7221   43.9293 H   0  0  0  0  0  0  0  0  0  0  0  0
   46.0769   39.8010   43.3260 H   0  0  0  0  0  0  0  0  0  0  0  0
   45.7079   39.2383   45.0394 H   0  0  0  0  0  0  0  0  0  0  0  0
   46.1136   32.8278   46.4733 O   0  0  0  0  0  0  0  0  0  0  0  0
   46.6983   32.4401   45.2712 C   0  0  2  0  0  0  0  0  0  0  0  0
   45.6770   32.0331   44.2288 C   0  0  1  0  0  0  0  0  0  0  0  0
   44.7500   31.2233   44.8864 O   0  0  0  0  0  0  0  0  0  0  0  0
   45.3712   30.0007   45.1326 C   0  0  0  0  0  0  0  0  0  0  0  0
   46.5804   30.1134   46.0233 C   0  0  1  0  0  0  0  0  0  0  0  0
   47.2825   28.9028   45.9228 O   0  0  0  0  0  0  0  0  0  0  0  0
   47.5316   31.1988   45.5619 C   0  0  2  0  0  0  0  0  0  0  0  0
   48.4096   31.5175   46.6000 O   0  0  0  0  0  0  0  0  0  0  0  0
   45.6891   33.7210   46.4380 H   0  0  0  0  0  0  0  0  0  0  0  0
   47.2787   33.2759   44.8833 H   0  0  0  0  0  0  0  0  0  0  0  0
   46.2048   31.4290   43.4741 H   0  0  0  0  0  0  0  0  0  0  0  0
   44.6467   29.3370   45.6776 H   0  0  0  0  0  0  0  0  0  0  0  0
   45.6375   29.5820   44.1407 H   0  0  0  0  0  0  0  0  0  0  0  0
   46.2745   30.3618   47.0415 H   0  0  0  0  0  0  0  0  0  0  0  0
   46.8385   28.2820   46.5572 H   0  0  0  0  0  0  0  0  0  0  0  0
   48.1163   30.8918   44.6547 H   0  0  0  0  0  0  0  0  0  0  0  0
   49.2937   31.7930   46.2414 H   0  0  0  0  0  0  0  0  0  0  0  0
  1  6  2  0
  1  7  1  0
  2  1  1  0
  3  2  2  0
  3  4  1  0
  4  5  2  0
  5  6  1  0
  8  9  1  0
  8  7  2  0
  2 10  1  0
  3 11  1  0
  7 12  1  0
  8 13  1  0
  9 14  1  0
  9 15  1  0
  9 16  1  0
 17 18  1  0
 18 19  1  0
 19 20  1  0
 20 21  1  0
 21 22  1  0
 22 23  1  0
 22 24  1  0
 24 25  1  0
 24 18  1  0
 17 26  1  0
 18 27  1  6
 19 28  1  6
 21 29  1  0
 21 30  1  0
 22 31  1  1
 23 32  1  0
 24 33  1  6
 25 34  1  0
  5 19  1  0
M  ISO  5  10  14  11  14  14   8  15   8  16   8
M  END
>  <DihAtoms>  (1) 
3,4,18,17

>  <DihDeg>  (1) 
105.57629265415233

$$$$
